=
 OpenBabel11042423123D

 29 33  0  0  1  0  0  0  0  0999 V2000
  161.8410  209.1680  155.3510 C   0  0  2  0  0  3  0  0  0  0  0  0
  161.6900  209.7730  156.7450 C   0  0  2  0  0  3  0  0  0  0  0  0
  157.0080  213.1050  153.6730 C   0  0  0  0  0  0  0  0  0  0  0  0
  157.9300  212.1530  154.2630 C   0  0  0  0  0  0  0  0  0  0  0  0
  159.4880  210.6340  156.0730 C   0  0  0  0  0  0  0  0  0  0  0  0
  157.0680  213.5660  152.5030 O   0  0  0  0  0  0  0  0  0  0  0  0
  155.5310  212.8850  156.9580 C   0  0  0  0  0  1  0  0  0  0  0  0
  156.0090  213.4650  154.6250 N   0  0  0  0  0  0  0  0  0  0  0  0
  160.3370  210.2790  156.9930 N   0  0  0  0  0  0  0  0  0  0  0  0
  159.6790  211.9320  152.6790 O   0  0  0  0  0  0  0  0  0  0  0  0
  158.2460  211.2390  156.4680 N   0  0  0  0  0  2  0  0  0  0  0  0
  159.7700  210.4200  154.5860 C   0  0  2  0  0  3  0  0  0  0  0  0
  157.4980  211.9650  155.4900 C   0  0  0  0  0  0  0  0  0  0  0  0
  161.2480  210.1080  154.2880 C   0  0  2  0  0  3  0  0  0  0  0  0
  159.1710  211.5500  153.7680 C   0  0  0  0  0  0  0  0  0  0  0  0
  162.6990  210.8890  156.9450 C   0  0  0  0  0  1  0  0  0  0  0  0
  156.3080  212.7920  155.6940 C   0  0  0  0  0  0  0  0  0  0  0  0
  161.2180  207.7790  155.3270 C   0  0  0  0  0  1  0  0  0  0  0  0
  162.4080  209.3380  150.9190 N   0  0  0  0  0  0  0  0  0  0  0  0
  161.4900  207.2620  150.2750 N   0  0  0  0  0  0  0  0  0  0  0  0
  161.4910  209.5610  152.9040 C   0  0  0  0  0  0  0  0  0  0  0  0
  161.1420  206.3290  151.1010 C   0  0  0  0  0  0  0  0  0  0  0  0
  161.4110  208.5200  150.9140 C   0  0  0  0  0  0  0  0  0  0  0  0
  160.7960  206.8400  152.7960 S   0  0  0  0  0  0  0  0  0  0  0  0
  162.4210  210.0250  152.1350 N   0  0  0  0  0  0  0  0  0  0  0  0
  161.0680  204.9600  150.7040 N   0  0  0  0  0  2  0  0  0  0  0  0
  160.6580  208.5480  152.1810 C   0  0  1  0  0  3  0  0  0  0  0  0
  161.3560  204.5300  149.3460 C   0  0  0  0  0  2  0  0  0  0  0  0
  160.8530  203.1170  149.1470 C   0  0  0  0  0  1  0  0  0  0  0  0
  1 18  1  1  0  0  0
  1  2  1  0  0  0  0
  2 16  1  6  0  0  0
  2  9  1  0  0  0  0
  3  4  1  0  0  0  0
  3  8  1  0  0  0  0
  4 13  2  0  0  0  0
  5 11  1  0  0  0  0
  5  9  2  0  0  0  0
  6  3  2  0  0  0  0
  8 17  2  0  0  0  0
 10 15  2  0  0  0  0
 12 15  1  6  0  0  0
 12  5  1  0  0  0  0
 13 17  1  0  0  0  0
 13 11  1  0  0  0  0
 14 21  1  6  0  0  0
 14 12  1  0  0  0  0
 14  1  1  0  0  0  0
 15  4  1  0  0  0  0
 17  7  1  0  0  0  0
 19 25  1  0  0  0  0
 20 23  1  0  0  0  0
 20 22  2  0  0  0  0
 22 24  1  0  0  0  0
 23 19  2  0  0  0  0
 25 21  2  0  0  0  0
 26 22  1  0  0  0  0
 27 23  1  6  0  0  0
 27 24  1  0  0  0  0
 27 21  1  0  0  0  0
 28 26  1  0  0  0  0
 29 28  1  0  0  0  0
M  END
>  <MODEL>
1

>  <REMARK>
 VINA RESULT:      -7.2      0.000      0.000
  Name = 
  2 active torsions:
  status: ('A' for Active; 'I' for Inactive)
    1  A    between atoms: C_6  and  N_24
    2  A    between atoms: C_9  and  C_22
                            x       y       z     vdW  Elec       q    Type
                         _______ _______ _______ _____ _____    ______ ____

>  <TORSDO>
F 2

$$$$
=
 OpenBabel11042423123D

 29 33  0  0  1  0  0  0  0  0999 V2000
  161.5810  208.4670  156.0590 C   0  0  2  0  0  3  0  0  0  0  0  0
  161.6910  209.5690  157.1100 C   0  0  2  0  0  3  0  0  0  0  0  0
  158.0310  212.7030  152.7240 C   0  0  0  0  0  0  0  0  0  0  0  0
  158.6640  211.8210  153.6850 C   0  0  0  0  0  0  0  0  0  0  0  0
  159.8050  210.7150  156.0280 C   0  0  0  0  0  0  0  0  0  0  0  0
  158.1580  212.6480  151.4730 O   0  0  0  0  0  0  0  0  0  0  0  0
  156.7400  214.1830  155.7510 C   0  0  0  0  0  1  0  0  0  0  0  0
  157.2360  213.6710  153.4060 N   0  0  0  0  0  0  0  0  0  0  0  0
  160.5630  210.5030  157.0640 N   0  0  0  0  0  0  0  0  0  0  0  0
  160.1810  210.5170  152.4140 O   0  0  0  0  0  0  0  0  0  0  0  0
  158.8190  211.7590  156.0880 N   0  0  0  0  0  2  0  0  0  0  0  0
  159.9290  209.8830  154.7520 C   0  0  2  0  0  3  0  0  0  0  0  0
  158.2640  212.2450  154.8640 C   0  0  0  0  0  0  0  0  0  0  0  0
  161.2320  209.0630  154.6860 C   0  0  2  0  0  3  0  0  0  0  0  0
  159.6440  210.7410  153.5320 C   0  0  0  0  0  0  0  0  0  0  0  0
  162.9930  210.3310  156.9370 C   0  0  0  0  0  1  0  0  0  0  0  0
  157.3830  213.3960  154.6660 C   0  0  0  0  0  0  0  0  0  0  0  0
  160.5760  207.4190  156.5230 C   0  0  0  0  0  1  0  0  0  0  0  0
  160.6100  206.1750  152.5520 N   0  0  0  0  0  0  0  0  0  0  0  0
  161.7730  206.4880  150.5240 N   0  0  0  0  0  0  0  0  0  0  0  0
  161.2260  207.9890  153.6280 C   0  0  0  0  0  0  0  0  0  0  0  0
  162.0790  207.6420  150.0270 C   0  0  0  0  0  0  0  0  0  0  0  0
  161.6610  206.5850  151.9290 C   0  0  0  0  0  0  0  0  0  0  0  0
  162.1480  209.0250  151.1830 S   0  0  0  0  0  0  0  0  0  0  0  0
  160.3750  207.0160  153.6420 N   0  0  0  0  0  0  0  0  0  0  0  0
  162.3190  207.8240  148.6310 N   0  0  0  0  0  2  0  0  0  0  0  0
  162.2290  207.8050  152.5330 C   0  0  1  0  0  3  0  0  0  0  0  0
  162.2550  206.7230  147.6850 C   0  0  0  0  0  2  0  0  0  0  0  0
  160.8440  206.6010  147.1500 C   0  0  0  0  0  1  0  0  0  0  0  0
  1 18  1  1  0  0  0
  1  2  1  0  0  0  0
  2 16  1  6  0  0  0
  3  8  1  0  0  0  0
  3  4  1  0  0  0  0
  4 13  2  0  0  0  0
  5 11  1  0  0  0  0
  5  9  2  0  0  0  0
  6  3  2  0  0  0  0
  8 17  2  0  0  0  0
  9  2  1  0  0  0  0
 10 15  2  0  0  0  0
 12 15  1  6  0  0  0
 12  5  1  0  0  0  0
 13 11  1  0  0  0  0
 14 21  1  6  0  0  0
 14 12  1  0  0  0  0
 14  1  1  0  0  0  0
 15  4  1  0  0  0  0
 17 13  1  0  0  0  0
 17  7  1  0  0  0  0
 19 25  1  0  0  0  0
 20 23  1  0  0  0  0
 21 25  2  0  0  0  0
 22 20  2  0  0  0  0
 22 24  1  0  0  0  0
 23 27  1  0  0  0  0
 23 19  2  0  0  0  0
 26 22  1  0  0  0  0
 27 24  1  6  0  0  0
 27 21  1  0  0  0  0
 28 26  1  0  0  0  0
 29 28  1  0  0  0  0
M  END
>  <MODEL>
2

>  <REMARK>
 VINA RESULT:      -6.7      1.786      2.048
  Name = 
  2 active torsions:
  status: ('A' for Active; 'I' for Inactive)
    1  A    between atoms: C_6  and  N_24
    2  A    between atoms: C_9  and  C_22
                            x       y       z     vdW  Elec       q    Type
                         _______ _______ _______ _____ _____    ______ ____

>  <TORSDO>
F 2

$$$$
=
 OpenBabel11042423123D

 29 33  0  0  1  0  0  0  0  0999 V2000
  161.2220  207.8400  155.5500 C   0  0  2  0  0  3  0  0  0  0  0  0
  161.3210  208.9050  156.6390 C   0  0  2  0  0  3  0  0  0  0  0  0
  159.4900  212.6970  151.6670 C   0  0  0  0  0  0  0  0  0  0  0  0
  159.6890  211.7110  152.7120 C   0  0  0  0  0  0  0  0  0  0  0  0
  160.0130  210.4150  155.2070 C   0  0  0  0  0  0  0  0  0  0  0  0
  159.8820  212.6030  150.4750 O   0  0  0  0  0  0  0  0  0  0  0  0
  157.8880  214.4530  154.3830 C   0  0  0  0  0  1  0  0  0  0  0  0
  158.7830  213.8210  152.1910 N   0  0  0  0  0  0  0  0  0  0  0  0
  160.4540  210.0570  156.3780 N   0  0  0  0  0  0  0  0  0  0  0  0
  161.1450  210.1000  151.7630 O   0  0  0  0  0  0  0  0  0  0  0  0
  159.2810  211.6450  155.0840 N   0  0  0  0  0  2  0  0  0  0  0  0
  160.2440  209.5610  153.9610 C   0  0  2  0  0  3  0  0  0  0  0  0
  159.1320  212.2250  153.7860 C   0  0  0  0  0  0  0  0  0  0  0  0
  161.3250  208.4820  154.1570 C   0  0  2  0  0  3  0  0  0  0  0  0
  160.4290  210.4460  152.7410 C   0  0  0  0  0  0  0  0  0  0  0  0
  162.7590  209.3700  156.7900 C   0  0  0  0  0  1  0  0  0  0  0  0
  158.5800  213.5350  153.4410 C   0  0  0  0  0  0  0  0  0  0  0  0
  159.9410  207.0360  155.7380 C   0  0  0  0  0  1  0  0  0  0  0  0
  160.7520  205.6040  151.9950 N   0  0  0  0  0  0  0  0  0  0  0  0
  161.8710  205.9770  149.9520 N   0  0  0  0  0  0  0  0  0  0  0  0
  161.3330  207.4220  153.0850 C   0  0  0  0  0  0  0  0  0  0  0  0
  162.1340  207.1460  149.4650 C   0  0  0  0  0  0  0  0  0  0  0  0
  161.7800  206.0530  151.3600 C   0  0  0  0  0  0  0  0  0  0  0  0
  162.1820  208.5150  150.6390 S   0  0  0  0  0  0  0  0  0  0  0  0
  160.5110  206.4240  153.1000 N   0  0  0  0  0  0  0  0  0  0  0  0
  162.3440  207.3530  148.0690 N   0  0  0  0  0  2  0  0  0  0  0  0
  162.3230  207.2810  151.9700 C   0  0  1  0  0  3  0  0  0  0  0  0
  162.2960  206.2630  147.1080 C   0  0  0  0  0  2  0  0  0  0  0  0
  160.8800  206.1050  146.5970 C   0  0  0  0  0  1  0  0  0  0  0  0
  1 18  1  6  0  0  0
  1  2  1  0  0  0  0
  2 16  1  6  0  0  0
  3  8  1  0  0  0  0
  3  4  1  0  0  0  0
  4 15  1  0  0  0  0
  4 13  2  0  0  0  0
  5  9  2  0  0  0  0
  6  3  2  0  0  0  0
  8 17  2  0  0  0  0
  9  2  1  0  0  0  0
 10 15  2  0  0  0  0
 11  5  1  0  0  0  0
 12 15  1  6  0  0  0
 12 14  1  0  0  0  0
 12  5  1  0  0  0  0
 13 11  1  0  0  0  0
 14 21  1  6  0  0  0
 14  1  1  0  0  0  0
 17 13  1  0  0  0  0
 17  7  1  0  0  0  0
 19 25  1  0  0  0  0
 20 23  1  0  0  0  0
 21 25  2  0  0  0  0
 22 20  2  0  0  0  0
 22 24  1  0  0  0  0
 23 27  1  0  0  0  0
 23 19  2  0  0  0  0
 26 22  1  0  0  0  0
 27 24  1  6  0  0  0
 27 21  1  0  0  0  0
 28 26  1  0  0  0  0
 29 28  1  0  0  0  0
M  END
>  <MODEL>
3

>  <REMARK>
 VINA RESULT:      -5.3      2.263      2.663
  Name = 
  2 active torsions:
  status: ('A' for Active; 'I' for Inactive)
    1  A    between atoms: C_6  and  N_24
    2  A    between atoms: C_9  and  C_22
                            x       y       z     vdW  Elec       q    Type
                         _______ _______ _______ _____ _____    ______ ____

>  <TORSDO>
F 2

$$$$
=
 OpenBabel11042423123D

 29 33  0  0  1  0  0  0  0  0999 V2000
  161.5910  207.3980  154.1980 C   0  0  2  0  0  3  0  0  0  0  0  0
  161.4640  207.7030  155.6890 C   0  0  2  0  0  3  0  0  0  0  0  0
  158.0690  212.7370  153.3250 C   0  0  0  0  0  0  0  0  0  0  0  0
  158.6650  211.4710  153.7060 C   0  0  0  0  0  0  0  0  0  0  0  0
  159.6190  209.2380  155.1630 C   0  0  0  0  0  0  0  0  0  0  0  0
  158.3520  213.4090  152.2980 O   0  0  0  0  0  0  0  0  0  0  0  0
  156.2810  212.2040  156.4130 C   0  0  0  0  0  1  0  0  0  0  0  0
  157.1060  213.1310  154.3000 N   0  0  0  0  0  0  0  0  0  0  0  0
  160.2620  208.4810  156.0020 N   0  0  0  0  0  0  0  0  0  0  0  0
  160.4470  211.1470  152.1760 O   0  0  0  0  0  0  0  0  0  0  0  0
  158.5340  210.0480  155.6450 N   0  0  0  0  0  2  0  0  0  0  0  0
  159.9780  209.2870  153.6780 C   0  0  2  0  0  3  0  0  0  0  0  0
  158.0860  211.1400  154.8390 C   0  0  0  0  0  0  0  0  0  0  0  0
  161.3530  208.6680  153.3650 C   0  0  2  0  0  3  0  0  0  0  0  0
  159.7590  210.6850  153.1270 C   0  0  0  0  0  0  0  0  0  0  0  0
  162.6950  208.4420  156.1810 C   0  0  0  0  0  1  0  0  0  0  0  0
  157.1260  212.1870  155.1900 C   0  0  0  0  0  0  0  0  0  0  0  0
  160.6470  206.2610  153.8280 C   0  0  0  0  0  1  0  0  0  0  0  0
  162.4200  208.6050  149.8810 N   0  0  0  0  0  0  0  0  0  0  0  0
  161.6820  206.5830  148.9160 N   0  0  0  0  0  0  0  0  0  0  0  0
  161.5820  208.3920  151.9010 C   0  0  0  0  0  0  0  0  0  0  0  0
  161.4690  205.4920  149.5780 C   0  0  0  0  0  0  0  0  0  0  0  0
  161.5100  207.6990  149.7650 C   0  0  0  0  0  0  0  0  0  0  0  0
  161.1560  205.6700  151.3460 S   0  0  0  0  0  0  0  0  0  0  0  0
  162.4240  209.0750  151.1970 N   0  0  0  0  0  0  0  0  0  0  0  0
  161.5110  204.2090  148.9530 N   0  0  0  0  0  2  0  0  0  0  0  0
  160.8190  207.4330  151.0400 C   0  0  1  0  0  3  0  0  0  0  0  0
  161.7750  204.0480  147.5330 C   0  0  0  0  0  2  0  0  0  0  0  0
  160.9110  202.9330  146.9830 C   0  0  0  0  0  1  0  0  0  0  0  0
  1 18  1  6  0  0  0
  1  2  1  0  0  0  0
  2  9  1  0  0  0  0
  2 16  1  6  0  0  0
  3  4  1  0  0  0  0
  3  8  1  0  0  0  0
  4 13  2  0  0  0  0
  5 11  1  0  0  0  0
  5  9  2  0  0  0  0
  6  3  2  0  0  0  0
  8 17  2  0  0  0  0
 10 15  2  0  0  0  0
 12 15  1  1  0  0  0
 12  5  1  0  0  0  0
 13 17  1  0  0  0  0
 13 11  1  0  0  0  0
 14 21  1  6  0  0  0
 14 12  1  0  0  0  0
 14  1  1  0  0  0  0
 15  4  1  0  0  0  0
 17  7  1  0  0  0  0
 19 25  1  0  0  0  0
 20 22  2  0  0  0  0
 20 23  1  0  0  0  0
 22 24  1  0  0  0  0
 23 19  2  0  0  0  0
 25 21  2  0  0  0  0
 26 22  1  0  0  0  0
 27 23  1  6  0  0  0
 27 24  1  0  0  0  0
 27 21  1  0  0  0  0
 28 26  1  0  0  0  0
 29 28  1  0  0  0  0
M  END
>  <MODEL>
4

>  <REMARK>
 VINA RESULT:      -4.4      1.399      1.663
  Name = 
  2 active torsions:
  status: ('A' for Active; 'I' for Inactive)
    1  A    between atoms: C_6  and  N_24
    2  A    between atoms: C_9  and  C_22
                            x       y       z     vdW  Elec       q    Type
                         _______ _______ _______ _____ _____    ______ ____

>  <TORSDO>
F 2

$$$$
=
 OpenBabel11042423123D

 29 33  0  0  1  0  0  0  0  0999 V2000
  161.0390  213.0140  148.7850 C   0  0  2  0  0  3  0  0  0  0  0  0
  162.3610  212.4090  148.3170 C   0  0  2  0  0  3  0  0  0  0  0  0
  159.6360  213.5200  142.5040 C   0  0  0  0  0  0  0  0  0  0  0  0
  160.1920  213.5240  143.8430 C   0  0  0  0  0  0  0  0  0  0  0  0
  161.9210  213.3150  146.0750 C   0  0  0  0  0  0  0  0  0  0  0  0
  158.4250  213.3520  142.2050 O   0  0  0  0  0  0  0  0  0  0  0  0
  163.1040  214.0380  141.6510 C   0  0  0  0  0  1  0  0  0  0  0  0
  160.6750  213.7240  141.5480 N   0  0  0  0  0  0  0  0  0  0  0  0
  162.7420  212.8620  146.9770 N   0  0  0  0  0  0  0  0  0  0  0  0
  158.4080  212.8460  145.2490 O   0  0  0  0  0  0  0  0  0  0  0  0
  162.4190  213.5960  144.7570 N   0  0  0  0  0  2  0  0  0  0  0  0
  160.4430  213.5620  146.3790 C   0  0  2  0  0  3  0  0  0  0  0  0
  161.4820  213.7190  143.6850 C   0  0  0  0  0  0  0  0  0  0  0  0
  159.9720  212.8940  147.6840 C   0  0  2  0  0  3  0  0  0  0  0  0
  159.5950  213.2590  145.1560 C   0  0  0  0  0  0  0  0  0  0  0  0
  162.2830  210.8940  148.3440 C   0  0  0  0  0  1  0  0  0  0  0  0
  161.7600  213.8360  142.2530 C   0  0  0  0  0  0  0  0  0  0  0  0
  161.2660  214.4520  149.2350 C   0  0  0  0  0  1  0  0  0  0  0  0
  156.4790  213.7970  148.2050 N   0  0  0  0  0  0  0  0  0  0  0  0
  156.2030  214.4200  150.4630 N   0  0  0  0  0  0  0  0  0  0  0  0
  158.6400  213.3950  148.1810 C   0  0  0  0  0  0  0  0  0  0  0  0
  156.9440  213.9950  151.4350 C   0  0  0  0  0  0  0  0  0  0  0  0
  156.9350  214.3900  149.2540 C   0  0  0  0  0  0  0  0  0  0  0  0
  158.5820  213.3840  150.9910 S   0  0  0  0  0  0  0  0  0  0  0  0
  157.5490  213.2280  147.5080 N   0  0  0  0  0  0  0  0  0  0  0  0
  156.4810  213.9770  152.7850 N   0  0  0  0  0  2  0  0  0  0  0  0
  158.3950  214.2380  149.3940 C   0  0  1  0  0  3  0  0  0  0  0  0
  155.1590  214.4530  153.1560 C   0  0  0  0  0  2  0  0  0  0  0  0
  154.9960  214.3650  154.6590 C   0  0  0  0  0  1  0  0  0  0  0  0
  1 18  1  6  0  0  0
  2 16  1  6  0  0  0
  2  1  1  0  0  0  0
  3  4  1  0  0  0  0
  4 15  1  0  0  0  0
  5 12  1  0  0  0  0
  5  9  2  0  0  0  0
  6  3  2  0  0  0  0
  7 17  1  0  0  0  0
  8 17  2  0  0  0  0
  8  3  1  0  0  0  0
  9  2  1  0  0  0  0
 11  5  1  0  0  0  0
 12 15  1  6  0  0  0
 12 14  1  0  0  0  0
 13  4  2  0  0  0  0
 13 11  1  0  0  0  0
 14 21  1  1  0  0  0
 14  1  1  0  0  0  0
 15 10  2  0  0  0  0
 17 13  1  0  0  0  0
 19 23  2  0  0  0  0
 20 22  2  0  0  0  0
 22 26  1  0  0  0  0
 23 27  1  0  0  0  0
 23 20  1  0  0  0  0
 24 22  1  0  0  0  0
 25 21  2  0  0  0  0
 25 19  1  0  0  0  0
 26 28  1  0  0  0  0
 27 21  1  6  0  0  0
 27 24  1  0  0  0  0
 28 29  1  0  0  0  0
M  END
>  <MODEL>
5

>  <REMARK>
 VINA RESULT:      -4.2      6.872     10.300
  Name = 
  2 active torsions:
  status: ('A' for Active; 'I' for Inactive)
    1  A    between atoms: C_6  and  N_24
    2  A    between atoms: C_9  and  C_22
                            x       y       z     vdW  Elec       q    Type
                         _______ _______ _______ _____ _____    ______ ____

>  <TORSDO>
F 2

$$$$
