=
 OpenBabel11052411133D

 26 26  0  0  1  0  0  0  0  0999 V2000
  161.1400  205.0450  149.0760 C   0  0  0  0  0  0  0  0  0  0  0  0
  161.6760  206.3930  151.0400 C   0  0  0  0  0  0  0  0  0  0  0  0
  161.5620  206.2450  149.6530 C   0  0  0  0  0  3  0  0  0  0  0  0
  160.9050  204.1010  151.2980 C   0  0  0  0  0  3  0  0  0  0  0  0
  161.3440  205.3760  153.3610 C   0  0  0  0  0  1  0  0  0  0  0  0
  161.3300  205.3010  151.8730 C   0  0  0  0  0  0  0  0  0  0  0  0
  160.8110  203.9570  149.9100 C   0  0  0  0  0  0  0  0  0  0  0  0
  160.3780  202.7120  149.3570 N   0  0  0  0  0  2  0  0  0  0  0  0
  160.6590  201.5330  149.9610 O   0  0  0  0  0  1  0  0  0  0  0  0
  162.1200  207.6390  151.5110 O   0  0  0  0  0  0  0  0  0  0  0  0
  162.0210  208.8660  150.7980 C   0  0  0  0  0  2  0  0  0  0  0  0
  162.1530  209.9820  151.7190 N   0  0  0  0  0  2  0  0  0  0  0  0
  160.9450  210.0130  152.5240 C   0  0  1  0  0  3  0  0  0  0  0  0
  161.3110  209.8120  153.9610 C   0  0  0  0  0  3  0  0  0  0  0  0
  160.8230  208.7870  154.6560 C   0  0  0  0  0  2  0  0  0  0  0  0
  160.2440  211.3500  152.3250 C   0  0  0  0  0  2  0  0  0  0  0  0
  158.8860  211.2290  152.6190 O   0  0  0  0  0  1  0  0  0  0  0  0
  161.0430  205.0010  147.5750 C   0  0  1  0  0  3  0  0  0  0  0  0
  160.8790  206.3420  146.9160 C   0  0  0  0  0  0  0  0  0  0  0  0
  161.4730  207.4800  147.4490 O   0  0  0  0  0  1  0  0  0  0  0  0
  160.1720  206.4400  145.8800 O   0  0  0  0  0  0  0  0  0  0  0  0
  162.0060  204.0060  146.9100 C   0  0  2  0  0  3  0  0  0  0  0  0
  163.2030  204.6620  146.2390 C   0  0  0  0  0  1  0  0  0  0  0  0
  160.9330  203.5180  144.8410 O   0  0  0  0  0  0  0  0  0  0  0  0
  161.0480  201.7680  146.3140 O   0  0  0  0  0  1  0  0  0  0  0  0
  161.2930  203.0910  145.9670 C   0  0  0  0  0  0  0  0  0  0  0  0
  1  3  2  0  0  0  0
  1  7  1  0  0  0  0
  2 10  1  0  0  0  0
  2  6  2  0  0  0  0
  3  2  1  0  0  0  0
  4  6  1  0  0  0  0
  6  5  1  0  0  0  0
  7  4  2  0  0  0  0
  8  7  1  0  0  0  0
  8  9  1  0  0  0  0
 11 10  1  0  0  0  0
 11 12  1  0  0  0  0
 12 13  1  0  0  0  0
 13 16  1  1  0  0  0
 13 14  1  0  0  0  0
 14 15  2  0  0  0  0
 16 17  1  0  0  0  0
 18 19  1  6  0  0  0
 18  1  1  0  0  0  0
 19 20  1  0  0  0  0
 21 19  2  0  0  0  0
 22 23  1  6  0  0  0
 22 18  1  0  0  0  0
 24 26  2  0  0  0  0
 26 25  1  0  0  0  0
 26 22  1  0  0  0  0
M  END
>  <MODEL>
1

>  <REMARK>
 VINA RESULT:      -7.4      0.000      0.000
  Name = 
  11 active torsions:
  status: ('A' for Active; 'I' for Inactive)
    1  A    between atoms: C_1  and  C_21
    2  A    between atoms: C_3  and  O_14
    3  A    between atoms: C_6  and  C_17
    4  A    between atoms: C_6  and  C_21
    5  A    between atoms: C_7  and  CA_24
    6  A    between atoms: C_9  and  C_21
    7  A    between atoms: C_10  and  CA_24
    8  A    between atoms: N_11  and  C_20
    9  A    between atoms: N_11  and  CA_24
   10  A    between atoms: O_14  and  C_20
   11  A    between atoms: N_18  and  C_23
                            x       y       z     vdW  Elec       q    Type
                         _______ _______ _______ _____ _____    ______ ____

>  <TORSDO>
F 11

$$$$
=
 OpenBabel11052411133D

 26 26  0  0  1  0  0  0  0  0999 V2000
  160.6380  208.7720  153.5440 C   0  0  0  0  0  0  0  0  0  0  0  0
  161.3310  207.5110  151.5720 C   0  0  0  0  0  0  0  0  0  0  0  0
  160.9600  208.7120  152.1850 C   0  0  0  0  0  3  0  0  0  0  0  0
  161.0850  206.3940  153.7180 C   0  0  0  0  0  3  0  0  0  0  0  0
  161.8600  205.0220  151.8240 C   0  0  0  0  0  1  0  0  0  0  0  0
  161.4040  206.3350  152.3590 C   0  0  0  0  0  0  0  0  0  0  0  0
  160.6980  207.5970  154.3200 C   0  0  0  0  0  0  0  0  0  0  0  0
  160.3730  207.6170  155.7110 N   0  0  0  0  0  2  0  0  0  0  0  0
  161.3100  207.8720  156.6540 O   0  0  0  0  0  1  0  0  0  0  0  0
  161.6240  207.5630  150.1990 O   0  0  0  0  0  0  0  0  0  0  0  0
  160.8280  206.9860  149.1710 C   0  0  0  0  0  2  0  0  0  0  0  0
  161.4440  207.2300  147.8770 N   0  0  0  0  0  2  0  0  0  0  0  0
  161.9140  205.9480  147.3830 C   0  0  1  0  0  3  0  0  0  0  0  0
  161.2200  204.8530  148.1300 C   0  0  0  0  0  3  0  0  0  0  0  0
  161.5250  203.5760  147.9130 C   0  0  0  0  0  2  0  0  0  0  0  0
  161.6280  205.8520  145.8900 C   0  0  0  0  0  2  0  0  0  0  0  0
  160.3120  206.2340  145.6270 O   0  0  0  0  0  1  0  0  0  0  0  0
  160.2630  210.1180  154.1020 C   0  0  1  0  0  3  0  0  0  0  0  0
  161.3660  210.8210  154.8420 C   0  0  0  0  0  0  0  0  0  0  0  0
  161.0860  211.6940  155.8870 O   0  0  0  0  0  1  0  0  0  0  0  0
  162.5610  210.6350  154.4940 O   0  0  0  0  0  0  0  0  0  0  0  0
  159.3950  210.9700  153.1640 C   0  0  2  0  0  3  0  0  0  0  0  0
  160.1650  212.0620  152.4350 C   0  0  0  0  0  1  0  0  0  0  0  0
  157.7970  210.9900  154.9300 O   0  0  0  0  0  1  0  0  0  0  0  0
  157.5520  212.6550  153.3760 O   0  0  0  0  0  0  0  0  0  0  0  0
  158.2020  211.5300  153.8680 C   0  0  0  0  0  0  0  0  0  0  0  0
  1 18  1  0  0  0  0
  1  7  1  0  0  0  0
  2  3  1  0  0  0  0
  2  6  2  0  0  0  0
  3  1  2  0  0  0  0
  4  7  2  0  0  0  0
  5  6  1  0  0  0  0
  6  4  1  0  0  0  0
  7  8  1  0  0  0  0
  8  9  1  0  0  0  0
 10  2  1  0  0  0  0
 11 10  1  0  0  0  0
 12 11  1  0  0  0  0
 13 16  1  6  0  0  0
 13 12  1  0  0  0  0
 13 14  1  0  0  0  0
 15 14  2  0  0  0  0
 17 16  1  0  0  0  0
 18 19  1  6  0  0  0
 19 20  1  0  0  0  0
 21 19  2  0  0  0  0
 22 23  1  1  0  0  0
 22 26  1  0  0  0  0
 22 18  1  0  0  0  0
 25 26  2  0  0  0  0
 26 24  1  0  0  0  0
M  END
>  <MODEL>
2

>  <REMARK>
 VINA RESULT:      -7.1      2.455      7.920
  Name = 
  11 active torsions:
  status: ('A' for Active; 'I' for Inactive)
    1  A    between atoms: C_1  and  C_21
    2  A    between atoms: C_3  and  O_14
    3  A    between atoms: C_6  and  C_17
    4  A    between atoms: C_6  and  C_21
    5  A    between atoms: C_7  and  CA_24
    6  A    between atoms: C_9  and  C_21
    7  A    between atoms: C_10  and  CA_24
    8  A    between atoms: N_11  and  C_20
    9  A    between atoms: N_11  and  CA_24
   10  A    between atoms: O_14  and  C_20
   11  A    between atoms: N_18  and  C_23
                            x       y       z     vdW  Elec       q    Type
                         _______ _______ _______ _____ _____    ______ ____

>  <TORSDO>
F 11

$$$$
=
 OpenBabel11052411133D

 26 26  0  0  1  0  0  0  0  0999 V2000
  161.0950  204.4450  148.6330 C   0  0  0  0  0  0  0  0  0  0  0  0
  161.1390  204.8620  151.0380 C   0  0  0  0  0  0  0  0  0  0  0  0
  161.2080  205.3180  149.7180 C   0  0  0  0  0  3  0  0  0  0  0  0
  160.8070  202.6070  150.1900 C   0  0  0  0  0  3  0  0  0  0  0  0
  160.7590  202.9020  152.6360 C   0  0  0  0  0  1  0  0  0  0  0  0
  160.9240  203.4810  151.2730 C   0  0  0  0  0  0  0  0  0  0  0  0
  160.8960  203.0700  148.8720 C   0  0  0  0  0  0  0  0  0  0  0  0
  160.7780  202.1440  147.7900 N   0  0  0  0  0  2  0  0  0  0  0  0
  161.2260  200.8710  147.8940 O   0  0  0  0  0  1  0  0  0  0  0  0
  161.2760  205.8250  152.0510 O   0  0  0  0  0  0  0  0  0  0  0  0
  161.6480  207.1820  151.8440 C   0  0  0  0  0  2  0  0  0  0  0  0
  160.9040  208.0390  152.7510 N   0  0  0  0  0  2  0  0  0  0  0  0
  160.7800  209.3340  152.1060 C   0  0  1  0  0  3  0  0  0  0  0  0
  160.2080  210.3140  153.0820 C   0  0  0  0  0  3  0  0  0  0  0  0
  159.2770  211.1880  152.7090 C   0  0  0  0  0  2  0  0  0  0  0  0
  162.1520  209.7870  151.6250 C   0  0  0  0  0  2  0  0  0  0  0  0
  162.0370  210.4610  150.4080 O   0  0  0  0  0  1  0  0  0  0  0  0
  161.1730  205.0450  147.2560 C   0  0  1  0  0  3  0  0  0  0  0  0
  161.4440  206.5240  147.2290 C   0  0  0  0  0  0  0  0  0  0  0  0
  162.5750  207.0560  147.8350 O   0  0  0  0  0  1  0  0  0  0  0  0
  160.6190  207.2940  146.6720 O   0  0  0  0  0  0  0  0  0  0  0  0
  161.9200  204.1770  146.2310 C   0  0  2  0  0  3  0  0  0  0  0  0
  163.3790  204.5650  146.0430 C   0  0  0  0  0  1  0  0  0  0  0  0
  160.3960  203.1880  144.6920 O   0  0  0  0  0  1  0  0  0  0  0  0
  161.3980  205.1160  143.9670 O   0  0  0  0  0  0  0  0  0  0  0  0
  161.2020  204.1250  144.9220 C   0  0  0  0  0  0  0  0  0  0  0  0
  1  7  2  0  0  0  0
  1  3  1  0  0  0  0
  2  6  1  0  0  0  0
  2 10  1  0  0  0  0
  3  2  2  0  0  0  0
  4  6  2  0  0  0  0
  6  5  1  0  0  0  0
  7  4  1  0  0  0  0
  8  9  1  0  0  0  0
  8  7  1  0  0  0  0
 11 10  1  0  0  0  0
 11 12  1  0  0  0  0
 13 16  1  1  0  0  0
 13 12  1  0  0  0  0
 13 14  1  0  0  0  0
 15 14  2  0  0  0  0
 17 16  1  0  0  0  0
 18 19  1  1  0  0  0
 18  1  1  0  0  0  0
 19 20  1  0  0  0  0
 21 19  2  0  0  0  0
 22 23  1  6  0  0  0
 22 18  1  0  0  0  0
 24 26  1  0  0  0  0
 25 26  2  0  0  0  0
 26 22  1  0  0  0  0
M  END
>  <MODEL>
3

>  <REMARK>
 VINA RESULT:      -7.0      1.592      1.996
  Name = 
  11 active torsions:
  status: ('A' for Active; 'I' for Inactive)
    1  A    between atoms: C_1  and  C_21
    2  A    between atoms: C_3  and  O_14
    3  A    between atoms: C_6  and  C_17
    4  A    between atoms: C_6  and  C_21
    5  A    between atoms: C_7  and  CA_24
    6  A    between atoms: C_9  and  C_21
    7  A    between atoms: C_10  and  CA_24
    8  A    between atoms: N_11  and  C_20
    9  A    between atoms: N_11  and  CA_24
   10  A    between atoms: O_14  and  C_20
   11  A    between atoms: N_18  and  C_23
                            x       y       z     vdW  Elec       q    Type
                         _______ _______ _______ _____ _____    ______ ____

>  <TORSDO>
F 11

$$$$
=
 OpenBabel11052411133D

 26 26  0  0  1  0  0  0  0  0999 V2000
  161.0120  204.9090  148.9080 C   0  0  0  0  0  0  0  0  0  0  0  0
  161.1980  206.2610  150.9320 C   0  0  0  0  0  0  0  0  0  0  0  0
  161.1250  206.1500  149.5390 C   0  0  0  0  0  3  0  0  0  0  0  0
  161.0160  203.8410  151.0860 C   0  0  0  0  0  3  0  0  0  0  0  0
  161.1250  205.0940  153.2050 C   0  0  0  0  0  1  0  0  0  0  0  0
  161.1320  205.0830  151.7150 C   0  0  0  0  0  0  0  0  0  0  0  0
  160.9610  203.7380  149.6910 C   0  0  0  0  0  0  0  0  0  0  0  0
  160.8500  202.4500  149.0820 N   0  0  0  0  0  2  0  0  0  0  0  0
  159.8120  201.6240  149.3560 O   0  0  0  0  0  1  0  0  0  0  0  0
  161.3210  207.5570  151.4600 O   0  0  0  0  0  0  0  0  0  0  0  0
  162.3690  208.4680  151.1560 C   0  0  0  0  0  2  0  0  0  0  0  0
  162.0050  209.2670  149.9970 N   0  0  0  0  0  2  0  0  0  0  0  0
  162.0800  210.6600  150.4020 C   0  0  1  0  0  3  0  0  0  0  0  0
  161.6650  211.5250  149.2540 C   0  0  0  0  0  3  0  0  0  0  0  0
  162.5710  212.1120  148.4760 C   0  0  0  0  0  2  0  0  0  0  0  0
  161.1720  210.8820  151.6040 C   0  0  0  0  0  2  0  0  0  0  0  0
  160.4050  212.0330  151.4210 O   0  0  0  0  0  1  0  0  0  0  0  0
  160.9300  204.9070  147.4050 C   0  0  1  0  0  3  0  0  0  0  0  0
  160.8070  206.2690  146.7810 C   0  0  0  0  0  0  0  0  0  0  0  0
  160.0530  206.4650  145.6310 O   0  0  0  0  0  0  0  0  0  0  0  0
  161.4180  207.2420  147.2940 O   0  0  0  0  0  1  0  0  0  0  0  0
  161.8750  203.9060  146.7230 C   0  0  2  0  0  3  0  0  0  0  0  0
  163.1370  204.5400  146.1560 C   0  0  0  0  0  1  0  0  0  0  0  0
  161.0220  201.8560  145.8640 O   0  0  0  0  0  1  0  0  0  0  0  0
  160.6470  203.6930  144.5490 O   0  0  0  0  0  0  0  0  0  0  0  0
  161.1670  203.0930  145.6890 C   0  0  0  0  0  0  0  0  0  0  0  0
  1  3  2  0  0  0  0
  1  7  1  0  0  0  0
  2 10  1  0  0  0  0
  2  6  2  0  0  0  0
  3  2  1  0  0  0  0
  4  6  1  0  0  0  0
  6  5  1  0  0  0  0
  7  4  2  0  0  0  0
  8  9  1  0  0  0  0
  8  7  1  0  0  0  0
 11 10  1  0  0  0  0
 12 13  1  0  0  0  0
 12 11  1  0  0  0  0
 13 14  1  6  0  0  0
 13 16  1  0  0  0  0
 15 14  2  0  0  0  0
 17 16  1  0  0  0  0
 18 19  1  6  0  0  0
 18  1  1  0  0  0  0
 19 21  1  0  0  0  0
 20 19  2  0  0  0  0
 22 23  1  6  0  0  0
 22 18  1  0  0  0  0
 25 26  2  0  0  0  0
 26 24  1  0  0  0  0
 26 22  1  0  0  0  0
M  END
>  <MODEL>
4

>  <REMARK>
 VINA RESULT:      -6.6      1.287      2.134
  Name = 
  11 active torsions:
  status: ('A' for Active; 'I' for Inactive)
    1  A    between atoms: C_1  and  C_21
    2  A    between atoms: C_3  and  O_14
    3  A    between atoms: C_6  and  C_17
    4  A    between atoms: C_6  and  C_21
    5  A    between atoms: C_7  and  CA_24
    6  A    between atoms: C_9  and  C_21
    7  A    between atoms: C_10  and  CA_24
    8  A    between atoms: N_11  and  C_20
    9  A    between atoms: N_11  and  CA_24
   10  A    between atoms: O_14  and  C_20
   11  A    between atoms: N_18  and  C_23
                            x       y       z     vdW  Elec       q    Type
                         _______ _______ _______ _____ _____    ______ ____

>  <TORSDO>
F 11

$$$$
=
 OpenBabel11052411133D

 26 26  0  0  1  0  0  0  0  0999 V2000
  161.2360  207.4290  152.1740 C   0  0  0  0  0  0  0  0  0  0  0  0
  160.8010  205.8290  150.3820 C   0  0  0  0  0  0  0  0  0  0  0  0
  160.9960  207.1410  150.8280 C   0  0  0  0  0  3  0  0  0  0  0  0
  161.1150  205.0570  152.6670 C   0  0  0  0  0  3  0  0  0  0  0  0
  160.7550  203.3350  150.9410 C   0  0  0  0  0  1  0  0  0  0  0  0
  160.8730  204.7710  151.3210 C   0  0  0  0  0  0  0  0  0  0  0  0
  161.2920  206.3730  153.1070 C   0  0  0  0  0  0  0  0  0  0  0  0
  161.5310  206.6280  154.4920 N   0  0  0  0  0  2  0  0  0  0  0  0
  160.5140  206.7380  155.3790 O   0  0  0  0  0  1  0  0  0  0  0  0
  160.5570  205.6550  149.0100 O   0  0  0  0  0  0  0  0  0  0  0  0
  161.5610  205.5460  148.0090 C   0  0  0  0  0  2  0  0  0  0  0  0
  161.5760  204.1950  147.4720 N   0  0  0  0  0  2  0  0  0  0  0  0
  161.9200  204.3010  146.0660 C   0  0  1  0  0  3  0  0  0  0  0  0
  161.1500  203.2750  145.2960 C   0  0  0  0  0  3  0  0  0  0  0  0
  160.8030  202.1180  145.8520 C   0  0  0  0  0  2  0  0  0  0  0  0
  161.5950  205.7050  145.5750 C   0  0  0  0  0  2  0  0  0  0  0  0
  160.3920  205.7010  144.8690 O   0  0  0  0  0  1  0  0  0  0  0  0
  161.4430  208.8730  152.5410 C   0  0  1  0  0  3  0  0  0  0  0  0
  162.2530  209.6630  151.5510 C   0  0  0  0  0  0  0  0  0  0  0  0
  163.3040  210.4710  151.9670 O   0  0  0  0  0  1  0  0  0  0  0  0
  161.9570  209.6120  150.3290 O   0  0  0  0  0  0  0  0  0  0  0  0
  160.2020  209.5570  153.1350 C   0  0  2  0  0  3  0  0  0  0  0  0
  159.7400  210.7790  152.3560 C   0  0  0  0  0  1  0  0  0  0  0  0
  161.5400  210.1150  155.0250 O   0  0  0  0  0  0  0  0  0  0  0  0
  159.2940  209.9420  155.4390 O   0  0  0  0  0  1  0  0  0  0  0  0
  160.3860  209.8780  154.5830 C   0  0  0  0  0  0  0  0  0  0  0  0
  1 18  1  0  0  0  0
  1  7  1  0  0  0  0
  2  3  1  0  0  0  0
  2  6  2  0  0  0  0
  3  1  2  0  0  0  0
  4  7  2  0  0  0  0
  5  6  1  0  0  0  0
  6  4  1  0  0  0  0
  7  8  1  0  0  0  0
  8  9  1  0  0  0  0
 10  2  1  0  0  0  0
 11 10  1  0  0  0  0
 12 11  1  0  0  0  0
 13 14  1  6  0  0  0
 13 12  1  0  0  0  0
 14 15  2  0  0  0  0
 16 13  1  0  0  0  0
 17 16  1  0  0  0  0
 18 19  1  6  0  0  0
 18 22  1  0  0  0  0
 19 20  1  0  0  0  0
 21 19  2  0  0  0  0
 22 23  1  6  0  0  0
 22 26  1  0  0  0  0
 26 24  2  0  0  0  0
 26 25  1  0  0  0  0
M  END
>  <MODEL>
5

>  <REMARK>
 VINA RESULT:      -6.6      2.070      7.446
  Name = 
  11 active torsions:
  status: ('A' for Active; 'I' for Inactive)
    1  A    between atoms: C_1  and  C_21
    2  A    between atoms: C_3  and  O_14
    3  A    between atoms: C_6  and  C_17
    4  A    between atoms: C_6  and  C_21
    5  A    between atoms: C_7  and  CA_24
    6  A    between atoms: C_9  and  C_21
    7  A    between atoms: C_10  and  CA_24
    8  A    between atoms: N_11  and  C_20
    9  A    between atoms: N_11  and  CA_24
   10  A    between atoms: O_14  and  C_20
   11  A    between atoms: N_18  and  C_23
                            x       y       z     vdW  Elec       q    Type
                         _______ _______ _______ _____ _____    ______ ____

>  <TORSDO>
F 11

$$$$
=
 OpenBabel11052411133D

 26 26  0  0  1  0  0  0  0  0999 V2000
  161.2330  203.2660  147.3350 C   0  0  0  0  0  0  0  0  0  0  0  0
  161.0110  204.7960  149.2250 C   0  0  0  0  0  0  0  0  0  0  0  0
  161.2280  204.5590  147.8630 C   0  0  0  0  0  3  0  0  0  0  0  0
  160.7680  202.3990  149.5520 C   0  0  0  0  0  3  0  0  0  0  0  0
  160.4500  203.8380  151.5270 C   0  0  0  0  0  1  0  0  0  0  0  0
  160.7660  203.6930  150.0790 C   0  0  0  0  0  0  0  0  0  0  0  0
  161.0030  202.1700  148.1920 C   0  0  0  0  0  0  0  0  0  0  0  0
  161.0040  200.8320  147.6910 N   0  0  0  0  0  2  0  0  0  0  0  0
  162.0720  200.0160  147.8500 O   0  0  0  0  0  1  0  0  0  0  0  0
  161.0380  206.1340  149.6480 O   0  0  0  0  0  0  0  0  0  0  0  0
  162.1400  207.0200  149.4900 C   0  0  0  0  0  2  0  0  0  0  0  0
  162.4820  207.6120  150.7730 N   0  0  0  0  0  2  0  0  0  0  0  0
  161.4100  208.5300  151.1160 C   0  0  1  0  0  3  0  0  0  0  0  0
  160.8260  208.1270  152.4330 C   0  0  0  0  0  3  0  0  0  0  0  0
  161.2320  207.0230  153.0540 C   0  0  0  0  0  2  0  0  0  0  0  0
  161.9650  209.9470  151.1800 C   0  0  0  0  0  2  0  0  0  0  0  0
  162.5940  210.1620  152.4060 O   0  0  0  0  0  1  0  0  0  0  0  0
  161.4650  203.1280  145.8550 C   0  0  1  0  0  3  0  0  0  0  0  0
  160.2550  202.7150  145.0650 C   0  0  0  0  0  0  0  0  0  0  0  0
  159.9310  201.3740  144.8970 O   0  0  0  0  0  1  0  0  0  0  0  0
  159.5380  203.5980  144.5250 O   0  0  0  0  0  0  0  0  0  0  0  0
  162.3560  204.2250  145.2520 C   0  0  2  0  0  3  0  0  0  0  0  0
  163.4510  204.7130  146.1890 C   0  0  0  0  0  1  0  0  0  0  0  0
  161.4900  205.5660  143.4850 O   0  0  0  0  0  0  0  0  0  0  0  0
  160.8420  206.1940  145.5900 O   0  0  0  0  0  1  0  0  0  0  0  0
  161.5480  205.3660  144.7250 C   0  0  0  0  0  0  0  0  0  0  0  0
  1  3  2  0  0  0  0
  1  7  1  0  0  0  0
  2 10  1  0  0  0  0
  2  6  2  0  0  0  0
  3  2  1  0  0  0  0
  4  6  1  0  0  0  0
  6  5  1  0  0  0  0
  7  4  2  0  0  0  0
  8  9  1  0  0  0  0
  8  7  1  0  0  0  0
 11 10  1  0  0  0  0
 11 12  1  0  0  0  0
 12 13  1  0  0  0  0
 13 16  1  1  0  0  0
 13 14  1  0  0  0  0
 14 15  2  0  0  0  0
 16 17  1  0  0  0  0
 18 19  1  6  0  0  0
 18  1  1  0  0  0  0
 20 19  1  0  0  0  0
 21 19  2  0  0  0  0
 22 18  1  0  0  0  0
 22 23  1  1  0  0  0
 24 26  2  0  0  0  0
 26 22  1  0  0  0  0
 26 25  1  0  0  0  0
M  END
>  <MODEL>
6

>  <REMARK>
 VINA RESULT:      -6.4      1.883      2.979
  Name = 
  11 active torsions:
  status: ('A' for Active; 'I' for Inactive)
    1  A    between atoms: C_1  and  C_21
    2  A    between atoms: C_3  and  O_14
    3  A    between atoms: C_6  and  C_17
    4  A    between atoms: C_6  and  C_21
    5  A    between atoms: C_7  and  CA_24
    6  A    between atoms: C_9  and  C_21
    7  A    between atoms: C_10  and  CA_24
    8  A    between atoms: N_11  and  C_20
    9  A    between atoms: N_11  and  CA_24
   10  A    between atoms: O_14  and  C_20
   11  A    between atoms: N_18  and  C_23
                            x       y       z     vdW  Elec       q    Type
                         _______ _______ _______ _____ _____    ______ ____

>  <TORSDO>
F 11

$$$$
=
 OpenBabel11052411133D

 26 26  0  0  1  0  0  0  0  0999 V2000
  161.0150  204.5880  148.8660 C   0  0  0  0  0  0  0  0  0  0  0  0
  161.2340  205.5310  151.1070 C   0  0  0  0  0  0  0  0  0  0  0  0
  161.2190  205.6780  149.7160 C   0  0  0  0  0  3  0  0  0  0  0  0
  160.8030  203.1560  150.8120 C   0  0  0  0  0  3  0  0  0  0  0  0
  160.9310  203.9930  153.1260 C   0  0  0  0  0  1  0  0  0  0  0  0
  161.0110  204.2470  151.6610 C   0  0  0  0  0  0  0  0  0  0  0  0
  160.8080  203.3090  149.4220 C   0  0  0  0  0  0  0  0  0  0  0  0
  160.5990  202.1690  148.5850 N   0  0  0  0  0  2  0  0  0  0  0  0
  161.4430  201.1110  148.6060 O   0  0  0  0  0  1  0  0  0  0  0  0
  161.4590  206.6920  151.8650 O   0  0  0  0  0  0  0  0  0  0  0  0
  161.1170  206.8520  153.2370 C   0  0  0  0  0  2  0  0  0  0  0  0
  161.4170  208.2080  153.6630 N   0  0  0  0  0  2  0  0  0  0  0  0
  160.5000  208.5260  154.7430 C   0  0  1  0  0  3  0  0  0  0  0  0
  160.3280  207.3180  155.6090 C   0  0  0  0  0  3  0  0  0  0  0  0
  160.4010  207.4080  156.9340 C   0  0  0  0  0  2  0  0  0  0  0  0
  161.0570  209.6930  155.5470 C   0  0  0  0  0  2  0  0  0  0  0  0
  160.1110  210.7150  155.6300 O   0  0  0  0  0  1  0  0  0  0  0  0
  161.0080  204.8620  147.3870 C   0  0  1  0  0  3  0  0  0  0  0  0
  160.8770  206.3130  147.0170 C   0  0  0  0  0  0  0  0  0  0  0  0
  161.5020  207.3030  147.7650 O   0  0  0  0  0  1  0  0  0  0  0  0
  160.1680  206.6380  146.0290 O   0  0  0  0  0  0  0  0  0  0  0  0
  162.0140  204.0230  146.5850 C   0  0  2  0  0  3  0  0  0  0  0  0
  163.3520  204.7120  146.3640 C   0  0  0  0  0  1  0  0  0  0  0  0
  160.8670  202.4230  145.2440 O   0  0  0  0  0  1  0  0  0  0  0  0
  161.4910  204.3390  144.1550 O   0  0  0  0  0  0  0  0  0  0  0  0
  161.4330  203.5450  145.2940 C   0  0  0  0  0  0  0  0  0  0  0  0
  1  7  2  0  0  0  0
  1  3  1  0  0  0  0
  2  6  1  0  0  0  0
  2 10  1  0  0  0  0
  3  2  2  0  0  0  0
  4  6  2  0  0  0  0
  6  5  1  0  0  0  0
  7  4  1  0  0  0  0
  8  9  1  0  0  0  0
  8  7  1  0  0  0  0
 10 11  1  0  0  0  0
 11 12  1  0  0  0  0
 12 13  1  0  0  0  0
 13 16  1  1  0  0  0
 13 14  1  0  0  0  0
 14 15  2  0  0  0  0
 16 17  1  0  0  0  0
 18 19  1  1  0  0  0
 18  1  1  0  0  0  0
 19 20  1  0  0  0  0
 21 19  2  0  0  0  0
 22 23  1  6  0  0  0
 22 18  1  0  0  0  0
 24 26  1  0  0  0  0
 25 26  2  0  0  0  0
 26 22  1  0  0  0  0
M  END
>  <MODEL>
7

>  <REMARK>
 VINA RESULT:      -6.3      1.610      1.894
  Name = 
  11 active torsions:
  status: ('A' for Active; 'I' for Inactive)
    1  A    between atoms: C_1  and  C_21
    2  A    between atoms: C_3  and  O_14
    3  A    between atoms: C_6  and  C_17
    4  A    between atoms: C_6  and  C_21
    5  A    between atoms: C_7  and  CA_24
    6  A    between atoms: C_9  and  C_21
    7  A    between atoms: C_10  and  CA_24
    8  A    between atoms: N_11  and  C_20
    9  A    between atoms: N_11  and  CA_24
   10  A    between atoms: O_14  and  C_20
   11  A    between atoms: N_18  and  C_23
                            x       y       z     vdW  Elec       q    Type
                         _______ _______ _______ _____ _____    ______ ____

>  <TORSDO>
F 11

$$$$
=
 OpenBabel11052411133D

 26 26  0  0  1  0  0  0  0  0999 V2000
  161.0690  205.3780  149.1300 C   0  0  0  0  0  0  0  0  0  0  0  0
  160.8400  203.2390  150.2850 C   0  0  0  0  0  0  0  0  0  0  0  0
  160.9510  203.9860  149.1070 C   0  0  0  0  0  3  0  0  0  0  0  0
  160.9950  205.3080  151.5540 C   0  0  0  0  0  3  0  0  0  0  0  0
  160.8390  203.2120  152.8410 C   0  0  0  0  0  1  0  0  0  0  0  0
  160.8740  203.9160  151.5290 C   0  0  0  0  0  0  0  0  0  0  0  0
  161.0870  206.0490  150.3710 C   0  0  0  0  0  0  0  0  0  0  0  0
  161.2030  207.4710  150.4360 N   0  0  0  0  0  2  0  0  0  0  0  0
  162.0640  208.0740  151.2890 O   0  0  0  0  0  1  0  0  0  0  0  0
  160.7150  201.8480  150.1450 O   0  0  0  0  0  0  0  0  0  0  0  0
  160.2240  201.1830  148.9870 C   0  0  0  0  0  2  0  0  0  0  0  0
  161.3370  200.7660  148.1510 N   0  0  0  0  0  2  0  0  0  0  0  0
  160.7820  200.3920  146.8620 C   0  0  1  0  0  3  0  0  0  0  0  0
  160.8400  201.5730  145.9440 C   0  0  0  0  0  3  0  0  0  0  0  0
  159.9770  201.7040  144.9400 C   0  0  0  0  0  2  0  0  0  0  0  0
  161.5770  199.2240  146.2930 C   0  0  0  0  0  2  0  0  0  0  0  0
  160.8540  198.5990  145.2770 O   0  0  0  0  0  1  0  0  0  0  0  0
  161.1920  206.0800  147.8050 C   0  0  1  0  0  3  0  0  0  0  0  0
  161.9230  207.3930  147.8550 C   0  0  0  0  0  0  0  0  0  0  0  0
  163.2490  207.4610  148.2640 O   0  0  0  0  0  1  0  0  0  0  0  0
  161.3150  208.4510  147.5470 O   0  0  0  0  0  0  0  0  0  0  0  0
  161.5070  205.1470  146.6250 C   0  0  2  0  0  3  0  0  0  0  0  0
  162.9940  204.9120  146.4060 C   0  0  0  0  0  1  0  0  0  0  0  0
  159.7350  206.1980  145.4300 O   0  0  0  0  0  1  0  0  0  0  0  0
  161.4440  205.3960  144.1320 O   0  0  0  0  0  0  0  0  0  0  0  0
  160.8410  205.6020  145.3670 C   0  0  0  0  0  0  0  0  0  0  0  0
  1  7  1  0  0  0  0
  2  6  2  0  0  0  0
  3  1  2  0  0  0  0
  3  2  1  0  0  0  0
  6  4  1  0  0  0  0
  6  5  1  0  0  0  0
  7  8  1  0  0  0  0
  7  4  2  0  0  0  0
  8  9  1  0  0  0  0
 10  2  1  0  0  0  0
 11 10  1  0  0  0  0
 12 11  1  0  0  0  0
 13 14  1  6  0  0  0
 13 12  1  0  0  0  0
 15 14  2  0  0  0  0
 16 13  1  0  0  0  0
 17 16  1  0  0  0  0
 18 19  1  1  0  0  0
 18  1  1  0  0  0  0
 19 20  1  0  0  0  0
 21 19  2  0  0  0  0
 22 23  1  6  0  0  0
 22 18  1  0  0  0  0
 25 26  2  0  0  0  0
 26 24  1  0  0  0  0
 26 22  1  0  0  0  0
M  END
>  <MODEL>
8

>  <REMARK>
 VINA RESULT:      -6.2      2.606      6.679
  Name = 
  11 active torsions:
  status: ('A' for Active; 'I' for Inactive)
    1  A    between atoms: C_1  and  C_21
    2  A    between atoms: C_3  and  O_14
    3  A    between atoms: C_6  and  C_17
    4  A    between atoms: C_6  and  C_21
    5  A    between atoms: C_7  and  CA_24
    6  A    between atoms: C_9  and  C_21
    7  A    between atoms: C_10  and  CA_24
    8  A    between atoms: N_11  and  C_20
    9  A    between atoms: N_11  and  CA_24
   10  A    between atoms: O_14  and  C_20
   11  A    between atoms: N_18  and  C_23
                            x       y       z     vdW  Elec       q    Type
                         _______ _______ _______ _____ _____    ______ ____

>  <TORSDO>
F 11

$$$$
=
 OpenBabel11052411133D

 26 26  0  0  1  0  0  0  0  0999 V2000
  160.9440  208.7050  153.2820 C   0  0  0  0  0  0  0  0  0  0  0  0
  161.4270  207.2680  151.3680 C   0  0  0  0  0  0  0  0  0  0  0  0
  161.2450  208.5370  151.9280 C   0  0  0  0  0  3  0  0  0  0  0  0
  161.0280  206.2960  153.5610 C   0  0  0  0  0  3  0  0  0  0  0  0
  161.5760  204.7420  151.7290 C   0  0  0  0  0  1  0  0  0  0  0  0
  161.3260  206.1310  152.2060 C   0  0  0  0  0  0  0  0  0  0  0  0
  160.8300  207.5690  154.1090 C   0  0  0  0  0  0  0  0  0  0  0  0
  160.5210  207.6980  155.4980 N   0  0  0  0  0  2  0  0  0  0  0  0
  159.4340  207.1000  156.0410 O   0  0  0  0  0  1  0  0  0  0  0  0
  161.7150  207.2160  149.9940 O   0  0  0  0  0  0  0  0  0  0  0  0
  160.8460  206.6970  148.9960 C   0  0  0  0  0  2  0  0  0  0  0  0
  161.4160  206.9290  147.6790 N   0  0  0  0  0  2  0  0  0  0  0  0
  161.8870  205.6460  147.1890 C   0  0  1  0  0  3  0  0  0  0  0  0
  161.1140  204.5540  147.8590 C   0  0  0  0  0  3  0  0  0  0  0  0
  161.5750  203.3060  147.8850 C   0  0  0  0  0  2  0  0  0  0  0  0
  161.7060  205.5900  145.6780 C   0  0  0  0  0  2  0  0  0  0  0  0
  160.5150  206.2180  145.3130 O   0  0  0  0  0  1  0  0  0  0  0  0
  160.7790  210.1140  153.7800 C   0  0  1  0  0  3  0  0  0  0  0  0
  159.9040  210.9860  152.9230 C   0  0  0  0  0  0  0  0  0  0  0  0
  160.4080  212.1270  152.3120 O   0  0  0  0  0  0  0  0  0  0  0  0
  158.6890  210.6910  152.7790 O   0  0  0  0  0  1  0  0  0  0  0  0
  160.6070  210.2290  155.3030 C   0  0  2  0  0  3  0  0  0  0  0  0
  159.3380  210.9550  155.7250 C   0  0  0  0  0  1  0  0  0  0  0  0
  162.9400  210.6920  155.4130 O   0  0  0  0  0  0  0  0  0  0  0  0
  161.6950  211.5460  157.1360 O   0  0  0  0  0  1  0  0  0  0  0  0
  161.8120  210.8250  155.9540 C   0  0  0  0  0  0  0  0  0  0  0  0
  1 18  1  0  0  0  0
  1  7  1  0  0  0  0
  2  3  1  0  0  0  0
  2  6  2  0  0  0  0
  3  1  2  0  0  0  0
  4  7  2  0  0  0  0
  5  6  1  0  0  0  0
  6  4  1  0  0  0  0
  7  8  1  0  0  0  0
  8  9  1  0  0  0  0
 10  2  1  0  0  0  0
 11 10  1  0  0  0  0
 12 11  1  0  0  0  0
 13 16  1  6  0  0  0
 13 12  1  0  0  0  0
 13 14  1  0  0  0  0
 14 15  2  0  0  0  0
 17 16  1  0  0  0  0
 18 19  1  6  0  0  0
 18 22  1  0  0  0  0
 20 19  2  0  0  0  0
 21 19  1  0  0  0  0
 22 23  1  6  0  0  0
 22 26  1  0  0  0  0
 24 26  2  0  0  0  0
 26 25  1  0  0  0  0
M  END
>  <MODEL>
9

>  <REMARK>
 VINA RESULT:      -6.1      2.512      7.945
  Name = 
  11 active torsions:
  status: ('A' for Active; 'I' for Inactive)
    1  A    between atoms: C_1  and  C_21
    2  A    between atoms: C_3  and  O_14
    3  A    between atoms: C_6  and  C_17
    4  A    between atoms: C_6  and  C_21
    5  A    between atoms: C_7  and  CA_24
    6  A    between atoms: C_9  and  C_21
    7  A    between atoms: C_10  and  CA_24
    8  A    between atoms: N_11  and  C_20
    9  A    between atoms: N_11  and  CA_24
   10  A    between atoms: O_14  and  C_20
   11  A    between atoms: N_18  and  C_23
                            x       y       z     vdW  Elec       q    Type
                         _______ _______ _______ _____ _____    ______ ____

>  <TORSDO>
F 11

$$$$
