=
 OpenBabel11052410403D

 53 55  0  0  1  0  0  0  0  0999 V2000
  161.2810  205.7840  151.7440 C   0  0  2  0  0  3  0  0  0  0  0  0
  160.9080  203.2980  151.5340 C   0  0  0  0  0  0  0  0  0  0  0  0
  160.0340  203.3220  152.4400 O   0  0  0  0  0  0  0  0  0  0  0  0
  161.5080  204.5100  151.0770 N   0  0  0  0  0  2  0  0  0  0  0  0
  161.3240  202.0000  150.9310 C   0  0  0  0  0  2  0  0  0  0  0  0
  160.5950  201.7620  149.6910 N   0  0  0  0  0  0  0  0  0  0  0  0
  161.1790  202.1040  148.4260 C   0  0  0  0  0  0  0  0  0  0  0  0
  160.3920  202.0330  147.2300 N   0  0  0  0  0  2  0  0  0  0  0  0
  159.2460  201.2190  149.7600 C   0  0  0  0  0  1  0  0  0  0  0  0
  162.3840  202.4680  148.3670 O   0  0  0  0  0  0  0  0  0  0  0  0
  160.9350  202.3480  145.9180 C   0  0  0  0  0  2  0  0  0  0  0  0
  161.2120  203.8430  145.7940 C   0  0  0  0  0  2  0  0  0  0  0  0
  160.6190  204.4010  144.5070 C   0  0  0  0  0  2  0  0  0  0  0  0
  161.3450  205.5870  144.0880 N   0  0  0  0  0  1  0  0  0  0  0  0
  162.0770  206.8810  151.0520 C   0  0  0  0  0  2  0  0  0  0  0  0
  161.8540  206.0350  148.7340 N   0  0  0  0  0  2  0  0  0  0  0  0
  161.5560  207.1360  149.6420 C   0  0  2  0  0  0  0  0  0  0  0  0
  162.4230  208.1270  148.8780 C   0  0  1  0  0  3  0  0  0  0  0  0
  162.7060  206.9370  147.9620 C   0  0  2  0  0  3  0  0  0  0  0  0
  160.1910  207.4440  149.6290 O   0  0  0  0  0  1  0  0  0  0  0  0
  162.1720  207.1060  146.6820 O   0  0  0  0  0  1  0  0  0  0  0  0
  161.0590  211.5090  147.7290 N   0  0  0  0  0  2  0  0  0  0  0  0
  161.8720  210.5540  148.4120 C   0  0  0  0  0  0  0  0  0  0  0  0
  162.7980  210.9360  149.1800 O   0  0  0  0  0  0  0  0  0  0  0  0
  161.6280  209.1610  148.2140 N   0  0  0  0  0  2  0  0  0  0  0  0
  161.2960  212.9370  147.8430 C   0  0  0  0  0  2  0  0  0  0  0  0
  161.0190  213.6130  146.5130 C   0  0  0  0  0  2  0  0  0  0  0  0
  161.8900  213.1120  145.5230 O   0  0  0  0  0  0  0  0  0  0  0  0
  161.2640  213.1240  144.2480 C   0  0  2  0  0  0  0  0  0  0  0  0
  160.8740  214.4430  144.0010 O   0  0  0  0  0  1  0  0  0  0  0  0
  158.9400  212.8920  143.5780 O   0  0  0  0  0  1  0  0  0  0  0  0
  159.9880  212.2530  144.2430 C   0  0  0  0  0  2  0  0  0  0  0  0
  162.2580  212.7090  143.1340 C   0  0  2  0  0  3  0  0  0  0  0  0
  162.7790  213.8320  142.4810 O   0  0  0  0  0  1  0  0  0  0  0  0
  161.6560  211.8640  142.1930 O   0  0  0  0  0  0  0  0  0  0  0  0
  162.6970  209.8350  140.5240 O   0  0  0  0  0  1  0  0  0  0  0  0
  162.2370  212.1820  141.0090 N   0  0  0  0  0  2  0  0  0  0  0  0
  162.7480  211.1690  140.1450 C   0  0  0  0  0  0  0  0  0  0  0  0
  163.2490  211.4850  139.0390 O   0  0  0  0  0  0  0  0  0  0  0  0
  161.6660  205.6880  153.2180 C   0  0  0  0  0  2  0  0  0  0  0  0
  160.8610  206.5220  153.9970 O   0  0  0  0  0  0  0  0  0  0  0  0
  161.6530  207.6380  154.2650 C   0  0  0  0  0  2  0  0  0  0  0  0
  159.8680  209.0500  155.6150 C   0  0  0  0  0  0  0  0  0  0  0  0
  158.5240  211.8550  153.5140 S   0  0  0  0  0  0  0  0  0  0  0  0
  160.6220  209.8390  153.5950 C   0  0  0  0  0  0  0  0  0  0  0  0
  160.7980  208.8440  154.4880 C   0  0  0  0  0  0  0  0  0  0  0  0
  157.9840  210.7640  155.7750 N   0  0  0  0  0  0  0  0  0  0  0  0
  156.2640  212.4470  155.0870 C   0  0  0  0  0  1  0  0  0  0  0  0
  157.5400  211.7100  154.9000 C   0  0  0  0  0  0  0  0  0  0  0  0
  159.1620  210.2780  155.3220 C   0  0  0  0  0  0  0  0  0  0  0  0
  159.6810  208.2880  156.6000 O   0  0  0  0  0  0  0  0  0  0  0  0
  161.2500  209.9350  152.2520 C   0  0  0  0  0  1  0  0  0  0  0  0
  159.6070  210.7370  154.1370 C   0  0  0  0  0  0  0  0  0  0  0  0
  1 15  1  6  0  0  0
  1 40  1  0  0  0  0
  2  3  2  0  0  0  0
  4  2  1  0  0  0  0
  4  1  1  0  0  0  0
  5  2  1  0  0  0  0
  6  9  1  0  0  0  0
  6  5  1  0  0  0  0
  7  6  1  0  0  0  0
  8  7  1  0  0  0  0
 10  7  2  0  0  0  0
 11  8  1  0  0  0  0
 12 11  1  0  0  0  0
 13 12  1  0  0  0  0
 14 13  1  0  0  0  0
 16 17  1  0  0  0  0
 17 20  1  6  0  0  0
 17 15  1  0  0  0  0
 18 25  1  6  0  0  0
 18 17  1  0  0  0  0
 19 21  1  6  0  0  0
 19 16  1  0  0  0  0
 19 18  1  0  0  0  0
 22 26  1  0  0  0  0
 22 23  1  0  0  0  0
 23 24  2  0  0  0  0
 25 23  1  0  0  0  0
 27 26  1  0  0  0  0
 28 27  1  0  0  0  0
 29 30  1  6  0  0  0
 29 28  1  0  0  0  0
 31 32  1  0  0  0  0
 32 29  1  0  0  0  0
 33 34  1  6  0  0  0
 33 29  1  0  0  0  0
 35 33  1  0  0  0  0
 37 35  1  0  0  0  0
 38 36  1  0  0  0  0
 38 37  1  0  0  0  0
 39 38  2  0  0  0  0
 40 41  1  0  0  0  0
 41 42  1  0  0  0  0
 42 46  1  0  0  0  0
 43 51  2  0  0  0  0
 44 53  1  0  0  0  0
 44 49  1  0  0  0  0
 45 53  1  0  0  0  0
 45 46  2  0  0  0  0
 46 43  1  0  0  0  0
 49 48  1  0  0  0  0
 49 47  2  0  0  0  0
 50 43  1  0  0  0  0
 50 47  1  0  0  0  0
 52 45  1  0  0  0  0
 53 50  2  0  0  0  0
M  END
>  <MODEL>
1

>  <REMARK>
 VINA RESULT:      -5.3      0.000      0.000
  Name = 
  21 active torsions:
  status: ('A' for Active; 'I' for Inactive)
    1  A    between atoms: C_3  and  C_21
    2  A    between atoms: C_3  and  C_41
    3  A    between atoms: C_3  and  O_51
    4  A    between atoms: N_4  and  C_32
    5  A    between atoms: C_5  and  N_28
    6  A    between atoms: C_5  and  C_33
    7  A    between atoms: O_7  and  N_11
    8  A    between atoms: O_7  and  C_41
    9  A    between atoms: C_8  and  C_44
   10  A    between atoms: N_10  and  C_44
   11  A    between atoms: C_12  and  C_15
   12  A    between atoms: C_14  and  C_33
   13  A    between atoms: C_15  and  C_39
   14  A    between atoms: C_20  and  C_45
   15  A    between atoms: C_22  and  N_46
   16  A    between atoms: C_25  and  C_32
   17  A    between atoms: C_25  and  O_51
   18  A    between atoms: C_37  and  C_39
   19  A    between atoms: C_37  and  O_53
   20  A    between atoms: C_39  and  N_42
   21  A    between atoms: C_45  and  O_53
                            x       y       z     vdW  Elec       q    Type
                         _______ _______ _______ _____ _____    ______ ____

>  <TORSDO>
F 21

$$$$
=
 OpenBabel11052410403D

 53 55  0  0  1  0  0  0  0  0999 V2000
  161.3760  210.2920  151.0470 C   0  0  2  0  0  3  0  0  0  0  0  0
  159.9560  211.9820  152.2670 C   0  0  0  0  0  0  0  0  0  0  0  0
  159.4880  212.4160  151.1820 O   0  0  0  0  0  0  0  0  0  0  0  0
  160.8400  210.8620  152.2750 N   0  0  0  0  0  2  0  0  0  0  0  0
  159.5910  212.6390  153.5550 C   0  0  0  0  0  2  0  0  0  0  0  0
  159.0690  211.6540  154.4940 N   0  0  0  0  0  0  0  0  0  0  0  0
  159.9410  211.0060  155.4300 C   0  0  0  0  0  0  0  0  0  0  0  0
  159.4570  209.9170  156.2260 N   0  0  0  0  0  2  0  0  0  0  0  0
  157.6580  211.3020  154.4320 C   0  0  0  0  0  1  0  0  0  0  0  0
  161.1340  211.3960  155.5520 O   0  0  0  0  0  0  0  0  0  0  0  0
  160.2890  209.2340  157.2050 C   0  0  0  0  0  2  0  0  0  0  0  0
  161.1700  208.1880  156.5290 C   0  0  0  0  0  2  0  0  0  0  0  0
  160.3260  207.0590  155.9520 C   0  0  0  0  0  2  0  0  0  0  0  0
  160.6260  206.8720  154.5440 N   0  0  0  0  0  1  0  0  0  0  0  0
  162.3570  209.1760  151.3790 C   0  0  0  0  0  2  0  0  0  0  0  0
  161.2880  208.2960  149.3250 N   0  0  0  0  0  2  0  0  0  0  0  0
  162.1980  207.9980  150.4240 C   0  0  2  0  0  0  0  0  0  0  0  0
  161.3000  206.9100  150.9970 C   0  0  1  0  0  3  0  0  0  0  0  0
  160.3820  207.2670  149.8300 C   0  0  2  0  0  3  0  0  0  0  0  0
  163.4280  207.5310  149.9480 O   0  0  0  0  0  1  0  0  0  0  0  0
  160.2760  206.2350  148.8950 O   0  0  0  0  0  1  0  0  0  0  0  0
  161.8170  203.1220  151.0570 N   0  0  0  0  0  2  0  0  0  0  0  0
  161.1850  204.3910  151.2270 C   0  0  0  0  0  0  0  0  0  0  0  0
  160.0160  204.4640  151.7000 O   0  0  0  0  0  0  0  0  0  0  0  0
  161.8870  205.5770  150.8540 N   0  0  0  0  0  2  0  0  0  0  0  0
  161.1320  201.8780  151.3620 C   0  0  0  0  0  2  0  0  0  0  0  0
  160.7920  201.1480  150.0750 C   0  0  0  0  0  2  0  0  0  0  0  0
  160.4270  202.0730  149.0740 O   0  0  0  0  0  0  0  0  0  0  0  0
  160.8980  201.6520  147.8020 C   0  0  2  0  0  0  0  0  0  0  0  0
  159.7840  201.5700  146.9640 O   0  0  0  0  0  1  0  0  0  0  0  0
  161.5320  199.6210  146.6290 O   0  0  0  0  0  1  0  0  0  0  0  0
  161.5290  200.2430  147.8780 C   0  0  0  0  0  2  0  0  0  0  0  0
  161.8710  202.6940  147.1950 C   0  0  2  0  0  3  0  0  0  0  0  0
  161.8430  203.8900  147.9220 O   0  0  0  0  0  1  0  0  0  0  0  0
  161.5700  202.9610  145.8530 O   0  0  0  0  0  0  0  0  0  0  0  0
  159.7890  204.1840  144.0330 O   0  0  0  0  0  0  0  0  0  0  0  0
  161.5000  204.3120  145.7680 N   0  0  0  0  0  2  0  0  0  0  0  0
  160.5910  204.9460  144.8710 C   0  0  0  0  0  0  0  0  0  0  0  0
  160.5180  206.1980  144.8350 O   0  0  0  0  0  1  0  0  0  0  0  0
  162.0540  211.3730  150.2110 C   0  0  0  0  0  2  0  0  0  0  0  0
  161.5840  211.3530  148.8960 O   0  0  0  0  0  0  0  0  0  0  0  0
  161.2190  212.6710  148.6240 C   0  0  0  0  0  2  0  0  0  0  0  0
  159.7300  212.6800  146.4370 C   0  0  0  0  0  0  0  0  0  0  0  0
  161.8810  212.7450  143.3610 S   0  0  0  0  0  0  0  0  0  0  0  0
  161.9870  213.0550  146.2530 C   0  0  0  0  0  0  0  0  0  0  0  0
  161.0050  212.8620  147.1570 C   0  0  0  0  0  0  0  0  0  0  0  0
  159.3960  212.4170  143.9210 N   0  0  0  0  0  0  0  0  0  0  0  0
  159.9010  211.9810  141.5080 C   0  0  0  0  0  1  0  0  0  0  0  0
  160.2810  212.3930  142.8850 C   0  0  0  0  0  0  0  0  0  0  0  0
  160.0470  212.8250  145.0330 C   0  0  0  0  0  0  0  0  0  0  0  0
  158.6070  212.3960  146.9320 O   0  0  0  0  0  0  0  0  0  0  0  0
  163.4430  213.1340  146.5420 C   0  0  0  0  0  1  0  0  0  0  0  0
  161.3710  213.0450  144.9300 C   0  0  0  0  0  0  0  0  0  0  0  0
  1 40  1  1  0  0  0
  1 15  1  0  0  0  0
  1  4  1  0  0  0  0
  2  4  1  0  0  0  0
  2  5  1  0  0  0  0
  3  2  2  0  0  0  0
  5  6  1  0  0  0  0
  6  7  1  0  0  0  0
  7 10  2  0  0  0  0
  7  8  1  0  0  0  0
  8 11  1  0  0  0  0
  9  6  1  0  0  0  0
 12 11  1  0  0  0  0
 13 12  1  0  0  0  0
 14 13  1  0  0  0  0
 16 19  1  0  0  0  0
 16 17  1  0  0  0  0
 17 20  1  6  0  0  0
 17 18  1  0  0  0  0
 17 15  1  0  0  0  0
 18 25  1  6  0  0  0
 19 21  1  6  0  0  0
 19 18  1  0  0  0  0
 22 23  1  0  0  0  0
 22 26  1  0  0  0  0
 23 24  2  0  0  0  0
 25 23  1  0  0  0  0
 27 26  1  0  0  0  0
 28 27  1  0  0  0  0
 29 30  1  6  0  0  0
 29 32  1  0  0  0  0
 29 28  1  0  0  0  0
 31 32  1  0  0  0  0
 33 29  1  0  0  0  0
 33 34  1  1  0  0  0
 35 33  1  0  0  0  0
 36 38  2  0  0  0  0
 37 35  1  0  0  0  0
 38 37  1  0  0  0  0
 39 38  1  0  0  0  0
 41 40  1  0  0  0  0
 42 41  1  0  0  0  0
 43 51  2  0  0  0  0
 43 46  1  0  0  0  0
 44 53  1  0  0  0  0
 45 52  1  0  0  0  0
 45 46  2  0  0  0  0
 46 42  1  0  0  0  0
 47 50  1  0  0  0  0
 48 49  1  0  0  0  0
 49 44  1  0  0  0  0
 49 47  2  0  0  0  0
 50 43  1  0  0  0  0
 53 50  2  0  0  0  0
 53 45  1  0  0  0  0
M  END
>  <MODEL>
2

>  <REMARK>
 VINA RESULT:      -4.9      3.101      9.612
  Name = 
  21 active torsions:
  status: ('A' for Active; 'I' for Inactive)
    1  A    between atoms: C_3  and  C_21
    2  A    between atoms: C_3  and  C_41
    3  A    between atoms: C_3  and  O_51
    4  A    between atoms: N_4  and  C_32
    5  A    between atoms: C_5  and  N_28
    6  A    between atoms: C_5  and  C_33
    7  A    between atoms: O_7  and  N_11
    8  A    between atoms: O_7  and  C_41
    9  A    between atoms: C_8  and  C_44
   10  A    between atoms: N_10  and  C_44
   11  A    between atoms: C_12  and  C_15
   12  A    between atoms: C_14  and  C_33
   13  A    between atoms: C_15  and  C_39
   14  A    between atoms: C_20  and  C_45
   15  A    between atoms: C_22  and  N_46
   16  A    between atoms: C_25  and  C_32
   17  A    between atoms: C_25  and  O_51
   18  A    between atoms: C_37  and  C_39
   19  A    between atoms: C_37  and  O_53
   20  A    between atoms: C_39  and  N_42
   21  A    between atoms: C_45  and  O_53
                            x       y       z     vdW  Elec       q    Type
                         _______ _______ _______ _____ _____    ______ ____

>  <TORSDO>
F 21

$$$$
=
 OpenBabel11052410403D

 53 55  0  0  1  0  0  0  0  0999 V2000
  162.2690  208.1420  148.8780 C   0  0  2  0  0  3  0  0  0  0  0  0
  161.7750  206.5720  146.9670 C   0  0  0  0  0  0  0  0  0  0  0  0
  160.5340  206.7030  147.1410 O   0  0  0  0  0  0  0  0  0  0  0  0
  162.6980  207.3320  147.7460 N   0  0  0  0  0  2  0  0  0  0  0  0
  162.2890  205.6170  145.9450 C   0  0  0  0  0  2  0  0  0  0  0  0
  161.4710  204.4100  145.9240 N   0  0  0  0  0  0  0  0  0  0  0  0
  161.5730  203.4430  146.9780 C   0  0  0  0  0  0  0  0  0  0  0  0
  160.9000  202.1830  146.8630 N   0  0  0  0  0  2  0  0  0  0  0  0
  160.5880  204.1790  144.7900 C   0  0  0  0  0  1  0  0  0  0  0  0
  162.2540  203.7020  148.0060 O   0  0  0  0  0  0  0  0  0  0  0  0
  160.9500  201.1710  147.9070 C   0  0  0  0  0  2  0  0  0  0  0  0
  160.0820  201.5790  149.0940 C   0  0  0  0  0  2  0  0  0  0  0  0
  160.7990  201.3070  150.4100 C   0  0  0  0  0  2  0  0  0  0  0  0
  161.1590  202.5570  151.0570 N   0  0  0  0  0  1  0  0  0  0  0  0
  161.2700  207.3640  149.7230 C   0  0  0  0  0  2  0  0  0  0  0  0
  161.6980  205.6200  151.4280 N   0  0  0  0  0  2  0  0  0  0  0  0
  161.8470  207.0310  151.0940 C   0  0  2  0  0  0  0  0  0  0  0  0
  160.9410  207.4920  152.2270 C   0  0  1  0  0  3  0  0  0  0  0  0
  160.8160  206.0000  152.5290 C   0  0  2  0  0  3  0  0  0  0  0  0
  163.1780  207.4430  151.2240 O   0  0  0  0  0  1  0  0  0  0  0  0
  161.4060  205.6470  153.7450 O   0  0  0  0  0  1  0  0  0  0  0  0
  161.8050  209.5420  155.3370 N   0  0  0  0  0  2  0  0  0  0  0  0
  161.0220  208.8630  154.3540 C   0  0  0  0  0  0  0  0  0  0  0  0
  159.7630  208.8400  154.4460 O   0  0  0  0  0  0  0  0  0  0  0  0
  161.6780  208.2090  153.2680 N   0  0  0  0  0  2  0  0  0  0  0  0
  161.1990  210.1750  156.4960 C   0  0  0  0  0  2  0  0  0  0  0  0
  161.1300  211.6760  156.2850 C   0  0  0  0  0  2  0  0  0  0  0  0
  160.1000  211.9910  155.3740 O   0  0  0  0  0  0  0  0  0  0  0  0
  158.9980  212.5860  156.0450 C   0  0  2  0  0  0  0  0  0  0  0  0
  159.5270  213.3840  157.0630 O   0  0  0  0  0  1  0  0  0  0  0  0
  157.2960  210.8740  155.7690 O   0  0  0  0  0  1  0  0  0  0  0  0
  158.1040  211.5150  156.7100 C   0  0  0  0  0  2  0  0  0  0  0  0
  158.1950  213.5060  155.0920 C   0  0  2  0  0  3  0  0  0  0  0  0
  157.0790  214.0480  155.7390 O   0  0  0  0  0  1  0  0  0  0  0  0
  157.7760  212.8210  153.9430 O   0  0  0  0  0  0  0  0  0  0  0  0
  157.9860  214.4510  151.6440 O   0  0  0  0  0  1  0  0  0  0  0  0
  158.8760  212.7510  153.1530 N   0  0  0  0  0  2  0  0  0  0  0  0
  159.0080  213.5810  152.0010 C   0  0  0  0  0  0  0  0  0  0  0  0
  160.0500  213.5240  151.3050 O   0  0  0  0  0  0  0  0  0  0  0  0
  161.6580  209.4530  148.3920 C   0  0  0  0  0  2  0  0  0  0  0  0
  161.2050  210.2190  149.4690 O   0  0  0  0  0  0  0  0  0  0  0  0
  162.0710  211.3110  149.5220 C   0  0  0  0  0  2  0  0  0  0  0  0
  160.6310  212.7610  147.8420 C   0  0  0  0  0  0  0  0  0  0  0  0
  162.5370  213.4140  144.6750 S   0  0  0  0  0  0  0  0  0  0  0  0
  162.8500  212.3930  147.3830 C   0  0  0  0  0  0  0  0  0  0  0  0
  161.9000  212.1750  148.3150 C   0  0  0  0  0  0  0  0  0  0  0  0
  160.1390  213.7370  145.5360 N   0  0  0  0  0  0  0  0  0  0  0  0
  160.3570  214.2390  143.0930 C   0  0  0  0  0  1  0  0  0  0  0  0
  160.9110  213.8640  144.4200 C   0  0  0  0  0  0  0  0  0  0  0  0
  160.9340  213.3800  146.5700 C   0  0  0  0  0  0  0  0  0  0  0  0
  159.5030  212.6890  148.3970 O   0  0  0  0  0  0  0  0  0  0  0  0
  164.2310  211.8450  147.3920 C   0  0  0  0  0  1  0  0  0  0  0  0
  162.2350  213.1620  146.3050 C   0  0  0  0  0  0  0  0  0  0  0  0
  1 40  1  6  0  0  0
  1 15  1  0  0  0  0
  2  3  2  0  0  0  0
  2  4  1  0  0  0  0
  4  1  1  0  0  0  0
  5  2  1  0  0  0  0
  6  5  1  0  0  0  0
  6  7  1  0  0  0  0
  7 10  2  0  0  0  0
  8  7  1  0  0  0  0
  8 11  1  0  0  0  0
  9  6  1  0  0  0  0
 11 12  1  0  0  0  0
 12 13  1  0  0  0  0
 13 14  1  0  0  0  0
 15 17  1  0  0  0  0
 16 19  1  0  0  0  0
 17 20  1  1  0  0  0
 17 16  1  0  0  0  0
 17 18  1  0  0  0  0
 18 19  1  0  0  0  0
 18 25  1  1  0  0  0
 19 21  1  1  0  0  0
 22 26  1  0  0  0  0
 23 24  2  0  0  0  0
 23 22  1  0  0  0  0
 25 23  1  0  0  0  0
 27 26  1  0  0  0  0
 28 29  1  0  0  0  0
 28 27  1  0  0  0  0
 29 32  1  0  0  0  0
 29 30  1  1  0  0  0
 31 32  1  0  0  0  0
 33 34  1  1  0  0  0
 33 29  1  0  0  0  0
 35 33  1  0  0  0  0
 36 38  1  0  0  0  0
 37 35  1  0  0  0  0
 38 37  1  0  0  0  0
 39 38  2  0  0  0  0
 40 41  1  0  0  0  0
 41 42  1  0  0  0  0
 43 46  1  0  0  0  0
 43 51  2  0  0  0  0
 44 53  1  0  0  0  0
 45 52  1  0  0  0  0
 45 46  2  0  0  0  0
 46 42  1  0  0  0  0
 47 50  1  0  0  0  0
 48 49  1  0  0  0  0
 49 44  1  0  0  0  0
 49 47  2  0  0  0  0
 50 43  1  0  0  0  0
 53 50  2  0  0  0  0
 53 45  1  0  0  0  0
M  END
>  <MODEL>
3

>  <REMARK>
 VINA RESULT:      -4.8      3.318      8.449
  Name = 
  21 active torsions:
  status: ('A' for Active; 'I' for Inactive)
    1  A    between atoms: C_3  and  C_21
    2  A    between atoms: C_3  and  C_41
    3  A    between atoms: C_3  and  O_51
    4  A    between atoms: N_4  and  C_32
    5  A    between atoms: C_5  and  N_28
    6  A    between atoms: C_5  and  C_33
    7  A    between atoms: O_7  and  N_11
    8  A    between atoms: O_7  and  C_41
    9  A    between atoms: C_8  and  C_44
   10  A    between atoms: N_10  and  C_44
   11  A    between atoms: C_12  and  C_15
   12  A    between atoms: C_14  and  C_33
   13  A    between atoms: C_15  and  C_39
   14  A    between atoms: C_20  and  C_45
   15  A    between atoms: C_22  and  N_46
   16  A    between atoms: C_25  and  C_32
   17  A    between atoms: C_25  and  O_51
   18  A    between atoms: C_37  and  C_39
   19  A    between atoms: C_37  and  O_53
   20  A    between atoms: C_39  and  N_42
   21  A    between atoms: C_45  and  O_53
                            x       y       z     vdW  Elec       q    Type
                         _______ _______ _______ _____ _____    ______ ____

>  <TORSDO>
F 21

$$$$
=
 OpenBabel11052410403D

 53 55  0  0  1  0  0  0  0  0999 V2000
  161.4520  211.4490  148.5640 C   0  0  2  0  0  3  0  0  0  0  0  0
  161.8790  209.0460  149.2010 C   0  0  0  0  0  0  0  0  0  0  0  0
  161.6180  209.2880  150.4090 O   0  0  0  0  0  0  0  0  0  0  0  0
  161.7310  210.0640  148.2120 N   0  0  0  0  0  2  0  0  0  0  0  0
  162.3490  207.6900  148.7950 C   0  0  0  0  0  2  0  0  0  0  0  0
  161.3680  206.6810  149.1740 N   0  0  0  0  0  0  0  0  0  0  0  0
  161.5710  205.8680  150.3370 C   0  0  0  0  0  0  0  0  0  0  0  0
  160.6960  204.7640  150.6030 N   0  0  0  0  0  2  0  0  0  0  0  0
  160.2040  206.4780  148.3240 C   0  0  0  0  0  1  0  0  0  0  0  0
  162.5200  206.1240  151.1260 O   0  0  0  0  0  0  0  0  0  0  0  0
  160.8400  203.9170  151.7770 C   0  0  0  0  0  2  0  0  0  0  0  0
  161.0590  202.4630  151.3680 C   0  0  0  0  0  2  0  0  0  0  0  0
  161.4920  202.3690  149.9110 C   0  0  0  0  0  2  0  0  0  0  0  0
  160.9780  201.1510  149.3090 N   0  0  0  0  0  1  0  0  0  0  0  0
  162.1340  212.3820  147.5750 C   0  0  0  0  0  2  0  0  0  0  0  0
  159.7620  212.5710  146.8870 N   0  0  0  0  0  2  0  0  0  0  0  0
  161.1170  213.0560  146.6600 C   0  0  2  0  0  0  0  0  0  0  0  0
  161.1750  212.5150  145.2380 C   0  0  1  0  0  3  0  0  0  0  0  0
  159.7590  212.0240  145.5320 C   0  0  2  0  0  3  0  0  0  0  0  0
  161.1740  214.4520  146.7410 O   0  0  0  0  0  1  0  0  0  0  0  0
  158.7930  212.6790  144.7640 O   0  0  0  0  0  1  0  0  0  0  0  0
  161.1880  214.4110  141.9180 N   0  0  0  0  0  2  0  0  0  0  0  0
  161.1700  213.3180  142.8370 C   0  0  0  0  0  0  0  0  0  0  0  0
  161.1300  212.1290  142.4140 O   0  0  0  0  0  0  0  0  0  0  0  0
  161.1950  213.5840  144.2390 N   0  0  0  0  0  2  0  0  0  0  0  0
  161.1050  214.2070  140.4820 C   0  0  0  0  0  2  0  0  0  0  0  0
  159.6670  213.9260  140.0850 C   0  0  0  0  0  2  0  0  0  0  0  0
  159.6080  213.5080  138.7380 O   0  0  0  0  0  0  0  0  0  0  0  0
  158.9140  212.2740  138.6240 C   0  0  2  0  0  0  0  0  0  0  0  0
  158.0630  212.3890  137.5220 O   0  0  0  0  0  1  0  0  0  0  0  0
  156.6790  211.9970  139.5350 O   0  0  0  0  0  1  0  0  0  0  0  0
  158.0350  212.0090  139.8670 C   0  0  0  0  0  2  0  0  0  0  0  0
  159.8940  211.1080  138.3430 C   0  0  2  0  0  3  0  0  0  0  0  0
  160.3850  211.1670  137.0340 O   0  0  0  0  0  1  0  0  0  0  0  0
  159.2890  209.8620  138.5540 O   0  0  0  0  0  0  0  0  0  0  0  0
  160.6300  207.9110  137.0120 O   0  0  0  0  0  0  0  0  0  0  0  0
  160.2530  209.0900  139.1150 N   0  0  0  0  0  2  0  0  0  0  0  0
  160.9550  208.1160  138.3460 C   0  0  0  0  0  0  0  0  0  0  0  0
  161.8670  207.4380  138.8770 O   0  0  0  0  0  1  0  0  0  0  0  0
  161.9200  211.7390  149.9870 C   0  0  0  0  0  2  0  0  0  0  0  0
  161.0990  212.6910  150.5960 O   0  0  0  0  0  0  0  0  0  0  0  0
  159.8380  212.0960  150.6500 C   0  0  0  0  0  2  0  0  0  0  0  0
  159.2960  211.4380  153.1560 C   0  0  0  0  0  0  0  0  0  0  0  0
  156.4680  213.5130  154.4940 S   0  0  0  0  0  0  0  0  0  0  0  0
  158.3130  213.3060  152.2520 C   0  0  0  0  0  0  0  0  0  0  0  0
  159.2060  212.3320  151.9840 C   0  0  0  0  0  0  0  0  0  0  0  0
  157.8150  211.4550  155.2340 N   0  0  0  0  0  0  0  0  0  0  0  0
  155.8690  211.9180  156.7380 C   0  0  0  0  0  1  0  0  0  0  0  0
  156.7530  212.2330  155.5860 C   0  0  0  0  0  0  0  0  0  0  0  0
  158.4080  212.0020  154.1480 C   0  0  0  0  0  0  0  0  0  0  0  0
  159.9600  210.3730  153.2530 O   0  0  0  0  0  0  0  0  0  0  0  0
  157.8130  214.3270  151.2950 C   0  0  0  0  0  1  0  0  0  0  0  0
  157.8340  213.0960  153.6150 C   0  0  0  0  0  0  0  0  0  0  0  0
  1 15  1  6  0  0  0
  1 40  1  0  0  0  0
  2  3  2  0  0  0  0
  4  1  1  0  0  0  0
  4  2  1  0  0  0  0
  5  6  1  0  0  0  0
  5  2  1  0  0  0  0
  6  7  1  0  0  0  0
  7  8  1  0  0  0  0
  7 10  2  0  0  0  0
  8 11  1  0  0  0  0
  9  6  1  0  0  0  0
 12 11  1  0  0  0  0
 13 12  1  0  0  0  0
 14 13  1  0  0  0  0
 17 20  1  1  0  0  0
 17 16  1  0  0  0  0
 17 15  1  0  0  0  0
 18 25  1  6  0  0  0
 18 19  1  0  0  0  0
 18 17  1  0  0  0  0
 19 21  1  6  0  0  0
 19 16  1  0  0  0  0
 22 23  1  0  0  0  0
 23 25  1  0  0  0  0
 24 23  2  0  0  0  0
 26 22  1  0  0  0  0
 27 26  1  0  0  0  0
 28 27  1  0  0  0  0
 29 30  1  6  0  0  0
 29 28  1  0  0  0  0
 29 32  1  0  0  0  0
 31 32  1  0  0  0  0
 33 34  1  6  0  0  0
 33 35  1  0  0  0  0
 33 29  1  0  0  0  0
 35 37  1  0  0  0  0
 36 38  2  0  0  0  0
 38 39  1  0  0  0  0
 38 37  1  0  0  0  0
 40 41  1  0  0  0  0
 41 42  1  0  0  0  0
 42 46  1  0  0  0  0
 43 51  2  0  0  0  0
 43 50  1  0  0  0  0
 44 49  1  0  0  0  0
 45 53  1  0  0  0  0
 46 45  2  0  0  0  0
 46 43  1  0  0  0  0
 47 49  2  0  0  0  0
 49 48  1  0  0  0  0
 50 47  1  0  0  0  0
 52 45  1  0  0  0  0
 53 50  2  0  0  0  0
 53 44  1  0  0  0  0
M  END
>  <MODEL>
4

>  <REMARK>
 VINA RESULT:      -3.9      2.740      5.604
  Name = 
  21 active torsions:
  status: ('A' for Active; 'I' for Inactive)
    1  A    between atoms: C_3  and  C_21
    2  A    between atoms: C_3  and  C_41
    3  A    between atoms: C_3  and  O_51
    4  A    between atoms: N_4  and  C_32
    5  A    between atoms: C_5  and  N_28
    6  A    between atoms: C_5  and  C_33
    7  A    between atoms: O_7  and  N_11
    8  A    between atoms: O_7  and  C_41
    9  A    between atoms: C_8  and  C_44
   10  A    between atoms: N_10  and  C_44
   11  A    between atoms: C_12  and  C_15
   12  A    between atoms: C_14  and  C_33
   13  A    between atoms: C_15  and  C_39
   14  A    between atoms: C_20  and  C_45
   15  A    between atoms: C_22  and  N_46
   16  A    between atoms: C_25  and  C_32
   17  A    between atoms: C_25  and  O_51
   18  A    between atoms: C_37  and  C_39
   19  A    between atoms: C_37  and  O_53
   20  A    between atoms: C_39  and  N_42
   21  A    between atoms: C_45  and  O_53
                            x       y       z     vdW  Elec       q    Type
                         _______ _______ _______ _____ _____    ______ ____

>  <TORSDO>
F 21

$$$$
=
 OpenBabel11052410403D

 53 55  0  0  1  0  0  0  0  0999 V2000
  161.6220  211.0110  148.8100 C   0  0  2  0  0  3  0  0  0  0  0  0
  162.1380  208.5430  148.8610 C   0  0  0  0  0  0  0  0  0  0  0  0
  161.6950  208.4440  150.0360 O   0  0  0  0  0  0  0  0  0  0  0  0
  162.0500  209.7820  148.1580 N   0  0  0  0  0  2  0  0  0  0  0  0
  162.7610  207.3630  148.1950 C   0  0  0  0  0  2  0  0  0  0  0  0
  161.7510  206.3490  147.9160 N   0  0  0  0  0  0  0  0  0  0  0  0
  162.0550  205.2340  147.0690 C   0  0  0  0  0  0  0  0  0  0  0  0
  161.0130  204.3400  146.6580 N   0  0  0  0  0  2  0  0  0  0  0  0
  160.4160  206.5150  148.4710 C   0  0  0  0  0  1  0  0  0  0  0  0
  163.2400  205.0390  146.6850 O   0  0  0  0  0  0  0  0  0  0  0  0
  161.2630  203.1800  145.8150 C   0  0  0  0  0  2  0  0  0  0  0  0
  160.9950  201.8890  146.5820 C   0  0  0  0  0  2  0  0  0  0  0  0
  161.0590  202.1270  148.0850 C   0  0  0  0  0  2  0  0  0  0  0  0
  160.5310  200.9790  148.8020 N   0  0  0  0  0  1  0  0  0  0  0  0
  162.2660  212.2110  148.1290 C   0  0  0  0  0  2  0  0  0  0  0  0
  159.8760  212.8240  147.9020 N   0  0  0  0  0  2  0  0  0  0  0  0
  161.2270  213.0590  147.4050 C   0  0  2  0  0  0  0  0  0  0  0  0
  160.9110  212.5220  146.0160 C   0  0  1  0  0  3  0  0  0  0  0  0
  159.5150  212.2910  146.5910 C   0  0  2  0  0  3  0  0  0  0  0  0
  161.5440  214.4220  147.4310 O   0  0  0  0  0  1  0  0  0  0  0  0
  158.5500  213.1120  146.0010 O   0  0  0  0  0  1  0  0  0  0  0  0
  161.4960  214.4530  142.7680 N   0  0  0  0  0  2  0  0  0  0  0  0
  161.5200  213.3840  143.7140 C   0  0  0  0  0  0  0  0  0  0  0  0
  162.0590  212.2810  143.4180 O   0  0  0  0  0  0  0  0  0  0  0  0
  160.9270  213.5740  144.9990 N   0  0  0  0  0  2  0  0  0  0  0  0
  162.0300  214.3010  141.4260 C   0  0  0  0  0  2  0  0  0  0  0  0
  161.2950  213.1880  140.7020 C   0  0  0  0  0  2  0  0  0  0  0  0
  159.9030  213.4130  140.7510 O   0  0  0  0  0  0  0  0  0  0  0  0
  159.2730  212.9320  139.5720 C   0  0  2  0  0  0  0  0  0  0  0  0
  159.0290  211.5700  139.7710 O   0  0  0  0  0  1  0  0  0  0  0  0
  160.3270  214.3950  137.9430 O   0  0  0  0  0  1  0  0  0  0  0  0
  160.2050  213.0640  138.3470 C   0  0  0  0  0  2  0  0  0  0  0  0
  157.9080  213.6280  139.3450 C   0  0  2  0  0  3  0  0  0  0  0  0
  157.2280  213.8060  140.5550 O   0  0  0  0  0  1  0  0  0  0  0  0
  157.0990  212.9030  138.4610 O   0  0  0  0  0  0  0  0  0  0  0  0
  154.3500  212.3530  138.1080 O   0  0  0  0  0  0  0  0  0  0  0  0
  156.4840  211.9700  139.2280 N   0  0  0  0  0  2  0  0  0  0  0  0
  155.1030  211.6640  139.0490 C   0  0  0  0  0  0  0  0  0  0  0  0
  154.5640  210.7710  139.7460 O   0  0  0  0  0  1  0  0  0  0  0  0
  161.9790  210.9790  150.2930 C   0  0  0  0  0  2  0  0  0  0  0  0
  160.9780  211.5810  151.0590 O   0  0  0  0  0  0  0  0  0  0  0  0
  160.8510  210.7700  152.1860 C   0  0  0  0  0  2  0  0  0  0  0  0
  158.5990  212.1130  152.5470 C   0  0  0  0  0  0  0  0  0  0  0  0
  157.5160  211.9550  156.1370 S   0  0  0  0  0  0  0  0  0  0  0  0
  159.3970  210.7910  154.2460 C   0  0  0  0  0  0  0  0  0  0  0  0
  159.6330  211.1460  152.9670 C   0  0  0  0  0  0  0  0  0  0  0  0
  156.8390  213.2340  154.0150 N   0  0  0  0  0  0  0  0  0  0  0  0
  155.6590  214.0730  156.0570 C   0  0  0  0  0  1  0  0  0  0  0  0
  156.5780  213.1440  155.3500 C   0  0  0  0  0  0  0  0  0  0  0  0
  157.7140  212.2580  153.6810 C   0  0  0  0  0  0  0  0  0  0  0  0
  158.5330  212.7320  151.4520 O   0  0  0  0  0  0  0  0  0  0  0  0
  160.2780  209.9530  155.1010 C   0  0  0  0  0  1  0  0  0  0  0  0
  158.1850  211.4820  154.6750 C   0  0  0  0  0  0  0  0  0  0  0  0
  1 15  1  6  0  0  0
  1 40  1  0  0  0  0
  2  3  2  0  0  0  0
  4  1  1  0  0  0  0
  4  2  1  0  0  0  0
  5  2  1  0  0  0  0
  6  5  1  0  0  0  0
  6  9  1  0  0  0  0
  7  6  1  0  0  0  0
  8  7  1  0  0  0  0
 10  7  2  0  0  0  0
 11 12  1  0  0  0  0
 11  8  1  0  0  0  0
 12 13  1  0  0  0  0
 13 14  1  0  0  0  0
 17 20  1  6  0  0  0
 17 16  1  0  0  0  0
 17 15  1  0  0  0  0
 18 25  1  6  0  0  0
 18 19  1  0  0  0  0
 18 17  1  0  0  0  0
 19 21  1  6  0  0  0
 19 16  1  0  0  0  0
 22 23  1  0  0  0  0
 23 25  1  0  0  0  0
 24 23  2  0  0  0  0
 26 22  1  0  0  0  0
 27 28  1  0  0  0  0
 27 26  1  0  0  0  0
 29 30  1  1  0  0  0
 29 28  1  0  0  0  0
 31 32  1  0  0  0  0
 32 29  1  0  0  0  0
 33 29  1  0  0  0  0
 33 34  1  1  0  0  0
 35 37  1  0  0  0  0
 35 33  1  0  0  0  0
 36 38  2  0  0  0  0
 38 37  1  0  0  0  0
 38 39  1  0  0  0  0
 40 41  1  0  0  0  0
 41 42  1  0  0  0  0
 42 46  1  0  0  0  0
 43 46  1  0  0  0  0
 43 50  1  0  0  0  0
 45 53  1  0  0  0  0
 45 52  1  0  0  0  0
 46 45  2  0  0  0  0
 47 49  2  0  0  0  0
 49 48  1  0  0  0  0
 49 44  1  0  0  0  0
 50 47  1  0  0  0  0
 50 53  2  0  0  0  0
 51 43  2  0  0  0  0
 53 44  1  0  0  0  0
M  END
>  <MODEL>
5

>  <REMARK>
 VINA RESULT:      -3.9      2.987      5.442
  Name = 
  21 active torsions:
  status: ('A' for Active; 'I' for Inactive)
    1  A    between atoms: C_3  and  C_21
    2  A    between atoms: C_3  and  C_41
    3  A    between atoms: C_3  and  O_51
    4  A    between atoms: N_4  and  C_32
    5  A    between atoms: C_5  and  N_28
    6  A    between atoms: C_5  and  C_33
    7  A    between atoms: O_7  and  N_11
    8  A    between atoms: O_7  and  C_41
    9  A    between atoms: C_8  and  C_44
   10  A    between atoms: N_10  and  C_44
   11  A    between atoms: C_12  and  C_15
   12  A    between atoms: C_14  and  C_33
   13  A    between atoms: C_15  and  C_39
   14  A    between atoms: C_20  and  C_45
   15  A    between atoms: C_22  and  N_46
   16  A    between atoms: C_25  and  C_32
   17  A    between atoms: C_25  and  O_51
   18  A    between atoms: C_37  and  C_39
   19  A    between atoms: C_37  and  O_53
   20  A    between atoms: C_39  and  N_42
   21  A    between atoms: C_45  and  O_53
                            x       y       z     vdW  Elec       q    Type
                         _______ _______ _______ _____ _____    ______ ____

>  <TORSDO>
F 21

$$$$
=
 OpenBabel11052410403D

 53 55  0  0  1  0  0  0  0  0999 V2000
  162.2650  210.2800  151.5960 C   0  0  2  0  0  3  0  0  0  0  0  0
  162.4430  208.4380  149.8820 C   0  0  0  0  0  0  0  0  0  0  0  0
  162.3560  209.2670  148.9380 O   0  0  0  0  0  0  0  0  0  0  0  0
  162.4920  208.8870  151.2360 N   0  0  0  0  0  2  0  0  0  0  0  0
  162.4940  206.9770  149.5910 C   0  0  0  0  0  2  0  0  0  0  0  0
  161.3570  206.5860  148.7660 N   0  0  0  0  0  0  0  0  0  0  0  0
  161.5120  206.4040  147.3520 C   0  0  0  0  0  0  0  0  0  0  0  0
  160.3600  206.1950  146.5250 N   0  0  0  0  0  2  0  0  0  0  0  0
  160.0520  206.4340  149.3930 C   0  0  0  0  0  1  0  0  0  0  0  0
  162.6620  206.4290  146.8360 O   0  0  0  0  0  0  0  0  0  0  0  0
  160.4560  205.9850  145.0880 C   0  0  0  0  0  2  0  0  0  0  0  0
  161.2750  204.7350  144.7810 C   0  0  0  0  0  2  0  0  0  0  0  0
  160.4780  203.4740  145.0900 C   0  0  0  0  0  2  0  0  0  0  0  0
  159.3940  203.3140  144.1360 N   0  0  0  0  0  1  0  0  0  0  0  0
  161.9690  210.3870  153.0850 C   0  0  0  0  0  2  0  0  0  0  0  0
  160.0570  209.9690  154.6040 N   0  0  0  0  0  2  0  0  0  0  0  0
  160.8420  209.4440  153.4940 C   0  0  2  0  0  0  0  0  0  0  0  0
  161.3510  208.2520  154.2930 C   0  0  1  0  0  3  0  0  0  0  0  0
  160.5160  208.8500  155.4240 C   0  0  2  0  0  3  0  0  0  0  0  0
  160.0220  209.0990  152.4140 O   0  0  0  0  0  1  0  0  0  0  0  0
  159.4270  208.0460  155.7690 O   0  0  0  0  0  1  0  0  0  0  0  0
  160.9920  204.8210  152.6460 N   0  0  0  0  0  2  0  0  0  0  0  0
  161.5920  206.0390  153.0870 C   0  0  0  0  0  0  0  0  0  0  0  0
  162.8090  206.2760  152.8450 O   0  0  0  0  0  0  0  0  0  0  0  0
  160.8030  206.9860  153.8070 N   0  0  0  0  0  2  0  0  0  0  0  0
  161.7580  203.7940  151.9610 C   0  0  0  0  0  2  0  0  0  0  0  0
  160.9470  202.5140  151.8810 C   0  0  0  0  0  2  0  0  0  0  0  0
  161.4170  201.7060  150.8240 O   0  0  0  0  0  0  0  0  0  0  0  0
  160.5540  201.7960  149.6990 C   0  0  2  0  0  0  0  0  0  0  0  0
  160.1410  203.1280  149.6110 O   0  0  0  0  0  1  0  0  0  0  0  0
  158.2510  201.3540  149.0630 O   0  0  0  0  0  1  0  0  0  0  0  0
  159.2900  200.9290  149.8930 C   0  0  0  0  0  2  0  0  0  0  0  0
  161.3060  201.4470  148.3900 C   0  0  2  0  0  3  0  0  0  0  0  0
  161.8110  202.6000  147.7790 O   0  0  0  0  0  1  0  0  0  0  0  0
  160.4810  200.7670  147.4860 O   0  0  0  0  0  0  0  0  0  0  0  0
  160.3540  200.0160  144.7650 O   0  0  0  0  0  0  0  0  0  0  0  0
  161.2340  199.7380  147.0240 N   0  0  0  0  0  2  0  0  0  0  0  0
  161.1990  199.3600  145.6490 C   0  0  0  0  0  0  0  0  0  0  0  0
  161.9310  198.4280  145.2380 O   0  0  0  0  0  1  0  0  0  0  0  0
  161.1180  210.8610  150.7760 C   0  0  0  0  0  2  0  0  0  0  0  0
  161.5850  211.8270  149.8820 O   0  0  0  0  0  0  0  0  0  0  0  0
  160.5170  212.7080  149.7140 C   0  0  0  0  0  2  0  0  0  0  0  0
  159.1060  213.1090  147.5110 C   0  0  0  0  0  0  0  0  0  0  0  0
  161.3500  213.3020  144.5090 S   0  0  0  0  0  0  0  0  0  0  0  0
  161.3940  213.2750  147.4190 C   0  0  0  0  0  0  0  0  0  0  0  0
  160.3690  213.0820  148.2740 C   0  0  0  0  0  0  0  0  0  0  0  0
  158.8290  213.1630  144.9750 N   0  0  0  0  0  0  0  0  0  0  0  0
  159.3660  212.9490  142.5400 C   0  0  0  0  0  1  0  0  0  0  0  0
  159.7400  213.1660  143.9620 C   0  0  0  0  0  0  0  0  0  0  0  0
  159.4810  213.3770  146.1410 C   0  0  0  0  0  0  0  0  0  0  0  0
  157.9460  212.8840  147.9480 O   0  0  0  0  0  0  0  0  0  0  0  0
  162.8400  213.1760  147.7450 C   0  0  0  0  0  1  0  0  0  0  0  0
  160.8220  213.4740  146.0910 C   0  0  0  0  0  0  0  0  0  0  0  0
  1 40  1  6  0  0  0
  1 15  1  0  0  0  0
  2  4  1  0  0  0  0
  3  2  2  0  0  0  0
  4  1  1  0  0  0  0
  5  2  1  0  0  0  0
  6  9  1  0  0  0  0
  6  5  1  0  0  0  0
  7  6  1  0  0  0  0
  8  7  1  0  0  0  0
 10  7  2  0  0  0  0
 11  8  1  0  0  0  0
 12 11  1  0  0  0  0
 12 13  1  0  0  0  0
 14 13  1  0  0  0  0
 15 17  1  0  0  0  0
 16 19  1  0  0  0  0
 17 20  1  6  0  0  0
 17 18  1  0  0  0  0
 17 16  1  0  0  0  0
 18 25  1  6  0  0  0
 18 19  1  0  0  0  0
 19 21  1  6  0  0  0
 22 23  1  0  0  0  0
 23 25  1  0  0  0  0
 24 23  2  0  0  0  0
 26 22  1  0  0  0  0
 27 26  1  0  0  0  0
 28 27  1  0  0  0  0
 29 30  1  6  0  0  0
 29 32  1  0  0  0  0
 29 28  1  0  0  0  0
 31 32  1  0  0  0  0
 33 34  1  6  0  0  0
 33 29  1  0  0  0  0
 35 33  1  0  0  0  0
 36 38  2  0  0  0  0
 37 35  1  0  0  0  0
 38 37  1  0  0  0  0
 39 38  1  0  0  0  0
 41 40  1  0  0  0  0
 42 41  1  0  0  0  0
 43 51  2  0  0  0  0
 43 46  1  0  0  0  0
 44 53  1  0  0  0  0
 45 52  1  0  0  0  0
 45 46  2  0  0  0  0
 46 42  1  0  0  0  0
 47 50  1  0  0  0  0
 48 49  1  0  0  0  0
 49 44  1  0  0  0  0
 49 47  2  0  0  0  0
 50 43  1  0  0  0  0
 53 50  2  0  0  0  0
 53 45  1  0  0  0  0
M  END
>  <MODEL>
6

>  <REMARK>
 VINA RESULT:      -3.9      3.425      8.789
  Name = 
  21 active torsions:
  status: ('A' for Active; 'I' for Inactive)
    1  A    between atoms: C_3  and  C_21
    2  A    between atoms: C_3  and  C_41
    3  A    between atoms: C_3  and  O_51
    4  A    between atoms: N_4  and  C_32
    5  A    between atoms: C_5  and  N_28
    6  A    between atoms: C_5  and  C_33
    7  A    between atoms: O_7  and  N_11
    8  A    between atoms: O_7  and  C_41
    9  A    between atoms: C_8  and  C_44
   10  A    between atoms: N_10  and  C_44
   11  A    between atoms: C_12  and  C_15
   12  A    between atoms: C_14  and  C_33
   13  A    between atoms: C_15  and  C_39
   14  A    between atoms: C_20  and  C_45
   15  A    between atoms: C_22  and  N_46
   16  A    between atoms: C_25  and  C_32
   17  A    between atoms: C_25  and  O_51
   18  A    between atoms: C_37  and  C_39
   19  A    between atoms: C_37  and  O_53
   20  A    between atoms: C_39  and  N_42
   21  A    between atoms: C_45  and  O_53
                            x       y       z     vdW  Elec       q    Type
                         _______ _______ _______ _____ _____    ______ ____

>  <TORSDO>
F 21

$$$$
=
 OpenBabel11052410403D

 53 55  0  0  1  0  0  0  0  0999 V2000
  161.1120  210.5720  152.9550 C   0  0  2  0  0  3  0  0  0  0  0  0
  162.1530  209.1890  151.1210 C   0  0  0  0  0  0  0  0  0  0  0  0
  162.0510  210.1410  150.3040 O   0  0  0  0  0  0  0  0  0  0  0  0
  161.7820  209.3660  152.4880 N   0  0  0  0  0  2  0  0  0  0  0  0
  162.6610  207.8630  150.6650 C   0  0  0  0  0  2  0  0  0  0  0  0
  161.6960  207.2320  149.7720 N   0  0  0  0  0  0  0  0  0  0  0  0
  161.9450  207.1670  148.3610 C   0  0  0  0  0  0  0  0  0  0  0  0
  160.9180  206.7070  147.4730 N   0  0  0  0  0  2  0  0  0  0  0  0
  160.4550  206.7150  150.3300 C   0  0  0  0  0  1  0  0  0  0  0  0
  163.0660  207.5150  147.9030 O   0  0  0  0  0  0  0  0  0  0  0  0
  161.1180  206.6000  146.0350 C   0  0  0  0  0  2  0  0  0  0  0  0
  162.0370  205.4290  145.7050 C   0  0  0  0  0  2  0  0  0  0  0  0
  161.5690  204.7100  144.4460 C   0  0  0  0  0  2  0  0  0  0  0  0
  160.1270  204.5400  144.4680 N   0  0  0  0  0  1  0  0  0  0  0  0
  161.0720  210.5850  154.4770 C   0  0  0  0  0  2  0  0  0  0  0  0
  160.3920  209.2960  156.4800 N   0  0  0  0  0  2  0  0  0  0  0  0
  160.4090  209.3250  155.0230 C   0  0  2  0  0  0  0  0  0  0  0  0
  161.3130  208.1060  154.9140 C   0  0  1  0  0  3  0  0  0  0  0  0
  161.2660  208.1260  156.4410 C   0  0  2  0  0  3  0  0  0  0  0  0
  159.1250  209.1320  154.5000 O   0  0  0  0  0  1  0  0  0  0  0  0
  160.5950  207.0220  156.9720 O   0  0  0  0  0  1  0  0  0  0  0  0
  160.5610  204.8010  153.1440 N   0  0  0  0  0  2  0  0  0  0  0  0
  161.3050  205.9040  153.6640 C   0  0  0  0  0  0  0  0  0  0  0  0
  162.5580  205.9540  153.5180 O   0  0  0  0  0  0  0  0  0  0  0  0
  160.6170  206.9480  154.3530 N   0  0  0  0  0  2  0  0  0  0  0  0
  161.2110  203.6810  152.4870 C   0  0  0  0  0  2  0  0  0  0  0  0
  161.0820  203.8220  150.9810 C   0  0  0  0  0  2  0  0  0  0  0  0
  161.3210  202.5810  150.3550 O   0  0  0  0  0  0  0  0  0  0  0  0
  160.4530  202.4000  149.2450 C   0  0  2  0  0  0  0  0  0  0  0  0
  160.4090  203.6190  148.5630 O   0  0  0  0  0  1  0  0  0  0  0  0
  158.8670  200.7110  149.9770 O   0  0  0  0  0  1  0  0  0  0  0  0
  159.0150  202.0730  149.7070 C   0  0  0  0  0  2  0  0  0  0  0  0
  161.0090  201.3330  148.2700 C   0  0  2  0  0  3  0  0  0  0  0  0
  161.8640  200.4450  148.9320 O   0  0  0  0  0  1  0  0  0  0  0  0
  161.6920  201.9190  147.1960 O   0  0  0  0  0  0  0  0  0  0  0  0
  161.2240  199.5260  145.7680 O   0  0  0  0  0  1  0  0  0  0  0  0
  160.8130  201.8990  146.1640 N   0  0  0  0  0  2  0  0  0  0  0  0
  160.5480  200.6950  145.4470 C   0  0  0  0  0  0  0  0  0  0  0  0
  159.7050  200.6920  144.5180 O   0  0  0  0  0  0  0  0  0  0  0  0
  159.7010  210.6540  152.3790 C   0  0  0  0  0  2  0  0  0  0  0  0
  159.1800  211.9420  152.5210 O   0  0  0  0  0  0  0  0  0  0  0  0
  160.0620  212.7660  151.8240 C   0  0  0  0  0  2  0  0  0  0  0  0
  157.9480  213.7840  150.6000 C   0  0  0  0  0  0  0  0  0  0  0  0
  158.5690  214.1030  146.9130 S   0  0  0  0  0  0  0  0  0  0  0  0
  159.9150  213.5620  149.4360 C   0  0  0  0  0  0  0  0  0  0  0  0
  159.3740  213.4050  150.6610 C   0  0  0  0  0  0  0  0  0  0  0  0
  156.5780  214.3270  148.5180 N   0  0  0  0  0  0  0  0  0  0  0  0
  155.8900  214.4510  146.1150 C   0  0  0  0  0  1  0  0  0  0  0  0
  156.9050  214.3470  147.1950 C   0  0  0  0  0  0  0  0  0  0  0  0
  157.7150  214.2180  149.2410 C   0  0  0  0  0  0  0  0  0  0  0  0
  157.0940  213.6940  151.5220 O   0  0  0  0  0  0  0  0  0  0  0  0
  161.2830  213.1570  149.0220 C   0  0  0  0  0  1  0  0  0  0  0  0
  158.8700  214.0860  148.5620 C   0  0  0  0  0  0  0  0  0  0  0  0
  1 40  1  6  0  0  0
  1 15  1  0  0  0  0
  2  4  1  0  0  0  0
  3  2  2  0  0  0  0
  4  1  1  0  0  0  0
  5  2  1  0  0  0  0
  6  9  1  0  0  0  0
  6  5  1  0  0  0  0
  7  6  1  0  0  0  0
  8  7  1  0  0  0  0
 10  7  2  0  0  0  0
 11  8  1  0  0  0  0
 12 11  1  0  0  0  0
 13 14  1  0  0  0  0
 13 12  1  0  0  0  0
 15 17  1  0  0  0  0
 17 20  1  6  0  0  0
 17 16  1  0  0  0  0
 18 25  1  6  0  0  0
 18 17  1  0  0  0  0
 18 19  1  0  0  0  0
 19 16  1  0  0  0  0
 19 21  1  6  0  0  0
 22 23  1  0  0  0  0
 23 25  1  0  0  0  0
 24 23  2  0  0  0  0
 26 22  1  0  0  0  0
 27 26  1  0  0  0  0
 28 27  1  0  0  0  0
 29 30  1  6  0  0  0
 29 32  1  0  0  0  0
 29 28  1  0  0  0  0
 32 31  1  0  0  0  0
 33 34  1  1  0  0  0
 33 29  1  0  0  0  0
 35 33  1  0  0  0  0
 37 35  1  0  0  0  0
 38 36  1  0  0  0  0
 38 37  1  0  0  0  0
 39 38  2  0  0  0  0
 40 41  1  0  0  0  0
 42 41  1  0  0  0  0
 43 46  1  0  0  0  0
 43 51  2  0  0  0  0
 44 49  1  0  0  0  0
 44 53  1  0  0  0  0
 45 46  2  0  0  0  0
 46 42  1  0  0  0  0
 47 50  1  0  0  0  0
 48 49  1  0  0  0  0
 49 47  2  0  0  0  0
 50 43  1  0  0  0  0
 52 45  1  0  0  0  0
 53 50  2  0  0  0  0
 53 45  1  0  0  0  0
M  END
>  <MODEL>
7

>  <REMARK>
 VINA RESULT:      -3.8      4.042      8.284
  Name = 
  21 active torsions:
  status: ('A' for Active; 'I' for Inactive)
    1  A    between atoms: C_3  and  C_21
    2  A    between atoms: C_3  and  C_41
    3  A    between atoms: C_3  and  O_51
    4  A    between atoms: N_4  and  C_32
    5  A    between atoms: C_5  and  N_28
    6  A    between atoms: C_5  and  C_33
    7  A    between atoms: O_7  and  N_11
    8  A    between atoms: O_7  and  C_41
    9  A    between atoms: C_8  and  C_44
   10  A    between atoms: N_10  and  C_44
   11  A    between atoms: C_12  and  C_15
   12  A    between atoms: C_14  and  C_33
   13  A    between atoms: C_15  and  C_39
   14  A    between atoms: C_20  and  C_45
   15  A    between atoms: C_22  and  N_46
   16  A    between atoms: C_25  and  C_32
   17  A    between atoms: C_25  and  O_51
   18  A    between atoms: C_37  and  C_39
   19  A    between atoms: C_37  and  O_53
   20  A    between atoms: C_39  and  N_42
   21  A    between atoms: C_45  and  O_53
                            x       y       z     vdW  Elec       q    Type
                         _______ _______ _______ _____ _____    ______ ____

>  <TORSDO>
F 21

$$$$
=
 OpenBabel11052410403D

 53 55  0  0  1  0  0  0  0  0999 V2000
  161.8240  209.3510  148.8250 C   0  0  2  0  0  3  0  0  0  0  0  0
  162.4530  207.3170  147.4720 C   0  0  0  0  0  0  0  0  0  0  0  0
  163.0800  206.8250  148.4460 O   0  0  0  0  0  0  0  0  0  0  0  0
  161.7280  208.5380  147.6210 N   0  0  0  0  0  2  0  0  0  0  0  0
  162.4640  206.6270  146.1500 C   0  0  0  0  0  2  0  0  0  0  0  0
  161.3770  205.6580  146.0770 N   0  0  0  0  0  0  0  0  0  0  0  0
  161.6060  204.2810  146.4070 C   0  0  0  0  0  0  0  0  0  0  0  0
  160.5840  203.3060  146.1640 N   0  0  0  0  0  2  0  0  0  0  0  0
  160.0700  206.1000  145.6160 C   0  0  0  0  0  1  0  0  0  0  0  0
  162.7070  203.9290  146.9100 O   0  0  0  0  0  0  0  0  0  0  0  0
  160.7510  201.8990  146.4960 C   0  0  0  0  0  2  0  0  0  0  0  0
  160.4540  201.0210  145.2850 C   0  0  0  0  0  2  0  0  0  0  0  0
  160.8250  199.5700  145.5620 C   0  0  0  0  0  2  0  0  0  0  0  0
  161.5830  199.4690  146.7980 N   0  0  0  0  0  1  0  0  0  0  0  0
  162.9070  210.4070  148.6520 C   0  0  0  0  0  2  0  0  0  0  0  0
  161.3990  212.1590  149.5420 N   0  0  0  0  0  2  0  0  0  0  0  0
  162.3010  211.7920  148.4580 C   0  0  2  0  0  0  0  0  0  0  0  0
  161.1960  211.7960  147.4100 C   0  0  1  0  0  3  0  0  0  0  0  0
  160.2950  212.1720  148.5850 C   0  0  2  0  0  3  0  0  0  0  0  0
  163.2780  212.7750  148.2590 O   0  0  0  0  0  1  0  0  0  0  0  0
  159.7850  213.4690  148.4760 O   0  0  0  0  0  1  0  0  0  0  0  0
  160.9110  213.9740  144.2810 N   0  0  0  0  0  2  0  0  0  0  0  0
  160.7250  212.8690  145.1660 C   0  0  0  0  0  0  0  0  0  0  0  0
  160.0180  211.8830  144.8160 O   0  0  0  0  0  0  0  0  0  0  0  0
  161.3450  212.8910  146.4510 N   0  0  0  0  0  2  0  0  0  0  0  0
  160.2580  214.0360  142.9850 C   0  0  0  0  0  2  0  0  0  0  0  0
  161.2660  213.7490  141.8870 C   0  0  0  0  0  2  0  0  0  0  0  0
  161.1740  212.4000  141.4850 O   0  0  0  0  0  0  0  0  0  0  0  0
  162.0110  212.1500  140.3640 C   0  0  2  0  0  0  0  0  0  0  0  0
  162.6860  210.9540  140.6220 O   0  0  0  0  0  1  0  0  0  0  0  0
  164.0330  212.9070  139.2500 O   0  0  0  0  0  1  0  0  0  0  0  0
  163.0730  213.2600  140.2010 C   0  0  0  0  0  2  0  0  0  0  0  0
  161.1720  211.9510  139.0760 C   0  0  2  0  0  3  0  0  0  0  0  0
  160.2780  213.0110  138.8910 O   0  0  0  0  0  1  0  0  0  0  0  0
  160.4610  210.7440  139.1030 O   0  0  0  0  0  0  0  0  0  0  0  0
  157.7580  209.9320  139.2390 O   0  0  0  0  0  1  0  0  0  0  0  0
  159.6840  210.7660  137.9930 N   0  0  0  0  0  2  0  0  0  0  0  0
  158.3120  210.3810  138.0480 C   0  0  0  0  0  0  0  0  0  0  0  0
  157.6030  210.4430  137.0140 O   0  0  0  0  0  0  0  0  0  0  0  0
  162.1190  208.4720  150.0370 C   0  0  0  0  0  2  0  0  0  0  0  0
  161.5600  209.0180  151.1950 O   0  0  0  0  0  0  0  0  0  0  0  0
  160.5020  208.1690  151.5180 C   0  0  0  0  0  2  0  0  0  0  0  0
  160.4540  206.0010  150.0020 C   0  0  0  0  0  0  0  0  0  0  0  0
  161.5710  202.9910  151.9470 S   0  0  0  0  0  0  0  0  0  0  0  0
  161.4420  205.8960  152.0720 C   0  0  0  0  0  0  0  0  0  0  0  0
  160.8560  206.7510  151.2090 C   0  0  0  0  0  0  0  0  0  0  0  0
  160.5080  203.4730  149.6590 N   0  0  0  0  0  0  0  0  0  0  0  0
  160.6040  201.0260  150.1740 C   0  0  0  0  0  1  0  0  0  0  0  0
  160.8830  202.4530  150.4810 C   0  0  0  0  0  0  0  0  0  0  0  0
  160.8970  204.6420  150.2190 C   0  0  0  0  0  0  0  0  0  0  0  0
  159.8080  206.4370  149.0130 O   0  0  0  0  0  0  0  0  0  0  0  0
  161.8610  206.2040  153.4640 C   0  0  0  0  0  1  0  0  0  0  0  0
  161.4750  204.5840  151.4330 C   0  0  0  0  0  0  0  0  0  0  0  0
  1 15  1  6  0  0  0
  1 40  1  0  0  0  0
  2  4  1  0  0  0  0
  2  3  2  0  0  0  0
  4  1  1  0  0  0  0
  5  2  1  0  0  0  0
  6  5  1  0  0  0  0
  6  7  1  0  0  0  0
  7 10  2  0  0  0  0
  8  7  1  0  0  0  0
  8 11  1  0  0  0  0
  9  6  1  0  0  0  0
 12 13  1  0  0  0  0
 12 11  1  0  0  0  0
 13 14  1  0  0  0  0
 17 20  1  6  0  0  0
 17 15  1  0  0  0  0
 17 16  1  0  0  0  0
 18 25  1  6  0  0  0
 18 17  1  0  0  0  0
 18 19  1  0  0  0  0
 19 21  1  6  0  0  0
 19 16  1  0  0  0  0
 22 23  1  0  0  0  0
 23 25  1  0  0  0  0
 24 23  2  0  0  0  0
 26 22  1  0  0  0  0
 27 26  1  0  0  0  0
 28 27  1  0  0  0  0
 29 30  1  1  0  0  0
 29 28  1  0  0  0  0
 31 32  1  0  0  0  0
 32 29  1  0  0  0  0
 33 34  1  1  0  0  0
 33 35  1  0  0  0  0
 33 29  1  0  0  0  0
 37 38  1  0  0  0  0
 37 35  1  0  0  0  0
 38 36  1  0  0  0  0
 39 38  2  0  0  0  0
 40 41  1  0  0  0  0
 41 42  1  0  0  0  0
 43 50  1  0  0  0  0
 43 46  1  0  0  0  0
 45 52  1  0  0  0  0
 46 42  1  0  0  0  0
 46 45  2  0  0  0  0
 47 50  1  0  0  0  0
 47 49  2  0  0  0  0
 48 49  1  0  0  0  0
 49 44  1  0  0  0  0
 50 53  2  0  0  0  0
 51 43  2  0  0  0  0
 53 44  1  0  0  0  0
 53 45  1  0  0  0  0
M  END
>  <MODEL>
8

>  <REMARK>
 VINA RESULT:      -3.7      3.028      5.745
  Name = 
  21 active torsions:
  status: ('A' for Active; 'I' for Inactive)
    1  A    between atoms: C_3  and  C_21
    2  A    between atoms: C_3  and  C_41
    3  A    between atoms: C_3  and  O_51
    4  A    between atoms: N_4  and  C_32
    5  A    between atoms: C_5  and  N_28
    6  A    between atoms: C_5  and  C_33
    7  A    between atoms: O_7  and  N_11
    8  A    between atoms: O_7  and  C_41
    9  A    between atoms: C_8  and  C_44
   10  A    between atoms: N_10  and  C_44
   11  A    between atoms: C_12  and  C_15
   12  A    between atoms: C_14  and  C_33
   13  A    between atoms: C_15  and  C_39
   14  A    between atoms: C_20  and  C_45
   15  A    between atoms: C_22  and  N_46
   16  A    between atoms: C_25  and  C_32
   17  A    between atoms: C_25  and  O_51
   18  A    between atoms: C_37  and  C_39
   19  A    between atoms: C_37  and  O_53
   20  A    between atoms: C_39  and  N_42
   21  A    between atoms: C_45  and  O_53
                            x       y       z     vdW  Elec       q    Type
                         _______ _______ _______ _____ _____    ______ ____

>  <TORSDO>
F 21

$$$$
=
 OpenBabel11052410403D

 53 55  0  0  1  0  0  0  0  0999 V2000
  161.4300  210.9540  148.7720 C   0  0  2  0  0  3  0  0  0  0  0  0
  161.9740  208.5140  149.1040 C   0  0  0  0  0  0  0  0  0  0  0  0
  161.5500  208.5490  150.2880 O   0  0  0  0  0  0  0  0  0  0  0  0
  161.8630  209.6600  148.2610 N   0  0  0  0  0  2  0  0  0  0  0  0
  162.6010  207.2700  148.5710 C   0  0  0  0  0  2  0  0  0  0  0  0
  161.5720  206.3120  148.1850 N   0  0  0  0  0  0  0  0  0  0  0  0
  161.7910  205.4080  147.0930 C   0  0  0  0  0  0  0  0  0  0  0  0
  160.7150  204.5950  146.6080 N   0  0  0  0  0  2  0  0  0  0  0  0
  160.3000  206.3210  148.8930 C   0  0  0  0  0  1  0  0  0  0  0  0
  162.9310  205.3300  146.5590 O   0  0  0  0  0  0  0  0  0  0  0  0
  160.8830  203.6470  145.5170 C   0  0  0  0  0  2  0  0  0  0  0  0
  161.0490  202.2290  146.0560 C   0  0  0  0  0  2  0  0  0  0  0  0
  160.2020  201.2440  145.2620 C   0  0  0  0  0  2  0  0  0  0  0  0
  160.8000  199.9200  145.2970 N   0  0  0  0  0  1  0  0  0  0  0  0
  162.1980  212.0690  148.0760 C   0  0  0  0  0  2  0  0  0  0  0  0
  159.8840  212.9220  147.8400 N   0  0  0  0  0  2  0  0  0  0  0  0
  161.2530  213.0200  147.3500 C   0  0  2  0  0  0  0  0  0  0  0  0
  160.8910  212.5220  145.9570 C   0  0  1  0  0  3  0  0  0  0  0  0
  159.4760  212.4320  146.5250 C   0  0  2  0  0  3  0  0  0  0  0  0
  161.7060  214.3440  147.3820 O   0  0  0  0  0  1  0  0  0  0  0  0
  158.6020  213.3480  145.9350 O   0  0  0  0  0  1  0  0  0  0  0  0
  160.9400  214.3900  142.6220 N   0  0  0  0  0  2  0  0  0  0  0  0
  160.8020  213.3190  143.5560 C   0  0  0  0  0  0  0  0  0  0  0  0
  160.4920  212.1610  143.1580 O   0  0  0  0  0  0  0  0  0  0  0  0
  161.0180  213.5700  144.9440 N   0  0  0  0  0  2  0  0  0  0  0  0
  160.6760  214.2100  141.2050 C   0  0  0  0  0  2  0  0  0  0  0  0
  161.9740  214.3050  140.4230 C   0  0  0  0  0  2  0  0  0  0  0  0
  161.8650  213.5870  139.2130 O   0  0  0  0  0  0  0  0  0  0  0  0
  163.1240  213.0500  138.8320 C   0  0  2  0  0  0  0  0  0  0  0  0
  164.0740  213.5860  139.7050 O   0  0  0  0  0  1  0  0  0  0  0  0
  164.8390  213.9040  137.3370 O   0  0  0  0  0  1  0  0  0  0  0  0
  163.5080  213.4870  137.4000 C   0  0  0  0  0  2  0  0  0  0  0  0
  163.1460  211.5100  138.9970 C   0  0  2  0  0  3  0  0  0  0  0  0
  163.0210  210.8700  137.7590 O   0  0  0  0  0  1  0  0  0  0  0  0
  162.1280  211.0670  139.8520 O   0  0  0  0  0  0  0  0  0  0  0  0
  159.3420  211.2740  140.2750 O   0  0  0  0  0  1  0  0  0  0  0  0
  161.2630  210.3940  139.0530 N   0  0  0  0  0  2  0  0  0  0  0  0
  159.8540  210.5050  139.2390 C   0  0  0  0  0  0  0  0  0  0  0  0
  159.0720  209.9010  138.4650 O   0  0  0  0  0  0  0  0  0  0  0  0
  161.6330  211.0240  150.2820 C   0  0  0  0  0  2  0  0  0  0  0  0
  161.4180  212.3210  150.7540 O   0  0  0  0  0  0  0  0  0  0  0  0
  160.0350  212.4970  150.7050 C   0  0  0  0  0  2  0  0  0  0  0  0
  159.9900  212.0700  153.3160 C   0  0  0  0  0  0  0  0  0  0  0  0
  156.7480  213.2430  154.8000 S   0  0  0  0  0  0  0  0  0  0  0  0
  158.3340  213.3430  152.3620 C   0  0  0  0  0  0  0  0  0  0  0  0
  159.4850  212.6990  152.0790 C   0  0  0  0  0  0  0  0  0  0  0  0
  158.7940  211.8920  155.5630 N   0  0  0  0  0  0  0  0  0  0  0  0
  156.9550  211.8870  157.2610 C   0  0  0  0  0  1  0  0  0  0  0  0
  157.5630  212.3090  155.9720 C   0  0  0  0  0  0  0  0  0  0  0  0
  159.0550  212.4410  154.3550 C   0  0  0  0  0  0  0  0  0  0  0  0
  160.9920  211.3170  153.4350 O   0  0  0  0  0  0  0  0  0  0  0  0
  157.4230  213.9840  151.3790 C   0  0  0  0  0  1  0  0  0  0  0  0
  158.0860  213.1870  153.7920 C   0  0  0  0  0  0  0  0  0  0  0  0
  1 15  1  6  0  0  0
  1 40  1  0  0  0  0
  2  3  2  0  0  0  0
  4  1  1  0  0  0  0
  4  2  1  0  0  0  0
  5  2  1  0  0  0  0
  6  5  1  0  0  0  0
  6  9  1  0  0  0  0
  7  6  1  0  0  0  0
  8  7  1  0  0  0  0
 10  7  2  0  0  0  0
 11 12  1  0  0  0  0
 11  8  1  0  0  0  0
 13 14  1  0  0  0  0
 13 12  1  0  0  0  0
 17 20  1  6  0  0  0
 17 16  1  0  0  0  0
 17 15  1  0  0  0  0
 18 25  1  6  0  0  0
 18 19  1  0  0  0  0
 18 17  1  0  0  0  0
 19 21  1  6  0  0  0
 19 16  1  0  0  0  0
 22 23  1  0  0  0  0
 23 25  1  0  0  0  0
 24 23  2  0  0  0  0
 26 22  1  0  0  0  0
 27 26  1  0  0  0  0
 28 27  1  0  0  0  0
 29 33  1  0  0  0  0
 29 28  1  0  0  0  0
 29 30  1  1  0  0  0
 31 32  1  0  0  0  0
 32 29  1  0  0  0  0
 33 34  1  6  0  0  0
 33 35  1  0  0  0  0
 37 38  1  0  0  0  0
 37 35  1  0  0  0  0
 38 36  1  0  0  0  0
 39 38  2  0  0  0  0
 40 41  1  0  0  0  0
 42 41  1  0  0  0  0
 42 46  1  0  0  0  0
 43 51  2  0  0  0  0
 43 50  1  0  0  0  0
 44 49  1  0  0  0  0
 45 53  1  0  0  0  0
 46 45  2  0  0  0  0
 46 43  1  0  0  0  0
 47 49  2  0  0  0  0
 49 48  1  0  0  0  0
 50 47  1  0  0  0  0
 52 45  1  0  0  0  0
 53 50  2  0  0  0  0
 53 44  1  0  0  0  0
M  END
>  <MODEL>
9

>  <REMARK>
 VINA RESULT:      -3.5      2.679      5.220
  Name = 
  21 active torsions:
  status: ('A' for Active; 'I' for Inactive)
    1  A    between atoms: C_3  and  C_21
    2  A    between atoms: C_3  and  C_41
    3  A    between atoms: C_3  and  O_51
    4  A    between atoms: N_4  and  C_32
    5  A    between atoms: C_5  and  N_28
    6  A    between atoms: C_5  and  C_33
    7  A    between atoms: O_7  and  N_11
    8  A    between atoms: O_7  and  C_41
    9  A    between atoms: C_8  and  C_44
   10  A    between atoms: N_10  and  C_44
   11  A    between atoms: C_12  and  C_15
   12  A    between atoms: C_14  and  C_33
   13  A    between atoms: C_15  and  C_39
   14  A    between atoms: C_20  and  C_45
   15  A    between atoms: C_22  and  N_46
   16  A    between atoms: C_25  and  C_32
   17  A    between atoms: C_25  and  O_51
   18  A    between atoms: C_37  and  C_39
   19  A    between atoms: C_37  and  O_53
   20  A    between atoms: C_39  and  N_42
   21  A    between atoms: C_45  and  O_53
                            x       y       z     vdW  Elec       q    Type
                         _______ _______ _______ _____ _____    ______ ____

>  <TORSDO>
F 21

$$$$
