=
 OpenBabel11042422513D

 69 76  0  0  1  0  0  0  0  0999 V2000
  160.4060  213.1340  148.1480 C   0  0  0  0  0  3  0  0  0  0  0  0
  158.8630  212.8180  152.8850 C   0  0  0  0  0  0  0  0  0  0  0  0
  160.9190  212.5740  147.0450 C   0  0  0  0  0  0  0  0  0  0  0  0
  160.8340  211.5560  152.1830 N   0  0  0  0  0  0  0  0  0  0  0  0
  159.7490  212.4560  151.8850 C   0  0  0  0  0  0  0  0  0  0  0  0
  159.2190  212.4320  154.2210 C   0  0  1  0  0  3  0  0  0  0  0  0
  159.8190  213.0640  150.5250 C   0  0  0  0  0  0  0  0  0  0  0  0
  160.3590  212.4360  149.4510 C   0  0  0  0  0  0  0  0  0  0  0  0
  161.4440  211.1600  147.0740 C   0  0  0  0  0  2  0  0  0  0  0  0
  157.1030  213.4430  150.2940 C   0  0  0  0  0  2  0  0  0  0  0  0
  156.9230  213.7910  151.6890 N   0  0  0  0  0  0  0  0  0  0  0  0
  160.8020  210.9950  149.4830 C   0  0  0  0  0  2  0  0  0  0  0  0
  160.3490  211.5770  154.4760 N   0  0  0  0  0  0  0  0  0  0  0  0
  161.9180  210.7570  148.4710 C   0  0  0  0  0  2  0  0  0  0  0  0
  157.6230  213.5740  152.7700 C   0  0  0  0  0  0  0  0  0  0  0  0
  157.0220  214.0170  153.9050 N   0  0  0  0  0  2  0  0  0  0  0  0
  158.0440  214.4530  149.6760 C   0  0  0  0  0  2  0  0  0  0  0  0
  161.1200  211.1250  153.3650 C   0  0  0  0  0  0  0  0  0  0  0  0
  157.4570  213.7060  155.1410 C   0  0  0  0  0  3  0  0  0  0  0  0
  159.2820  214.3360  150.3490 O   0  0  0  0  0  0  0  0  0  0  0  0
  158.5220  212.9010  155.2880 N   0  0  0  0  0  0  0  0  0  0  0  0
  160.2470  212.7380  144.6300 N   0  0  0  0  0  2  0  0  0  0  0  0
  161.4190  214.4520  145.6870 O   0  0  0  0  0  0  0  0  0  0  0  0
  160.8810  213.3160  145.7740 C   0  0  0  0  0  0  0  0  0  0  0  0
  160.3210  213.3410  143.3650 N   0  0  0  0  0  2  0  0  0  0  0  0
  159.3180  213.1100  142.3710 C   0  0  0  0  0  0  0  0  0  0  0  0
  157.8070  212.6680  139.9090 C   0  0  0  0  0  3  0  0  0  0  0  0
  158.3060  211.6700  140.6460 C   0  0  0  0  0  3  0  0  0  0  0  0
  158.1800  214.4490  141.9500 S   0  0  0  0  0  0  0  0  0  0  0  0
  159.2170  211.9140  141.7790 C   0  0  0  0  0  3  0  0  0  0  0  0
  158.1870  214.0990  140.1510 C   0  0  1  0  0  3  0  0  0  0  0  0
  159.5420  214.3970  139.5160 C   0  0  0  0  0  2  0  0  0  0  0  0
  160.6570  214.3580  140.5530 C   0  0  0  0  0  2  0  0  0  0  0  0
  161.8410  213.5400  140.0530 C   0  0  1  0  0  3  0  0  0  0  0  0
  162.5420  211.2510  139.1570 C   0  0  1  0  0  3  0  0  0  0  0  0
  160.5970  210.7930  137.2150 O   0  0  0  0  0  0  0  0  0  0  0  0
  161.9860  210.4450  137.6780 S   0  0  0  0  0  0  0  0  0  0  0  0
  163.7780  213.5060  138.4960 C   0  0  0  0  0  2  0  0  0  0  0  0
  163.6790  211.9760  138.3920 C   0  0  2  0  0  3  0  0  0  0  0  0
  162.2930  208.9760  137.6190 O   0  0  0  0  0  0  0  0  0  0  0  0
  161.6060  214.2060  137.7430 O   0  0  0  0  0  1  0  0  0  0  0  0
  161.3980  212.1320  139.6800 C   0  0  0  0  0  2  0  0  0  0  0  0
  163.2550  211.4820  137.0110 C   0  0  0  0  0  2  0  0  0  0  0  0
  162.4740  214.2120  138.8420 C   0  0  1  0  0  3  0  0  0  0  0  0
  160.6430  211.1080  155.8350 C   0  0  0  0  0  2  0  0  0  0  0  0
  159.8960  209.8150  156.1820 C   0  0  1  0  0  3  0  0  0  0  0  0
  160.3980  207.5690  156.7560 C   0  0  0  0  0  2  0  0  0  0  0  0
  159.6630  209.0340  155.0410 O   0  0  0  0  0  0  0  0  0  0  0  0
  159.5490  207.7170  155.5110 C   0  0  0  0  0  2  0  0  0  0  0  0
  160.6360  208.9800  157.2050 C   0  0  0  0  0  2  0  0  0  0  0  0
  162.2210  210.1260  153.5300 C   0  0  0  0  0  2  0  0  0  0  0  0
  162.6340  209.5660  152.1800 C   0  0  0  0  0  2  0  0  0  0  0  0
  161.5910  208.6800  151.6890 N   0  0  0  0  0  2  0  0  0  0  0  0
  162.2550  207.5120  151.1300 C   0  0  1  0  0  3  0  0  0  0  0  0
  162.0940  206.3300  152.0740 C   0  0  0  0  0  1  0  0  0  0  0  0
  161.7280  207.2330  149.7490 C   0  0  0  0  0  0  0  0  0  0  0  0
  160.5730  207.5290  149.4900 O   0  0  0  0  0  0  0  0  0  0  0  0
  162.5630  206.5290  148.7120 C   0  0  0  0  0  2  0  0  0  0  0  0
  161.7750  205.5010  147.8950 C   0  0  1  0  0  3  0  0  0  0  0  0
  160.8470  204.6850  148.7860 C   0  0  0  0  0  2  0  0  0  0  0  0
  161.2480  203.2160  148.8040 C   0  0  0  0  0  2  0  0  0  0  0  0
  160.7230  203.4800  151.2220 O   0  0  0  0  0  1  0  0  0  0  0  0
  161.0210  202.6400  150.1560 C   0  0  0  0  0  0  0  0  0  0  0  0
  161.1010  201.3970  150.3410 O   0  0  0  0  0  0  0  0  0  0  0  0
  161.0400  206.1350  146.8840 O   0  0  0  0  0  0  0  0  0  0  0  0
  160.5560  203.8900  145.3180 O   0  0  0  0  0  1  0  0  0  0  0  0
  163.0920  204.9660  145.4510 O   0  0  0  0  0  1  0  0  0  0  0  0
  161.4400  205.3310  145.4400 P   0  0  0  0  0  0  0  0  0  0  0  0
  161.1410  206.2160  144.2470 O   0  0  0  0  0  0  0  0  0  0  0  0
  1  8  1  0  0  0  0
  3  9  1  0  0  0  0
  3  1  2  0  0  0  0
  4 18  2  0  0  0  0
  5  4  1  0  0  0  0
  5  2  2  0  0  0  0
  6  2  1  1  0  0  0
  6 13  1  0  0  0  0
  6 21  1  0  0  0  0
  7  5  1  0  0  0  0
  8 12  1  0  0  0  0
  8  7  2  0  0  0  0
  9 14  1  0  0  0  0
 10 11  1  0  0  0  0
 11 15  2  0  0  0  0
 13 45  1  0  0  0  0
 14 12  1  0  0  0  0
 15  2  1  0  0  0  0
 15 16  1  0  0  0  0
 16 19  1  0  0  0  0
 17 10  1  0  0  0  0
 17 20  1  0  0  0  0
 18 51  1  0  0  0  0
 18 13  1  0  0  0  0
 19 21  2  0  0  0  0
 20  7  1  0  0  0  0
 22 24  1  0  0  0  0
 23 24  2  0  0  0  0
 24  3  1  0  0  0  0
 25 22  1  0  0  0  0
 26 25  1  0  0  0  0
 27 31  1  0  0  0  0
 27 28  2  0  0  0  0
 28 30  1  0  0  0  0
 29 26  1  0  0  0  0
 30 26  2  0  0  0  0
 31 32  1  1  0  0  0
 31 29  1  0  0  0  0
 32 33  1  0  0  0  0
 34 33  1  6  0  0  0
 35 42  1  6  0  0  0
 36 37  2  0  0  0  0
 37 35  1  0  0  0  0
 38 44  1  0  0  0  0
 39 43  1  6  0  0  0
 39 38  1  0  0  0  0
 39 35  1  0  0  0  0
 40 37  2  0  0  0  0
 42 34  1  0  0  0  0
 43 37  1  0  0  0  0
 44 41  1  6  0  0  0
 44 34  1  0  0  0  0
 46 45  1  6  0  0  0
 46 50  1  0  0  0  0
 47 50  1  0  0  0  0
 48 49  1  0  0  0  0
 48 46  1  0  0  0  0
 49 47  1  0  0  0  0
 52 51  1  0  0  0  0
 53 52  1  0  0  0  0
 54 53  1  0  0  0  0
 54 55  1  1  0  0  0
 56 54  1  0  0  0  0
 57 56  2  0  0  0  0
 58 56  1  0  0  0  0
 59 58  1  1  0  0  0
 59 60  1  0  0  0  0
 60 61  1  0  0  0  0
 61 63  1  0  0  0  0
 63 64  2  0  0  0  0
 63 62  1  0  0  0  0
 65 59  1  0  0  0  0
 66 68  1  0  0  0  0
 68 67  1  0  0  0  0
 68 65  1  0  0  0  0
 69 68  2  0  0  0  0
M  END
>  <MODEL>
1

>  <REMARK>
 VINA RESULT:      -4.5      0.000      0.000
  Name = 
  20 active torsions:
  status: ('A' for Active; 'I' for Inactive)
    1  A    between atoms: N_2  and  C_38
    2  A    between atoms: N_2  and  C_66
    3  A    between atoms: C_3  and  C_43
    4  A    between atoms: C_4  and  N_20
    5  A    between atoms: C_6  and  C_63
    6  A    between atoms: C_14  and  C_60
    7  A    between atoms: C_19  and  C_43
    8  A    between atoms: C_19  and  C_67
    9  A    between atoms: N_20  and  N_39
   10  A    between atoms: C_22  and  C_48
   11  A    between atoms: C_22  and  C_64
   12  A    between atoms: C_31  and  C_38
   13  A    between atoms: C_31  and  C_65
   14  A    between atoms: N_33  and  C_60
   15  A    between atoms: C_42  and  C_57
   16  A    between atoms: C_42  and  C_66
   17  A    between atoms: O_45  and  P_52
   18  A    between atoms: O_45  and  C_55
   19  A    between atoms: C_55  and  C_64
   20  A    between atoms: C_55  and  C_65
                            x       y       z     vdW  Elec       q    Type
                         _______ _______ _______ _____ _____    ______ ____

>  <TORSDO>
F 20

$$$$
=
 OpenBabel11042422513D

 69 76  0  0  1  0  0  0  0  0999 V2000
  160.4770  213.1130  148.2210 C   0  0  0  0  0  3  0  0  0  0  0  0
  158.9550  212.7360  152.9600 C   0  0  0  0  0  0  0  0  0  0  0  0
  160.9720  212.5630  147.1050 C   0  0  0  0  0  0  0  0  0  0  0  0
  160.8960  211.4490  152.2230 N   0  0  0  0  0  0  0  0  0  0  0  0
  159.8270  212.3760  151.9490 C   0  0  0  0  0  0  0  0  0  0  0  0
  159.3100  212.3180  154.2870 C   0  0  1  0  0  3  0  0  0  0  0  0
  159.9020  213.0080  150.6000 C   0  0  0  0  0  0  0  0  0  0  0  0
  160.4230  212.3910  149.5110 C   0  0  0  0  0  0  0  0  0  0  0  0
  161.4690  211.1390  147.1030 C   0  0  0  0  0  2  0  0  0  0  0  0
  157.1920  213.4460  150.3930 C   0  0  0  0  0  2  0  0  0  0  0  0
  157.0270  213.7710  151.7950 N   0  0  0  0  0  0  0  0  0  0  0  0
  160.8370  210.9400  149.5130 C   0  0  0  0  0  2  0  0  0  0  0  0
  160.4240  211.4350  154.5180 N   0  0  0  0  0  0  0  0  0  0  0  0
  161.9420  210.6990  148.4900 C   0  0  0  0  0  2  0  0  0  0  0  0
  157.7290  213.5200  152.8670 C   0  0  0  0  0  0  0  0  0  0  0  0
  157.1440  213.9520  154.0140 N   0  0  0  0  0  2  0  0  0  0  0  0
  158.1500  214.4490  149.7880 C   0  0  0  0  0  2  0  0  0  0  0  0
  161.1800  210.9900  153.3950 C   0  0  0  0  0  0  0  0  0  0  0  0
  157.5790  213.6090  155.2420 C   0  0  0  0  0  3  0  0  0  0  0  0
  159.3890  214.2940  150.4520 O   0  0  0  0  0  0  0  0  0  0  0  0
  158.6280  212.7800  155.3660 N   0  0  0  0  0  0  0  0  0  0  0  0
  160.2750  212.7950  144.7030 N   0  0  0  0  0  0  0  0  0  0  0  0
  161.5150  214.4500  145.7750 O   0  0  0  0  0  0  0  0  0  0  0  0
  160.9410  213.3300  145.8480 C   0  0  0  0  0  0  0  0  0  0  0  0
  160.3510  213.4200  143.4480 N   0  0  0  0  0  0  0  0  0  0  0  0
  159.4260  213.1070  142.4030 C   0  0  0  0  0  0  0  0  0  0  0  0
  158.1100  212.3930  139.8930 C   0  0  0  0  0  3  0  0  0  0  0  0
  158.4590  211.4890  140.8150 C   0  0  0  0  0  3  0  0  0  0  0  0
  158.4430  214.4380  141.6780 S   0  0  0  0  0  0  0  0  0  0  0  0
  159.2820  211.8430  141.9850 C   0  0  0  0  0  3  0  0  0  0  0  0
  158.5820  213.8160  139.9600 C   0  0  1  0  0  3  0  0  0  0  0  0
  160.0080  213.9220  139.4270 C   0  0  0  0  0  2  0  0  0  0  0  0
  160.9770  213.1190  140.2850 C   0  0  0  0  0  2  0  0  0  0  0  0
  161.8540  212.2180  139.4230 C   0  0  1  0  0  3  0  0  0  0  0  0
  162.5940  209.8010  139.0460 C   0  0  1  0  0  3  0  0  0  0  0  0
  160.1520  208.4590  139.0760 O   0  0  0  0  0  0  0  0  0  0  0  0
  161.5840  208.4090  138.6140 S   0  0  0  0  0  0  0  0  0  0  0  0
  162.4650  211.5980  137.0960 C   0  0  0  0  0  2  0  0  0  0  0  0
  162.8060  210.1710  137.5560 C   0  0  2  0  0  3  0  0  0  0  0  0
  162.2420  207.0750  138.8260 O   0  0  0  0  0  0  0  0  0  0  0  0
  160.1620  211.8030  137.7490 O   0  0  0  0  0  1  0  0  0  0  0  0
  161.7420  210.7700  139.8790 C   0  0  0  0  0  2  0  0  0  0  0  0
  161.8550  209.1080  137.0120 C   0  0  0  0  0  2  0  0  0  0  0  0
  161.4440  212.3250  137.9600 C   0  0  1  0  0  3  0  0  0  0  0  0
  160.7160  210.9350  155.8660 C   0  0  0  0  0  2  0  0  0  0  0  0
  160.9080  209.4140  155.8970 C   0  0  1  0  0  3  0  0  0  0  0  0
  159.8310  207.5020  156.7970 C   0  0  0  0  0  2  0  0  0  0  0  0
  161.6470  209.0130  157.0200 O   0  0  0  0  0  0  0  0  0  0  0  0
  161.2610  207.6860  157.2610 C   0  0  0  0  0  2  0  0  0  0  0  0
  159.5920  208.6670  155.8830 C   0  0  0  0  0  2  0  0  0  0  0  0
  162.2620  209.9650  153.5340 C   0  0  0  0  0  2  0  0  0  0  0  0
  162.6480  209.4170  152.1720 C   0  0  0  0  0  2  0  0  0  0  0  0
  161.5620  208.5970  151.6580 N   0  0  0  0  0  2  0  0  0  0  0  0
  162.1290  207.2960  151.3350 C   0  0  1  0  0  3  0  0  0  0  0  0
  161.7470  206.2890  152.4090 C   0  0  0  0  0  1  0  0  0  0  0  0
  161.6940  206.8750  149.9580 C   0  0  0  0  0  0  0  0  0  0  0  0
  160.6490  207.3180  149.5100 O   0  0  0  0  0  0  0  0  0  0  0  0
  162.4730  205.8640  149.1580 C   0  0  0  0  0  2  0  0  0  0  0  0
  161.6120  204.7140  148.6310 C   0  0  1  0  0  3  0  0  0  0  0  0
  161.6340  204.6640  147.1080 C   0  0  0  0  0  2  0  0  0  0  0  0
  161.7600  203.2330  146.6030 C   0  0  0  0  0  2  0  0  0  0  0  0
  160.4240  204.0280  144.6610 O   0  0  0  0  0  0  0  0  0  0  0  0
  160.7850  202.9870  145.5070 C   0  0  0  0  0  0  0  0  0  0  0  0
  160.2820  201.8450  145.3460 O   0  0  0  0  0  1  0  0  0  0  0  0
  162.0460  203.4910  149.1600 O   0  0  0  0  0  0  0  0  0  0  0  0
  161.5640  203.4610  151.8970 O   0  0  0  0  0  1  0  0  0  0  0  0
  160.6190  201.4190  150.3020 O   0  0  0  0  0  1  0  0  0  0  0  0
  160.9270  203.0820  150.3730 P   0  0  0  0  0  0  0  0  0  0  0  0
  159.6270  203.8300  150.1630 O   0  0  0  0  0  0  0  0  0  0  0  0
  1  8  1  0  0  0  0
  3  1  2  0  0  0  0
  4 18  2  0  0  0  0
  5  4  1  0  0  0  0
  5  2  2  0  0  0  0
  6  2  1  1  0  0  0
  6 13  1  0  0  0  0
  6 21  1  0  0  0  0
  7  5  1  0  0  0  0
  8 12  1  0  0  0  0
  8  7  2  0  0  0  0
  9  3  1  0  0  0  0
  9 14  1  0  0  0  0
 10 11  1  0  0  0  0
 11 15  2  0  0  0  0
 13 45  1  0  0  0  0
 14 12  1  0  0  0  0
 15  2  1  0  0  0  0
 15 16  1  0  0  0  0
 16 19  1  0  0  0  0
 17 10  1  0  0  0  0
 17 20  1  0  0  0  0
 18 51  1  0  0  0  0
 18 13  1  0  0  0  0
 19 21  2  0  0  0  0
 20  7  1  0  0  0  0
 22 24  1  0  0  0  0
 23 24  2  0  0  0  0
 24  3  1  0  0  0  0
 25 22  2  0  0  0  0
 26 25  1  0  0  0  0
 27 31  1  0  0  0  0
 27 28  2  0  0  0  0
 28 30  1  0  0  0  0
 29 26  1  0  0  0  0
 30 26  2  0  0  0  0
 31 32  1  1  0  0  0
 31 29  1  0  0  0  0
 32 33  1  0  0  0  0
 34 42  1  0  0  0  0
 34 33  1  1  0  0  0
 35 42  1  1  0  0  0
 37 40  2  0  0  0  0
 37 35  1  0  0  0  0
 37 36  2  0  0  0  0
 38 39  1  0  0  0  0
 38 44  1  0  0  0  0
 39 43  1  6  0  0  0
 39 35  1  0  0  0  0
 43 37  1  0  0  0  0
 44 41  1  1  0  0  0
 44 34  1  0  0  0  0
 46 45  1  1  0  0  0
 46 48  1  0  0  0  0
 47 49  1  0  0  0  0
 48 49  1  0  0  0  0
 50 46  1  0  0  0  0
 50 47  1  0  0  0  0
 52 51  1  0  0  0  0
 53 52  1  0  0  0  0
 54 53  1  0  0  0  0
 54 55  1  1  0  0  0
 56 54  1  0  0  0  0
 57 56  2  0  0  0  0
 58 56  1  0  0  0  0
 59 60  1  6  0  0  0
 59 58  1  0  0  0  0
 59 65  1  0  0  0  0
 61 60  1  0  0  0  0
 62 63  2  0  0  0  0
 63 61  1  0  0  0  0
 64 63  1  0  0  0  0
 65 68  1  0  0  0  0
 67 68  1  0  0  0  0
 68 66  1  0  0  0  0
 69 68  2  0  0  0  0
M  END
>  <MODEL>
2

>  <REMARK>
 VINA RESULT:      -3.4      1.316      2.268
  Name = 
  20 active torsions:
  status: ('A' for Active; 'I' for Inactive)
    1  A    between atoms: N_2  and  C_38
    2  A    between atoms: N_2  and  C_66
    3  A    between atoms: C_3  and  C_43
    4  A    between atoms: C_4  and  N_20
    5  A    between atoms: C_6  and  C_63
    6  A    between atoms: C_14  and  C_60
    7  A    between atoms: C_19  and  C_43
    8  A    between atoms: C_19  and  C_67
    9  A    between atoms: N_20  and  N_39
   10  A    between atoms: C_22  and  C_48
   11  A    between atoms: C_22  and  C_64
   12  A    between atoms: C_31  and  C_38
   13  A    between atoms: C_31  and  C_65
   14  A    between atoms: N_33  and  C_60
   15  A    between atoms: C_42  and  C_57
   16  A    between atoms: C_42  and  C_66
   17  A    between atoms: O_45  and  P_52
   18  A    between atoms: O_45  and  C_55
   19  A    between atoms: C_55  and  C_64
   20  A    between atoms: C_55  and  C_65
                            x       y       z     vdW  Elec       q    Type
                         _______ _______ _______ _____ _____    ______ ____

>  <TORSDO>
F 20

$$$$
