=
 OpenBabel11052411113D

 44 49  0  0  1  0  0  0  0  0999 V2000
  161.6750  210.1020  150.6490 N   0  0  0  0  0  0  0  0  0  0  0  0
  161.3920  211.3920  147.3680 C   0  0  0  0  0  3  0  0  0  0  0  0
  160.6000  213.3080  149.6320 C   0  0  0  0  0  3  0  0  0  0  0  0
  161.4550  212.2570  149.7260 C   0  0  0  0  0  0  0  0  0  0  0  0
  162.3530  211.1970  149.9500 C   0  0  2  0  0  3  0  0  0  0  0  0
  159.2280  214.4070  148.0120 F   0  0  0  0  0  0  0  0  0  0  0  0
  160.1050  213.4110  148.2840 C   0  0  0  0  0  0  0  0  0  0  0  0
  160.4880  212.5060  147.1890 C   0  0  0  0  0  0  0  0  0  0  0  0
  161.8300  211.3490  148.6530 C   0  0  0  0  0  0  0  0  0  0  0  0
  159.9010  212.7330  145.9360 O   0  0  0  0  0  0  0  0  0  0  0  0
  162.6490  212.8970  143.2090 C   0  0  0  0  0  2  0  0  0  0  0  0
  162.3020  214.1720  145.1980 O   0  0  0  0  0  0  0  0  0  0  0  0
  161.8520  213.2860  144.4220 C   0  0  0  0  0  0  0  0  0  0  0  0
  160.5640  211.8160  142.3840 C   0  0  0  0  0  3  0  0  0  0  0  0
  161.7920  212.2780  142.1350 C   0  0  0  0  0  3  0  0  0  0  0  0
  159.9530  211.9450  143.7200 C   0  0  0  0  0  3  0  0  0  0  0  0
  160.5550  212.6230  144.7010 C   0  0  0  0  0  0  0  0  0  0  0  0
  161.8190  208.8460  149.8970 C   0  0  0  0  0  2  0  0  0  0  0  0
  161.1060  207.6630  150.5480 C   0  0  0  0  0  2  0  0  0  0  0  0
  161.6460  206.3700  149.9680 C   0  0  0  0  0  2  0  0  0  0  0  0
  160.2480  202.7980  150.0820 C   0  0  1  0  0  3  0  0  0  0  0  0
  161.7220  204.6560  151.8220 C   0  0  1  0  0  3  0  0  0  0  0  0
  161.0560  202.3020  151.2790 C   0  0  0  0  0  2  0  0  0  0  0  0
  161.0910  203.3730  152.3600 C   0  0  0  0  0  2  0  0  0  0  0  0
  160.8870  204.0670  149.5230 C   0  0  0  0  0  2  0  0  0  0  0  0
  160.9550  205.1630  150.5870 C   0  0  2  0  0  3  0  0  0  0  0  0
  161.7130  205.6160  152.8340 O   0  0  0  0  0  1  0  0  0  0  0  0
  160.2300  201.7350  148.9990 C   0  0  0  0  0  2  0  0  0  0  0  0
  161.2990  201.9750  148.0470 N   0  0  0  0  0  2  0  0  0  0  0  0
  160.7480  201.7210  146.7250 C   0  0  0  0  0  2  0  0  0  0  0  0
  161.7450  203.9810  146.4660 C   0  0  0  0  0  2  0  0  0  0  0  0
  161.3340  205.1470  145.6920 N   0  0  0  0  0  0  0  0  0  0  0  0
  160.5820  204.6540  144.5430 C   0  0  0  0  0  2  0  0  0  0  0  0
  162.5440  205.7600  145.1720 C   0  0  0  0  0  1  0  0  0  0  0  0
  160.2030  203.2200  144.8180 C   0  0  0  0  0  2  0  0  0  0  0  0
  161.2870  202.7380  145.7380 C   0  0  2  0  0  3  0  0  0  0  0  0
  162.2920  209.9410  151.9630 C   0  0  0  0  0  2  0  0  0  0  0  0
  158.6700  211.1640  156.2260 C   0  0  0  0  0  1  0  0  0  0  0  0
  161.1170  209.2740  154.0010 C   0  0  0  0  0  3  0  0  0  0  0  0
  160.0690  209.4310  155.0710 C   0  0  0  0  0  2  0  0  0  0  0  0
  161.2840  210.1800  153.0350 C   0  0  0  0  0  0  0  0  0  0  0  0
  159.6420  211.6900  154.0080 C   0  0  0  0  0  3  0  0  0  0  0  0
  159.5240  210.7910  155.1170 N   0  0  0  0  0  0  0  0  0  0  0  0
  160.4750  211.4110  153.0060 C   0  0  0  0  0  3  0  0  0  0  0  0
  1 37  1  0  0  0  0
  2  9  1  0  0  0  0
  3  4  1  0  0  0  0
  4  5  1  0  0  0  0
  5  1  1  1  0  0  0
  6  7  1  0  0  0  0
  7  3  2  0  0  0  0
  8  2  2  0  0  0  0
  8  7  1  0  0  0  0
  9  4  2  0  0  0  0
  9  5  1  0  0  0  0
 10  8  1  0  0  0  0
 11 13  1  0  0  0  0
 13 17  1  0  0  0  0
 13 12  2  0  0  0  0
 14 16  1  0  0  0  0
 15 14  2  0  0  0  0
 15 11  1  0  0  0  0
 16 17  2  0  0  0  0
 17 10  1  0  0  0  0
 18 19  1  0  0  0  0
 18  1  1  0  0  0  0
 20 19  1  0  0  0  0
 21 28  1  6  0  0  0
 21 23  1  0  0  0  0
 22 24  1  0  0  0  0
 22 27  1  1  0  0  0
 23 24  1  0  0  0  0
 25 21  1  0  0  0  0
 25 26  1  0  0  0  0
 26 20  1  6  0  0  0
 26 22  1  0  0  0  0
 29 28  1  0  0  0  0
 30 29  1  0  0  0  0
 32 31  1  0  0  0  0
 33 35  1  0  0  0  0
 33 32  1  0  0  0  0
 34 32  1  0  0  0  0
 35 36  1  0  0  0  0
 36 31  1  0  0  0  0
 36 30  1  1  0  0  0
 37 41  1  0  0  0  0
 39 40  1  0  0  0  0
 40 43  1  0  0  0  0
 41 39  2  0  0  0  0
 42 43  1  0  0  0  0
 43 38  1  0  0  0  0
 44 41  1  0  0  0  0
 44 42  2  0  0  0  0
M  END
>  <MODEL>
1

>  <REMARK>
 VINA RESULT:      -8.2      0.000      0.000
  Name = 
  13 active torsions:
  status: ('A' for Active; 'I' for Inactive)
    1  A    between atoms: C_6  and  C_9
    2  A    between atoms: O_7  and  C_38
    3  A    between atoms: O_7  and  C_39
    4  A    between atoms: N_8  and  C_9
    5  A    between atoms: N_8  and  C_27
    6  A    between atoms: C_15  and  C_33
    7  A    between atoms: C_16  and  C_30
    8  A    between atoms: C_16  and  N_41
    9  A    between atoms: C_21  and  N_41
   10  A    between atoms: C_24  and  C_30
   11  A    between atoms: C_24  and  C_37
   12  A    between atoms: C_27  and  C_43
   13  A    between atoms: C_33  and  N_41
                            x       y       z     vdW  Elec       q    Type
                         _______ _______ _______ _____ _____    ______ ____

>  <TORSDO>
F 13

$$$$
=
 OpenBabel11052411113D

 44 49  0  0  1  0  0  0  0  0999 V2000
  161.8790  207.8250  149.1510 N   0  0  0  0  0  0  0  0  0  0  0  0
  161.2490  208.7810  152.4970 C   0  0  0  0  0  3  0  0  0  0  0  0
  162.1860  205.8860  152.0860 C   0  0  0  0  0  3  0  0  0  0  0  0
  162.4280  206.9380  151.2620 C   0  0  0  0  0  0  0  0  0  0  0  0
  162.7410  207.9450  150.3290 C   0  0  2  0  0  3  0  0  0  0  0  0
  161.0720  205.3980  154.1440 F   0  0  0  0  0  0  0  0  0  0  0  0
  161.4130  206.3260  153.2180 C   0  0  0  0  0  0  0  0  0  0  0  0
  160.9700  207.7130  153.4300 C   0  0  0  0  0  0  0  0  0  0  0  0
  161.9840  208.3100  151.4570 C   0  0  0  0  0  0  0  0  0  0  0  0
  160.2070  207.9720  154.5790 O   0  0  0  0  0  0  0  0  0  0  0  0
  161.7920  210.4620  157.0900 C   0  0  0  0  0  2  0  0  0  0  0  0
  162.1720  208.1370  156.7000 O   0  0  0  0  0  0  0  0  0  0  0  0
  161.4800  209.1530  156.4200 C   0  0  0  0  0  0  0  0  0  0  0  0
  159.5580  211.2180  156.2930 C   0  0  0  0  0  3  0  0  0  0  0  0
  160.6120  211.3990  157.0940 C   0  0  0  0  0  3  0  0  0  0  0  0
  159.4670  210.0490  155.4000 C   0  0  0  0  0  3  0  0  0  0  0  0
  160.3760  209.0700  155.4340 C   0  0  0  0  0  0  0  0  0  0  0  0
  161.2760  209.1260  148.8220 C   0  0  0  0  0  2  0  0  0  0  0  0
  162.3040  210.2340  148.6030 C   0  0  0  0  0  2  0  0  0  0  0  0
  161.9540  211.4240  149.4750 C   0  0  0  0  0  2  0  0  0  0  0  0
  162.3270  213.6290  146.3580 C   0  0  1  0  0  3  0  0  0  0  0  0
  160.3620  213.1180  148.4860 C   0  0  1  0  0  3  0  0  0  0  0  0
  160.8540  213.9970  146.1920 C   0  0  0  0  0  2  0  0  0  0  0  0
  160.2450  214.3190  147.5490 C   0  0  0  0  0  2  0  0  0  0  0  0
  162.4510  212.4150  147.2730 C   0  0  0  0  0  2  0  0  0  0  0  0
  161.8340  212.6940  148.6440 C   0  0  2  0  0  3  0  0  0  0  0  0
  159.8150  213.4620  149.7230 O   0  0  0  0  0  1  0  0  0  0  0  0
  162.9270  213.2920  145.0050 C   0  0  0  0  0  2  0  0  0  0  0  0
  161.8760  212.9430  144.0670 N   0  0  0  0  0  2  0  0  0  0  0  0
  162.3910  213.2250  142.7370 C   0  0  0  0  0  2  0  0  0  0  0  0
  162.4500  212.3930  140.3970 C   0  0  0  0  0  2  0  0  0  0  0  0
  161.4390  211.7530  139.5620 N   0  0  0  0  0  0  0  0  0  0  0  0
  160.5260  211.0510  140.4580 C   0  0  0  0  0  2  0  0  0  0  0  0
  162.1180  210.7400  138.7730 C   0  0  0  0  0  1  0  0  0  0  0  0
  160.7510  211.5770  141.8530 C   0  0  0  0  0  2  0  0  0  0  0  0
  162.1850  212.0210  141.8380 C   0  0  2  0  0  3  0  0  0  0  0  0
  162.6960  207.3830  148.0230 C   0  0  0  0  0  2  0  0  0  0  0  0
  160.9740  202.2720  146.1010 C   0  0  0  0  0  1  0  0  0  0  0  0
  162.2170  205.8710  146.1620 C   0  0  0  0  0  3  0  0  0  0  0  0
  161.6350  204.6270  145.5450 C   0  0  0  0  0  2  0  0  0  0  0  0
  162.1630  206.1030  147.4750 C   0  0  0  0  0  0  0  0  0  0  0  0
  161.1820  203.9240  147.9360 C   0  0  0  0  0  3  0  0  0  0  0  0
  161.3320  203.6020  146.5480 N   0  0  0  0  0  0  0  0  0  0  0  0
  161.5700  205.1140  148.3920 C   0  0  0  0  0  3  0  0  0  0  0  0
  2  8  1  0  0  0  0
  3  7  1  0  0  0  0
  4  9  1  0  0  0  0
  4  3  2  0  0  0  0
  5  1  1  6  0  0  0
  5  4  1  0  0  0  0
  5  9  1  0  0  0  0
  7  8  2  0  0  0  0
  7  6  1  0  0  0  0
  8 10  1  0  0  0  0
  9  2  2  0  0  0  0
 10 17  1  0  0  0  0
 11 15  1  0  0  0  0
 13 12  2  0  0  0  0
 13 11  1  0  0  0  0
 14 15  2  0  0  0  0
 16 17  2  0  0  0  0
 16 14  1  0  0  0  0
 17 13  1  0  0  0  0
 18  1  1  0  0  0  0
 19 18  1  0  0  0  0
 19 20  1  0  0  0  0
 21 28  1  6  0  0  0
 21 25  1  0  0  0  0
 22 26  1  0  0  0  0
 22 27  1  1  0  0  0
 23 21  1  0  0  0  0
 23 24  1  0  0  0  0
 24 22  1  0  0  0  0
 25 26  1  0  0  0  0
 26 20  1  1  0  0  0
 29 28  1  0  0  0  0
 30 29  1  0  0  0  0
 31 36  1  0  0  0  0
 32 31  1  0  0  0  0
 32 33  1  0  0  0  0
 33 35  1  0  0  0  0
 34 32  1  0  0  0  0
 36 35  1  0  0  0  0
 36 30  1  1  0  0  0
 37  1  1  0  0  0  0
 38 43  1  0  0  0  0
 39 41  2  0  0  0  0
 40 39  1  0  0  0  0
 40 43  1  0  0  0  0
 41 37  1  0  0  0  0
 41 44  1  0  0  0  0
 42 44  2  0  0  0  0
 43 42  1  0  0  0  0
M  END
>  <MODEL>
2

>  <REMARK>
 VINA RESULT:      -7.9      3.050      9.764
  Name = 
  13 active torsions:
  status: ('A' for Active; 'I' for Inactive)
    1  A    between atoms: C_6  and  C_9
    2  A    between atoms: O_7  and  C_38
    3  A    between atoms: O_7  and  C_39
    4  A    between atoms: N_8  and  C_9
    5  A    between atoms: N_8  and  C_27
    6  A    between atoms: C_15  and  C_33
    7  A    between atoms: C_16  and  C_30
    8  A    between atoms: C_16  and  N_41
    9  A    between atoms: C_21  and  N_41
   10  A    between atoms: C_24  and  C_30
   11  A    between atoms: C_24  and  C_37
   12  A    between atoms: C_27  and  C_43
   13  A    between atoms: C_33  and  N_41
                            x       y       z     vdW  Elec       q    Type
                         _______ _______ _______ _____ _____    ______ ____

>  <TORSDO>
F 13

$$$$
=
 OpenBabel11052411113D

 44 49  0  0  1  0  0  0  0  0999 V2000
  161.8150  207.4550  149.3410 N   0  0  0  0  0  0  0  0  0  0  0  0
  161.9010  209.2620  152.3800 C   0  0  0  0  0  3  0  0  0  0  0  0
  161.1820  206.2860  152.6120 C   0  0  0  0  0  3  0  0  0  0  0  0
  161.9040  206.8680  151.6200 C   0  0  0  0  0  0  0  0  0  0  0  0
  162.6580  207.3520  150.5350 C   0  0  2  0  0  3  0  0  0  0  0  0
  160.0560  206.8760  154.6370 F   0  0  0  0  0  0  0  0  0  0  0  0
  160.7930  207.2830  153.5760 C   0  0  0  0  0  0  0  0  0  0  0  0
  161.1440  208.7090  153.4800 C   0  0  0  0  0  0  0  0  0  0  0  0
  162.2440  208.2780  151.5100 C   0  0  0  0  0  0  0  0  0  0  0  0
  160.6710  209.5530  154.4960 O   0  0  0  0  0  0  0  0  0  0  0  0
  159.2230  213.1120  155.0000 C   0  0  0  0  0  2  0  0  0  0  0  0
  160.0760  211.5060  156.5490 O   0  0  0  0  0  0  0  0  0  0  0  0
  159.7620  211.7540  155.3530 C   0  0  0  0  0  0  0  0  0  0  0  0
  158.4710  212.0810  152.8630 C   0  0  0  0  0  3  0  0  0  0  0  0
  158.4100  213.0930  153.7320 C   0  0  0  0  0  3  0  0  0  0  0  0
  159.2980  210.8900  153.1310 C   0  0  0  0  0  3  0  0  0  0  0  0
  159.9290  210.7260  154.2970 C   0  0  0  0  0  0  0  0  0  0  0  0
  161.3100  208.8290  149.1870 C   0  0  0  0  0  2  0  0  0  0  0  0
  162.2710  209.7490  148.4380 C   0  0  0  0  0  2  0  0  0  0  0  0
  161.9780  211.1900  148.8080 C   0  0  0  0  0  2  0  0  0  0  0  0
  160.4720  213.0160  145.7880 C   0  0  1  0  0  3  0  0  0  0  0  0
  162.4310  213.5140  147.9260 C   0  0  1  0  0  3  0  0  0  0  0  0
  160.8850  214.4330  146.1820 C   0  0  0  0  0  2  0  0  0  0  0  0
  162.3130  214.4290  146.7090 C   0  0  0  0  0  2  0  0  0  0  0  0
  160.5640  212.1000  147.0050 C   0  0  0  0  0  2  0  0  0  0  0  0
  161.9830  212.0830  147.5750 C   0  0  2  0  0  3  0  0  0  0  0  0
  163.7560  213.5200  148.3620 O   0  0  0  0  0  1  0  0  0  0  0  0
  159.0430  213.0210  145.2790 C   0  0  0  0  0  2  0  0  0  0  0  0
  159.0280  213.1530  143.8340 N   0  0  0  0  0  2  0  0  0  0  0  0
  159.7300  211.9960  143.3000 C   0  0  0  0  0  2  0  0  0  0  0  0
  160.1550  211.4510  140.9150 C   0  0  0  0  0  2  0  0  0  0  0  0
  161.3800  211.1460  140.1860 N   0  0  0  0  0  0  0  0  0  0  0  0
  162.4710  211.8190  140.8830 C   0  0  0  0  0  2  0  0  0  0  0  0
  161.2660  211.7710  138.8800 C   0  0  0  0  0  1  0  0  0  0  0  0
  161.9730  212.2150  142.2500 C   0  0  0  0  0  2  0  0  0  0  0  0
  160.4950  212.3880  142.0520 C   0  0  2  0  0  3  0  0  0  0  0  0
  162.6230  207.1150  148.1730 C   0  0  0  0  0  2  0  0  0  0  0  0
  160.9340  202.1730  145.8240 C   0  0  0  0  0  1  0  0  0  0  0  0
  162.0510  205.7950  146.1950 C   0  0  0  0  0  3  0  0  0  0  0  0
  161.4670  204.6010  145.4890 C   0  0  0  0  0  2  0  0  0  0  0  0
  162.0940  205.8790  147.5270 C   0  0  0  0  0  0  0  0  0  0  0  0
  161.2300  203.6230  147.8120 C   0  0  0  0  0  3  0  0  0  0  0  0
  161.2800  203.4610  146.3900 N   0  0  0  0  0  0  0  0  0  0  0  0
  161.6110  204.7710  148.3690 C   0  0  0  0  0  3  0  0  0  0  0  0
  2  8  1  0  0  0  0
  3  7  1  0  0  0  0
  4  3  2  0  0  0  0
  5  1  1  6  0  0  0
  5  9  1  0  0  0  0
  5  4  1  0  0  0  0
  7  6  1  0  0  0  0
  8  7  2  0  0  0  0
  8 10  1  0  0  0  0
  9  4  1  0  0  0  0
  9  2  2  0  0  0  0
 11 13  1  0  0  0  0
 13 12  2  0  0  0  0
 14 16  1  0  0  0  0
 14 15  2  0  0  0  0
 15 11  1  0  0  0  0
 16 17  2  0  0  0  0
 17 10  1  0  0  0  0
 17 13  1  0  0  0  0
 18  1  1  0  0  0  0
 19 20  1  0  0  0  0
 19 18  1  0  0  0  0
 21 28  1  1  0  0  0
 21 23  1  0  0  0  0
 21 25  1  0  0  0  0
 22 27  1  6  0  0  0
 23 24  1  0  0  0  0
 24 22  1  0  0  0  0
 25 26  1  0  0  0  0
 26 22  1  0  0  0  0
 26 20  1  1  0  0  0
 29 28  1  0  0  0  0
 30 29  1  0  0  0  0
 31 36  1  0  0  0  0
 32 33  1  0  0  0  0
 32 31  1  0  0  0  0
 33 35  1  0  0  0  0
 34 32  1  0  0  0  0
 36 35  1  0  0  0  0
 36 30  1  1  0  0  0
 37  1  1  0  0  0  0
 38 43  1  0  0  0  0
 39 41  2  0  0  0  0
 40 39  1  0  0  0  0
 40 43  1  0  0  0  0
 41 37  1  0  0  0  0
 41 44  1  0  0  0  0
 42 44  2  0  0  0  0
 43 42  1  0  0  0  0
M  END
>  <MODEL>
3

>  <REMARK>
 VINA RESULT:      -7.5      3.074      9.295
  Name = 
  13 active torsions:
  status: ('A' for Active; 'I' for Inactive)
    1  A    between atoms: C_6  and  C_9
    2  A    between atoms: O_7  and  C_38
    3  A    between atoms: O_7  and  C_39
    4  A    between atoms: N_8  and  C_9
    5  A    between atoms: N_8  and  C_27
    6  A    between atoms: C_15  and  C_33
    7  A    between atoms: C_16  and  C_30
    8  A    between atoms: C_16  and  N_41
    9  A    between atoms: C_21  and  N_41
   10  A    between atoms: C_24  and  C_30
   11  A    between atoms: C_24  and  C_37
   12  A    between atoms: C_27  and  C_43
   13  A    between atoms: C_33  and  N_41
                            x       y       z     vdW  Elec       q    Type
                         _______ _______ _______ _____ _____    ______ ____

>  <TORSDO>
F 13

$$$$
=
 OpenBabel11052411113D

 44 49  0  0  1  0  0  0  0  0999 V2000
  161.8160  209.7740  151.2870 N   0  0  0  0  0  0  0  0  0  0  0  0
  160.6710  211.4580  154.1780 C   0  0  0  0  0  3  0  0  0  0  0  0
  160.9520  208.4100  154.4270 C   0  0  0  0  0  3  0  0  0  0  0  0
  161.6260  209.2160  153.5670 C   0  0  0  0  0  0  0  0  0  0  0  0
  162.3820  209.9440  152.6280 C   0  0  2  0  0  3  0  0  0  0  0  0
  159.3040  208.5550  156.1530 F   0  0  0  0  0  0  0  0  0  0  0  0
  160.0650  209.2030  155.2380 C   0  0  0  0  0  0  0  0  0  0  0  0
  159.9320  210.6650  155.1360 C   0  0  0  0  0  0  0  0  0  0  0  0
  161.4930  210.6600  153.4490 C   0  0  0  0  0  0  0  0  0  0  0  0
  159.0080  211.2850  155.9900 O   0  0  0  0  0  0  0  0  0  0  0  0
  156.8130  214.3290  155.0250 C   0  0  0  0  0  2  0  0  0  0  0  0
  158.6910  214.1200  156.4850 O   0  0  0  0  0  0  0  0  0  0  0  0
  157.8590  213.5260  155.7460 C   0  0  0  0  0  0  0  0  0  0  0  0
  155.6440  212.1640  154.6470 C   0  0  0  0  0  3  0  0  0  0  0  0
  155.6120  213.4990  154.6510 C   0  0  0  0  0  3  0  0  0  0  0  0
  156.8470  211.4250  155.0700 C   0  0  0  0  0  3  0  0  0  0  0  0
  157.9110  212.0540  155.5780 C   0  0  0  0  0  0  0  0  0  0  0  0
  161.0750  208.5070  151.2000 C   0  0  0  0  0  2  0  0  0  0  0  0
  161.2720  207.7780  149.8720 C   0  0  0  0  0  2  0  0  0  0  0  0
  162.0780  206.5150  150.1060 C   0  0  0  0  0  2  0  0  0  0  0  0
  160.2450  203.1450  150.1490 C   0  0  1  0  0  3  0  0  0  0  0  0
  161.8260  204.8290  151.9700 C   0  0  1  0  0  3  0  0  0  0  0  0
  160.9100  202.5690  151.3970 C   0  0  0  0  0  2  0  0  0  0  0  0
  161.0090  203.6400  152.4730 C   0  0  0  0  0  2  0  0  0  0  0  0
  161.0700  204.3180  149.6260 C   0  0  0  0  0  2  0  0  0  0  0  0
  161.2060  205.4110  150.6860 C   0  0  2  0  0  3  0  0  0  0  0  0
  161.8720  205.7960  152.9750 O   0  0  0  0  0  1  0  0  0  0  0  0
  160.1640  202.0780  149.0730 C   0  0  0  0  0  2  0  0  0  0  0  0
  161.2960  202.1930  148.1710 N   0  0  0  0  0  2  0  0  0  0  0  0
  160.8290  201.7740  146.8580 C   0  0  0  0  0  2  0  0  0  0  0  0
  161.6780  204.0740  146.4580 C   0  0  0  0  0  2  0  0  0  0  0  0
  161.1840  205.1660  145.6260 N   0  0  0  0  0  0  0  0  0  0  0  0
  160.4530  204.5620  144.5170 C   0  0  0  0  0  2  0  0  0  0  0  0
  162.3460  205.8240  145.0550 C   0  0  0  0  0  1  0  0  0  0  0  0
  160.1690  203.1260  144.8780 C   0  0  0  0  0  2  0  0  0  0  0  0
  161.2910  202.7650  145.8080 C   0  0  2  0  0  3  0  0  0  0  0  0
  160.8960  210.8800  151.0310 C   0  0  0  0  0  2  0  0  0  0  0  0
  162.3250  213.8560  146.3530 C   0  0  0  0  0  1  0  0  0  0  0  0
  162.3280  211.1910  149.0740 C   0  0  0  0  0  3  0  0  0  0  0  0
  162.8860  211.9770  147.9180 C   0  0  0  0  0  2  0  0  0  0  0  0
  161.3640  211.6750  149.8600 C   0  0  0  0  0  0  0  0  0  0  0  0
  161.0980  213.6740  148.4980 C   0  0  0  0  0  3  0  0  0  0  0  0
  162.0460  213.1290  147.5740 N   0  0  0  0  0  0  0  0  0  0  0  0
  160.7650  212.9940  149.5940 C   0  0  0  0  0  3  0  0  0  0  0  0
  2  8  1  0  0  0  0
  3  7  1  0  0  0  0
  4  3  2  0  0  0  0
  5  1  1  6  0  0  0
  5  9  1  0  0  0  0
  5  4  1  0  0  0  0
  7  6  1  0  0  0  0
  8  7  2  0  0  0  0
  8 10  1  0  0  0  0
  9  4  1  0  0  0  0
  9  2  2  0  0  0  0
 11 13  1  0  0  0  0
 13 12  2  0  0  0  0
 14 15  2  0  0  0  0
 14 16  1  0  0  0  0
 15 11  1  0  0  0  0
 16 17  2  0  0  0  0
 17 13  1  0  0  0  0
 17 10  1  0  0  0  0
 18  1  1  0  0  0  0
 19 20  1  0  0  0  0
 19 18  1  0  0  0  0
 21 28  1  6  0  0  0
 21 23  1  0  0  0  0
 22 24  1  0  0  0  0
 22 27  1  1  0  0  0
 23 24  1  0  0  0  0
 25 21  1  0  0  0  0
 25 26  1  0  0  0  0
 26 20  1  6  0  0  0
 26 22  1  0  0  0  0
 29 28  1  0  0  0  0
 30 29  1  0  0  0  0
 32 31  1  0  0  0  0
 33 35  1  0  0  0  0
 33 32  1  0  0  0  0
 34 32  1  0  0  0  0
 35 36  1  0  0  0  0
 36 31  1  0  0  0  0
 36 30  1  1  0  0  0
 37  1  1  0  0  0  0
 38 43  1  0  0  0  0
 39 41  2  0  0  0  0
 40 39  1  0  0  0  0
 41 37  1  0  0  0  0
 42 44  2  0  0  0  0
 43 40  1  0  0  0  0
 43 42  1  0  0  0  0
 44 41  1  0  0  0  0
M  END
>  <MODEL>
4

>  <REMARK>
 VINA RESULT:      -7.4      3.215      6.635
  Name = 
  13 active torsions:
  status: ('A' for Active; 'I' for Inactive)
    1  A    between atoms: C_6  and  C_9
    2  A    between atoms: O_7  and  C_38
    3  A    between atoms: O_7  and  C_39
    4  A    between atoms: N_8  and  C_9
    5  A    between atoms: N_8  and  C_27
    6  A    between atoms: C_15  and  C_33
    7  A    between atoms: C_16  and  C_30
    8  A    between atoms: C_16  and  N_41
    9  A    between atoms: C_21  and  N_41
   10  A    between atoms: C_24  and  C_30
   11  A    between atoms: C_24  and  C_37
   12  A    between atoms: C_27  and  C_43
   13  A    between atoms: C_33  and  N_41
                            x       y       z     vdW  Elec       q    Type
                         _______ _______ _______ _____ _____    ______ ____

>  <TORSDO>
F 13

$$$$
=
 OpenBabel11052411113D

 44 49  0  0  1  0  0  0  0  0999 V2000
  162.2520  207.3150  150.1200 N   0  0  0  0  0  0  0  0  0  0  0  0
  162.8960  205.6110  147.0890 C   0  0  0  0  0  3  0  0  0  0  0  0
  160.4430  207.4580  147.0910 C   0  0  0  0  0  3  0  0  0  0  0  0
  161.5360  207.5650  147.8910 C   0  0  0  0  0  0  0  0  0  0  0  0
  162.6090  207.7780  148.7770 C   0  0  2  0  0  3  0  0  0  0  0  0
  159.5910  206.0700  145.3410 F   0  0  0  0  0  0  0  0  0  0  0  0
  160.5990  206.3310  146.2080 C   0  0  0  0  0  0  0  0  0  0  0  0
  161.7750  205.4480  146.1910 C   0  0  0  0  0  0  0  0  0  0  0  0
  162.6980  206.6890  147.8900 C   0  0  0  0  0  0  0  0  0  0  0  0
  161.7620  204.3820  145.2790 O   0  0  0  0  0  0  0  0  0  0  0  0
  159.7930  201.0690  144.8710 C   0  0  0  0  0  2  0  0  0  0  0  0
  159.3980  203.2690  144.0310 O   0  0  0  0  0  0  0  0  0  0  0  0
  160.1070  202.5350  144.7720 C   0  0  0  0  0  0  0  0  0  0  0  0
  161.2520  201.0580  146.8890 C   0  0  0  0  0  3  0  0  0  0  0  0
  160.3240  200.4550  146.1410 C   0  0  0  0  0  3  0  0  0  0  0  0
  161.7650  202.3960  146.5410 C   0  0  0  0  0  3  0  0  0  0  0  0
  161.2470  203.1030  145.5330 C   0  0  0  0  0  0  0  0  0  0  0  0
  162.3140  208.4280  151.0800 C   0  0  0  0  0  2  0  0  0  0  0  0
  160.9770  208.7230  151.7560 C   0  0  0  0  0  2  0  0  0  0  0  0
  161.1740  208.7730  153.2590 C   0  0  0  0  0  2  0  0  0  0  0  0
  159.5730  212.2590  153.2000 C   0  0  1  0  0  3  0  0  0  0  0  0
  159.8310  209.9720  155.0310 C   0  0  1  0  0  3  0  0  0  0  0  0
  158.6180  212.0640  154.3760 C   0  0  0  0  0  2  0  0  0  0  0  0
  159.3310  211.3340  155.5060 C   0  0  0  0  0  2  0  0  0  0  0  0
  160.0590  210.9000  152.7040 C   0  0  0  0  0  2  0  0  0  0  0  0
  160.7670  210.1280  153.8180 C   0  0  2  0  0  3  0  0  0  0  0  0
  160.4970  209.3480  156.0870 O   0  0  0  0  0  1  0  0  0  0  0  0
  158.8550  212.9710  152.0690 C   0  0  0  0  0  2  0  0  0  0  0  0
  159.7880  213.8040  151.3320 N   0  0  0  0  0  2  0  0  0  0  0  0
  159.5300  213.5720  149.9200 C   0  0  0  0  0  2  0  0  0  0  0  0
  160.6020  213.5110  147.6800 C   0  0  0  0  0  2  0  0  0  0  0  0
  161.4510  212.5180  147.0300 N   0  0  0  0  0  0  0  0  0  0  0  0
  162.1570  211.8020  148.0870 C   0  0  0  0  0  2  0  0  0  0  0  0
  162.4530  213.2460  146.2720 C   0  0  0  0  0  1  0  0  0  0  0  0
  161.4560  212.0900  149.3900 C   0  0  0  0  0  2  0  0  0  0  0  0
  160.8430  213.4420  149.1710 C   0  0  2  0  0  3  0  0  0  0  0  0
  160.8860  206.7980  150.0840 C   0  0  0  0  0  2  0  0  0  0  0  0
  161.2940  201.1990  151.2160 C   0  0  0  0  0  1  0  0  0  0  0  0
  160.4680  204.4730  149.4530 C   0  0  0  0  0  3  0  0  0  0  0  0
  160.3800  202.9930  149.7200 C   0  0  0  0  0  2  0  0  0  0  0  0
  160.8840  205.3370  150.3810 C   0  0  0  0  0  0  0  0  0  0  0  0
  161.4290  203.5620  151.9540 C   0  0  0  0  0  3  0  0  0  0  0  0
  161.0980  202.6070  150.9380 N   0  0  0  0  0  0  0  0  0  0  0  0
  161.3280  204.8660  151.7040 C   0  0  0  0  0  3  0  0  0  0  0  0
  1 18  1  0  0  0  0
  2  9  1  0  0  0  0
  3  4  1  0  0  0  0
  4  5  1  0  0  0  0
  5  1  1  1  0  0  0
  6  7  1  0  0  0  0
  7  3  2  0  0  0  0
  8  7  1  0  0  0  0
  8  2  2  0  0  0  0
  9  4  2  0  0  0  0
  9  5  1  0  0  0  0
 10 17  1  0  0  0  0
 10  8  1  0  0  0  0
 11 15  1  0  0  0  0
 12 13  2  0  0  0  0
 13 11  1  0  0  0  0
 13 17  1  0  0  0  0
 15 14  2  0  0  0  0
 16 14  1  0  0  0  0
 17 16  2  0  0  0  0
 18 19  1  0  0  0  0
 19 20  1  0  0  0  0
 21 28  1  6  0  0  0
 21 23  1  0  0  0  0
 22 24  1  0  0  0  0
 22 27  1  1  0  0  0
 23 24  1  0  0  0  0
 25 21  1  0  0  0  0
 25 26  1  0  0  0  0
 26 20  1  6  0  0  0
 26 22  1  0  0  0  0
 29 28  1  0  0  0  0
 30 29  1  0  0  0  0
 31 36  1  0  0  0  0
 32 31  1  0  0  0  0
 32 33  1  0  0  0  0
 33 35  1  0  0  0  0
 34 32  1  0  0  0  0
 36 35  1  0  0  0  0
 36 30  1  1  0  0  0
 37  1  1  0  0  0  0
 37 41  1  0  0  0  0
 39 40  1  0  0  0  0
 39 41  2  0  0  0  0
 40 43  1  0  0  0  0
 41 44  1  0  0  0  0
 43 38  1  0  0  0  0
 43 42  1  0  0  0  0
 44 42  2  0  0  0  0
M  END
>  <MODEL>
5

>  <REMARK>
 VINA RESULT:      -7.3      3.171      8.529
  Name = 
  13 active torsions:
  status: ('A' for Active; 'I' for Inactive)
    1  A    between atoms: C_6  and  C_9
    2  A    between atoms: O_7  and  C_38
    3  A    between atoms: O_7  and  C_39
    4  A    between atoms: N_8  and  C_9
    5  A    between atoms: N_8  and  C_27
    6  A    between atoms: C_15  and  C_33
    7  A    between atoms: C_16  and  C_30
    8  A    between atoms: C_16  and  N_41
    9  A    between atoms: C_21  and  N_41
   10  A    between atoms: C_24  and  C_30
   11  A    between atoms: C_24  and  C_37
   12  A    between atoms: C_27  and  C_43
   13  A    between atoms: C_33  and  N_41
                            x       y       z     vdW  Elec       q    Type
                         _______ _______ _______ _____ _____    ______ ____

>  <TORSDO>
F 13

$$$$
=
 OpenBabel11052411113D

 44 49  0  0  1  0  0  0  0  0999 V2000
  161.9440  209.2130  151.3090 N   0  0  0  0  0  0  0  0  0  0  0  0
  160.7370  206.3360  149.6450 C   0  0  0  0  0  3  0  0  0  0  0  0
  161.7200  205.9050  152.5220 C   0  0  0  0  0  3  0  0  0  0  0  0
  161.2580  207.0670  151.9920 C   0  0  0  0  0  0  0  0  0  0  0  0
  160.8040  208.3260  151.5580 C   0  0  2  0  0  3  0  0  0  0  0  0
  162.1130  203.6350  151.8820 F   0  0  0  0  0  0  0  0  0  0  0  0
  161.6780  204.8670  151.5240 C   0  0  0  0  0  0  0  0  0  0  0  0
  161.1970  205.0600  150.1480 C   0  0  0  0  0  0  0  0  0  0  0  0
  160.7920  207.2700  150.6290 C   0  0  0  0  0  0  0  0  0  0  0  0
  161.2380  203.9480  149.2940 O   0  0  0  0  0  0  0  0  0  0  0  0
  161.2050  203.0960  145.5140 C   0  0  0  0  0  2  0  0  0  0  0  0
  160.8180  201.7550  147.4510 O   0  0  0  0  0  0  0  0  0  0  0  0
  161.1630  202.8810  147.0000 C   0  0  0  0  0  0  0  0  0  0  0  0
  162.5390  205.1390  146.0100 C   0  0  0  0  0  3  0  0  0  0  0  0
  162.1170  204.2310  145.1250 C   0  0  0  0  0  3  0  0  0  0  0  0
  162.1810  205.0420  147.4370 C   0  0  0  0  0  3  0  0  0  0  0  0
  161.5160  203.9890  147.9210 C   0  0  0  0  0  0  0  0  0  0  0  0
  162.2920  209.2120  149.8800 C   0  0  0  0  0  2  0  0  0  0  0  0
  161.5100  210.2380  149.0620 C   0  0  0  0  0  2  0  0  0  0  0  0
  162.3010  211.5290  148.9880 C   0  0  0  0  0  2  0  0  0  0  0  0
  160.1710  213.0000  146.1560 C   0  0  1  0  0  3  0  0  0  0  0  0
  160.3400  213.1190  149.0900 C   0  0  1  0  0  3  0  0  0  0  0  0
  158.9880  213.4570  147.0080 C   0  0  0  0  0  2  0  0  0  0  0  0
  159.4930  214.1060  148.2890 C   0  0  0  0  0  2  0  0  0  0  0  0
  161.0080  211.9950  146.9410 C   0  0  0  0  0  2  0  0  0  0  0  0
  161.5210  212.6050  148.2460 C   0  0  2  0  0  3  0  0  0  0  0  0
  160.8010  213.7590  150.2410 O   0  0  0  0  0  1  0  0  0  0  0  0
  159.6640  212.3380  144.8880 C   0  0  0  0  0  2  0  0  0  0  0  0
  160.1360  213.0650  143.7230 N   0  0  0  0  0  2  0  0  0  0  0  0
  161.0060  212.1600  142.9890 C   0  0  0  0  0  2  0  0  0  0  0  0
  161.2610  210.8860  140.8730 C   0  0  0  0  0  2  0  0  0  0  0  0
  161.0130  211.2440  139.4810 N   0  0  0  0  0  0  0  0  0  0  0  0
  159.9680  212.2620  139.4820 C   0  0  0  0  0  2  0  0  0  0  0  0
  160.4560  210.0700  138.8330 C   0  0  0  0  0  1  0  0  0  0  0  0
  159.8510  212.8050  140.8840 C   0  0  0  0  0  2  0  0  0  0  0  0
  160.2990  211.6600  141.7450 C   0  0  2  0  0  3  0  0  0  0  0  0
  161.5690  210.5690  151.7030 C   0  0  0  0  0  2  0  0  0  0  0  0
  159.5800  210.9990  157.0560 C   0  0  0  0  0  1  0  0  0  0  0  0
  161.8980  210.3120  154.1120 C   0  0  0  0  0  3  0  0  0  0  0  0
  161.4290  210.2370  155.5410 C   0  0  0  0  0  2  0  0  0  0  0  0
  161.0620  210.5730  153.1050 C   0  0  0  0  0  0  0  0  0  0  0  0
  159.1880  210.9590  154.6090 C   0  0  0  0  0  3  0  0  0  0  0  0
  160.0850  210.7970  155.7130 N   0  0  0  0  0  0  0  0  0  0  0  0
  159.6380  210.8520  153.3600 C   0  0  0  0  0  3  0  0  0  0  0  0
  1 37  1  0  0  0  0
  2  8  2  0  0  0  0
  2  9  1  0  0  0  0
  4  3  1  0  0  0  0
  5  1  1  6  0  0  0
  5  4  1  0  0  0  0
  7  6  1  0  0  0  0
  7  3  2  0  0  0  0
  8  7  1  0  0  0  0
  9  5  1  0  0  0  0
  9  4  2  0  0  0  0
 10  8  1  0  0  0  0
 11 13  1  0  0  0  0
 13 12  2  0  0  0  0
 13 17  1  0  0  0  0
 14 16  1  0  0  0  0
 15 11  1  0  0  0  0
 15 14  2  0  0  0  0
 16 17  2  0  0  0  0
 17 10  1  0  0  0  0
 18  1  1  0  0  0  0
 19 18  1  0  0  0  0
 20 19  1  0  0  0  0
 21 28  1  6  0  0  0
 21 25  1  0  0  0  0
 21 23  1  0  0  0  0
 22 27  1  1  0  0  0
 23 24  1  0  0  0  0
 24 22  1  0  0  0  0
 25 26  1  0  0  0  0
 26 20  1  1  0  0  0
 26 22  1  0  0  0  0
 29 28  1  0  0  0  0
 30 29  1  0  0  0  0
 31 36  1  0  0  0  0
 32 33  1  0  0  0  0
 32 31  1  0  0  0  0
 33 35  1  0  0  0  0
 34 32  1  0  0  0  0
 35 36  1  0  0  0  0
 36 30  1  1  0  0  0
 37 41  1  0  0  0  0
 39 40  1  0  0  0  0
 40 43  1  0  0  0  0
 41 44  1  0  0  0  0
 41 39  2  0  0  0  0
 42 43  1  0  0  0  0
 43 38  1  0  0  0  0
 44 42  2  0  0  0  0
M  END
>  <MODEL>
6

>  <REMARK>
 VINA RESULT:      -7.3      3.117      8.045
  Name = 
  13 active torsions:
  status: ('A' for Active; 'I' for Inactive)
    1  A    between atoms: C_6  and  C_9
    2  A    between atoms: O_7  and  C_38
    3  A    between atoms: O_7  and  C_39
    4  A    between atoms: N_8  and  C_9
    5  A    between atoms: N_8  and  C_27
    6  A    between atoms: C_15  and  C_33
    7  A    between atoms: C_16  and  C_30
    8  A    between atoms: C_16  and  N_41
    9  A    between atoms: C_21  and  N_41
   10  A    between atoms: C_24  and  C_30
   11  A    between atoms: C_24  and  C_37
   12  A    between atoms: C_27  and  C_43
   13  A    between atoms: C_33  and  N_41
                            x       y       z     vdW  Elec       q    Type
                         _______ _______ _______ _____ _____    ______ ____

>  <TORSDO>
F 13

$$$$
=
 OpenBabel11052411113D

 44 49  0  0  1  0  0  0  0  0999 V2000
  161.8640  209.7100  151.4190 N   0  0  0  0  0  0  0  0  0  0  0  0
  161.2040  206.2490  151.1260 C   0  0  0  0  0  3  0  0  0  0  0  0
  162.0130  207.6810  148.5340 C   0  0  0  0  0  3  0  0  0  0  0  0
  162.3230  208.0640  149.7990 C   0  0  0  0  0  0  0  0  0  0  0  0
  162.7040  208.5660  151.0580 C   0  0  2  0  0  3  0  0  0  0  0  0
  160.8310  205.9450  147.3900 F   0  0  0  0  0  0  0  0  0  0  0  0
  161.2360  206.4690  148.5720 C   0  0  0  0  0  0  0  0  0  0  0  0
  160.8540  205.7680  149.8080 C   0  0  0  0  0  0  0  0  0  0  0  0
  161.9390  207.3850  151.0270 C   0  0  0  0  0  0  0  0  0  0  0  0
  160.0790  204.6070  149.6720 O   0  0  0  0  0  0  0  0  0  0  0  0
  161.1880  200.9190  150.0970 C   0  0  0  0  0  2  0  0  0  0  0  0
  161.0720  202.7340  151.6440 O   0  0  0  0  0  0  0  0  0  0  0  0
  160.9530  202.3620  150.4450 C   0  0  0  0  0  0  0  0  0  0  0  0
  161.3260  201.6800  147.7300 C   0  0  0  0  0  3  0  0  0  0  0  0
  161.5450  200.7310  148.6450 C   0  0  0  0  0  3  0  0  0  0  0  0
  160.7740  202.9940  148.1070 C   0  0  0  0  0  3  0  0  0  0  0  0
  160.5760  203.3280  149.3860 C   0  0  0  0  0  0  0  0  0  0  0  0
  161.2910  210.3270  150.2120 C   0  0  0  0  0  2  0  0  0  0  0  0
  162.0030  211.6110  149.7910 C   0  0  0  0  0  2  0  0  0  0  0  0
  162.2710  211.5700  148.2990 C   0  0  0  0  0  2  0  0  0  0  0  0
  162.3690  214.2720  145.5770 C   0  0  1  0  0  3  0  0  0  0  0  0
  160.4190  213.0340  147.3980 C   0  0  1  0  0  3  0  0  0  0  0  0
  160.8670  214.3490  145.3130 C   0  0  0  0  0  2  0  0  0  0  0  0
  160.1070  214.3180  146.6310 C   0  0  0  0  0  2  0  0  0  0  0  0
  162.6920  212.9800  146.3210 C   0  0  0  0  0  2  0  0  0  0  0  0
  161.9330  212.9030  147.6460 C   0  0  2  0  0  3  0  0  0  0  0  0
  159.7240  213.0560  148.6070 O   0  0  0  0  0  1  0  0  0  0  0  0
  163.1220  214.2870  144.2590 C   0  0  0  0  0  2  0  0  0  0  0  0
  163.0800  212.9710  143.6460 N   0  0  0  0  0  2  0  0  0  0  0  0
  162.7650  213.1740  142.2410 C   0  0  0  0  0  2  0  0  0  0  0  0
  162.1810  211.6800  140.3450 C   0  0  0  0  0  2  0  0  0  0  0  0
  160.9420  211.4860  139.6000 N   0  0  0  0  0  0  0  0  0  0  0  0
  159.8440  211.8180  140.5020 C   0  0  0  0  0  2  0  0  0  0  0  0
  160.8370  210.0660  139.3130 C   0  0  0  0  0  1  0  0  0  0  0  0
  160.4180  212.5820  141.6680 C   0  0  0  0  0  2  0  0  0  0  0  0
  161.8310  212.0810  141.7600 C   0  0  2  0  0  3  0  0  0  0  0  0
  160.7750  209.2350  152.2700 C   0  0  0  0  0  2  0  0  0  0  0  0
  159.6820  213.4310  156.0090 C   0  0  0  0  0  1  0  0  0  0  0  0
  161.2340  210.3490  154.3970 C   0  0  0  0  0  3  0  0  0  0  0  0
  160.9260  211.3100  155.5150 C   0  0  0  0  0  2  0  0  0  0  0  0
  160.4600  210.2510  153.3140 C   0  0  0  0  0  0  0  0  0  0  0  0
  159.0470  212.1040  154.0140 C   0  0  0  0  0  3  0  0  0  0  0  0
  159.9260  212.3090  155.1270 N   0  0  0  0  0  0  0  0  0  0  0  0
  159.2870  211.1250  153.1430 C   0  0  0  0  0  3  0  0  0  0  0  0
  1 37  1  0  0  0  0
  3  7  2  0  0  0  0
  3  4  1  0  0  0  0
  4  9  2  0  0  0  0
  4  5  1  0  0  0  0
  5  1  1  1  0  0  0
  6  7  1  0  0  0  0
  7  8  1  0  0  0  0
  8  2  2  0  0  0  0
  9  5  1  0  0  0  0
  9  2  1  0  0  0  0
 10  8  1  0  0  0  0
 11 13  1  0  0  0  0
 13 12  2  0  0  0  0
 14 16  1  0  0  0  0
 14 15  2  0  0  0  0
 15 11  1  0  0  0  0
 16 17  2  0  0  0  0
 17 10  1  0  0  0  0
 17 13  1  0  0  0  0
 18  1  1  0  0  0  0
 19 18  1  0  0  0  0
 20 19  1  0  0  0  0
 21 28  1  6  0  0  0
 21 25  1  0  0  0  0
 22 26  1  0  0  0  0
 22 27  1  1  0  0  0
 23 21  1  0  0  0  0
 23 24  1  0  0  0  0
 24 22  1  0  0  0  0
 25 26  1  0  0  0  0
 26 20  1  6  0  0  0
 29 28  1  0  0  0  0
 30 29  1  0  0  0  0
 31 36  1  0  0  0  0
 32 31  1  0  0  0  0
 32 33  1  0  0  0  0
 33 35  1  0  0  0  0
 34 32  1  0  0  0  0
 35 36  1  0  0  0  0
 36 30  1  6  0  0  0
 37 41  1  0  0  0  0
 39 40  1  0  0  0  0
 41 39  2  0  0  0  0
 42 43  1  0  0  0  0
 43 40  1  0  0  0  0
 43 38  1  0  0  0  0
 44 41  1  0  0  0  0
 44 42  2  0  0  0  0
M  END
>  <MODEL>
7

>  <REMARK>
 VINA RESULT:      -7.2      2.805      8.658
  Name = 
  13 active torsions:
  status: ('A' for Active; 'I' for Inactive)
    1  A    between atoms: C_6  and  C_9
    2  A    between atoms: O_7  and  C_38
    3  A    between atoms: O_7  and  C_39
    4  A    between atoms: N_8  and  C_9
    5  A    between atoms: N_8  and  C_27
    6  A    between atoms: C_15  and  C_33
    7  A    between atoms: C_16  and  C_30
    8  A    between atoms: C_16  and  N_41
    9  A    between atoms: C_21  and  N_41
   10  A    between atoms: C_24  and  C_30
   11  A    between atoms: C_24  and  C_37
   12  A    between atoms: C_27  and  C_43
   13  A    between atoms: C_33  and  N_41
                            x       y       z     vdW  Elec       q    Type
                         _______ _______ _______ _____ _____    ______ ____

>  <TORSDO>
F 13

$$$$
=
 OpenBabel11052411113D

 44 49  0  0  1  0  0  0  0  0999 V2000
  160.6550  211.2590  153.5400 N   0  0  0  0  0  0  0  0  0  0  0  0
  161.1000  208.4430  151.4470 C   0  0  0  0  0  3  0  0  0  0  0  0
  160.8050  207.8500  154.4450 C   0  0  0  0  0  3  0  0  0  0  0  0
  160.3330  208.9400  153.7870 C   0  0  0  0  0  0  0  0  0  0  0  0
  159.7990  210.1130  153.2210 C   0  0  2  0  0  3  0  0  0  0  0  0
  162.0210  205.8380  154.0080 F   0  0  0  0  0  0  0  0  0  0  0  0
  161.4780  206.9780  153.5170 C   0  0  0  0  0  0  0  0  0  0  0  0
  161.6130  207.2470  152.0770 C   0  0  0  0  0  0  0  0  0  0  0  0
  160.4730  209.2200  152.3670 C   0  0  0  0  0  0  0  0  0  0  0  0
  162.3140  206.3030  151.3130 O   0  0  0  0  0  0  0  0  0  0  0  0
  160.9570  203.8330  148.6530 C   0  0  0  0  0  2  0  0  0  0  0  0
  161.0960  206.2170  148.6880 O   0  0  0  0  0  0  0  0  0  0  0  0
  161.2600  205.1420  149.3260 C   0  0  0  0  0  0  0  0  0  0  0  0
  161.0020  202.8340  150.9330 C   0  0  0  0  0  3  0  0  0  0  0  0
  160.6720  202.7330  149.6420 C   0  0  0  0  0  3  0  0  0  0  0  0
  161.6110  204.0630  151.4730 C   0  0  0  0  0  3  0  0  0  0  0  0
  161.7570  205.1600  150.7240 C   0  0  0  0  0  0  0  0  0  0  0  0
  160.0020  212.5140  153.1350 C   0  0  0  0  0  2  0  0  0  0  0  0
  159.7670  212.6190  151.6300 C   0  0  0  0  0  2  0  0  0  0  0  0
  158.9980  213.8900  151.3280 C   0  0  0  0  0  2  0  0  0  0  0  0
  159.8630  213.5740  147.6040 C   0  0  1  0  0  3  0  0  0  0  0  0
  157.5160  213.3350  149.3600 C   0  0  1  0  0  3  0  0  0  0  0  0
  158.6130  212.8110  147.1700 C   0  0  0  0  0  2  0  0  0  0  0  0
  157.3840  213.4070  147.8400 C   0  0  0  0  0  2  0  0  0  0  0  0
  160.0150  213.4850  149.1200 C   0  0  0  0  0  2  0  0  0  0  0  0
  158.7890  214.0610  149.8300 C   0  0  2  0  0  3  0  0  0  0  0  0
  156.3820  213.9110  149.9340 O   0  0  0  0  0  1  0  0  0  0  0  0
  161.0890  212.9660  146.9470 C   0  0  0  0  0  2  0  0  0  0  0  0
  160.8330  212.7270  145.5390 N   0  0  0  0  0  2  0  0  0  0  0  0
  161.7950  213.5250  144.7970 C   0  0  0  0  0  2  0  0  0  0  0  0
  160.5160  212.2940  143.0600 C   0  0  0  0  0  2  0  0  0  0  0  0
  160.9400  211.4530  141.9460 N   0  0  0  0  0  0  0  0  0  0  0  0
  162.2660  211.9120  141.5460 C   0  0  0  0  0  2  0  0  0  0  0  0
  160.0450  211.7330  140.8370 C   0  0  0  0  0  1  0  0  0  0  0  0
  162.8140  212.7730  142.6560 C   0  0  0  0  0  2  0  0  0  0  0  0
  161.5840  213.3360  143.3070 C   0  0  2  0  0  3  0  0  0  0  0  0
  160.8750  211.2840  154.9840 C   0  0  0  0  0  2  0  0  0  0  0  0
  156.2170  213.7160  157.2600 C   0  0  0  0  0  1  0  0  0  0  0  0
  159.7430  213.2500  155.8970 C   0  0  0  0  0  3  0  0  0  0  0  0
  158.6370  213.9500  156.6410 C   0  0  0  0  0  2  0  0  0  0  0  0
  159.7200  211.9350  155.6670 C   0  0  0  0  0  0  0  0  0  0  0  0
  157.4910  211.6910  156.6120 C   0  0  0  0  0  3  0  0  0  0  0  0
  157.4390  213.1140  156.7670 N   0  0  0  0  0  0  0  0  0  0  0  0
  158.5730  211.1140  156.0920 C   0  0  0  0  0  3  0  0  0  0  0  0
  1 37  1  0  0  0  0
  2  8  2  0  0  0  0
  2  9  1  0  0  0  0
  4  3  1  0  0  0  0
  5  1  1  1  0  0  0
  5  4  1  0  0  0  0
  7  6  1  0  0  0  0
  7  3  2  0  0  0  0
  8  7  1  0  0  0  0
  9  5  1  0  0  0  0
  9  4  2  0  0  0  0
 10  8  1  0  0  0  0
 11 13  1  0  0  0  0
 11 15  1  0  0  0  0
 12 13  2  0  0  0  0
 13 17  1  0  0  0  0
 14 16  1  0  0  0  0
 15 14  2  0  0  0  0
 17 10  1  0  0  0  0
 17 16  2  0  0  0  0
 18  1  1  0  0  0  0
 19 18  1  0  0  0  0
 20 19  1  0  0  0  0
 21 28  1  6  0  0  0
 21 25  1  0  0  0  0
 22 26  1  0  0  0  0
 22 27  1  1  0  0  0
 23 21  1  0  0  0  0
 23 24  1  0  0  0  0
 24 22  1  0  0  0  0
 25 26  1  0  0  0  0
 26 20  1  1  0  0  0
 29 28  1  0  0  0  0
 30 29  1  0  0  0  0
 31 36  1  0  0  0  0
 32 31  1  0  0  0  0
 33 32  1  0  0  0  0
 33 35  1  0  0  0  0
 34 32  1  0  0  0  0
 35 36  1  0  0  0  0
 36 30  1  1  0  0  0
 37 41  1  0  0  0  0
 39 40  1  0  0  0  0
 40 43  1  0  0  0  0
 41 39  2  0  0  0  0
 41 44  1  0  0  0  0
 42 43  1  0  0  0  0
 43 38  1  0  0  0  0
 44 42  2  0  0  0  0
M  END
>  <MODEL>
8

>  <REMARK>
 VINA RESULT:      -7.2      3.449      8.485
  Name = 
  13 active torsions:
  status: ('A' for Active; 'I' for Inactive)
    1  A    between atoms: C_6  and  C_9
    2  A    between atoms: O_7  and  C_38
    3  A    between atoms: O_7  and  C_39
    4  A    between atoms: N_8  and  C_9
    5  A    between atoms: N_8  and  C_27
    6  A    between atoms: C_15  and  C_33
    7  A    between atoms: C_16  and  C_30
    8  A    between atoms: C_16  and  N_41
    9  A    between atoms: C_21  and  N_41
   10  A    between atoms: C_24  and  C_30
   11  A    between atoms: C_24  and  C_37
   12  A    between atoms: C_27  and  C_43
   13  A    between atoms: C_33  and  N_41
                            x       y       z     vdW  Elec       q    Type
                         _______ _______ _______ _____ _____    ______ ____

>  <TORSDO>
F 13

$$$$
=
 OpenBabel11052411113D

 44 49  0  0  1  0  0  0  0  0999 V2000
  161.5020  210.2310  152.0360 N   0  0  0  0  0  0  0  0  0  0  0  0
  161.5350  206.9510  150.7120 C   0  0  0  0  0  3  0  0  0  0  0  0
  160.8040  207.1880  153.6850 C   0  0  0  0  0  3  0  0  0  0  0  0
  160.6540  208.1490  152.7380 C   0  0  0  0  0  0  0  0  0  0  0  0
  160.4540  209.2230  151.8500 C   0  0  2  0  0  3  0  0  0  0  0  0
  161.5870  204.9390  153.8960 F   0  0  0  0  0  0  0  0  0  0  0  0
  161.3620  206.0020  153.0880 C   0  0  0  0  0  0  0  0  0  0  0  0
  161.7040  205.8750  151.6630 C   0  0  0  0  0  0  0  0  0  0  0  0
  161.0000  208.0370  151.3290 C   0  0  0  0  0  0  0  0  0  0  0  0
  162.2560  204.6550  151.2440 O   0  0  0  0  0  0  0  0  0  0  0  0
  160.8220  202.6070  148.2840 C   0  0  0  0  0  2  0  0  0  0  0  0
  161.3800  204.9190  148.4970 O   0  0  0  0  0  0  0  0  0  0  0  0
  161.2680  203.8040  149.0750 C   0  0  0  0  0  0  0  0  0  0  0  0
  160.4020  201.5130  150.4800 C   0  0  0  0  0  3  0  0  0  0  0  0
  160.2230  201.5350  149.1570 C   0  0  0  0  0  3  0  0  0  0  0  0
  161.1490  202.5810  151.1700 C   0  0  0  0  0  3  0  0  0  0  0  0
  161.5810  203.6650  150.5180 C   0  0  0  0  0  0  0  0  0  0  0  0
  162.3310  210.3360  150.8260 C   0  0  0  0  0  2  0  0  0  0  0  0
  161.5740  210.8810  149.6160 C   0  0  0  0  0  2  0  0  0  0  0  0
  162.3650  212.0190  149.0000 C   0  0  0  0  0  2  0  0  0  0  0  0
  159.9000  213.0350  146.2400 C   0  0  1  0  0  3  0  0  0  0  0  0
  160.3240  213.5030  149.1130 C   0  0  1  0  0  3  0  0  0  0  0  0
  158.7720  213.5240  147.1470 C   0  0  0  0  0  2  0  0  0  0  0  0
  159.3470  214.3440  148.2930 C   0  0  0  0  0  2  0  0  0  0  0  0
  160.8670  212.1740  147.0480 C   0  0  0  0  0  2  0  0  0  0  0  0
  161.4550  212.9580  148.2220 C   0  0  2  0  0  3  0  0  0  0  0  0
  160.8450  214.2960  150.1370 O   0  0  0  0  0  1  0  0  0  0  0  0
  159.3250  212.2040  145.1090 C   0  0  0  0  0  2  0  0  0  0  0  0
  159.2620  212.9940  143.8920 N   0  0  0  0  0  2  0  0  0  0  0  0
  160.4020  213.8960  143.9190 C   0  0  0  0  0  2  0  0  0  0  0  0
  160.3650  213.2700  141.5160 C   0  0  0  0  0  2  0  0  0  0  0  0
  161.0740  212.2410  140.7640 N   0  0  0  0  0  0  0  0  0  0  0  0
  162.3310  211.9910  141.4610 C   0  0  0  0  0  2  0  0  0  0  0  0
  161.4140  212.8150  139.4740 C   0  0  0  0  0  1  0  0  0  0  0  0
  162.2200  212.5830  142.8440 C   0  0  0  0  0  2  0  0  0  0  0  0
  161.2390  213.7070  142.6700 C   0  0  2  0  0  3  0  0  0  0  0  0
  160.8630  211.5210  152.2860 C   0  0  0  0  0  2  0  0  0  0  0  0
  158.0100  211.8120  157.2420 C   0  0  0  0  0  1  0  0  0  0  0  0
  160.8390  211.3870  154.7270 C   0  0  0  0  0  3  0  0  0  0  0  0
  160.1640  211.2860  156.0700 C   0  0  0  0  0  2  0  0  0  0  0  0
  160.1450  211.4920  153.5920 C   0  0  0  0  0  0  0  0  0  0  0  0
  158.0210  211.6410  154.7690 C   0  0  0  0  0  3  0  0  0  0  0  0
  158.7450  211.6470  156.0050 N   0  0  0  0  0  0  0  0  0  0  0  0
  158.6730  211.5650  153.6110 C   0  0  0  0  0  3  0  0  0  0  0  0
  1 37  1  0  0  0  0
  2  9  2  0  0  0  0
  2  8  1  0  0  0  0
  4  3  2  0  0  0  0
  5  1  1  1  0  0  0
  5  4  1  0  0  0  0
  7  3  1  0  0  0  0
  7  6  1  0  0  0  0
  8  7  2  0  0  0  0
  9  5  1  0  0  0  0
  9  4  1  0  0  0  0
 10  8  1  0  0  0  0
 11 13  1  0  0  0  0
 11 15  1  0  0  0  0
 12 13  2  0  0  0  0
 13 17  1  0  0  0  0
 14 16  1  0  0  0  0
 15 14  2  0  0  0  0
 17 16  2  0  0  0  0
 17 10  1  0  0  0  0
 18  1  1  0  0  0  0
 19 18  1  0  0  0  0
 20 19  1  0  0  0  0
 21 28  1  6  0  0  0
 21 25  1  0  0  0  0
 21 23  1  0  0  0  0
 22 27  1  1  0  0  0
 23 24  1  0  0  0  0
 24 22  1  0  0  0  0
 25 26  1  0  0  0  0
 26 20  1  1  0  0  0
 26 22  1  0  0  0  0
 29 30  1  0  0  0  0
 29 28  1  0  0  0  0
 31 36  1  0  0  0  0
 32 33  1  0  0  0  0
 32 31  1  0  0  0  0
 33 35  1  0  0  0  0
 34 32  1  0  0  0  0
 36 35  1  0  0  0  0
 36 30  1  1  0  0  0
 37 41  1  0  0  0  0
 39 40  1  0  0  0  0
 41 44  1  0  0  0  0
 41 39  2  0  0  0  0
 42 43  1  0  0  0  0
 43 40  1  0  0  0  0
 43 38  1  0  0  0  0
 44 42  2  0  0  0  0
M  END
>  <MODEL>
9

>  <REMARK>
 VINA RESULT:      -7.2      3.188      8.583
  Name = 
  13 active torsions:
  status: ('A' for Active; 'I' for Inactive)
    1  A    between atoms: C_6  and  C_9
    2  A    between atoms: O_7  and  C_38
    3  A    between atoms: O_7  and  C_39
    4  A    between atoms: N_8  and  C_9
    5  A    between atoms: N_8  and  C_27
    6  A    between atoms: C_15  and  C_33
    7  A    between atoms: C_16  and  C_30
    8  A    between atoms: C_16  and  N_41
    9  A    between atoms: C_21  and  N_41
   10  A    between atoms: C_24  and  C_30
   11  A    between atoms: C_24  and  C_37
   12  A    between atoms: C_27  and  C_43
   13  A    between atoms: C_33  and  N_41
                            x       y       z     vdW  Elec       q    Type
                         _______ _______ _______ _____ _____    ______ ____

>  <TORSDO>
F 13

$$$$
