=
 OpenBabel11052409323D

 38 40  0  0  1  0  0  0  0  0999 V2000
  162.1050  209.9670  150.3340 N   0  0  0  0  0  0  0  0  0  0  0  0
  162.0360  209.3540  149.1350 C   0  0  0  0  0  3  0  0  0  0  0  0
  161.6370  211.4820  148.8960 C   0  0  0  0  0  0  0  0  0  0  0  0
  161.8850  211.2640  150.1990 N   0  0  0  0  0  0  0  0  0  0  0  0
  161.7300  210.3050  148.1750 C   0  0  0  0  0  3  0  0  0  0  0  0
  161.9840  207.1940  152.8500 C   0  0  1  0  0  3  0  0  0  0  0  0
  160.4740  209.2410  152.9280 C   0  0  0  0  0  2  0  0  0  0  0  0
  161.7640  209.9050  152.7350 N   0  0  0  0  0  2  0  0  0  0  0  0
  162.4860  209.3190  151.5890 C   0  0  1  0  0  3  0  0  0  0  0  0
  162.3380  207.7870  151.4890 C   0  0  0  0  0  2  0  0  0  0  0  0
  160.6700  207.7840  153.3670 C   0  0  0  0  0  2  0  0  0  0  0  0
  161.8710  205.6840  152.7650 C   0  0  0  0  0  2  0  0  0  0  0  0
  160.7550  205.2930  151.8090 C   0  0  0  0  0  2  0  0  0  0  0  0
  161.2800  204.3930  150.6990 C   0  0  0  0  0  2  0  0  0  0  0  0
  161.1920  206.1200  147.7550 C   0  0  0  0  0  3  0  0  0  0  0  0
  161.2970  202.4000  148.2290 C   0  0  0  0  0  1  0  0  0  0  0  0
  161.1580  203.8870  148.2880 C   0  0  0  0  0  0  0  0  0  0  0  0
  160.4950  204.5980  149.4060 C   0  0  2  0  0  3  0  0  0  0  0  0
  161.5580  204.7380  147.3640 C   0  0  0  0  0  0  0  0  0  0  0  0
  160.4950  206.0180  149.0410 N   0  0  0  0  0  0  0  0  0  0  0  0
  163.4850  204.7070  145.9860 O   0  0  0  0  0  1  0  0  0  0  0  0
  162.2650  204.4140  146.1100 C   0  0  0  0  0  0  0  0  0  0  0  0
  161.6110  203.7840  145.0600 O   0  0  0  0  0  0  0  0  0  0  0  0
  161.3980  212.8340  148.2940 C   0  0  1  0  0  3  0  0  0  0  0  0
  159.3790  213.8390  149.1770 O   0  0  0  0  0  1  0  0  0  0  0  0
  160.7730  213.8340  149.2710 C   0  0  0  0  0  2  0  0  0  0  0  0
  163.7660  212.6630  147.8980 O   0  0  0  0  0  1  0  0  0  0  0  0
  162.6160  213.3600  147.5260 C   0  0  1  0  0  3  0  0  0  0  0  0
  162.4390  213.3160  146.0130 C   0  0  0  0  0  2  0  0  0  0  0  0
  161.1840  212.7900  145.6950 O   0  0  0  0  0  0  0  0  0  0  0  0
  160.8340  213.3940  144.4820 C   0  0  2  0  0  3  0  0  0  0  0  0
  158.8090  214.1480  143.4710 O   0  0  0  0  0  1  0  0  0  0  0  0
  159.5460  214.1820  144.6540 C   0  0  0  0  0  2  0  0  0  0  0  0
  160.6480  212.3190  143.4180 C   0  0  0  0  0  2  0  0  0  0  0  0
  161.8580  212.2200  142.4970 C   0  0  0  0  0  2  0  0  0  0  0  0
  161.5230  211.4410  141.2350 C   0  0  2  0  0  3  0  0  0  0  0  0
  162.6680  211.3020  140.4490 O   0  0  0  0  0  1  0  0  0  0  0  0
  160.5100  212.1550  140.4810 N   0  0  0  0  0  1  0  0  0  0  0  0
  2  1  1  0  0  0  0
  3  4  2  0  0  0  0
  4  1  1  0  0  0  0
  5  3  1  0  0  0  0
  5  2  2  0  0  0  0
  6 12  1  6  0  0  0
  6 11  1  0  0  0  0
  7 11  1  0  0  0  0
  8  7  1  0  0  0  0
  9  1  1  6  0  0  0
  9  8  1  0  0  0  0
 10  9  1  0  0  0  0
 10  6  1  0  0  0  0
 13 12  1  0  0  0  0
 14 13  1  0  0  0  0
 15 20  2  0  0  0  0
 16 17  1  0  0  0  0
 17 18  1  0  0  0  0
 18 14  1  1  0  0  0
 19 15  1  0  0  0  0
 19 17  2  0  0  0  0
 20 18  1  0  0  0  0
 21 22  1  0  0  0  0
 22 19  1  0  0  0  0
 23 22  2  0  0  0  0
 24  3  1  0  0  0  0
 24 26  1  1  0  0  0
 25 26  1  0  0  0  0
 28 27  1  6  0  0  0
 28 24  1  0  0  0  0
 29 28  1  0  0  0  0
 30 29  1  0  0  0  0
 31 34  1  6  0  0  0
 31 33  1  0  0  0  0
 31 30  1  0  0  0  0
 32 33  1  0  0  0  0
 35 34  1  0  0  0  0
 36 37  1  6  0  0  0
 36 35  1  0  0  0  0
 38 36  1  0  0  0  0
M  END
>  <MODEL>
1

>  <REMARK>
 VINA RESULT:      -6.6      0.000      0.000
  Name = 
  16 active torsions:
  status: ('A' for Active; 'I' for Inactive)
    1  A    between atoms: C_1  and  C_35
    2  A    between atoms: N_3  and  C_22
    3  A    between atoms: C_8  and  C_29
    4  A    between atoms: C_8  and  C_31
    5  A    between atoms: C_8  and  O_37
    6  A    between atoms: C_10  and  C_21
    7  A    between atoms: C_10  and  C_35
    8  A    between atoms: C_12  and  C_21
    9  A    between atoms: C_13  and  C_32
   10  A    between atoms: C_14  and  C_16
   11  A    between atoms: C_15  and  C_20
   12  A    between atoms: C_17  and  C_30
   13  A    between atoms: C_17  and  O_37
   14  A    between atoms: C_20  and  C_30
   15  A    between atoms: C_20  and  C_38
   16  A    between atoms: C_31  and  C_32
                            x       y       z     vdW  Elec       q    Type
                         _______ _______ _______ _____ _____    ______ ____

>  <TORSDO>
F 16

$$$$
=
 OpenBabel11052409323D

 38 40  0  0  1  0  0  0  0  0999 V2000
  161.3360  206.6220  149.4050 N   0  0  0  0  0  0  0  0  0  0  0  0
  162.2280  207.6130  149.2080 C   0  0  0  0  0  3  0  0  0  0  0  0
  162.0600  206.4070  147.4020 C   0  0  0  0  0  0  0  0  0  0  0  0
  161.2100  205.8940  148.3080 N   0  0  0  0  0  0  0  0  0  0  0  0
  162.7240  207.5050  147.9180 C   0  0  0  0  0  3  0  0  0  0  0  0
  160.7540  206.7850  153.1020 C   0  0  1  0  0  3  0  0  0  0  0  0
  161.6510  204.7290  151.9020 C   0  0  0  0  0  2  0  0  0  0  0  0
  160.5090  205.0290  151.0370 N   0  0  0  0  0  2  0  0  0  0  0  0
  160.5320  206.4420  150.6140 C   0  0  1  0  0  3  0  0  0  0  0  0
  160.9840  207.4080  151.7280 C   0  0  0  0  0  2  0  0  0  0  0  0
  161.5380  205.4770  153.2360 C   0  0  0  0  0  2  0  0  0  0  0  0
  161.1640  207.7440  154.2030 C   0  0  0  0  0  2  0  0  0  0  0  0
  161.1100  209.1770  153.6990 C   0  0  0  0  0  2  0  0  0  0  0  0
  161.0850  210.1620  154.8590 C   0  0  0  0  0  2  0  0  0  0  0  0
  158.7390  211.6190  152.8510 C   0  0  0  0  0  3  0  0  0  0  0  0
  159.0090  211.8290  156.5880 C   0  0  0  0  0  1  0  0  0  0  0  0
  159.1610  211.6850  155.1080 C   0  0  0  0  0  0  0  0  0  0  0  0
  160.4700  211.4940  154.4390 C   0  0  2  0  0  3  0  0  0  0  0  0
  158.1870  211.7480  154.2200 C   0  0  0  0  0  0  0  0  0  0  0  0
  160.1920  211.4840  153.0000 N   0  0  0  0  0  0  0  0  0  0  0  0
  156.0660  210.9390  154.8970 O   0  0  0  0  0  1  0  0  0  0  0  0
  156.7480  211.9210  154.4980 C   0  0  0  0  0  0  0  0  0  0  0  0
  156.1290  213.1520  154.3320 O   0  0  0  0  0  0  0  0  0  0  0  0
  162.1900  205.9170  145.9910 C   0  0  1  0  0  3  0  0  0  0  0  0
  163.6010  204.1980  146.9490 O   0  0  0  0  0  1  0  0  0  0  0  0
  163.3490  204.9360  145.7900 C   0  0  0  0  0  2  0  0  0  0  0  0
  160.4740  206.2920  144.3450 O   0  0  0  0  0  1  0  0  0  0  0  0
  160.8510  205.4610  145.4010 C   0  0  1  0  0  3  0  0  0  0  0  0
  160.8550  204.0050  144.9510 C   0  0  0  0  0  2  0  0  0  0  0  0
  160.2470  203.2040  145.9210 O   0  0  0  0  0  0  0  0  0  0  0  0
  160.9000  201.9700  145.8340 C   0  0  2  0  0  3  0  0  0  0  0  0
  160.6070  199.7130  145.1180 O   0  0  0  0  0  1  0  0  0  0  0  0
  160.0280  200.9800  145.0790 C   0  0  0  0  0  2  0  0  0  0  0  0
  161.1830  201.4470  147.2370 C   0  0  0  0  0  2  0  0  0  0  0  0
  160.8790  202.4960  148.3010 C   0  0  0  0  0  2  0  0  0  0  0  0
  160.3900  201.8460  149.5860 C   0  0  2  0  0  3  0  0  0  0  0  0
  161.2810  200.8460  149.9780 O   0  0  0  0  0  1  0  0  0  0  0  0
  159.0810  201.2600  149.3630 N   0  0  0  0  0  1  0  0  0  0  0  0
  2  1  1  0  0  0  0
  3  5  1  0  0  0  0
  3  4  2  0  0  0  0
  4  1  1  0  0  0  0
  5  2  2  0  0  0  0
  6 11  1  0  0  0  0
  6 12  1  1  0  0  0
  7 11  1  0  0  0  0
  8  7  1  0  0  0  0
  9  1  1  6  0  0  0
  9  8  1  0  0  0  0
  9 10  1  0  0  0  0
 10  6  1  0  0  0  0
 13 12  1  0  0  0  0
 13 14  1  0  0  0  0
 15 20  2  0  0  0  0
 15 19  1  0  0  0  0
 17 16  1  0  0  0  0
 18 14  1  1  0  0  0
 18 17  1  0  0  0  0
 19 22  1  0  0  0  0
 19 17  2  0  0  0  0
 20 18  1  0  0  0  0
 22 21  1  0  0  0  0
 23 22  2  0  0  0  0
 24 26  1  1  0  0  0
 24  3  1  0  0  0  0
 26 25  1  0  0  0  0
 28 27  1  6  0  0  0
 28 24  1  0  0  0  0
 29 28  1  0  0  0  0
 29 30  1  0  0  0  0
 31 33  1  1  0  0  0
 31 30  1  0  0  0  0
 31 34  1  0  0  0  0
 33 32  1  0  0  0  0
 34 35  1  0  0  0  0
 35 36  1  0  0  0  0
 36 38  1  6  0  0  0
 36 37  1  0  0  0  0
M  END
>  <MODEL>
2

>  <REMARK>
 VINA RESULT:      -6.3      4.693      9.272
  Name = 
  16 active torsions:
  status: ('A' for Active; 'I' for Inactive)
    1  A    between atoms: C_1  and  C_35
    2  A    between atoms: N_3  and  C_22
    3  A    between atoms: C_8  and  C_29
    4  A    between atoms: C_8  and  C_31
    5  A    between atoms: C_8  and  O_37
    6  A    between atoms: C_10  and  C_21
    7  A    between atoms: C_10  and  C_35
    8  A    between atoms: C_12  and  C_21
    9  A    between atoms: C_13  and  C_32
   10  A    between atoms: C_14  and  C_16
   11  A    between atoms: C_15  and  C_20
   12  A    between atoms: C_17  and  C_30
   13  A    between atoms: C_17  and  O_37
   14  A    between atoms: C_20  and  C_30
   15  A    between atoms: C_20  and  C_38
   16  A    between atoms: C_31  and  C_32
                            x       y       z     vdW  Elec       q    Type
                         _______ _______ _______ _____ _____    ______ ____

>  <TORSDO>
F 16

$$$$
=
 OpenBabel11052409323D

 38 40  0  0  1  0  0  0  0  0999 V2000
  160.2690  210.2650  154.7640 N   0  0  0  0  0  0  0  0  0  0  0  0
  159.8880  210.6400  156.0020 C   0  0  0  0  0  3  0  0  0  0  0  0
  158.6080  211.5920  154.5190 C   0  0  0  0  0  0  0  0  0  0  0  0
  159.4860  210.8210  153.8550 N   0  0  0  0  0  0  0  0  0  0  0  0
  158.8130  211.5050  155.8840 C   0  0  0  0  0  3  0  0  0  0  0  0
  161.7030  207.3300  152.9290 C   0  0  1  0  0  3  0  0  0  0  0  0
  160.4350  207.1420  155.1270 C   0  0  0  0  0  2  0  0  0  0  0  0
  161.3600  208.2200  155.4780 N   0  0  0  0  0  2  0  0  0  0  0  0
  161.3210  209.2920  154.4660 C   0  0  1  0  0  3  0  0  0  0  0  0
  161.1960  208.7670  153.0210 C   0  0  0  0  0  2  0  0  0  0  0  0
  160.8980  206.4170  153.8570 C   0  0  0  0  0  2  0  0  0  0  0  0
  161.6160  206.8200  151.5030 C   0  0  0  0  0  2  0  0  0  0  0  0
  160.9710  205.4430  151.4760 C   0  0  0  0  0  2  0  0  0  0  0  0
  160.4480  205.1140  150.0850 C   0  0  0  0  0  2  0  0  0  0  0  0
  161.3500  203.6460  147.1380 C   0  0  0  0  0  3  0  0  0  0  0  0
  161.4180  207.2980  147.9950 C   0  0  0  0  0  1  0  0  0  0  0  0
  161.4000  205.8050  147.9180 C   0  0  0  0  0  0  0  0  0  0  0  0
  161.5940  204.9270  149.0950 C   0  0  2  0  0  3  0  0  0  0  0  0
  161.2550  205.0900  146.8190 C   0  0  0  0  0  0  0  0  0  0  0  0
  161.5900  203.5530  148.5820 N   0  0  0  0  0  0  0  0  0  0  0  0
  159.9670  206.2250  145.1860 O   0  0  0  0  0  1  0  0  0  0  0  0
  161.0300  205.6030  145.4540 C   0  0  0  0  0  0  0  0  0  0  0  0
  161.9750  205.4160  144.4540 O   0  0  0  0  0  0  0  0  0  0  0  0
  157.4930  212.3560  153.8710 C   0  0  1  0  0  3  0  0  0  0  0  0
  155.4180  213.4450  154.4840 O   0  0  0  0  0  1  0  0  0  0  0  0
  156.1720  212.2790  154.6420 C   0  0  0  0  0  2  0  0  0  0  0  0
  158.6230  214.3910  154.4820 O   0  0  0  0  0  1  0  0  0  0  0  0
  157.9130  213.7700  153.4530 C   0  0  1  0  0  3  0  0  0  0  0  0
  158.7200  213.8030  152.1610 C   0  0  0  0  0  2  0  0  0  0  0  0
  157.8940  213.4940  151.0770 O   0  0  0  0  0  0  0  0  0  0  0  0
  158.4830  214.1330  149.9790 C   0  0  2  0  0  3  0  0  0  0  0  0
  157.6600  212.8660  148.1330 O   0  0  0  0  0  1  0  0  0  0  0  0
  157.5370  214.0880  148.7910 C   0  0  0  0  0  2  0  0  0  0  0  0
  159.7900  213.4320  149.6290 C   0  0  0  0  0  2  0  0  0  0  0  0
  160.7090  214.3280  148.8070 C   0  0  0  0  0  2  0  0  0  0  0  0
  161.8610  213.5340  148.2140 C   0  0  2  0  0  3  0  0  0  0  0  0
  162.9410  214.3830  147.9650 O   0  0  0  0  0  1  0  0  0  0  0  0
  161.4370  212.9230  146.9670 N   0  0  0  0  0  1  0  0  0  0  0  0
  1  2  1  0  0  0  0
  3  5  1  0  0  0  0
  4  3  2  0  0  0  0
  4  1  1  0  0  0  0
  5  2  2  0  0  0  0
  6 12  1  6  0  0  0
  6 10  1  0  0  0  0
  6 11  1  0  0  0  0
  7  8  1  0  0  0  0
  9 10  1  6  0  0  0
  9  1  1  0  0  0  0
  9  8  1  0  0  0  0
 11  7  1  0  0  0  0
 13 12  1  0  0  0  0
 14 13  1  0  0  0  0
 15 20  2  0  0  0  0
 17 16  1  0  0  0  0
 17 18  1  0  0  0  0
 18 14  1  1  0  0  0
 19 15  1  0  0  0  0
 19 17  2  0  0  0  0
 20 18  1  0  0  0  0
 21 22  1  0  0  0  0
 22 19  1  0  0  0  0
 23 22  2  0  0  0  0
 24  3  1  0  0  0  0
 24 26  1  1  0  0  0
 25 26  1  0  0  0  0
 28 24  1  0  0  0  0
 28 27  1  1  0  0  0
 29 28  1  0  0  0  0
 30 29  1  0  0  0  0
 31 33  1  6  0  0  0
 31 30  1  0  0  0  0
 32 33  1  0  0  0  0
 34 31  1  0  0  0  0
 35 34  1  0  0  0  0
 36 38  1  6  0  0  0
 36 35  1  0  0  0  0
 37 36  1  0  0  0  0
M  END
>  <MODEL>
3

>  <REMARK>
 VINA RESULT:      -6.3      3.192      5.153
  Name = 
  16 active torsions:
  status: ('A' for Active; 'I' for Inactive)
    1  A    between atoms: C_1  and  C_35
    2  A    between atoms: N_3  and  C_22
    3  A    between atoms: C_8  and  C_29
    4  A    between atoms: C_8  and  C_31
    5  A    between atoms: C_8  and  O_37
    6  A    between atoms: C_10  and  C_21
    7  A    between atoms: C_10  and  C_35
    8  A    between atoms: C_12  and  C_21
    9  A    between atoms: C_13  and  C_32
   10  A    between atoms: C_14  and  C_16
   11  A    between atoms: C_15  and  C_20
   12  A    between atoms: C_17  and  C_30
   13  A    between atoms: C_17  and  O_37
   14  A    between atoms: C_20  and  C_30
   15  A    between atoms: C_20  and  C_38
   16  A    between atoms: C_31  and  C_32
                            x       y       z     vdW  Elec       q    Type
                         _______ _______ _______ _____ _____    ______ ____

>  <TORSDO>
F 16

$$$$
=
 OpenBabel11052409323D

 38 40  0  0  1  0  0  0  0  0999 V2000
  160.2330  211.0510  152.9100 N   0  0  0  0  0  0  0  0  0  0  0  0
  158.9220  211.0800  153.2220 C   0  0  0  0  0  3  0  0  0  0  0  0
  159.3720  212.6620  151.7930 C   0  0  0  0  0  0  0  0  0  0  0  0
  160.5150  211.9940  152.0280 N   0  0  0  0  0  0  0  0  0  0  0  0
  158.3280  212.1160  152.5190 C   0  0  0  0  0  3  0  0  0  0  0  0
  161.3130  207.5500  153.6930 C   0  0  1  0  0  3  0  0  0  0  0  0
  160.2130  209.1020  155.3830 C   0  0  0  0  0  2  0  0  0  0  0  0
  161.2340  210.0090  154.8580 N   0  0  0  0  0  2  0  0  0  0  0  0
  161.1880  210.0500  153.3840 C   0  0  1  0  0  3  0  0  0  0  0  0
  160.9140  208.6750  152.7410 C   0  0  0  0  0  2  0  0  0  0  0  0
  160.5230  207.6500  155.0000 C   0  0  0  0  0  2  0  0  0  0  0  0
  161.0780  206.1950  153.0530 C   0  0  0  0  0  2  0  0  0  0  0  0
  161.3650  206.2620  151.5610 C   0  0  0  0  0  2  0  0  0  0  0  0
  161.1860  204.8980  150.9110 C   0  0  0  0  0  2  0  0  0  0  0  0
  161.1850  206.3500  147.8210 C   0  0  0  0  0  3  0  0  0  0  0  0
  161.1530  202.6870  148.6330 C   0  0  0  0  0  1  0  0  0  0  0  0
  161.0670  204.1770  148.5550 C   0  0  0  0  0  0  0  0  0  0  0  0
  160.4190  205.0100  149.5960 C   0  0  2  0  0  3  0  0  0  0  0  0
  161.5040  204.9260  147.5620 C   0  0  0  0  0  0  0  0  0  0  0  0
  160.4740  206.3900  149.1030 N   0  0  0  0  0  0  0  0  0  0  0  0
  161.5750  203.8490  145.4520 O   0  0  0  0  0  0  0  0  0  0  0  0
  162.2110  204.4640  146.3510 C   0  0  0  0  0  0  0  0  0  0  0  0
  163.5680  204.6980  146.1800 O   0  0  0  0  0  1  0  0  0  0  0  0
  159.2300  213.7760  150.8010 C   0  0  1  0  0  3  0  0  0  0  0  0
  160.8400  212.7970  149.2800 O   0  0  0  0  0  1  0  0  0  0  0  0
  160.4720  213.9780  149.9290 C   0  0  0  0  0  2  0  0  0  0  0  0
  156.8600  214.1950  150.8190 O   0  0  0  0  0  1  0  0  0  0  0  0
  157.9060  213.7130  150.0310 C   0  0  1  0  0  3  0  0  0  0  0  0
  157.9470  214.4530  148.7000 C   0  0  0  0  0  2  0  0  0  0  0  0
  157.6430  213.5740  147.6570 O   0  0  0  0  0  0  0  0  0  0  0  0
  158.3360  214.0740  146.5480 C   0  0  2  0  0  3  0  0  0  0  0  0
  156.0750  214.1950  145.7950 O   0  0  0  0  0  1  0  0  0  0  0  0
  157.3970  214.1660  145.3560 C   0  0  0  0  0  2  0  0  0  0  0  0
  159.5010  213.1490  146.2210 C   0  0  0  0  0  2  0  0  0  0  0  0
  160.6230  213.8870  145.5000 C   0  0  0  0  0  2  0  0  0  0  0  0
  161.9700  213.2380  145.7730 C   0  0  2  0  0  3  0  0  0  0  0  0
  162.6420  213.9460  146.7700 O   0  0  0  0  0  1  0  0  0  0  0  0
  162.7670  213.2480  144.5600 N   0  0  0  0  0  1  0  0  0  0  0  0
  1  2  1  0  0  0  0
  1  9  1  0  0  0  0
  3  4  2  0  0  0  0
  3  5  1  0  0  0  0
  4  1  1  0  0  0  0
  5  2  2  0  0  0  0
  6 12  1  6  0  0  0
  6 11  1  0  0  0  0
  8  7  1  0  0  0  0
  9 10  1  1  0  0  0
  9  8  1  0  0  0  0
 10  6  1  0  0  0  0
 11  7  1  0  0  0  0
 13 12  1  0  0  0  0
 14 13  1  0  0  0  0
 15 20  2  0  0  0  0
 17 16  1  0  0  0  0
 17 18  1  0  0  0  0
 18 14  1  1  0  0  0
 19 15  1  0  0  0  0
 19 17  2  0  0  0  0
 20 18  1  0  0  0  0
 21 22  2  0  0  0  0
 22 19  1  0  0  0  0
 23 22  1  0  0  0  0
 24 26  1  6  0  0  0
 24  3  1  0  0  0  0
 25 26  1  0  0  0  0
 28 24  1  0  0  0  0
 28 27  1  1  0  0  0
 29 28  1  0  0  0  0
 30 29  1  0  0  0  0
 31 33  1  6  0  0  0
 31 30  1  0  0  0  0
 33 32  1  0  0  0  0
 34 31  1  0  0  0  0
 35 36  1  0  0  0  0
 35 34  1  0  0  0  0
 36 38  1  6  0  0  0
 36 37  1  0  0  0  0
M  END
>  <MODEL>
4

>  <REMARK>
 VINA RESULT:      -6.2      2.389      3.358
  Name = 
  16 active torsions:
  status: ('A' for Active; 'I' for Inactive)
    1  A    between atoms: C_1  and  C_35
    2  A    between atoms: N_3  and  C_22
    3  A    between atoms: C_8  and  C_29
    4  A    between atoms: C_8  and  C_31
    5  A    between atoms: C_8  and  O_37
    6  A    between atoms: C_10  and  C_21
    7  A    between atoms: C_10  and  C_35
    8  A    between atoms: C_12  and  C_21
    9  A    between atoms: C_13  and  C_32
   10  A    between atoms: C_14  and  C_16
   11  A    between atoms: C_15  and  C_20
   12  A    between atoms: C_17  and  C_30
   13  A    between atoms: C_17  and  O_37
   14  A    between atoms: C_20  and  C_30
   15  A    between atoms: C_20  and  C_38
   16  A    between atoms: C_31  and  C_32
                            x       y       z     vdW  Elec       q    Type
                         _______ _______ _______ _____ _____    ______ ____

>  <TORSDO>
F 16

$$$$
=
 OpenBabel11052409323D

 38 40  0  0  1  0  0  0  0  0999 V2000
  162.0940  210.3910  150.0710 N   0  0  0  0  0  0  0  0  0  0  0  0
  161.9650  209.8720  148.8340 C   0  0  0  0  0  3  0  0  0  0  0  0
  161.6450  212.0260  148.7640 C   0  0  0  0  0  0  0  0  0  0  0  0
  161.9220  211.7010  150.0390 N   0  0  0  0  0  0  0  0  0  0  0  0
  161.6690  210.9030  147.9560 C   0  0  0  0  0  3  0  0  0  0  0  0
  162.2890  207.2910  152.1660 C   0  0  1  0  0  3  0  0  0  0  0  0
  160.4210  209.0080  152.3530 C   0  0  0  0  0  2  0  0  0  0  0  0
  161.5750  209.9080  152.3910 N   0  0  0  0  0  2  0  0  0  0  0  0
  162.4850  209.6370  151.2620 C   0  0  1  0  0  3  0  0  0  0  0  0
  162.6350  208.1350  150.9430 C   0  0  0  0  0  2  0  0  0  0  0  0
  160.8500  207.5590  152.6120 C   0  0  0  0  0  2  0  0  0  0  0  0
  162.4680  205.8140  151.8680 C   0  0  0  0  0  2  0  0  0  0  0  0
  161.1180  205.1180  151.8300 C   0  0  0  0  0  2  0  0  0  0  0  0
  161.1330  203.9550  150.8480 C   0  0  0  0  0  2  0  0  0  0  0  0
  161.1630  205.9490  148.0780 C   0  0  0  0  0  3  0  0  0  0  0  0
  161.1390  202.2000  148.2030 C   0  0  0  0  0  1  0  0  0  0  0  0
  161.0460  203.6790  148.3990 C   0  0  0  0  0  0  0  0  0  0  0  0
  160.3820  204.3050  149.5660 C   0  0  2  0  0  3  0  0  0  0  0  0
  161.4920  204.5990  147.5660 C   0  0  0  0  0  0  0  0  0  0  0  0
  160.4360  205.7520  149.3360 N   0  0  0  0  0  0  0  0  0  0  0  0
  161.5990  203.9040  145.3030 O   0  0  0  0  0  0  0  0  0  0  0  0
  162.2150  204.3680  146.3000 C   0  0  0  0  0  0  0  0  0  0  0  0
  163.5680  204.6580  146.1850 O   0  0  0  0  0  1  0  0  0  0  0  0
  161.4420  213.4260  148.2720 C   0  0  1  0  0  3  0  0  0  0  0  0
  162.1140  213.7360  145.9650 O   0  0  0  0  0  1  0  0  0  0  0  0
  162.5240  213.8910  147.2920 C   0  0  0  0  0  2  0  0  0  0  0  0
  159.3820  212.4890  147.4540 O   0  0  0  0  0  1  0  0  0  0  0  0
  160.0030  213.6870  147.8120 C   0  0  1  0  0  3  0  0  0  0  0  0
  159.1640  214.4270  148.8460 C   0  0  0  0  0  2  0  0  0  0  0  0
  159.5490  214.0460  150.1340 O   0  0  0  0  0  0  0  0  0  0  0  0
  158.3700  213.6160  150.7530 C   0  0  2  0  0  3  0  0  0  0  0  0
  156.0070  213.7580  150.4570 O   0  0  0  0  0  1  0  0  0  0  0  0
  157.1990  214.4530  150.2650 C   0  0  0  0  0  2  0  0  0  0  0  0
  158.5140  213.7550  152.2640 C   0  0  0  0  0  2  0  0  0  0  0  0
  158.1260  212.4710  152.9880 C   0  0  0  0  0  2  0  0  0  0  0  0
  157.1870  212.7590  154.1480 C   0  0  2  0  0  3  0  0  0  0  0  0
  156.7040  214.0650  154.0510 O   0  0  0  0  0  1  0  0  0  0  0  0
  157.9040  212.6060  155.4000 N   0  0  0  0  0  1  0  0  0  0  0  0
  2  1  1  0  0  0  0
  3  4  2  0  0  0  0
  4  1  1  0  0  0  0
  5  3  1  0  0  0  0
  5  2  2  0  0  0  0
  6 12  1  6  0  0  0
  6 11  1  0  0  0  0
  7  8  1  0  0  0  0
  7 11  1  0  0  0  0
  9  1  1  6  0  0  0
  9  8  1  0  0  0  0
 10  9  1  0  0  0  0
 10  6  1  0  0  0  0
 13 12  1  0  0  0  0
 14 13  1  0  0  0  0
 15 20  2  0  0  0  0
 16 17  1  0  0  0  0
 17 18  1  0  0  0  0
 18 14  1  1  0  0  0
 19 15  1  0  0  0  0
 19 17  2  0  0  0  0
 20 18  1  0  0  0  0
 21 22  2  0  0  0  0
 22 19  1  0  0  0  0
 23 22  1  0  0  0  0
 24 26  1  6  0  0  0
 24  3  1  0  0  0  0
 25 26  1  0  0  0  0
 28 27  1  1  0  0  0
 28 24  1  0  0  0  0
 28 29  1  0  0  0  0
 29 30  1  0  0  0  0
 30 31  1  0  0  0  0
 31 33  1  6  0  0  0
 31 34  1  0  0  0  0
 33 32  1  0  0  0  0
 34 35  1  0  0  0  0
 35 36  1  0  0  0  0
 36 37  1  6  0  0  0
 36 38  1  0  0  0  0
M  END
>  <MODEL>
5

>  <REMARK>
 VINA RESULT:      -6.1      2.719      5.394
  Name = 
  16 active torsions:
  status: ('A' for Active; 'I' for Inactive)
    1  A    between atoms: C_1  and  C_35
    2  A    between atoms: N_3  and  C_22
    3  A    between atoms: C_8  and  C_29
    4  A    between atoms: C_8  and  C_31
    5  A    between atoms: C_8  and  O_37
    6  A    between atoms: C_10  and  C_21
    7  A    between atoms: C_10  and  C_35
    8  A    between atoms: C_12  and  C_21
    9  A    between atoms: C_13  and  C_32
   10  A    between atoms: C_14  and  C_16
   11  A    between atoms: C_15  and  C_20
   12  A    between atoms: C_17  and  C_30
   13  A    between atoms: C_17  and  O_37
   14  A    between atoms: C_20  and  C_30
   15  A    between atoms: C_20  and  C_38
   16  A    between atoms: C_31  and  C_32
                            x       y       z     vdW  Elec       q    Type
                         _______ _______ _______ _____ _____    ______ ____

>  <TORSDO>
F 16

$$$$
=
 OpenBabel11052409323D

 38 40  0  0  1  0  0  0  0  0999 V2000
  160.5980  202.5530  149.5970 N   0  0  0  0  0  0  0  0  0  0  0  0
  160.8850  201.2360  149.5560 C   0  0  0  0  0  3  0  0  0  0  0  0
  161.0290  202.0820  147.5540 C   0  0  0  0  0  0  0  0  0  0  0  0
  160.7020  203.0820  148.3900 N   0  0  0  0  0  0  0  0  0  0  0  0
  161.1670  200.8910  148.2440 C   0  0  0  0  0  3  0  0  0  0  0  0
  160.8260  205.5960  151.7710 C   0  0  1  0  0  3  0  0  0  0  0  0
  162.4730  203.6580  151.8730 C   0  0  0  0  0  2  0  0  0  0  0  0
  161.2180  202.9060  151.9150 N   0  0  0  0  0  2  0  0  0  0  0  0
  160.3260  203.3170  150.8150 C   0  0  1  0  0  3  0  0  0  0  0  0
  160.3550  204.8340  150.5360 C   0  0  0  0  0  2  0  0  0  0  0  0
  162.2300  205.1420  152.1770 C   0  0  0  0  0  2  0  0  0  0  0  0
  160.8240  207.0910  151.5140 C   0  0  0  0  0  2  0  0  0  0  0  0
  161.6540  207.8070  152.5670 C   0  0  0  0  0  2  0  0  0  0  0  0
  160.9370  207.8190  153.9100 C   0  0  0  0  0  2  0  0  0  0  0  0
  160.5250  211.2080  153.8850 C   0  0  0  0  0  3  0  0  0  0  0  0
  159.3720  208.7770  156.5000 C   0  0  0  0  0  1  0  0  0  0  0  0
  160.0070  209.5560  155.3930 C   0  0  0  0  0  0  0  0  0  0  0  0
  161.2240  209.1070  154.6760 C   0  0  2  0  0  3  0  0  0  0  0  0
  159.6080  210.7310  154.9460 C   0  0  0  0  0  0  0  0  0  0  0  0
  161.5620  210.1810  153.7380 N   0  0  0  0  0  0  0  0  0  0  0  0
  158.5900  212.5000  156.1490 O   0  0  0  0  0  1  0  0  0  0  0  0
  158.4320  211.4970  155.4020 C   0  0  0  0  0  0  0  0  0  0  0  0
  157.1480  211.1340  155.0200 O   0  0  0  0  0  0  0  0  0  0  0  0
  161.3090  202.2580  146.0920 C   0  0  1  0  0  3  0  0  0  0  0  0
  159.9680  200.7560  144.7450 O   0  0  0  0  0  1  0  0  0  0  0  0
  160.0730  202.0710  145.2070 C   0  0  0  0  0  2  0  0  0  0  0  0
  161.4670  204.3200  144.8610 O   0  0  0  0  0  1  0  0  0  0  0  0
  162.1260  203.5220  145.7970 C   0  0  1  0  0  3  0  0  0  0  0  0
  162.4540  204.3330  147.0440 C   0  0  0  0  0  2  0  0  0  0  0  0
  162.5510  205.6880  146.7190 O   0  0  0  0  0  0  0  0  0  0  0  0
  161.8870  206.3580  147.7530 C   0  0  2  0  0  3  0  0  0  0  0  0
  160.2940  206.6530  146.0020 O   0  0  0  0  0  1  0  0  0  0  0  0
  160.4250  206.5490  147.3850 C   0  0  0  0  0  2  0  0  0  0  0  0
  162.5460  207.7130  147.9820 C   0  0  0  0  0  2  0  0  0  0  0  0
  161.5930  208.6980  148.6510 C   0  0  0  0  0  2  0  0  0  0  0  0
  162.3240  209.9590  149.0820 C   0  0  2  0  0  3  0  0  0  0  0  0
  161.9730  210.2830  150.3930 O   0  0  0  0  0  1  0  0  0  0  0  0
  161.9570  211.0540  148.2040 N   0  0  0  0  0  1  0  0  0  0  0  0
  2  1  1  0  0  0  0
  3  5  1  0  0  0  0
  3  4  2  0  0  0  0
  4  1  1  0  0  0  0
  5  2  2  0  0  0  0
  6 12  1  6  0  0  0
  6 11  1  0  0  0  0
  7  8  1  0  0  0  0
  7 11  1  0  0  0  0
  9  1  1  6  0  0  0
  9  8  1  0  0  0  0
 10  9  1  0  0  0  0
 10  6  1  0  0  0  0
 12 13  1  0  0  0  0
 13 14  1  0  0  0  0
 15 19  1  0  0  0  0
 17 16  1  0  0  0  0
 18 14  1  6  0  0  0
 18 17  1  0  0  0  0
 19 17  2  0  0  0  0
 19 22  1  0  0  0  0
 20 15  2  0  0  0  0
 20 18  1  0  0  0  0
 22 21  1  0  0  0  0
 23 22  2  0  0  0  0
 24 26  1  6  0  0  0
 24  3  1  0  0  0  0
 25 26  1  0  0  0  0
 28 27  1  6  0  0  0
 28 24  1  0  0  0  0
 28 29  1  0  0  0  0
 30 29  1  0  0  0  0
 30 31  1  0  0  0  0
 31 33  1  6  0  0  0
 31 34  1  0  0  0  0
 32 33  1  0  0  0  0
 34 35  1  0  0  0  0
 35 36  1  0  0  0  0
 36 38  1  6  0  0  0
 36 37  1  0  0  0  0
M  END
>  <MODEL>
6

>  <REMARK>
 VINA RESULT:      -5.9      3.939      8.624
  Name = 
  16 active torsions:
  status: ('A' for Active; 'I' for Inactive)
    1  A    between atoms: C_1  and  C_35
    2  A    between atoms: N_3  and  C_22
    3  A    between atoms: C_8  and  C_29
    4  A    between atoms: C_8  and  C_31
    5  A    between atoms: C_8  and  O_37
    6  A    between atoms: C_10  and  C_21
    7  A    between atoms: C_10  and  C_35
    8  A    between atoms: C_12  and  C_21
    9  A    between atoms: C_13  and  C_32
   10  A    between atoms: C_14  and  C_16
   11  A    between atoms: C_15  and  C_20
   12  A    between atoms: C_17  and  C_30
   13  A    between atoms: C_17  and  O_37
   14  A    between atoms: C_20  and  C_30
   15  A    between atoms: C_20  and  C_38
   16  A    between atoms: C_31  and  C_32
                            x       y       z     vdW  Elec       q    Type
                         _______ _______ _______ _____ _____    ______ ____

>  <TORSDO>
F 16

$$$$
=
 OpenBabel11052409323D

 38 40  0  0  1  0  0  0  0  0999 V2000
  162.1190  207.7070  149.6370 N   0  0  0  0  0  0  0  0  0  0  0  0
  161.9580  208.6820  148.7200 C   0  0  0  0  0  3  0  0  0  0  0  0
  161.4730  206.7530  147.8330 C   0  0  0  0  0  0  0  0  0  0  0  0
  161.8080  206.5330  149.1160 N   0  0  0  0  0  0  0  0  0  0  0  0
  161.5420  208.1020  147.5330 C   0  0  0  0  0  3  0  0  0  0  0  0
  161.3750  207.8050  153.3070 C   0  0  1  0  0  3  0  0  0  0  0  0
  161.1630  209.8190  151.7670 C   0  0  0  0  0  2  0  0  0  0  0  0
  162.4950  209.3590  151.3730 N   0  0  0  0  0  2  0  0  0  0  0  0
  162.4730  207.9220  151.0400 C   0  0  1  0  0  3  0  0  0  0  0  0
  161.5690  207.0900  151.9730 C   0  0  0  0  0  2  0  0  0  0  0  0
  160.7330  209.1770  153.0920 C   0  0  0  0  0  2  0  0  0  0  0  0
  160.5150  206.9760  154.2420 C   0  0  0  0  0  2  0  0  0  0  0  0
  159.8570  207.8680  155.2820 C   0  0  0  0  0  2  0  0  0  0  0  0
  160.4710  207.6460  156.6570 C   0  0  0  0  0  2  0  0  0  0  0  0
  162.2600  210.4540  155.9040 C   0  0  0  0  0  3  0  0  0  0  0  0
  158.7670  210.2550  157.2580 C   0  0  0  0  0  1  0  0  0  0  0  0
  160.1860  210.0900  156.8210 C   0  0  0  0  0  0  0  0  0  0  0  0
  161.0340  208.9440  157.2270 C   0  0  2  0  0  3  0  0  0  0  0  0
  160.8690  210.9350  156.0720 C   0  0  0  0  0  0  0  0  0  0  0  0
  162.3620  209.2020  156.6620 N   0  0  0  0  0  0  0  0  0  0  0  0
  160.1780  212.2480  154.2250 O   0  0  0  0  0  0  0  0  0  0  0  0
  160.3670  212.1850  155.4700 C   0  0  0  0  0  0  0  0  0  0  0  0
  160.0940  213.2980  156.2520 O   0  0  0  0  0  1  0  0  0  0  0  0
  160.9890  205.6930  146.8900 C   0  0  1  0  0  3  0  0  0  0  0  0
  160.6350  206.1620  144.5400 O   0  0  0  0  0  1  0  0  0  0  0  0
  160.0470  206.2250  145.8060 C   0  0  0  0  0  2  0  0  0  0  0  0
  163.3640  205.3590  146.6910 O   0  0  0  0  0  1  0  0  0  0  0  0
  162.1250  204.8010  146.3750 C   0  0  1  0  0  3  0  0  0  0  0  0
  162.0450  203.3680  146.8850 C   0  0  0  0  0  2  0  0  0  0  0  0
  161.2280  203.3110  148.0180 O   0  0  0  0  0  0  0  0  0  0  0  0
  161.2850  201.9770  148.4380 C   0  0  2  0  0  3  0  0  0  0  0  0
  161.5680  199.8600  147.3750 O   0  0  0  0  0  1  0  0  0  0  0  0
  160.8660  201.0610  147.3000 C   0  0  0  0  0  2  0  0  0  0  0  0
  160.3550  201.7830  149.6300 C   0  0  0  0  0  2  0  0  0  0  0  0
  160.2190  203.0590  150.4530 C   0  0  0  0  0  2  0  0  0  0  0  0
  160.9650  202.9410  151.7720 C   0  0  2  0  0  3  0  0  0  0  0  0
  161.5720  204.1590  152.0810 O   0  0  0  0  0  1  0  0  0  0  0  0
  161.9830  201.9140  151.6620 N   0  0  0  0  0  1  0  0  0  0  0  0
  2  1  1  0  0  0  0
  3  4  2  0  0  0  0
  4  1  1  0  0  0  0
  5  3  1  0  0  0  0
  5  2  2  0  0  0  0
  6 12  1  1  0  0  0
  7 11  1  0  0  0  0
  8  7  1  0  0  0  0
  9  1  1  6  0  0  0
  9  8  1  0  0  0  0
  9 10  1  0  0  0  0
 10  6  1  0  0  0  0
 11  6  1  0  0  0  0
 12 13  1  0  0  0  0
 13 14  1  0  0  0  0
 15 19  1  0  0  0  0
 15 20  2  0  0  0  0
 17 18  1  0  0  0  0
 17 16  1  0  0  0  0
 18 14  1  6  0  0  0
 19 17  2  0  0  0  0
 20 18  1  0  0  0  0
 21 22  2  0  0  0  0
 22 19  1  0  0  0  0
 22 23  1  0  0  0  0
 24 26  1  6  0  0  0
 24  3  1  0  0  0  0
 25 26  1  0  0  0  0
 28 27  1  1  0  0  0
 28 29  1  0  0  0  0
 28 24  1  0  0  0  0
 29 30  1  0  0  0  0
 30 31  1  0  0  0  0
 31 33  1  6  0  0  0
 31 34  1  0  0  0  0
 33 32  1  0  0  0  0
 34 35  1  0  0  0  0
 35 36  1  0  0  0  0
 36 38  1  6  0  0  0
 36 37  1  0  0  0  0
M  END
>  <MODEL>
7

>  <REMARK>
 VINA RESULT:      -5.8      4.324      9.247
  Name = 
  16 active torsions:
  status: ('A' for Active; 'I' for Inactive)
    1  A    between atoms: C_1  and  C_35
    2  A    between atoms: N_3  and  C_22
    3  A    between atoms: C_8  and  C_29
    4  A    between atoms: C_8  and  C_31
    5  A    between atoms: C_8  and  O_37
    6  A    between atoms: C_10  and  C_21
    7  A    between atoms: C_10  and  C_35
    8  A    between atoms: C_12  and  C_21
    9  A    between atoms: C_13  and  C_32
   10  A    between atoms: C_14  and  C_16
   11  A    between atoms: C_15  and  C_20
   12  A    between atoms: C_17  and  C_30
   13  A    between atoms: C_17  and  O_37
   14  A    between atoms: C_20  and  C_30
   15  A    between atoms: C_20  and  C_38
   16  A    between atoms: C_31  and  C_32
                            x       y       z     vdW  Elec       q    Type
                         _______ _______ _______ _____ _____    ______ ____

>  <TORSDO>
F 16

$$$$
=
 OpenBabel11052409323D

 38 40  0  0  1  0  0  0  0  0999 V2000
  161.6330  211.2630  149.3440 N   0  0  0  0  0  0  0  0  0  0  0  0
  161.9100  211.2330  150.6630 C   0  0  0  0  0  3  0  0  0  0  0  0
  161.9560  209.2090  149.8570 C   0  0  0  0  0  0  0  0  0  0  0  0
  161.6780  210.0420  148.8390 N   0  0  0  0  0  0  0  0  0  0  0  0
  162.1220  209.9150  151.0350 C   0  0  0  0  0  3  0  0  0  0  0  0
  160.9570  213.1250  146.1650 C   0  0  1  0  0  3  0  0  0  0  0  0
  163.2920  212.5880  147.0190 C   0  0  0  0  0  2  0  0  0  0  0  0
  162.7120  213.1370  148.2450 N   0  0  0  0  0  2  0  0  0  0  0  0
  161.4290  212.4780  148.5550 C   0  0  1  0  0  3  0  0  0  0  0  0
  160.5700  212.1900  147.3070 C   0  0  0  0  0  2  0  0  0  0  0  0
  162.4320  212.9440  145.8000 C   0  0  0  0  0  2  0  0  0  0  0  0
  160.0910  212.8700  144.9450 C   0  0  0  0  0  2  0  0  0  0  0  0
  160.9620  212.6480  143.7190 C   0  0  0  0  0  2  0  0  0  0  0  0
  160.1240  212.2070  142.5280 C   0  0  0  0  0  2  0  0  0  0  0  0
  162.7250  210.9050  140.7400 C   0  0  0  0  0  3  0  0  0  0  0  0
  159.1270  211.1540  139.7040 C   0  0  0  0  0  1  0  0  0  0  0  0
  160.5010  211.2530  140.2850 C   0  0  0  0  0  0  0  0  0  0  0  0
  160.9120  212.3220  141.2260 C   0  0  2  0  0  3  0  0  0  0  0  0
  161.5140  210.4520  140.0170 C   0  0  0  0  0  0  0  0  0  0  0  0
  162.3380  212.1080  141.4860 N   0  0  0  0  0  0  0  0  0  0  0  0
  161.4280  209.4220  137.8840 O   0  0  0  0  0  0  0  0  0  0  0  0
  161.4950  209.2690  139.1340 C   0  0  0  0  0  0  0  0  0  0  0  0
  161.5540  207.9840  139.6560 O   0  0  0  0  0  1  0  0  0  0  0  0
  162.1600  207.7320  149.7110 C   0  0  1  0  0  3  0  0  0  0  0  0
  162.7130  206.3250  151.6040 O   0  0  0  0  0  1  0  0  0  0  0  0
  161.6580  206.9250  150.9120 C   0  0  0  0  0  2  0  0  0  0  0  0
  162.7330  207.3150  147.4110 O   0  0  0  0  0  1  0  0  0  0  0  0
  161.7020  207.2060  148.3450 C   0  0  1  0  0  3  0  0  0  0  0  0
  161.1820  205.7760  148.3940 C   0  0  0  0  0  2  0  0  0  0  0  0
  161.1260  205.2450  147.1020 O   0  0  0  0  0  0  0  0  0  0  0  0
  161.6660  203.9590  147.2140 C   0  0  2  0  0  3  0  0  0  0  0  0
  161.1710  203.8960  144.8810 O   0  0  0  0  0  1  0  0  0  0  0  0
  161.2240  203.1120  146.0320 C   0  0  0  0  0  2  0  0  0  0  0  0
  161.1900  203.3230  148.5150 C   0  0  0  0  0  2  0  0  0  0  0  0
  161.3030  201.8040  148.4750 C   0  0  0  0  0  2  0  0  0  0  0  0
  160.5260  201.1670  149.6160 C   0  0  2  0  0  3  0  0  0  0  0  0
  159.1560  201.3230  149.3980 O   0  0  0  0  0  1  0  0  0  0  0  0
  160.8870  201.8110  150.8650 N   0  0  0  0  0  1  0  0  0  0  0  0
  1  2  1  0  0  0  0
  2  5  2  0  0  0  0
  3  5  1  0  0  0  0
  4  1  1  0  0  0  0
  4  3  2  0  0  0  0
  6 12  1  6  0  0  0
  6 10  1  0  0  0  0
  7  8  1  0  0  0  0
  8  9  1  0  0  0  0
  9 10  1  6  0  0  0
  9  1  1  0  0  0  0
 11  6  1  0  0  0  0
 11  7  1  0  0  0  0
 13 12  1  0  0  0  0
 14 13  1  0  0  0  0
 15 20  2  0  0  0  0
 16 17  1  0  0  0  0
 17 18  1  0  0  0  0
 18 20  1  0  0  0  0
 18 14  1  1  0  0  0
 19 17  2  0  0  0  0
 19 15  1  0  0  0  0
 21 22  2  0  0  0  0
 22 23  1  0  0  0  0
 22 19  1  0  0  0  0
 24  3  1  0  0  0  0
 24 26  1  1  0  0  0
 26 25  1  0  0  0  0
 28 27  1  6  0  0  0
 28 29  1  0  0  0  0
 28 24  1  0  0  0  0
 30 31  1  0  0  0  0
 30 29  1  0  0  0  0
 31 33  1  6  0  0  0
 31 34  1  0  0  0  0
 32 33  1  0  0  0  0
 35 34  1  0  0  0  0
 35 36  1  0  0  0  0
 36 37  1  6  0  0  0
 36 38  1  0  0  0  0
M  END
>  <MODEL>
8

>  <REMARK>
 VINA RESULT:      -5.8      2.808      9.023
  Name = 
  16 active torsions:
  status: ('A' for Active; 'I' for Inactive)
    1  A    between atoms: C_1  and  C_35
    2  A    between atoms: N_3  and  C_22
    3  A    between atoms: C_8  and  C_29
    4  A    between atoms: C_8  and  C_31
    5  A    between atoms: C_8  and  O_37
    6  A    between atoms: C_10  and  C_21
    7  A    between atoms: C_10  and  C_35
    8  A    between atoms: C_12  and  C_21
    9  A    between atoms: C_13  and  C_32
   10  A    between atoms: C_14  and  C_16
   11  A    between atoms: C_15  and  C_20
   12  A    between atoms: C_17  and  C_30
   13  A    between atoms: C_17  and  O_37
   14  A    between atoms: C_20  and  C_30
   15  A    between atoms: C_20  and  C_38
   16  A    between atoms: C_31  and  C_32
                            x       y       z     vdW  Elec       q    Type
                         _______ _______ _______ _____ _____    ______ ____

>  <TORSDO>
F 16

$$$$
=
 OpenBabel11052409323D

 38 40  0  0  1  0  0  0  0  0999 V2000
  161.9970  210.4780  150.1970 N   0  0  0  0  0  0  0  0  0  0  0  0
  162.0990  210.1600  148.8910 C   0  0  0  0  0  3  0  0  0  0  0  0
  161.3350  212.1900  149.0960 C   0  0  0  0  0  0  0  0  0  0  0  0
  161.5540  211.7160  150.3340 N   0  0  0  0  0  0  0  0  0  0  0  0
  161.6740  211.2460  148.1420 C   0  0  0  0  0  3  0  0  0  0  0  0
  162.2710  207.2070  152.0030 C   0  0  1  0  0  3  0  0  0  0  0  0
  160.3970  208.8840  152.3920 C   0  0  0  0  0  2  0  0  0  0  0  0
  161.5460  209.7870  152.4780 N   0  0  0  0  0  2  0  0  0  0  0  0
  162.4260  209.6260  151.3060 C   0  0  1  0  0  3  0  0  0  0  0  0
  162.5780  208.1590  150.8510 C   0  0  0  0  0  2  0  0  0  0  0  0
  160.8430  207.4210  152.5100 C   0  0  0  0  0  2  0  0  0  0  0  0
  162.4520  205.7650  151.5710 C   0  0  0  0  0  2  0  0  0  0  0  0
  161.1750  204.9770  151.8190 C   0  0  0  0  0  2  0  0  0  0  0  0
  161.1890  203.6610  151.0540 C   0  0  0  0  0  2  0  0  0  0  0  0
  161.5640  203.7260  147.6610 C   0  0  0  0  0  3  0  0  0  0  0  0
  159.5010  201.3420  149.6950 C   0  0  0  0  0  1  0  0  0  0  0  0
  160.3010  202.4530  149.0960 C   0  0  0  0  0  0  0  0  0  0  0  0
  160.4440  203.7860  149.7280 C   0  0  2  0  0  3  0  0  0  0  0  0
  160.9350  202.4140  147.9400 C   0  0  0  0  0  0  0  0  0  0  0  0
  161.2260  204.5980  148.7900 N   0  0  0  0  0  0  0  0  0  0  0  0
  161.5710  200.1910  147.4190 O   0  0  0  0  0  1  0  0  0  0  0  0
  161.0310  201.2600  147.0240 C   0  0  0  0  0  0  0  0  0  0  0  0
  160.5320  201.3290  145.7310 O   0  0  0  0  0  0  0  0  0  0  0  0
  160.8860  213.5870  148.7900 C   0  0  1  0  0  3  0  0  0  0  0  0
  162.3780  214.3960  147.0620 O   0  0  0  0  0  1  0  0  0  0  0  0
  161.0700  213.9800  147.3210 C   0  0  0  0  0  2  0  0  0  0  0  0
  158.4990  213.4060  148.5380 O   0  0  0  0  0  1  0  0  0  0  0  0
  159.5030  213.9010  149.3720 C   0  0  1  0  0  3  0  0  0  0  0  0
  159.3130  213.3800  150.7910 C   0  0  0  0  0  2  0  0  0  0  0  0
  159.3100  214.4470  151.6940 O   0  0  0  0  0  0  0  0  0  0  0  0
  158.7420  213.9310  152.8640 C   0  0  2  0  0  3  0  0  0  0  0  0
  160.0290  212.3780  154.1410 O   0  0  0  0  0  1  0  0  0  0  0  0
  159.1710  212.4840  153.0470 C   0  0  0  0  0  2  0  0  0  0  0  0
  157.2240  214.0140  152.7680 C   0  0  0  0  0  2  0  0  0  0  0  0
  156.5440  213.2430  153.8940 C   0  0  0  0  0  2  0  0  0  0  0  0
  156.4720  214.0760  155.1630 C   0  0  2  0  0  3  0  0  0  0  0  0
  157.5020  213.7050  156.0290 O   0  0  0  0  0  1  0  0  0  0  0  0
  155.1950  213.8540  155.8150 N   0  0  0  0  0  1  0  0  0  0  0  0
  1  4  1  0  0  0  0
  2  1  1  0  0  0  0
  3  4  2  0  0  0  0
  5  2  2  0  0  0  0
  5  3  1  0  0  0  0
  6 12  1  6  0  0  0
  6 11  1  0  0  0  0
  7  8  1  0  0  0  0
  7 11  1  0  0  0  0
  9  1  1  6  0  0  0
  9  8  1  0  0  0  0
 10  9  1  0  0  0  0
 10  6  1  0  0  0  0
 12 13  1  0  0  0  0
 14 13  1  0  0  0  0
 15 19  1  0  0  0  0
 15 20  2  0  0  0  0
 17 16  1  0  0  0  0
 17 18  1  0  0  0  0
 18 14  1  1  0  0  0
 19 17  2  0  0  0  0
 20 18  1  0  0  0  0
 22 21  1  0  0  0  0
 22 19  1  0  0  0  0
 23 22  2  0  0  0  0
 24 26  1  6  0  0  0
 24  3  1  0  0  0  0
 24 28  1  0  0  0  0
 25 26  1  0  0  0  0
 28 27  1  6  0  0  0
 28 29  1  0  0  0  0
 29 30  1  0  0  0  0
 30 31  1  0  0  0  0
 31 34  1  6  0  0  0
 31 33  1  0  0  0  0
 33 32  1  0  0  0  0
 34 35  1  0  0  0  0
 35 36  1  0  0  0  0
 36 38  1  1  0  0  0
 36 37  1  0  0  0  0
M  END
>  <MODEL>
9

>  <REMARK>
 VINA RESULT:      -5.7      3.061      6.307
  Name = 
  16 active torsions:
  status: ('A' for Active; 'I' for Inactive)
    1  A    between atoms: C_1  and  C_35
    2  A    between atoms: N_3  and  C_22
    3  A    between atoms: C_8  and  C_29
    4  A    between atoms: C_8  and  C_31
    5  A    between atoms: C_8  and  O_37
    6  A    between atoms: C_10  and  C_21
    7  A    between atoms: C_10  and  C_35
    8  A    between atoms: C_12  and  C_21
    9  A    between atoms: C_13  and  C_32
   10  A    between atoms: C_14  and  C_16
   11  A    between atoms: C_15  and  C_20
   12  A    between atoms: C_17  and  C_30
   13  A    between atoms: C_17  and  O_37
   14  A    between atoms: C_20  and  C_30
   15  A    between atoms: C_20  and  C_38
   16  A    between atoms: C_31  and  C_32
                            x       y       z     vdW  Elec       q    Type
                         _______ _______ _______ _____ _____    ______ ____

>  <TORSDO>
F 16

$$$$
