=
 OpenBabel11042423083D

 37 42  0  0  1  0  0  0  0  0999 V2000
  162.5850  210.3280  152.5830 O   0  0  0  0  0  0  0  0  0  0  0  0
  161.6680  210.3650  150.4350 N   0  0  0  0  0  2  0  0  0  0  0  0
  162.2890  209.6930  151.5360 C   0  0  0  0  0  0  0  0  0  0  0  0
  160.2400  213.4110  148.7090 C   0  0  2  0  0  3  0  0  0  0  0  0
  160.6260  214.3700  147.5650 C   0  0  0  0  0  2  0  0  0  0  0  0
  160.3110  212.1610  151.2930 C   0  0  0  0  0  3  0  0  0  0  0  0
  161.4730  211.8090  150.4020 C   0  0  2  0  0  3  0  0  0  0  0  0
  159.6060  213.2850  151.1100 C   0  0  0  0  0  0  0  0  0  0  0  0
  161.9890  211.8180  147.9710 C   0  0  0  0  0  3  0  0  0  0  0  0
  159.9400  214.2110  149.9770 C   0  0  0  0  0  2  0  0  0  0  0  0
  161.2480  212.2990  148.9810 C   0  0  0  0  0  0  0  0  0  0  0  0
  161.8100  212.3570  146.5870 C   0  0  0  0  0  2  0  0  0  0  0  0
  158.2310  213.6300  152.1410 Cl  0  0  0  0  0  0  0  0  0  0  0  0
  161.7710  213.8800  146.6670 C   0  0  1  0  0  3  0  0  0  0  0  0
  160.2960  212.7170  144.5170 O   0  0  0  0  0  0  0  0  0  0  0  0
  160.8590  213.8270  144.3070 C   0  0  0  0  0  0  0  0  0  0  0  0
  161.6260  214.4530  145.3370 N   0  0  0  0  0  2  0  0  0  0  0  0
  160.7490  214.4530  143.0620 O   0  0  0  0  0  0  0  0  0  0  0  0
  161.7760  214.3860  142.0810 C   0  0  0  0  0  2  0  0  0  0  0  0
  161.6370  213.1160  141.2640 C   0  0  0  0  0  1  0  0  0  0  0  0
  162.5800  208.3320  151.4560 O   0  0  0  0  0  0  0  0  0  0  0  0
  163.3090  205.7860  152.2680 C   0  0  0  0  0  1  0  0  0  0  0  0
  160.8710  206.7910  152.3560 C   0  0  1  0  0  3  0  0  0  0  0  0
  161.5770  207.3740  151.1220 C   0  0  2  0  0  3  0  0  0  0  0  0
  161.9370  205.9770  151.6200 C   0  0  1  0  0  0  0  0  0  0  0  0
  160.7800  208.9310  155.5210 C   0  0  1  0  0  3  0  0  0  0  0  0
  160.9210  207.5400  156.1040 C   0  0  0  0  0  2  0  0  0  0  0  0
  160.3000  208.3320  154.2150 C   0  0  2  0  0  3  0  0  0  0  0  0
  159.6830  209.6260  156.1700 N   0  0  0  0  0  1  0  0  0  0  0  0
  160.4450  206.9400  154.7970 C   0  0  1  0  0  3  0  0  0  0  0  0
  161.3560  207.3910  153.6740 C   0  0  1  0  0  3  0  0  0  0  0  0
  161.1330  203.6170  151.3020 C   0  0  0  0  0  3  0  0  0  0  0  0
  160.5430  202.7820  149.1060 C   0  0  0  0  0  3  0  0  0  0  0  0
  161.2910  205.0710  149.3700 C   0  0  0  0  0  3  0  0  0  0  0  0
  161.4230  204.8730  150.7510 C   0  0  0  0  0  0  0  0  0  0  0  0
  160.6880  202.5750  150.4820 C   0  0  0  0  0  3  0  0  0  0  0  0
  160.8470  204.0280  148.5500 C   0  0  0  0  0  3  0  0  0  0  0  0
  2  3  1  0  0  0  0
  3  1  2  0  0  0  0
  4  5  1  6  0  0  0
  4 11  1  0  0  0  0
  4 10  1  0  0  0  0
  7  2  1  6  0  0  0
  7  6  1  0  0  0  0
  8  6  2  0  0  0  0
  8 13  1  0  0  0  0
  9 11  2  0  0  0  0
 10  8  1  0  0  0  0
 11  7  1  0  0  0  0
 12 14  1  0  0  0  0
 12  9  1  0  0  0  0
 14 17  1  6  0  0  0
 14  5  1  0  0  0  0
 16 15  2  0  0  0  0
 16 17  1  0  0  0  0
 18 16  1  0  0  0  0
 19 18  1  0  0  0  0
 20 19  1  0  0  0  0
 21  3  1  0  0  0  0
 23 31  1  1  0  0  0
 24 21  1  1  0  0  0
 24 25  1  0  0  0  0
 24 23  1  0  0  0  0
 25 22  1  1  0  0  0
 25 23  1  0  0  0  0
 26 27  1  0  0  0  0
 26 29  1  1  0  0  0
 28 30  1  0  0  0  0
 28 26  1  0  0  0  0
 30 27  1  0  0  0  0
 31 28  1  0  0  0  0
 31 30  1  0  0  0  0
 33 36  1  0  0  0  0
 34 35  2  0  0  0  0
 35 32  1  0  0  0  0
 35 25  1  0  0  0  0
 36 32  2  0  0  0  0
 37 33  2  0  0  0  0
 37 34  1  0  0  0  0
M  END
>  <MODEL>
1

>  <REMARK>
 VINA RESULT:      -6.8      0.000      0.000
  Name = 
  8 active torsions:
  status: ('A' for Active; 'I' for Inactive)
    1  A    between atoms: O_1  and  C_16
    2  A    between atoms: O_1  and  C_24
    3  A    between atoms: C_8  and  O_25
    4  A    between atoms: C_13  and  O_25
    5  A    between atoms: N_14  and  C_17
    6  A    between atoms: C_23  and  C_33
    7  A    between atoms: C_26  and  C_32
    8  A    between atoms: N_30  and  C_36
                            x       y       z     vdW  Elec       q    Type
                         _______ _______ _______ _____ _____    ______ ____

>  <TORSDO>
F 8

$$$$
=
 OpenBabel11042423083D

 37 42  0  0  1  0  0  0  0  0999 V2000
  163.2510  211.3070  149.3680 O   0  0  0  0  0  0  0  0  0  0  0  0
  161.6700  209.6510  148.9080 N   0  0  0  0  0  2  0  0  0  0  0  0
  162.2610  210.9350  148.6840 C   0  0  0  0  0  0  0  0  0  0  0  0
  160.8140  207.8720  152.1340 C   0  0  2  0  0  3  0  0  0  0  0  0
  160.7580  208.1910  153.6410 C   0  0  0  0  0  2  0  0  0  0  0  0
  161.9480  207.3460  149.5500 C   0  0  0  0  0  3  0  0  0  0  0  0
  162.0750  208.7770  150.0020 C   0  0  2  0  0  3  0  0  0  0  0  0
  161.7850  206.3470  150.4270 C   0  0  0  0  0  0  0  0  0  0  0  0
  160.9580  210.2940  151.6230 C   0  0  0  0  0  3  0  0  0  0  0  0
  161.6880  206.6410  151.8960 C   0  0  0  0  0  2  0  0  0  0  0  0
  161.2450  209.0380  151.2480 C   0  0  0  0  0  0  0  0  0  0  0  0
  160.2020  210.5440  152.8890 C   0  0  0  0  0  2  0  0  0  0  0  0
  161.5940  204.7030  149.8530 Cl  0  0  0  0  0  0  0  0  0  0  0  0
  160.8150  209.6850  153.9920 C   0  0  1  0  0  3  0  0  0  0  0  0
  160.4560  212.2280  155.2380 O   0  0  0  0  0  0  0  0  0  0  0  0
  159.9690  211.2190  155.8180 C   0  0  0  0  0  0  0  0  0  0  0  0
  160.1290  209.9160  155.2540 N   0  0  0  0  0  2  0  0  0  0  0  0
  159.2760  211.3600  157.0240 O   0  0  0  0  0  0  0  0  0  0  0  0
  158.0400  212.0560  157.1170 C   0  0  0  0  0  2  0  0  0  0  0  0
  157.1780  211.7580  155.9060 C   0  0  0  0  0  1  0  0  0  0  0  0
  161.7400  211.7900  147.7140 O   0  0  0  0  0  0  0  0  0  0  0  0
  161.1540  214.4440  148.2490 C   0  0  0  0  0  1  0  0  0  0  0  0
  159.9720  212.9440  146.4290 C   0  0  1  0  0  3  0  0  0  0  0  0
  160.3380  212.0410  147.6180 C   0  0  2  0  0  3  0  0  0  0  0  0
  160.0080  213.5130  147.8480 C   0  0  1  0  0  0  0  0  0  0  0  0
  162.3060  213.0000  143.4040 C   0  0  1  0  0  3  0  0  0  0  0  0
  161.8820  214.4520  143.4820 C   0  0  0  0  0  2  0  0  0  0  0  0
  161.1130  212.6090  144.2510 C   0  0  2  0  0  3  0  0  0  0  0  0
  162.1230  212.5090  142.0490 N   0  0  0  0  0  1  0  0  0  0  0  0
  160.6920  214.0630  144.3340 C   0  0  1  0  0  3  0  0  0  0  0  0
  161.1740  213.3410  145.5750 C   0  0  1  0  0  3  0  0  0  0  0  0
  158.5230  213.5960  149.8750 C   0  0  0  0  0  3  0  0  0  0  0  0
  156.1590  214.0870  149.6730 C   0  0  0  0  0  3  0  0  0  0  0  0
  157.5590  214.0420  147.6970 C   0  0  0  0  0  3  0  0  0  0  0  0
  158.6750  213.7420  148.4880 C   0  0  0  0  0  0  0  0  0  0  0  0
  157.2680  213.7740  150.4660 C   0  0  0  0  0  3  0  0  0  0  0  0
  156.3040  214.2190  148.2890 C   0  0  0  0  0  3  0  0  0  0  0  0
  3  2  1  0  0  0  0
  3  1  2  0  0  0  0
  4 10  1  1  0  0  0
  4  5  1  0  0  0  0
  5 14  1  0  0  0  0
  6  7  1  0  0  0  0
  6  8  2  0  0  0  0
  7  2  1  6  0  0  0
  7 11  1  0  0  0  0
  8 10  1  0  0  0  0
  9 12  1  0  0  0  0
 11  9  2  0  0  0  0
 11  4  1  0  0  0  0
 12 14  1  0  0  0  0
 13  8  1  0  0  0  0
 14 17  1  1  0  0  0
 15 16  2  0  0  0  0
 16 18  1  0  0  0  0
 17 16  1  0  0  0  0
 18 19  1  0  0  0  0
 20 19  1  0  0  0  0
 21  3  1  0  0  0  0
 23 31  1  6  0  0  0
 23 24  1  0  0  0  0
 23 25  1  0  0  0  0
 24 21  1  6  0  0  0
 24 25  1  0  0  0  0
 25 22  1  1  0  0  0
 25 35  1  0  0  0  0
 26 29  1  6  0  0  0
 26 27  1  0  0  0  0
 26 28  1  0  0  0  0
 27 30  1  0  0  0  0
 28 30  1  0  0  0  0
 28 31  1  0  0  0  0
 30 31  1  0  0  0  0
 32 36  1  0  0  0  0
 33 36  2  0  0  0  0
 34 37  2  0  0  0  0
 34 35  1  0  0  0  0
 35 32  2  0  0  0  0
 37 33  1  0  0  0  0
M  END
>  <MODEL>
2

>  <REMARK>
 VINA RESULT:      -6.8      2.956      9.849
  Name = 
  8 active torsions:
  status: ('A' for Active; 'I' for Inactive)
    1  A    between atoms: O_1  and  C_16
    2  A    between atoms: O_1  and  C_24
    3  A    between atoms: C_8  and  O_25
    4  A    between atoms: C_13  and  O_25
    5  A    between atoms: N_14  and  C_17
    6  A    between atoms: C_23  and  C_33
    7  A    between atoms: C_26  and  C_32
    8  A    between atoms: N_30  and  C_36
                            x       y       z     vdW  Elec       q    Type
                         _______ _______ _______ _____ _____    ______ ____

>  <TORSDO>
F 8

$$$$
=
 OpenBabel11042423083D

 37 42  0  0  1  0  0  0  0  0999 V2000
  161.2000  210.1720  147.8670 O   0  0  0  0  0  0  0  0  0  0  0  0
  161.9780  211.5050  149.6200 N   0  0  0  0  0  2  0  0  0  0  0  0
  161.7620  210.2370  148.9930 C   0  0  0  0  0  0  0  0  0  0  0  0
  160.7800  213.5070  146.6440 C   0  0  2  0  0  3  0  0  0  0  0  0
  161.3890  214.3500  145.5070 C   0  0  0  0  0  2  0  0  0  0  0  0
  159.9630  212.7860  149.3000 C   0  0  0  0  0  3  0  0  0  0  0  0
  161.4530  212.7520  149.0800 C   0  0  2  0  0  3  0  0  0  0  0  0
  159.1590  213.5290  148.5290 C   0  0  0  0  0  0  0  0  0  0  0  0
  163.0180  212.5740  147.1580 C   0  0  0  0  0  3  0  0  0  0  0  0
  159.7280  214.3260  147.3920 C   0  0  0  0  0  2  0  0  0  0  0  0
  161.7960  212.8990  147.6060 C   0  0  0  0  0  0  0  0  0  0  0  0
  163.3710  212.7890  145.7200 C   0  0  0  0  0  2  0  0  0  0  0  0
  157.4270  213.4990  148.7920 Cl  0  0  0  0  0  0  0  0  0  0  0  0
  162.9030  214.1840  145.3140 C   0  0  1  0  0  3  0  0  0  0  0  0
  162.1560  212.5670  143.0840 O   0  0  0  0  0  0  0  0  0  0  0  0
  162.8310  213.6080  142.8510 C   0  0  0  0  0  0  0  0  0  0  0  0
  163.2500  214.4500  143.9260 N   0  0  0  0  0  2  0  0  0  0  0  0
  163.1870  213.9450  141.5420 O   0  0  0  0  0  0  0  0  0  0  0  0
  162.5010  213.4290  140.4080 C   0  0  0  0  0  2  0  0  0  0  0  0
  163.4660  212.6780  139.5110 C   0  0  0  0  0  1  0  0  0  0  0  0
  162.1630  209.0610  149.6260 O   0  0  0  0  0  0  0  0  0  0  0  0
  163.3370  207.0260  151.0940 C   0  0  0  0  0  1  0  0  0  0  0  0
  160.8240  207.8080  151.2810 C   0  0  1  0  0  3  0  0  0  0  0  0
  161.2600  207.9730  149.8170 C   0  0  2  0  0  3  0  0  0  0  0  0
  161.8730  206.8720  150.6780 C   0  0  1  0  0  0  0  0  0  0  0  0
  160.8880  210.8760  153.5590 C   0  0  1  0  0  3  0  0  0  0  0  0
  161.3510  209.7900  154.5070 C   0  0  0  0  0  2  0  0  0  0  0  0
  160.3100  209.8220  152.6370 C   0  0  2  0  0  3  0  0  0  0  0  0
  159.8090  211.6330  154.1700 N   0  0  0  0  0  1  0  0  0  0  0  0
  160.7780  208.7340  153.5840 C   0  0  1  0  0  3  0  0  0  0  0  0
  161.4080  208.8680  152.2120 C   0  0  1  0  0  3  0  0  0  0  0  0
  161.1300  204.5670  151.3510 C   0  0  0  0  0  3  0  0  0  0  0  0
  160.5760  202.8960  149.6860 C   0  0  0  0  0  3  0  0  0  0  0  0
  161.2650  205.1130  148.9940 C   0  0  0  0  0  3  0  0  0  0  0  0
  161.3930  205.4970  150.3350 C   0  0  0  0  0  0  0  0  0  0  0  0
  160.7170  203.2700  151.0270 C   0  0  0  0  0  3  0  0  0  0  0  0
  160.8530  203.8160  148.6710 C   0  0  0  0  0  3  0  0  0  0  0  0
  1  3  2  0  0  0  0
  3  2  1  0  0  0  0
  3 21  1  0  0  0  0
  4  5  1  6  0  0  0
  4 10  1  0  0  0  0
  4 11  1  0  0  0  0
  7  6  1  0  0  0  0
  7  2  1  6  0  0  0
  8 13  1  0  0  0  0
  8  6  2  0  0  0  0
  9 11  2  0  0  0  0
 10  8  1  0  0  0  0
 11  7  1  0  0  0  0
 12  9  1  0  0  0  0
 14 17  1  6  0  0  0
 14  5  1  0  0  0  0
 14 12  1  0  0  0  0
 16 15  2  0  0  0  0
 16 17  1  0  0  0  0
 18 16  1  0  0  0  0
 19 18  1  0  0  0  0
 20 19  1  0  0  0  0
 23 31  1  1  0  0  0
 24 21  1  1  0  0  0
 24 25  1  0  0  0  0
 24 23  1  0  0  0  0
 25 22  1  1  0  0  0
 25 23  1  0  0  0  0
 26 29  1  1  0  0  0
 26 27  1  0  0  0  0
 28 26  1  0  0  0  0
 28 30  1  0  0  0  0
 30 27  1  0  0  0  0
 31 28  1  0  0  0  0
 31 30  1  0  0  0  0
 33 36  2  0  0  0  0
 34 35  1  0  0  0  0
 35 25  1  0  0  0  0
 35 32  2  0  0  0  0
 36 32  1  0  0  0  0
 37 34  2  0  0  0  0
 37 33  1  0  0  0  0
M  END
>  <MODEL>
3

>  <REMARK>
 VINA RESULT:      -6.2      1.784      2.178
  Name = 
  8 active torsions:
  status: ('A' for Active; 'I' for Inactive)
    1  A    between atoms: O_1  and  C_16
    2  A    between atoms: O_1  and  C_24
    3  A    between atoms: C_8  and  O_25
    4  A    between atoms: C_13  and  O_25
    5  A    between atoms: N_14  and  C_17
    6  A    between atoms: C_23  and  C_33
    7  A    between atoms: C_26  and  C_32
    8  A    between atoms: N_30  and  C_36
                            x       y       z     vdW  Elec       q    Type
                         _______ _______ _______ _____ _____    ______ ____

>  <TORSDO>
F 8

$$$$
=
 OpenBabel11042423083D

 37 42  0  0  1  0  0  0  0  0999 V2000
  159.5090  209.6400  152.2810 O   0  0  0  0  0  0  0  0  0  0  0  0
  161.7340  209.7650  152.9780 N   0  0  0  0  0  2  0  0  0  0  0  0
  160.3350  210.0120  153.1560 C   0  0  0  0  0  0  0  0  0  0  0  0
  161.2860  207.6410  149.8820 C   0  0  2  0  0  3  0  0  0  0  0  0
  161.3560  206.1520  149.4910 C   0  0  0  0  0  2  0  0  0  0  0  0
  162.1960  210.2490  150.6640 C   0  0  0  0  0  3  0  0  0  0  0  0
  162.2870  209.2100  151.7500 C   0  0  2  0  0  3  0  0  0  0  0  0
  162.1710  209.9070  149.3690 C   0  0  0  0  0  0  0  0  0  0  0  0
  161.2500  207.0140  152.2800 C   0  0  0  0  0  3  0  0  0  0  0  0
  162.1970  208.4610  148.9700 C   0  0  0  0  0  2  0  0  0  0  0  0
  161.5680  207.9310  151.3530 C   0  0  0  0  0  0  0  0  0  0  0  0
  160.6060  205.7280  151.8720 C   0  0  0  0  0  2  0  0  0  0  0  0
  162.0140  211.1480  148.1420 Cl  0  0  0  0  0  0  0  0  0  0  0  0
  161.3660  205.1700  150.6720 C   0  0  1  0  0  3  0  0  0  0  0  0
  162.1410  202.6030  151.6510 O   0  0  0  0  0  0  0  0  0  0  0  0
  161.2140  202.6470  150.7960 C   0  0  0  0  0  0  0  0  0  0  0  0
  160.7910  203.9000  150.2540 N   0  0  0  0  0  2  0  0  0  0  0  0
  160.5950  201.4720  150.3590 O   0  0  0  0  0  0  0  0  0  0  0  0
  161.0070  200.7840  149.1850 C   0  0  0  0  0  2  0  0  0  0  0  0
  160.7320  201.6310  147.9570 C   0  0  0  0  0  1  0  0  0  0  0  0
  159.8760  210.6760  154.2920 O   0  0  0  0  0  0  0  0  0  0  0  0
  159.6890  213.2170  155.3810 C   0  0  0  0  0  1  0  0  0  0  0  0
  158.1530  212.2440  153.4690 C   0  0  1  0  0  3  0  0  0  0  0  0
  158.5160  211.0880  154.4150 C   0  0  2  0  0  3  0  0  0  0  0  0
  158.4000  212.5120  154.9550 C   0  0  1  0  0  0  0  0  0  0  0  0
  159.9610  213.1800  150.2350 C   0  0  1  0  0  3  0  0  0  0  0  0
  160.1260  214.4470  151.0480 C   0  0  0  0  0  2  0  0  0  0  0  0
  158.8180  212.7550  151.1340 C   0  0  2  0  0  3  0  0  0  0  0  0
  159.4490  213.5060  148.9160 N   0  0  0  0  0  1  0  0  0  0  0  0
  158.9870  214.0210  151.9500 C   0  0  1  0  0  3  0  0  0  0  0  0
  159.3060  212.6750  152.5650 C   0  0  1  0  0  3  0  0  0  0  0  0
  156.3700  211.6700  156.1740 C   0  0  0  0  0  3  0  0  0  0  0  0
  154.8400  213.2020  157.2610 C   0  0  0  0  0  3  0  0  0  0  0  0
  156.7980  214.0550  156.1180 C   0  0  0  0  0  3  0  0  0  0  0  0
  157.1770  212.7480  155.7830 C   0  0  0  0  0  0  0  0  0  0  0  0
  155.2060  211.8970  156.9170 C   0  0  0  0  0  3  0  0  0  0  0  0
  155.6340  214.2810  156.8590 C   0  0  0  0  0  3  0  0  0  0  0  0
  1  3  2  0  0  0  0
  2  3  1  0  0  0  0
  3 21  1  0  0  0  0
  4 10  1  6  0  0  0
  4 11  1  0  0  0  0
  5  4  1  0  0  0  0
  5 14  1  0  0  0  0
  6  7  1  0  0  0  0
  7  2  1  1  0  0  0
  8  6  2  0  0  0  0
 10  8  1  0  0  0  0
 11  7  1  0  0  0  0
 11  9  2  0  0  0  0
 12  9  1  0  0  0  0
 13  8  1  0  0  0  0
 14 17  1  6  0  0  0
 14 12  1  0  0  0  0
 16 15  2  0  0  0  0
 17 16  1  0  0  0  0
 18 16  1  0  0  0  0
 19 18  1  0  0  0  0
 20 19  1  0  0  0  0
 23 31  1  6  0  0  0
 23 24  1  0  0  0  0
 23 25  1  0  0  0  0
 24 21  1  6  0  0  0
 24 25  1  0  0  0  0
 25 22  1  1  0  0  0
 25 35  1  0  0  0  0
 26 29  1  6  0  0  0
 26 27  1  0  0  0  0
 26 28  1  0  0  0  0
 27 30  1  0  0  0  0
 28 30  1  0  0  0  0
 28 31  1  0  0  0  0
 30 31  1  0  0  0  0
 32 36  1  0  0  0  0
 34 37  2  0  0  0  0
 35 34  1  0  0  0  0
 35 32  2  0  0  0  0
 36 33  2  0  0  0  0
 37 33  1  0  0  0  0
M  END
>  <MODEL>
4

>  <REMARK>
 VINA RESULT:      -6.0      3.944      9.085
  Name = 
  8 active torsions:
  status: ('A' for Active; 'I' for Inactive)
    1  A    between atoms: O_1  and  C_16
    2  A    between atoms: O_1  and  C_24
    3  A    between atoms: C_8  and  O_25
    4  A    between atoms: C_13  and  O_25
    5  A    between atoms: N_14  and  C_17
    6  A    between atoms: C_23  and  C_33
    7  A    between atoms: C_26  and  C_32
    8  A    between atoms: N_30  and  C_36
                            x       y       z     vdW  Elec       q    Type
                         _______ _______ _______ _____ _____    ______ ____

>  <TORSDO>
F 8

$$$$
=
 OpenBabel11042423083D

 37 42  0  0  1  0  0  0  0  0999 V2000
  158.3190  212.0420  151.6540 O   0  0  0  0  0  0  0  0  0  0  0  0
  159.6960  213.9220  151.4970 N   0  0  0  0  0  2  0  0  0  0  0  0
  159.2360  212.7400  152.1620 C   0  0  0  0  0  0  0  0  0  0  0  0
  158.4990  213.3990  147.9490 C   0  0  2  0  0  3  0  0  0  0  0  0
  159.0850  213.4270  146.5230 C   0  0  0  0  0  2  0  0  0  0  0  0
  157.5620  214.3830  150.4770 C   0  0  0  0  0  3  0  0  0  0  0  0
  159.0570  214.4530  150.3000 C   0  0  2  0  0  3  0  0  0  0  0  0
  156.7350  214.3410  149.4250 C   0  0  0  0  0  0  0  0  0  0  0  0
  160.7900  213.3610  148.8940 C   0  0  0  0  0  3  0  0  0  0  0  0
  157.2880  214.3270  148.0300 C   0  0  0  0  0  2  0  0  0  0  0  0
  159.5020  213.6970  149.0590 C   0  0  0  0  0  0  0  0  0  0  0  0
  161.2320  212.6800  147.6380 C   0  0  0  0  0  2  0  0  0  0  0  0
  155.0060  214.2100  149.6800 Cl  0  0  0  0  0  0  0  0  0  0  0  0
  160.6190  213.4180  146.4510 C   0  0  1  0  0  3  0  0  0  0  0  0
  162.9300  214.1610  144.9490 O   0  0  0  0  0  0  0  0  0  0  0  0
  162.2230  213.2150  144.5040 C   0  0  0  0  0  0  0  0  0  0  0  0
  161.0450  212.8060  145.2010 N   0  0  0  0  0  2  0  0  0  0  0  0
  162.5760  212.5620  143.3200 O   0  0  0  0  0  0  0  0  0  0  0  0
  162.4270  213.1660  142.0420 C   0  0  0  0  0  2  0  0  0  0  0  0
  161.9880  212.1330  141.0220 C   0  0  0  0  0  1  0  0  0  0  0  0
  159.7930  212.3570  153.3810 O   0  0  0  0  0  0  0  0  0  0  0  0
  160.5240  212.3110  156.0520 C   0  0  0  0  0  1  0  0  0  0  0  0
  158.3520  211.2140  155.0320 C   0  0  1  0  0  3  0  0  0  0  0  0
  159.4720  211.1040  153.9840 C   0  0  2  0  0  3  0  0  0  0  0  0
  159.8120  211.0880  155.4720 C   0  0  1  0  0  0  0  0  0  0  0  0
  155.8770  214.0960  154.6220 C   0  0  1  0  0  3  0  0  0  0  0  0
  155.9510  213.9790  156.1300 C   0  0  0  0  0  2  0  0  0  0  0  0
  156.4380  212.6960  154.4870 C   0  0  2  0  0  3  0  0  0  0  0  0
  154.4870  214.1070  154.1990 N   0  0  0  0  0  1  0  0  0  0  0  0
  156.5180  212.5800  155.9960 C   0  0  1  0  0  3  0  0  0  0  0  0
  157.7870  212.6260  155.1710 C   0  0  1  0  0  3  0  0  0  0  0  0
  161.4600  209.5740  156.6180 C   0  0  0  0  0  3  0  0  0  0  0  0
  161.0160  207.2060  156.8690 C   0  0  0  0  0  3  0  0  0  0  0  0
  159.3890  208.6320  155.7810 C   0  0  0  0  0  3  0  0  0  0  0  0
  160.2190  209.7430  155.9860 C   0  0  0  0  0  0  0  0  0  0  0  0
  161.8550  208.3080  157.0630 C   0  0  0  0  0  3  0  0  0  0  0  0
  159.7850  207.3670  156.2260 C   0  0  0  0  0  3  0  0  0  0  0  0
  1  3  2  0  0  0  0
  2  3  1  0  0  0  0
  3 21  1  0  0  0  0
  4  5  1  6  0  0  0
  4 10  1  0  0  0  0
  4 11  1  0  0  0  0
  7  6  1  0  0  0  0
  7  2  1  1  0  0  0
  8 13  1  0  0  0  0
  8  6  2  0  0  0  0
  9 11  2  0  0  0  0
 10  8  1  0  0  0  0
 11  7  1  0  0  0  0
 12  9  1  0  0  0  0
 14 17  1  6  0  0  0
 14  5  1  0  0  0  0
 14 12  1  0  0  0  0
 16 15  2  0  0  0  0
 16 17  1  0  0  0  0
 18 16  1  0  0  0  0
 19 18  1  0  0  0  0
 20 19  1  0  0  0  0
 23 31  1  6  0  0  0
 23 25  1  0  0  0  0
 24 21  1  6  0  0  0
 24 23  1  0  0  0  0
 24 25  1  0  0  0  0
 25 35  1  0  0  0  0
 25 22  1  1  0  0  0
 26 29  1  1  0  0  0
 26 27  1  0  0  0  0
 28 26  1  0  0  0  0
 28 31  1  0  0  0  0
 28 30  1  0  0  0  0
 30 27  1  0  0  0  0
 31 30  1  0  0  0  0
 32 36  1  0  0  0  0
 33 36  2  0  0  0  0
 34 35  1  0  0  0  0
 34 37  2  0  0  0  0
 35 32  2  0  0  0  0
 37 33  1  0  0  0  0
M  END
>  <MODEL>
5

>  <REMARK>
 VINA RESULT:      -5.8      4.098      5.362
  Name = 
  8 active torsions:
  status: ('A' for Active; 'I' for Inactive)
    1  A    between atoms: O_1  and  C_16
    2  A    between atoms: O_1  and  C_24
    3  A    between atoms: C_8  and  O_25
    4  A    between atoms: C_13  and  O_25
    5  A    between atoms: N_14  and  C_17
    6  A    between atoms: C_23  and  C_33
    7  A    between atoms: C_26  and  C_32
    8  A    between atoms: N_30  and  C_36
                            x       y       z     vdW  Elec       q    Type
                         _______ _______ _______ _____ _____    ______ ____

>  <TORSDO>
F 8

$$$$
=
 OpenBabel11042423083D

 37 42  0  0  1  0  0  0  0  0999 V2000
  161.5610  208.4350  148.4690 O   0  0  0  0  0  0  0  0  0  0  0  0
  161.9850  209.8310  150.2940 N   0  0  0  0  0  2  0  0  0  0  0  0
  162.0700  208.5740  149.6130 C   0  0  0  0  0  0  0  0  0  0  0  0
  160.6480  213.3370  150.7590 C   0  0  2  0  0  3  0  0  0  0  0  0
  159.4580  214.0300  151.4530 C   0  0  0  0  0  2  0  0  0  0  0  0
  162.0700  211.7480  148.8380 C   0  0  0  0  0  3  0  0  0  0  0  0
  161.2080  210.9530  149.7830 C   0  0  2  0  0  3  0  0  0  0  0  0
  161.8270  213.0420  148.5910 C   0  0  0  0  0  0  0  0  0  0  0  0
  160.1800  211.2570  152.0250 C   0  0  0  0  0  3  0  0  0  0  0  0
  160.6980  213.7440  149.2880 C   0  0  0  0  0  2  0  0  0  0  0  0
  160.6860  211.8200  150.9160 C   0  0  0  0  0  0  0  0  0  0  0  0
  159.6030  212.1160  153.1050 C   0  0  0  0  0  2  0  0  0  0  0  0
  162.8860  213.9390  147.5220 Cl  0  0  0  0  0  0  0  0  0  0  0  0
  158.6920  213.1550  152.4570 C   0  0  1  0  0  3  0  0  0  0  0  0
  156.4380  212.4500  154.0600 O   0  0  0  0  0  0  0  0  0  0  0  0
  156.9640  213.5800  154.2560 C   0  0  0  0  0  0  0  0  0  0  0  0
  158.0840  214.0000  153.4740 N   0  0  0  0  0  2  0  0  0  0  0  0
  156.4510  214.4420  155.2300 O   0  0  0  0  0  0  0  0  0  0  0  0
  156.1470  214.0080  156.5490 C   0  0  0  0  0  2  0  0  0  0  0  0
  154.6510  214.0670  156.7880 C   0  0  0  0  0  1  0  0  0  0  0  0
  162.7070  207.4900  150.2150 O   0  0  0  0  0  0  0  0  0  0  0  0
  160.1150  207.2190  151.1550 C   0  0  0  0  0  1  0  0  0  0  0  0
  162.2210  205.8990  152.0420 C   0  0  1  0  0  3  0  0  0  0  0  0
  162.6860  207.3050  151.6300 C   0  0  2  0  0  3  0  0  0  0  0  0
  161.2680  207.0910  152.1530 C   0  0  1  0  0  0  0  0  0  0  0  0
  161.3870  202.6670  150.1830 C   0  0  1  0  0  3  0  0  0  0  0  0
  160.2180  203.5460  149.7920 C   0  0  0  0  0  2  0  0  0  0  0  0
  161.6760  203.5770  151.3580 C   0  0  2  0  0  3  0  0  0  0  0  0
  160.8980  201.3870  150.6660 N   0  0  0  0  0  1  0  0  0  0  0  0
  160.5090  204.4600  150.9640 C   0  0  1  0  0  3  0  0  0  0  0  0
  161.9270  204.9840  150.8560 C   0  0  1  0  0  3  0  0  0  0  0  0
  160.4700  206.8000  154.5190 C   0  0  0  0  0  3  0  0  0  0  0  0
  160.5540  208.6330  156.1010 C   0  0  0  0  0  3  0  0  0  0  0  0
  161.3560  208.9500  153.8370 C   0  0  0  0  0  3  0  0  0  0  0  0
  161.0460  207.6170  153.5360 C   0  0  0  0  0  0  0  0  0  0  0  0
  160.2290  207.3060  155.8000 C   0  0  0  0  0  3  0  0  0  0  0  0
  161.1140  209.4550  155.1190 C   0  0  0  0  0  3  0  0  0  0  0  0
  1  3  2  0  0  0  0
  3 21  1  0  0  0  0
  3  2  1  0  0  0  0
  4 10  1  6  0  0  0
  4 11  1  0  0  0  0
  4  5  1  0  0  0  0
  5 14  1  0  0  0  0
  6  7  1  0  0  0  0
  7  2  1  1  0  0  0
  7 11  1  0  0  0  0
  8  6  2  0  0  0  0
  8 10  1  0  0  0  0
  9 12  1  0  0  0  0
 11  9  2  0  0  0  0
 13  8  1  0  0  0  0
 14 12  1  0  0  0  0
 14 17  1  1  0  0  0
 15 16  2  0  0  0  0
 16 18  1  0  0  0  0
 17 16  1  0  0  0  0
 18 19  1  0  0  0  0
 19 20  1  0  0  0  0
 23 31  1  6  0  0  0
 23 25  1  0  0  0  0
 24 21  1  6  0  0  0
 24 23  1  0  0  0  0
 24 25  1  0  0  0  0
 25 22  1  6  0  0  0
 25 35  1  0  0  0  0
 26 29  1  1  0  0  0
 26 28  1  0  0  0  0
 27 26  1  0  0  0  0
 27 30  1  0  0  0  0
 30 28  1  0  0  0  0
 31 30  1  0  0  0  0
 31 28  1  0  0  0  0
 32 36  1  0  0  0  0
 34 37  2  0  0  0  0
 35 34  1  0  0  0  0
 35 32  2  0  0  0  0
 36 33  2  0  0  0  0
 37 33  1  0  0  0  0
M  END
>  <MODEL>
6

>  <REMARK>
 VINA RESULT:      -5.5      3.358      7.011
  Name = 
  8 active torsions:
  status: ('A' for Active; 'I' for Inactive)
    1  A    between atoms: O_1  and  C_16
    2  A    between atoms: O_1  and  C_24
    3  A    between atoms: C_8  and  O_25
    4  A    between atoms: C_13  and  O_25
    5  A    between atoms: N_14  and  C_17
    6  A    between atoms: C_23  and  C_33
    7  A    between atoms: C_26  and  C_32
    8  A    between atoms: N_30  and  C_36
                            x       y       z     vdW  Elec       q    Type
                         _______ _______ _______ _____ _____    ______ ____

>  <TORSDO>
F 8

$$$$
=
 OpenBabel11042423083D

 37 42  0  0  1  0  0  0  0  0999 V2000
  160.3530  206.6920  153.7650 O   0  0  0  0  0  0  0  0  0  0  0  0
  161.3690  207.3410  151.7640 N   0  0  0  0  0  2  0  0  0  0  0  0
  161.0300  207.5510  153.1390 C   0  0  0  0  0  0  0  0  0  0  0  0
  161.8050  204.8790  148.9270 C   0  0  2  0  0  3  0  0  0  0  0  0
  161.5910  204.8360  147.4020 C   0  0  0  0  0  2  0  0  0  0  0  0
  161.1490  204.9430  151.7220 C   0  0  0  0  0  3  0  0  0  0  0  0
  160.8520  206.2230  150.9860 C   0  0  2  0  0  3  0  0  0  0  0  0
  161.2340  203.7710  151.0780 C   0  0  0  0  0  0  0  0  0  0  0  0
  161.5800  207.3480  148.8930 C   0  0  0  0  0  3  0  0  0  0  0  0
  161.0690  203.7140  149.5880 C   0  0  0  0  0  2  0  0  0  0  0  0
  161.4450  206.2080  149.5870 C   0  0  0  0  0  0  0  0  0  0  0  0
  162.0980  207.3150  147.4910 C   0  0  0  0  0  2  0  0  0  0  0  0
  161.6310  202.3140  151.9680 Cl  0  0  0  0  0  0  0  0  0  0  0  0
  161.3740  206.2040  146.7370 C   0  0  1  0  0  3  0  0  0  0  0  0
  160.1050  204.7460  144.6360 O   0  0  0  0  0  0  0  0  0  0  0  0
  161.1360  205.4130  144.3440 C   0  0  0  0  0  0  0  0  0  0  0  0
  161.8270  206.1510  145.3550 N   0  0  0  0  0  2  0  0  0  0  0  0
  161.6230  205.4320  143.0340 O   0  0  0  0  0  0  0  0  0  0  0  0
  161.9420  206.6400  142.3560 C   0  0  0  0  0  2  0  0  0  0  0  0
  162.2850  206.3510  140.9070 C   0  0  0  0  0  1  0  0  0  0  0  0
  161.4360  208.7120  153.7950 O   0  0  0  0  0  0  0  0  0  0  0  0
  159.3320  210.1410  152.6970 C   0  0  0  0  0  1  0  0  0  0  0  0
  161.5210  211.1810  153.7410 C   0  0  1  0  0  3  0  0  0  0  0  0
  161.9040  209.8500  153.0730 C   0  0  2  0  0  3  0  0  0  0  0  0
  160.7510  210.6820  152.5160 C   0  0  1  0  0  0  0  0  0  0  0  0
  159.5990  212.1920  156.8840 C   0  0  1  0  0  3  0  0  0  0  0  0
  158.5870  211.3070  156.1870 C   0  0  0  0  0  2  0  0  0  0  0  0
  160.3460  212.3640  155.5780 C   0  0  2  0  0  3  0  0  0  0  0  0
  158.9750  213.4500  157.2580 N   0  0  0  0  0  1  0  0  0  0  0  0
  159.3360  211.4740  154.8810 C   0  0  1  0  0  3  0  0  0  0  0  0
  160.7660  211.0060  155.0560 C   0  0  1  0  0  3  0  0  0  0  0  0
  160.4710  212.6010  150.9170 C   0  0  0  0  0  3  0  0  0  0  0  0
  161.5990  212.6160  148.7730 C   0  0  0  0  0  3  0  0  0  0  0  0
  161.9160  210.7580  150.2940 C   0  0  0  0  0  3  0  0  0  0  0  0
  161.0690  211.3710  151.2270 C   0  0  0  0  0  0  0  0  0  0  0  0
  160.7410  213.2250  149.6950 C   0  0  0  0  0  3  0  0  0  0  0  0
  162.1840  211.3820  149.0720 C   0  0  0  0  0  3  0  0  0  0  0  0
  2  3  1  0  0  0  0
  3  1  2  0  0  0  0
  3 21  1  0  0  0  0
  4  5  1  6  0  0  0
  4 11  1  0  0  0  0
  4 10  1  0  0  0  0
  7  6  1  0  0  0  0
  7  2  1  1  0  0  0
  8  6  2  0  0  0  0
  8 13  1  0  0  0  0
  9 11  2  0  0  0  0
 10  8  1  0  0  0  0
 11  7  1  0  0  0  0
 12  9  1  0  0  0  0
 14 17  1  6  0  0  0
 14  5  1  0  0  0  0
 14 12  1  0  0  0  0
 16 15  2  0  0  0  0
 16 17  1  0  0  0  0
 18 16  1  0  0  0  0
 19 18  1  0  0  0  0
 20 19  1  0  0  0  0
 23 31  1  1  0  0  0
 24 23  1  0  0  0  0
 24 21  1  1  0  0  0
 25 22  1  1  0  0  0
 25 24  1  0  0  0  0
 25 23  1  0  0  0  0
 26 29  1  6  0  0  0
 27 26  1  0  0  0  0
 28 26  1  0  0  0  0
 30 31  1  0  0  0  0
 30 28  1  0  0  0  0
 30 27  1  0  0  0  0
 31 28  1  0  0  0  0
 32 35  1  0  0  0  0
 33 37  2  0  0  0  0
 33 36  1  0  0  0  0
 34 35  2  0  0  0  0
 35 25  1  0  0  0  0
 36 32  2  0  0  0  0
 37 34  1  0  0  0  0
M  END
>  <MODEL>
7

>  <REMARK>
 VINA RESULT:      -5.4      3.913      6.975
  Name = 
  8 active torsions:
  status: ('A' for Active; 'I' for Inactive)
    1  A    between atoms: O_1  and  C_16
    2  A    between atoms: O_1  and  C_24
    3  A    between atoms: C_8  and  O_25
    4  A    between atoms: C_13  and  O_25
    5  A    between atoms: N_14  and  C_17
    6  A    between atoms: C_23  and  C_33
    7  A    between atoms: C_26  and  C_32
    8  A    between atoms: N_30  and  C_36
                            x       y       z     vdW  Elec       q    Type
                         _______ _______ _______ _____ _____    ______ ____

>  <TORSDO>
F 8

$$$$
=
 OpenBabel11042423083D

 37 42  0  0  1  0  0  0  0  0999 V2000
  163.2460  210.4820  149.3630 O   0  0  0  0  0  0  0  0  0  0  0  0
  161.8700  209.0940  148.0840 N   0  0  0  0  0  2  0  0  0  0  0  0
  162.3870  210.3790  148.4470 C   0  0  0  0  0  0  0  0  0  0  0  0
  160.9140  206.5290  150.6920 C   0  0  2  0  0  3  0  0  0  0  0  0
  160.9830  206.3670  152.2230 C   0  0  0  0  0  2  0  0  0  0  0  0
  161.8230  206.6880  147.9740 C   0  0  0  0  0  3  0  0  0  0  0  0
  162.1900  207.8780  148.8200 C   0  0  2  0  0  3  0  0  0  0  0  0
  161.5520  205.4970  148.5220 C   0  0  0  0  0  0  0  0  0  0  0  0
  161.4020  208.9480  150.9200 C   0  0  0  0  0  3  0  0  0  0  0  0
  161.5750  205.3300  150.0140 C   0  0  0  0  0  2  0  0  0  0  0  0
  161.4740  207.8450  150.1610 C   0  0  0  0  0  0  0  0  0  0  0  0
  160.7590  208.8890  152.2690 C   0  0  0  0  0  2  0  0  0  0  0  0
  161.0820  204.1530  147.5010 Cl  0  0  0  0  0  0  0  0  0  0  0  0
  161.2870  207.6570  153.0000 C   0  0  1  0  0  3  0  0  0  0  0  0
  160.8460  209.8650  154.7550 O   0  0  0  0  0  0  0  0  0  0  0  0
  160.4990  208.7200  155.1570 C   0  0  0  0  0  0  0  0  0  0  0  0
  160.7080  207.5720  154.3320 N   0  0  0  0  0  2  0  0  0  0  0  0
  159.9160  208.5560  156.4170 O   0  0  0  0  0  0  0  0  0  0  0  0
  159.6860  207.2760  156.9920 C   0  0  0  0  0  2  0  0  0  0  0  0
  161.0060  206.5790  157.2610 C   0  0  0  0  0  1  0  0  0  0  0  0
  161.9370  211.5280  147.7980 O   0  0  0  0  0  0  0  0  0  0  0  0
  161.4560  214.1860  148.4120 C   0  0  0  0  0  1  0  0  0  0  0  0
  160.2180  212.7880  146.5480 C   0  0  1  0  0  3  0  0  0  0  0  0
  160.5470  211.8370  147.7100 C   0  0  2  0  0  3  0  0  0  0  0  0
  160.2750  213.3140  147.9840 C   0  0  1  0  0  0  0  0  0  0  0  0
  162.4710  212.9840  143.4680 C   0  0  1  0  0  3  0  0  0  0  0  0
  162.2110  214.4510  143.7430 C   0  0  0  0  0  2  0  0  0  0  0  0
  161.2630  212.6160  144.3040 C   0  0  2  0  0  3  0  0  0  0  0  0
  162.2040  212.6920  142.0710 N   0  0  0  0  0  1  0  0  0  0  0  0
  161.0060  214.0840  144.5830 C   0  0  1  0  0  3  0  0  0  0  0  0
  161.4360  213.1630  145.7060 C   0  0  1  0  0  3  0  0  0  0  0  0
  157.7710  213.5070  147.8770 C   0  0  0  0  0  3  0  0  0  0  0  0
  156.4830  214.1530  149.8240 C   0  0  0  0  0  3  0  0  0  0  0  0
  158.8920  213.9560  149.9780 C   0  0  0  0  0  3  0  0  0  0  0  0
  158.9520  213.5770  148.6310 C   0  0  0  0  0  0  0  0  0  0  0  0
  156.5390  213.7900  148.4750 C   0  0  0  0  0  3  0  0  0  0  0  0
  157.6600  214.2390  150.5740 C   0  0  0  0  0  3  0  0  0  0  0  0
  2  3  1  0  0  0  0
  3  1  2  0  0  0  0
  4 10  1  6  0  0  0
  4  5  1  0  0  0  0
  5 14  1  0  0  0  0
  6  8  2  0  0  0  0
  6  7  1  0  0  0  0
  7  2  1  6  0  0  0
  7 11  1  0  0  0  0
  8 10  1  0  0  0  0
  9 12  1  0  0  0  0
 11  4  1  0  0  0  0
 11  9  2  0  0  0  0
 12 14  1  0  0  0  0
 13  8  1  0  0  0  0
 14 17  1  1  0  0  0
 15 16  2  0  0  0  0
 16 18  1  0  0  0  0
 17 16  1  0  0  0  0
 18 19  1  0  0  0  0
 19 20  1  0  0  0  0
 21  3  1  0  0  0  0
 23 31  1  6  0  0  0
 23 24  1  0  0  0  0
 23 25  1  0  0  0  0
 24 21  1  6  0  0  0
 24 25  1  0  0  0  0
 25 22  1  1  0  0  0
 25 35  1  0  0  0  0
 26 29  1  6  0  0  0
 26 27  1  0  0  0  0
 26 28  1  0  0  0  0
 27 30  1  0  0  0  0
 28 30  1  0  0  0  0
 28 31  1  0  0  0  0
 30 31  1  0  0  0  0
 32 36  2  0  0  0  0
 32 35  1  0  0  0  0
 33 37  2  0  0  0  0
 34 37  1  0  0  0  0
 35 34  2  0  0  0  0
 36 33  1  0  0  0  0
M  END
>  <MODEL>
8

>  <REMARK>
 VINA RESULT:      -5.3      2.813     10.107
  Name = 
  8 active torsions:
  status: ('A' for Active; 'I' for Inactive)
    1  A    between atoms: O_1  and  C_16
    2  A    between atoms: O_1  and  C_24
    3  A    between atoms: C_8  and  O_25
    4  A    between atoms: C_13  and  O_25
    5  A    between atoms: N_14  and  C_17
    6  A    between atoms: C_23  and  C_33
    7  A    between atoms: C_26  and  C_32
    8  A    between atoms: N_30  and  C_36
                            x       y       z     vdW  Elec       q    Type
                         _______ _______ _______ _____ _____    ______ ____

>  <TORSDO>
F 8

$$$$
=
 OpenBabel11042423083D

 37 42  0  0  1  0  0  0  0  0999 V2000
  162.4510  209.8890  149.3480 O   0  0  0  0  0  0  0  0  0  0  0  0
  161.4070  208.4820  147.8030 N   0  0  0  0  0  2  0  0  0  0  0  0
  161.6410  209.7660  148.3910 C   0  0  0  0  0  0  0  0  0  0  0  0
  161.0780  205.5010  150.1070 C   0  0  2  0  0  3  0  0  0  0  0  0
  161.3080  205.1690  151.5950 C   0  0  0  0  0  2  0  0  0  0  0  0
  161.7050  206.1290  147.3770 C   0  0  0  0  0  3  0  0  0  0  0  0
  161.9680  207.2520  148.3470 C   0  0  2  0  0  3  0  0  0  0  0  0
  161.6650  204.8530  147.7800 C   0  0  0  0  0  0  0  0  0  0  0  0
  161.2230  207.9220  150.6210 C   0  0  0  0  0  3  0  0  0  0  0  0
  161.8450  204.5120  149.2310 C   0  0  0  0  0  2  0  0  0  0  0  0
  161.3880  206.9440  149.7180 C   0  0  0  0  0  0  0  0  0  0  0  0
  160.7190  207.5990  151.9920 C   0  0  0  0  0  2  0  0  0  0  0  0
  161.3080  203.5850  146.6240 Cl  0  0  0  0  0  0  0  0  0  0  0  0
  161.4860  206.3870  152.5130 C   0  0  1  0  0  3  0  0  0  0  0  0
  160.9960  208.2620  154.6080 O   0  0  0  0  0  0  0  0  0  0  0  0
  160.8050  207.0410  154.8610 C   0  0  0  0  0  0  0  0  0  0  0  0
  161.0490  206.0510  153.8590 N   0  0  0  0  0  2  0  0  0  0  0  0
  160.3640  206.6380  156.1240 O   0  0  0  0  0  0  0  0  0  0  0  0
  160.4170  207.4920  157.2590 C   0  0  0  0  0  2  0  0  0  0  0  0
  161.5760  208.4620  157.1320 C   0  0  0  0  0  1  0  0  0  0  0  0
  160.9660  210.8900  147.9170 O   0  0  0  0  0  0  0  0  0  0  0  0
  159.4060  212.1200  145.9870 C   0  0  0  0  0  1  0  0  0  0  0  0
  161.0600  213.3440  147.6390 C   0  0  1  0  0  3  0  0  0  0  0  0
  161.6630  211.9710  147.2990 C   0  0  2  0  0  3  0  0  0  0  0  0
  160.7920  212.6980  146.2780 C   0  0  1  0  0  0  0  0  0  0  0  0
  159.2170  212.9560  150.9630 C   0  0  1  0  0  3  0  0  0  0  0  0
  158.7790  214.3430  150.5380 C   0  0  0  0  0  2  0  0  0  0  0  0
  160.3890  213.0360  150.0080 C   0  0  2  0  0  3  0  0  0  0  0  0
  159.7010  212.9930  152.3320 N   0  0  0  0  0  1  0  0  0  0  0  0
  159.9480  214.4210  149.5780 C   0  0  1  0  0  3  0  0  0  0  0  0
  159.8770  213.2660  148.6010 C   0  0  1  0  0  3  0  0  0  0  0  0
  162.8290  213.8260  145.3310 C   0  0  0  0  0  3  0  0  0  0  0  0
  162.9520  214.4190  142.9850 C   0  0  0  0  0  3  0  0  0  0  0  0
  160.9800  213.3110  143.8510 C   0  0  0  0  0  3  0  0  0  0  0  0
  161.5570  213.2700  145.1270 C   0  0  0  0  0  0  0  0  0  0  0  0
  163.5270  214.3940  144.2600 C   0  0  0  0  0  3  0  0  0  0  0  0
  161.6780  213.8810  142.7820 C   0  0  0  0  0  3  0  0  0  0  0  0
  2  3  1  0  0  0  0
  3  1  2  0  0  0  0
  4 10  1  6  0  0  0
  4  5  1  0  0  0  0
  5 14  1  0  0  0  0
  6  8  2  0  0  0  0
  6  7  1  0  0  0  0
  7  2  1  6  0  0  0
  7 11  1  0  0  0  0
  8 10  1  0  0  0  0
  9 12  1  0  0  0  0
 11  4  1  0  0  0  0
 11  9  2  0  0  0  0
 12 14  1  0  0  0  0
 13  8  1  0  0  0  0
 14 17  1  1  0  0  0
 15 16  2  0  0  0  0
 16 18  1  0  0  0  0
 17 16  1  0  0  0  0
 18 19  1  0  0  0  0
 20 19  1  0  0  0  0
 21  3  1  0  0  0  0
 23 31  1  1  0  0  0
 24 23  1  0  0  0  0
 24 21  1  1  0  0  0
 25 22  1  6  0  0  0
 25 24  1  0  0  0  0
 25 23  1  0  0  0  0
 26 29  1  1  0  0  0
 27 26  1  0  0  0  0
 28 26  1  0  0  0  0
 30 28  1  0  0  0  0
 30 27  1  0  0  0  0
 31 30  1  0  0  0  0
 31 28  1  0  0  0  0
 33 36  1  0  0  0  0
 34 35  2  0  0  0  0
 35 32  1  0  0  0  0
 35 25  1  0  0  0  0
 36 32  2  0  0  0  0
 37 33  2  0  0  0  0
 37 34  1  0  0  0  0
M  END
>  <MODEL>
9

>  <REMARK>
 VINA RESULT:      -5.0      3.014      9.686
  Name = 
  8 active torsions:
  status: ('A' for Active; 'I' for Inactive)
    1  A    between atoms: O_1  and  C_16
    2  A    between atoms: O_1  and  C_24
    3  A    between atoms: C_8  and  O_25
    4  A    between atoms: C_13  and  O_25
    5  A    between atoms: N_14  and  C_17
    6  A    between atoms: C_23  and  C_33
    7  A    between atoms: C_26  and  C_32
    8  A    between atoms: N_30  and  C_36
                            x       y       z     vdW  Elec       q    Type
                         _______ _______ _______ _____ _____    ______ ____

>  <TORSDO>
F 8

$$$$
