=
 OpenBabel11042422393D

 33 35  0  0  1  0  0  0  0  0999 V2000
  161.2320  204.4040  151.2920 C   0  0  0  0  0  0  0  0  0  0  0  0
  160.7440  206.5840  145.9240 C   0  0  0  0  0  1  0  0  0  0  0  0
  160.8470  205.8130  147.1900 C   0  0  0  0  0  0  0  0  0  0  0  0
  161.2640  205.5460  151.9580 C   0  0  0  0  0  0  0  0  0  0  0  0
  160.9820  206.5150  148.4310 N   0  0  0  0  0  2  0  0  0  0  0  0
  161.2200  206.6870  150.9880 C   0  0  2  0  0  3  0  0  0  0  0  0
  161.1040  205.9020  149.7190 C   0  0  0  0  0  0  0  0  0  0  0  0
  161.1180  204.6200  149.8950 N   0  0  0  0  0  0  0  0  0  0  0  0
  160.8150  204.5550  147.1540 O   0  0  0  0  0  0  0  0  0  0  0  0
  161.2980  205.6320  153.3510 O   0  0  0  0  0  0  0  0  0  0  0  0
  160.7910  206.7560  154.0510 C   0  0  0  0  0  1  0  0  0  0  0  0
  162.5440  207.4350  150.9930 C   0  0  0  0  0  2  0  0  0  0  0  0
  162.3040  208.8940  151.1580 C   0  0  0  0  0  3  0  0  0  0  0  0
  161.3010  209.3230  151.9190 C   0  0  0  0  0  3  0  0  0  0  0  0
  158.4070  211.4960  154.3440 C   0  0  0  0  0  0  0  0  0  0  0  0
  159.7470  211.0000  152.5470 C   0  0  0  0  0  0  0  0  0  0  0  0
  160.8810  211.0810  153.4410 C   0  0  0  0  0  0  0  0  0  0  0  0
  161.0550  210.7840  152.0830 C   0  0  1  0  0  3  0  0  0  0  0  0
  159.4950  211.9050  156.6560 C   0  0  0  0  0  1  0  0  0  0  0  0
  158.4610  211.1940  152.9240 C   0  0  0  0  0  3  0  0  0  0  0  0
  160.9200  211.3420  154.7380 N   0  0  0  0  0  0  0  0  0  0  0  0
  159.6270  211.5590  155.2110 C   0  0  0  0  0  0  0  0  0  0  0  0
  156.4450  212.9970  154.9630 N   0  0  0  0  0  2  0  0  0  0  0  0
  157.0630  211.7060  154.9320 C   0  0  0  0  0  0  0  0  0  0  0  0
  156.4280  210.7250  155.4020 O   0  0  0  0  0  0  0  0  0  0  0  0
  157.1350  214.1670  154.6200 N   0  0  0  0  0  1  0  0  0  0  0  0
  161.1970  203.0480  151.9170 C   0  0  0  0  0  2  0  0  0  0  0  0
  161.3950  201.9680  150.8650 C   0  0  0  0  0  2  0  0  0  0  0  0
  160.1170  201.3700  150.5190 N   0  0  0  0  0  2  0  0  0  0  0  0
  159.9800  201.4770  149.0790 C   0  0  0  0  0  2  0  0  0  0  0  0
  161.3340  201.2770  148.4280 C   0  0  0  0  0  2  0  0  0  0  0  0
  160.8420  201.2520  146.0930 O   0  0  0  0  0  1  0  0  0  0  0  0
  161.1950  200.4400  147.1710 C   0  0  0  0  0  2  0  0  0  0  0  0
  1 27  1  0  0  0  0
  1  4  2  0  0  0  0
  2  3  1  0  0  0  0
  3  5  1  0  0  0  0
  4 10  1  0  0  0  0
  5  7  1  0  0  0  0
  6 12  1  6  0  0  0
  6  4  1  0  0  0  0
  7  8  2  0  0  0  0
  7  6  1  0  0  0  0
  8  1  1  0  0  0  0
  9  3  2  0  0  0  0
 10 11  1  0  0  0  0
 12 13  1  0  0  0  0
 13 14  2  0  0  0  0
 15 24  1  0  0  0  0
 15 22  1  0  0  0  0
 16 20  1  0  0  0  0
 16 17  2  0  0  0  0
 17 21  1  0  0  0  0
 18 14  1  1  0  0  0
 18 16  1  0  0  0  0
 18 17  1  0  0  0  0
 20 15  2  0  0  0  0
 21 22  2  0  0  0  0
 22 19  1  0  0  0  0
 24 23  1  0  0  0  0
 24 25  2  0  0  0  0
 26 23  1  0  0  0  0
 28 27  1  0  0  0  0
 29 28  1  0  0  0  0
 30 29  1  0  0  0  0
 31 30  1  0  0  0  0
 32 33  1  0  0  0  0
 33 31  1  0  0  0  0
M  END
>  <MODEL>
1

>  <REMARK>
 VINA RESULT:      -6.9      0.000      0.000
  Name = 
  11 active torsions:
  status: ('A' for Active; 'I' for Inactive)
    1  A    between atoms: O_1  and  C_16
    2  A    between atoms: C_3  and  C_6
    3  A    between atoms: C_5  and  N_12
    4  A    between atoms: C_5  and  C_19
    5  A    between atoms: C_7  and  C_21
    6  A    between atoms: C_11  and  C_15
    7  A    between atoms: N_12  and  C_33
    8  A    between atoms: C_13  and  C_14
    9  A    between atoms: C_15  and  C_20
   10  A    between atoms: C_19  and  C_32
   11  A    between atoms: C_21  and  C_33
                            x       y       z     vdW  Elec       q    Type
                         _______ _______ _______ _____ _____    ______ ____

>  <TORSDO>
F 11

$$$$
=
 OpenBabel11042422393D

 33 35  0  0  1  0  0  0  0  0999 V2000
  161.4580  206.4460  149.5120 C   0  0  0  0  0  0  0  0  0  0  0  0
  160.5520  200.7860  150.4880 C   0  0  0  0  0  1  0  0  0  0  0  0
  160.7080  202.1860  150.0160 C   0  0  0  0  0  0  0  0  0  0  0  0
  161.9700  206.7610  150.6890 C   0  0  0  0  0  0  0  0  0  0  0  0
  161.2170  203.1780  150.9150 N   0  0  0  0  0  2  0  0  0  0  0  0
  161.9660  205.5510  151.5730 C   0  0  2  0  0  3  0  0  0  0  0  0
  161.4070  204.5620  150.5980 C   0  0  0  0  0  0  0  0  0  0  0  0
  161.1170  205.0710  149.4450 N   0  0  0  0  0  0  0  0  0  0  0  0
  160.3900  202.4810  148.8340 O   0  0  0  0  0  0  0  0  0  0  0  0
  162.4610  208.0290  151.0080 O   0  0  0  0  0  0  0  0  0  0  0  0
  161.6350  209.1820  151.0040 C   0  0  0  0  0  1  0  0  0  0  0  0
  160.9800  205.7370  152.7160 C   0  0  0  0  0  2  0  0  0  0  0  0
  161.5080  206.7340  153.6860 C   0  0  0  0  0  3  0  0  0  0  0  0
  160.7500  207.7590  154.0690 C   0  0  0  0  0  3  0  0  0  0  0  0
  159.4720  211.8210  154.9830 C   0  0  0  0  0  0  0  0  0  0  0  0
  160.8980  210.0540  154.6420 C   0  0  0  0  0  0  0  0  0  0  0  0
  160.2120  209.3660  155.7140 C   0  0  0  0  0  0  0  0  0  0  0  0
  161.2780  208.7610  155.0380 C   0  0  1  0  0  3  0  0  0  0  0  0
  157.6880  211.6640  156.8510 C   0  0  0  0  0  1  0  0  0  0  0  0
  160.5840  211.2980  154.2080 C   0  0  0  0  0  3  0  0  0  0  0  0
  159.1930  209.7640  156.4610 N   0  0  0  0  0  0  0  0  0  0  0  0
  158.8060  211.0470  156.0790 C   0  0  0  0  0  0  0  0  0  0  0  0
  159.3460  214.3380  155.3550 N   0  0  0  0  0  2  0  0  0  0  0  0
  158.9780  213.1680  154.6150 C   0  0  0  0  0  0  0  0  0  0  0  0
  158.2270  213.3040  153.6120 O   0  0  0  0  0  0  0  0  0  0  0  0
  160.0340  214.2680  156.5730 N   0  0  0  0  0  1  0  0  0  0  0  0
  161.3520  207.3740  148.3460 C   0  0  0  0  0  2  0  0  0  0  0  0
  161.8850  206.7130  147.0850 C   0  0  0  0  0  2  0  0  0  0  0  0
  160.7820  206.2710  146.2500 N   0  0  0  0  0  2  0  0  0  0  0  0
  161.3620  205.7720  145.0180 C   0  0  0  0  0  2  0  0  0  0  0  0
  160.7480  204.4280  144.6800 C   0  0  0  0  0  2  0  0  0  0  0  0
  160.6730  202.1380  145.3470 O   0  0  0  0  0  1  0  0  0  0  0  0
  161.3440  203.3420  145.5580 C   0  0  0  0  0  2  0  0  0  0  0  0
  1  4  2  0  0  0  0
  3  2  1  0  0  0  0
  3  5  1  0  0  0  0
  4 10  1  0  0  0  0
  4  6  1  0  0  0  0
  6 12  1  1  0  0  0
  7  5  1  0  0  0  0
  7  6  1  0  0  0  0
  8  1  1  0  0  0  0
  8  7  2  0  0  0  0
  9  3  2  0  0  0  0
 11 10  1  0  0  0  0
 12 13  1  0  0  0  0
 13 14  2  0  0  0  0
 15 22  1  0  0  0  0
 16 18  1  0  0  0  0
 16 17  2  0  0  0  0
 17 21  1  0  0  0  0
 18 14  1  6  0  0  0
 18 17  1  0  0  0  0
 20 16  1  0  0  0  0
 20 15  2  0  0  0  0
 22 21  2  0  0  0  0
 22 19  1  0  0  0  0
 23 26  1  0  0  0  0
 24 15  1  0  0  0  0
 24 23  1  0  0  0  0
 25 24  2  0  0  0  0
 27  1  1  0  0  0  0
 28 27  1  0  0  0  0
 29 28  1  0  0  0  0
 30 29  1  0  0  0  0
 31 30  1  0  0  0  0
 31 33  1  0  0  0  0
 32 33  1  0  0  0  0
M  END
>  <MODEL>
2

>  <REMARK>
 VINA RESULT:      -6.7      1.928      3.685
  Name = 
  11 active torsions:
  status: ('A' for Active; 'I' for Inactive)
    1  A    between atoms: O_1  and  C_16
    2  A    between atoms: C_3  and  C_6
    3  A    between atoms: C_5  and  N_12
    4  A    between atoms: C_5  and  C_19
    5  A    between atoms: C_7  and  C_21
    6  A    between atoms: C_11  and  C_15
    7  A    between atoms: N_12  and  C_33
    8  A    between atoms: C_13  and  C_14
    9  A    between atoms: C_15  and  C_20
   10  A    between atoms: C_19  and  C_32
   11  A    between atoms: C_21  and  C_33
                            x       y       z     vdW  Elec       q    Type
                         _______ _______ _______ _____ _____    ______ ____

>  <TORSDO>
F 11

$$$$
=
 OpenBabel11042422393D

 33 35  0  0  1  0  0  0  0  0999 V2000
  161.1610  209.4270  151.8140 C   0  0  0  0  0  0  0  0  0  0  0  0
  162.4950  212.6010  147.1290 C   0  0  0  0  0  1  0  0  0  0  0  0
  162.0920  211.9990  148.4260 C   0  0  0  0  0  0  0  0  0  0  0  0
  161.5660  208.2500  151.3670 C   0  0  0  0  0  0  0  0  0  0  0  0
  162.2280  210.5860  148.6170 N   0  0  0  0  0  2  0  0  0  0  0  0
  162.0540  208.3950  149.9580 C   0  0  2  0  0  3  0  0  0  0  0  0
  161.8690  209.8730  149.8060 C   0  0  0  0  0  0  0  0  0  0  0  0
  161.3610  210.4460  150.8490 N   0  0  0  0  0  0  0  0  0  0  0  0
  161.6370  212.7380  149.3380 O   0  0  0  0  0  0  0  0  0  0  0  0
  161.5570  207.0830  152.1340 O   0  0  0  0  0  0  0  0  0  0  0  0
  162.5300  206.0640  151.9710 C   0  0  0  0  0  1  0  0  0  0  0  0
  161.1200  207.6740  148.9990 C   0  0  0  0  0  2  0  0  0  0  0  0
  161.8670  206.6240  148.2550 C   0  0  0  0  0  3  0  0  0  0  0  0
  161.8320  206.5960  146.9250 C   0  0  0  0  0  3  0  0  0  0  0  0
  161.3610  202.2660  146.8250 C   0  0  0  0  0  0  0  0  0  0  0  0
  162.4230  204.3020  146.8180 C   0  0  0  0  0  0  0  0  0  0  0  0
  161.6680  204.6290  145.6270 C   0  0  0  0  0  0  0  0  0  0  0  0
  162.5760  205.5430  146.1770 C   0  0  1  0  0  3  0  0  0  0  0  0
  159.6610  201.7210  144.9520 C   0  0  0  0  0  1  0  0  0  0  0  0
  162.3240  203.1290  147.4870 C   0  0  0  0  0  3  0  0  0  0  0  0
  160.7730  203.9100  144.9680 N   0  0  0  0  0  0  0  0  0  0  0  0
  160.6120  202.6740  145.5930 C   0  0  0  0  0  0  0  0  0  0  0  0
  160.3770  200.8180  148.6740 N   0  0  0  0  0  2  0  0  0  0  0  0
  161.1070  200.9470  147.4490 C   0  0  0  0  0  0  0  0  0  0  0  0
  161.5240  199.9000  146.8850 O   0  0  0  0  0  0  0  0  0  0  0  0
  160.0220  201.9250  149.4550 N   0  0  0  0  0  1  0  0  0  0  0  0
  160.6660  209.6940  153.1980 C   0  0  0  0  0  2  0  0  0  0  0  0
  161.7230  210.4180  154.0160 C   0  0  0  0  0  2  0  0  0  0  0  0
  161.5050  210.1840  155.4320 N   0  0  0  0  0  2  0  0  0  0  0  0
  160.2530  209.4600  155.5490 C   0  0  0  0  0  2  0  0  0  0  0  0
  160.2400  208.6840  156.8510 C   0  0  0  0  0  2  0  0  0  0  0  0
  160.2210  206.9630  155.1980 O   0  0  0  0  0  1  0  0  0  0  0  0
  160.2500  207.1920  156.5740 C   0  0  0  0  0  2  0  0  0  0  0  0
  1 27  1  0  0  0  0
  2  3  1  0  0  0  0
  3  5  1  0  0  0  0
  3  9  2  0  0  0  0
  4  1  2  0  0  0  0
  4 10  1  0  0  0  0
  5  7  1  0  0  0  0
  6 12  1  6  0  0  0
  6  4  1  0  0  0  0
  7  6  1  0  0  0  0
  7  8  2  0  0  0  0
  8  1  1  0  0  0  0
 11 10  1  0  0  0  0
 13 12  1  0  0  0  0
 14 13  2  0  0  0  0
 15 24  1  0  0  0  0
 15 20  1  0  0  0  0
 16 20  2  0  0  0  0
 17 18  1  0  0  0  0
 17 16  1  0  0  0  0
 18 16  1  0  0  0  0
 18 14  1  1  0  0  0
 19 22  1  0  0  0  0
 21 22  1  0  0  0  0
 21 17  2  0  0  0  0
 22 15  2  0  0  0  0
 23 26  1  0  0  0  0
 24 23  1  0  0  0  0
 25 24  2  0  0  0  0
 27 28  1  0  0  0  0
 28 29  1  0  0  0  0
 29 30  1  0  0  0  0
 30 31  1  0  0  0  0
 32 33  1  0  0  0  0
 33 31  1  0  0  0  0
M  END
>  <MODEL>
3

>  <REMARK>
 VINA RESULT:      -6.6      2.846      9.389
  Name = 
  11 active torsions:
  status: ('A' for Active; 'I' for Inactive)
    1  A    between atoms: O_1  and  C_16
    2  A    between atoms: C_3  and  C_6
    3  A    between atoms: C_5  and  N_12
    4  A    between atoms: C_5  and  C_19
    5  A    between atoms: C_7  and  C_21
    6  A    between atoms: C_11  and  C_15
    7  A    between atoms: N_12  and  C_33
    8  A    between atoms: C_13  and  C_14
    9  A    between atoms: C_15  and  C_20
   10  A    between atoms: C_19  and  C_32
   11  A    between atoms: C_21  and  C_33
                            x       y       z     vdW  Elec       q    Type
                         _______ _______ _______ _____ _____    ______ ____

>  <TORSDO>
F 11

$$$$
=
 OpenBabel11042422393D

 33 35  0  0  1  0  0  0  0  0999 V2000
  161.5820  209.0130  151.6120 C   0  0  0  0  0  0  0  0  0  0  0  0
  161.8310  212.9290  147.3220 C   0  0  0  0  0  1  0  0  0  0  0  0
  161.7000  212.1130  148.5560 C   0  0  0  0  0  0  0  0  0  0  0  0
  162.0350  207.9680  150.9400 C   0  0  0  0  0  0  0  0  0  0  0  0
  162.0120  210.7160  148.5100 N   0  0  0  0  0  2  0  0  0  0  0  0
  162.2810  208.3610  149.5160 C   0  0  2  0  0  3  0  0  0  0  0  0
  161.9190  209.8110  149.6160 C   0  0  0  0  0  0  0  0  0  0  0  0
  161.5200  210.1690  150.7940 N   0  0  0  0  0  0  0  0  0  0  0  0
  161.3150  212.6590  149.6230 O   0  0  0  0  0  0  0  0  0  0  0  0
  162.2680  206.7170  151.5160 O   0  0  0  0  0  0  0  0  0  0  0  0
  161.2640  205.7160  151.5790 C   0  0  0  0  0  1  0  0  0  0  0  0
  161.2910  207.6620  148.5970 C   0  0  0  0  0  2  0  0  0  0  0  0
  161.9700  206.5580  147.8660 C   0  0  0  0  0  3  0  0  0  0  0  0
  161.9380  206.5190  146.5360 C   0  0  0  0  0  3  0  0  0  0  0  0
  161.3690  202.2030  146.6870 C   0  0  0  0  0  0  0  0  0  0  0  0
  162.4720  204.2090  146.5130 C   0  0  0  0  0  0  0  0  0  0  0  0
  161.6550  204.4940  145.3530 C   0  0  0  0  0  0  0  0  0  0  0  0
  162.6130  205.4120  145.8010 C   0  0  1  0  0  3  0  0  0  0  0  0
  159.5480  201.6070  144.9480 C   0  0  0  0  0  1  0  0  0  0  0  0
  162.3880  203.0740  147.2470 C   0  0  0  0  0  3  0  0  0  0  0  0
  160.7070  203.7650  144.7850 N   0  0  0  0  0  0  0  0  0  0  0  0
  160.5560  202.5670  145.4820 C   0  0  0  0  0  0  0  0  0  0  0  0
  160.4270  200.8690  148.6410 N   0  0  0  0  0  2  0  0  0  0  0  0
  161.1240  200.9230  147.3920 C   0  0  0  0  0  0  0  0  0  0  0  0
  161.5190  199.8430  146.8780 O   0  0  0  0  0  0  0  0  0  0  0  0
  160.0990  202.0220  149.3670 N   0  0  0  0  0  1  0  0  0  0  0  0
  161.2810  209.0270  153.0750 C   0  0  0  0  0  2  0  0  0  0  0  0
  160.9890  210.4420  153.5480 C   0  0  0  0  0  2  0  0  0  0  0  0
  159.9670  210.4210  154.5800 N   0  0  0  0  0  2  0  0  0  0  0  0
  159.1230  211.5800  154.3580 C   0  0  0  0  0  2  0  0  0  0  0  0
  158.6070  211.5610  152.9330 C   0  0  0  0  0  2  0  0  0  0  0  0
  158.1630  212.9430  151.0400 O   0  0  0  0  0  1  0  0  0  0  0  0
  158.5020  212.9740  152.3930 C   0  0  0  0  0  2  0  0  0  0  0  0
  1 27  1  0  0  0  0
  2  3  1  0  0  0  0
  3  9  2  0  0  0  0
  4 10  1  0  0  0  0
  4  1  2  0  0  0  0
  5  3  1  0  0  0  0
  5  7  1  0  0  0  0
  6 12  1  6  0  0  0
  6  7  1  0  0  0  0
  6  4  1  0  0  0  0
  7  8  2  0  0  0  0
  8  1  1  0  0  0  0
 10 11  1  0  0  0  0
 13 12  1  0  0  0  0
 14 13  2  0  0  0  0
 15 20  1  0  0  0  0
 15 24  1  0  0  0  0
 16 20  2  0  0  0  0
 17 18  1  0  0  0  0
 17 16  1  0  0  0  0
 18 16  1  0  0  0  0
 18 14  1  1  0  0  0
 19 22  1  0  0  0  0
 21 17  2  0  0  0  0
 21 22  1  0  0  0  0
 22 15  2  0  0  0  0
 23 26  1  0  0  0  0
 24 23  1  0  0  0  0
 25 24  2  0  0  0  0
 27 28  1  0  0  0  0
 28 29  1  0  0  0  0
 30 29  1  0  0  0  0
 31 30  1  0  0  0  0
 32 33  1  0  0  0  0
 33 31  1  0  0  0  0
M  END
>  <MODEL>
4

>  <REMARK>
 VINA RESULT:      -6.5      2.847      9.659
  Name = 
  11 active torsions:
  status: ('A' for Active; 'I' for Inactive)
    1  A    between atoms: O_1  and  C_16
    2  A    between atoms: C_3  and  C_6
    3  A    between atoms: C_5  and  N_12
    4  A    between atoms: C_5  and  C_19
    5  A    between atoms: C_7  and  C_21
    6  A    between atoms: C_11  and  C_15
    7  A    between atoms: N_12  and  C_33
    8  A    between atoms: C_13  and  C_14
    9  A    between atoms: C_15  and  C_20
   10  A    between atoms: C_19  and  C_32
   11  A    between atoms: C_21  and  C_33
                            x       y       z     vdW  Elec       q    Type
                         _______ _______ _______ _____ _____    ______ ____

>  <TORSDO>
F 11

$$$$
=
 OpenBabel11042422393D

 33 35  0  0  1  0  0  0  0  0999 V2000
  161.1540  205.0260  149.5980 C   0  0  0  0  0  0  0  0  0  0  0  0
  162.1400  210.7180  150.2540 C   0  0  0  0  0  1  0  0  0  0  0  0
  161.9490  209.3000  149.8570 C   0  0  0  0  0  0  0  0  0  0  0  0
  160.7210  204.7670  150.8200 C   0  0  0  0  0  0  0  0  0  0  0  0
  161.4980  208.3520  150.8320 N   0  0  0  0  0  2  0  0  0  0  0  0
  160.7880  206.0150  151.6460 C   0  0  2  0  0  3  0  0  0  0  0  0
  161.2840  206.9570  150.5920 C   0  0  0  0  0  0  0  0  0  0  0  0
  161.4940  206.3950  149.4460 N   0  0  0  0  0  0  0  0  0  0  0  0
  162.1860  208.9500  148.6710 O   0  0  0  0  0  0  0  0  0  0  0  0
  160.2490  203.5180  151.2280 O   0  0  0  0  0  0  0  0  0  0  0  0
  161.1180  202.4230  151.4680 C   0  0  0  0  0  1  0  0  0  0  0  0
  161.8480  205.8750  152.7280 C   0  0  0  0  0  2  0  0  0  0  0  0
  161.9660  207.1470  153.4910 C   0  0  0  0  0  3  0  0  0  0  0  0
  161.2030  207.3560  154.5610 C   0  0  0  0  0  3  0  0  0  0  0  0
  159.2970  211.2310  153.9850 C   0  0  0  0  0  0  0  0  0  0  0  0
  160.9360  209.7110  154.5120 C   0  0  0  0  0  0  0  0  0  0  0  0
  160.0400  209.1780  155.5150 C   0  0  0  0  0  0  0  0  0  0  0  0
  161.3150  208.6310  155.3260 C   0  0  1  0  0  3  0  0  0  0  0  0
  157.0690  211.1940  155.3010 C   0  0  0  0  0  1  0  0  0  0  0  0
  160.6360  210.7480  153.6940 C   0  0  0  0  0  3  0  0  0  0  0  0
  158.8120  209.5510  155.8390 N   0  0  0  0  0  0  0  0  0  0  0  0
  158.4220  210.6240  155.0390 C   0  0  0  0  0  0  0  0  0  0  0  0
  158.8290  213.7060  153.6110 N   0  0  0  0  0  2  0  0  0  0  0  0
  158.7960  212.3490  153.1530 C   0  0  0  0  0  0  0  0  0  0  0  0
  158.3430  212.1150  152.0010 O   0  0  0  0  0  0  0  0  0  0  0  0
  159.1550  214.0440  154.9310 N   0  0  0  0  0  1  0  0  0  0  0  0
  161.1780  204.0460  148.4710 C   0  0  0  0  0  2  0  0  0  0  0  0
  161.9170  204.6240  147.2740 C   0  0  0  0  0  2  0  0  0  0  0  0
  161.8930  203.6790  146.1710 N   0  0  0  0  0  2  0  0  0  0  0  0
  161.0060  202.6000  146.5620 C   0  0  0  0  0  2  0  0  0  0  0  0
  160.4360  201.9420  145.3210 C   0  0  0  0  0  2  0  0  0  0  0  0
  161.3380  200.0420  146.4480 O   0  0  0  0  0  1  0  0  0  0  0  0
  160.3970  200.4360  145.4950 C   0  0  0  0  0  2  0  0  0  0  0  0
  1  4  2  0  0  0  0
  3  2  1  0  0  0  0
  3  5  1  0  0  0  0
  4 10  1  0  0  0  0
  4  6  1  0  0  0  0
  6 12  1  1  0  0  0
  7  5  1  0  0  0  0
  7  6  1  0  0  0  0
  8  1  1  0  0  0  0
  8  7  2  0  0  0  0
  9  3  2  0  0  0  0
 10 11  1  0  0  0  0
 12 13  1  0  0  0  0
 13 14  2  0  0  0  0
 15 22  1  0  0  0  0
 16 18  1  0  0  0  0
 16 17  2  0  0  0  0
 17 21  1  0  0  0  0
 18 14  1  6  0  0  0
 18 17  1  0  0  0  0
 20 15  2  0  0  0  0
 20 16  1  0  0  0  0
 22 19  1  0  0  0  0
 22 21  2  0  0  0  0
 23 26  1  0  0  0  0
 24 23  1  0  0  0  0
 24 15  1  0  0  0  0
 25 24  2  0  0  0  0
 27  1  1  0  0  0  0
 28 27  1  0  0  0  0
 29 30  1  0  0  0  0
 29 28  1  0  0  0  0
 31 33  1  0  0  0  0
 31 30  1  0  0  0  0
 33 32  1  0  0  0  0
M  END
>  <MODEL>
5

>  <REMARK>
 VINA RESULT:      -6.2      2.164      3.220
  Name = 
  11 active torsions:
  status: ('A' for Active; 'I' for Inactive)
    1  A    between atoms: O_1  and  C_16
    2  A    between atoms: C_3  and  C_6
    3  A    between atoms: C_5  and  N_12
    4  A    between atoms: C_5  and  C_19
    5  A    between atoms: C_7  and  C_21
    6  A    between atoms: C_11  and  C_15
    7  A    between atoms: N_12  and  C_33
    8  A    between atoms: C_13  and  C_14
    9  A    between atoms: C_15  and  C_20
   10  A    between atoms: C_19  and  C_32
   11  A    between atoms: C_21  and  C_33
                            x       y       z     vdW  Elec       q    Type
                         _______ _______ _______ _____ _____    ______ ____

>  <TORSDO>
F 11

$$$$
=
 OpenBabel11042422393D

 33 35  0  0  1  0  0  0  0  0999 V2000
  161.7250  206.6310  151.9430 C   0  0  0  0  0  0  0  0  0  0  0  0
  162.0480  211.3370  148.5430 C   0  0  0  0  0  1  0  0  0  0  0  0
  162.0470  210.0150  149.2210 C   0  0  0  0  0  0  0  0  0  0  0  0
  161.1900  207.2040  153.0080 C   0  0  0  0  0  0  0  0  0  0  0  0
  161.5920  209.9200  150.5750 N   0  0  0  0  0  2  0  0  0  0  0  0
  161.0400  208.6730  152.7590 C   0  0  2  0  0  3  0  0  0  0  0  0
  161.5480  208.7170  151.3510 C   0  0  0  0  0  0  0  0  0  0  0  0
  161.9380  207.5690  150.9000 N   0  0  0  0  0  0  0  0  0  0  0  0
  162.4460  208.9980  148.5950 O   0  0  0  0  0  0  0  0  0  0  0  0
  160.8070  206.5050  154.1540 O   0  0  0  0  0  0  0  0  0  0  0  0
  160.1040  207.1270  155.2180 C   0  0  0  0  0  1  0  0  0  0  0  0
  161.9860  209.4590  153.6550 C   0  0  0  0  0  2  0  0  0  0  0  0
  161.2170  210.4410  154.4670 C   0  0  0  0  0  3  0  0  0  0  0  0
  161.6430  210.7830  155.6800 C   0  0  0  0  0  3  0  0  0  0  0  0
  157.9590  212.9520  154.8500 C   0  0  0  0  0  0  0  0  0  0  0  0
  160.0690  212.5550  155.6630 C   0  0  0  0  0  0  0  0  0  0  0  0
  159.5070  211.4620  156.4270 C   0  0  0  0  0  0  0  0  0  0  0  0
  160.8730  211.7630  156.4980 C   0  0  1  0  0  3  0  0  0  0  0  0
  155.9960  211.4680  155.6480 C   0  0  0  0  0  1  0  0  0  0  0  0
  159.3540  213.3570  154.8380 C   0  0  0  0  0  3  0  0  0  0  0  0
  158.2590  211.0260  156.4900 N   0  0  0  0  0  0  0  0  0  0  0  0
  157.4490  211.8040  155.6650 C   0  0  0  0  0  0  0  0  0  0  0  0
  157.0980  213.6080  152.5440 N   0  0  0  0  0  2  0  0  0  0  0  0
  157.0370  213.7100  153.9710 C   0  0  0  0  0  0  0  0  0  0  0  0
  156.1580  214.4530  154.4830 O   0  0  0  0  0  0  0  0  0  0  0  0
  158.1400  212.9440  151.8830 N   0  0  0  0  0  1  0  0  0  0  0  0
  161.9710  205.1660  151.7890 C   0  0  0  0  0  2  0  0  0  0  0  0
  160.7680  204.4830  151.1580 C   0  0  0  0  0  2  0  0  0  0  0  0
  161.1580  203.8280  149.9220 N   0  0  0  0  0  2  0  0  0  0  0  0
  161.1710  204.8490  148.8920 C   0  0  0  0  0  2  0  0  0  0  0  0
  161.5530  204.2210  147.5660 C   0  0  0  0  0  2  0  0  0  0  0  0
  163.4430  204.7110  146.1940 O   0  0  0  0  0  1  0  0  0  0  0  0
  162.2480  205.2400  146.6830 C   0  0  0  0  0  2  0  0  0  0  0  0
  1  4  2  0  0  0  0
  2  3  1  0  0  0  0
  3  5  1  0  0  0  0
  4 10  1  0  0  0  0
  5  7  1  0  0  0  0
  6  4  1  0  0  0  0
  6 12  1  1  0  0  0
  7  6  1  0  0  0  0
  8  7  2  0  0  0  0
  8  1  1  0  0  0  0
  9  3  2  0  0  0  0
 10 11  1  0  0  0  0
 12 13  1  0  0  0  0
 13 14  2  0  0  0  0
 15 22  1  0  0  0  0
 16 17  2  0  0  0  0
 16 18  1  0  0  0  0
 17 21  1  0  0  0  0
 17 18  1  0  0  0  0
 18 14  1  6  0  0  0
 19 22  1  0  0  0  0
 20 15  2  0  0  0  0
 20 16  1  0  0  0  0
 22 21  2  0  0  0  0
 23 24  1  0  0  0  0
 24 25  2  0  0  0  0
 24 15  1  0  0  0  0
 26 23  1  0  0  0  0
 27  1  1  0  0  0  0
 28 27  1  0  0  0  0
 29 28  1  0  0  0  0
 30 29  1  0  0  0  0
 31 30  1  0  0  0  0
 32 33  1  0  0  0  0
 33 31  1  0  0  0  0
M  END
>  <MODEL>
6

>  <REMARK>
 VINA RESULT:      -6.0      2.253      3.414
  Name = 
  11 active torsions:
  status: ('A' for Active; 'I' for Inactive)
    1  A    between atoms: O_1  and  C_16
    2  A    between atoms: C_3  and  C_6
    3  A    between atoms: C_5  and  N_12
    4  A    between atoms: C_5  and  C_19
    5  A    between atoms: C_7  and  C_21
    6  A    between atoms: C_11  and  C_15
    7  A    between atoms: N_12  and  C_33
    8  A    between atoms: C_13  and  C_14
    9  A    between atoms: C_15  and  C_20
   10  A    between atoms: C_19  and  C_32
   11  A    between atoms: C_21  and  C_33
                            x       y       z     vdW  Elec       q    Type
                         _______ _______ _______ _____ _____    ______ ____

>  <TORSDO>
F 11

$$$$
=
 OpenBabel11042422393D

 33 35  0  0  1  0  0  0  0  0999 V2000
  161.1480  207.5310  153.5760 C   0  0  0  0  0  0  0  0  0  0  0  0
  160.0650  212.9150  151.6660 C   0  0  0  0  0  1  0  0  0  0  0  0
  160.2510  211.6160  152.3620 C   0  0  0  0  0  0  0  0  0  0  0  0
  161.7430  207.0620  152.4920 C   0  0  0  0  0  0  0  0  0  0  0  0
  160.8540  210.5230  151.6600 N   0  0  0  0  0  2  0  0  0  0  0  0
  161.7410  208.1170  151.4280 C   0  0  2  0  0  3  0  0  0  0  0  0
  161.0830  209.2170  152.2020 C   0  0  0  0  0  0  0  0  0  0  0  0
  160.7460  208.8810  153.4050 N   0  0  0  0  0  0  0  0  0  0  0  0
  159.8750  211.4940  153.5570 O   0  0  0  0  0  0  0  0  0  0  0  0
  162.3060  205.7870  152.4050 O   0  0  0  0  0  0  0  0  0  0  0  0
  161.5390  204.6460  152.0560 C   0  0  0  0  0  1  0  0  0  0  0  0
  160.8340  207.7050  150.2790 C   0  0  0  0  0  2  0  0  0  0  0  0
  161.6110  206.9340  149.2700 C   0  0  0  0  0  3  0  0  0  0  0  0
  161.6080  207.3110  147.9940 C   0  0  0  0  0  3  0  0  0  0  0  0
  161.1490  203.2380  146.5200 C   0  0  0  0  0  0  0  0  0  0  0  0
  162.2060  205.1620  147.1930 C   0  0  0  0  0  0  0  0  0  0  0  0
  161.4980  205.8540  146.1390 C   0  0  0  0  0  0  0  0  0  0  0  0
  162.3820  206.5390  146.9810 C   0  0  1  0  0  3  0  0  0  0  0  0
  159.5220  203.3280  144.5090 C   0  0  0  0  0  1  0  0  0  0  0  0
  162.0840  203.8390  147.4560 C   0  0  0  0  0  3  0  0  0  0  0  0
  160.6300  205.3880  145.2540 N   0  0  0  0  0  0  0  0  0  0  0  0
  160.4470  204.0210  145.4530 C   0  0  0  0  0  0  0  0  0  0  0  0
  160.3890  201.2530  147.9230 N   0  0  0  0  0  2  0  0  0  0  0  0
  160.8730  201.7920  146.6880 C   0  0  0  0  0  0  0  0  0  0  0  0
  161.0460  201.0080  145.7170 O   0  0  0  0  0  0  0  0  0  0  0  0
  160.3260  202.0120  149.0990 N   0  0  0  0  0  1  0  0  0  0  0  0
  161.0120  206.7930  154.8670 C   0  0  0  0  0  2  0  0  0  0  0  0
  159.8020  207.2890  155.6430 C   0  0  0  0  0  2  0  0  0  0  0  0
  160.1820  207.6060  157.0080 N   0  0  0  0  0  2  0  0  0  0  0  0
  160.1760  209.0520  157.1210 C   0  0  0  0  0  2  0  0  0  0  0  0
  161.6020  209.5540  157.2380 C   0  0  0  0  0  2  0  0  0  0  0  0
  162.9810  210.6970  155.6620 O   0  0  0  0  0  1  0  0  0  0  0  0
  161.7930  210.7950  156.3880 C   0  0  0  0  0  2  0  0  0  0  0  0
  1 27  1  0  0  0  0
  2  3  1  0  0  0  0
  3  9  2  0  0  0  0
  4  1  2  0  0  0  0
  5  7  1  0  0  0  0
  5  3  1  0  0  0  0
  6 12  1  6  0  0  0
  6  7  1  0  0  0  0
  6  4  1  0  0  0  0
  7  8  2  0  0  0  0
  8  1  1  0  0  0  0
 10  4  1  0  0  0  0
 11 10  1  0  0  0  0
 13 12  1  0  0  0  0
 14 13  2  0  0  0  0
 15 24  1  0  0  0  0
 15 20  1  0  0  0  0
 16 20  2  0  0  0  0
 17 18  1  0  0  0  0
 17 16  1  0  0  0  0
 18 16  1  0  0  0  0
 18 14  1  1  0  0  0
 19 22  1  0  0  0  0
 21 22  1  0  0  0  0
 21 17  2  0  0  0  0
 22 15  2  0  0  0  0
 23 26  1  0  0  0  0
 24 23  1  0  0  0  0
 25 24  2  0  0  0  0
 27 28  1  0  0  0  0
 28 29  1  0  0  0  0
 29 30  1  0  0  0  0
 30 31  1  0  0  0  0
 32 33  1  0  0  0  0
 33 31  1  0  0  0  0
M  END
>  <MODEL>
7

>  <REMARK>
 VINA RESULT:      -5.9      2.548      9.334
  Name = 
  11 active torsions:
  status: ('A' for Active; 'I' for Inactive)
    1  A    between atoms: O_1  and  C_16
    2  A    between atoms: C_3  and  C_6
    3  A    between atoms: C_5  and  N_12
    4  A    between atoms: C_5  and  C_19
    5  A    between atoms: C_7  and  C_21
    6  A    between atoms: C_11  and  C_15
    7  A    between atoms: N_12  and  C_33
    8  A    between atoms: C_13  and  C_14
    9  A    between atoms: C_15  and  C_20
   10  A    between atoms: C_19  and  C_32
   11  A    between atoms: C_21  and  C_33
                            x       y       z     vdW  Elec       q    Type
                         _______ _______ _______ _____ _____    ______ ____

>  <TORSDO>
F 11

$$$$
=
 OpenBabel11042422393D

 33 35  0  0  1  0  0  0  0  0999 V2000
  161.9980  208.3160  149.2970 C   0  0  0  0  0  0  0  0  0  0  0  0
  161.8500  214.0910  148.6430 C   0  0  0  0  0  1  0  0  0  0  0  0
  161.9600  212.6110  148.5820 C   0  0  0  0  0  0  0  0  0  0  0  0
  161.5170  208.2530  150.5270 C   0  0  0  0  0  0  0  0  0  0  0  0
  161.6110  211.8330  149.7320 N   0  0  0  0  0  2  0  0  0  0  0  0
  161.2800  209.6400  151.0400 C   0  0  2  0  0  3  0  0  0  0  0  0
  161.6810  210.4050  149.8170 C   0  0  0  0  0  0  0  0  0  0  0  0
  162.0890  209.6560  148.8440 N   0  0  0  0  0  0  0  0  0  0  0  0
  162.3590  212.0620  147.5210 O   0  0  0  0  0  0  0  0  0  0  0  0
  161.2520  207.0560  151.1960 O   0  0  0  0  0  0  0  0  0  0  0  0
  162.2400  206.3810  151.9580 C   0  0  0  0  0  1  0  0  0  0  0  0
  162.2500  209.9590  152.1670 C   0  0  0  0  0  2  0  0  0  0  0  0
  161.5050  210.4650  153.3520 C   0  0  0  0  0  3  0  0  0  0  0  0
  162.0180  210.3290  154.5710 C   0  0  0  0  0  3  0  0  0  0  0  0
  158.3060  212.5850  154.8920 C   0  0  0  0  0  0  0  0  0  0  0  0
  160.4400  211.9000  155.3860 C   0  0  0  0  0  0  0  0  0  0  0  0
  159.9050  210.5720  155.5990 C   0  0  0  0  0  0  0  0  0  0  0  0
  161.2720  210.8310  155.7600 C   0  0  1  0  0  3  0  0  0  0  0  0
  156.3710  210.8700  154.9980 C   0  0  0  0  0  1  0  0  0  0  0  0
  159.6990  212.9740  155.0240 C   0  0  0  0  0  3  0  0  0  0  0  0
  158.6600  210.1350  155.4940 N   0  0  0  0  0  0  0  0  0  0  0  0
  157.8230  211.1860  155.1240 C   0  0  0  0  0  0  0  0  0  0  0  0
  157.0870  213.9040  153.0850 N   0  0  0  0  0  2  0  0  0  0  0  0
  157.3560  213.6400  154.4670 C   0  0  0  0  0  0  0  0  0  0  0  0
  156.7470  214.3180  155.3370 O   0  0  0  0  0  0  0  0  0  0  0  0
  157.8340  213.3220  152.0520 N   0  0  0  0  0  1  0  0  0  0  0  0
  162.3010  207.1360  148.4330 C   0  0  0  0  0  2  0  0  0  0  0  0
  161.0160  206.4910  147.9370 C   0  0  0  0  0  2  0  0  0  0  0  0
  161.2490  205.8340  146.6630 N   0  0  0  0  0  2  0  0  0  0  0  0
  162.0970  204.6890  146.9300 C   0  0  0  0  0  2  0  0  0  0  0  0
  161.3210  203.4140  146.6610 C   0  0  0  0  0  2  0  0  0  0  0  0
  160.9750  203.4280  149.0220 O   0  0  0  0  0  1  0  0  0  0  0  0
  161.2070  202.5910  147.9300 C   0  0  0  0  0  2  0  0  0  0  0  0
  1  4  2  0  0  0  0
  3  2  1  0  0  0  0
  3  5  1  0  0  0  0
  4  6  1  0  0  0  0
  4 10  1  0  0  0  0
  5  7  1  0  0  0  0
  6 12  1  1  0  0  0
  7  6  1  0  0  0  0
  8  1  1  0  0  0  0
  8  7  2  0  0  0  0
  9  3  2  0  0  0  0
 10 11  1  0  0  0  0
 12 13  1  0  0  0  0
 13 14  2  0  0  0  0
 15 20  2  0  0  0  0
 15 22  1  0  0  0  0
 16 17  2  0  0  0  0
 16 18  1  0  0  0  0
 17 18  1  0  0  0  0
 18 14  1  6  0  0  0
 19 22  1  0  0  0  0
 20 16  1  0  0  0  0
 21 17  1  0  0  0  0
 22 21  2  0  0  0  0
 23 24  1  0  0  0  0
 24 15  1  0  0  0  0
 24 25  2  0  0  0  0
 26 23  1  0  0  0  0
 27  1  1  0  0  0  0
 28 27  1  0  0  0  0
 29 30  1  0  0  0  0
 29 28  1  0  0  0  0
 31 30  1  0  0  0  0
 31 33  1  0  0  0  0
 33 32  1  0  0  0  0
M  END
>  <MODEL>
8

>  <REMARK>
 VINA RESULT:      -5.8      2.645      4.124
  Name = 
  11 active torsions:
  status: ('A' for Active; 'I' for Inactive)
    1  A    between atoms: O_1  and  C_16
    2  A    between atoms: C_3  and  C_6
    3  A    between atoms: C_5  and  N_12
    4  A    between atoms: C_5  and  C_19
    5  A    between atoms: C_7  and  C_21
    6  A    between atoms: C_11  and  C_15
    7  A    between atoms: N_12  and  C_33
    8  A    between atoms: C_13  and  C_14
    9  A    between atoms: C_15  and  C_20
   10  A    between atoms: C_19  and  C_32
   11  A    between atoms: C_21  and  C_33
                            x       y       z     vdW  Elec       q    Type
                         _______ _______ _______ _____ _____    ______ ____

>  <TORSDO>
F 11

$$$$
=
 OpenBabel11042422393D

 33 35  0  0  1  0  0  0  0  0999 V2000
  160.8250  203.8310  149.6900 C   0  0  0  0  0  0  0  0  0  0  0  0
  161.5920  206.7910  154.6350 C   0  0  0  0  0  1  0  0  0  0  0  0
  161.3040  205.8630  153.5110 C   0  0  0  0  0  0  0  0  0  0  0  0
  161.4010  204.6890  148.8640 C   0  0  0  0  0  0  0  0  0  0  0  0
  161.6580  206.2450  152.1770 N   0  0  0  0  0  2  0  0  0  0  0  0
  161.8420  205.8970  149.6320 C   0  0  2  0  0  3  0  0  0  0  0  0
  161.4290  205.4570  151.0030 C   0  0  0  0  0  0  0  0  0  0  0  0
  160.8530  204.2990  151.0280 N   0  0  0  0  0  0  0  0  0  0  0  0
  160.7530  204.7560  153.7470 O   0  0  0  0  0  0  0  0  0  0  0  0
  161.5810  204.4530  147.5000 O   0  0  0  0  0  0  0  0  0  0  0  0
  162.4820  205.2160  146.7140 C   0  0  0  0  0  1  0  0  0  0  0  0
  161.0170  207.1100  149.2280 C   0  0  0  0  0  2  0  0  0  0  0  0
  161.6770  208.3550  149.7060 C   0  0  0  0  0  3  0  0  0  0  0  0
  161.1910  209.0050  150.7610 C   0  0  0  0  0  3  0  0  0  0  0  0
  160.0920  211.8020  153.9140 C   0  0  0  0  0  0  0  0  0  0  0  0
  160.9080  211.0660  151.8990 C   0  0  0  0  0  0  0  0  0  0  0  0
  161.8630  210.2700  152.6400 C   0  0  0  0  0  0  0  0  0  0  0  0
  161.8470  210.2550  151.2400 C   0  0  1  0  0  3  0  0  0  0  0  0
  161.1820  210.9580  156.1040 C   0  0  0  0  0  1  0  0  0  0  0  0
  159.9760  211.8660  152.4670 C   0  0  0  0  0  3  0  0  0  0  0  0
  162.0300  210.1490  153.9470 N   0  0  0  0  0  0  0  0  0  0  0  0
  161.1050  210.9490  154.6140 C   0  0  0  0  0  0  0  0  0  0  0  0
  157.9350  212.0150  155.2520 N   0  0  0  0  0  2  0  0  0  0  0  0
  159.1190  212.5990  154.6970 C   0  0  0  0  0  0  0  0  0  0  0  0
  159.3390  213.8230  154.9040 O   0  0  0  0  0  0  0  0  0  0  0  0
  157.5230  210.7140  154.9370 N   0  0  0  0  0  1  0  0  0  0  0  0
  160.3130  202.4820  149.3040 C   0  0  0  0  0  2  0  0  0  0  0  0
  161.3710  201.4170  149.5450 C   0  0  0  0  0  2  0  0  0  0  0  0
  161.5510  200.6150  148.3480 N   0  0  0  0  0  2  0  0  0  0  0  0
  160.4550  200.9400  147.4560 C   0  0  0  0  0  2  0  0  0  0  0  0
  160.9140  200.7910  146.0190 C   0  0  0  0  0  2  0  0  0  0  0  0
  160.4880  202.8500  144.8900 O   0  0  0  0  0  1  0  0  0  0  0  0
  159.9930  201.5610  145.0910 C   0  0  0  0  0  2  0  0  0  0  0  0
  1  8  1  0  0  0  0
  3  9  2  0  0  0  0
  3  2  1  0  0  0  0
  4  6  1  0  0  0  0
  4  1  2  0  0  0  0
  5  3  1  0  0  0  0
  6 12  1  6  0  0  0
  6  7  1  0  0  0  0
  7  8  2  0  0  0  0
  7  5  1  0  0  0  0
 10  4  1  0  0  0  0
 11 10  1  0  0  0  0
 12 13  1  0  0  0  0
 13 14  2  0  0  0  0
 15 22  1  0  0  0  0
 15 24  1  0  0  0  0
 16 20  1  0  0  0  0
 16 17  2  0  0  0  0
 17 21  1  0  0  0  0
 18 14  1  1  0  0  0
 18 16  1  0  0  0  0
 18 17  1  0  0  0  0
 20 15  2  0  0  0  0
 21 22  2  0  0  0  0
 22 19  1  0  0  0  0
 24 25  2  0  0  0  0
 24 23  1  0  0  0  0
 26 23  1  0  0  0  0
 27 28  1  0  0  0  0
 27  1  1  0  0  0  0
 29 28  1  0  0  0  0
 30 29  1  0  0  0  0
 31 30  1  0  0  0  0
 32 33  1  0  0  0  0
 33 31  1  0  0  0  0
M  END
>  <MODEL>
9

>  <REMARK>
 VINA RESULT:      -5.7      1.794      3.472
  Name = 
  11 active torsions:
  status: ('A' for Active; 'I' for Inactive)
    1  A    between atoms: O_1  and  C_16
    2  A    between atoms: C_3  and  C_6
    3  A    between atoms: C_5  and  N_12
    4  A    between atoms: C_5  and  C_19
    5  A    between atoms: C_7  and  C_21
    6  A    between atoms: C_11  and  C_15
    7  A    between atoms: N_12  and  C_33
    8  A    between atoms: C_13  and  C_14
    9  A    between atoms: C_15  and  C_20
   10  A    between atoms: C_19  and  C_32
   11  A    between atoms: C_21  and  C_33
                            x       y       z     vdW  Elec       q    Type
                         _______ _______ _______ _____ _____    ______ ____

>  <TORSDO>
F 11

$$$$
