=
 OpenBabel11052411383D

 43 47  0  0  1  0  0  0  0  0999 V2000
  160.3550  211.7520  153.0640 C   0  0  0  0  0  3  0  0  0  0  0  0
  161.8720  210.7410  149.9600 C   0  0  0  0  0  0  0  0  0  0  0  0
  160.5750  211.6410  151.6120 C   0  0  1  0  0  3  0  0  0  0  0  0
  162.0220  209.5710  149.4840 N   0  0  0  0  0  0  0  0  0  0  0  0
  160.4070  210.7280  153.9630 C   0  0  0  0  0  0  0  0  0  0  0  0
  160.6700  209.2260  153.8880 C   0  0  0  0  0  0  0  0  0  0  0  0
  160.4200  212.9960  150.3560 S   0  0  0  0  0  0  0  0  0  0  0  0
  161.1740  206.9370  153.2190 C   0  0  0  0  0  0  0  0  0  0  0  0
  160.3870  207.4630  155.4510 N   0  0  0  0  0  0  0  0  0  0  0  0
  161.7590  205.9700  152.2800 N   0  0  0  0  0  0  0  0  0  0  0  0
  160.3810  208.8200  155.1790 C   0  0  0  0  0  0  0  0  0  0  0  0
  161.7120  207.1710  150.2120 C   0  0  1  0  0  3  0  0  0  0  0  0
  160.0040  209.8570  156.0380 N   0  0  0  0  0  0  0  0  0  0  0  0
  162.6240  206.4210  151.1550 C   0  0  0  0  0  2  0  0  0  0  0  0
  160.0240  211.0520  155.2660 N   0  0  0  0  0  0  0  0  0  0  0  0
  161.4900  211.9670  149.2160 C   0  0  1  0  0  3  0  0  0  0  0  0
  162.0260  208.5090  150.4070 N   0  0  0  0  0  2  0  0  0  0  0  0
  161.0290  208.3170  152.9040 C   0  0  0  0  0  3  0  0  0  0  0  0
  161.6340  210.8130  151.3330 O   0  0  0  0  0  0  0  0  0  0  0  0
  160.7690  206.5490  154.5110 C   0  0  0  0  0  3  0  0  0  0  0  0
  159.8460  204.1530  150.8200 O   0  0  0  0  0  0  0  0  0  0  0  0
  161.1930  204.3500  151.8540 P   0  0  0  0  0  0  0  0  0  0  0  0
  160.6300  203.8600  153.1700 O   0  0  0  0  0  1  0  0  0  0  0  0
  162.4470  203.3100  151.4570 O   0  0  0  0  0  1  0  0  0  0  0  0
  161.6510  206.8890  148.6610 C   0  0  2  0  0  3  0  0  0  0  0  0
  160.2210  206.4970  148.3110 C   0  0  0  0  0  1  0  0  0  0  0  0
  162.7780  205.9850  148.0910 C   0  0  0  0  0  2  0  0  0  0  0  0
  162.2750  205.5060  146.7310 C   0  0  0  0  0  3  0  0  0  0  0  0
  161.6880  204.1900  146.6760 C   0  0  0  0  0  3  0  0  0  0  0  0
  161.5820  203.5130  147.7740 N   0  0  0  0  0  2  0  0  0  0  0  0
  161.1470  201.3690  148.7400 O   0  0  0  0  0  1  0  0  0  0  0  0
  161.1880  202.2010  147.6120 C   0  0  0  0  0  0  0  0  0  0  0  0
  160.9100  201.7340  146.4740 O   0  0  0  0  0  0  0  0  0  0  0  0
  163.4500  212.0290  147.5810 O   0  0  0  0  0  1  0  0  0  0  0  0
  162.4090  212.7170  148.2590 C   0  0  1  0  0  3  0  0  0  0  0  0
  160.4280  212.0120  146.4350 O   0  0  0  0  0  1  0  0  0  0  0  0
  161.6180  213.7410  147.3840 C   0  0  2  0  0  3  0  0  0  0  0  0
  160.9140  213.2710  146.1670 C   0  0  1  0  0  0  0  0  0  0  0  0
  162.4160  213.5930  146.1380 C   0  0  0  0  0  2  0  0  0  0  0  0
  160.0280  214.4530  145.6810 C   0  0  0  0  0  2  0  0  0  0  0  0
  158.8370  213.3330  143.6070 C   0  0  0  0  0  1  0  0  0  0  0  0
  157.5780  213.5970  145.5800 C   0  0  0  0  0  1  0  0  0  0  0  0
  158.7550  214.1170  144.8740 C   0  0  0  0  0  3  0  0  0  0  0  0
  1  5  2  0  0  0  0
  2 19  1  0  0  0  0
  3  1  1  1  0  0  0
  4  2  2  0  0  0  0
  4 17  1  0  0  0  0
  5 15  1  0  0  0  0
  6  5  1  0  0  0  0
  6 11  1  0  0  0  0
  7  3  1  0  0  0  0
  8 20  2  0  0  0  0
 10  8  1  0  0  0  0
 11  9  2  0  0  0  0
 11 13  1  0  0  0  0
 12 25  1  6  0  0  0
 12 17  1  0  0  0  0
 12 14  1  0  0  0  0
 14 10  1  0  0  0  0
 15 13  2  0  0  0  0
 16 35  1  1  0  0  0
 16  2  1  0  0  0  0
 16  7  1  0  0  0  0
 18  8  1  0  0  0  0
 18  6  2  0  0  0  0
 19  3  1  0  0  0  0
 20  9  1  0  0  0  0
 21 22  2  0  0  0  0
 22 10  1  0  0  0  0
 22 23  1  0  0  0  0
 24 22  1  0  0  0  0
 25 26  1  1  0  0  0
 27 25  1  0  0  0  0
 28 27  1  0  0  0  0
 29 28  2  0  0  0  0
 29 30  1  0  0  0  0
 32 30  1  0  0  0  0
 32 31  1  0  0  0  0
 33 32  2  0  0  0  0
 35 34  1  6  0  0  0
 37 35  1  1  0  0  0
 38 36  1  6  0  0  0
 38 37  1  0  0  0  0
 39 38  1  0  0  0  0
 39 37  1  0  0  0  0
 40 38  1  0  0  0  0
 41 43  1  0  0  0  0
 43 42  1  0  0  0  0
 43 40  1  0  0  0  0
M  END
>  <MODEL>
1

>  <REMARK>
 VINA RESULT:      -7.1      0.000      0.000
  Name = 
  10 active torsions:
  status: ('A' for Active; 'I' for Inactive)
    1  A    between atoms: C_2  and  C_24
    2  A    between atoms: C_2  and  C_28
    3  A    between atoms: C_3  and  C_34
    4  A    between atoms: C_3  and  C_40
    5  A    between atoms: C_13  and  C_39
    6  A    between atoms: C_16  and  C_32
    7  A    between atoms: C_16  and  C_33
    8  A    between atoms: N_19  and  P_22
    9  A    between atoms: C_27  and  N_43
   10  A    between atoms: C_28  and  C_39
                            x       y       z     vdW  Elec       q    Type
                         _______ _______ _______ _____ _____    ______ ____

>  <TORSDO>
F 10

$$$$
