=
 OpenBabel11052410513D

 28 31  0  0  0  0  0  0  0  0999 V2000
  160.4540  206.2650  145.3130 N   0  0  0  0  0  2  0  0  0  0  0  0
  161.1440  205.1300  145.7590 C   0  0  0  0  0  0  0  0  0  0  0  0
  161.0280  206.2150  146.5900 C   0  0  0  0  0  0  0  0  0  0  0  0
  161.3100  206.8550  147.8690 C   0  0  0  0  0  0  0  0  0  0  0  0
  161.3700  207.6510  150.2230 C   0  0  0  0  0  0  0  0  0  0  0  0
  160.4570  206.5880  149.2880 S   0  0  0  0  0  0  0  0  0  0  0  0
  162.3220  207.7770  148.0950 C   0  0  0  0  0  3  0  0  0  0  0  0
  162.3560  208.2260  149.4230 C   0  0  0  0  0  3  0  0  0  0  0  0
  160.7610  208.4650  154.3890 C   0  0  0  0  0  0  0  0  0  0  0  0
  160.8850  207.1420  153.9360 C   0  0  0  0  0  3  0  0  0  0  0  0
  161.0840  206.8780  152.5780 C   0  0  0  0  0  3  0  0  0  0  0  0
  160.8380  209.5150  153.4690 C   0  0  0  0  0  3  0  0  0  0  0  0
  161.0370  209.2500  152.1110 C   0  0  0  0  0  3  0  0  0  0  0  0
  161.1620  207.9300  151.6550 C   0  0  0  0  0  0  0  0  0  0  0  0
  160.5620  208.7620  155.7400 O   0  0  0  0  0  0  0  0  0  0  0  0
  160.8240  207.8280  156.7780 C   0  0  0  0  0  1  0  0  0  0  0  0
  161.6610  203.7570  145.5070 C   0  0  0  0  0  2  0  0  0  0  0  0
  160.5320  202.8420  145.1530 C   0  0  0  0  0  0  0  0  0  0  0  0
  160.3640  201.6610  145.7490 C   0  0  0  0  0  3  0  0  0  0  0  0
  159.6390  203.2280  144.1600 O   0  0  0  0  0  1  0  0  0  0  0  0
  161.2630  201.1360  146.8280 C   0  0  0  0  0  2  0  0  0  0  0  0
  160.5530  200.9920  148.0560 O   0  0  0  0  0  0  0  0  0  0  0  0
  160.8270  201.7480  149.2010 C   0  0  0  0  0  0  0  0  0  0  0  0
  161.3020  201.9290  151.5770 C   0  0  0  0  0  3  0  0  0  0  0  0
  161.3680  203.3200  151.4590 C   0  0  0  0  0  3  0  0  0  0  0  0
  161.1640  203.9260  150.2160 C   0  0  0  0  0  3  0  0  0  0  0  0
  161.0320  201.1440  150.4520 C   0  0  0  0  0  3  0  0  0  0  0  0
  160.8930  203.1410  149.0910 C   0  0  0  0  0  3  0  0  0  0  0  0
  1  2  1  0  0  0  0
  1  3  1  0  0  0  0
  2  3  2  0  0  0  0
  3  4  1  0  0  0  0
  4  7  2  0  0  0  0
  4  6  1  0  0  0  0
  5 14  1  0  0  0  0
  6  5  1  0  0  0  0
  7  8  1  0  0  0  0
  8  5  2  0  0  0  0
  9 15  1  0  0  0  0
 10  9  1  0  0  0  0
 11 10  2  0  0  0  0
 12  9  2  0  0  0  0
 13 12  1  0  0  0  0
 14 13  2  0  0  0  0
 14 11  1  0  0  0  0
 15 16  1  0  0  0  0
 17  2  1  0  0  0  0
 18 17  1  0  0  0  0
 18 19  2  0  0  0  0
 19 21  1  0  0  0  0
 20 18  1  0  0  0  0
 21 22  1  0  0  0  0
 22 23  1  0  0  0  0
 23 27  1  0  0  0  0
 25 24  1  0  0  0  0
 26 25  2  0  0  0  0
 27 24  2  0  0  0  0
 28 23  2  0  0  0  0
 28 26  1  0  0  0  0
M  END
>  <MODEL>
1

>  <REMARK>
 VINA RESULT:      -8.6      0.000      0.000
  Name = 
  8 active torsions:
  status: ('A' for Active; 'I' for Inactive)
    1  A    between atoms: C_1  and  C_18
    2  A    between atoms: C_2  and  C_16
    3  A    between atoms: O_3  and  C_4
    4  A    between atoms: C_5  and  C_28
    5  A    between atoms: C_9  and  O_17
    6  A    between atoms: C_13  and  C_16
    7  A    between atoms: O_17  and  C_26
    8  A    between atoms: C_20  and  C_26
                            x       y       z     vdW  Elec       q    Type
                         _______ _______ _______ _____ _____    ______ ____

>  <TORSDO>
F 8

$$$$
=
 OpenBabel11052410513D

 28 31  0  0  0  0  0  0  0  0999 V2000
  161.9120  209.9790  153.0430 N   0  0  0  0  0  2  0  0  0  0  0  0
  160.5300  210.0430  152.8250 C   0  0  0  0  0  0  0  0  0  0  0  0
  161.1970  208.8730  152.5670 C   0  0  0  0  0  0  0  0  0  0  0  0
  161.1770  207.4880  152.1130 C   0  0  0  0  0  0  0  0  0  0  0  0
  161.1290  205.3490  150.8470 C   0  0  0  0  0  0  0  0  0  0  0  0
  161.1310  207.0000  150.5090 S   0  0  0  0  0  0  0  0  0  0  0  0
  161.1930  206.3760  152.9430 C   0  0  0  0  0  3  0  0  0  0  0  0
  161.1660  205.1690  152.2280 C   0  0  0  0  0  3  0  0  0  0  0  0
  161.0270  202.2040  147.9330 C   0  0  0  0  0  0  0  0  0  0  0  0
  161.3450  203.5170  147.5490 C   0  0  0  0  0  3  0  0  0  0  0  0
  161.3790  204.5410  148.4990 C   0  0  0  0  0  3  0  0  0  0  0  0
  160.7430  201.9320  149.2750 C   0  0  0  0  0  3  0  0  0  0  0  0
  160.7770  202.9570  150.2250 C   0  0  0  0  0  3  0  0  0  0  0  0
  161.0950  204.2690  149.8450 C   0  0  0  0  0  0  0  0  0  0  0  0
  160.9850  201.1590  147.0070 O   0  0  0  0  0  0  0  0  0  0  0  0
  160.5840  201.3450  145.6570 C   0  0  0  0  0  1  0  0  0  0  0  0
  159.2610  210.8210  152.8320 C   0  0  0  0  0  2  0  0  0  0  0  0
  159.5540  212.2750  153.0300 C   0  0  0  0  0  0  0  0  0  0  0  0
  159.2680  212.9060  154.1700 C   0  0  0  0  0  3  0  0  0  0  0  0
  160.1240  212.9940  151.9870 O   0  0  0  0  0  1  0  0  0  0  0  0
  158.6480  212.2380  155.3600 C   0  0  0  0  0  2  0  0  0  0  0  0
  159.6380  211.9060  156.3300 O   0  0  0  0  0  0  0  0  0  0  0  0
  160.2890  210.6680  156.3780 C   0  0  0  0  0  0  0  0  0  0  0  0
  162.2850  209.3160  156.6870 C   0  0  0  0  0  3  0  0  0  0  0  0
  161.5370  208.1580  156.4560 C   0  0  0  0  0  3  0  0  0  0  0  0
  160.1680  208.2530  156.1870 C   0  0  0  0  0  3  0  0  0  0  0  0
  161.6650  210.5690  156.6480 C   0  0  0  0  0  3  0  0  0  0  0  0
  159.5470  209.5050  156.1470 C   0  0  0  0  0  3  0  0  0  0  0  0
  2 17  1  0  0  0  0
  2  1  1  0  0  0  0
  3  2  2  0  0  0  0
  3  1  1  0  0  0  0
  4  3  1  0  0  0  0
  4  7  2  0  0  0  0
  5  8  2  0  0  0  0
  6  5  1  0  0  0  0
  6  4  1  0  0  0  0
  8  7  1  0  0  0  0
  9 12  1  0  0  0  0
 10  9  2  0  0  0  0
 10 11  1  0  0  0  0
 11 14  2  0  0  0  0
 12 13  2  0  0  0  0
 14 13  1  0  0  0  0
 14  5  1  0  0  0  0
 15  9  1  0  0  0  0
 16 15  1  0  0  0  0
 17 18  1  0  0  0  0
 18 19  2  0  0  0  0
 19 21  1  0  0  0  0
 20 18  1  0  0  0  0
 21 22  1  0  0  0  0
 22 23  1  0  0  0  0
 23 27  1  0  0  0  0
 25 24  1  0  0  0  0
 26 25  2  0  0  0  0
 27 24  2  0  0  0  0
 28 26  1  0  0  0  0
 28 23  2  0  0  0  0
M  END
>  <MODEL>
2

>  <REMARK>
 VINA RESULT:      -8.4      2.741      9.261
  Name = 
  8 active torsions:
  status: ('A' for Active; 'I' for Inactive)
    1  A    between atoms: C_1  and  C_18
    2  A    between atoms: C_2  and  C_16
    3  A    between atoms: O_3  and  C_4
    4  A    between atoms: C_5  and  C_28
    5  A    between atoms: C_9  and  O_17
    6  A    between atoms: C_13  and  C_16
    7  A    between atoms: O_17  and  C_26
    8  A    between atoms: C_20  and  C_26
                            x       y       z     vdW  Elec       q    Type
                         _______ _______ _______ _____ _____    ______ ____

>  <TORSDO>
F 8

$$$$
=
 OpenBabel11052410513D

 28 31  0  0  0  0  0  0  0  0999 V2000
  161.2620  202.1320  151.2100 N   0  0  0  0  0  2  0  0  0  0  0  0
  160.7010  202.4580  149.9690 C   0  0  0  0  0  0  0  0  0  0  0  0
  160.9960  203.4610  150.8570 C   0  0  0  0  0  0  0  0  0  0  0  0
  161.0100  204.8790  151.1930 C   0  0  0  0  0  0  0  0  0  0  0  0
  161.0580  207.1160  152.2760 C   0  0  0  0  0  0  0  0  0  0  0  0
  161.0860  205.5000  152.7490 S   0  0  0  0  0  0  0  0  0  0  0  0
  160.9620  205.9180  150.2750 C   0  0  0  0  0  3  0  0  0  0  0  0
  160.9890  207.1800  150.8850 C   0  0  0  0  0  3  0  0  0  0  0  0
  161.1780  210.4960  154.9140 C   0  0  0  0  0  0  0  0  0  0  0  0
  161.1240  209.1920  155.4330 C   0  0  0  0  0  3  0  0  0  0  0  0
  161.0860  208.0920  154.5730 C   0  0  0  0  0  3  0  0  0  0  0  0
  161.1910  210.6810  153.5280 C   0  0  0  0  0  3  0  0  0  0  0  0
  161.1530  209.5800  152.6670 C   0  0  0  0  0  3  0  0  0  0  0  0
  161.1000  208.2770  153.1830 C   0  0  0  0  0  0  0  0  0  0  0  0
  161.2170  211.6160  155.7470 O   0  0  0  0  0  0  0  0  0  0  0  0
  160.1160  212.5030  155.8930 C   0  0  0  0  0  1  0  0  0  0  0  0
  160.1490  202.0300  148.6540 C   0  0  0  0  0  2  0  0  0  0  0  0
  161.0550  201.0210  148.0240 C   0  0  0  0  0  0  0  0  0  0  0  0
  161.1290  200.8640  146.7010 C   0  0  0  0  0  3  0  0  0  0  0  0
  161.8310  200.2090  148.8420 O   0  0  0  0  0  1  0  0  0  0  0  0
  160.3380  201.6770  145.7190 C   0  0  0  0  0  2  0  0  0  0  0  0
  161.1510  202.6830  145.1200 O   0  0  0  0  0  0  0  0  0  0  0  0
  161.2390  203.9940  145.6020 C   0  0  0  0  0  0  0  0  0  0  0  0
  162.2080  205.6650  147.0760 C   0  0  0  0  0  3  0  0  0  0  0  0
  161.3670  206.6370  146.5270 C   0  0  0  0  0  3  0  0  0  0  0  0
  160.4630  206.2900  145.5190 C   0  0  0  0  0  3  0  0  0  0  0  0
  162.1460  204.3470  146.6160 C   0  0  0  0  0  3  0  0  0  0  0  0
  160.3990  204.9710  145.0590 C   0  0  0  0  0  3  0  0  0  0  0  0
  2  3  2  0  0  0  0
  2  1  1  0  0  0  0
  3  4  1  0  0  0  0
  3  1  1  0  0  0  0
  4  6  1  0  0  0  0
  5  6  1  0  0  0  0
  5 14  1  0  0  0  0
  7  8  1  0  0  0  0
  7  4  2  0  0  0  0
  8  5  2  0  0  0  0
  9 10  1  0  0  0  0
  9 15  1  0  0  0  0
 11 10  2  0  0  0  0
 12  9  2  0  0  0  0
 13 14  2  0  0  0  0
 13 12  1  0  0  0  0
 14 11  1  0  0  0  0
 15 16  1  0  0  0  0
 17  2  1  0  0  0  0
 18 17  1  0  0  0  0
 18 20  1  0  0  0  0
 19 18  2  0  0  0  0
 21 19  1  0  0  0  0
 22 23  1  0  0  0  0
 22 21  1  0  0  0  0
 23 27  1  0  0  0  0
 25 24  1  0  0  0  0
 26 25  2  0  0  0  0
 27 24  2  0  0  0  0
 28 26  1  0  0  0  0
 28 23  2  0  0  0  0
M  END
>  <MODEL>
3

>  <REMARK>
 VINA RESULT:      -8.2      2.087      3.992
  Name = 
  8 active torsions:
  status: ('A' for Active; 'I' for Inactive)
    1  A    between atoms: C_1  and  C_18
    2  A    between atoms: C_2  and  C_16
    3  A    between atoms: O_3  and  C_4
    4  A    between atoms: C_5  and  C_28
    5  A    between atoms: C_9  and  O_17
    6  A    between atoms: C_13  and  C_16
    7  A    between atoms: O_17  and  C_26
    8  A    between atoms: C_20  and  C_26
                            x       y       z     vdW  Elec       q    Type
                         _______ _______ _______ _____ _____    ______ ____

>  <TORSDO>
F 8

$$$$
=
 OpenBabel11052410513D

 28 31  0  0  0  0  0  0  0  0999 V2000
  161.2100  209.5740  154.3450 N   0  0  0  0  0  2  0  0  0  0  0  0
  160.9470  210.0600  153.0580 C   0  0  0  0  0  0  0  0  0  0  0  0
  161.0860  208.7100  153.2500 C   0  0  0  0  0  0  0  0  0  0  0  0
  161.1040  207.3580  152.7050 C   0  0  0  0  0  0  0  0  0  0  0  0
  161.0980  205.3070  151.2990 C   0  0  0  0  0  0  0  0  0  0  0  0
  161.0300  206.9750  151.0730 S   0  0  0  0  0  0  0  0  0  0  0  0
  161.1830  206.1950  153.4570 C   0  0  0  0  0  3  0  0  0  0  0  0
  161.1800  205.0380  152.6640 C   0  0  0  0  0  3  0  0  0  0  0  0
  161.0290  202.3600  148.1850 C   0  0  0  0  0  0  0  0  0  0  0  0
  161.3080  203.7030  147.8840 C   0  0  0  0  0  3  0  0  0  0  0  0
  161.3310  204.6620  148.9000 C   0  0  0  0  0  3  0  0  0  0  0  0
  160.7730  201.9930  149.5090 C   0  0  0  0  0  3  0  0  0  0  0  0
  160.7960  202.9540  150.5250 C   0  0  0  0  0  3  0  0  0  0  0  0
  161.0750  204.2960  150.2290 C   0  0  0  0  0  0  0  0  0  0  0  0
  160.9980  201.3780  147.1920 O   0  0  0  0  0  0  0  0  0  0  0  0
  160.5810  201.6450  145.8600 C   0  0  0  0  0  1  0  0  0  0  0  0
  160.7180  211.2090  152.1390 C   0  0  0  0  0  2  0  0  0  0  0  0
  159.3590  211.7880  152.3730 C   0  0  0  0  0  0  0  0  0  0  0  0
  158.9820  212.9490  151.8350 C   0  0  0  0  0  3  0  0  0  0  0  0
  158.4680  211.1040  153.1910 O   0  0  0  0  0  1  0  0  0  0  0  0
  159.8560  213.7780  150.9420 C   0  0  0  0  0  2  0  0  0  0  0  0
  159.5390  213.5560  149.5700 O   0  0  0  0  0  0  0  0  0  0  0  0
  160.5030  213.4070  148.5680 C   0  0  0  0  0  0  0  0  0  0  0  0
  161.3500  213.8630  146.3360 C   0  0  0  0  0  3  0  0  0  0  0  0
  162.4700  213.0680  146.5980 C   0  0  0  0  0  3  0  0  0  0  0  0
  162.6080  212.4440  147.8410 C   0  0  0  0  0  3  0  0  0  0  0  0
  160.3680  214.0320  147.3170 C   0  0  0  0  0  3  0  0  0  0  0  0
  161.6260  212.6130  148.8220 C   0  0  0  0  0  3  0  0  0  0  0  0
  2  3  2  0  0  0  0
  2  1  1  0  0  0  0
  3  1  1  0  0  0  0
  4  3  1  0  0  0  0
  4  7  2  0  0  0  0
  5  8  2  0  0  0  0
  6  5  1  0  0  0  0
  6  4  1  0  0  0  0
  8  7  1  0  0  0  0
  9 12  1  0  0  0  0
 10  9  2  0  0  0  0
 10 11  1  0  0  0  0
 11 14  2  0  0  0  0
 12 13  2  0  0  0  0
 14 13  1  0  0  0  0
 14  5  1  0  0  0  0
 15  9  1  0  0  0  0
 16 15  1  0  0  0  0
 17 18  1  0  0  0  0
 17  2  1  0  0  0  0
 18 20  1  0  0  0  0
 19 18  2  0  0  0  0
 21 19  1  0  0  0  0
 22 21  1  0  0  0  0
 23 28  1  0  0  0  0
 23 22  1  0  0  0  0
 24 25  2  0  0  0  0
 24 27  1  0  0  0  0
 25 26  1  0  0  0  0
 26 28  2  0  0  0  0
 27 23  2  0  0  0  0
M  END
>  <MODEL>
4

>  <REMARK>
 VINA RESULT:      -8.1      3.921      9.499
  Name = 
  8 active torsions:
  status: ('A' for Active; 'I' for Inactive)
    1  A    between atoms: C_1  and  C_18
    2  A    between atoms: C_2  and  C_16
    3  A    between atoms: O_3  and  C_4
    4  A    between atoms: C_5  and  C_28
    5  A    between atoms: C_9  and  O_17
    6  A    between atoms: C_13  and  C_16
    7  A    between atoms: O_17  and  C_26
    8  A    between atoms: C_20  and  C_26
                            x       y       z     vdW  Elec       q    Type
                         _______ _______ _______ _____ _____    ______ ____

>  <TORSDO>
F 8

$$$$
=
 OpenBabel11052410513D

 28 31  0  0  0  0  0  0  0  0999 V2000
  160.9190  206.7520  153.3700 N   0  0  0  0  0  2  0  0  0  0  0  0
  161.7360  207.2420  152.3440 C   0  0  0  0  0  0  0  0  0  0  0  0
  161.2440  205.9650  152.2580 C   0  0  0  0  0  0  0  0  0  0  0  0
  161.1420  204.7020  151.5370 C   0  0  0  0  0  0  0  0  0  0  0  0
  161.0400  202.8610  149.8700 C   0  0  0  0  0  0  0  0  0  0  0  0
  161.2470  204.5320  149.8710 S   0  0  0  0  0  0  0  0  0  0  0  0
  160.9450  203.4610  152.1240 C   0  0  0  0  0  3  0  0  0  0  0  0
  160.8870  202.4220  151.1840 C   0  0  0  0  0  3  0  0  0  0  0  0
  160.9930  200.3580  146.3880 C   0  0  0  0  0  0  0  0  0  0  0  0
  161.4000  199.8400  147.6280 C   0  0  0  0  0  3  0  0  0  0  0  0
  161.4140  200.6560  148.7620 C   0  0  0  0  0  3  0  0  0  0  0  0
  160.6050  201.6980  146.2990 C   0  0  0  0  0  3  0  0  0  0  0  0
  160.6190  202.5140  147.4340 C   0  0  0  0  0  3  0  0  0  0  0  0
  161.0230  202.0000  148.6740 C   0  0  0  0  0  0  0  0  0  0  0  0
  160.9690  199.5680  145.2360 O   0  0  0  0  0  0  0  0  0  0  0  0
  161.3710  198.2060  145.2300 C   0  0  0  0  0  1  0  0  0  0  0  0
  162.5670  208.3370  151.7730 C   0  0  0  0  0  2  0  0  0  0  0  0
  161.7040  209.2880  151.0060 C   0  0  0  0  0  0  0  0  0  0  0  0
  161.5010  209.1600  149.6940 C   0  0  0  0  0  3  0  0  0  0  0  0
  161.1100  210.3490  151.6790 O   0  0  0  0  0  1  0  0  0  0  0  0
  162.0920  208.0610  148.8620 C   0  0  0  0  0  2  0  0  0  0  0  0
  161.0880  207.4180  148.0820 O   0  0  0  0  0  0  0  0  0  0  0  0
  161.3700  206.5570  147.0150 C   0  0  0  0  0  0  0  0  0  0  0  0
  162.8460  205.0220  145.8440 C   0  0  0  0  0  3  0  0  0  0  0  0
  161.8780  204.8490  144.8500 C   0  0  0  0  0  3  0  0  0  0  0  0
  160.6590  205.5290  144.9360 C   0  0  0  0  0  3  0  0  0  0  0  0
  162.5940  205.8730  146.9240 C   0  0  0  0  0  3  0  0  0  0  0  0
  160.4070  206.3810  146.0160 C   0  0  0  0  0  3  0  0  0  0  0  0
  2  1  1  0  0  0  0
  3  2  2  0  0  0  0
  3  1  1  0  0  0  0
  4  7  2  0  0  0  0
  4  3  1  0  0  0  0
  5  6  1  0  0  0  0
  5  8  2  0  0  0  0
  6  4  1  0  0  0  0
  8  7  1  0  0  0  0
  9 10  1  0  0  0  0
 10 11  2  0  0  0  0
 12  9  2  0  0  0  0
 12 13  1  0  0  0  0
 13 14  2  0  0  0  0
 14 11  1  0  0  0  0
 14  5  1  0  0  0  0
 15  9  1  0  0  0  0
 16 15  1  0  0  0  0
 17  2  1  0  0  0  0
 18 20  1  0  0  0  0
 18 17  1  0  0  0  0
 19 18  2  0  0  0  0
 21 19  1  0  0  0  0
 22 21  1  0  0  0  0
 23 22  1  0  0  0  0
 24 27  2  0  0  0  0
 25 26  2  0  0  0  0
 25 24  1  0  0  0  0
 26 28  1  0  0  0  0
 27 23  1  0  0  0  0
 28 23  2  0  0  0  0
M  END
>  <MODEL>
5

>  <REMARK>
 VINA RESULT:      -7.9      2.501      8.045
  Name = 
  8 active torsions:
  status: ('A' for Active; 'I' for Inactive)
    1  A    between atoms: C_1  and  C_18
    2  A    between atoms: C_2  and  C_16
    3  A    between atoms: O_3  and  C_4
    4  A    between atoms: C_5  and  C_28
    5  A    between atoms: C_9  and  O_17
    6  A    between atoms: C_13  and  C_16
    7  A    between atoms: O_17  and  C_26
    8  A    between atoms: C_20  and  C_26
                            x       y       z     vdW  Elec       q    Type
                         _______ _______ _______ _____ _____    ______ ____

>  <TORSDO>
F 8

$$$$
=
 OpenBabel11052410513D

 28 31  0  0  0  0  0  0  0  0999 V2000
  160.9930  209.6100  152.2250 N   0  0  0  0  0  2  0  0  0  0  0  0
  161.3070  209.0410  153.4650 C   0  0  0  0  0  0  0  0  0  0  0  0
  161.1810  208.2300  152.3670 C   0  0  0  0  0  0  0  0  0  0  0  0
  161.2090  206.8960  151.7790 C   0  0  0  0  0  0  0  0  0  0  0  0
  161.1630  204.8890  150.3140 C   0  0  0  0  0  0  0  0  0  0  0  0
  160.9950  206.5570  150.1500 S   0  0  0  0  0  0  0  0  0  0  0  0
  161.4170  205.7180  152.4810 C   0  0  0  0  0  3  0  0  0  0  0  0
  161.3910  204.5860  151.6550 C   0  0  0  0  0  3  0  0  0  0  0  0
  160.9360  202.0340  147.1210 C   0  0  0  0  0  0  0  0  0  0  0  0
  160.4610  201.7060  148.4010 C   0  0  0  0  0  3  0  0  0  0  0  0
  160.5350  202.6370  149.4400 C   0  0  0  0  0  3  0  0  0  0  0  0
  161.4850  203.3010  146.8980 C   0  0  0  0  0  3  0  0  0  0  0  0
  161.5580  204.2320  147.9380 C   0  0  0  0  0  3  0  0  0  0  0  0
  161.0840  203.9080  149.2170 C   0  0  0  0  0  0  0  0  0  0  0  0
  160.8770  201.1260  146.0620 O   0  0  0  0  0  0  0  0  0  0  0  0
  160.0630  201.3340  144.9160 C   0  0  0  0  0  1  0  0  0  0  0  0
  161.5600  209.1950  154.9250 C   0  0  0  0  0  2  0  0  0  0  0  0
  160.4340  208.5960  155.7050 C   0  0  0  0  0  0  0  0  0  0  0  0
  159.7000  209.3150  156.5560 C   0  0  0  0  0  3  0  0  0  0  0  0
  160.1540  207.2440  155.5520 O   0  0  0  0  0  1  0  0  0  0  0  0
  159.9110  210.7780  156.8080 C   0  0  0  0  0  2  0  0  0  0  0  0
  158.7330  211.5220  156.5040 O   0  0  0  0  0  0  0  0  0  0  0  0
  158.4830  212.0970  155.2530 C   0  0  0  0  0  0  0  0  0  0  0  0
  156.9810  213.0970  153.6250 C   0  0  0  0  0  3  0  0  0  0  0  0
  158.0450  213.2380  152.7300 C   0  0  0  0  0  3  0  0  0  0  0  0
  159.3250  212.8090  153.0930 C   0  0  0  0  0  3  0  0  0  0  0  0
  157.1980  212.5280  154.8840 C   0  0  0  0  0  3  0  0  0  0  0  0
  159.5420  212.2390  154.3510 C   0  0  0  0  0  3  0  0  0  0  0  0
  1  3  1  0  0  0  0
  1  2  1  0  0  0  0
  2 17  1  0  0  0  0
  3  2  2  0  0  0  0
  4  3  1  0  0  0  0
  4  7  2  0  0  0  0
  5  8  2  0  0  0  0
  6  5  1  0  0  0  0
  6  4  1  0  0  0  0
  8  7  1  0  0  0  0
  9 10  1  0  0  0  0
 10 11  2  0  0  0  0
 12  9  2  0  0  0  0
 12 13  1  0  0  0  0
 13 14  2  0  0  0  0
 14 11  1  0  0  0  0
 14  5  1  0  0  0  0
 15  9  1  0  0  0  0
 16 15  1  0  0  0  0
 17 18  1  0  0  0  0
 18 19  2  0  0  0  0
 19 21  1  0  0  0  0
 20 18  1  0  0  0  0
 22 21  1  0  0  0  0
 23 22  1  0  0  0  0
 24 27  2  0  0  0  0
 25 26  2  0  0  0  0
 25 24  1  0  0  0  0
 26 28  1  0  0  0  0
 27 23  1  0  0  0  0
 28 23  2  0  0  0  0
M  END
>  <MODEL>
6

>  <REMARK>
 VINA RESULT:      -7.9      2.818      9.717
  Name = 
  8 active torsions:
  status: ('A' for Active; 'I' for Inactive)
    1  A    between atoms: C_1  and  C_18
    2  A    between atoms: C_2  and  C_16
    3  A    between atoms: O_3  and  C_4
    4  A    between atoms: C_5  and  C_28
    5  A    between atoms: C_9  and  O_17
    6  A    between atoms: C_13  and  C_16
    7  A    between atoms: O_17  and  C_26
    8  A    between atoms: C_20  and  C_26
                            x       y       z     vdW  Elec       q    Type
                         _______ _______ _______ _____ _____    ______ ____

>  <TORSDO>
F 8

$$$$
=
 OpenBabel11052410513D

 28 31  0  0  0  0  0  0  0  0999 V2000
  161.8770  210.7090  155.2580 N   0  0  0  0  0  2  0  0  0  0  0  0
  160.7550  211.2550  154.6220 C   0  0  0  0  0  0  0  0  0  0  0  0
  161.3350  210.1240  154.1070 C   0  0  0  0  0  0  0  0  0  0  0  0
  161.3680  209.0790  153.0910 C   0  0  0  0  0  0  0  0  0  0  0  0
  161.2770  206.9760  151.7690 C   0  0  0  0  0  0  0  0  0  0  0  0
  161.0110  207.4620  153.3600 S   0  0  0  0  0  0  0  0  0  0  0  0
  161.7000  209.2720  151.7580 C   0  0  0  0  0  3  0  0  0  0  0  0
  161.6490  208.0860  151.0120 C   0  0  0  0  0  3  0  0  0  0  0  0
  160.8750  202.9740  150.2790 C   0  0  0  0  0  0  0  0  0  0  0  0
  161.0590  203.2050  151.6520 C   0  0  0  0  0  3  0  0  0  0  0  0
  161.1880  204.5090  152.1370 C   0  0  0  0  0  3  0  0  0  0  0  0
  160.8260  204.0620  149.4020 C   0  0  0  0  0  3  0  0  0  0  0  0
  160.9560  205.3670  149.8880 C   0  0  0  0  0  3  0  0  0  0  0  0
  161.1380  205.6010  151.2580 C   0  0  0  0  0  0  0  0  0  0  0  0
  160.7430  201.6830  149.7640 O   0  0  0  0  0  0  0  0  0  0  0  0
  161.0770  201.3540  148.4230 C   0  0  0  0  0  1  0  0  0  0  0  0
  159.7100  212.3130  154.5390 C   0  0  0  0  0  2  0  0  0  0  0  0
  158.6910  211.9460  153.5080 C   0  0  0  0  0  0  0  0  0  0  0  0
  158.8610  212.2200  152.2140 C   0  0  0  0  0  3  0  0  0  0  0  0
  157.5220  211.3150  153.9140 O   0  0  0  0  0  1  0  0  0  0  0  0
  160.0770  212.9000  151.6590 C   0  0  0  0  0  2  0  0  0  0  0  0
  159.8500  213.3330  150.3200 O   0  0  0  0  0  0  0  0  0  0  0  0
  160.7760  213.1610  149.2840 C   0  0  0  0  0  0  0  0  0  0  0  0
  162.5370  211.9000  148.1820 C   0  0  0  0  0  3  0  0  0  0  0  0
  162.6130  212.8770  147.1850 C   0  0  0  0  0  3  0  0  0  0  0  0
  161.7730  213.9930  147.2350 C   0  0  0  0  0  3  0  0  0  0  0  0
  161.6220  212.0410  149.2300 C   0  0  0  0  0  3  0  0  0  0  0  0
  160.8580  214.1350  148.2840 C   0  0  0  0  0  3  0  0  0  0  0  0
  2  1  1  0  0  0  0
  3  2  2  0  0  0  0
  3  1  1  0  0  0  0
  4  6  1  0  0  0  0
  4  3  1  0  0  0  0
  5  6  1  0  0  0  0
  7  4  2  0  0  0  0
  8  7  1  0  0  0  0
  8  5  2  0  0  0  0
  9 10  1  0  0  0  0
 10 11  2  0  0  0  0
 12 13  1  0  0  0  0
 12  9  2  0  0  0  0
 13 14  2  0  0  0  0
 14  5  1  0  0  0  0
 14 11  1  0  0  0  0
 15  9  1  0  0  0  0
 16 15  1  0  0  0  0
 17  2  1  0  0  0  0
 18 20  1  0  0  0  0
 18 17  1  0  0  0  0
 19 18  2  0  0  0  0
 21 19  1  0  0  0  0
 22 21  1  0  0  0  0
 23 22  1  0  0  0  0
 24 27  2  0  0  0  0
 25 26  2  0  0  0  0
 25 24  1  0  0  0  0
 26 28  1  0  0  0  0
 27 23  1  0  0  0  0
 28 23  2  0  0  0  0
M  END
>  <MODEL>
7

>  <REMARK>
 VINA RESULT:      -7.8      3.941      9.232
  Name = 
  8 active torsions:
  status: ('A' for Active; 'I' for Inactive)
    1  A    between atoms: C_1  and  C_18
    2  A    between atoms: C_2  and  C_16
    3  A    between atoms: O_3  and  C_4
    4  A    between atoms: C_5  and  C_28
    5  A    between atoms: C_9  and  O_17
    6  A    between atoms: C_13  and  C_16
    7  A    between atoms: O_17  and  C_26
    8  A    between atoms: C_20  and  C_26
                            x       y       z     vdW  Elec       q    Type
                         _______ _______ _______ _____ _____    ______ ____

>  <TORSDO>
F 8

$$$$
=
 OpenBabel11052410513D

 28 31  0  0  0  0  0  0  0  0999 V2000
  161.9580  210.3290  153.8750 N   0  0  0  0  0  2  0  0  0  0  0  0
  160.8410  210.5910  153.0710 C   0  0  0  0  0  0  0  0  0  0  0  0
  161.3460  209.3170  153.1260 C   0  0  0  0  0  0  0  0  0  0  0  0
  161.2900  207.9230  152.7010 C   0  0  0  0  0  0  0  0  0  0  0  0
  161.1630  205.7610  151.4810 C   0  0  0  0  0  0  0  0  0  0  0  0
  161.1680  207.4050  151.1110 S   0  0  0  0  0  0  0  0  0  0  0  0
  161.3300  206.8280  153.5510 C   0  0  0  0  0  3  0  0  0  0  0  0
  161.2580  205.6080  152.8630 C   0  0  0  0  0  3  0  0  0  0  0  0
  160.8980  202.5620  148.6380 C   0  0  0  0  0  0  0  0  0  0  0  0
  161.1200  203.8780  148.2050 C   0  0  0  0  0  3  0  0  0  0  0  0
  161.2070  204.9200  149.1320 C   0  0  0  0  0  3  0  0  0  0  0  0
  160.7630  202.3030  150.0060 C   0  0  0  0  0  3  0  0  0  0  0  0
  160.8500  203.3460  150.9330 C   0  0  0  0  0  3  0  0  0  0  0  0
  161.0730  204.6630  150.5040 C   0  0  0  0  0  0  0  0  0  0  0  0
  160.8050  201.4980  147.7370 O   0  0  0  0  0  0  0  0  0  0  0  0
  160.8350  201.6820  146.3280 C   0  0  0  0  0  1  0  0  0  0  0  0
  159.8480  211.5550  152.5230 C   0  0  0  0  0  2  0  0  0  0  0  0
  158.8130  211.8670  153.5560 C   0  0  0  0  0  0  0  0  0  0  0  0
  158.0720  212.9750  153.5060 C   0  0  0  0  0  3  0  0  0  0  0  0
  158.6310  210.9830  154.6130 O   0  0  0  0  0  1  0  0  0  0  0  0
  158.1830  214.0030  152.4200 C   0  0  0  0  0  2  0  0  0  0  0  0
  157.2850  213.7130  151.3510 O   0  0  0  0  0  0  0  0  0  0  0  0
  157.6870  213.5850  150.0170 C   0  0  0  0  0  0  0  0  0  0  0  0
  159.4030  213.5690  148.2960 C   0  0  0  0  0  3  0  0  0  0  0  0
  158.4280  213.3210  147.3250 C   0  0  0  0  0  3  0  0  0  0  0  0
  157.0850  213.2060  147.6980 C   0  0  0  0  0  3  0  0  0  0  0  0
  159.0350  213.7010  149.6380 C   0  0  0  0  0  3  0  0  0  0  0  0
  156.7170  213.3380  149.0400 C   0  0  0  0  0  3  0  0  0  0  0  0
  2  3  2  0  0  0  0
  2  1  1  0  0  0  0
  3  1  1  0  0  0  0
  4  3  1  0  0  0  0
  4  7  2  0  0  0  0
  5  8  2  0  0  0  0
  6  5  1  0  0  0  0
  6  4  1  0  0  0  0
  8  7  1  0  0  0  0
  9 12  1  0  0  0  0
 10  9  2  0  0  0  0
 10 11  1  0  0  0  0
 11 14  2  0  0  0  0
 12 13  2  0  0  0  0
 14 13  1  0  0  0  0
 14  5  1  0  0  0  0
 15  9  1  0  0  0  0
 16 15  1  0  0  0  0
 17  2  1  0  0  0  0
 17 18  1  0  0  0  0
 18 20  1  0  0  0  0
 19 18  2  0  0  0  0
 21 19  1  0  0  0  0
 22 21  1  0  0  0  0
 23 22  1  0  0  0  0
 24 27  2  0  0  0  0
 25 26  2  0  0  0  0
 25 24  1  0  0  0  0
 26 28  1  0  0  0  0
 27 23  1  0  0  0  0
 28 23  2  0  0  0  0
M  END
>  <MODEL>
8

>  <REMARK>
 VINA RESULT:      -7.8      4.144      9.743
  Name = 
  8 active torsions:
  status: ('A' for Active; 'I' for Inactive)
    1  A    between atoms: C_1  and  C_18
    2  A    between atoms: C_2  and  C_16
    3  A    between atoms: O_3  and  C_4
    4  A    between atoms: C_5  and  C_28
    5  A    between atoms: C_9  and  O_17
    6  A    between atoms: C_13  and  C_16
    7  A    between atoms: O_17  and  C_26
    8  A    between atoms: C_20  and  C_26
                            x       y       z     vdW  Elec       q    Type
                         _______ _______ _______ _____ _____    ______ ____

>  <TORSDO>
F 8

$$$$
=
 OpenBabel11052410513D

 28 31  0  0  0  0  0  0  0  0999 V2000
  161.2060  208.3920  156.0350 N   0  0  0  0  0  2  0  0  0  0  0  0
  160.8830  209.4280  155.1500 C   0  0  0  0  0  0  0  0  0  0  0  0
  161.0790  208.1620  154.6600 C   0  0  0  0  0  0  0  0  0  0  0  0
  161.1290  207.2470  153.5260 C   0  0  0  0  0  0  0  0  0  0  0  0
  161.1810  206.1400  151.3010 C   0  0  0  0  0  0  0  0  0  0  0  0
  161.0840  207.7060  151.9140 S   0  0  0  0  0  0  0  0  0  0  0  0
  161.2220  205.8660  153.6190 C   0  0  0  0  0  3  0  0  0  0  0  0
  161.2510  205.2410  152.3640 C   0  0  0  0  0  3  0  0  0  0  0  0
  161.2120  205.0870  147.1440 C   0  0  0  0  0  0  0  0  0  0  0  0
  161.3590  204.0960  148.1280 C   0  0  0  0  0  3  0  0  0  0  0  0
  161.3480  204.4400  149.4820 C   0  0  0  0  0  3  0  0  0  0  0  0
  161.0560  206.4210  147.5330 C   0  0  0  0  0  3  0  0  0  0  0  0
  161.0450  206.7650  148.8880 C   0  0  0  0  0  3  0  0  0  0  0  0
  161.1910  205.7770  149.8730 C   0  0  0  0  0  0  0  0  0  0  0  0
  161.2190  204.7760  145.7820 O   0  0  0  0  0  0  0  0  0  0  0  0
  160.6070  205.6030  144.8020 C   0  0  0  0  0  1  0  0  0  0  0  0
  160.5820  210.8660  154.9070 C   0  0  0  0  0  2  0  0  0  0  0  0
  159.1050  211.0630  154.7730 C   0  0  0  0  0  0  0  0  0  0  0  0
  158.5570  211.5810  153.6730 C   0  0  0  0  0  3  0  0  0  0  0  0
  158.2810  210.7130  155.8350 O   0  0  0  0  0  1  0  0  0  0  0  0
  159.3440  212.0000  152.4670 C   0  0  0  0  0  2  0  0  0  0  0  0
  158.9670  213.3080  152.0430 O   0  0  0  0  0  0  0  0  0  0  0  0
  157.8320  213.5730  151.2690 C   0  0  0  0  0  0  0  0  0  0  0  0
  155.5790  214.4470  151.0120 C   0  0  0  0  0  3  0  0  0  0  0  0
  155.5880  214.0740  149.6650 C   0  0  0  0  0  3  0  0  0  0  0  0
  156.7140  213.4520  149.1190 C   0  0  0  0  0  3  0  0  0  0  0  0
  156.6970  214.1970  151.8130 C   0  0  0  0  0  3  0  0  0  0  0  0
  157.8330  213.2010  149.9200 C   0  0  0  0  0  3  0  0  0  0  0  0
  2  1  1  0  0  0  0
  3  2  2  0  0  0  0
  3  1  1  0  0  0  0
  4  7  2  0  0  0  0
  4  3  1  0  0  0  0
  5  6  1  0  0  0  0
  5  8  2  0  0  0  0
  6  4  1  0  0  0  0
  8  7  1  0  0  0  0
  9 12  2  0  0  0  0
  9 10  1  0  0  0  0
 10 11  2  0  0  0  0
 11 14  1  0  0  0  0
 12 13  1  0  0  0  0
 13 14  2  0  0  0  0
 14  5  1  0  0  0  0
 15  9  1  0  0  0  0
 16 15  1  0  0  0  0
 17  2  1  0  0  0  0
 18 17  1  0  0  0  0
 18 20  1  0  0  0  0
 19 18  2  0  0  0  0
 21 19  1  0  0  0  0
 22 21  1  0  0  0  0
 23 27  1  0  0  0  0
 23 22  1  0  0  0  0
 24 27  2  0  0  0  0
 25 24  1  0  0  0  0
 26 25  2  0  0  0  0
 26 28  1  0  0  0  0
 28 23  2  0  0  0  0
M  END
>  <MODEL>
9

>  <REMARK>
 VINA RESULT:      -7.7      4.210      9.899
  Name = 
  8 active torsions:
  status: ('A' for Active; 'I' for Inactive)
    1  A    between atoms: C_1  and  C_18
    2  A    between atoms: C_2  and  C_16
    3  A    between atoms: O_3  and  C_4
    4  A    between atoms: C_5  and  C_28
    5  A    between atoms: C_9  and  O_17
    6  A    between atoms: C_13  and  C_16
    7  A    between atoms: O_17  and  C_26
    8  A    between atoms: C_20  and  C_26
                            x       y       z     vdW  Elec       q    Type
                         _______ _______ _______ _____ _____    ______ ____

>  <TORSDO>
F 8

$$$$
