=
 OpenBabel11042423093D

 37 40  0  0  1  0  0  0  0  0999 V2000
  161.0760  205.5380  153.5020 N   0  0  0  0  0  0  0  0  0  0  0  0
  161.0840  205.0620  150.8040 C   0  0  0  0  0  3  0  0  0  0  0  0
  161.2090  204.0120  151.7170 C   0  0  0  0  0  0  0  0  0  0  0  0
  161.2100  204.2890  153.0470 N   0  0  0  0  0  0  0  0  0  0  0  0
  160.9410  206.5960  152.6560 C   0  0  0  0  0  0  0  0  0  0  0  0
  160.9590  206.3750  151.2720 C   0  0  0  0  0  0  0  0  0  0  0  0
  160.8290  207.5250  150.3140 C   0  0  2  0  0  3  0  0  0  0  0  0
  161.9640  209.5750  150.0520 C   0  0  1  0  0  3  0  0  0  0  0  0
  161.6320  207.2880  149.0420 C   0  0  2  0  0  3  0  0  0  0  0  0
  161.3220  208.8010  150.9120 C   0  0  0  0  0  2  0  0  0  0  0  0
  162.6390  210.8320  150.4780 C   0  0  0  0  0  1  0  0  0  0  0  0
  162.1390  208.9190  148.4020 S   0  0  0  0  0  0  0  0  0  0  0  0
  160.8030  206.6090  148.0610 N   0  0  0  0  0  2  0  0  0  0  0  0
  161.6560  206.2700  146.9290 C   0  0  1  0  0  3  0  0  0  0  0  0
  162.3540  204.1150  145.0120 C   0  0  0  0  0  2  0  0  0  0  0  0
  159.6740  206.3580  145.6140 O   0  0  0  0  0  0  0  0  0  0  0  0
  162.5440  205.0820  147.2960 C   0  0  0  0  0  2  0  0  0  0  0  0
  163.3290  204.6000  146.0780 C   0  0  0  0  0  2  0  0  0  0  0  0
  161.4640  205.2650  144.5390 C   0  0  0  0  0  2  0  0  0  0  0  0
  160.8240  205.9550  145.7080 C   0  0  0  0  0  0  0  0  0  0  0  0
  162.1220  201.8240  151.8390 O   0  0  0  0  0  0  0  0  0  0  0  0
  161.3370  202.6220  151.2540 C   0  0  0  0  0  0  0  0  0  0  0  0
  160.5750  202.1830  150.1280 N   0  0  0  0  0  2  0  0  0  0  0  0
  160.6780  200.8350  149.5890 C   0  0  0  0  0  2  0  0  0  0  0  0
  161.4840  200.8390  148.2990 C   0  0  0  0  0  2  0  0  0  0  0  0
  160.7900  201.6360  147.2080 C   0  0  0  0  0  2  0  0  0  0  0  0
  159.8620  201.5100  145.0730 C   0  0  0  0  0  1  0  0  0  0  0  0
  160.8610  200.9180  145.9450 N   0  0  0  0  0  2  0  0  0  0  0  0
  160.7640  207.9190  153.1790 N   0  0  0  0  0  2  0  0  0  0  0  0
  162.3310  210.4130  155.1570 C   0  0  0  0  0  1  0  0  0  0  0  0
  160.2820  207.6440  155.5620 C   0  0  0  0  0  2  0  0  0  0  0  0
  161.0150  209.7990  154.7070 C   0  0  2  0  0  3  0  0  0  0  0  0
  160.0210  209.8770  155.8030 C   0  0  0  0  0  0  0  0  0  0  0  0
  159.6300  208.7360  156.2570 N   0  0  0  0  0  0  0  0  0  0  0  0
  161.1940  208.2980  154.5180 C   0  0  2  0  0  3  0  0  0  0  0  0
  159.5420  211.0920  156.2970 O   0  0  0  0  0  0  0  0  0  0  0  0
  159.0200  212.1010  155.4450 C   0  0  0  0  0  1  0  0  0  0  0  0
  2  6  2  0  0  0  0
  2  3  1  0  0  0  0
  3  4  2  0  0  0  0
  4  1  1  0  0  0  0
  5 29  1  0  0  0  0
  5  1  2  0  0  0  0
  6  5  1  0  0  0  0
  7 10  1  0  0  0  0
  7  6  1  1  0  0  0
  8 11  1  1  0  0  0
  8 10  1  0  0  0  0
  9 13  1  6  0  0  0
  9  7  1  0  0  0  0
 12  9  1  0  0  0  0
 12  8  1  0  0  0  0
 14 17  1  0  0  0  0
 14 13  1  1  0  0  0
 15 18  1  0  0  0  0
 16 20  2  0  0  0  0
 18 17  1  0  0  0  0
 19 15  1  0  0  0  0
 19 20  1  0  0  0  0
 20 14  1  0  0  0  0
 22  3  1  0  0  0  0
 22 21  2  0  0  0  0
 23 22  1  0  0  0  0
 24 23  1  0  0  0  0
 25 24  1  0  0  0  0
 26 25  1  0  0  0  0
 27 28  1  0  0  0  0
 28 26  1  0  0  0  0
 31 34  1  0  0  0  0
 32 30  1  1  0  0  0
 32 33  1  0  0  0  0
 33 34  2  0  0  0  0
 33 36  1  0  0  0  0
 35 29  1  6  0  0  0
 35 32  1  0  0  0  0
 35 31  1  0  0  0  0
 37 36  1  0  0  0  0
M  END
>  <MODEL>
1

>  <REMARK>
 VINA RESULT:      -7.6      0.000      0.000
  Name = 
  11 active torsions:
  status: ('A' for Active; 'I' for Inactive)
    1  A    between atoms: C_1  and  N_13
    2  A    between atoms: C_5  and  C_15
    3  A    between atoms: O_6  and  C_27
    4  A    between atoms: C_7  and  C_34
    5  A    between atoms: C_10  and  N_13
    6  A    between atoms: N_12  and  C_23
    7  A    between atoms: N_12  and  C_36
    8  A    between atoms: C_14  and  N_25
    9  A    between atoms: C_14  and  C_28
   10  A    between atoms: N_24  and  C_35
   11  A    between atoms: C_28  and  C_35
                            x       y       z     vdW  Elec       q    Type
                         _______ _______ _______ _____ _____    ______ ____

>  <TORSDO>
F 11

$$$$
=
 OpenBabel11042423093D

 37 40  0  0  1  0  0  0  0  0999 V2000
  160.8840  210.1290  152.0610 N   0  0  0  0  0  0  0  0  0  0  0  0
  162.0850  209.3150  149.7360 C   0  0  0  0  0  3  0  0  0  0  0  0
  161.7610  210.6580  149.9430 C   0  0  0  0  0  0  0  0  0  0  0  0
  161.1580  211.0220  151.1060 N   0  0  0  0  0  0  0  0  0  0  0  0
  161.1870  208.8100  151.9140 C   0  0  0  0  0  0  0  0  0  0  0  0
  161.7860  208.3710  150.7250 C   0  0  0  0  0  0  0  0  0  0  0  0
  162.1160  206.9190  150.5270 C   0  0  2  0  0  3  0  0  0  0  0  0
  161.2930  204.9110  151.4520 C   0  0  1  0  0  3  0  0  0  0  0  0
  161.3410  206.3210  149.3610 C   0  0  2  0  0  3  0  0  0  0  0  0
  161.7840  206.1070  151.7360 C   0  0  0  0  0  2  0  0  0  0  0  0
  160.7850  203.9980  152.5110 C   0  0  0  0  0  1  0  0  0  0  0  0
  161.0960  204.5490  149.7160 S   0  0  0  0  0  0  0  0  0  0  0  0
  162.1060  206.4790  148.1350 N   0  0  0  0  0  2  0  0  0  0  0  0
  161.4830  205.6360  147.1220 C   0  0  1  0  0  3  0  0  0  0  0  0
  161.2100  205.2040  144.1990 C   0  0  0  0  0  2  0  0  0  0  0  0
  163.6690  204.7820  146.7200 O   0  0  0  0  0  0  0  0  0  0  0  0
  160.5790  206.4880  146.2340 C   0  0  0  0  0  2  0  0  0  0  0  0
  160.0440  205.6660  145.0640 C   0  0  0  0  0  2  0  0  0  0  0  0
  162.1380  204.2880  144.9980 C   0  0  0  0  0  2  0  0  0  0  0  0
  162.5330  204.9330  146.2940 C   0  0  0  0  0  0  0  0  0  0  0  0
  163.0470  211.5160  148.1420 O   0  0  0  0  0  0  0  0  0  0  0  0
  162.0680  211.6730  148.9240 C   0  0  0  0  0  0  0  0  0  0  0  0
  161.2570  212.8460  148.8330 N   0  0  0  0  0  2  0  0  0  0  0  0
  161.5230  213.9100  147.8760 C   0  0  0  0  0  2  0  0  0  0  0  0
  160.5290  213.8500  146.7250 C   0  0  0  0  0  2  0  0  0  0  0  0
  161.1960  213.4060  145.4350 C   0  0  0  0  0  2  0  0  0  0  0  0
  163.1840  213.2380  144.2280 C   0  0  0  0  0  1  0  0  0  0  0  0
  162.6180  213.7100  145.4800 N   0  0  0  0  0  2  0  0  0  0  0  0
  160.9100  207.8840  152.9730 N   0  0  0  0  0  2  0  0  0  0  0  0
  162.0080  210.3150  155.3100 C   0  0  0  0  0  1  0  0  0  0  0  0
  160.5450  207.1720  155.2850 C   0  0  0  0  0  2  0  0  0  0  0  0
  160.8270  209.5310  154.7660 C   0  0  2  0  0  3  0  0  0  0  0  0
  159.8610  209.2500  155.8550 C   0  0  0  0  0  0  0  0  0  0  0  0
  159.7090  208.0010  156.1310 N   0  0  0  0  0  0  0  0  0  0  0  0
  161.2890  208.1380  154.3570 C   0  0  2  0  0  3  0  0  0  0  0  0
  159.1670  210.2620  156.5220 O   0  0  0  0  0  0  0  0  0  0  0  0
  158.2500  211.1160  155.8540 C   0  0  0  0  0  1  0  0  0  0  0  0
  2  3  1  0  0  0  0
  2  6  2  0  0  0  0
  3  4  2  0  0  0  0
  4  1  1  0  0  0  0
  5  1  2  0  0  0  0
  5 29  1  0  0  0  0
  6  5  1  0  0  0  0
  7  6  1  1  0  0  0
  7 10  1  0  0  0  0
  8 10  1  0  0  0  0
  8 11  1  1  0  0  0
  9 13  1  6  0  0  0
  9 12  1  0  0  0  0
  9  7  1  0  0  0  0
 12  8  1  0  0  0  0
 14 13  1  1  0  0  0
 15 19  1  0  0  0  0
 15 18  1  0  0  0  0
 17 14  1  0  0  0  0
 18 17  1  0  0  0  0
 19 20  1  0  0  0  0
 20 16  2  0  0  0  0
 20 14  1  0  0  0  0
 21 22  2  0  0  0  0
 22  3  1  0  0  0  0
 23 22  1  0  0  0  0
 24 23  1  0  0  0  0
 25 24  1  0  0  0  0
 26 28  1  0  0  0  0
 26 25  1  0  0  0  0
 27 28  1  0  0  0  0
 31 34  1  0  0  0  0
 32 30  1  1  0  0  0
 32 33  1  0  0  0  0
 33 34  2  0  0  0  0
 33 36  1  0  0  0  0
 35 29  1  6  0  0  0
 35 32  1  0  0  0  0
 35 31  1  0  0  0  0
 37 36  1  0  0  0  0
M  END
>  <MODEL>
2

>  <REMARK>
 VINA RESULT:      -7.0      3.083      6.228
  Name = 
  11 active torsions:
  status: ('A' for Active; 'I' for Inactive)
    1  A    between atoms: C_1  and  N_13
    2  A    between atoms: C_5  and  C_15
    3  A    between atoms: O_6  and  C_27
    4  A    between atoms: C_7  and  C_34
    5  A    between atoms: C_10  and  N_13
    6  A    between atoms: N_12  and  C_23
    7  A    between atoms: N_12  and  C_36
    8  A    between atoms: C_14  and  N_25
    9  A    between atoms: C_14  and  C_28
   10  A    between atoms: N_24  and  C_35
   11  A    between atoms: C_28  and  C_35
                            x       y       z     vdW  Elec       q    Type
                         _______ _______ _______ _____ _____    ______ ____

>  <TORSDO>
F 11

$$$$
=
 OpenBabel11042423093D

 37 40  0  0  1  0  0  0  0  0999 V2000
  162.3770  209.3230  149.5730 N   0  0  0  0  0  0  0  0  0  0  0  0
  161.2000  211.4920  150.7650 C   0  0  0  0  0  3  0  0  0  0  0  0
  161.6250  211.5480  149.4350 C   0  0  0  0  0  0  0  0  0  0  0  0
  162.2120  210.4540  148.8820 N   0  0  0  0  0  0  0  0  0  0  0  0
  161.9730  209.2130  150.8680 C   0  0  0  0  0  0  0  0  0  0  0  0
  161.3840  210.3160  151.5010 C   0  0  0  0  0  0  0  0  0  0  0  0
  160.9440  210.2300  152.9350 C   0  0  2  0  0  3  0  0  0  0  0  0
  161.9800  210.7130  154.9980 C   0  0  1  0  0  3  0  0  0  0  0  0
  160.2120  211.4910  153.3750 C   0  0  2  0  0  3  0  0  0  0  0  0
  162.1030  210.0510  153.8590 C   0  0  0  0  0  2  0  0  0  0  0  0
  163.0780  210.7670  156.0000 C   0  0  0  0  0  1  0  0  0  0  0  0
  160.4990  211.6950  155.1640 S   0  0  0  0  0  0  0  0  0  0  0  0
  158.7900  211.3450  153.1150 N   0  0  0  0  0  2  0  0  0  0  0  0
  158.2080  212.6810  153.1190 C   0  0  1  0  0  3  0  0  0  0  0  0
  155.8120  214.2550  152.3520 C   0  0  0  0  0  2  0  0  0  0  0  0
  156.7350  211.8590  154.7990 O   0  0  0  0  0  0  0  0  0  0  0  0
  157.9200  213.1170  151.6830 C   0  0  0  0  0  2  0  0  0  0  0  0
  157.1590  214.4410  151.6660 C   0  0  0  0  0  2  0  0  0  0  0  0
  156.0080  213.8760  153.8210 C   0  0  0  0  0  2  0  0  0  0  0  0
  156.9450  212.7100  153.9470 C   0  0  0  0  0  0  0  0  0  0  0  0
  161.0390  213.8340  149.1820 O   0  0  0  0  0  0  0  0  0  0  0  0
  161.4400  212.7680  148.6350 C   0  0  0  0  0  0  0  0  0  0  0  0
  161.7040  212.7370  147.2320 N   0  0  0  0  0  2  0  0  0  0  0  0
  161.5070  213.8930  146.3710 C   0  0  0  0  0  2  0  0  0  0  0  0
  162.5710  213.9340  145.2840 C   0  0  0  0  0  2  0  0  0  0  0  0
  161.9660  213.7570  143.9020 C   0  0  0  0  0  2  0  0  0  0  0  0
  161.6350  212.1200  142.2770 C   0  0  0  0  0  1  0  0  0  0  0  0
  162.6080  212.6480  143.2160 N   0  0  0  0  0  2  0  0  0  0  0  0
  162.1340  207.9730  151.5710 N   0  0  0  0  0  2  0  0  0  0  0  0
  160.5200  205.3480  149.8130 C   0  0  0  0  0  1  0  0  0  0  0  0
  160.8760  206.5000  153.0650 C   0  0  0  0  0  2  0  0  0  0  0  0
  161.5540  205.7150  150.8650 C   0  0  2  0  0  3  0  0  0  0  0  0
  161.5840  204.6800  151.9260 C   0  0  0  0  0  0  0  0  0  0  0  0
  161.2270  205.0930  153.0920 N   0  0  0  0  0  0  0  0  0  0  0  0
  161.0920  206.9570  151.6180 C   0  0  2  0  0  3  0  0  0  0  0  0
  161.9780  203.3630  151.6780 O   0  0  0  0  0  0  0  0  0  0  0  0
  161.0610  202.3690  151.2450 C   0  0  0  0  0  1  0  0  0  0  0  0
  1  5  2  0  0  0  0
  2  6  2  0  0  0  0
  3  2  1  0  0  0  0
  4  3  2  0  0  0  0
  4  1  1  0  0  0  0
  5  6  1  0  0  0  0
  5 29  1  0  0  0  0
  7  6  1  6  0  0  0
  7  9  1  0  0  0  0
  7 10  1  0  0  0  0
  8 12  1  0  0  0  0
  8 11  1  6  0  0  0
  9 13  1  1  0  0  0
  9 12  1  0  0  0  0
 10  8  1  0  0  0  0
 14 13  1  6  0  0  0
 14 20  1  0  0  0  0
 15 19  1  0  0  0  0
 17 14  1  0  0  0  0
 18 17  1  0  0  0  0
 18 15  1  0  0  0  0
 19 20  1  0  0  0  0
 20 16  2  0  0  0  0
 22 21  2  0  0  0  0
 22  3  1  0  0  0  0
 23 22  1  0  0  0  0
 24 23  1  0  0  0  0
 25 24  1  0  0  0  0
 26 25  1  0  0  0  0
 27 28  1  0  0  0  0
 28 26  1  0  0  0  0
 31 34  1  0  0  0  0
 32 30  1  6  0  0  0
 32 35  1  0  0  0  0
 32 33  1  0  0  0  0
 33 34  2  0  0  0  0
 35 29  1  1  0  0  0
 35 31  1  0  0  0  0
 36 33  1  0  0  0  0
 37 36  1  0  0  0  0
M  END
>  <MODEL>
3

>  <REMARK>
 VINA RESULT:      -6.7      3.938      9.025
  Name = 
  11 active torsions:
  status: ('A' for Active; 'I' for Inactive)
    1  A    between atoms: C_1  and  N_13
    2  A    between atoms: C_5  and  C_15
    3  A    between atoms: O_6  and  C_27
    4  A    between atoms: C_7  and  C_34
    5  A    between atoms: C_10  and  N_13
    6  A    between atoms: N_12  and  C_23
    7  A    between atoms: N_12  and  C_36
    8  A    between atoms: C_14  and  N_25
    9  A    between atoms: C_14  and  C_28
   10  A    between atoms: N_24  and  C_35
   11  A    between atoms: C_28  and  C_35
                            x       y       z     vdW  Elec       q    Type
                         _______ _______ _______ _____ _____    ______ ____

>  <TORSDO>
F 11

$$$$
=
 OpenBabel11042423093D

 37 40  0  0  1  0  0  0  0  0999 V2000
  159.9990  212.2350  152.0370 N   0  0  0  0  0  0  0  0  0  0  0  0
  161.7830  210.3850  151.0870 C   0  0  0  0  0  3  0  0  0  0  0  0
  161.3870  211.4690  150.3000 C   0  0  0  0  0  0  0  0  0  0  0  0
  160.4940  212.3610  150.8030 N   0  0  0  0  0  0  0  0  0  0  0  0
  160.3580  211.2040  152.8490 C   0  0  0  0  0  0  0  0  0  0  0  0
  161.2570  210.2380  152.3760 C   0  0  0  0  0  0  0  0  0  0  0  0
  161.6590  209.0790  153.2430 C   0  0  2  0  0  3  0  0  0  0  0  0
  160.8200  208.1670  155.2510 C   0  0  1  0  0  3  0  0  0  0  0  0
  161.0290  207.7760  152.7670 C   0  0  2  0  0  3  0  0  0  0  0  0
  161.2360  209.2770  154.6610 C   0  0  0  0  0  2  0  0  0  0  0  0
  160.2410  208.1730  156.6210 C   0  0  0  0  0  1  0  0  0  0  0  0
  160.8140  206.7050  154.2270 S   0  0  0  0  0  0  0  0  0  0  0  0
  161.9090  207.1330  151.8060 N   0  0  0  0  0  2  0  0  0  0  0  0
  161.0650  206.4380  150.8410 C   0  0  1  0  0  3  0  0  0  0  0  0
  161.0880  204.9050  148.3000 C   0  0  0  0  0  2  0  0  0  0  0  0
  162.0260  204.4320  151.6880 O   0  0  0  0  0  0  0  0  0  0  0  0
  161.2060  207.0970  149.4710 C   0  0  0  0  0  2  0  0  0  0  0  0
  160.4640  206.2910  148.4070 C   0  0  0  0  0  2  0  0  0  0  0  0
  160.9330  204.1470  149.6190 C   0  0  0  0  0  2  0  0  0  0  0  0
  161.4310  204.9750  150.7680 C   0  0  0  0  0  0  0  0  0  0  0  0
  162.4300  210.6750  148.3210 O   0  0  0  0  0  0  0  0  0  0  0  0
  161.9270  211.6520  148.9440 C   0  0  0  0  0  0  0  0  0  0  0  0
  161.8900  212.9460  148.3410 N   0  0  0  0  0  2  0  0  0  0  0  0
  162.4400  213.2120  147.0200 C   0  0  0  0  0  2  0  0  0  0  0  0
  161.4120  213.9190  146.1490 C   0  0  0  0  0  2  0  0  0  0  0  0
  160.0120  213.3820  146.3900 C   0  0  0  0  0  2  0  0  0  0  0  0
  159.4800  212.4810  144.3060 C   0  0  0  0  0  1  0  0  0  0  0  0
  159.8280  212.1310  145.6720 N   0  0  0  0  0  2  0  0  0  0  0  0
  159.8350  211.1180  154.1810 N   0  0  0  0  0  2  0  0  0  0  0  0
  156.8320  212.9700  153.8090 C   0  0  0  0  0  1  0  0  0  0  0  0
  159.1250  212.1570  156.2800 C   0  0  0  0  0  2  0  0  0  0  0  0
  157.5160  211.7980  154.4930 C   0  0  2  0  0  3  0  0  0  0  0  0
  156.9700  211.6210  155.8590 C   0  0  0  0  0  0  0  0  0  0  0  0
  157.8210  211.8090  156.8080 N   0  0  0  0  0  0  0  0  0  0  0  0
  158.9760  212.1460  154.7550 C   0  0  2  0  0  3  0  0  0  0  0  0
  155.6390  211.2690  156.0950 O   0  0  0  0  0  0  0  0  0  0  0  0
  155.0140  210.1840  155.4250 C   0  0  0  0  0  1  0  0  0  0  0  0
  1  5  2  0  0  0  0
  2  6  2  0  0  0  0
  3  4  2  0  0  0  0
  3  2  1  0  0  0  0
  4  1  1  0  0  0  0
  5 29  1  0  0  0  0
  6  5  1  0  0  0  0
  7  6  1  6  0  0  0
  7 10  1  0  0  0  0
  8 11  1  6  0  0  0
  9 13  1  6  0  0  0
  9  7  1  0  0  0  0
  9 12  1  0  0  0  0
 10  8  1  0  0  0  0
 12  8  1  0  0  0  0
 14 13  1  1  0  0  0
 15 18  1  0  0  0  0
 15 19  1  0  0  0  0
 17 14  1  0  0  0  0
 18 17  1  0  0  0  0
 19 20  1  0  0  0  0
 20 14  1  0  0  0  0
 20 16  2  0  0  0  0
 21 22  2  0  0  0  0
 22  3  1  0  0  0  0
 23 22  1  0  0  0  0
 24 23  1  0  0  0  0
 25 26  1  0  0  0  0
 25 24  1  0  0  0  0
 27 28  1  0  0  0  0
 28 26  1  0  0  0  0
 31 34  1  0  0  0  0
 32 30  1  1  0  0  0
 32 35  1  0  0  0  0
 32 33  1  0  0  0  0
 33 36  1  0  0  0  0
 33 34  2  0  0  0  0
 35 29  1  6  0  0  0
 35 31  1  0  0  0  0
 37 36  1  0  0  0  0
M  END
>  <MODEL>
4

>  <REMARK>
 VINA RESULT:      -6.7      3.451      6.918
  Name = 
  11 active torsions:
  status: ('A' for Active; 'I' for Inactive)
    1  A    between atoms: C_1  and  N_13
    2  A    between atoms: C_5  and  C_15
    3  A    between atoms: O_6  and  C_27
    4  A    between atoms: C_7  and  C_34
    5  A    between atoms: C_10  and  N_13
    6  A    between atoms: N_12  and  C_23
    7  A    between atoms: N_12  and  C_36
    8  A    between atoms: C_14  and  N_25
    9  A    between atoms: C_14  and  C_28
   10  A    between atoms: N_24  and  C_35
   11  A    between atoms: C_28  and  C_35
                            x       y       z     vdW  Elec       q    Type
                         _______ _______ _______ _____ _____    ______ ____

>  <TORSDO>
F 11

$$$$
=
 OpenBabel11042423093D

 37 40  0  0  1  0  0  0  0  0999 V2000
  161.6030  207.1750  147.6510 N   0  0  0  0  0  0  0  0  0  0  0  0
  161.4060  208.2810  150.1500 C   0  0  0  0  0  3  0  0  0  0  0  0
  161.8680  209.0340  149.0670 C   0  0  0  0  0  0  0  0  0  0  0  0
  161.9590  208.4480  147.8450 N   0  0  0  0  0  0  0  0  0  0  0  0
  161.1380  206.4000  148.6680 C   0  0  0  0  0  0  0  0  0  0  0  0
  161.0450  206.9430  149.9580 C   0  0  0  0  0  0  0  0  0  0  0  0
  160.5510  206.1070  151.1040 C   0  0  2  0  0  3  0  0  0  0  0  0
  161.1940  204.0260  152.0100 C   0  0  1  0  0  3  0  0  0  0  0  0
  161.2040  206.5150  152.4180 C   0  0  2  0  0  3  0  0  0  0  0  0
  160.8480  204.6580  150.9000 C   0  0  0  0  0  2  0  0  0  0  0  0
  161.6480  202.6090  152.0000 C   0  0  0  0  0  1  0  0  0  0  0  0
  161.2730  205.0340  153.4800 S   0  0  0  0  0  0  0  0  0  0  0  0
  160.4060  207.5470  153.0590 N   0  0  0  0  0  2  0  0  0  0  0  0
  161.2880  208.2850  153.9550 C   0  0  1  0  0  3  0  0  0  0  0  0
  161.4270  210.5840  155.8260 C   0  0  0  0  0  2  0  0  0  0  0  0
  160.0190  207.3300  155.7290 O   0  0  0  0  0  0  0  0  0  0  0  0
  161.3940  209.7350  153.4880 C   0  0  0  0  0  2  0  0  0  0  0  0
  162.1760  210.5710  154.4990 C   0  0  0  0  0  2  0  0  0  0  0  0
  161.3310  209.1700  156.4000 C   0  0  0  0  0  2  0  0  0  0  0  0
  160.7810  208.2190  155.3760 C   0  0  0  0  0  0  0  0  0  0  0  0
  162.4900  210.9050  150.3890 O   0  0  0  0  0  0  0  0  0  0  0  0
  162.2480  210.4450  149.2380 C   0  0  0  0  0  0  0  0  0  0  0  0
  162.3310  211.2950  148.0930 N   0  0  0  0  0  2  0  0  0  0  0  0
  162.6630  212.7080  148.1880 C   0  0  0  0  0  2  0  0  0  0  0  0
  162.4650  213.3930  146.8440 C   0  0  0  0  0  2  0  0  0  0  0  0
  161.0720  213.1460  146.2920 C   0  0  0  0  0  2  0  0  0  0  0  0
  159.9420  212.2600  144.4550 C   0  0  0  0  0  1  0  0  0  0  0  0
  161.1290  212.9990  144.8460 N   0  0  0  0  0  2  0  0  0  0  0  0
  160.7310  205.0480  148.4180 N   0  0  0  0  0  2  0  0  0  0  0  0
  161.6660  201.6320  148.6110 C   0  0  0  0  0  1  0  0  0  0  0  0
  162.1300  204.3670  146.5300 C   0  0  0  0  0  2  0  0  0  0  0  0
  160.9230  202.6950  147.8190 C   0  0  2  0  0  3  0  0  0  0  0  0
  161.0190  202.4040  146.3690 C   0  0  0  0  0  0  0  0  0  0  0  0
  161.6560  203.2890  145.6830 N   0  0  0  0  0  0  0  0  0  0  0  0
  161.6550  204.0250  147.9460 C   0  0  2  0  0  3  0  0  0  0  0  0
  160.4540  201.2640  145.7930 O   0  0  0  0  0  0  0  0  0  0  0  0
  159.6860  201.3210  144.6000 C   0  0  0  0  0  1  0  0  0  0  0  0
  1  4  1  0  0  0  0
  1  5  2  0  0  0  0
  3 22  1  0  0  0  0
  3  2  1  0  0  0  0
  4  3  2  0  0  0  0
  5  6  1  0  0  0  0
  6  2  2  0  0  0  0
  7  6  1  6  0  0  0
  7  9  1  0  0  0  0
  8 11  1  6  0  0  0
  8 12  1  0  0  0  0
  9 13  1  1  0  0  0
  9 12  1  0  0  0  0
 10  7  1  0  0  0  0
 10  8  1  0  0  0  0
 14 13  1  6  0  0  0
 14 20  1  0  0  0  0
 15 19  1  0  0  0  0
 17 14  1  0  0  0  0
 17 18  1  0  0  0  0
 18 15  1  0  0  0  0
 20 16  2  0  0  0  0
 20 19  1  0  0  0  0
 22 21  2  0  0  0  0
 23 24  1  0  0  0  0
 23 22  1  0  0  0  0
 25 24  1  0  0  0  0
 26 25  1  0  0  0  0
 27 28  1  0  0  0  0
 28 26  1  0  0  0  0
 29  5  1  0  0  0  0
 31 35  1  0  0  0  0
 32 35  1  0  0  0  0
 32 30  1  1  0  0  0
 33 32  1  0  0  0  0
 34 33  2  0  0  0  0
 34 31  1  0  0  0  0
 35 29  1  6  0  0  0
 36 33  1  0  0  0  0
 37 36  1  0  0  0  0
M  END
>  <MODEL>
5

>  <REMARK>
 VINA RESULT:      -6.6      3.006      9.264
  Name = 
  11 active torsions:
  status: ('A' for Active; 'I' for Inactive)
    1  A    between atoms: C_1  and  N_13
    2  A    between atoms: C_5  and  C_15
    3  A    between atoms: O_6  and  C_27
    4  A    between atoms: C_7  and  C_34
    5  A    between atoms: C_10  and  N_13
    6  A    between atoms: N_12  and  C_23
    7  A    between atoms: N_12  and  C_36
    8  A    between atoms: C_14  and  N_25
    9  A    between atoms: C_14  and  C_28
   10  A    between atoms: N_24  and  C_35
   11  A    between atoms: C_28  and  C_35
                            x       y       z     vdW  Elec       q    Type
                         _______ _______ _______ _____ _____    ______ ____

>  <TORSDO>
F 11

$$$$
=
 OpenBabel11042423093D

 37 40  0  0  1  0  0  0  0  0999 V2000
  162.3820  208.7480  149.6610 N   0  0  0  0  0  0  0  0  0  0  0  0
  161.3760  211.0930  150.6590 C   0  0  0  0  0  3  0  0  0  0  0  0
  161.8290  211.0120  149.3400 C   0  0  0  0  0  0  0  0  0  0  0  0
  162.3290  209.8330  148.8840 N   0  0  0  0  0  0  0  0  0  0  0  0
  161.9450  208.7700  150.9500 C   0  0  0  0  0  0  0  0  0  0  0  0
  161.4420  209.9650  151.4840 C   0  0  0  0  0  0  0  0  0  0  0  0
  160.9690  210.0240  152.9090 C   0  0  2  0  0  3  0  0  0  0  0  0
  162.0090  210.5510  154.9590 C   0  0  1  0  0  3  0  0  0  0  0  0
  160.3580  211.3790  153.2410 C   0  0  2  0  0  3  0  0  0  0  0  0
  162.0880  209.8000  153.8720 C   0  0  0  0  0  2  0  0  0  0  0  0
  163.0880  210.5690  155.9830 C   0  0  0  0  0  1  0  0  0  0  0  0
  160.6300  211.6820  155.0190 S   0  0  0  0  0  0  0  0  0  0  0  0
  158.9330  211.3540  152.9560 N   0  0  0  0  0  2  0  0  0  0  0  0
  158.4990  212.7360  152.7870 C   0  0  1  0  0  3  0  0  0  0  0  0
  156.2820  214.4510  151.8160 C   0  0  0  0  0  2  0  0  0  0  0  0
  156.9620  212.2980  154.5510 O   0  0  0  0  0  0  0  0  0  0  0  0
  158.2480  213.0150  151.3070 C   0  0  0  0  0  2  0  0  0  0  0  0
  157.6350  214.4010  151.1170 C   0  0  0  0  0  2  0  0  0  0  0  0
  156.4490  214.2420  153.3210 C   0  0  0  0  0  2  0  0  0  0  0  0
  157.2550  213.0070  153.5980 C   0  0  0  0  0  0  0  0  0  0  0  0
  162.8170  212.8200  148.1610 O   0  0  0  0  0  0  0  0  0  0  0  0
  161.7670  212.1800  148.4490 C   0  0  0  0  0  0  0  0  0  0  0  0
  160.5060  212.5940  147.9190 N   0  0  0  0  0  2  0  0  0  0  0  0
  160.3610  213.7620  147.0630 C   0  0  0  0  0  2  0  0  0  0  0  0
  160.0560  213.3380  145.6330 C   0  0  0  0  0  2  0  0  0  0  0  0
  158.7350  213.9110  145.1510 C   0  0  0  0  0  2  0  0  0  0  0  0
  156.7650  213.1200  146.1160 C   0  0  0  0  0  1  0  0  0  0  0  0
  157.8310  214.0930  146.2770 N   0  0  0  0  0  2  0  0  0  0  0  0
  161.9840  207.5780  151.7450 N   0  0  0  0  0  2  0  0  0  0  0  0
  160.3330  205.2180  149.6740 C   0  0  0  0  0  1  0  0  0  0  0  0
  160.7820  205.8890  153.0460 C   0  0  0  0  0  2  0  0  0  0  0  0
  161.3970  205.4400  150.7360 C   0  0  2  0  0  3  0  0  0  0  0  0
  161.4670  204.2620  151.6340 C   0  0  0  0  0  0  0  0  0  0  0  0
  161.1440  204.4980  152.8580 N   0  0  0  0  0  0  0  0  0  0  0  0
  160.9500  206.5540  151.6750 C   0  0  2  0  0  3  0  0  0  0  0  0
  161.8620  203.0000  151.1850 O   0  0  0  0  0  0  0  0  0  0  0  0
  160.9220  201.9900  150.8480 C   0  0  0  0  0  1  0  0  0  0  0  0
  1  5  2  0  0  0  0
  2  6  2  0  0  0  0
  3  2  1  0  0  0  0
  4  3  2  0  0  0  0
  4  1  1  0  0  0  0
  5  6  1  0  0  0  0
  5 29  1  0  0  0  0
  7  6  1  6  0  0  0
  7  9  1  0  0  0  0
  7 10  1  0  0  0  0
  8 12  1  0  0  0  0
  8 11  1  6  0  0  0
  9 13  1  1  0  0  0
  9 12  1  0  0  0  0
 10  8  1  0  0  0  0
 14 13  1  6  0  0  0
 14 20  1  0  0  0  0
 15 19  1  0  0  0  0
 17 14  1  0  0  0  0
 18 17  1  0  0  0  0
 18 15  1  0  0  0  0
 19 20  1  0  0  0  0
 20 16  2  0  0  0  0
 21 22  2  0  0  0  0
 22  3  1  0  0  0  0
 23 22  1  0  0  0  0
 24 23  1  0  0  0  0
 25 24  1  0  0  0  0
 26 25  1  0  0  0  0
 26 28  1  0  0  0  0
 27 28  1  0  0  0  0
 32 30  1  6  0  0  0
 32 33  1  0  0  0  0
 32 35  1  0  0  0  0
 33 34  2  0  0  0  0
 34 31  1  0  0  0  0
 35 29  1  1  0  0  0
 35 31  1  0  0  0  0
 36 33  1  0  0  0  0
 37 36  1  0  0  0  0
M  END
>  <MODEL>
6

>  <REMARK>
 VINA RESULT:      -6.3      3.926      8.955
  Name = 
  11 active torsions:
  status: ('A' for Active; 'I' for Inactive)
    1  A    between atoms: C_1  and  N_13
    2  A    between atoms: C_5  and  C_15
    3  A    between atoms: O_6  and  C_27
    4  A    between atoms: C_7  and  C_34
    5  A    between atoms: C_10  and  N_13
    6  A    between atoms: N_12  and  C_23
    7  A    between atoms: N_12  and  C_36
    8  A    between atoms: C_14  and  N_25
    9  A    between atoms: C_14  and  C_28
   10  A    between atoms: N_24  and  C_35
   11  A    between atoms: C_28  and  C_35
                            x       y       z     vdW  Elec       q    Type
                         _______ _______ _______ _____ _____    ______ ____

>  <TORSDO>
F 11

$$$$
=
 OpenBabel11042423093D

 37 40  0  0  1  0  0  0  0  0999 V2000
  161.2460  208.4250  151.5330 N   0  0  0  0  0  0  0  0  0  0  0  0
  161.8530  209.1390  148.9590 C   0  0  0  0  0  3  0  0  0  0  0  0
  161.6280  207.8020  149.2970 C   0  0  0  0  0  0  0  0  0  0  0  0
  161.3380  207.4870  150.5870 N   0  0  0  0  0  0  0  0  0  0  0  0
  161.4460  209.7420  151.2550 C   0  0  0  0  0  0  0  0  0  0  0  0
  161.7740  210.1260  149.9480 C   0  0  0  0  0  0  0  0  0  0  0  0
  162.0180  211.5700  149.6140 C   0  0  2  0  0  3  0  0  0  0  0  0
  162.6700  212.7120  147.6560 C   0  0  1  0  0  3  0  0  0  0  0  0
  160.7310  212.2780  149.2100 C   0  0  2  0  0  3  0  0  0  0  0  0
  162.9760  211.7210  148.4790 C   0  0  0  0  0  2  0  0  0  0  0  0
  163.4270  212.9500  146.3970 C   0  0  0  0  0  1  0  0  0  0  0  0
  161.1800  213.6110  148.0490 S   0  0  0  0  0  0  0  0  0  0  0  0
  160.0940  212.8420  150.3880 N   0  0  0  0  0  2  0  0  0  0  0  0
  158.9780  213.6600  149.9300 C   0  0  1  0  0  3  0  0  0  0  0  0
  156.0400  213.6890  149.5090 C   0  0  0  0  0  2  0  0  0  0  0  0
  158.3290  213.7690  152.2170 O   0  0  0  0  0  0  0  0  0  0  0  0
  158.2980  212.9770  148.7440 C   0  0  0  0  0  2  0  0  0  0  0  0
  157.0270  213.7260  148.3480 C   0  0  0  0  0  2  0  0  0  0  0  0
  156.6190  214.4100  150.7260 C   0  0  0  0  0  2  0  0  0  0  0  0
  157.9900  213.8890  151.0490 C   0  0  0  0  0  0  0  0  0  0  0  0
  161.8660  207.0410  147.0620 O   0  0  0  0  0  0  0  0  0  0  0  0
  161.6990  206.7450  148.2780 C   0  0  0  0  0  0  0  0  0  0  0  0
  161.5650  205.3780  148.6720 N   0  0  0  0  0  2  0  0  0  0  0  0
  161.5850  204.2810  147.7150 C   0  0  0  0  0  2  0  0  0  0  0  0
  161.1120  202.9930  148.3740 C   0  0  0  0  0  2  0  0  0  0  0  0
  160.4490  203.2620  149.7140 C   0  0  0  0  0  2  0  0  0  0  0  0
  160.8410  203.3300  152.0110 C   0  0  0  0  0  1  0  0  0  0  0  0
  161.2270  202.6570  150.7830 N   0  0  0  0  0  2  0  0  0  0  0  0
  161.3050  210.7270  152.2880 N   0  0  0  0  0  2  0  0  0  0  0  0
  160.9250  208.7000  155.1750 C   0  0  0  0  0  1  0  0  0  0  0  0
  159.9350  211.8090  154.0010 C   0  0  0  0  0  2  0  0  0  0  0  0
  161.4520  210.0100  154.6110 C   0  0  2  0  0  3  0  0  0  0  0  0
  161.3280  211.0820  155.6270 C   0  0  0  0  0  0  0  0  0  0  0  0
  160.5260  212.0380  155.3050 N   0  0  0  0  0  0  0  0  0  0  0  0
  160.5290  210.4900  153.4980 C   0  0  2  0  0  3  0  0  0  0  0  0
  162.0340  211.0600  156.8320 O   0  0  0  0  0  0  0  0  0  0  0  0
  163.4060  210.7020  156.8970 C   0  0  0  0  0  1  0  0  0  0  0  0
  2  3  1  0  0  0  0
  2  6  2  0  0  0  0
  3  4  2  0  0  0  0
  4  1  1  0  0  0  0
  5  1  2  0  0  0  0
  5 29  1  0  0  0  0
  6  5  1  0  0  0  0
  7  6  1  6  0  0  0
  8 11  1  6  0  0  0
  8 12  1  0  0  0  0
  8 10  1  0  0  0  0
  9  7  1  0  0  0  0
  9 13  1  1  0  0  0
 10  7  1  0  0  0  0
 12  9  1  0  0  0  0
 14 13  1  1  0  0  0
 14 20  1  0  0  0  0
 15 19  1  0  0  0  0
 17 14  1  0  0  0  0
 18 17  1  0  0  0  0
 18 15  1  0  0  0  0
 19 20  1  0  0  0  0
 20 16  2  0  0  0  0
 21 22  2  0  0  0  0
 22 23  1  0  0  0  0
 22  3  1  0  0  0  0
 24 25  1  0  0  0  0
 24 23  1  0  0  0  0
 25 26  1  0  0  0  0
 26 28  1  0  0  0  0
 28 27  1  0  0  0  0
 31 34  1  0  0  0  0
 32 30  1  1  0  0  0
 32 33  1  0  0  0  0
 33 36  1  0  0  0  0
 34 33  2  0  0  0  0
 35 29  1  6  0  0  0
 35 31  1  0  0  0  0
 35 32  1  0  0  0  0
 36 37  1  0  0  0  0
M  END
>  <MODEL>
7

>  <REMARK>
 VINA RESULT:      -6.0      3.283      5.990
  Name = 
  11 active torsions:
  status: ('A' for Active; 'I' for Inactive)
    1  A    between atoms: C_1  and  N_13
    2  A    between atoms: C_5  and  C_15
    3  A    between atoms: O_6  and  C_27
    4  A    between atoms: C_7  and  C_34
    5  A    between atoms: C_10  and  N_13
    6  A    between atoms: N_12  and  C_23
    7  A    between atoms: N_12  and  C_36
    8  A    between atoms: C_14  and  N_25
    9  A    between atoms: C_14  and  C_28
   10  A    between atoms: N_24  and  C_35
   11  A    between atoms: C_28  and  C_35
                            x       y       z     vdW  Elec       q    Type
                         _______ _______ _______ _____ _____    ______ ____

>  <TORSDO>
F 11

$$$$
=
 OpenBabel11042423093D

 37 40  0  0  1  0  0  0  0  0999 V2000
  162.2240  208.0740  151.4850 N   0  0  0  0  0  0  0  0  0  0  0  0
  161.5990  208.9880  148.9790 C   0  0  0  0  0  3  0  0  0  0  0  0
  161.5580  207.6240  149.2740 C   0  0  0  0  0  0  0  0  0  0  0  0
  161.8830  207.2080  150.5270 N   0  0  0  0  0  0  0  0  0  0  0  0
  162.2700  209.4140  151.2530 C   0  0  0  0  0  0  0  0  0  0  0  0
  161.9700  209.9010  149.9730 C   0  0  0  0  0  0  0  0  0  0  0  0
  162.0290  211.3730  149.6830 C   0  0  2  0  0  3  0  0  0  0  0  0
  162.1530  212.6480  147.7020 C   0  0  1  0  0  3  0  0  0  0  0  0
  160.6380  211.9880  149.6070 C   0  0  2  0  0  3  0  0  0  0  0  0
  162.7020  211.6520  148.3790 C   0  0  0  0  0  2  0  0  0  0  0  0
  162.5960  213.0030  146.3260 C   0  0  0  0  0  1  0  0  0  0  0  0
  160.7240  213.4020  148.4590 S   0  0  0  0  0  0  0  0  0  0  0  0
  160.2350  212.4450  150.9270 N   0  0  0  0  0  2  0  0  0  0  0  0
  159.1500  213.4010  150.7430 C   0  0  1  0  0  3  0  0  0  0  0  0
  156.2230  213.7920  151.0400 C   0  0  0  0  0  2  0  0  0  0  0  0
  159.0860  213.5390  153.1190 O   0  0  0  0  0  0  0  0  0  0  0  0
  158.1280  212.8310  149.7610 C   0  0  0  0  0  2  0  0  0  0  0  0
  156.9010  213.7350  149.6760 C   0  0  0  0  0  2  0  0  0  0  0  0
  157.1600  214.4120  152.0770 C   0  0  0  0  0  2  0  0  0  0  0  0
  158.4940  213.7240  152.0650 C   0  0  0  0  0  0  0  0  0  0  0  0
  160.8420  205.4680  148.5850 O   0  0  0  0  0  0  0  0  0  0  0  0
  161.1660  206.6430  148.2510 C   0  0  0  0  0  0  0  0  0  0  0  0
  161.1660  207.0240  146.8740 N   0  0  0  0  0  2  0  0  0  0  0  0
  160.8280  206.0970  145.8040 C   0  0  0  0  0  2  0  0  0  0  0  0
  162.0850  205.4370  145.2560 C   0  0  0  0  0  2  0  0  0  0  0  0
  162.1310  203.9570  145.5940 C   0  0  0  0  0  2  0  0  0  0  0  0
  160.8240  202.0590  145.9500 C   0  0  0  0  0  1  0  0  0  0  0  0
  160.8670  203.3280  145.2450 N   0  0  0  0  0  2  0  0  0  0  0  0
  162.6070  210.3190  152.3140 N   0  0  0  0  0  2  0  0  0  0  0  0
  159.2550  210.1810  153.4670 C   0  0  0  0  0  1  0  0  0  0  0  0
  162.4600  210.5030  154.7490 C   0  0  0  0  0  2  0  0  0  0  0  0
  160.6260  209.5250  153.4880 C   0  0  2  0  0  3  0  0  0  0  0  0
  160.8660  208.9010  154.8110 C   0  0  0  0  0  0  0  0  0  0  0  0
  161.8390  209.4160  155.4800 N   0  0  0  0  0  0  0  0  0  0  0  0
  161.7020  210.6010  153.4210 C   0  0  2  0  0  3  0  0  0  0  0  0
  160.1020  207.8330  155.2860 O   0  0  0  0  0  0  0  0  0  0  0  0
  160.0800  207.4730  156.6600 C   0  0  0  0  0  1  0  0  0  0  0  0
  2  3  1  0  0  0  0
  2  6  2  0  0  0  0
  3  4  2  0  0  0  0
  4  1  1  0  0  0  0
  5  1  2  0  0  0  0
  5 29  1  0  0  0  0
  6  5  1  0  0  0  0
  7  6  1  6  0  0  0
  8 11  1  6  0  0  0
  8 10  1  0  0  0  0
  8 12  1  0  0  0  0
  9  7  1  0  0  0  0
  9 13  1  1  0  0  0
 10  7  1  0  0  0  0
 12  9  1  0  0  0  0
 14 13  1  1  0  0  0
 14 20  1  0  0  0  0
 15 19  1  0  0  0  0
 17 14  1  0  0  0  0
 18 17  1  0  0  0  0
 18 15  1  0  0  0  0
 20 19  1  0  0  0  0
 20 16  2  0  0  0  0
 22 21  2  0  0  0  0
 22  3  1  0  0  0  0
 23 22  1  0  0  0  0
 24 23  1  0  0  0  0
 25 26  1  0  0  0  0
 25 24  1  0  0  0  0
 28 26  1  0  0  0  0
 28 27  1  0  0  0  0
 31 34  1  0  0  0  0
 32 30  1  1  0  0  0
 32 33  1  0  0  0  0
 33 36  1  0  0  0  0
 33 34  2  0  0  0  0
 35 29  1  6  0  0  0
 35 32  1  0  0  0  0
 35 31  1  0  0  0  0
 36 37  1  0  0  0  0
M  END
>  <MODEL>
8

>  <REMARK>
 VINA RESULT:      -5.9      3.018      6.043
  Name = 
  11 active torsions:
  status: ('A' for Active; 'I' for Inactive)
    1  A    between atoms: C_1  and  N_13
    2  A    between atoms: C_5  and  C_15
    3  A    between atoms: O_6  and  C_27
    4  A    between atoms: C_7  and  C_34
    5  A    between atoms: C_10  and  N_13
    6  A    between atoms: N_12  and  C_23
    7  A    between atoms: N_12  and  C_36
    8  A    between atoms: C_14  and  N_25
    9  A    between atoms: C_14  and  C_28
   10  A    between atoms: N_24  and  C_35
   11  A    between atoms: C_28  and  C_35
                            x       y       z     vdW  Elec       q    Type
                         _______ _______ _______ _____ _____    ______ ____

>  <TORSDO>
F 11

$$$$
=
 OpenBabel11042423093D

 37 40  0  0  1  0  0  0  0  0999 V2000
  161.9270  208.3690  148.8100 N   0  0  0  0  0  0  0  0  0  0  0  0
  161.6470  210.5500  150.4460 C   0  0  0  0  0  3  0  0  0  0  0  0
  162.1620  210.6850  149.1540 C   0  0  0  0  0  0  0  0  0  0  0  0
  162.2940  209.5790  148.3760 N   0  0  0  0  0  0  0  0  0  0  0  0
  161.4110  208.1840  150.0560 C   0  0  0  0  0  0  0  0  0  0  0  0
  161.2750  209.2840  150.9140 C   0  0  0  0  0  0  0  0  0  0  0  0
  160.7250  209.1080  152.3000 C   0  0  2  0  0  3  0  0  0  0  0  0
  161.1190  207.5570  154.0340 C   0  0  1  0  0  3  0  0  0  0  0  0
  161.4870  209.9480  153.3180 C   0  0  2  0  0  3  0  0  0  0  0  0
  160.8120  207.6880  152.7530 C   0  0  0  0  0  2  0  0  0  0  0  0
  161.3740  206.2270  154.6500 C   0  0  0  0  0  1  0  0  0  0  0  0
  161.4010  209.0800  154.9190 S   0  0  0  0  0  0  0  0  0  0  0  0
  160.8670  211.2570  153.4300 N   0  0  0  0  0  2  0  0  0  0  0  0
  159.6560  211.0980  154.2270 C   0  0  1  0  0  3  0  0  0  0  0  0
  157.4830  212.5740  155.6080 C   0  0  0  0  0  2  0  0  0  0  0  0
  158.4790  211.8200  152.2880 O   0  0  0  0  0  0  0  0  0  0  0  0
  159.8420  211.7830  155.5800 C   0  0  0  0  0  2  0  0  0  0  0  0
  158.5350  211.7770  156.3700 C   0  0  0  0  0  2  0  0  0  0  0  0
  157.1890  211.9170  154.2580 C   0  0  0  0  0  2  0  0  0  0  0  0
  158.4610  211.6690  153.5010 C   0  0  0  0  0  0  0  0  0  0  0  0
  163.7340  212.2010  148.2250 O   0  0  0  0  0  0  0  0  0  0  0  0
  162.5560  212.0030  148.6340 C   0  0  0  0  0  0  0  0  0  0  0  0
  161.5980  213.0630  148.6060 N   0  0  0  0  0  2  0  0  0  0  0  0
  161.9260  214.4030  148.1420 C   0  0  0  0  0  2  0  0  0  0  0  0
  161.9240  214.4530  146.6210 C   0  0  0  0  0  2  0  0  0  0  0  0
  160.5320  214.2320  146.0560 C   0  0  0  0  0  2  0  0  0  0  0  0
  159.7200  212.2300  145.1800 C   0  0  0  0  0  1  0  0  0  0  0  0
  160.5980  213.3520  144.9000 N   0  0  0  0  0  2  0  0  0  0  0  0
  160.9960  206.8780  150.4770 N   0  0  0  0  0  2  0  0  0  0  0  0
  161.9290  203.6570  151.6350 C   0  0  0  0  0  1  0  0  0  0  0  0
  161.9000  205.4800  148.6850 C   0  0  0  0  0  2  0  0  0  0  0  0
  161.0250  204.4540  150.7080 C   0  0  2  0  0  3  0  0  0  0  0  0
  160.7710  203.6840  149.4670 C   0  0  0  0  0  0  0  0  0  0  0  0
  161.2310  204.2270  148.3940 N   0  0  0  0  0  0  0  0  0  0  0  0
  161.7740  205.6790  150.1990 C   0  0  2  0  0  3  0  0  0  0  0  0
  160.0780  202.4720  149.4650 O   0  0  0  0  0  0  0  0  0  0  0  0
  160.6870  201.2540  149.0600 C   0  0  0  0  0  1  0  0  0  0  0  0
  1  5  2  0  0  0  0
  2  6  2  0  0  0  0
  3  2  1  0  0  0  0
  4  1  1  0  0  0  0
  4  3  2  0  0  0  0
  5 29  1  0  0  0  0
  5  6  1  0  0  0  0
  7  6  1  6  0  0  0
  7 10  1  0  0  0  0
  7  9  1  0  0  0  0
  8 11  1  6  0  0  0
  8 12  1  0  0  0  0
  9 13  1  1  0  0  0
  9 12  1  0  0  0  0
 10  8  1  0  0  0  0
 14 13  1  6  0  0  0
 14 17  1  0  0  0  0
 15 18  1  0  0  0  0
 16 20  2  0  0  0  0
 17 18  1  0  0  0  0
 19 15  1  0  0  0  0
 20 14  1  0  0  0  0
 20 19  1  0  0  0  0
 21 22  2  0  0  0  0
 22  3  1  0  0  0  0
 23 22  1  0  0  0  0
 24 23  1  0  0  0  0
 25 24  1  0  0  0  0
 26 25  1  0  0  0  0
 28 27  1  0  0  0  0
 28 26  1  0  0  0  0
 31 35  1  0  0  0  0
 32 30  1  1  0  0  0
 33 32  1  0  0  0  0
 34 31  1  0  0  0  0
 34 33  2  0  0  0  0
 35 29  1  6  0  0  0
 35 32  1  0  0  0  0
 36 33  1  0  0  0  0
 37 36  1  0  0  0  0
M  END
>  <MODEL>
9

>  <REMARK>
 VINA RESULT:      -5.8      3.407      9.125
  Name = 
  11 active torsions:
  status: ('A' for Active; 'I' for Inactive)
    1  A    between atoms: C_1  and  N_13
    2  A    between atoms: C_5  and  C_15
    3  A    between atoms: O_6  and  C_27
    4  A    between atoms: C_7  and  C_34
    5  A    between atoms: C_10  and  N_13
    6  A    between atoms: N_12  and  C_23
    7  A    between atoms: N_12  and  C_36
    8  A    between atoms: C_14  and  N_25
    9  A    between atoms: C_14  and  C_28
   10  A    between atoms: N_24  and  C_35
   11  A    between atoms: C_28  and  C_35
                            x       y       z     vdW  Elec       q    Type
                         _______ _______ _______ _____ _____    ______ ____

>  <TORSDO>
F 11

$$$$
