=
 OpenBabel11042420143D

 25 28  0  0  0  0  0  0  0  0999 V2000
  160.8570  202.2540  150.9700 C   0  0  0  0  0  3  0  0  0  0  0  0
  161.4400  207.3470  149.2530 O   0  0  0  0  0  0  0  0  0  0  0  0
  161.5160  205.2500  151.1660 C   0  0  0  0  0  0  0  0  0  0  0  0
  160.4860  202.6890  149.7670 C   0  0  0  0  0  0  0  0  0  0  0  0
  161.6940  204.2960  152.0860 C   0  0  0  0  0  3  0  0  0  0  0  0
  161.2090  208.5440  153.0910 N   0  0  0  0  0  0  0  0  0  0  0  0
  161.0560  203.8840  149.1110 C   0  0  0  0  0  3  0  0  0  0  0  0
  161.5370  206.6900  151.5490 C   0  0  0  0  0  0  0  0  0  0  0  0
  161.9600  202.8630  151.7640 C   0  0  0  0  0  2  0  0  0  0  0  0
  162.0370  207.6480  150.4930 C   0  0  0  0  0  2  0  0  0  0  0  0
  161.5390  204.9880  149.7040 C   0  0  0  0  0  0  0  0  0  0  0  0
  160.3390  207.4010  154.8760 N   0  0  0  0  0  0  0  0  0  0  0  0
  160.6370  209.8760  154.9710 N   0  0  0  0  0  1  0  0  0  0  0  0
  161.8980  206.1160  148.8920 N   0  0  0  0  0  0  0  0  0  0  0  0
  160.5920  206.3720  153.8810 C   0  0  0  0  0  3  0  0  0  0  0  0
  159.5190  201.9700  149.0780 O   0  0  0  0  0  1  0  0  0  0  0  0
  161.1600  207.1640  152.7500 C   0  0  0  0  0  0  0  0  0  0  0  0
  160.7420  208.6320  154.2880 C   0  0  0  0  0  0  0  0  0  0  0  0
  162.7130  205.9720  147.6910 C   0  0  0  0  0  2  0  0  0  0  0  0
  159.8340  205.9600  145.3340 C   0  0  0  0  0  2  0  0  0  0  0  0
  161.9160  206.3550  146.4520 C   0  0  0  0  0  3  0  0  0  0  0  0
  162.5250  205.7400  145.2570 N   0  0  0  0  0  2  0  0  0  0  0  0
  160.4990  205.9960  146.6330 N   0  0  0  0  0  2  0  0  0  0  0  0
  161.8350  204.5060  144.8850 C   0  0  0  0  0  2  0  0  0  0  0  0
  160.3880  204.8090  144.4950 C   0  0  0  0  0  2  0  0  0  0  0  0
  1  9  1  0  0  0  0
  2 10  1  0  0  0  0
  3  8  1  0  0  0  0
  3  5  2  0  0  0  0
  4  1  2  0  0  0  0
  6 18  2  0  0  0  0
  7 11  2  0  0  0  0
  7  4  1  0  0  0  0
  8 17  2  0  0  0  0
  9  5  1  0  0  0  0
 10  8  1  0  0  0  0
 11  3  1  0  0  0  0
 14  2  1  0  0  0  0
 14 11  1  0  0  0  0
 15 12  2  0  0  0  0
 16  4  1  0  0  0  0
 17  6  1  0  0  0  0
 17 15  1  0  0  0  0
 18 12  1  0  0  0  0
 18 13  1  0  0  0  0
 19 14  1  0  0  0  0
 20 23  1  0  0  0  0
 21 23  1  0  0  0  0
 21 19  1  0  0  0  0
 22 21  1  0  0  0  0
 24 22  1  0  0  0  0
 25 24  1  0  0  0  0
 25 20  1  0  0  0  0
M  END
>  <MODEL>
1

>  <REMARK>
 VINA RESULT:      -8.3      0.000      0.000
  Name = 
  2 active torsions:
  status: ('A' for Active; 'I' for Inactive)
    1  A    between atoms: C_2  and  C_11
    2  A    between atoms: C_11  and  N_21
                            x       y       z     vdW  Elec       q    Type
                         _______ _______ _______ _____ _____    ______ ____

>  <TORSDO>
F 2

$$$$
=
 OpenBabel11042420143D

 25 28  0  0  0  0  0  0  0  0999 V2000
  161.0030  203.2620  151.5010 C   0  0  0  0  0  3  0  0  0  0  0  0
  161.3970  207.9270  148.7970 O   0  0  0  0  0  0  0  0  0  0  0  0
  161.5470  206.2590  151.0910 C   0  0  0  0  0  0  0  0  0  0  0  0
  160.6200  203.4330  150.2370 C   0  0  0  0  0  0  0  0  0  0  0  0
  161.7590  205.5160  152.1830 C   0  0  0  0  0  3  0  0  0  0  0  0
  161.1100  209.8580  152.3200 N   0  0  0  0  0  0  0  0  0  0  0  0
  161.1450  204.4940  149.3530 C   0  0  0  0  0  3  0  0  0  0  0  0
  161.5120  207.7470  151.1780 C   0  0  0  0  0  0  0  0  0  0  0  0
  162.0800  204.0590  152.1510 C   0  0  0  0  0  2  0  0  0  0  0  0
  161.9780  208.4920  149.9500 C   0  0  0  0  0  2  0  0  0  0  0  0
  161.5840  205.7110  149.7110 C   0  0  0  0  0  0  0  0  0  0  0  0
  160.2780  209.0620  154.3010 N   0  0  0  0  0  0  0  0  0  0  0  0
  160.4820  211.5160  153.8990 N   0  0  0  0  0  1  0  0  0  0  0  0
  161.9030  206.6670  148.6880 N   0  0  0  0  0  0  0  0  0  0  0  0
  160.5730  207.8650  153.5320 C   0  0  0  0  0  3  0  0  0  0  0  0
  159.6830  202.5550  149.7100 O   0  0  0  0  0  1  0  0  0  0  0  0
  161.1140  208.4360  152.2620 C   0  0  0  0  0  0  0  0  0  0  0  0
  160.6360  210.1650  153.4780 C   0  0  0  0  0  0  0  0  0  0  0  0
  162.7260  206.3170  147.5360 C   0  0  0  0  0  2  0  0  0  0  0  0
  159.8660  205.8170  145.2090 C   0  0  0  0  0  2  0  0  0  0  0  0
  161.9290  206.4530  146.2460 C   0  0  0  0  0  3  0  0  0  0  0  0
  162.5610  205.6490  145.1820 N   0  0  0  0  0  2  0  0  0  0  0  0
  160.5200  206.1000  146.4820 N   0  0  0  0  0  2  0  0  0  0  0  0
  161.9010  204.3520  145.0340 C   0  0  0  0  0  2  0  0  0  0  0  0
  160.4510  204.5470  144.5920 C   0  0  0  0  0  2  0  0  0  0  0  0
  1  9  1  0  0  0  0
  2 10  1  0  0  0  0
  3  8  1  0  0  0  0
  3  5  2  0  0  0  0
  4  1  2  0  0  0  0
  6 18  2  0  0  0  0
  7 11  2  0  0  0  0
  7  4  1  0  0  0  0
  8 17  2  0  0  0  0
  9  5  1  0  0  0  0
 10  8  1  0  0  0  0
 11  3  1  0  0  0  0
 14  2  1  0  0  0  0
 14 11  1  0  0  0  0
 15 12  2  0  0  0  0
 16  4  1  0  0  0  0
 17  6  1  0  0  0  0
 17 15  1  0  0  0  0
 18 13  1  0  0  0  0
 18 12  1  0  0  0  0
 19 14  1  0  0  0  0
 20 23  1  0  0  0  0
 21 23  1  0  0  0  0
 21 19  1  0  0  0  0
 22 21  1  0  0  0  0
 24 22  1  0  0  0  0
 25 24  1  0  0  0  0
 25 20  1  0  0  0  0
M  END
>  <MODEL>
2

>  <REMARK>
 VINA RESULT:      -7.9      0.938      1.059
  Name = 
  2 active torsions:
  status: ('A' for Active; 'I' for Inactive)
    1  A    between atoms: C_2  and  C_11
    2  A    between atoms: C_11  and  N_21
                            x       y       z     vdW  Elec       q    Type
                         _______ _______ _______ _____ _____    ______ ____

>  <TORSDO>
F 2

$$$$
=
 OpenBabel11042420143D

 25 28  0  0  0  0  0  0  0  0999 V2000
  161.1760  201.4280  150.6990 C   0  0  0  0  0  3  0  0  0  0  0  0
  161.9550  206.6660  149.6060 O   0  0  0  0  0  0  0  0  0  0  0  0
  160.9980  204.0420  149.0900 C   0  0  0  0  0  0  0  0  0  0  0  0
  161.9350  202.2440  151.4290 C   0  0  0  0  0  0  0  0  0  0  0  0
  160.4140  202.8650  148.8370 C   0  0  0  0  0  3  0  0  0  0  0  0
  161.3020  205.8310  145.7200 N   0  0  0  0  0  0  0  0  0  0  0  0
  161.7790  203.7130  151.4530 C   0  0  0  0  0  3  0  0  0  0  0  0
  161.1130  205.0800  148.0270 C   0  0  0  0  0  0  0  0  0  0  0  0
  160.0130  201.8870  149.8900 C   0  0  0  0  0  2  0  0  0  0  0  0
  161.0950  206.5150  148.5000 C   0  0  0  0  0  2  0  0  0  0  0  0
  161.3410  204.5040  150.4600 C   0  0  0  0  0  0  0  0  0  0  0  0
  161.4360  203.7980  144.6720 N   0  0  0  0  0  0  0  0  0  0  0  0
  161.5400  205.9180  143.3600 N   0  0  0  0  0  1  0  0  0  0  0  0
  161.4170  205.9290  150.6170 N   0  0  0  0  0  0  0  0  0  0  0  0
  161.3020  203.4650  146.0800 C   0  0  0  0  0  3  0  0  0  0  0  0
  162.9210  201.6830  152.2280 O   0  0  0  0  0  1  0  0  0  0  0  0
  161.2130  204.8160  146.7130 C   0  0  0  0  0  0  0  0  0  0  0  0
  161.4240  205.2190  144.5940 C   0  0  0  0  0  0  0  0  0  0  0  0
  160.9570  206.5950  151.8310 C   0  0  0  0  0  2  0  0  0  0  0  0
  162.3800  210.0330  151.8380 C   0  0  0  0  0  2  0  0  0  0  0  0
  160.9690  208.1060  151.6510 C   0  0  0  0  0  3  0  0  0  0  0  0
  160.1780  208.7430  152.7220 N   0  0  0  0  0  2  0  0  0  0  0  0
  162.3560  208.5970  151.5820 N   0  0  0  0  0  2  0  0  0  0  0  0
  161.0380  209.2220  153.8030 C   0  0  0  0  0  2  0  0  0  0  0  0
  161.9760  210.3130  153.2850 C   0  0  0  0  0  2  0  0  0  0  0  0
  1  4  2  0  0  0  0
  2 14  1  0  0  0  0
  3 11  1  0  0  0  0
  4  7  1  0  0  0  0
  4 16  1  0  0  0  0
  5  3  2  0  0  0  0
  5  9  1  0  0  0  0
  6 17  1  0  0  0  0
  8 10  1  0  0  0  0
  8  3  1  0  0  0  0
  9  1  1  0  0  0  0
 10  2  1  0  0  0  0
 11 14  1  0  0  0  0
 11  7  2  0  0  0  0
 12 15  2  0  0  0  0
 13 18  1  0  0  0  0
 14 19  1  0  0  0  0
 15 17  1  0  0  0  0
 17  8  2  0  0  0  0
 18 12  1  0  0  0  0
 18  6  2  0  0  0  0
 20 25  1  0  0  0  0
 21 19  1  0  0  0  0
 21 22  1  0  0  0  0
 22 24  1  0  0  0  0
 23 21  1  0  0  0  0
 23 20  1  0  0  0  0
 25 24  1  0  0  0  0
M  END
>  <MODEL>
3

>  <REMARK>
 VINA RESULT:      -7.1      1.738      6.548
  Name = 
  2 active torsions:
  status: ('A' for Active; 'I' for Inactive)
    1  A    between atoms: C_2  and  C_11
    2  A    between atoms: C_11  and  N_21
                            x       y       z     vdW  Elec       q    Type
                         _______ _______ _______ _____ _____    ______ ____

>  <TORSDO>
F 2

$$$$
=
 OpenBabel11042420143D

 25 28  0  0  0  0  0  0  0  0999 V2000
  161.9790  206.2980  146.6450 C   0  0  0  0  0  3  0  0  0  0  0  0
  161.2960  202.8140  150.7230 O   0  0  0  0  0  0  0  0  0  0  0  0
  161.0760  205.3270  149.4190 C   0  0  0  0  0  0  0  0  0  0  0  0
  162.5010  205.0720  146.6830 C   0  0  0  0  0  0  0  0  0  0  0  0
  160.8280  206.4990  148.8240 C   0  0  0  0  0  3  0  0  0  0  0  0
  160.8310  205.9670  153.1850 N   0  0  0  0  0  0  0  0  0  0  0  0
  161.9540  203.9690  147.4990 C   0  0  0  0  0  3  0  0  0  0  0  0
  160.8890  205.1640  150.8880 C   0  0  0  0  0  0  0  0  0  0  0  0
  160.7230  206.6810  147.3470 C   0  0  0  0  0  2  0  0  0  0  0  0
  160.4920  203.7830  151.3540 C   0  0  0  0  0  2  0  0  0  0  0  0
  161.3030  204.0650  148.6700 C   0  0  0  0  0  0  0  0  0  0  0  0
  161.4930  208.1340  152.8420 N   0  0  0  0  0  0  0  0  0  0  0  0
  161.0000  207.3000  155.1420 N   0  0  0  0  0  1  0  0  0  0  0  0
  160.9930  202.8650  149.3960 N   0  0  0  0  0  0  0  0  0  0  0  0
  161.4770  207.5510  151.5110 C   0  0  0  0  0  3  0  0  0  0  0  0
  163.6150  204.8090  145.8980 O   0  0  0  0  0  1  0  0  0  0  0  0
  161.0360  206.1510  151.7890 C   0  0  0  0  0  0  0  0  0  0  0  0
  161.0970  207.1010  153.7360 C   0  0  0  0  0  0  0  0  0  0  0  0
  160.3900  201.7060  148.7470 C   0  0  0  0  0  2  0  0  0  0  0  0
  160.0850  200.9460  145.1170 C   0  0  0  0  0  2  0  0  0  0  0  0
  160.8310  201.6160  147.2930 C   0  0  0  0  0  3  0  0  0  0  0  0
  161.8280  200.5380  147.1400 N   0  0  0  0  0  2  0  0  0  0  0  0
  159.6580  201.4520  146.4180 N   0  0  0  0  0  2  0  0  0  0  0  0
  161.2060  199.3060  146.6570 C   0  0  0  0  0  2  0  0  0  0  0  0
  160.6220  199.5220  145.2610 C   0  0  0  0  0  2  0  0  0  0  0  0
  1  4  2  0  0  0  0
  1  9  1  0  0  0  0
  2 10  1  0  0  0  0
  3  8  1  0  0  0  0
  4  7  1  0  0  0  0
  5  3  2  0  0  0  0
  6 18  2  0  0  0  0
  7 11  2  0  0  0  0
  8 10  1  0  0  0  0
  8 17  2  0  0  0  0
  9  5  1  0  0  0  0
 11 14  1  0  0  0  0
 11  3  1  0  0  0  0
 12 18  1  0  0  0  0
 14  2  1  0  0  0  0
 15 17  1  0  0  0  0
 15 12  2  0  0  0  0
 16  4  1  0  0  0  0
 17  6  1  0  0  0  0
 18 13  1  0  0  0  0
 19 14  1  0  0  0  0
 20 25  1  0  0  0  0
 20 23  1  0  0  0  0
 21 19  1  0  0  0  0
 22 21  1  0  0  0  0
 23 21  1  0  0  0  0
 24 22  1  0  0  0  0
 25 24  1  0  0  0  0
M  END
>  <MODEL>
4

>  <REMARK>
 VINA RESULT:      -6.9      2.748      4.122
  Name = 
  2 active torsions:
  status: ('A' for Active; 'I' for Inactive)
    1  A    between atoms: C_2  and  C_11
    2  A    between atoms: C_11  and  N_21
                            x       y       z     vdW  Elec       q    Type
                         _______ _______ _______ _____ _____    ______ ____

>  <TORSDO>
F 2

$$$$
=
 OpenBabel11042420143D

 25 28  0  0  0  0  0  0  0  0999 V2000
  160.9870  208.5610  156.9720 C   0  0  0  0  0  3  0  0  0  0  0  0
  160.4510  208.1190  151.6110 O   0  0  0  0  0  0  0  0  0  0  0  0
  161.0050  209.4830  154.0400 C   0  0  0  0  0  0  0  0  0  0  0  0
  160.5090  207.4850  156.3510 C   0  0  0  0  0  0  0  0  0  0  0  0
  161.3980  210.1560  155.1270 C   0  0  0  0  0  3  0  0  0  0  0  0
  160.0500  212.1230  151.4380 N   0  0  0  0  0  0  0  0  0  0  0  0
  160.8010  207.1490  154.9420 C   0  0  0  0  0  3  0  0  0  0  0  0
  160.7290  210.1970  152.7610 C   0  0  0  0  0  0  0  0  0  0  0  0
  161.9530  209.5110  156.3530 C   0  0  0  0  0  2  0  0  0  0  0  0
  160.9960  209.4140  151.4960 C   0  0  0  0  0  2  0  0  0  0  0  0
  161.0530  208.0020  153.9350 C   0  0  0  0  0  0  0  0  0  0  0  0
  159.4750  213.5580  153.1300 N   0  0  0  0  0  0  0  0  0  0  0  0
  159.2480  214.2460  150.7420 N   0  0  0  0  0  1  0  0  0  0  0  0
  161.1510  207.4920  152.5970 N   0  0  0  0  0  0  0  0  0  0  0  0
  159.9190  212.3560  153.8160 C   0  0  0  0  0  3  0  0  0  0  0  0
  159.7020  206.6160  157.0700 O   0  0  0  0  0  1  0  0  0  0  0  0
  160.2850  211.4630  152.6760 C   0  0  0  0  0  0  0  0  0  0  0  0
  159.5990  213.2920  151.7380 C   0  0  0  0  0  0  0  0  0  0  0  0
  161.9540  206.3160  152.2770 C   0  0  0  0  0  2  0  0  0  0  0  0
  161.1320  202.9180  151.0050 C   0  0  0  0  0  2  0  0  0  0  0  0
  161.0640  205.1600  151.8440 C   0  0  0  0  0  3  0  0  0  0  0  0
  160.4160  205.4830  150.5580 N   0  0  0  0  0  2  0  0  0  0  0  0
  161.8410  203.9100  151.8070 N   0  0  0  0  0  2  0  0  0  0  0  0
  161.1360  204.8820  149.4360 C   0  0  0  0  0  2  0  0  0  0  0  0
  161.0960  203.3570  149.5420 C   0  0  0  0  0  2  0  0  0  0  0  0
  2 14  1  0  0  0  0
  3  5  2  0  0  0  0
  4  1  2  0  0  0  0
  4 16  1  0  0  0  0
  5  9  1  0  0  0  0
  6 18  2  0  0  0  0
  6 17  1  0  0  0  0
  7  4  1  0  0  0  0
  8  3  1  0  0  0  0
  9  1  1  0  0  0  0
 10  2  1  0  0  0  0
 10  8  1  0  0  0  0
 11  3  1  0  0  0  0
 11  7  2  0  0  0  0
 12 15  2  0  0  0  0
 13 18  1  0  0  0  0
 14 11  1  0  0  0  0
 17  8  2  0  0  0  0
 17 15  1  0  0  0  0
 18 12  1  0  0  0  0
 19 14  1  0  0  0  0
 20 23  1  0  0  0  0
 21 19  1  0  0  0  0
 22 21  1  0  0  0  0
 23 21  1  0  0  0  0
 24 25  1  0  0  0  0
 24 22  1  0  0  0  0
 25 20  1  0  0  0  0
M  END
>  <MODEL>
5

>  <REMARK>
 VINA RESULT:      -6.8      3.225      5.904
  Name = 
  2 active torsions:
  status: ('A' for Active; 'I' for Inactive)
    1  A    between atoms: C_2  and  C_11
    2  A    between atoms: C_11  and  N_21
                            x       y       z     vdW  Elec       q    Type
                         _______ _______ _______ _____ _____    ______ ____

>  <TORSDO>
F 2

$$$$
=
 OpenBabel11042420143D

 25 28  0  0  0  0  0  0  0  0999 V2000
  161.3810  205.5210  149.6790 C   0  0  0  0  0  3  0  0  0  0  0  0
  161.1900  210.7060  151.1960 O   0  0  0  0  0  0  0  0  0  0  0  0
  161.5930  207.9220  151.5860 C   0  0  0  0  0  0  0  0  0  0  0  0
  160.9380  206.5140  148.9090 C   0  0  0  0  0  0  0  0  0  0  0  0
  161.9190  206.6450  151.8150 C   0  0  0  0  0  3  0  0  0  0  0  0
  160.8230  209.4560  155.0070 N   0  0  0  0  0  0  0  0  0  0  0  0
  161.3190  207.9300  149.0910 C   0  0  0  0  0  3  0  0  0  0  0  0
  161.4040  208.8740  152.7170 C   0  0  0  0  0  0  0  0  0  0  0  0
  162.3890  205.7010  150.7590 C   0  0  0  0  0  2  0  0  0  0  0  0
  161.7480  210.3170  152.4300 C   0  0  0  0  0  2  0  0  0  0  0  0
  161.6400  208.5470  150.2390 C   0  0  0  0  0  0  0  0  0  0  0  0
  160.1480  207.3990  155.7590 N   0  0  0  0  0  0  0  0  0  0  0  0
  160.0790  209.3900  157.2610 N   0  0  0  0  0  1  0  0  0  0  0  0
  161.8210  209.9720  150.2390 N   0  0  0  0  0  0  0  0  0  0  0  0
  160.5400  207.1640  154.3790 C   0  0  0  0  0  3  0  0  0  0  0  0
  160.0810  206.2020  147.8630 O   0  0  0  0  0  1  0  0  0  0  0  0
  160.9740  208.5250  153.9420 C   0  0  0  0  0  0  0  0  0  0  0  0
  160.3590  208.7840  156.0040 C   0  0  0  0  0  0  0  0  0  0  0  0
  162.6370  210.6440  149.2330 C   0  0  0  0  0  2  0  0  0  0  0  0
  160.5790  212.8050  147.0100 C   0  0  0  0  0  2  0  0  0  0  0  0
  161.9580  211.9210  148.7580 C   0  0  0  0  0  3  0  0  0  0  0  0
  162.9730  212.8690  148.2590 N   0  0  0  0  0  2  0  0  0  0  0  0
  160.9200  211.6020  147.7630 N   0  0  0  0  0  2  0  0  0  0  0  0
  163.0840  212.8090  146.8020 C   0  0  0  0  0  2  0  0  0  0  0  0
  161.7680  213.2420  146.1550 C   0  0  0  0  0  2  0  0  0  0  0  0
  1  9  1  0  0  0  0
  2 10  1  0  0  0  0
  3  5  2  0  0  0  0
  3  8  1  0  0  0  0
  4  7  1  0  0  0  0
  4  1  2  0  0  0  0
  6 18  2  0  0  0  0
  7 11  2  0  0  0  0
  8 17  2  0  0  0  0
  9  5  1  0  0  0  0
 10  8  1  0  0  0  0
 11 14  1  0  0  0  0
 11  3  1  0  0  0  0
 12 18  1  0  0  0  0
 14  2  1  0  0  0  0
 15 12  2  0  0  0  0
 16  4  1  0  0  0  0
 17 15  1  0  0  0  0
 17  6  1  0  0  0  0
 18 13  1  0  0  0  0
 19 14  1  0  0  0  0
 20 23  1  0  0  0  0
 21 19  1  0  0  0  0
 22 21  1  0  0  0  0
 23 21  1  0  0  0  0
 24 22  1  0  0  0  0
 25 24  1  0  0  0  0
 25 20  1  0  0  0  0
M  END
>  <MODEL>
6

>  <REMARK>
 VINA RESULT:      -6.5      3.473      4.563
  Name = 
  2 active torsions:
  status: ('A' for Active; 'I' for Inactive)
    1  A    between atoms: C_2  and  C_11
    2  A    between atoms: C_11  and  N_21
                            x       y       z     vdW  Elec       q    Type
                         _______ _______ _______ _____ _____    ______ ____

>  <TORSDO>
F 2

$$$$
=
 OpenBabel11042420143D

 25 28  0  0  0  0  0  0  0  0999 V2000
  161.2160  210.8840  150.9110 C   0  0  0  0  0  3  0  0  0  0  0  0
  160.5200  207.0280  154.6360 O   0  0  0  0  0  0  0  0  0  0  0  0
  161.4030  208.0770  152.1490 C   0  0  0  0  0  0  0  0  0  0  0  0
  160.4960  211.0330  152.0220 C   0  0  0  0  0  0  0  0  0  0  0  0
  161.9540  208.5260  151.0160 C   0  0  0  0  0  3  0  0  0  0  0  0
  161.0400  204.2890  151.7300 N   0  0  0  0  0  0  0  0  0  0  0  0
  160.6850  210.2200  153.2410 C   0  0  0  0  0  3  0  0  0  0  0  0
  161.2800  206.6140  152.4080 C   0  0  0  0  0  0  0  0  0  0  0  0
  162.3640  209.9430  150.7910 C   0  0  0  0  0  2  0  0  0  0  0  0
  161.3430  206.1920  153.8570 C   0  0  0  0  0  2  0  0  0  0  0  0
  161.1110  208.9480  153.3160 C   0  0  0  0  0  0  0  0  0  0  0  0
  160.8310  204.5770  149.4660 N   0  0  0  0  0  0  0  0  0  0  0  0
  160.7350  202.2970  150.4760 N   0  0  0  0  0  1  0  0  0  0  0  0
  161.0710  208.2730  154.5820 N   0  0  0  0  0  0  0  0  0  0  0  0
  160.9990  205.9250  149.9830 C   0  0  0  0  0  3  0  0  0  0  0  0
  159.5220  212.0210  152.0450 O   0  0  0  0  0  1  0  0  0  0  0  0
  161.1360  205.6810  151.4510 C   0  0  0  0  0  0  0  0  0  0  0  0
  160.8720  203.7090  150.5930 C   0  0  0  0  0  0  0  0  0  0  0  0
  161.5800  208.8910  155.8010 C   0  0  0  0  0  2  0  0  0  0  0  0
  158.3780  210.7030  156.3550 C   0  0  0  0  0  2  0  0  0  0  0  0
  160.4460  209.5190  156.5990 C   0  0  0  0  0  3  0  0  0  0  0  0
  160.9220  210.7480  157.2610 N   0  0  0  0  0  2  0  0  0  0  0  0
  159.2790  209.7410  155.7290 N   0  0  0  0  0  2  0  0  0  0  0  0
  160.5630  211.9380  156.4900 C   0  0  0  0  0  2  0  0  0  0  0  0
  159.0420  212.0780  156.4150 C   0  0  0  0  0  2  0  0  0  0  0  0
  1  4  2  0  0  0  0
  3  8  1  0  0  0  0
  3 11  1  0  0  0  0
  4 16  1  0  0  0  0
  4  7  1  0  0  0  0
  5  3  2  0  0  0  0
  7 11  2  0  0  0  0
  8 10  1  0  0  0  0
  9  1  1  0  0  0  0
  9  5  1  0  0  0  0
 10  2  1  0  0  0  0
 11 14  1  0  0  0  0
 12 15  2  0  0  0  0
 12 18  1  0  0  0  0
 13 18  1  0  0  0  0
 14  2  1  0  0  0  0
 14 19  1  0  0  0  0
 15 17  1  0  0  0  0
 17  6  1  0  0  0  0
 17  8  2  0  0  0  0
 18  6  2  0  0  0  0
 19 21  1  0  0  0  0
 20 25  1  0  0  0  0
 21 22  1  0  0  0  0
 23 20  1  0  0  0  0
 23 21  1  0  0  0  0
 24 22  1  0  0  0  0
 25 24  1  0  0  0  0
M  END
>  <MODEL>
7

>  <REMARK>
 VINA RESULT:      -6.4      3.179      8.233
  Name = 
  2 active torsions:
  status: ('A' for Active; 'I' for Inactive)
    1  A    between atoms: C_2  and  C_11
    2  A    between atoms: C_11  and  N_21
                            x       y       z     vdW  Elec       q    Type
                         _______ _______ _______ _____ _____    ______ ____

>  <TORSDO>
F 2

$$$$
=
 OpenBabel11042420143D

 25 28  0  0  0  0  0  0  0  0999 V2000
  161.1430  209.7520  154.8880 C   0  0  0  0  0  3  0  0  0  0  0  0
  161.2770  207.2800  150.0810 O   0  0  0  0  0  0  0  0  0  0  0  0
  161.7720  209.4060  151.8980 C   0  0  0  0  0  0  0  0  0  0  0  0
  160.5330  208.6000  154.6180 C   0  0  0  0  0  0  0  0  0  0  0  0
  162.1470  210.3930  152.7200 C   0  0  0  0  0  3  0  0  0  0  0  0
  161.7910  210.8900  148.3700 N   0  0  0  0  0  0  0  0  0  0  0  0
  160.9380  207.6880  153.5280 C   0  0  0  0  0  3  0  0  0  0  0  0
  161.8400  209.5790  150.4200 C   0  0  0  0  0  0  0  0  0  0  0  0
  162.3700  210.2210  154.1850 C   0  0  0  0  0  2  0  0  0  0  0  0
  162.1020  208.3240  149.6190 C   0  0  0  0  0  2  0  0  0  0  0  0
  161.5090  208.0180  152.3570 C   0  0  0  0  0  0  0  0  0  0  0  0
  161.3140  212.9500  149.2520 N   0  0  0  0  0  0  0  0  0  0  0  0
  161.5790  212.6480  146.7890 N   0  0  0  0  0  1  0  0  0  0  0  0
  161.6780  207.0060  151.3540 N   0  0  0  0  0  0  0  0  0  0  0  0
  161.3840  212.0740  150.4090 C   0  0  0  0  0  3  0  0  0  0  0  0
  159.4620  208.2220  155.4150 O   0  0  0  0  0  1  0  0  0  0  0  0
  161.7010  210.7550  149.7830 C   0  0  0  0  0  0  0  0  0  0  0  0
  161.5690  212.1330  148.1160 C   0  0  0  0  0  0  0  0  0  0  0  0
  162.2400  205.6970  151.6670 C   0  0  0  0  0  2  0  0  0  0  0  0
  160.9230  202.2600  151.1180 C   0  0  0  0  0  2  0  0  0  0  0  0
  161.1880  204.6090  151.5100 C   0  0  0  0  0  3  0  0  0  0  0  0
  160.4920  204.7700  150.2190 N   0  0  0  0  0  2  0  0  0  0  0  0
  161.8030  203.2820  151.6780 N   0  0  0  0  0  2  0  0  0  0  0  0
  161.0500  203.8810  149.2010 C   0  0  0  0  0  2  0  0  0  0  0  0
  160.8340  202.4210  149.6010 C   0  0  0  0  0  2  0  0  0  0  0  0
  2 14  1  0  0  0  0
  3 11  1  0  0  0  0
  3  5  2  0  0  0  0
  4  1  2  0  0  0  0
  4 16  1  0  0  0  0
  5  9  1  0  0  0  0
  6 17  1  0  0  0  0
  7  4  1  0  0  0  0
  8  3  1  0  0  0  0
  9  1  1  0  0  0  0
 10  2  1  0  0  0  0
 10  8  1  0  0  0  0
 11  7  2  0  0  0  0
 12 15  2  0  0  0  0
 13 18  1  0  0  0  0
 14 19  1  0  0  0  0
 14 11  1  0  0  0  0
 17 15  1  0  0  0  0
 17  8  2  0  0  0  0
 18  6  2  0  0  0  0
 18 12  1  0  0  0  0
 20 23  1  0  0  0  0
 21 19  1  0  0  0  0
 21 23  1  0  0  0  0
 22 21  1  0  0  0  0
 24 25  1  0  0  0  0
 24 22  1  0  0  0  0
 25 20  1  0  0  0  0
M  END
>  <MODEL>
8

>  <REMARK>
 VINA RESULT:      -6.1      3.212      5.962
  Name = 
  2 active torsions:
  status: ('A' for Active; 'I' for Inactive)
    1  A    between atoms: C_2  and  C_11
    2  A    between atoms: C_11  and  N_21
                            x       y       z     vdW  Elec       q    Type
                         _______ _______ _______ _____ _____    ______ ____

>  <TORSDO>
F 2

$$$$
=
 OpenBabel11042420143D

 25 28  0  0  0  0  0  0  0  0999 V2000
  161.5460  212.2040  148.7870 C   0  0  0  0  0  3  0  0  0  0  0  0
  160.8760  208.4420  152.6120 O   0  0  0  0  0  0  0  0  0  0  0  0
  161.7450  209.4290  150.0950 C   0  0  0  0  0  0  0  0  0  0  0  0
  160.8320  212.3800  149.8980 C   0  0  0  0  0  0  0  0  0  0  0  0
  162.2900  209.8510  148.9480 C   0  0  0  0  0  3  0  0  0  0  0  0
  161.3870  205.6320  149.7730 N   0  0  0  0  0  0  0  0  0  0  0  0
  161.0290  211.5980  151.1360 C   0  0  0  0  0  3  0  0  0  0  0  0
  161.6260  207.9740  150.3910 C   0  0  0  0  0  0  0  0  0  0  0  0
  162.6960  211.2630  148.6860 C   0  0  0  0  0  2  0  0  0  0  0  0
  161.6980  207.5880  151.8500 C   0  0  0  0  0  2  0  0  0  0  0  0
  161.4570  210.3290  151.2410 C   0  0  0  0  0  0  0  0  0  0  0  0
  161.1660  205.8620  147.5040 N   0  0  0  0  0  0  0  0  0  0  0  0
  161.0790  203.6080  148.5710 N   0  0  0  0  0  1  0  0  0  0  0  0
  161.4250  209.6860  152.5240 N   0  0  0  0  0  0  0  0  0  0  0  0
  161.3340  207.2230  147.9860 C   0  0  0  0  0  3  0  0  0  0  0  0
  159.8560  213.3660  149.9020 O   0  0  0  0  0  1  0  0  0  0  0  0
  161.4790  207.0170  149.4580 C   0  0  0  0  0  0  0  0  0  0  0  0
  161.2140  205.0230  148.6510 C   0  0  0  0  0  0  0  0  0  0  0  0
  161.9400  210.3350  153.7250 C   0  0  0  0  0  2  0  0  0  0  0  0
  159.2530  210.5630  156.2890 C   0  0  0  0  0  2  0  0  0  0  0  0
  161.1310  209.9230  154.9460 C   0  0  0  0  0  3  0  0  0  0  0  0
  161.9210  210.1570  156.1700 N   0  0  0  0  0  2  0  0  0  0  0  0
  159.8320  210.6160  154.9510 N   0  0  0  0  0  2  0  0  0  0  0  0
  161.5580  211.4260  156.8000 C   0  0  0  0  0  2  0  0  0  0  0  0
  160.1000  211.3890  157.2570 C   0  0  0  0  0  2  0  0  0  0  0  0
  1  4  2  0  0  0  0
  3  8  1  0  0  0  0
  3 11  1  0  0  0  0
  4 16  1  0  0  0  0
  4  7  1  0  0  0  0
  5  3  2  0  0  0  0
  7 11  2  0  0  0  0
  8 10  1  0  0  0  0
  9  1  1  0  0  0  0
  9  5  1  0  0  0  0
 10  2  1  0  0  0  0
 11 14  1  0  0  0  0
 12 15  2  0  0  0  0
 12 18  1  0  0  0  0
 13 18  1  0  0  0  0
 14  2  1  0  0  0  0
 14 19  1  0  0  0  0
 15 17  1  0  0  0  0
 17  6  1  0  0  0  0
 17  8  2  0  0  0  0
 18  6  2  0  0  0  0
 19 21  1  0  0  0  0
 20 25  1  0  0  0  0
 21 23  1  0  0  0  0
 21 22  1  0  0  0  0
 22 24  1  0  0  0  0
 23 20  1  0  0  0  0
 24 25  1  0  0  0  0
M  END
>  <MODEL>
9

>  <REMARK>
 VINA RESULT:      -5.9      2.996      8.405
  Name = 
  2 active torsions:
  status: ('A' for Active; 'I' for Inactive)
    1  A    between atoms: C_2  and  C_11
    2  A    between atoms: C_11  and  N_21
                            x       y       z     vdW  Elec       q    Type
                         _______ _______ _______ _____ _____    ______ ____

>  <TORSDO>
F 2

$$$$
