=
 OpenBabel11052411583D

 63 68  0  0  1  0  0  0  0  0999 V2000
  160.5000  210.8870  150.5980 C   0  0  0  0  0  1  0  0  0  0  0  0
  161.0050  205.5690  151.9900 O   0  0  0  0  0  0  0  0  0  0  0  0
  160.7850  204.0960  153.7330 O   0  0  0  0  0  1  0  0  0  0  0  0
  161.6410  204.8130  150.9920 C   0  0  1  0  0  3  0  0  0  0  0  0
  163.1350  210.6730  154.0220 O   0  0  0  0  0  1  0  0  0  0  0  0
  162.5480  205.4690  147.2340 C   0  0  0  0  0  2  0  0  0  0  0  0
  161.2340  206.1930  147.0270 C   0  0  1  0  0  3  0  0  0  0  0  0
  162.5250  204.7540  148.5720 C   0  0  2  0  0  3  0  0  0  0  0  0
  161.3880  202.7170  149.6440 N   0  0  0  0  0  0  0  0  0  0  0  0
  161.4040  209.2370  153.2990 C   0  0  0  0  0  2  0  0  0  0  0  0
  161.0940  207.9290  150.2430 C   0  0  0  0  0  2  0  0  0  0  0  0
  160.8300  203.6150  150.6070 C   0  0  0  0  0  0  0  0  0  0  0  0
  160.9080  206.7210  149.2870 C   0  0  2  0  0  0  0  0  0  0  0  0
  160.3550  206.8740  154.3420 O   0  0  0  0  0  0  0  0  0  0  0  0
  161.9350  203.3570  148.4760 C   0  0  0  0  0  0  0  0  0  0  0  0
  161.5540  205.1360  153.2070 C   0  0  2  0  0  3  0  0  0  0  0  0
  161.9920  202.7280  147.3830 O   0  0  0  0  0  0  0  0  0  0  0  0
  161.9350  210.3780  150.4510 C   0  0  2  0  0  3  0  0  0  0  0  0
  162.0500  209.0260  149.7230 C   0  0  1  0  0  3  0  0  0  0  0  0
  161.6160  206.2820  154.1910 C   0  0  0  0  0  2  0  0  0  0  0  0
  160.5630  207.8840  155.2890 C   0  0  0  0  0  2  0  0  0  0  0  0
  163.4890  208.5380  149.6410 C   0  0  0  0  0  1  0  0  0  0  0  0
  161.9580  205.6400  149.7160 C   0  0  1  0  0  3  0  0  0  0  0  0
  159.6180  203.5230  150.9290 O   0  0  0  0  0  0  0  0  0  0  0  0
  162.1490  210.5380  153.0530 C   0  0  2  0  0  3  0  0  0  0  0  0
  161.1340  207.2230  147.9770 O   0  0  0  0  0  0  0  0  0  0  0  0
  162.8380  210.5320  151.6970 C   0  0  0  0  0  2  0  0  0  0  0  0
  160.6750  209.2730  154.6470 C   0  0  2  0  0  3  0  0  0  0  0  0
  158.8370  201.4730  147.5140 C   0  0  0  0  0  2  0  0  0  0  0  0
  160.1920  201.9090  146.9820 C   0  0  2  0  0  3  0  0  0  0  0  0
  161.1040  201.2650  149.7030 C   0  0  1  0  0  3  0  0  0  0  0  0
  159.6110  200.9020  149.8450 C   0  0  0  0  0  2  0  0  0  0  0  0
  161.7250  200.4790  148.5320 C   0  0  0  0  0  3  0  0  0  0  0  0
  158.7050  201.7800  148.9970 C   0  0  0  0  0  2  0  0  0  0  0  0
  160.0530  202.3150  145.5290 C   0  0  0  0  0  1  0  0  0  0  0  0
  161.2120  200.7810  147.1100 C   0  0  0  0  0  3  0  0  0  0  0  0
  159.4640  206.1460  149.3570 C   0  0  0  0  0  2  0  0  0  0  0  0
  158.8150  205.8170  148.0130 C   0  0  0  0  0  1  0  0  0  0  0  0
  159.3330  209.9290  154.5350 C   0  0  0  0  0  3  0  0  0  0  0  0
  158.9730  210.8060  155.4030 N   0  0  0  0  0  0  0  0  0  0  0  0
  157.4300  211.5540  155.3210 S   0  0  0  0  0  0  0  0  0  0  0  0
  157.3570  212.6810  156.3150 O   0  0  0  0  0  0  0  0  0  0  0  0
  156.3680  210.5390  155.6350 O   0  0  0  0  0  0  0  0  0  0  0  0
  157.2290  212.2200  153.7250 N   0  0  0  0  0  2  0  0  0  0  0  0
  157.4660  213.6570  153.7640 C   0  0  0  0  0  2  0  0  0  0  0  0
  158.5460  214.0340  152.7600 C   0  0  0  0  0  2  0  0  0  0  0  0
  157.9580  214.4530  151.5680 O   0  0  0  0  0  1  0  0  0  0  0  0
  161.2470  206.8200  145.6420 C   0  0  0  0  0  2  0  0  0  0  0  0
  162.0720  206.0940  144.7760 O   0  0  0  0  0  0  0  0  0  0  0  0
  161.3170  205.8840  143.6160 C   0  0  2  0  0  3  0  0  0  0  0  0
  160.4970  204.6170  143.7880 C   0  0  0  0  0  1  0  0  0  0  0  0
  162.2380  205.7620  142.4060 C   0  0  0  0  0  2  0  0  0  0  0  0
  161.6980  206.5250  141.2850 N   0  0  0  0  0  2  0  0  0  0  0  0
  162.6000  206.4440  140.2780 O   0  0  0  0  0  0  0  0  0  0  0  0
  161.9950  207.1100  139.2050 C   0  0  0  0  0  2  0  0  0  0  0  0
  161.6140  208.5300  139.6050 C   0  0  0  0  0  2  0  0  0  0  0  0
  159.8870  209.9810  138.7690 O   0  0  0  0  0  0  0  0  0  0  0  0
  159.8210  208.9960  137.7610 C   0  0  0  0  0  2  0  0  0  0  0  0
  161.0960  209.3550  138.4290 C   0  0  2  0  0  0  0  0  0  0  0  0
  162.0160  210.3420  137.7250 C   0  0  0  0  0  2  0  0  0  0  0  0
  163.3490  212.3720  138.0720 C   0  0  0  0  0  2  0  0  0  0  0  0
  163.3930  211.5820  139.2360 O   0  0  0  0  0  0  0  0  0  0  0  0
  162.1690  211.6190  138.5360 C   0  0  2  0  0  3  0  0  0  0  0  0
  2 16  1  0  0  0  0
  4 12  1  6  0  0  0
  4  2  1  0  0  0  0
  7 48  1  6  0  0  0
  7  6  1  0  0  0  0
  7 26  1  0  0  0  0
  8  6  1  6  0  0  0
  8 23  1  0  0  0  0
  9 31  1  0  0  0  0
  9 12  1  0  0  0  0
 10 28  1  0  0  0  0
 12 24  2  0  0  0  0
 13 37  1  1  0  0  0
 13 23  1  0  0  0  0
 13 11  1  0  0  0  0
 14 21  1  0  0  0  0
 15  8  1  0  0  0  0
 15  9  1  0  0  0  0
 16  3  1  1  0  0  0
 16 20  1  0  0  0  0
 17 15  2  0  0  0  0
 18  1  1  1  0  0  0
 18 27  1  0  0  0  0
 19 22  1  1  0  0  0
 19 11  1  0  0  0  0
 19 18  1  0  0  0  0
 20 14  1  0  0  0  0
 23  4  1  0  0  0  0
 25 10  1  0  0  0  0
 25  5  1  0  0  0  0
 26 13  1  0  0  0  0
 27 25  1  0  0  0  0
 28 21  1  0  0  0  0
 29 34  1  0  0  0  0
 30 36  1  0  0  0  0
 30 29  1  0  0  0  0
 31 32  1  0  0  0  0
 33 31  1  0  0  0  0
 34 32  1  0  0  0  0
 35 30  1  0  0  0  0
 36 33  2  0  0  0  0
 38 37  1  0  0  0  0
 39 28  1  0  0  0  0
 39 40  2  0  0  0  0
 41 40  1  0  0  0  0
 41 43  2  0  0  0  0
 41 42  2  0  0  0  0
 44 45  1  0  0  0  0
 44 41  1  0  0  0  0
 46 45  1  0  0  0  0
 47 46  1  0  0  0  0
 49 48  1  0  0  0  0
 50 51  1  0  0  0  0
 50 49  1  0  0  0  0
 52 50  1  0  0  0  0
 53 52  1  0  0  0  0
 54 53  1  0  0  0  0
 55 56  1  0  0  0  0
 55 54  1  0  0  0  0
 58 59  1  0  0  0  0
 58 57  1  0  0  0  0
 59 57  1  0  0  0  0
 59 56  1  0  0  0  0
 60 59  1  0  0  0  0
 60 63  1  0  0  0  0
 61 63  1  0  0  0  0
 61 62  1  0  0  0  0
 63 62  1  0  0  0  0
M  END
>  <MODEL>
1

>  <REMARK>
 VINA RESULT:       4.5      0.000      0.000
  Name = 
  18 active torsions:
  status: ('A' for Active; 'I' for Inactive)
    1  A    between atoms: C_3  and  C_20
    2  A    between atoms: S_4  and  N_14
    3  A    between atoms: S_4  and  N_55
    4  A    between atoms: C_12  and  C_48
    5  A    between atoms: N_14  and  C_20
    6  A    between atoms: N_15  and  C_22
    7  A    between atoms: C_17  and  C_44
    8  A    between atoms: C_17  and  N_61
    9  A    between atoms: C_23  and  C_59
   10  A    between atoms: C_24  and  C_27
   11  A    between atoms: O_35  and  C_44
   12  A    between atoms: O_35  and  C_48
   13  A    between atoms: O_39  and  C_56
   14  A    between atoms: O_39  and  N_61
   15  A    between atoms: C_49  and  C_56
   16  A    between atoms: C_49  and  C_58
   17  A    between atoms: C_58  and  C_62
   18  A    between atoms: C_62  and  C_63
                            x       y       z     vdW  Elec       q    Type
                         _______ _______ _______ _____ _____    ______ ____

>  <TORSDO>
F 18

$$$$
=
 OpenBabel11052411583D

 63 68  0  0  1  0  0  0  0  0999 V2000
  160.5920  210.8090  150.4480 C   0  0  0  0  0  1  0  0  0  0  0  0
  160.9990  205.4810  151.8330 O   0  0  0  0  0  0  0  0  0  0  0  0
  160.7330  204.0070  153.5700 O   0  0  0  0  0  1  0  0  0  0  0  0
  161.6370  204.7180  150.8420 C   0  0  1  0  0  3  0  0  0  0  0  0
  163.1780  210.5470  153.9060 O   0  0  0  0  0  1  0  0  0  0  0  0
  162.6030  205.3690  147.0970 C   0  0  0  0  0  2  0  0  0  0  0  0
  161.3030  206.1130  146.8750 C   0  0  1  0  0  3  0  0  0  0  0  0
  162.5520  204.6510  148.4330 C   0  0  2  0  0  3  0  0  0  0  0  0
  161.3710  202.6290  149.4860 N   0  0  0  0  0  0  0  0  0  0  0  0
  161.4360  209.1390  153.1570 C   0  0  0  0  0  2  0  0  0  0  0  0
  161.1470  207.8440  150.0940 C   0  0  0  0  0  2  0  0  0  0  0  0
  160.8130  203.5330  150.4430 C   0  0  0  0  0  0  0  0  0  0  0  0
  160.9550  206.6410  149.1320 C   0  0  2  0  0  0  0  0  0  0  0  0
  160.3370  206.7900  154.1800 O   0  0  0  0  0  0  0  0  0  0  0  0
  161.9420  203.2630  148.3260 C   0  0  0  0  0  0  0  0  0  0  0  0
  161.5250  205.0370  153.0560 C   0  0  2  0  0  3  0  0  0  0  0  0
  162.0040  202.6360  147.2320 O   0  0  0  0  0  0  0  0  0  0  0  0
  162.0220  210.2790  150.3190 C   0  0  2  0  0  3  0  0  0  0  0  0
  162.1250  208.9270  149.5890 C   0  0  1  0  0  3  0  0  0  0  0  0
  161.5910  206.1790  154.0440 C   0  0  0  0  0  2  0  0  0  0  0  0
  160.5490  207.7950  155.1320 C   0  0  0  0  0  2  0  0  0  0  0  0
  163.5580  208.4180  149.5240 C   0  0  0  0  0  1  0  0  0  0  0  0
  161.9830  205.5430  149.5720 C   0  0  1  0  0  3  0  0  0  0  0  0
  159.5950  203.4590  150.7490 O   0  0  0  0  0  0  0  0  0  0  0  0
  162.2030  210.4290  152.9240 C   0  0  2  0  0  3  0  0  0  0  0  0
  161.2060  207.1420  147.8270 O   0  0  0  0  0  0  0  0  0  0  0  0
  162.9100  210.4160  151.5770 C   0  0  0  0  0  2  0  0  0  0  0  0
  160.6900  209.1830  154.4950 C   0  0  2  0  0  3  0  0  0  0  0  0
  158.7720  201.4420  147.3800 C   0  0  0  0  0  2  0  0  0  0  0  0
  160.1270  201.8610  146.8330 C   0  0  2  0  0  3  0  0  0  0  0  0
  161.0630  201.1810  149.5370 C   0  0  1  0  0  3  0  0  0  0  0  0
  159.5670  200.8410  149.6960 C   0  0  0  0  0  2  0  0  0  0  0  0
  161.6570  200.3950  148.3520 C   0  0  0  0  0  3  0  0  0  0  0  0
  158.6640  201.7400  148.8670 C   0  0  0  0  0  2  0  0  0  0  0  0
  159.9750  202.2800  145.3860 C   0  0  0  0  0  1  0  0  0  0  0  0
  161.1300  200.7160  146.9390 C   0  0  0  0  0  3  0  0  0  0  0  0
  159.5020  206.0880  149.1810 C   0  0  0  0  0  2  0  0  0  0  0  0
  158.7700  206.0250  147.8410 C   0  0  0  0  0  1  0  0  0  0  0  0
  159.3590  209.8600  154.3670 C   0  0  0  0  0  3  0  0  0  0  0  0
  158.9860  210.7150  155.2510 N   0  0  0  0  0  0  0  0  0  0  0  0
  157.4560  211.4840  155.1500 S   0  0  0  0  0  0  0  0  0  0  0  0
  156.8440  211.5820  156.5210 O   0  0  0  0  0  0  0  0  0  0  0  0
  156.5540  210.6830  154.2550 O   0  0  0  0  0  0  0  0  0  0  0  0
  157.6920  213.0980  154.5420 N   0  0  0  0  0  2  0  0  0  0  0  0
  158.6710  213.0730  153.4630 C   0  0  0  0  0  2  0  0  0  0  0  0
  158.1660  213.8900  152.2820 C   0  0  0  0  0  2  0  0  0  0  0  0
  157.8220  213.0400  151.2320 O   0  0  0  0  0  1  0  0  0  0  0  0
  161.3440  206.7430  145.4930 C   0  0  0  0  0  2  0  0  0  0  0  0
  160.4310  206.1190  144.6350 O   0  0  0  0  0  0  0  0  0  0  0  0
  161.2010  205.4910  143.6480 C   0  0  2  0  0  3  0  0  0  0  0  0
  162.2990  204.6870  144.3220 C   0  0  0  0  0  1  0  0  0  0  0  0
  161.8020  206.5320  142.7090 C   0  0  0  0  0  2  0  0  0  0  0  0
  161.7090  206.0740  141.3260 N   0  0  0  0  0  2  0  0  0  0  0  0
  162.4270  206.9400  140.5730 O   0  0  0  0  0  0  0  0  0  0  0  0
  162.1140  206.6040  139.2500 C   0  0  0  0  0  2  0  0  0  0  0  0
  162.2800  207.8130  138.3390 C   0  0  0  0  0  2  0  0  0  0  0  0
  161.8930  210.1800  138.1490 O   0  0  0  0  0  0  0  0  0  0  0  0
  162.0910  210.1260  139.5450 C   0  0  0  0  0  2  0  0  0  0  0  0
  161.4540  209.0140  138.7960 C   0  0  2  0  0  0  0  0  0  0  0  0
  159.9340  208.9460  138.7790 C   0  0  0  0  0  2  0  0  0  0  0  0
  158.3110  210.2770  137.5110 C   0  0  0  0  0  2  0  0  0  0  0  0
  158.0290  208.9090  137.3340 O   0  0  0  0  0  0  0  0  0  0  0  0
  159.3890  209.2770  137.3990 C   0  0  2  0  0  3  0  0  0  0  0  0
  2 16  1  0  0  0  0
  4 12  1  6  0  0  0
  4  2  1  0  0  0  0
  7 48  1  6  0  0  0
  7  6  1  0  0  0  0
  7 26  1  0  0  0  0
  8  6  1  6  0  0  0
  8 23  1  0  0  0  0
  9 31  1  0  0  0  0
  9 12  1  0  0  0  0
 10 28  1  0  0  0  0
 12 24  2  0  0  0  0
 13 37  1  1  0  0  0
 13 23  1  0  0  0  0
 13 11  1  0  0  0  0
 14 21  1  0  0  0  0
 15  8  1  0  0  0  0
 15  9  1  0  0  0  0
 16  3  1  1  0  0  0
 16 20  1  0  0  0  0
 17 15  2  0  0  0  0
 18  1  1  1  0  0  0
 18 27  1  0  0  0  0
 19 22  1  1  0  0  0
 19 11  1  0  0  0  0
 19 18  1  0  0  0  0
 20 14  1  0  0  0  0
 23  4  1  0  0  0  0
 25 10  1  0  0  0  0
 25  5  1  0  0  0  0
 26 13  1  0  0  0  0
 27 25  1  0  0  0  0
 28 21  1  0  0  0  0
 29 34  1  0  0  0  0
 30 36  1  0  0  0  0
 30 29  1  0  0  0  0
 31 32  1  0  0  0  0
 33 31  1  0  0  0  0
 34 32  1  0  0  0  0
 35 30  1  0  0  0  0
 36 33  2  0  0  0  0
 38 37  1  0  0  0  0
 39 28  1  0  0  0  0
 39 40  2  0  0  0  0
 41 40  1  0  0  0  0
 41 42  2  0  0  0  0
 43 41  2  0  0  0  0
 44 41  1  0  0  0  0
 45 44  1  0  0  0  0
 46 45  1  0  0  0  0
 47 46  1  0  0  0  0
 49 48  1  0  0  0  0
 50 51  1  0  0  0  0
 50 49  1  0  0  0  0
 52 50  1  0  0  0  0
 53 52  1  0  0  0  0
 54 53  1  0  0  0  0
 55 54  1  0  0  0  0
 56 59  1  0  0  0  0
 56 55  1  0  0  0  0
 57 59  1  0  0  0  0
 57 58  1  0  0  0  0
 59 58  1  0  0  0  0
 60 59  1  0  0  0  0
 62 63  1  0  0  0  0
 62 61  1  0  0  0  0
 63 61  1  0  0  0  0
 63 60  1  0  0  0  0
M  END
>  <MODEL>
2

>  <REMARK>
 VINA RESULT:       4.5      0.832      1.423
  Name = 
  18 active torsions:
  status: ('A' for Active; 'I' for Inactive)
    1  A    between atoms: C_3  and  C_20
    2  A    between atoms: S_4  and  N_14
    3  A    between atoms: S_4  and  N_55
    4  A    between atoms: C_12  and  C_48
    5  A    between atoms: N_14  and  C_20
    6  A    between atoms: N_15  and  C_22
    7  A    between atoms: C_17  and  C_44
    8  A    between atoms: C_17  and  N_61
    9  A    between atoms: C_23  and  C_59
   10  A    between atoms: C_24  and  C_27
   11  A    between atoms: O_35  and  C_44
   12  A    between atoms: O_35  and  C_48
   13  A    between atoms: O_39  and  C_56
   14  A    between atoms: O_39  and  N_61
   15  A    between atoms: C_49  and  C_56
   16  A    between atoms: C_49  and  C_58
   17  A    between atoms: C_58  and  C_62
   18  A    between atoms: C_62  and  C_63
                            x       y       z     vdW  Elec       q    Type
                         _______ _______ _______ _____ _____    ______ ____

>  <TORSDO>
F 18

$$$$
=
 OpenBabel11052411583D

 63 69  0  0  1  0  0  0  0  0999 V2000
  161.6270  209.1940  148.5200 C   0  0  0  0  0  1  0  0  0  0  0  0
  159.7260  212.4360  152.5630 O   0  0  0  0  0  0  0  0  0  0  0  0
  158.7060  214.4470  152.9810 O   0  0  0  0  0  1  0  0  0  0  0  0
  160.1130  211.9870  153.8350 C   0  0  1  0  0  3  0  0  0  0  0  0
  163.4960  213.0700  148.0790 O   0  0  0  0  0  1  0  0  0  0  0  0
  161.6670  208.6540  155.1960 C   0  0  0  0  0  2  0  0  0  0  0  0
  160.8030  207.8460  154.2490 C   0  0  1  0  0  3  0  0  0  0  0  0
  161.1870  210.0930  155.2140 C   0  0  2  0  0  3  0  0  0  0  0  0
  159.1910  211.4430  156.0990 N   0  0  0  0  0  0  0  0  0  0  0  0
  161.4310  212.4390  149.0390 C   0  0  0  0  0  2  0  0  0  0  0  0
  160.9930  210.0760  151.3560 C   0  0  0  0  0  2  0  0  0  0  0  0
  158.9360  211.8330  154.7480 C   0  0  2  0  0  3  0  0  0  0  0  0
  160.4460  209.5910  152.7250 C   0  0  2  0  0  0  0  0  0  0  0  0
  159.3840  213.9010  150.2390 O   0  0  0  0  0  0  0  0  0  0  0  0
  160.0910  210.3290  156.2410 C   0  0  0  0  0  0  0  0  0  0  0  0
  159.8930  213.8290  152.5810 C   0  0  2  0  0  3  0  0  0  0  0  0
  160.0200  209.5870  157.2600 O   0  0  0  0  0  0  0  0  0  0  0  0
  162.7330  209.6440  149.4770 C   0  0  2  0  0  3  0  0  0  0  0  0
  162.3710  209.4970  150.9670 C   0  0  1  0  0  3  0  0  0  0  0  0
  160.2980  214.3270  151.2120 C   0  0  0  0  0  2  0  0  0  0  0  0
  159.8700  214.4530  149.0480 C   0  0  0  0  0  2  0  0  0  0  0  0
  163.4800  209.9990  151.8800 C   0  0  0  0  0  1  0  0  0  0  0  0
  160.8980  210.6470  153.7920 C   0  0  1  0  0  3  0  0  0  0  0  0
  157.7630  211.8120  154.2930 O   0  0  0  0  0  0  0  0  0  0  0  0
  162.6690  211.9740  148.2900 C   0  0  2  0  0  3  0  0  0  0  0  0
  161.0190  208.3090  152.9400 O   0  0  0  0  0  0  0  0  0  0  0  0
  163.4570  210.9580  149.1030 C   0  0  0  0  0  2  0  0  0  0  0  0
  160.6210  213.4260  148.1920 C   0  0  2  0  0  3  0  0  0  0  0  0
  156.5940  213.7170  155.2720 C   0  0  0  0  0  2  0  0  0  0  0  0
  156.5250  212.2440  154.9050 C   0  0  1  0  0  0  0  0  0  0  0  0
  158.3290  211.9220  157.2050 C   0  0  1  0  0  3  0  0  0  0  0  0
  158.1280  213.4500  157.2550 C   0  0  0  0  0  2  0  0  0  0  0  0
  156.9630  211.2110  157.2590 C   0  0  0  0  0  3  0  0  0  0  0  0
  157.9430  214.0690  155.8790 C   0  0  0  0  0  2  0  0  0  0  0  0
  155.6200  212.0690  153.7030 C   0  0  0  0  0  1  0  0  0  0  0  0
  155.9960  211.4200  156.0770 C   0  0  0  0  0  3  0  0  0  0  0  0
  158.8980  209.4480  152.7110 C   0  0  0  0  0  2  0  0  0  0  0  0
  158.1430  210.4720  151.8630 C   0  0  0  0  0  1  0  0  0  0  0  0
  159.6930  212.7190  147.2520 C   0  0  0  0  0  3  0  0  0  0  0  0
  159.7000  213.0120  146.0000 N   0  0  0  0  0  0  0  0  0  0  0  0
  158.6270  212.2440  144.9030 S   0  0  0  0  0  0  0  0  0  0  0  0
  157.9110  213.2810  144.0810 O   0  0  0  0  0  0  0  0  0  0  0  0
  157.6240  211.4340  145.6730 O   0  0  0  0  0  0  0  0  0  0  0  0
  159.5650  211.2470  143.8280 N   0  0  0  0  0  2  0  0  0  0  0  0
  159.7140  211.9210  142.5440 C   0  0  0  0  0  2  0  0  0  0  0  0
  161.1850  211.9970  142.1630 C   0  0  0  0  0  2  0  0  0  0  0  0
  161.3750  212.9940  141.2070 O   0  0  0  0  0  1  0  0  0  0  0  0
  161.2440  206.3940  154.3220 C   0  0  0  0  0  2  0  0  0  0  0  0
  160.4440  205.5900  153.5020 O   0  0  0  0  0  0  0  0  0  0  0  0
  161.3000  205.0690  152.5240 C   0  0  2  0  0  3  0  0  0  0  0  0
  162.7140  205.5460  152.8070 C   0  0  0  0  0  1  0  0  0  0  0  0
  160.8520  205.5230  151.1380 C   0  0  0  0  0  2  0  0  0  0  0  0
  160.3880  204.3780  150.3610 N   0  0  0  0  0  2  0  0  0  0  0  0
  161.3750  203.4520  150.3910 O   0  0  0  0  0  0  0  0  0  0  0  0
  160.7280  202.2360  150.1420 C   0  0  0  0  0  2  0  0  0  0  0  0
  160.1180  202.2320  148.7460 C   0  0  0  0  0  2  0  0  0  0  0  0
  160.6670  200.3930  147.2950 O   0  0  0  0  0  0  0  0  0  0  0  0
  161.9010  200.4820  147.9730 C   0  0  0  0  0  2  0  0  0  0  0  0
  161.0710  201.6790  147.6870 C   0  0  2  0  0  0  0  0  0  0  0  0
  161.4220  202.5140  146.4650 C   0  0  0  0  0  2  0  0  0  0  0  0
  162.2290  204.7910  146.0380 C   0  0  0  0  0  2  0  0  0  0  0  0
  162.3240  204.5150  147.4150 O   0  0  0  0  0  0  0  0  0  0  0  0
  161.2030  203.9940  146.7360 C   0  0  2  0  0  3  0  0  0  0  0  0
  2 16  1  0  0  0  0
  4  2  1  6  0  0  0
  4 12  1  0  0  0  0
  5 25  1  0  0  0  0
  7 48  1  6  0  0  0
  7  6  1  0  0  0  0
  8  6  1  6  0  0  0
  8 15  1  0  0  0  0
  9 15  1  0  0  0  0
  9 31  1  0  0  0  0
 11 13  1  0  0  0  0
 12 24  1  6  0  0  0
 12  9  1  0  0  0  0
 13 37  1  6  0  0  0
 13 26  1  0  0  0  0
 13 23  1  0  0  0  0
 14 20  1  0  0  0  0
 15 17  2  0  0  0  0
 16  3  1  6  0  0  0
 18  1  1  6  0  0  0
 18 19  1  0  0  0  0
 19 11  1  0  0  0  0
 19 22  1  1  0  0  0
 20 16  1  0  0  0  0
 21 14  1  0  0  0  0
 23  4  1  0  0  0  0
 23  8  1  0  0  0  0
 24 30  1  0  0  0  0
 25 10  1  0  0  0  0
 25 27  1  0  0  0  0
 26  7  1  0  0  0  0
 27 18  1  0  0  0  0
 28 10  1  0  0  0  0
 28 21  1  0  0  0  0
 29 34  1  0  0  0  0
 30 29  1  0  0  0  0
 30 36  1  0  0  0  0
 31 32  1  0  0  0  0
 31 33  1  0  0  0  0
 34 32  1  0  0  0  0
 35 30  1  0  0  0  0
 36 33  2  0  0  0  0
 38 37  1  0  0  0  0
 39 28  1  0  0  0  0
 40 39  2  0  0  0  0
 41 43  2  0  0  0  0
 41 40  1  0  0  0  0
 42 41  2  0  0  0  0
 44 41  1  0  0  0  0
 45 44  1  0  0  0  0
 46 45  1  0  0  0  0
 47 46  1  0  0  0  0
 49 48  1  0  0  0  0
 50 51  1  0  0  0  0
 50 49  1  0  0  0  0
 52 50  1  0  0  0  0
 53 54  1  0  0  0  0
 53 52  1  0  0  0  0
 55 54  1  0  0  0  0
 56 55  1  0  0  0  0
 57 59  1  0  0  0  0
 57 58  1  0  0  0  0
 59 58  1  0  0  0  0
 59 56  1  0  0  0  0
 60 63  1  0  0  0  0
 60 59  1  0  0  0  0
 61 63  1  0  0  0  0
 61 62  1  0  0  0  0
 63 62  1  0  0  0  0
M  END
>  <MODEL>
3

>  <REMARK>
 VINA RESULT:       4.8      3.160      9.835
  Name = 
  18 active torsions:
  status: ('A' for Active; 'I' for Inactive)
    1  A    between atoms: C_3  and  C_20
    2  A    between atoms: S_4  and  N_14
    3  A    between atoms: S_4  and  N_55
    4  A    between atoms: C_12  and  C_48
    5  A    between atoms: N_14  and  C_20
    6  A    between atoms: N_15  and  C_22
    7  A    between atoms: C_17  and  C_44
    8  A    between atoms: C_17  and  N_61
    9  A    between atoms: C_23  and  C_59
   10  A    between atoms: C_24  and  C_27
   11  A    between atoms: O_35  and  C_44
   12  A    between atoms: O_35  and  C_48
   13  A    between atoms: O_39  and  C_56
   14  A    between atoms: O_39  and  N_61
   15  A    between atoms: C_49  and  C_56
   16  A    between atoms: C_49  and  C_58
   17  A    between atoms: C_58  and  C_62
   18  A    between atoms: C_62  and  C_63
                            x       y       z     vdW  Elec       q    Type
                         _______ _______ _______ _____ _____    ______ ____

>  <TORSDO>
F 18

$$$$
=
 OpenBabel11052411583D

 63 68  0  0  1  0  0  0  0  0999 V2000
  160.6690  210.8270  150.1230 C   0  0  0  0  0  1  0  0  0  0  0  0
  161.1160  205.5360  151.6320 O   0  0  0  0  0  0  0  0  0  0  0  0
  160.9240  204.1110  153.4190 O   0  0  0  0  0  1  0  0  0  0  0  0
  161.7050  204.7430  150.6340 C   0  0  1  0  0  3  0  0  0  0  0  0
  163.4080  210.6450  153.4660 O   0  0  0  0  0  1  0  0  0  0  0  0
  162.5030  205.2880  146.8340 C   0  0  0  0  0  2  0  0  0  0  0  0
  161.1970  206.0320  146.6510 C   0  0  1  0  0  3  0  0  0  0  0  0
  162.5090  204.6070  148.1900 C   0  0  2  0  0  3  0  0  0  0  0  0
  161.3690  202.6200  149.3490 N   0  0  0  0  0  0  0  0  0  0  0  0
  161.6280  209.2260  152.8350 C   0  0  0  0  0  2  0  0  0  0  0  0
  161.1950  207.8500  149.8250 C   0  0  0  0  0  2  0  0  0  0  0  0
  160.8600  203.5520  150.3060 C   0  0  0  0  0  0  0  0  0  0  0  0
  160.9540  206.6230  148.9060 C   0  0  2  0  0  0  0  0  0  0  0  0
  160.5680  206.9110  153.9710 O   0  0  0  0  0  0  0  0  0  0  0  0
  161.8890  203.2190  148.1480 C   0  0  0  0  0  0  0  0  0  0  0  0
  161.6960  205.1220  152.8420 C   0  0  2  0  0  3  0  0  0  0  0  0
  161.8990  202.5620  147.0700 O   0  0  0  0  0  0  0  0  0  0  0  0
  162.0890  210.2850  149.9440 C   0  0  2  0  0  3  0  0  0  0  0  0
  162.1530  208.9140  149.2460 C   0  0  1  0  0  3  0  0  0  0  0  0
  161.8110  206.2910  153.7940 C   0  0  0  0  0  2  0  0  0  0  0  0
  160.8260  207.9400  154.8840 C   0  0  0  0  0  2  0  0  0  0  0  0
  163.5800  208.3950  149.1310 C   0  0  0  0  0  1  0  0  0  0  0  0
  161.9970  205.5310  149.3280 C   0  0  1  0  0  3  0  0  0  0  0  0
  159.6560  203.4930  150.6690 O   0  0  0  0  0  0  0  0  0  0  0  0
  162.3890  210.5060  152.5330 C   0  0  2  0  0  3  0  0  0  0  0  0
  161.1480  207.0870  147.5780 O   0  0  0  0  0  0  0  0  0  0  0  0
  163.0340  210.4520  151.1560 C   0  0  0  0  0  2  0  0  0  0  0  0
  160.9440  209.3100  154.2040 C   0  0  2  0  0  3  0  0  0  0  0  0
  158.7530  201.3660  147.3040 C   0  0  0  0  0  2  0  0  0  0  0  0
  160.1050  201.7620  146.7340 C   0  0  2  0  0  3  0  0  0  0  0  0
  161.0580  201.1750  149.4530 C   0  0  1  0  0  3  0  0  0  0  0  0
  159.5630  200.8450  149.6350 C   0  0  0  0  0  2  0  0  0  0  0  0
  161.6420  200.3460  148.2930 C   0  0  0  0  0  3  0  0  0  0  0  0
  158.6560  201.7170  148.7800 C   0  0  0  0  0  2  0  0  0  0  0  0
  159.9450  202.1300  145.2740 C   0  0  0  0  0  1  0  0  0  0  0  0
  161.1060  200.6180  146.8740 C   0  0  0  0  0  3  0  0  0  0  0  0
  159.5030  206.0790  149.0360 C   0  0  0  0  0  2  0  0  0  0  0  0
  158.6410  206.1790  147.7780 C   0  0  0  0  0  1  0  0  0  0  0  0
  159.6110  209.9900  154.1180 C   0  0  0  0  0  3  0  0  0  0  0  0
  159.4960  211.2220  154.4670 N   0  0  0  0  0  0  0  0  0  0  0  0
  157.9780  212.0210  154.4100 S   0  0  0  0  0  0  0  0  0  0  0  0
  157.5680  212.2310  152.9770 O   0  0  0  0  0  0  0  0  0  0  0  0
  158.0890  213.3500  155.0990 O   0  0  0  0  0  0  0  0  0  0  0  0
  156.7920  211.0000  155.1730 N   0  0  0  0  0  2  0  0  0  0  0  0
  156.1210  211.7420  156.2330 C   0  0  0  0  0  2  0  0  0  0  0  0
  154.9910  210.9070  156.8170 C   0  0  0  0  0  2  0  0  0  0  0  0
  154.5370  209.9940  155.8670 O   0  0  0  0  0  1  0  0  0  0  0  0
  161.1770  206.6250  145.2510 C   0  0  0  0  0  2  0  0  0  0  0  0
  160.5370  205.7610  144.3550 O   0  0  0  0  0  0  0  0  0  0  0  0
  161.4930  205.4430  143.3810 C   0  0  2  0  0  3  0  0  0  0  0  0
  162.8750  205.5390  144.0020 C   0  0  0  0  0  1  0  0  0  0  0  0
  161.3730  206.3980  142.1970 C   0  0  0  0  0  2  0  0  0  0  0  0
  162.4350  206.1350  141.2310 N   0  0  0  0  0  2  0  0  0  0  0  0
  161.9820  206.5440  140.0230 O   0  0  0  0  0  0  0  0  0  0  0  0
  162.0780  207.9410  140.0630 C   0  0  0  0  0  2  0  0  0  0  0  0
  161.3200  208.5610  138.8950 C   0  0  0  0  0  2  0  0  0  0  0  0
  159.9570  210.3800  139.6820 O   0  0  0  0  0  0  0  0  0  0  0  0
  160.0600  210.7820  138.3340 C   0  0  0  0  0  2  0  0  0  0  0  0
  161.1620  210.0740  139.0320 C   0  0  2  0  0  0  0  0  0  0  0  0
  162.2950  210.9110  139.6060 C   0  0  0  0  0  2  0  0  0  0  0  0
  163.9590  212.5480  138.8520 C   0  0  0  0  0  2  0  0  0  0  0  0
  162.9260  212.4630  137.8990 O   0  0  0  0  0  0  0  0  0  0  0  0
  163.3120  211.2620  138.5320 C   0  0  2  0  0  3  0  0  0  0  0  0
  2 16  1  0  0  0  0
  4 12  1  6  0  0  0
  4  2  1  0  0  0  0
  7 48  1  6  0  0  0
  7  6  1  0  0  0  0
  7 26  1  0  0  0  0
  8  6  1  6  0  0  0
  8 23  1  0  0  0  0
  9 31  1  0  0  0  0
  9 12  1  0  0  0  0
 10 28  1  0  0  0  0
 12 24  2  0  0  0  0
 13 37  1  1  0  0  0
 13 23  1  0  0  0  0
 13 11  1  0  0  0  0
 14 21  1  0  0  0  0
 15  8  1  0  0  0  0
 15  9  1  0  0  0  0
 16  3  1  1  0  0  0
 16 20  1  0  0  0  0
 17 15  2  0  0  0  0
 18  1  1  1  0  0  0
 18 27  1  0  0  0  0
 19 22  1  1  0  0  0
 19 11  1  0  0  0  0
 19 18  1  0  0  0  0
 20 14  1  0  0  0  0
 23  4  1  0  0  0  0
 25 10  1  0  0  0  0
 25  5  1  0  0  0  0
 26 13  1  0  0  0  0
 27 25  1  0  0  0  0
 28 21  1  0  0  0  0
 29 34  1  0  0  0  0
 30 36  1  0  0  0  0
 30 29  1  0  0  0  0
 31 32  1  0  0  0  0
 33 31  1  0  0  0  0
 34 32  1  0  0  0  0
 35 30  1  0  0  0  0
 36 33  2  0  0  0  0
 38 37  1  0  0  0  0
 39 28  1  0  0  0  0
 39 40  2  0  0  0  0
 41 40  1  0  0  0  0
 41 43  2  0  0  0  0
 41 44  1  0  0  0  0
 42 41  2  0  0  0  0
 44 45  1  0  0  0  0
 45 46  1  0  0  0  0
 47 46  1  0  0  0  0
 49 48  1  0  0  0  0
 50 51  1  0  0  0  0
 50 49  1  0  0  0  0
 52 50  1  0  0  0  0
 53 52  1  0  0  0  0
 54 55  1  0  0  0  0
 54 53  1  0  0  0  0
 56 59  1  0  0  0  0
 56 55  1  0  0  0  0
 58 59  1  0  0  0  0
 58 57  1  0  0  0  0
 59 60  1  0  0  0  0
 59 57  1  0  0  0  0
 62 63  1  0  0  0  0
 62 61  1  0  0  0  0
 63 61  1  0  0  0  0
 63 60  1  0  0  0  0
M  END
>  <MODEL>
4

>  <REMARK>
 VINA RESULT:       4.9      1.144      1.618
  Name = 
  18 active torsions:
  status: ('A' for Active; 'I' for Inactive)
    1  A    between atoms: C_3  and  C_20
    2  A    between atoms: S_4  and  N_14
    3  A    between atoms: S_4  and  N_55
    4  A    between atoms: C_12  and  C_48
    5  A    between atoms: N_14  and  C_20
    6  A    between atoms: N_15  and  C_22
    7  A    between atoms: C_17  and  C_44
    8  A    between atoms: C_17  and  N_61
    9  A    between atoms: C_23  and  C_59
   10  A    between atoms: C_24  and  C_27
   11  A    between atoms: O_35  and  C_44
   12  A    between atoms: O_35  and  C_48
   13  A    between atoms: O_39  and  C_56
   14  A    between atoms: O_39  and  N_61
   15  A    between atoms: C_49  and  C_56
   16  A    between atoms: C_49  and  C_58
   17  A    between atoms: C_58  and  C_62
   18  A    between atoms: C_62  and  C_63
                            x       y       z     vdW  Elec       q    Type
                         _______ _______ _______ _____ _____    ______ ____

>  <TORSDO>
F 18

$$$$
=
 OpenBabel11052411583D

 63 68  0  0  1  0  0  0  0  0999 V2000
  161.0700  210.9100  148.7930 C   0  0  0  0  0  1  0  0  0  0  0  0
  160.8950  205.5990  150.2880 O   0  0  0  0  0  0  0  0  0  0  0  0
  160.5030  204.2000  152.0620 O   0  0  0  0  0  1  0  0  0  0  0  0
  161.4180  204.7480  149.3010 C   0  0  1  0  0  3  0  0  0  0  0  0
  163.6890  210.4210  152.2010 O   0  0  0  0  0  1  0  0  0  0  0  0
  162.3660  205.2090  145.5240 C   0  0  0  0  0  2  0  0  0  0  0  0
  161.1550  206.0930  145.3120 C   0  0  1  0  0  3  0  0  0  0  0  0
  162.2640  204.5290  146.8760 C   0  0  2  0  0  3  0  0  0  0  0  0
  160.8830  202.6770  147.9980 N   0  0  0  0  0  0  0  0  0  0  0  0
  161.7790  209.2080  151.5200 C   0  0  0  0  0  2  0  0  0  0  0  0
  161.2730  207.8940  148.4940 C   0  0  0  0  0  2  0  0  0  0  0  0
  160.4550  203.6580  148.9460 C   0  0  0  0  0  0  0  0  0  0  0  0
  160.9220  206.7020  147.5630 C   0  0  2  0  0  0  0  0  0  0  0  0
  160.4430  207.0210  152.6180 O   0  0  0  0  0  0  0  0  0  0  0  0
  161.4960  203.2180  146.8130 C   0  0  0  0  0  0  0  0  0  0  0  0
  161.3950  205.1220  151.5090 C   0  0  2  0  0  3  0  0  0  0  0  0
  161.4600  202.5660  145.7320 O   0  0  0  0  0  0  0  0  0  0  0  0
  162.4260  210.2160  148.6460 C   0  0  2  0  0  3  0  0  0  0  0  0
  162.3570  208.8470  147.9440 C   0  0  1  0  0  3  0  0  0  0  0  0
  161.6150  206.2680  152.4700 C   0  0  0  0  0  2  0  0  0  0  0  0
  160.7900  208.0140  153.5430 C   0  0  0  0  0  2  0  0  0  0  0  0
  163.7200  208.1750  147.8620 C   0  0  0  0  0  1  0  0  0  0  0  0
  161.8280  205.5020  148.0060 C   0  0  1  0  0  3  0  0  0  0  0  0
  159.2440  203.7310  149.2790 O   0  0  0  0  0  0  0  0  0  0  0  0
  162.6840  210.3960  151.2430 C   0  0  2  0  0  3  0  0  0  0  0  0
  161.1990  207.1450  146.2420 O   0  0  0  0  0  0  0  0  0  0  0  0
  163.3530  210.2750  149.8820 C   0  0  0  0  0  2  0  0  0  0  0  0
  161.0740  209.3640  152.8720 C   0  0  2  0  0  3  0  0  0  0  0  0
  162.7420  200.4650  150.0590 C   0  0  0  0  0  2  0  0  0  0  0  0
  161.8500  201.5510  150.6380 C   0  0  2  0  0  3  0  0  0  0  0  0
  160.4130  201.2760  148.0880 C   0  0  1  0  0  3  0  0  0  0  0  0
  161.5070  200.2090  147.8760 C   0  0  0  0  0  2  0  0  0  0  0  0
  159.6360  200.9790  149.3850 C   0  0  0  0  0  3  0  0  0  0  0  0
  162.8240  200.5710  148.5450 C   0  0  0  0  0  2  0  0  0  0  0  0
  162.3470  201.9250  152.0190 C   0  0  0  0  0  1  0  0  0  0  0  0
  160.4020  201.0750  150.7190 C   0  0  0  0  0  3  0  0  0  0  0  0
  159.4170  206.3210  147.6550 C   0  0  0  0  0  2  0  0  0  0  0  0
  158.7770  205.8270  146.3580 C   0  0  0  0  0  1  0  0  0  0  0  0
  159.8270  210.1870  152.7570 C   0  0  0  0  0  3  0  0  0  0  0  0
  159.8420  211.4260  153.0990 N   0  0  0  0  0  0  0  0  0  0  0  0
  158.4230  212.3870  153.0070 S   0  0  0  0  0  0  0  0  0  0  0  0
  158.0500  212.6080  151.5660 O   0  0  0  0  0  0  0  0  0  0  0  0
  158.6770  213.7120  153.6670 O   0  0  0  0  0  0  0  0  0  0  0  0
  157.1250  211.5240  153.7810 N   0  0  0  0  0  2  0  0  0  0  0  0
  157.1350  211.8070  155.2110 C   0  0  0  0  0  2  0  0  0  0  0  0
  155.8620  211.2790  155.8550 C   0  0  0  0  0  2  0  0  0  0  0  0
  155.3040  210.2830  155.0550 O   0  0  0  0  0  1  0  0  0  0  0  0
  161.2360  206.6870  143.9150 C   0  0  0  0  0  2  0  0  0  0  0  0
  161.9700  205.8540  143.0640 O   0  0  0  0  0  0  0  0  0  0  0  0
  161.5840  206.2000  141.7630 C   0  0  2  0  0  3  0  0  0  0  0  0
  162.4960  205.4920  140.7770 C   0  0  0  0  0  1  0  0  0  0  0  0
  161.6660  207.7110  141.5750 C   0  0  0  0  0  2  0  0  0  0  0  0
  162.1120  208.0260  140.2210 N   0  0  0  0  0  2  0  0  0  0  0  0
  161.0010  208.1470  139.4560 O   0  0  0  0  0  0  0  0  0  0  0  0
  161.4700  208.6060  138.2190 C   0  0  0  0  0  2  0  0  0  0  0  0
  160.6820  209.8300  137.7700 C   0  0  0  0  0  2  0  0  0  0  0  0
  161.5250  211.9780  137.0920 O   0  0  0  0  0  0  0  0  0  0  0  0
  162.6920  211.5010  137.7250 C   0  0  0  0  0  2  0  0  0  0  0  0
  161.3330  211.1420  138.2030 C   0  0  2  0  0  0  0  0  0  0  0  0
  160.7530  211.9360  139.3630 C   0  0  0  0  0  2  0  0  0  0  0  0
  161.2720  212.2840  141.7350 C   0  0  0  0  0  2  0  0  0  0  0  0
  162.3540  211.6350  141.1130 O   0  0  0  0  0  0  0  0  0  0  0  0
  161.0600  211.2640  140.6910 C   0  0  2  0  0  3  0  0  0  0  0  0
  2 16  1  0  0  0  0
  4 12  1  6  0  0  0
  4  2  1  0  0  0  0
  7 48  1  6  0  0  0
  7  6  1  0  0  0  0
  7 26  1  0  0  0  0
  8  6  1  6  0  0  0
  8 23  1  0  0  0  0
  9 31  1  0  0  0  0
  9 12  1  0  0  0  0
 10 28  1  0  0  0  0
 12 24  2  0  0  0  0
 13 37  1  1  0  0  0
 13 23  1  0  0  0  0
 13 11  1  0  0  0  0
 14 21  1  0  0  0  0
 15  8  1  0  0  0  0
 15  9  1  0  0  0  0
 16  3  1  1  0  0  0
 16 20  1  0  0  0  0
 17 15  2  0  0  0  0
 18  1  1  1  0  0  0
 18 27  1  0  0  0  0
 19 22  1  1  0  0  0
 19 11  1  0  0  0  0
 19 18  1  0  0  0  0
 20 14  1  0  0  0  0
 23  4  1  0  0  0  0
 25 10  1  0  0  0  0
 25  5  1  0  0  0  0
 26 13  1  0  0  0  0
 27 25  1  0  0  0  0
 28 21  1  0  0  0  0
 29 30  1  0  0  0  0
 30 36  1  0  0  0  0
 30 35  1  0  0  0  0
 31 33  1  0  0  0  0
 32 31  1  0  0  0  0
 32 34  1  0  0  0  0
 33 36  2  0  0  0  0
 34 29  1  0  0  0  0
 38 37  1  0  0  0  0
 39 28  1  0  0  0  0
 39 40  2  0  0  0  0
 41 40  1  0  0  0  0
 41 43  2  0  0  0  0
 41 44  1  0  0  0  0
 42 41  2  0  0  0  0
 44 45  1  0  0  0  0
 45 46  1  0  0  0  0
 47 46  1  0  0  0  0
 49 48  1  0  0  0  0
 50 49  1  0  0  0  0
 51 50  1  0  0  0  0
 52 50  1  0  0  0  0
 53 52  1  0  0  0  0
 54 53  1  0  0  0  0
 55 54  1  0  0  0  0
 56 59  1  0  0  0  0
 56 55  1  0  0  0  0
 57 58  1  0  0  0  0
 57 59  1  0  0  0  0
 58 59  1  0  0  0  0
 59 60  1  0  0  0  0
 60 63  1  0  0  0  0
 62 61  1  0  0  0  0
 63 62  1  0  0  0  0
 63 61  1  0  0  0  0
M  END
>  <MODEL>
5

>  <REMARK>
 VINA RESULT:       6.0      1.716      2.717
  Name = 
  18 active torsions:
  status: ('A' for Active; 'I' for Inactive)
    1  A    between atoms: C_3  and  C_20
    2  A    between atoms: S_4  and  N_14
    3  A    between atoms: S_4  and  N_55
    4  A    between atoms: C_12  and  C_48
    5  A    between atoms: N_14  and  C_20
    6  A    between atoms: N_15  and  C_22
    7  A    between atoms: C_17  and  C_44
    8  A    between atoms: C_17  and  N_61
    9  A    between atoms: C_23  and  C_59
   10  A    between atoms: C_24  and  C_27
   11  A    between atoms: O_35  and  C_44
   12  A    between atoms: O_35  and  C_48
   13  A    between atoms: O_39  and  C_56
   14  A    between atoms: O_39  and  N_61
   15  A    between atoms: C_49  and  C_56
   16  A    between atoms: C_49  and  C_58
   17  A    between atoms: C_58  and  C_62
   18  A    between atoms: C_62  and  C_63
                            x       y       z     vdW  Elec       q    Type
                         _______ _______ _______ _____ _____    ______ ____

>  <TORSDO>
F 18

$$$$
