=
 OpenBabel11042420503D

 41 43  0  0  1  0  0  0  0  0999 V2000
  160.7870  209.2960  152.0210 C   0  0  1  0  0  3  0  0  0  0  0  0
  161.2300  208.0630  154.5610 C   0  0  0  0  0  0  0  0  0  0  0  0
  161.5430  207.5640  155.6750 O   0  0  0  0  0  0  0  0  0  0  0  0
  160.8920  207.7980  152.1860 C   0  0  0  0  0  3  0  0  0  0  0  0
  160.6520  210.0410  153.3390 C   0  0  0  0  0  0  0  0  0  0  0  0
  161.1480  207.2230  153.3590 C   0  0  0  0  0  0  0  0  0  0  0  0
  160.9030  209.4530  154.4720 N   0  0  0  0  0  0  0  0  0  0  0  0
  160.2760  211.3880  153.3630 O   0  0  0  0  0  0  0  0  0  0  0  0
  159.3210  211.9340  152.4640 C   0  0  0  0  0  1  0  0  0  0  0  0
  161.9990  209.8200  151.2660 C   0  0  0  0  0  2  0  0  0  0  0  0
  161.9730  209.3530  149.8220 C   0  0  0  0  0  2  0  0  0  0  0  0
  162.4710  210.4100  148.9620 N   0  0  0  0  0  2  0  0  0  0  0  0
  161.8640  211.5960  149.3930 N   0  0  0  0  0  2  0  0  0  0  0  0
  160.1390  214.3220  147.8250 N   0  0  0  0  0  0  0  0  0  0  0  0
  160.3610  213.7370  146.6270 C   0  0  0  0  0  0  0  0  0  0  0  0
  159.8950  214.3140  145.4000 N   0  0  0  0  0  2  0  0  0  0  0  0
  160.6340  213.6310  148.8490 N   0  0  0  0  0  0  0  0  0  0  0  0
  161.1930  212.2740  146.7970 S   0  0  0  0  0  0  0  0  0  0  0  0
  161.2420  212.4870  148.4690 C   0  0  0  0  0  0  0  0  0  0  0  0
  159.2620  213.5830  143.2360 C   0  0  0  0  0  3  0  0  0  0  0  0
  158.2260  213.3450  140.9370 C   0  0  0  0  0  1  0  0  0  0  0  0
  161.6960  212.1390  142.0450 C   0  0  0  0  0  3  0  0  0  0  0  0
  162.2200  212.8240  143.0610 C   0  0  0  0  0  3  0  0  0  0  0  0
  160.2500  213.9350  144.0640 C   0  0  0  0  0  0  0  0  0  0  0  0
  159.4040  213.1630  141.8260 C   0  0  0  0  0  0  0  0  0  0  0  0
  160.4520  212.4920  141.3310 C   0  0  0  0  0  3  0  0  0  0  0  0
  161.6470  214.1100  143.5540 C   0  0  0  0  0  2  0  0  0  0  0  0
  161.2490  205.7370  153.4490 C   0  0  0  0  0  2  0  0  0  0  0  0
  161.2930  205.1350  152.0540 C   0  0  0  0  0  2  0  0  0  0  0  0
  161.3290  203.6220  152.1360 C   0  0  1  0  0  3  0  0  0  0  0  0
  160.1570  203.1550  152.7370 O   0  0  0  0  0  1  0  0  0  0  0  0
  161.4540  203.0520  150.7360 C   0  0  0  0  0  2  0  0  0  0  0  0
  160.8820  204.0240  149.7170 C   0  0  0  0  0  2  0  0  0  0  0  0
  161.3460  203.6540  148.3150 C   0  0  0  0  0  2  0  0  0  0  0  0
  161.0940  207.1580  147.3180 O   0  0  0  0  0  0  0  0  0  0  0  0
  161.0490  206.1090  148.0140 C   0  0  0  0  0  3  0  0  0  0  0  0
  161.4090  204.8330  147.4620 N   0  0  0  0  0  0  0  0  0  0  0  0
  163.4240  204.6430  146.0730 C   0  0  0  0  0  1  0  0  0  0  0  0
  161.9070  204.6680  146.0950 C   0  0  1  0  0  3  0  0  0  0  0  0
  160.1970  203.7690  144.5180 C   0  0  0  0  0  1  0  0  0  0  0  0
  161.3460  203.4130  145.4420 C   0  0  0  0  0  2  0  0  0  0  0  0
  1 10  1  1  0  0  0
  1  4  1  0  0  0  0
  1  5  1  0  0  0  0
  2  3  2  0  0  0  0
  4  6  2  0  0  0  0
  5  8  1  0  0  0  0
  5  7  2  0  0  0  0
  6 28  1  0  0  0  0
  6  2  1  0  0  0  0
  7  2  1  0  0  0  0
  9  8  1  0  0  0  0
 11 10  1  0  0  0  0
 12 13  1  0  0  0  0
 12 11  1  0  0  0  0
 14 17  1  0  0  0  0
 15 18  1  0  0  0  0
 15 14  2  0  0  0  0
 16 15  1  0  0  0  0
 18 19  1  0  0  0  0
 19 17  2  0  0  0  0
 19 13  1  0  0  0  0
 20 24  2  0  0  0  0
 21 25  1  0  0  0  0
 22 23  2  0  0  0  0
 23 27  1  0  0  0  0
 24 16  1  0  0  0  0
 25 20  1  0  0  0  0
 26 25  2  0  0  0  0
 26 22  1  0  0  0  0
 27 24  1  0  0  0  0
 29 30  1  0  0  0  0
 29 28  1  0  0  0  0
 30 31  1  6  0  0  0
 32 30  1  0  0  0  0
 33 32  1  0  0  0  0
 34 33  1  0  0  0  0
 35 36  2  0  0  0  0
 37 36  1  0  0  0  0
 37 34  1  0  0  0  0
 39 38  1  1  0  0  0
 39 37  1  0  0  0  0
 40 41  1  0  0  0  0
 41 39  1  0  0  0  0
M  END
>  <MODEL>
1

>  <REMARK>
 VINA RESULT:      -7.4      0.000      0.000
  Name = 
  15 active torsions:
  status: ('A' for Active; 'I' for Inactive)
    1  A    between atoms: C_1  and  C_13
    2  A    between atoms: O_3  and  C_18
    3  A    between atoms: N_4  and  N_19
    4  A    between atoms: C_7  and  C_13
    5  A    between atoms: C_7  and  N_19
    6  A    between atoms: C_15  and  C_20
    7  A    between atoms: C_15  and  C_26
    8  A    between atoms: C_17  and  C_25
    9  A    between atoms: C_17  and  N_39
   10  A    between atoms: C_20  and  C_34
   11  A    between atoms: N_21  and  C_27
   12  A    between atoms: C_25  and  C_37
   13  A    between atoms: C_26  and  C_37
   14  A    between atoms: C_35  and  C_36
   15  A    between atoms: C_35  and  N_39
                            x       y       z     vdW  Elec       q    Type
                         _______ _______ _______ _____ _____    ______ ____

>  <TORSDO>
F 15

$$$$
=
 OpenBabel11042420503D

 41 43  0  0  1  0  0  0  0  0999 V2000
  160.1190  214.1980  148.6460 C   0  0  1  0  0  3  0  0  0  0  0  0
  157.8350  213.6960  147.0030 C   0  0  0  0  0  0  0  0  0  0  0  0
  156.8390  213.3530  146.3110 O   0  0  0  0  0  0  0  0  0  0  0  0
  160.1790  214.2550  147.1390 C   0  0  0  0  0  3  0  0  0  0  0  0
  158.7010  214.1380  149.1920 C   0  0  0  0  0  0  0  0  0  0  0  0
  159.1300  213.9730  146.3690 C   0  0  0  0  0  0  0  0  0  0  0  0
  157.6940  213.8650  148.4160 N   0  0  0  0  0  0  0  0  0  0  0  0
  158.4500  214.3520  150.5520 O   0  0  0  0  0  0  0  0  0  0  0  0
  157.5500  213.5470  151.3010 C   0  0  0  0  0  1  0  0  0  0  0  0
  160.9060  212.9990  149.1520 C   0  0  0  0  0  2  0  0  0  0  0  0
  161.4330  212.1760  147.9900 C   0  0  0  0  0  2  0  0  0  0  0  0
  162.3960  211.2080  148.4790 N   0  0  0  0  0  2  0  0  0  0  0  0
  162.1440  211.0490  149.8470 N   0  0  0  0  0  2  0  0  0  0  0  0
  161.4270  208.2940  152.0300 N   0  0  0  0  0  0  0  0  0  0  0  0
  161.4610  207.4720  150.9570 C   0  0  0  0  0  0  0  0  0  0  0  0
  161.2500  206.0590  151.0750 N   0  0  0  0  0  2  0  0  0  0  0  0
  161.6600  209.5690  151.7240 N   0  0  0  0  0  0  0  0  0  0  0  0
  161.8150  208.3210  149.5370 S   0  0  0  0  0  0  0  0  0  0  0  0
  161.8910  209.7620  150.4080 C   0  0  0  0  0  0  0  0  0  0  0  0
  161.0820  203.8170  150.3260 C   0  0  0  0  0  3  0  0  0  0  0  0
  160.4370  201.3920  149.9800 C   0  0  0  0  0  1  0  0  0  0  0  0
  161.7530  203.8350  147.3290 C   0  0  0  0  0  3  0  0  0  0  0  0
  161.5050  205.1180  147.5900 C   0  0  0  0  0  3  0  0  0  0  0  0
  161.0310  205.1150  150.0180 C   0  0  0  0  0  0  0  0  0  0  0  0
  160.8840  202.6840  149.3960 C   0  0  0  0  0  0  0  0  0  0  0  0
  161.2260  202.6920  148.1010 C   0  0  0  0  0  3  0  0  0  0  0  0
  160.5710  205.5620  148.6650 C   0  0  0  0  0  2  0  0  0  0  0  0
  159.2630  214.0380  144.8840 C   0  0  0  0  0  2  0  0  0  0  0  0
  160.2750  213.0090  144.4080 C   0  0  0  0  0  2  0  0  0  0  0  0
  159.7470  212.2760  143.1920 C   0  0  1  0  0  3  0  0  0  0  0  0
  158.8980  213.1160  142.4670 O   0  0  0  0  0  1  0  0  0  0  0  0
  160.9160  211.8500  142.3230 C   0  0  0  0  0  2  0  0  0  0  0  0
  160.5030  211.8130  140.8610 C   0  0  0  0  0  2  0  0  0  0  0  0
  161.3290  210.7830  140.1050 C   0  0  0  0  0  2  0  0  0  0  0  0
  158.3600  209.5330  138.3830 O   0  0  0  0  0  0  0  0  0  0  0  0
  159.1400  210.2870  139.0230 C   0  0  0  0  0  3  0  0  0  0  0  0
  160.4680  209.8650  139.3710 N   0  0  0  0  0  0  0  0  0  0  0  0
  161.6310  208.6660  137.5710 C   0  0  0  0  0  1  0  0  0  0  0  0
  161.0260  208.5750  138.9600 C   0  0  1  0  0  3  0  0  0  0  0  0
  162.2620  206.5750  139.7940 C   0  0  0  0  0  1  0  0  0  0  0  0
  162.0610  208.0700  139.9560 C   0  0  0  0  0  2  0  0  0  0  0  0
  1 10  1  6  0  0  0
  1  5  1  0  0  0  0
  2  7  1  0  0  0  0
  3  2  2  0  0  0  0
  4  1  1  0  0  0  0
  5  8  1  0  0  0  0
  6  2  1  0  0  0  0
  6  4  2  0  0  0  0
  7  5  2  0  0  0  0
  8  9  1  0  0  0  0
 11 12  1  0  0  0  0
 11 10  1  0  0  0  0
 12 13  1  0  0  0  0
 13 19  1  0  0  0  0
 15 16  1  0  0  0  0
 15 14  2  0  0  0  0
 17 14  1  0  0  0  0
 18 19  1  0  0  0  0
 18 15  1  0  0  0  0
 19 17  2  0  0  0  0
 22 23  2  0  0  0  0
 22 26  1  0  0  0  0
 23 27  1  0  0  0  0
 24 20  2  0  0  0  0
 24 16  1  0  0  0  0
 25 21  1  0  0  0  0
 25 20  1  0  0  0  0
 26 25  2  0  0  0  0
 27 24  1  0  0  0  0
 28  6  1  0  0  0  0
 29 28  1  0  0  0  0
 30 31  1  6  0  0  0
 30 29  1  0  0  0  0
 32 30  1  0  0  0  0
 33 32  1  0  0  0  0
 34 33  1  0  0  0  0
 35 36  2  0  0  0  0
 36 37  1  0  0  0  0
 37 34  1  0  0  0  0
 39 38  1  6  0  0  0
 39 37  1  0  0  0  0
 39 41  1  0  0  0  0
 40 41  1  0  0  0  0
M  END
>  <MODEL>
2

>  <REMARK>
 VINA RESULT:      -6.9      3.590      9.285
  Name = 
  15 active torsions:
  status: ('A' for Active; 'I' for Inactive)
    1  A    between atoms: C_1  and  C_13
    2  A    between atoms: O_3  and  C_18
    3  A    between atoms: N_4  and  N_19
    4  A    between atoms: C_7  and  C_13
    5  A    between atoms: C_7  and  N_19
    6  A    between atoms: C_15  and  C_20
    7  A    between atoms: C_15  and  C_26
    8  A    between atoms: C_17  and  C_25
    9  A    between atoms: C_17  and  N_39
   10  A    between atoms: C_20  and  C_34
   11  A    between atoms: N_21  and  C_27
   12  A    between atoms: C_25  and  C_37
   13  A    between atoms: C_26  and  C_37
   14  A    between atoms: C_35  and  C_36
   15  A    between atoms: C_35  and  N_39
                            x       y       z     vdW  Elec       q    Type
                         _______ _______ _______ _____ _____    ______ ____

>  <TORSDO>
F 15

$$$$
=
 OpenBabel11042420503D

 41 43  0  0  1  0  0  0  0  0999 V2000
  161.6300  207.5970  150.5670 C   0  0  1  0  0  3  0  0  0  0  0  0
  161.9870  210.3010  149.7100 C   0  0  0  0  0  0  0  0  0  0  0  0
  162.2670  211.4680  149.3310 O   0  0  0  0  0  0  0  0  0  0  0  0
  161.4230  208.7730  151.4930 C   0  0  0  0  0  3  0  0  0  0  0  0
  161.7560  207.9940  149.1050 C   0  0  0  0  0  0  0  0  0  0  0  0
  161.6370  210.0300  151.1110 C   0  0  0  0  0  0  0  0  0  0  0  0
  161.9590  209.2310  148.7600 N   0  0  0  0  0  0  0  0  0  0  0  0
  161.6810  207.0300  148.0940 O   0  0  0  0  0  0  0  0  0  0  0  0
  160.4510  206.4610  147.6670 C   0  0  0  0  0  1  0  0  0  0  0  0
  162.8670  206.8180  150.9870 C   0  0  0  0  0  2  0  0  0  0  0  0
  162.5190  205.8010  152.0610 C   0  0  0  0  0  2  0  0  0  0  0  0
  161.1050  205.4860  151.9890 N   0  0  0  0  0  2  0  0  0  0  0  0
  160.9880  204.1120  152.2330 N   0  0  0  0  0  2  0  0  0  0  0  0
  160.9460  201.1370  150.2310 N   0  0  0  0  0  0  0  0  0  0  0  0
  161.0490  201.9120  149.1270 C   0  0  0  0  0  0  0  0  0  0  0  0
  161.1070  201.3530  147.8090 N   0  0  0  0  0  2  0  0  0  0  0  0
  160.9210  201.8350  151.3640 N   0  0  0  0  0  0  0  0  0  0  0  0
  161.1380  203.5520  149.5290 S   0  0  0  0  0  0  0  0  0  0  0  0
  161.0150  203.1670  151.1660 C   0  0  0  0  0  0  0  0  0  0  0  0
  161.5530  203.2500  146.4600 C   0  0  0  0  0  3  0  0  0  0  0  0
  162.6470  205.1250  145.1540 C   0  0  0  0  0  1  0  0  0  0  0  0
  159.3410  203.3590  144.3320 C   0  0  0  0  0  3  0  0  0  0  0  0
  159.2500  202.1140  144.7970 C   0  0  0  0  0  3  0  0  0  0  0  0
  160.9860  202.0450  146.5590 C   0  0  0  0  0  0  0  0  0  0  0  0
  161.5500  204.1280  145.2700 C   0  0  0  0  0  0  0  0  0  0  0  0
  160.5550  204.1980  144.3750 C   0  0  0  0  0  3  0  0  0  0  0  0
  160.4170  201.3670  145.3510 C   0  0  0  0  0  2  0  0  0  0  0  0
  161.4240  211.1440  152.0810 C   0  0  0  0  0  2  0  0  0  0  0  0
  159.9880  211.6350  151.9990 C   0  0  0  0  0  2  0  0  0  0  0  0
  159.5460  212.1890  153.3390 C   0  0  1  0  0  3  0  0  0  0  0  0
  158.3350  212.8710  153.1900 O   0  0  0  0  0  1  0  0  0  0  0  0
  159.3750  211.0430  154.3180 C   0  0  0  0  0  2  0  0  0  0  0  0
  159.5990  211.5250  155.7410 C   0  0  0  0  0  2  0  0  0  0  0  0
  159.7260  210.3410  156.6870 C   0  0  0  0  0  2  0  0  0  0  0  0
  163.3610  210.4200  157.0350 O   0  0  0  0  0  0  0  0  0  0  0  0
  162.1580  210.7920  156.9810 C   0  0  0  0  0  3  0  0  0  0  0  0
  161.0990  209.8550  156.7300 N   0  0  0  0  0  0  0  0  0  0  0  0
  160.2240  207.6240  157.2610 C   0  0  0  0  0  1  0  0  0  0  0  0
  161.3260  208.4160  156.5830 C   0  0  1  0  0  3  0  0  0  0  0  0
  160.4620  206.9050  154.7970 C   0  0  0  0  0  1  0  0  0  0  0  0
  161.4450  208.0140  155.1190 C   0  0  0  0  0  2  0  0  0  0  0  0
  1 10  1  1  0  0  0
  1  4  1  0  0  0  0
  2  6  1  0  0  0  0
  3  2  2  0  0  0  0
  5  1  1  0  0  0  0
  6  4  2  0  0  0  0
  6 28  1  0  0  0  0
  7  5  2  0  0  0  0
  7  2  1  0  0  0  0
  8  5  1  0  0  0  0
  9  8  1  0  0  0  0
 10 11  1  0  0  0  0
 12 11  1  0  0  0  0
 12 13  1  0  0  0  0
 14 17  1  0  0  0  0
 15 18  1  0  0  0  0
 15 14  2  0  0  0  0
 16 15  1  0  0  0  0
 18 19  1  0  0  0  0
 19 17  2  0  0  0  0
 19 13  1  0  0  0  0
 20 24  2  0  0  0  0
 21 25  1  0  0  0  0
 22 26  1  0  0  0  0
 22 23  2  0  0  0  0
 23 27  1  0  0  0  0
 24 16  1  0  0  0  0
 25 20  1  0  0  0  0
 26 25  2  0  0  0  0
 27 24  1  0  0  0  0
 29 28  1  0  0  0  0
 29 30  1  0  0  0  0
 30 31  1  6  0  0  0
 30 32  1  0  0  0  0
 32 33  1  0  0  0  0
 33 34  1  0  0  0  0
 34 37  1  0  0  0  0
 36 35  2  0  0  0  0
 37 36  1  0  0  0  0
 39 37  1  0  0  0  0
 39 38  1  6  0  0  0
 40 41  1  0  0  0  0
 41 39  1  0  0  0  0
M  END
>  <MODEL>
3

>  <REMARK>
 VINA RESULT:      -6.8      4.526      9.266
  Name = 
  15 active torsions:
  status: ('A' for Active; 'I' for Inactive)
    1  A    between atoms: C_1  and  C_13
    2  A    between atoms: O_3  and  C_18
    3  A    between atoms: N_4  and  N_19
    4  A    between atoms: C_7  and  C_13
    5  A    between atoms: C_7  and  N_19
    6  A    between atoms: C_15  and  C_20
    7  A    between atoms: C_15  and  C_26
    8  A    between atoms: C_17  and  C_25
    9  A    between atoms: C_17  and  N_39
   10  A    between atoms: C_20  and  C_34
   11  A    between atoms: N_21  and  C_27
   12  A    between atoms: C_25  and  C_37
   13  A    between atoms: C_26  and  C_37
   14  A    between atoms: C_35  and  C_36
   15  A    between atoms: C_35  and  N_39
                            x       y       z     vdW  Elec       q    Type
                         _______ _______ _______ _____ _____    ______ ____

>  <TORSDO>
F 15

$$$$
=
 OpenBabel11042420503D

 41 43  0  0  1  0  0  0  0  0999 V2000
  160.6400  203.9110  150.1640 C   0  0  1  0  0  3  0  0  0  0  0  0
  161.7500  204.7240  147.6590 C   0  0  0  0  0  0  0  0  0  0  0  0
  162.3520  205.0650  146.6070 O   0  0  0  0  0  0  0  0  0  0  0  0
  160.5850  205.3410  149.6810 C   0  0  0  0  0  3  0  0  0  0  0  0
  161.0690  202.9260  149.0890 C   0  0  0  0  0  0  0  0  0  0  0  0
  161.1450  205.7320  148.5390 C   0  0  0  0  0  0  0  0  0  0  0  0
  161.6090  203.3370  147.9790 N   0  0  0  0  0  0  0  0  0  0  0  0
  160.9160  201.5490  149.2790 O   0  0  0  0  0  0  0  0  0  0  0  0
  161.4270  200.5870  148.3670 C   0  0  0  0  0  1  0  0  0  0  0  0
  161.5810  203.8010  151.3540 C   0  0  0  0  0  2  0  0  0  0  0  0
  160.9160  204.3330  152.6120 C   0  0  0  0  0  2  0  0  0  0  0  0
  161.4460  205.6470  152.9210 N   0  0  0  0  0  2  0  0  0  0  0  0
  161.4000  205.7800  154.3140 N   0  0  0  0  0  2  0  0  0  0  0  0
  160.2630  208.2760  156.6250 N   0  0  0  0  0  0  0  0  0  0  0  0
  159.9340  209.0600  155.5730 C   0  0  0  0  0  0  0  0  0  0  0  0
  159.3450  210.3550  155.7460 N   0  0  0  0  0  2  0  0  0  0  0  0
  160.7830  207.1040  156.2660 N   0  0  0  0  0  0  0  0  0  0  0  0
  160.2660  208.2940  154.1030 S   0  0  0  0  0  0  0  0  0  0  0  0
  160.8580  206.9480  154.9280 C   0  0  0  0  0  0  0  0  0  0  0  0
  157.9440  211.9100  154.6320 C   0  0  0  0  0  3  0  0  0  0  0  0
  156.3640  213.8000  154.0460 C   0  0  0  0  0  1  0  0  0  0  0  0
  159.1690  212.3690  151.8540 C   0  0  0  0  0  3  0  0  0  0  0  0
  160.1670  211.8050  152.5330 C   0  0  0  0  0  3  0  0  0  0  0  0
  159.1610  211.3720  154.7510 C   0  0  0  0  0  0  0  0  0  0  0  0
  157.5390  212.9660  153.6800 C   0  0  0  0  0  0  0  0  0  0  0  0
  158.0510  213.1250  152.4530 C   0  0  0  0  0  3  0  0  0  0  0  0
  160.3270  211.9480  154.0090 C   0  0  0  0  0  2  0  0  0  0  0  0
  161.0630  207.1640  148.1270 C   0  0  0  0  0  2  0  0  0  0  0  0
  161.0610  208.0580  149.3550 C   0  0  0  0  0  2  0  0  0  0  0  0
  162.3180  208.9050  149.3910 C   0  0  1  0  0  3  0  0  0  0  0  0
  162.9600  208.8470  148.1510 O   0  0  0  0  0  1  0  0  0  0  0  0
  161.9400  210.3390  149.7100 C   0  0  0  0  0  2  0  0  0  0  0  0
  162.1250  211.2200  148.4850 C   0  0  0  0  0  2  0  0  0  0  0  0
  161.5050  212.5890  148.7200 C   0  0  0  0  0  2  0  0  0  0  0  0
  161.9770  214.0020  145.3860 O   0  0  0  0  0  0  0  0  0  0  0  0
  162.2160  213.4570  146.4950 C   0  0  0  0  0  3  0  0  0  0  0  0
  161.1720  213.2310  147.4550 N   0  0  0  0  0  0  0  0  0  0  0  0
  159.1000  212.4510  146.3940 C   0  0  0  0  0  1  0  0  0  0  0  0
  159.7670  213.5530  147.1950 C   0  0  1  0  0  3  0  0  0  0  0  0
  157.5730  213.3140  148.3570 C   0  0  0  0  0  1  0  0  0  0  0  0
  159.0010  213.8080  148.4860 C   0  0  0  0  0  2  0  0  0  0  0  0
  1 10  1  1  0  0  0
  2  7  1  0  0  0  0
  2  6  1  0  0  0  0
  3  2  2  0  0  0  0
  4  1  1  0  0  0  0
  5  8  1  0  0  0  0
  5  1  1  0  0  0  0
  6  4  2  0  0  0  0
  7  5  2  0  0  0  0
  9  8  1  0  0  0  0
 10 11  1  0  0  0  0
 11 12  1  0  0  0  0
 12 13  1  0  0  0  0
 13 19  1  0  0  0  0
 15 16  1  0  0  0  0
 15 14  2  0  0  0  0
 17 14  1  0  0  0  0
 18 19  1  0  0  0  0
 18 15  1  0  0  0  0
 19 17  2  0  0  0  0
 20 24  2  0  0  0  0
 22 26  1  0  0  0  0
 22 23  2  0  0  0  0
 23 27  1  0  0  0  0
 24 16  1  0  0  0  0
 25 21  1  0  0  0  0
 25 20  1  0  0  0  0
 26 25  2  0  0  0  0
 27 24  1  0  0  0  0
 28  6  1  0  0  0  0
 28 29  1  0  0  0  0
 29 30  1  0  0  0  0
 30 31  1  6  0  0  0
 30 32  1  0  0  0  0
 33 34  1  0  0  0  0
 33 32  1  0  0  0  0
 35 36  2  0  0  0  0
 36 37  1  0  0  0  0
 37 34  1  0  0  0  0
 39 38  1  1  0  0  0
 39 37  1  0  0  0  0
 39 41  1  0  0  0  0
 40 41  1  0  0  0  0
M  END
>  <MODEL>
4

>  <REMARK>
 VINA RESULT:      -6.6      3.268      8.986
  Name = 
  15 active torsions:
  status: ('A' for Active; 'I' for Inactive)
    1  A    between atoms: C_1  and  C_13
    2  A    between atoms: O_3  and  C_18
    3  A    between atoms: N_4  and  N_19
    4  A    between atoms: C_7  and  C_13
    5  A    between atoms: C_7  and  N_19
    6  A    between atoms: C_15  and  C_20
    7  A    between atoms: C_15  and  C_26
    8  A    between atoms: C_17  and  C_25
    9  A    between atoms: C_17  and  N_39
   10  A    between atoms: C_20  and  C_34
   11  A    between atoms: N_21  and  C_27
   12  A    between atoms: C_25  and  C_37
   13  A    between atoms: C_26  and  C_37
   14  A    between atoms: C_35  and  C_36
   15  A    between atoms: C_35  and  N_39
                            x       y       z     vdW  Elec       q    Type
                         _______ _______ _______ _____ _____    ______ ____

>  <TORSDO>
F 15

$$$$
=
 OpenBabel11042420503D

 41 43  0  0  1  0  0  0  0  0999 V2000
  161.7560  204.8420  147.9620 C   0  0  1  0  0  3  0  0  0  0  0  0
  160.6830  202.5120  149.2220 C   0  0  0  0  0  0  0  0  0  0  0  0
  160.0970  201.5280  149.7460 O   0  0  0  0  0  0  0  0  0  0  0  0
  161.7580  204.6600  149.4610 C   0  0  0  0  0  3  0  0  0  0  0  0
  161.4060  203.5740  147.2000 C   0  0  0  0  0  0  0  0  0  0  0  0
  161.2140  203.5990  150.0540 C   0  0  0  0  0  0  0  0  0  0  0  0
  160.8800  202.5500  147.8060 N   0  0  0  0  0  0  0  0  0  0  0  0
  161.6190  203.4880  145.8210 O   0  0  0  0  0  0  0  0  0  0  0  0
  161.0710  204.4220  144.9000 C   0  0  0  0  0  1  0  0  0  0  0  0
  160.7870  205.9480  147.5750 C   0  0  0  0  0  2  0  0  0  0  0  0
  160.8220  207.0720  148.5960 C   0  0  0  0  0  2  0  0  0  0  0  0
  162.0420  207.8390  148.4300 N   0  0  0  0  0  2  0  0  0  0  0  0
  162.0310  208.8270  149.4220 N   0  0  0  0  0  2  0  0  0  0  0  0
  161.5710  212.3830  149.5080 N   0  0  0  0  0  0  0  0  0  0  0  0
  161.4530  212.3720  148.1610 C   0  0  0  0  0  0  0  0  0  0  0  0
  161.2150  213.5690  147.4090 N   0  0  0  0  0  2  0  0  0  0  0  0
  161.7740  211.1750  150.0280 N   0  0  0  0  0  0  0  0  0  0  0  0
  161.5780  210.8030  147.5410 S   0  0  0  0  0  0  0  0  0  0  0  0
  161.8060  210.1980  149.0980 C   0  0  0  0  0  0  0  0  0  0  0  0
  160.1760  213.5850  145.2790 C   0  0  0  0  0  3  0  0  0  0  0  0
  158.6890  214.0530  143.2820 C   0  0  0  0  0  1  0  0  0  0  0  0
  162.3740  212.9850  143.2200 C   0  0  0  0  0  3  0  0  0  0  0  0
  163.0650  213.3230  144.3080 C   0  0  0  0  0  3  0  0  0  0  0  0
  161.2970  213.7400  145.9870 C   0  0  0  0  0  0  0  0  0  0  0  0
  160.0370  213.7180  143.8120 C   0  0  0  0  0  0  0  0  0  0  0  0
  160.9900  213.4070  142.9240 C   0  0  0  0  0  3  0  0  0  0  0  0
  162.5430  214.2630  145.3410 C   0  0  0  0  0  2  0  0  0  0  0  0
  161.2400  203.4880  151.5420 C   0  0  0  0  0  2  0  0  0  0  0  0
  160.5180  204.6730  152.1630 C   0  0  0  0  0  2  0  0  0  0  0  0
  161.4610  205.4530  153.0560 C   0  0  1  0  0  3  0  0  0  0  0  0
  162.6760  205.6550  152.3960 O   0  0  0  0  0  1  0  0  0  0  0  0
  160.8300  206.7900  153.3960 C   0  0  0  0  0  2  0  0  0  0  0  0
  160.9210  207.0540  154.8900 C   0  0  0  0  0  2  0  0  0  0  0  0
  160.2200  208.3580  155.2410 C   0  0  0  0  0  2  0  0  0  0  0  0
  162.8920  209.9350  157.1660 O   0  0  0  0  0  0  0  0  0  0  0  0
  162.0390  209.0950  156.7740 C   0  0  0  0  0  3  0  0  0  0  0  0
  161.1820  209.3700  155.6550 N   0  0  0  0  0  0  0  0  0  0  0  0
  161.9640  210.3300  153.5350 C   0  0  0  0  0  1  0  0  0  0  0  0
  161.2770  210.5970  154.8620 C   0  0  1  0  0  3  0  0  0  0  0  0
  159.4920  211.0650  153.1840 C   0  0  0  0  0  1  0  0  0  0  0  0
  159.9090  211.2240  154.6340 C   0  0  0  0  0  2  0  0  0  0  0  0
  1 10  1  1  0  0  0
  1  4  1  0  0  0  0
  2  3  2  0  0  0  0
  2  6  1  0  0  0  0
  4  6  2  0  0  0  0
  5  7  2  0  0  0  0
  5  1  1  0  0  0  0
  6 28  1  0  0  0  0
  7  2  1  0  0  0  0
  8  5  1  0  0  0  0
  9  8  1  0  0  0  0
 10 11  1  0  0  0  0
 12 11  1  0  0  0  0
 12 13  1  0  0  0  0
 14 17  1  0  0  0  0
 15 14  2  0  0  0  0
 16 15  1  0  0  0  0
 18 15  1  0  0  0  0
 18 19  1  0  0  0  0
 19 13  1  0  0  0  0
 19 17  2  0  0  0  0
 20 24  2  0  0  0  0
 21 25  1  0  0  0  0
 22 23  2  0  0  0  0
 23 27  1  0  0  0  0
 24 16  1  0  0  0  0
 25 20  1  0  0  0  0
 26 22  1  0  0  0  0
 26 25  2  0  0  0  0
 27 24  1  0  0  0  0
 28 29  1  0  0  0  0
 29 30  1  0  0  0  0
 30 31  1  6  0  0  0
 30 32  1  0  0  0  0
 32 33  1  0  0  0  0
 33 34  1  0  0  0  0
 34 37  1  0  0  0  0
 36 35  2  0  0  0  0
 37 36  1  0  0  0  0
 39 38  1  6  0  0  0
 39 37  1  0  0  0  0
 40 41  1  0  0  0  0
 41 39  1  0  0  0  0
M  END
>  <MODEL>
5

>  <REMARK>
 VINA RESULT:      -6.4      1.828      6.369
  Name = 
  15 active torsions:
  status: ('A' for Active; 'I' for Inactive)
    1  A    between atoms: C_1  and  C_13
    2  A    between atoms: O_3  and  C_18
    3  A    between atoms: N_4  and  N_19
    4  A    between atoms: C_7  and  C_13
    5  A    between atoms: C_7  and  N_19
    6  A    between atoms: C_15  and  C_20
    7  A    between atoms: C_15  and  C_26
    8  A    between atoms: C_17  and  C_25
    9  A    between atoms: C_17  and  N_39
   10  A    between atoms: C_20  and  C_34
   11  A    between atoms: N_21  and  C_27
   12  A    between atoms: C_25  and  C_37
   13  A    between atoms: C_26  and  C_37
   14  A    between atoms: C_35  and  C_36
   15  A    between atoms: C_35  and  N_39
                            x       y       z     vdW  Elec       q    Type
                         _______ _______ _______ _____ _____    ______ ____

>  <TORSDO>
F 15

$$$$
=
 OpenBabel11042420503D

 41 43  0  0  1  0  0  0  0  0999 V2000
  161.4500  207.1120  151.1440 C   0  0  1  0  0  3  0  0  0  0  0  0
  161.9430  209.8430  150.4600 C   0  0  0  0  0  0  0  0  0  0  0  0
  162.2820  211.0200  150.1660 O   0  0  0  0  0  0  0  0  0  0  0  0
  161.1980  208.2450  152.1100 C   0  0  0  0  0  3  0  0  0  0  0  0
  161.7050  207.5770  149.7190 C   0  0  0  0  0  0  0  0  0  0  0  0
  161.4740  209.5130  151.8130 C   0  0  0  0  0  0  0  0  0  0  0  0
  161.9660  208.8240  149.4570 N   0  0  0  0  0  0  0  0  0  0  0  0
  161.6870  206.6680  148.6570 O   0  0  0  0  0  0  0  0  0  0  0  0
  160.5980  206.5670  147.7500 C   0  0  0  0  0  1  0  0  0  0  0  0
  162.6290  206.2770  151.6210 C   0  0  0  0  0  2  0  0  0  0  0  0
  162.1600  205.1770  152.5580 C   0  0  0  0  0  2  0  0  0  0  0  0
  160.7920  204.8180  152.2370 N   0  0  0  0  0  2  0  0  0  0  0  0
  160.7130  203.4230  152.3260 N   0  0  0  0  0  2  0  0  0  0  0  0
  160.8740  200.6840  150.0150 N   0  0  0  0  0  0  0  0  0  0  0  0
  161.0020  201.5780  149.0090 C   0  0  0  0  0  0  0  0  0  0  0  0
  161.1430  201.1680  147.6420 N   0  0  0  0  0  2  0  0  0  0  0  0
  160.7690  201.2530  151.2140 N   0  0  0  0  0  0  0  0  0  0  0  0
  161.0120  203.1660  149.5880 S   0  0  0  0  0  0  0  0  0  0  0  0
  160.8250  202.6010  151.1660 C   0  0  0  0  0  0  0  0  0  0  0  0
  161.6890  203.1650  146.4870 C   0  0  0  0  0  3  0  0  0  0  0  0
  162.8810  205.1000  145.3690 C   0  0  0  0  0  1  0  0  0  0  0  0
  159.4810  203.6090  144.3990 C   0  0  0  0  0  3  0  0  0  0  0  0
  159.3230  202.3300  144.7370 C   0  0  0  0  0  3  0  0  0  0  0  0
  161.0570  201.9890  146.4690 C   0  0  0  0  0  0  0  0  0  0  0  0
  161.7310  204.1580  145.3920 C   0  0  0  0  0  0  0  0  0  0  0  0
  160.7400  204.3710  144.5170 C   0  0  0  0  0  3  0  0  0  0  0  0
  160.4480  201.4680  145.2040 C   0  0  0  0  0  2  0  0  0  0  0  0
  161.2100  210.5840  152.8190 C   0  0  0  0  0  2  0  0  0  0  0  0
  162.2160  210.4870  153.9540 C   0  0  0  0  0  2  0  0  0  0  0  0
  161.5000  210.4540  155.2890 C   0  0  1  0  0  3  0  0  0  0  0  0
  162.3330  210.9740  156.2830 O   0  0  0  0  0  1  0  0  0  0  0  0
  160.2320  211.2800  155.1920 C   0  0  0  0  0  2  0  0  0  0  0  0
  159.1520  210.6990  156.0890 C   0  0  0  0  0  2  0  0  0  0  0  0
  158.1440  211.7740  156.4680 C   0  0  0  0  0  2  0  0  0  0  0  0
  155.1880  210.6660  154.6310 O   0  0  0  0  0  0  0  0  0  0  0  0
  156.1600  210.6790  155.4320 C   0  0  0  0  0  3  0  0  0  0  0  0
  157.0410  211.8100  155.5170 N   0  0  0  0  0  0  0  0  0  0  0  0
  157.4210  214.2350  155.4650 C   0  0  0  0  0  1  0  0  0  0  0  0
  156.8430  213.0350  154.7390 C   0  0  1  0  0  3  0  0  0  0  0  0
  158.5280  213.9620  153.1510 C   0  0  0  0  0  1  0  0  0  0  0  0
  157.4450  212.9180  153.3460 C   0  0  0  0  0  2  0  0  0  0  0  0
  1 10  1  1  0  0  0
  1  4  1  0  0  0  0
  2  6  1  0  0  0  0
  3  2  2  0  0  0  0
  5  1  1  0  0  0  0
  6  4  2  0  0  0  0
  6 28  1  0  0  0  0
  7  5  2  0  0  0  0
  7  2  1  0  0  0  0
  8  5  1  0  0  0  0
  9  8  1  0  0  0  0
 10 11  1  0  0  0  0
 12 13  1  0  0  0  0
 12 11  1  0  0  0  0
 14 17  1  0  0  0  0
 15 18  1  0  0  0  0
 15 14  2  0  0  0  0
 16 15  1  0  0  0  0
 18 19  1  0  0  0  0
 19 17  2  0  0  0  0
 19 13  1  0  0  0  0
 21 25  1  0  0  0  0
 22 26  1  0  0  0  0
 22 23  2  0  0  0  0
 23 27  1  0  0  0  0
 24 20  2  0  0  0  0
 24 16  1  0  0  0  0
 25 20  1  0  0  0  0
 26 25  2  0  0  0  0
 27 24  1  0  0  0  0
 28 29  1  0  0  0  0
 29 30  1  0  0  0  0
 30 31  1  1  0  0  0
 32 30  1  0  0  0  0
 32 33  1  0  0  0  0
 33 34  1  0  0  0  0
 35 36  2  0  0  0  0
 36 37  1  0  0  0  0
 37 34  1  0  0  0  0
 39 38  1  1  0  0  0
 39 37  1  0  0  0  0
 40 41  1  0  0  0  0
 41 39  1  0  0  0  0
M  END
>  <MODEL>
6

>  <REMARK>
 VINA RESULT:      -6.4      4.849      9.590
  Name = 
  15 active torsions:
  status: ('A' for Active; 'I' for Inactive)
    1  A    between atoms: C_1  and  C_13
    2  A    between atoms: O_3  and  C_18
    3  A    between atoms: N_4  and  N_19
    4  A    between atoms: C_7  and  C_13
    5  A    between atoms: C_7  and  N_19
    6  A    between atoms: C_15  and  C_20
    7  A    between atoms: C_15  and  C_26
    8  A    between atoms: C_17  and  C_25
    9  A    between atoms: C_17  and  N_39
   10  A    between atoms: C_20  and  C_34
   11  A    between atoms: N_21  and  C_27
   12  A    between atoms: C_25  and  C_37
   13  A    between atoms: C_26  and  C_37
   14  A    between atoms: C_35  and  C_36
   15  A    between atoms: C_35  and  N_39
                            x       y       z     vdW  Elec       q    Type
                         _______ _______ _______ _____ _____    ______ ____

>  <TORSDO>
F 15

$$$$
=
 OpenBabel11042420503D

 41 43  0  0  1  0  0  0  0  0999 V2000
  161.4330  207.2620  153.0280 C   0  0  1  0  0  3  0  0  0  0  0  0
  160.7930  205.9880  150.5510 C   0  0  0  0  0  0  0  0  0  0  0  0
  160.3900  205.4380  149.4920 O   0  0  0  0  0  0  0  0  0  0  0  0
  161.6840  205.7930  152.7870 C   0  0  0  0  0  3  0  0  0  0  0  0
  161.0900  208.0330  151.7640 C   0  0  0  0  0  0  0  0  0  0  0  0
  161.3410  205.1850  151.6530 C   0  0  0  0  0  0  0  0  0  0  0  0
  160.7640  207.4130  150.6680 N   0  0  0  0  0  0  0  0  0  0  0  0
  161.0940  209.4310  151.7560 O   0  0  0  0  0  0  0  0  0  0  0  0
  162.2450  210.1940  151.4210 C   0  0  0  0  0  1  0  0  0  0  0  0
  160.3160  207.4370  154.0450 C   0  0  0  0  0  2  0  0  0  0  0  0
  160.8720  207.9230  155.3720 C   0  0  0  0  0  2  0  0  0  0  0  0
  161.0500  209.3620  155.3240 N   0  0  0  0  0  2  0  0  0  0  0  0
  160.0030  209.9200  156.0680 N   0  0  0  0  0  2  0  0  0  0  0  0
  157.3650  212.2680  155.4400 N   0  0  0  0  0  0  0  0  0  0  0  0
  157.8390  212.4200  154.1820 C   0  0  0  0  0  0  0  0  0  0  0  0
  157.2120  213.2950  153.2350 N   0  0  0  0  0  2  0  0  0  0  0  0
  158.0700  211.4030  156.1660 N   0  0  0  0  0  0  0  0  0  0  0  0
  159.1860  211.4370  153.9050 S   0  0  0  0  0  0  0  0  0  0  0  0
  159.0990  210.8570  155.4850 C   0  0  0  0  0  0  0  0  0  0  0  0
  156.9070  213.6700  150.9150 C   0  0  0  0  0  3  0  0  0  0  0  0
  156.0970  214.4530  148.6460 C   0  0  0  0  0  1  0  0  0  0  0  0
  159.6880  213.5180  149.6220 C   0  0  0  0  0  3  0  0  0  0  0  0
  159.9660  213.6710  150.9160 C   0  0  0  0  0  3  0  0  0  0  0  0
  157.7270  213.7250  151.9670 C   0  0  0  0  0  0  0  0  0  0  0  0
  157.2300  214.0650  149.5270 C   0  0  0  0  0  0  0  0  0  0  0  0
  158.4390  213.9480  148.9620 C   0  0  0  0  0  3  0  0  0  0  0  0
  159.0630  214.3910  151.8610 C   0  0  0  0  0  2  0  0  0  0  0  0
  161.6080  203.7270  151.4840 C   0  0  0  0  0  2  0  0  0  0  0  0
  160.4010  203.0480  150.8580 C   0  0  0  0  0  2  0  0  0  0  0  0
  160.8250  201.7880  150.1310 C   0  0  1  0  0  3  0  0  0  0  0  0
  160.3940  200.6650  150.8430 O   0  0  0  0  0  1  0  0  0  0  0  0
  160.2130  201.7860  148.7430 C   0  0  0  0  0  2  0  0  0  0  0  0
  161.2950  201.9390  147.6870 C   0  0  0  0  0  2  0  0  0  0  0  0
  161.7040  203.3990  147.5570 C   0  0  0  0  0  2  0  0  0  0  0  0
  160.2140  203.5160  144.2260 O   0  0  0  0  0  0  0  0  0  0  0  0
  160.5700  203.1000  145.3590 C   0  0  0  0  0  3  0  0  0  0  0  0
  161.3250  203.9300  146.2550 N   0  0  0  0  0  0  0  0  0  0  0  0
  160.4360  206.1940  145.9190 C   0  0  0  0  0  1  0  0  0  0  0  0
  161.6750  205.3190  145.9500 C   0  0  1  0  0  3  0  0  0  0  0  0
  162.2340  207.2210  147.4640 C   0  0  0  0  0  1  0  0  0  0  0  0
  162.6910  205.8720  146.9400 C   0  0  0  0  0  2  0  0  0  0  0  0
  1 10  1  1  0  0  0
  2  7  1  0  0  0  0
  2  6  1  0  0  0  0
  3  2  2  0  0  0  0
  4  1  1  0  0  0  0
  5  1  1  0  0  0  0
  6  4  2  0  0  0  0
  7  5  2  0  0  0  0
  8  5  1  0  0  0  0
  9  8  1  0  0  0  0
 10 11  1  0  0  0  0
 12 11  1  0  0  0  0
 12 13  1  0  0  0  0
 14 17  1  0  0  0  0
 15 14  2  0  0  0  0
 16 15  1  0  0  0  0
 18 15  1  0  0  0  0
 18 19  1  0  0  0  0
 19 13  1  0  0  0  0
 19 17  2  0  0  0  0
 20 24  2  0  0  0  0
 21 25  1  0  0  0  0
 22 23  2  0  0  0  0
 23 27  1  0  0  0  0
 24 16  1  0  0  0  0
 25 20  1  0  0  0  0
 26 25  2  0  0  0  0
 26 22  1  0  0  0  0
 27 24  1  0  0  0  0
 28  6  1  0  0  0  0
 29 28  1  0  0  0  0
 30 31  1  1  0  0  0
 30 29  1  0  0  0  0
 32 30  1  0  0  0  0
 33 32  1  0  0  0  0
 34 33  1  0  0  0  0
 35 36  2  0  0  0  0
 36 37  1  0  0  0  0
 37 34  1  0  0  0  0
 39 38  1  1  0  0  0
 39 37  1  0  0  0  0
 39 41  1  0  0  0  0
 41 40  1  0  0  0  0
M  END
>  <MODEL>
7

>  <REMARK>
 VINA RESULT:      -6.3      4.142      5.686
  Name = 
  15 active torsions:
  status: ('A' for Active; 'I' for Inactive)
    1  A    between atoms: C_1  and  C_13
    2  A    between atoms: O_3  and  C_18
    3  A    between atoms: N_4  and  N_19
    4  A    between atoms: C_7  and  C_13
    5  A    between atoms: C_7  and  N_19
    6  A    between atoms: C_15  and  C_20
    7  A    between atoms: C_15  and  C_26
    8  A    between atoms: C_17  and  C_25
    9  A    between atoms: C_17  and  N_39
   10  A    between atoms: C_20  and  C_34
   11  A    between atoms: N_21  and  C_27
   12  A    between atoms: C_25  and  C_37
   13  A    between atoms: C_26  and  C_37
   14  A    between atoms: C_35  and  C_36
   15  A    between atoms: C_35  and  N_39
                            x       y       z     vdW  Elec       q    Type
                         _______ _______ _______ _____ _____    ______ ____

>  <TORSDO>
F 15

$$$$
=
 OpenBabel11042420503D

 41 43  0  0  1  0  0  0  0  0999 V2000
  162.1540  213.9910  148.0470 C   0  0  1  0  0  3  0  0  0  0  0  0
  159.9460  213.8880  146.2350 C   0  0  0  0  0  0  0  0  0  0  0  0
  158.9670  213.7190  145.4610 O   0  0  0  0  0  0  0  0  0  0  0  0
  162.3270  214.1300  146.5530 C   0  0  0  0  0  3  0  0  0  0  0  0
  160.7060  214.0840  148.4990 C   0  0  0  0  0  0  0  0  0  0  0  0
  161.3070  214.0310  145.7030 C   0  0  0  0  0  0  0  0  0  0  0  0
  159.7290  213.9900  147.6450 N   0  0  0  0  0  0  0  0  0  0  0  0
  160.3880  214.2470  149.8510 O   0  0  0  0  0  0  0  0  0  0  0  0
  159.2660  213.6200  150.4570 C   0  0  0  0  0  1  0  0  0  0  0  0
  162.7470  212.6730  148.5180 C   0  0  0  0  0  2  0  0  0  0  0  0
  161.7320  211.5510  148.3840 C   0  0  0  0  0  2  0  0  0  0  0  0
  162.2890  210.3270  148.9280 N   0  0  0  0  0  2  0  0  0  0  0  0
  161.8110  210.2180  150.2400 N   0  0  0  0  0  2  0  0  0  0  0  0
  160.9850  207.5280  152.4630 N   0  0  0  0  0  0  0  0  0  0  0  0
  161.2920  206.6560  151.4760 C   0  0  0  0  0  0  0  0  0  0  0  0
  161.2020  205.2370  151.6610 N   0  0  0  0  0  2  0  0  0  0  0  0
  161.1440  208.8010  152.1080 N   0  0  0  0  0  0  0  0  0  0  0  0
  161.8120  207.4570  150.0810 S   0  0  0  0  0  0  0  0  0  0  0  0
  161.5880  208.9450  150.8420 C   0  0  0  0  0  0  0  0  0  0  0  0
  161.2070  204.6020  149.3780 C   0  0  0  0  0  3  0  0  0  0  0  0
  161.7250  204.3260  146.9130 C   0  0  0  0  0  1  0  0  0  0  0  0
  160.2130  201.6990  149.2660 C   0  0  0  0  0  3  0  0  0  0  0  0
  160.5330  201.8580  150.5500 C   0  0  0  0  0  3  0  0  0  0  0  0
  161.2700  204.2170  150.6550 C   0  0  0  0  0  0  0  0  0  0  0  0
  161.2620  203.7220  148.1910 C   0  0  0  0  0  0  0  0  0  0  0  0
  160.7810  202.4730  148.1440 C   0  0  0  0  0  3  0  0  0  0  0  0
  161.5940  202.8000  151.0110 C   0  0  0  0  0  2  0  0  0  0  0  0
  161.5510  214.1660  144.2360 C   0  0  0  0  0  2  0  0  0  0  0  0
  161.3330  212.8290  143.5490 C   0  0  0  0  0  2  0  0  0  0  0  0
  160.8040  213.0390  142.1450 C   0  0  1  0  0  3  0  0  0  0  0  0
  161.8650  213.3200  141.2790 O   0  0  0  0  0  1  0  0  0  0  0  0
  160.0870  211.7820  141.6910 C   0  0  0  0  0  2  0  0  0  0  0  0
  161.0100  210.9240  140.8420 C   0  0  0  0  0  2  0  0  0  0  0  0
  160.2290  210.2590  139.7180 C   0  0  0  0  0  2  0  0  0  0  0  0
  162.0070  207.5380  138.0550 O   0  0  0  0  0  0  0  0  0  0  0  0
  161.2490  208.1620  138.8430 C   0  0  0  0  0  3  0  0  0  0  0  0
  161.1270  209.5910  138.7860 N   0  0  0  0  0  0  0  0  0  0  0  0
  160.8220  211.2660  137.0160 C   0  0  0  0  0  1  0  0  0  0  0  0
  161.8130  210.4100  137.7830 C   0  0  1  0  0  3  0  0  0  0  0  0
  163.0440  212.5740  137.6350 C   0  0  0  0  0  1  0  0  0  0  0  0
  162.8910  211.2810  138.4130 C   0  0  0  0  0  2  0  0  0  0  0  0
  1  5  1  0  0  0  0
  1 10  1  6  0  0  0
  2  7  1  0  0  0  0
  3  2  2  0  0  0  0
  4  1  1  0  0  0  0
  5  8  1  0  0  0  0
  6  2  1  0  0  0  0
  6  4  2  0  0  0  0
  7  5  2  0  0  0  0
  8  9  1  0  0  0  0
 11 10  1  0  0  0  0
 11 12  1  0  0  0  0
 12 13  1  0  0  0  0
 13 19  1  0  0  0  0
 15 16  1  0  0  0  0
 15 14  2  0  0  0  0
 17 14  1  0  0  0  0
 18 19  1  0  0  0  0
 18 15  1  0  0  0  0
 19 17  2  0  0  0  0
 20 24  2  0  0  0  0
 21 25  1  0  0  0  0
 22 23  2  0  0  0  0
 23 27  1  0  0  0  0
 24 27  1  0  0  0  0
 24 16  1  0  0  0  0
 25 20  1  0  0  0  0
 26 25  2  0  0  0  0
 26 22  1  0  0  0  0
 28  6  1  0  0  0  0
 29 28  1  0  0  0  0
 30 31  1  6  0  0  0
 30 29  1  0  0  0  0
 32 30  1  0  0  0  0
 33 32  1  0  0  0  0
 34 33  1  0  0  0  0
 35 36  2  0  0  0  0
 37 36  1  0  0  0  0
 37 34  1  0  0  0  0
 39 38  1  1  0  0  0
 39 41  1  0  0  0  0
 39 37  1  0  0  0  0
 40 41  1  0  0  0  0
M  END
>  <MODEL>
8

>  <REMARK>
 VINA RESULT:      -6.1      3.567      9.947
  Name = 
  15 active torsions:
  status: ('A' for Active; 'I' for Inactive)
    1  A    between atoms: C_1  and  C_13
    2  A    between atoms: O_3  and  C_18
    3  A    between atoms: N_4  and  N_19
    4  A    between atoms: C_7  and  C_13
    5  A    between atoms: C_7  and  N_19
    6  A    between atoms: C_15  and  C_20
    7  A    between atoms: C_15  and  C_26
    8  A    between atoms: C_17  and  C_25
    9  A    between atoms: C_17  and  N_39
   10  A    between atoms: C_20  and  C_34
   11  A    between atoms: N_21  and  C_27
   12  A    between atoms: C_25  and  C_37
   13  A    between atoms: C_26  and  C_37
   14  A    between atoms: C_35  and  C_36
   15  A    between atoms: C_35  and  N_39
                            x       y       z     vdW  Elec       q    Type
                         _______ _______ _______ _____ _____    ______ ____

>  <TORSDO>
F 15

$$$$
=
 OpenBabel11042420503D

 41 43  0  0  1  0  0  0  0  0999 V2000
  158.6460  212.8390  152.4440 C   0  0  1  0  0  3  0  0  0  0  0  0
  159.6740  212.4520  155.0820 C   0  0  0  0  0  0  0  0  0  0  0  0
  160.1800  212.3950  156.2340 O   0  0  0  0  0  0  0  0  0  0  0  0
  159.7590  211.8640  152.7420 C   0  0  0  0  0  3  0  0  0  0  0  0
  157.9490  213.3610  153.6900 C   0  0  0  0  0  0  0  0  0  0  0  0
  160.2750  211.7180  153.9610 C   0  0  0  0  0  0  0  0  0  0  0  0
  158.4730  213.1990  154.8690 N   0  0  0  0  0  0  0  0  0  0  0  0
  156.7370  214.0520  153.5940 O   0  0  0  0  0  0  0  0  0  0  0  0
  155.7670  214.0470  154.6330 C   0  0  0  0  0  1  0  0  0  0  0  0
  159.1840  214.0110  151.6380 C   0  0  0  0  0  2  0  0  0  0  0  0
  158.3440  214.2350  150.3920 C   0  0  0  0  0  2  0  0  0  0  0  0
  158.8000  213.3520  149.3360 N   0  0  0  0  0  2  0  0  0  0  0  0
  160.1950  213.4720  149.2880 N   0  0  0  0  0  2  0  0  0  0  0  0
  162.6960  213.4190  146.7170 N   0  0  0  0  0  0  0  0  0  0  0  0
  161.7190  213.1890  145.8110 C   0  0  0  0  0  0  0  0  0  0  0  0
  161.9980  213.0510  144.4120 N   0  0  0  0  0  2  0  0  0  0  0  0
  162.2410  213.5330  147.9640 N   0  0  0  0  0  0  0  0  0  0  0  0
  160.1950  213.1390  146.5430 S   0  0  0  0  0  0  0  0  0  0  0  0
  160.9000  213.4060  148.0500 C   0  0  0  0  0  0  0  0  0  0  0  0
  161.6570  212.0000  142.3150 C   0  0  0  0  0  3  0  0  0  0  0  0
  161.6130  210.3880  140.3610 C   0  0  0  0  0  1  0  0  0  0  0  0
  158.9740  213.0310  141.2360 C   0  0  0  0  0  3  0  0  0  0  0  0
  158.9230  213.3540  142.5280 C   0  0  0  0  0  3  0  0  0  0  0  0
  161.1120  212.5850  143.3850 C   0  0  0  0  0  0  0  0  0  0  0  0
  160.9320  211.4490  141.1500 C   0  0  0  0  0  0  0  0  0  0  0  0
  159.7850  211.9400  140.6620 C   0  0  0  0  0  3  0  0  0  0  0  0
  159.6290  212.5770  143.5870 C   0  0  0  0  0  2  0  0  0  0  0  0
  161.3830  210.7430  154.1840 C   0  0  0  0  0  2  0  0  0  0  0  0
  160.9090  209.3360  153.8610 C   0  0  0  0  0  2  0  0  0  0  0  0
  161.1760  208.4110  155.0320 C   0  0  1  0  0  3  0  0  0  0  0  0
  160.3580  208.7640  156.1080 O   0  0  0  0  0  1  0  0  0  0  0  0
  160.8870  206.9820  154.6100 C   0  0  0  0  0  2  0  0  0  0  0  0
  160.9310  206.8580  153.0970 C   0  0  0  0  0  2  0  0  0  0  0  0
  161.0250  205.3950  152.6880 C   0  0  0  0  0  2  0  0  0  0  0  0
  161.6880  206.4080  149.2430 O   0  0  0  0  0  0  0  0  0  0  0  0
  161.4270  206.4630  150.4740 C   0  0  0  0  0  3  0  0  0  0  0  0
  161.3220  205.2710  151.2680 N   0  0  0  0  0  0  0  0  0  0  0  0
  161.2570  202.8680  151.7670 C   0  0  0  0  0  1  0  0  0  0  0  0
  161.5700  203.9310  150.7310 C   0  0  1  0  0  3  0  0  0  0  0  0
  160.6390  202.1920  149.2040 C   0  0  0  0  0  1  0  0  0  0  0  0
  160.7730  203.6810  149.4580 C   0  0  0  0  0  2  0  0  0  0  0  0
  1 10  1  1  0  0  0
  1  4  1  0  0  0  0
  1  5  1  0  0  0  0
  2  3  2  0  0  0  0
  4  6  2  0  0  0  0
  5  7  2  0  0  0  0
  6 28  1  0  0  0  0
  6  2  1  0  0  0  0
  7  2  1  0  0  0  0
  8  5  1  0  0  0  0
  8  9  1  0  0  0  0
 11 10  1  0  0  0  0
 12 11  1  0  0  0  0
 13 12  1  0  0  0  0
 14 17  1  0  0  0  0
 15 18  1  0  0  0  0
 15 14  2  0  0  0  0
 16 15  1  0  0  0  0
 17 19  2  0  0  0  0
 18 19  1  0  0  0  0
 19 13  1  0  0  0  0
 20 24  2  0  0  0  0
 21 25  1  0  0  0  0
 22 23  2  0  0  0  0
 23 27  1  0  0  0  0
 24 27  1  0  0  0  0
 24 16  1  0  0  0  0
 25 20  1  0  0  0  0
 26 25  2  0  0  0  0
 26 22  1  0  0  0  0
 29 28  1  0  0  0  0
 29 30  1  0  0  0  0
 30 31  1  1  0  0  0
 32 30  1  0  0  0  0
 33 32  1  0  0  0  0
 34 33  1  0  0  0  0
 35 36  2  0  0  0  0
 36 37  1  0  0  0  0
 37 34  1  0  0  0  0
 39 37  1  0  0  0  0
 39 38  1  1  0  0  0
 40 41  1  0  0  0  0
 41 39  1  0  0  0  0
M  END
>  <MODEL>
9

>  <REMARK>
 VINA RESULT:      -6.0      2.357      4.101
  Name = 
  15 active torsions:
  status: ('A' for Active; 'I' for Inactive)
    1  A    between atoms: C_1  and  C_13
    2  A    between atoms: O_3  and  C_18
    3  A    between atoms: N_4  and  N_19
    4  A    between atoms: C_7  and  C_13
    5  A    between atoms: C_7  and  N_19
    6  A    between atoms: C_15  and  C_20
    7  A    between atoms: C_15  and  C_26
    8  A    between atoms: C_17  and  C_25
    9  A    between atoms: C_17  and  N_39
   10  A    between atoms: C_20  and  C_34
   11  A    between atoms: N_21  and  C_27
   12  A    between atoms: C_25  and  C_37
   13  A    between atoms: C_26  and  C_37
   14  A    between atoms: C_35  and  C_36
   15  A    between atoms: C_35  and  N_39
                            x       y       z     vdW  Elec       q    Type
                         _______ _______ _______ _____ _____    ______ ____

>  <TORSDO>
F 15

$$$$
