=
 OpenBabel11042422103D

 34 39  0  0  1  0  0  0  0  0999 V2000
  160.7590  207.4360  154.4810 C   0  0  0  0  0  2  0  0  0  0  0  0
  162.5600  210.5210  150.5740 N   0  0  0  0  0  2  0  0  0  0  0  0
  161.5050  206.2050  152.4820 C   0  0  0  0  0  0  0  0  0  0  0  0
  159.8270  209.9770  152.9850 N   0  0  0  0  0  2  0  0  0  0  0  0
  160.5890  205.0530  150.8690 N   0  0  0  0  0  0  0  0  0  0  0  0
  160.5120  211.1950  152.5860 C   0  0  1  0  0  3  0  0  0  0  0  0
  161.2410  208.8690  154.6320 C   0  0  0  0  0  2  0  0  0  0  0  0
  159.5110  211.6350  155.8740 O   0  0  0  0  0  1  0  0  0  0  0  0
  160.9380  206.2410  150.3440 C   0  0  0  0  0  0  0  0  0  0  0  0
  159.9090  211.7820  151.3470 C   0  0  0  0  0  0  0  0  0  0  0  0
  160.9210  205.0350  152.1540 N   0  0  0  0  0  0  0  0  0  0  0  0
  160.4660  212.1370  153.7620 C   0  0  0  0  0  2  0  0  0  0  0  0
  162.0510  208.3240  151.3460 C   0  0  0  0  0  3  0  0  0  0  0  0
  162.0300  209.2210  150.2860 C   0  0  0  0  0  0  0  0  0  0  0  0
  158.1890  212.6710  150.0220 C   0  0  0  0  0  3  0  0  0  0  0  0
  160.9130  207.8360  148.4580 C   0  0  0  0  0  3  0  0  0  0  0  0
  159.5660  212.6660  149.0560 S   0  0  0  0  0  0  0  0  0  0  0  0
  160.4670  211.2100  154.9540 C   0  0  2  0  0  3  0  0  0  0  0  0
  160.6540  206.6030  149.0410 C   0  0  0  0  0  3  0  0  0  0  0  0
  161.8630  206.5790  153.8840 C   0  0  0  0  0  2  0  0  0  0  0  0
  158.5560  212.1490  151.2590 C   0  0  0  0  0  3  0  0  0  0  0  0
  160.0900  209.8390  154.4150 C   0  0  1  0  0  3  0  0  0  0  0  0
  160.6290  211.9910  150.1700 C   0  0  0  0  0  0  0  0  0  0  0  0
  161.5600  207.0320  151.3800 C   0  0  0  0  0  0  0  0  0  0  0  0
  162.1140  211.7780  149.9740 C   0  0  2  0  0  3  0  0  0  0  0  0
  161.5030  208.9740  149.0110 C   0  0  0  0  0  3  0  0  0  0  0  0
  162.6600  211.9050  148.2490 S   0  0  0  0  0  0  0  0  0  0  0  0
  162.3420  214.4530  148.8680 N   0  0  0  0  0  1  0  0  0  0  0  0
  162.8120  213.4860  147.9220 C   0  0  2  0  0  3  0  0  0  0  0  0
  163.1180  213.8960  146.5730 N   0  0  0  0  0  0  0  0  0  0  0  0
  161.9510  214.4260  145.8060 C   0  0  1  0  0  3  0  0  0  0  0  0
  162.3680  213.0400  145.6360 C   0  0  0  0  0  2  0  0  0  0  0  0
  160.6150  214.4530  146.5500 C   0  0  0  0  0  2  0  0  0  0  0  0
  159.4850  214.2010  145.5730 C   0  0  0  0  0  1  0  0  0  0  0  0
  1  7  1  0  0  0  0
  3 20  1  0  0  0  0
  4 22  1  0  0  0  0
  5 11  2  0  0  0  0
  6  4  1  0  0  0  0
  6 12  1  1  0  0  0
  9  5  1  0  0  0  0
  9 24  1  0  0  0  0
 10  6  1  0  0  0  0
 11  3  1  0  0  0  0
 12 18  1  0  0  0  0
 13 24  1  0  0  0  0
 14  2  1  0  0  0  0
 14 13  2  0  0  0  0
 15 21  2  0  0  0  0
 16 26  2  0  0  0  0
 16 19  1  0  0  0  0
 17 15  1  0  0  0  0
 17 23  1  0  0  0  0
 18  8  1  1  0  0  0
 19  9  2  0  0  0  0
 20  1  1  0  0  0  0
 21 10  1  0  0  0  0
 22  7  1  6  0  0  0
 22 18  1  0  0  0  0
 23 10  2  0  0  0  0
 24  3  2  0  0  0  0
 25 27  1  6  0  0  0
 25 23  1  0  0  0  0
 25  2  1  0  0  0  0
 26 14  1  0  0  0  0
 29 27  1  0  0  0  0
 29 28  1  6  0  0  0
 30 29  1  0  0  0  0
 31 33  1  1  0  0  0
 31 30  1  0  0  0  0
 32 31  1  0  0  0  0
 32 30  1  0  0  0  0
 34 33  1  0  0  0  0
M  END
>  <MODEL>
1

>  <REMARK>
 VINA RESULT:      -2.6      0.000      0.000
  Name = 
  3 active torsions:
  status: ('A' for Active; 'I' for Inactive)
    1  A    between atoms: N_3  and  C_29
    2  A    between atoms: C_6  and  C_16
    3  A    between atoms: S_13  and  C_32
                            x       y       z     vdW  Elec       q    Type
                         _______ _______ _______ _____ _____    ______ ____

>  <TORSDO>
F 3

$$$$
=
 OpenBabel11042422103D

 34 39  0  0  1  0  0  0  0  0999 V2000
  160.7530  210.5990  153.5770 C   0  0  0  0  0  2  0  0  0  0  0  0
  161.2320  213.4250  149.1260 N   0  0  0  0  0  2  0  0  0  0  0  0
  162.1900  209.5590  151.8680 C   0  0  0  0  0  0  0  0  0  0  0  0
  158.8710  212.0490  151.5990 N   0  0  0  0  0  2  0  0  0  0  0  0
  162.1010  207.8420  150.5220 N   0  0  0  0  0  0  0  0  0  0  0  0
  158.9250  213.3560  150.9620 C   0  0  1  0  0  3  0  0  0  0  0  0
  160.4730  212.0850  153.4360 C   0  0  0  0  0  2  0  0  0  0  0  0
  157.5170  213.8220  154.0930 O   0  0  0  0  0  1  0  0  0  0  0  0
  161.8880  208.9350  149.7670 C   0  0  0  0  0  0  0  0  0  0  0  0
  158.2390  213.3430  149.6300 C   0  0  0  0  0  0  0  0  0  0  0  0
  162.2730  208.2150  151.7830 N   0  0  0  0  0  0  0  0  0  0  0  0
  158.3180  214.3450  151.9230 C   0  0  0  0  0  2  0  0  0  0  0  0
  161.7640  211.4350  150.3270 C   0  0  0  0  0  3  0  0  0  0  0  0
  161.4200  212.0040  149.1080 C   0  0  0  0  0  0  0  0  0  0  0  0
  156.4430  213.0280  148.1530 C   0  0  0  0  0  3  0  0  0  0  0  0
  161.2890  209.9520  147.5980 C   0  0  0  0  0  3  0  0  0  0  0  0
  157.7420  213.5260  147.2070 S   0  0  0  0  0  0  0  0  0  0  0  0
  158.6450  213.7640  153.2780 C   0  0  2  0  0  3  0  0  0  0  0  0
  161.5960  208.8750  148.4190 C   0  0  0  0  0  3  0  0  0  0  0  0
  162.1850  210.3010  153.1660 C   0  0  0  0  0  2  0  0  0  0  0  0
  156.8920  212.9790  149.4700 C   0  0  0  0  0  3  0  0  0  0  0  0
  159.0250  212.3130  153.0270 C   0  0  1  0  0  3  0  0  0  0  0  0
  158.8830  213.6650  148.4350 C   0  0  0  0  0  0  0  0  0  0  0  0
  161.9510  210.0980  150.6210 C   0  0  0  0  0  0  0  0  0  0  0  0
  160.3000  214.1750  148.2850 C   0  0  2  0  0  3  0  0  0  0  0  0
  161.2040  211.3100  147.9090 C   0  0  0  0  0  3  0  0  0  0  0  0
  160.8860  214.2460  146.5700 S   0  0  0  0  0  0  0  0  0  0  0  0
  163.1660  214.4320  147.8900 N   0  0  0  0  0  1  0  0  0  0  0  0
  162.5060  214.2720  146.6300 C   0  0  2  0  0  3  0  0  0  0  0  0
  163.2490  214.4520  145.4060 N   0  0  0  0  0  0  0  0  0  0  0  0
  162.6820  213.7320  144.2260 C   0  0  1  0  0  3  0  0  0  0  0  0
  163.7840  213.1460  144.9780 C   0  0  0  0  0  2  0  0  0  0  0  0
  161.4160  212.9130  144.4830 C   0  0  0  0  0  2  0  0  0  0  0  0
  160.8490  212.4300  143.1640 C   0  0  0  0  0  1  0  0  0  0  0  0
  3 20  1  0  0  0  0
  4 22  1  0  0  0  0
  5 11  2  0  0  0  0
  6  4  1  0  0  0  0
  6 12  1  1  0  0  0
  7  1  1  0  0  0  0
  9  5  1  0  0  0  0
  9 24  1  0  0  0  0
 10  6  1  0  0  0  0
 11  3  1  0  0  0  0
 12 18  1  0  0  0  0
 13 24  1  0  0  0  0
 14  2  1  0  0  0  0
 14 13  2  0  0  0  0
 15 21  2  0  0  0  0
 16 26  2  0  0  0  0
 16 19  1  0  0  0  0
 17 15  1  0  0  0  0
 17 23  1  0  0  0  0
 18  8  1  1  0  0  0
 19  9  2  0  0  0  0
 20  1  1  0  0  0  0
 21 10  1  0  0  0  0
 22 18  1  0  0  0  0
 22  7  1  6  0  0  0
 23 10  2  0  0  0  0
 24  3  2  0  0  0  0
 25 27  1  6  0  0  0
 25 23  1  0  0  0  0
 25  2  1  0  0  0  0
 26 14  1  0  0  0  0
 27 29  1  0  0  0  0
 29 28  1  1  0  0  0
 30 29  1  0  0  0  0
 31 33  1  1  0  0  0
 31 32  1  0  0  0  0
 31 30  1  0  0  0  0
 32 30  1  0  0  0  0
 34 33  1  0  0  0  0
M  END
>  <MODEL>
2

>  <REMARK>
 VINA RESULT:      -1.4      2.202      2.952
  Name = 
  3 active torsions:
  status: ('A' for Active; 'I' for Inactive)
    1  A    between atoms: N_3  and  C_29
    2  A    between atoms: C_6  and  C_16
    3  A    between atoms: S_13  and  C_32
                            x       y       z     vdW  Elec       q    Type
                         _______ _______ _______ _____ _____    ______ ____

>  <TORSDO>
F 3

$$$$
=
 OpenBabel11042422103D

 34 39  0  0  1  0  0  0  0  0999 V2000
  161.8110  207.0560  148.1110 C   0  0  0  0  0  2  0  0  0  0  0  0
  159.8370  209.0950  152.5800 N   0  0  0  0  0  2  0  0  0  0  0  0
  160.9140  205.3800  149.6780 C   0  0  0  0  0  0  0  0  0  0  0  0
  162.7030  209.0870  150.2640 N   0  0  0  0  0  2  0  0  0  0  0  0
  161.7020  203.8170  150.9840 N   0  0  0  0  0  0  0  0  0  0  0  0
  162.0210  210.1870  150.9260 C   0  0  1  0  0  3  0  0  0  0  0  0
  161.3710  208.4960  148.3100 C   0  0  0  0  0  2  0  0  0  0  0  0
  163.2360  211.4210  147.9260 O   0  0  0  0  0  1  0  0  0  0  0  0
  161.3470  204.8420  151.7800 C   0  0  0  0  0  0  0  0  0  0  0  0
  162.5590  210.4120  152.3070 C   0  0  0  0  0  0  0  0  0  0  0  0
  161.4510  204.1430  149.7230 N   0  0  0  0  0  0  0  0  0  0  0  0
  162.1620  211.3980  150.0400 C   0  0  0  0  0  2  0  0  0  0  0  0
  160.3450  207.1530  151.2930 C   0  0  0  0  0  3  0  0  0  0  0  0
  160.3190  207.7450  152.5490 C   0  0  0  0  0  0  0  0  0  0  0  0
  164.2120  210.8640  153.9100 C   0  0  0  0  0  3  0  0  0  0  0  0
  161.2880  205.8950  154.0130 C   0  0  0  0  0  3  0  0  0  0  0  0
  162.7770  210.6620  154.7650 S   0  0  0  0  0  0  0  0  0  0  0  0
  162.2150  210.8100  148.6500 C   0  0  2  0  0  3  0  0  0  0  0  0
  161.5560  204.8450  153.1450 C   0  0  0  0  0  3  0  0  0  0  0  0
  160.6530  206.1160  148.4030 C   0  0  0  0  0  2  0  0  0  0  0  0
  163.9120  210.6920  152.5610 C   0  0  0  0  0  3  0  0  0  0  0  0
  162.5280  209.3340  148.8350 C   0  0  1  0  0  3  0  0  0  0  0  0
  161.7710  210.3370  153.4560 C   0  0  0  0  0  0  0  0  0  0  0  0
  160.8080  205.8960  150.9520 C   0  0  0  0  0  0  0  0  0  0  0  0
  160.2720  210.1370  153.5080 C   0  0  2  0  0  3  0  0  0  0  0  0
  160.7600  207.1580  153.7430 C   0  0  0  0  0  3  0  0  0  0  0  0
  159.6220  209.8360  155.1750 S   0  0  0  0  0  0  0  0  0  0  0  0
  159.2190  212.4350  154.9380 N   0  0  0  0  0  1  0  0  0  0  0  0
  159.0010  211.2400  155.6950 C   0  0  2  0  0  3  0  0  0  0  0  0
  158.5170  211.3320  157.0520 N   0  0  0  0  0  0  0  0  0  0  0  0
  157.0410  211.5270  157.1710 C   0  0  1  0  0  3  0  0  0  0  0  0
  157.9380  212.6720  157.2600 C   0  0  0  0  0  2  0  0  0  0  0  0
  156.2640  211.6060  155.8560 C   0  0  0  0  0  2  0  0  0  0  0  0
  155.3070  210.4360  155.7610 C   0  0  0  0  0  1  0  0  0  0  0  0
  1  7  1  0  0  0  0
  1 20  1  0  0  0  0
  2 25  1  0  0  0  0
  3 11  2  0  0  0  0
  3 24  1  0  0  0  0
  4  6  1  0  0  0  0
  5  9  2  0  0  0  0
  6 12  1  6  0  0  0
  6 10  1  0  0  0  0
  9 19  1  0  0  0  0
 10 21  1  0  0  0  0
 10 23  2  0  0  0  0
 11  5  1  0  0  0  0
 13 14  1  0  0  0  0
 14  2  1  0  0  0  0
 14 26  2  0  0  0  0
 15 17  1  0  0  0  0
 18  8  1  6  0  0  0
 18 22  1  0  0  0  0
 18 12  1  0  0  0  0
 19 16  2  0  0  0  0
 20  3  1  0  0  0  0
 21 15  2  0  0  0  0
 22  7  1  1  0  0  0
 22  4  1  0  0  0  0
 23 25  1  0  0  0  0
 23 17  1  0  0  0  0
 24 13  2  0  0  0  0
 24  9  1  0  0  0  0
 25 27  1  1  0  0  0
 26 16  1  0  0  0  0
 27 29  1  0  0  0  0
 29 28  1  1  0  0  0
 29 30  1  0  0  0  0
 30 31  1  0  0  0  0
 30 32  1  0  0  0  0
 31 33  1  6  0  0  0
 31 32  1  0  0  0  0
 34 33  1  0  0  0  0
M  END
>  <MODEL>
3

>  <REMARK>
 VINA RESULT:      -1.3      3.436      6.682
  Name = 
  3 active torsions:
  status: ('A' for Active; 'I' for Inactive)
    1  A    between atoms: N_3  and  C_29
    2  A    between atoms: C_6  and  C_16
    3  A    between atoms: S_13  and  C_32
                            x       y       z     vdW  Elec       q    Type
                         _______ _______ _______ _____ _____    ______ ____

>  <TORSDO>
F 3

$$$$
