=
 OpenBabel11042420253D

 31 33  0  0  1  0  0  0  0  0999 V2000
  160.9800  206.0080  150.8490 N   0  0  0  0  0  0  0  0  0  0  0  0
  161.0820  202.4840  147.6650 N   0  0  0  0  0  0  0  0  0  0  0  0
  160.9330  203.6180  150.9230 C   0  0  0  0  0  0  0  0  0  0  0  0
  160.9600  204.8360  152.9650 C   0  0  0  0  0  3  0  0  0  0  0  0
  160.9520  204.8090  150.2170 C   0  0  0  0  0  0  0  0  0  0  0  0
  161.2100  200.0980  147.1660 N   0  0  0  0  0  1  0  0  0  0  0  0
  160.9790  206.0400  152.2190 C   0  0  0  0  0  0  0  0  0  0  0  0
  160.9860  204.6070  148.8760 N   0  0  0  0  0  0  0  0  0  0  0  0
  160.9570  202.6410  149.9630 C   0  0  0  0  0  0  0  0  0  0  0  0
  161.1090  201.1850  148.0780 C   0  0  0  0  0  0  0  0  0  0  0  0
  161.0400  200.9820  149.7820 S   0  0  0  0  0  0  0  0  0  0  0  0
  160.9870  203.2600  148.7660 C   0  0  0  0  0  0  0  0  0  0  0  0
  160.9410  203.5920  152.3110 C   0  0  0  0  0  3  0  0  0  0  0  0
  161.0890  205.6210  147.8260 C   0  0  2  0  0  3  0  0  0  0  0  0
  160.4770  205.1020  146.5270 C   0  0  0  0  0  2  0  0  0  0  0  0
  160.2190  206.2410  145.5540 C   0  0  0  0  0  2  0  0  0  0  0  0
  160.6840  204.5660  144.2910 F   0  0  0  0  0  0  0  0  0  0  0  0
  160.6620  205.8870  144.2790 O   0  0  0  0  0  0  0  0  0  0  0  0
  162.5480  206.0510  147.6200 C   0  0  1  0  0  3  0  0  0  0  0  0
  163.7420  204.4270  146.1720 C   0  0  0  0  0  2  0  0  0  0  0  0
  163.0880  205.5820  146.2980 C   0  0  0  0  0  3  0  0  0  0  0  0
  162.6780  207.5000  147.7180 N   0  0  0  0  0  2  0  0  0  0  0  0
  161.5330  207.9990  148.4650 C   0  0  0  0  0  2  0  0  0  0  0  0
  161.9460  209.1790  149.3230 C   0  0  0  0  0  2  0  0  0  0  0  0
  161.4020  211.9270  149.7960 O   0  0  0  0  0  0  0  0  0  0  0  0
  162.5500  212.7100  147.8680 C   0  0  0  0  0  1  0  0  0  0  0  0
  162.3780  210.2700  148.4680 N   0  0  0  0  0  2  0  0  0  0  0  0
  162.0730  211.6310  148.7710 C   0  0  0  0  0  0  0  0  0  0  0  0
  161.0070  207.2890  152.9130 N   0  0  0  0  0  2  0  0  0  0  0  0
  160.9760  207.3860  154.3650 C   0  0  0  0  0  2  0  0  0  0  0  0
  161.0570  208.8390  154.7930 C   0  0  0  0  0  1  0  0  0  0  0  0
  1  7  2  0  0  0  0
  2 10  2  0  0  0  0
  2 12  1  0  0  0  0
  3 13  1  0  0  0  0
  5  1  1  0  0  0  0
  5  3  2  0  0  0  0
  6 10  1  0  0  0  0
  7 29  1  0  0  0  0
  7  4  1  0  0  0  0
  8  5  1  0  0  0  0
  9  3  1  0  0  0  0
 10 11  1  0  0  0  0
 11  9  1  0  0  0  0
 12  8  1  0  0  0  0
 12  9  2  0  0  0  0
 13  4  2  0  0  0  0
 14 15  1  6  0  0  0
 14  8  1  0  0  0  0
 16 15  1  0  0  0  0
 18 17  1  0  0  0  0
 18 16  1  0  0  0  0
 19 21  1  6  0  0  0
 19 22  1  0  0  0  0
 19 14  1  0  0  0  0
 20 21  2  0  0  0  0
 22 23  1  0  0  0  0
 23 24  1  0  0  0  0
 26 28  1  0  0  0  0
 27 28  1  0  0  0  0
 27 24  1  0  0  0  0
 28 25  2  0  0  0  0
 29 30  1  0  0  0  0
 30 31  1  0  0  0  0
M  END
>  <MODEL>
1

>  <REMARK>
 VINA RESULT:      -6.9      0.000      0.000
  Name = 
  12 active torsions:
  status: ('A' for Active; 'I' for Inactive)
    1  A    between atoms: C_4  and  O_14
    2  A    between atoms: C_4  and  C_19
    3  A    between atoms: N_5  and  C_26
    4  A    between atoms: N_5  and  C_28
    5  A    between atoms: C_6  and  C_19
    6  A    between atoms: C_6  and  N_20
    7  A    between atoms: C_6  and  C_28
    8  A    between atoms: C_8  and  N_18
    9  A    between atoms: C_16  and  N_18
   10  A    between atoms: N_17  and  C_22
   11  A    between atoms: C_22  and  C_26
   12  A    between atoms: C_24  and  C_28
                            x       y       z     vdW  Elec       q    Type
                         _______ _______ _______ _____ _____    ______ ____

>  <TORSDO>
F 12

$$$$
=
 OpenBabel11042420253D

 31 33  0  0  1  0  0  0  0  0999 V2000
  161.5470  207.5190  151.6960 N   0  0  0  0  0  0  0  0  0  0  0  0
  161.3380  203.5680  149.0670 N   0  0  0  0  0  0  0  0  0  0  0  0
  161.0580  205.2120  152.0910 C   0  0  0  0  0  0  0  0  0  0  0  0
  161.0920  206.7160  153.9320 C   0  0  0  0  0  3  0  0  0  0  0  0
  161.3680  206.2560  151.2370 C   0  0  0  0  0  0  0  0  0  0  0  0
  161.0810  201.1450  148.9210 N   0  0  0  0  0  1  0  0  0  0  0  0
  161.4080  207.7660  153.0370 C   0  0  0  0  0  0  0  0  0  0  0  0
  161.5040  205.8420  149.9520 N   0  0  0  0  0  0  0  0  0  0  0  0
  161.0040  204.1050  151.2850 C   0  0  0  0  0  0  0  0  0  0  0  0
  161.0850  202.3640  149.6540 C   0  0  0  0  0  0  0  0  0  0  0  0
  160.8020  202.4470  151.3460 S   0  0  0  0  0  0  0  0  0  0  0  0
  161.2720  204.5130  150.0290 C   0  0  0  0  0  0  0  0  0  0  0  0
  160.9160  205.4040  153.4580 C   0  0  0  0  0  3  0  0  0  0  0  0
  161.9000  206.6470  148.7960 C   0  0  2  0  0  3  0  0  0  0  0  0
  161.2470  208.0260  148.8640 C   0  0  0  0  0  2  0  0  0  0  0  0
  162.2790  209.1260  148.6790 C   0  0  0  0  0  2  0  0  0  0  0  0
  162.3950  211.1360  149.4300 F   0  0  0  0  0  0  0  0  0  0  0  0
  161.6490  210.3710  148.6520 O   0  0  0  0  0  0  0  0  0  0  0  0
  161.5500  205.9310  147.4840 C   0  0  1  0  0  3  0  0  0  0  0  0
  160.0390  206.3770  145.5670 C   0  0  0  0  0  2  0  0  0  0  0  0
  160.2860  206.4670  146.8740 C   0  0  0  0  0  3  0  0  0  0  0  0
  162.6450  206.0470  146.5260 N   0  0  0  0  0  2  0  0  0  0  0  0
  163.1470  204.7060  146.2630 C   0  0  0  0  0  2  0  0  0  0  0  0
  162.3880  204.0850  145.1070 C   0  0  0  0  0  2  0  0  0  0  0  0
  159.8080  203.2370  144.2700 O   0  0  0  0  0  0  0  0  0  0  0  0
  159.8000  201.2510  145.5750 C   0  0  0  0  0  1  0  0  0  0  0  0
  161.7240  202.8750  145.5580 N   0  0  0  0  0  2  0  0  0  0  0  0
  160.4270  202.5070  145.0890 C   0  0  0  0  0  0  0  0  0  0  0  0
  161.5910  209.0880  153.5510 N   0  0  0  0  0  2  0  0  0  0  0  0
  161.8090  210.2440  152.6950 C   0  0  0  0  0  2  0  0  0  0  0  0
  160.4920  210.9420  152.4140 C   0  0  0  0  0  1  0  0  0  0  0  0
  1  7  2  0  0  0  0
  2 10  2  0  0  0  0
  2 12  1  0  0  0  0
  3 13  1  0  0  0  0
  5  1  1  0  0  0  0
  5  3  2  0  0  0  0
  6 10  1  0  0  0  0
  7 29  1  0  0  0  0
  7  4  1  0  0  0  0
  8 12  1  0  0  0  0
  8  5  1  0  0  0  0
  9 11  1  0  0  0  0
  9  3  1  0  0  0  0
 10 11  1  0  0  0  0
 12  9  2  0  0  0  0
 13  4  2  0  0  0  0
 14 15  1  6  0  0  0
 14  8  1  0  0  0  0
 16 15  1  0  0  0  0
 18 16  1  0  0  0  0
 18 17  1  0  0  0  0
 19 21  1  6  0  0  0
 19 14  1  0  0  0  0
 20 21  2  0  0  0  0
 22 19  1  0  0  0  0
 23 22  1  0  0  0  0
 24 27  1  0  0  0  0
 24 23  1  0  0  0  0
 25 28  2  0  0  0  0
 28 27  1  0  0  0  0
 28 26  1  0  0  0  0
 30 29  1  0  0  0  0
 31 30  1  0  0  0  0
M  END
>  <MODEL>
2

>  <REMARK>
 VINA RESULT:      -6.4      2.284      4.877
  Name = 
  12 active torsions:
  status: ('A' for Active; 'I' for Inactive)
    1  A    between atoms: C_4  and  O_14
    2  A    between atoms: C_4  and  C_19
    3  A    between atoms: N_5  and  C_26
    4  A    between atoms: N_5  and  C_28
    5  A    between atoms: C_6  and  C_19
    6  A    between atoms: C_6  and  N_20
    7  A    between atoms: C_6  and  C_28
    8  A    between atoms: C_8  and  N_18
    9  A    between atoms: C_16  and  N_18
   10  A    between atoms: N_17  and  C_22
   11  A    between atoms: C_22  and  C_26
   12  A    between atoms: C_24  and  C_28
                            x       y       z     vdW  Elec       q    Type
                         _______ _______ _______ _____ _____    ______ ____

>  <TORSDO>
F 12

$$$$
=
 OpenBabel11042420253D

 31 33  0  0  1  0  0  0  0  0999 V2000
  160.8820  207.1210  151.2270 N   0  0  0  0  0  0  0  0  0  0  0  0
  161.2140  210.1610  154.8620 N   0  0  0  0  0  0  0  0  0  0  0  0
  161.2810  206.9560  153.5790 C   0  0  0  0  0  0  0  0  0  0  0  0
  161.1290  204.9630  152.2920 C   0  0  0  0  0  3  0  0  0  0  0  0
  161.0680  207.7060  152.4360 C   0  0  0  0  0  0  0  0  0  0  0  0
  161.4240  210.5630  157.2610 N   0  0  0  0  0  1  0  0  0  0  0  0
  160.9140  205.7530  151.1370 C   0  0  0  0  0  0  0  0  0  0  0  0
  161.0300  209.0370  152.6980 N   0  0  0  0  0  0  0  0  0  0  0  0
  161.3750  207.8760  154.5900 C   0  0  0  0  0  0  0  0  0  0  0  0
  161.3880  209.6980  156.1320 C   0  0  0  0  0  0  0  0  0  0  0  0
  161.5310  207.9900  156.2500 S   0  0  0  0  0  0  0  0  0  0  0  0
  161.2230  209.0950  154.0340 C   0  0  0  0  0  0  0  0  0  0  0  0
  161.3130  205.5690  153.5470 C   0  0  0  0  0  3  0  0  0  0  0  0
  160.7520  210.1210  151.7550 C   0  0  2  0  0  3  0  0  0  0  0  0
  162.0100  210.4670  150.9620 C   0  0  0  0  0  2  0  0  0  0  0  0
  161.9700  209.8400  149.5780 C   0  0  0  0  0  2  0  0  0  0  0  0
  162.5260  211.8700  149.1420 F   0  0  0  0  0  0  0  0  0  0  0  0
  161.8990  210.8380  148.6050 O   0  0  0  0  0  0  0  0  0  0  0  0
  160.1980  211.3530  152.4840 C   0  0  1  0  0  3  0  0  0  0  0  0
  159.5100  213.0260  150.7850 C   0  0  0  0  0  2  0  0  0  0  0  0
  160.3990  212.6120  151.6880 C   0  0  0  0  0  3  0  0  0  0  0  0
  158.7800  211.1820  152.7820 N   0  0  0  0  0  2  0  0  0  0  0  0
  158.4810  211.9590  153.9750 C   0  0  0  0  0  2  0  0  0  0  0  0
  157.0420  212.4350  153.9380 C   0  0  0  0  0  2  0  0  0  0  0  0
  156.3270  213.5020  156.4730 O   0  0  0  0  0  0  0  0  0  0  0  0
  155.1460  211.5710  157.1960 C   0  0  0  0  0  1  0  0  0  0  0  0
  156.2740  211.7310  154.9500 N   0  0  0  0  0  2  0  0  0  0  0  0
  155.9450  212.3330  156.2010 C   0  0  0  0  0  0  0  0  0  0  0  0
  160.7220  205.1080  149.8760 N   0  0  0  0  0  2  0  0  0  0  0  0
  161.3410  205.5780  148.6460 C   0  0  0  0  0  2  0  0  0  0  0  0
  161.6460  204.4060  147.7330 C   0  0  0  0  0  1  0  0  0  0  0  0
  1  5  1  0  0  0  0
  2 10  2  0  0  0  0
  3  9  1  0  0  0  0
  4 13  2  0  0  0  0
  5  8  1  0  0  0  0
  5  3  2  0  0  0  0
  7  1  2  0  0  0  0
  7  4  1  0  0  0  0
  8 12  1  0  0  0  0
  9 11  1  0  0  0  0
 10 11  1  0  0  0  0
 10  6  1  0  0  0  0
 12  9  2  0  0  0  0
 12  2  1  0  0  0  0
 13  3  1  0  0  0  0
 14 15  1  1  0  0  0
 14 19  1  0  0  0  0
 14  8  1  0  0  0  0
 16 15  1  0  0  0  0
 18 17  1  0  0  0  0
 18 16  1  0  0  0  0
 19 21  1  6  0  0  0
 19 22  1  0  0  0  0
 20 21  2  0  0  0  0
 22 23  1  0  0  0  0
 24 23  1  0  0  0  0
 24 27  1  0  0  0  0
 27 28  1  0  0  0  0
 28 25  2  0  0  0  0
 28 26  1  0  0  0  0
 29  7  1  0  0  0  0
 30 29  1  0  0  0  0
 31 30  1  0  0  0  0
M  END
>  <MODEL>
3

>  <REMARK>
 VINA RESULT:      -5.8      4.249      7.855
  Name = 
  12 active torsions:
  status: ('A' for Active; 'I' for Inactive)
    1  A    between atoms: C_4  and  O_14
    2  A    between atoms: C_4  and  C_19
    3  A    between atoms: N_5  and  C_26
    4  A    between atoms: N_5  and  C_28
    5  A    between atoms: C_6  and  C_19
    6  A    between atoms: C_6  and  N_20
    7  A    between atoms: C_6  and  C_28
    8  A    between atoms: C_8  and  N_18
    9  A    between atoms: C_16  and  N_18
   10  A    between atoms: N_17  and  C_22
   11  A    between atoms: C_22  and  C_26
   12  A    between atoms: C_24  and  C_28
                            x       y       z     vdW  Elec       q    Type
                         _______ _______ _______ _____ _____    ______ ____

>  <TORSDO>
F 12

$$$$
=
 OpenBabel11042420253D

 31 33  0  0  1  0  0  0  0  0999 V2000
  160.0790  212.3760  151.4750 N   0  0  0  0  0  0  0  0  0  0  0  0
  157.6070  211.0890  155.3210 N   0  0  0  0  0  0  0  0  0  0  0  0
  158.0370  213.0560  152.5160 C   0  0  0  0  0  0  0  0  0  0  0  0
  158.7960  214.2250  150.5900 C   0  0  0  0  0  3  0  0  0  0  0  0
  159.1440  212.2280  152.4440 C   0  0  0  0  0  0  0  0  0  0  0  0
  155.7370  211.4610  156.8460 N   0  0  0  0  0  1  0  0  0  0  0  0
  159.9190  213.3640  150.5390 C   0  0  0  0  0  0  0  0  0  0  0  0
  159.1740  211.3270  153.4590 N   0  0  0  0  0  0  0  0  0  0  0  0
  157.3600  212.6400  153.6320 C   0  0  0  0  0  0  0  0  0  0  0  0
  156.4730  211.7630  155.6670 C   0  0  0  0  0  0  0  0  0  0  0  0
  156.0340  213.0160  154.5780 S   0  0  0  0  0  0  0  0  0  0  0  0
  158.0590  211.6180  154.1640 C   0  0  0  0  0  0  0  0  0  0  0  0
  157.8300  214.0790  151.6010 C   0  0  0  0  0  3  0  0  0  0  0  0
  160.2240  210.3500  153.7490 C   0  0  2  0  0  3  0  0  0  0  0  0
  161.4640  211.0530  154.2970 C   0  0  0  0  0  2  0  0  0  0  0  0
  161.5460  210.9130  155.8070 C   0  0  0  0  0  2  0  0  0  0  0  0
  163.6770  210.7660  156.0480 F   0  0  0  0  0  0  0  0  0  0  0  0
  162.5780  210.0380  156.1500 O   0  0  0  0  0  0  0  0  0  0  0  0
  160.5600  209.5210  152.5020 C   0  0  1  0  0  3  0  0  0  0  0  0
  162.3620  209.6970  150.8050 C   0  0  0  0  0  2  0  0  0  0  0  0
  161.9940  209.6920  152.0860 C   0  0  0  0  0  3  0  0  0  0  0  0
  160.2810  208.1070  152.7320 N   0  0  0  0  0  2  0  0  0  0  0  0
  161.2700  207.6080  153.6750 C   0  0  0  0  0  2  0  0  0  0  0  0
  161.6240  206.1710  153.3440 C   0  0  0  0  0  2  0  0  0  0  0  0
  160.9360  203.6770  152.1680 O   0  0  0  0  0  0  0  0  0  0  0  0
  160.9110  204.4900  149.9350 C   0  0  0  0  0  1  0  0  0  0  0  0
  161.4460  205.9440  151.9210 N   0  0  0  0  0  2  0  0  0  0  0  0
  161.0930  204.6630  151.4000 C   0  0  0  0  0  0  0  0  0  0  0  0
  160.8890  213.5440  149.5040 N   0  0  0  0  0  2  0  0  0  0  0  0
  161.1540  212.5370  148.4870 C   0  0  0  0  0  2  0  0  0  0  0  0
  162.6440  212.4510  148.2150 C   0  0  0  0  0  1  0  0  0  0  0  0
  1  5  1  0  0  0  0
  2 10  2  0  0  0  0
  3  9  1  0  0  0  0
  4 13  2  0  0  0  0
  5  3  2  0  0  0  0
  5  8  1  0  0  0  0
  7  4  1  0  0  0  0
  7  1  2  0  0  0  0
  8 14  1  0  0  0  0
  8 12  1  0  0  0  0
  9 12  2  0  0  0  0
  9 11  1  0  0  0  0
 10  6  1  0  0  0  0
 11 10  1  0  0  0  0
 12  2  1  0  0  0  0
 13  3  1  0  0  0  0
 14 15  1  6  0  0  0
 15 16  1  0  0  0  0
 16 18  1  0  0  0  0
 17 18  1  0  0  0  0
 19 21  1  1  0  0  0
 19 22  1  0  0  0  0
 19 14  1  0  0  0  0
 20 21  2  0  0  0  0
 22 23  1  0  0  0  0
 24 23  1  0  0  0  0
 26 28  1  0  0  0  0
 27 24  1  0  0  0  0
 28 27  1  0  0  0  0
 28 25  2  0  0  0  0
 29  7  1  0  0  0  0
 30 29  1  0  0  0  0
 31 30  1  0  0  0  0
M  END
>  <MODEL>
4

>  <REMARK>
 VINA RESULT:      -5.8      5.295      9.556
  Name = 
  12 active torsions:
  status: ('A' for Active; 'I' for Inactive)
    1  A    between atoms: C_4  and  O_14
    2  A    between atoms: C_4  and  C_19
    3  A    between atoms: N_5  and  C_26
    4  A    between atoms: N_5  and  C_28
    5  A    between atoms: C_6  and  C_19
    6  A    between atoms: C_6  and  N_20
    7  A    between atoms: C_6  and  C_28
    8  A    between atoms: C_8  and  N_18
    9  A    between atoms: C_16  and  N_18
   10  A    between atoms: N_17  and  C_22
   11  A    between atoms: C_22  and  C_26
   12  A    between atoms: C_24  and  C_28
                            x       y       z     vdW  Elec       q    Type
                         _______ _______ _______ _____ _____    ______ ____

>  <TORSDO>
F 12

$$$$
=
 OpenBabel11042420253D

 31 33  0  0  1  0  0  0  0  0999 V2000
  161.0580  202.8680  147.8970 N   0  0  0  0  0  0  0  0  0  0  0  0
  161.0300  206.1660  151.3160 N   0  0  0  0  0  0  0  0  0  0  0  0
  160.9830  202.8700  150.2870 C   0  0  0  0  0  0  0  0  0  0  0  0
  160.8590  200.7970  149.1290 C   0  0  0  0  0  3  0  0  0  0  0  0
  161.0760  203.5350  149.0770 C   0  0  0  0  0  0  0  0  0  0  0  0
  160.8250  206.7520  153.6770 N   0  0  0  0  0  1  0  0  0  0  0  0
  160.9550  201.5010  147.9050 C   0  0  0  0  0  0  0  0  0  0  0  0
  161.1360  204.8820  149.2370 N   0  0  0  0  0  0  0  0  0  0  0  0
  160.9860  203.8610  151.2330 C   0  0  0  0  0  0  0  0  0  0  0  0
  160.9090  205.8000  152.6230 C   0  0  0  0  0  0  0  0  0  0  0  0
  160.8360  204.1030  152.8800 S   0  0  0  0  0  0  0  0  0  0  0  0
  161.0780  205.0360  150.5780 C   0  0  0  0  0  0  0  0  0  0  0  0
  160.8670  201.4890  150.3540 C   0  0  0  0  0  3  0  0  0  0  0  0
  161.1630  205.9020  148.1880 C   0  0  2  0  0  3  0  0  0  0  0  0
  160.4020  205.4140  146.9570 C   0  0  0  0  0  2  0  0  0  0  0  0
  160.3030  206.5100  145.9100 C   0  0  0  0  0  2  0  0  0  0  0  0
  160.4840  204.6950  144.7740 F   0  0  0  0  0  0  0  0  0  0  0  0
  160.0820  205.9480  144.6510 O   0  0  0  0  0  0  0  0  0  0  0  0
  162.6060  206.2860  147.8340 C   0  0  1  0  0  3  0  0  0  0  0  0
  163.5510  204.6480  146.2270 C   0  0  0  0  0  2  0  0  0  0  0  0
  162.9820  205.8320  146.4510 C   0  0  0  0  0  3  0  0  0  0  0  0
  162.7990  207.7270  147.9470 N   0  0  0  0  0  2  0  0  0  0  0  0
  161.7350  208.2520  148.7900 C   0  0  0  0  0  2  0  0  0  0  0  0
  162.3220  208.8590  150.0490 C   0  0  0  0  0  2  0  0  0  0  0  0
  162.2550  209.7270  152.7540 O   0  0  0  0  0  0  0  0  0  0  0  0
  160.4750  211.2710  152.4420 C   0  0  0  0  0  1  0  0  0  0  0  0
  161.4030  209.8500  150.5810 N   0  0  0  0  0  2  0  0  0  0  0  0
  161.4300  210.2440  151.9530 C   0  0  0  0  0  0  0  0  0  0  0  0
  160.9350  200.7710  146.6770 N   0  0  0  0  0  2  0  0  0  0  0  0
  161.5800  199.4760  146.5180 C   0  0  0  0  0  2  0  0  0  0  0  0
  161.0760  198.7920  145.2620 C   0  0  0  0  0  1  0  0  0  0  0  0
  1  7  2  0  0  0  0
  1  5  1  0  0  0  0
  2 10  2  0  0  0  0
  3 13  1  0  0  0  0
  3  9  1  0  0  0  0
  4 13  2  0  0  0  0
  5  8  1  0  0  0  0
  5  3  2  0  0  0  0
  7  4  1  0  0  0  0
  8 12  1  0  0  0  0
  9 11  1  0  0  0  0
 10 11  1  0  0  0  0
 10  6  1  0  0  0  0
 12  9  2  0  0  0  0
 12  2  1  0  0  0  0
 14 15  1  6  0  0  0
 14  8  1  0  0  0  0
 16 15  1  0  0  0  0
 18 17  1  0  0  0  0
 18 16  1  0  0  0  0
 19 21  1  6  0  0  0
 19 22  1  0  0  0  0
 19 14  1  0  0  0  0
 20 21  2  0  0  0  0
 22 23  1  0  0  0  0
 23 24  1  0  0  0  0
 24 27  1  0  0  0  0
 27 28  1  0  0  0  0
 28 26  1  0  0  0  0
 28 25  2  0  0  0  0
 29  7  1  0  0  0  0
 30 29  1  0  0  0  0
 31 30  1  0  0  0  0
M  END
>  <MODEL>
5

>  <REMARK>
 VINA RESULT:      -5.6      1.728      4.906
  Name = 
  12 active torsions:
  status: ('A' for Active; 'I' for Inactive)
    1  A    between atoms: C_4  and  O_14
    2  A    between atoms: C_4  and  C_19
    3  A    between atoms: N_5  and  C_26
    4  A    between atoms: N_5  and  C_28
    5  A    between atoms: C_6  and  C_19
    6  A    between atoms: C_6  and  N_20
    7  A    between atoms: C_6  and  C_28
    8  A    between atoms: C_8  and  N_18
    9  A    between atoms: C_16  and  N_18
   10  A    between atoms: N_17  and  C_22
   11  A    between atoms: C_22  and  C_26
   12  A    between atoms: C_24  and  C_28
                            x       y       z     vdW  Elec       q    Type
                         _______ _______ _______ _____ _____    ______ ____

>  <TORSDO>
F 12

$$$$
=
 OpenBabel11042420253D

 31 33  0  0  1  0  0  0  0  0999 V2000
  161.9730  206.0480  151.5200 N   0  0  0  0  0  0  0  0  0  0  0  0
  161.0460  210.7030  151.7190 N   0  0  0  0  0  0  0  0  0  0  0  0
  161.0710  207.5570  153.1420 C   0  0  0  0  0  0  0  0  0  0  0  0
  161.1760  205.2370  153.6550 C   0  0  0  0  0  3  0  0  0  0  0  0
  161.6370  207.3040  151.9040 C   0  0  0  0  0  0  0  0  0  0  0  0
  160.0840  212.6110  152.8980 N   0  0  0  0  0  1  0  0  0  0  0  0
  161.7540  205.0060  152.3840 C   0  0  0  0  0  0  0  0  0  0  0  0
  161.7560  208.4310  151.1570 N   0  0  0  0  0  0  0  0  0  0  0  0
  160.8310  208.9060  153.1480 C   0  0  0  0  0  0  0  0  0  0  0  0
  160.4450  211.2380  152.8190 C   0  0  0  0  0  0  0  0  0  0  0  0
  160.1390  210.1100  154.0780 S   0  0  0  0  0  0  0  0  0  0  0  0
  161.2480  209.3900  151.9620 C   0  0  0  0  0  0  0  0  0  0  0  0
  160.8180  206.5390  154.0500 C   0  0  0  0  0  3  0  0  0  0  0  0
  162.2360  208.5380  149.7790 C   0  0  2  0  0  3  0  0  0  0  0  0
  161.5540  209.7060  149.0700 C   0  0  0  0  0  2  0  0  0  0  0  0
  162.5730  210.7380  148.6180 C   0  0  0  0  0  2  0  0  0  0  0  0
  161.2630  211.7710  147.2640 F   0  0  0  0  0  0  0  0  0  0  0  0
  161.9410  211.9600  148.3820 O   0  0  0  0  0  0  0  0  0  0  0  0
  162.0180  207.2220  149.0190 C   0  0  1  0  0  3  0  0  0  0  0  0
  159.9530  205.8490  149.1030 C   0  0  0  0  0  2  0  0  0  0  0  0
  160.5630  206.9750  148.7350 C   0  0  0  0  0  3  0  0  0  0  0  0
  162.7700  207.2180  147.7690 N   0  0  0  0  0  2  0  0  0  0  0  0
  161.9440  206.5760  146.7570 C   0  0  0  0  0  2  0  0  0  0  0  0
  162.7090  205.4400  146.1060 C   0  0  0  0  0  2  0  0  0  0  0  0
  160.7630  203.7780  144.8700 O   0  0  0  0  0  0  0  0  0  0  0  0
  160.8260  202.0910  146.5430 C   0  0  0  0  0  1  0  0  0  0  0  0
  162.2390  204.1730  146.6380 N   0  0  0  0  0  2  0  0  0  0  0  0
  161.2620  203.3860  145.9590 C   0  0  0  0  0  0  0  0  0  0  0  0
  162.0980  203.6710  152.0070 N   0  0  0  0  0  2  0  0  0  0  0  0
  161.1040  202.6730  151.6400 C   0  0  0  0  0  2  0  0  0  0  0  0
  160.7810  202.7770  150.1620 C   0  0  0  0  0  1  0  0  0  0  0  0
  1  5  1  0  0  0  0
  1  7  2  0  0  0  0
  2 12  1  0  0  0  0
  2 10  2  0  0  0  0
  3  9  1  0  0  0  0
  3 13  1  0  0  0  0
  4 13  2  0  0  0  0
  5  3  2  0  0  0  0
  7  4  1  0  0  0  0
  8  5  1  0  0  0  0
  8 12  1  0  0  0  0
  9 11  1  0  0  0  0
 10  6  1  0  0  0  0
 10 11  1  0  0  0  0
 12  9  2  0  0  0  0
 14 15  1  6  0  0  0
 14  8  1  0  0  0  0
 16 15  1  0  0  0  0
 17 18  1  0  0  0  0
 18 16  1  0  0  0  0
 19 21  1  6  0  0  0
 19 14  1  0  0  0  0
 21 20  2  0  0  0  0
 22 19  1  0  0  0  0
 23 22  1  0  0  0  0
 24 27  1  0  0  0  0
 24 23  1  0  0  0  0
 25 28  2  0  0  0  0
 28 26  1  0  0  0  0
 28 27  1  0  0  0  0
 29  7  1  0  0  0  0
 30 29  1  0  0  0  0
 31 30  1  0  0  0  0
M  END
>  <MODEL>
6

>  <REMARK>
 VINA RESULT:      -5.6      2.991      6.624
  Name = 
  12 active torsions:
  status: ('A' for Active; 'I' for Inactive)
    1  A    between atoms: C_4  and  O_14
    2  A    between atoms: C_4  and  C_19
    3  A    between atoms: N_5  and  C_26
    4  A    between atoms: N_5  and  C_28
    5  A    between atoms: C_6  and  C_19
    6  A    between atoms: C_6  and  N_20
    7  A    between atoms: C_6  and  C_28
    8  A    between atoms: C_8  and  N_18
    9  A    between atoms: C_16  and  N_18
   10  A    between atoms: N_17  and  C_22
   11  A    between atoms: C_22  and  C_26
   12  A    between atoms: C_24  and  C_28
                            x       y       z     vdW  Elec       q    Type
                         _______ _______ _______ _____ _____    ______ ____

>  <TORSDO>
F 12

$$$$
=
 OpenBabel11042420253D

 31 33  0  0  1  0  0  0  0  0999 V2000
  161.0660  205.7990  151.8880 N   0  0  0  0  0  0  0  0  0  0  0  0
  161.9300  210.3280  150.7440 N   0  0  0  0  0  0  0  0  0  0  0  0
  161.3820  207.0340  149.8650 C   0  0  0  0  0  0  0  0  0  0  0  0
  161.0800  204.6790  149.7450 C   0  0  0  0  0  3  0  0  0  0  0  0
  161.2680  206.9740  151.2430 C   0  0  0  0  0  0  0  0  0  0  0  0
  162.4570  212.0110  149.0560 N   0  0  0  0  0  1  0  0  0  0  0  0
  160.9650  204.6450  151.1560 C   0  0  0  0  0  0  0  0  0  0  0  0
  161.4240  208.1920  151.8220 N   0  0  0  0  0  0  0  0  0  0  0  0
  161.6230  208.3540  149.5900 C   0  0  0  0  0  0  0  0  0  0  0  0
  162.1270  210.6830  149.4420 C   0  0  0  0  0  0  0  0  0  0  0  0
  161.9720  209.3880  148.3240 S   0  0  0  0  0  0  0  0  0  0  0  0
  161.6410  209.0090  150.7680 C   0  0  0  0  0  0  0  0  0  0  0  0
  161.2980  205.8960  149.0750 C   0  0  0  0  0  3  0  0  0  0  0  0
  161.4430  208.5010  153.2520 C   0  0  2  0  0  3  0  0  0  0  0  0
  160.4090  207.6530  153.9890 C   0  0  0  0  0  2  0  0  0  0  0  0
  161.0230  206.9810  155.2060 C   0  0  0  0  0  2  0  0  0  0  0  0
  158.9890  206.9930  155.9000 F   0  0  0  0  0  0  0  0  0  0  0  0
  160.2230  207.2030  156.3280 O   0  0  0  0  0  0  0  0  0  0  0  0
  161.2080  209.9980  153.4930 C   0  0  1  0  0  3  0  0  0  0  0  0
  159.0750  211.1040  152.8720 C   0  0  0  0  0  2  0  0  0  0  0  0
  159.7520  210.3090  153.7000 C   0  0  0  0  0  3  0  0  0  0  0  0
  161.9780  210.4630  154.6410 N   0  0  0  0  0  2  0  0  0  0  0  0
  161.0820  210.5080  155.7870 C   0  0  0  0  0  2  0  0  0  0  0  0
  161.1710  211.8610  156.4640 C   0  0  0  0  0  2  0  0  0  0  0  0
  159.3670  213.6980  155.2620 O   0  0  0  0  0  0  0  0  0  0  0  0
  157.6860  213.4710  156.9260 C   0  0  0  0  0  1  0  0  0  0  0  0
  159.8710  212.2210  157.0010 N   0  0  0  0  0  2  0  0  0  0  0  0
  159.0120  213.1480  156.3380 C   0  0  0  0  0  0  0  0  0  0  0  0
  160.7530  203.3910  151.8080 N   0  0  0  0  0  2  0  0  0  0  0  0
  161.4890  202.1850  151.4590 C   0  0  0  0  0  2  0  0  0  0  0  0
  160.7600  201.4260  150.3670 C   0  0  0  0  0  1  0  0  0  0  0  0
  2 12  1  0  0  0  0
  3  5  2  0  0  0  0
  4  7  1  0  0  0  0
  5  8  1  0  0  0  0
  5  1  1  0  0  0  0
  6 10  1  0  0  0  0
  7 29  1  0  0  0  0
  7  1  2  0  0  0  0
  8 14  1  0  0  0  0
  9  3  1  0  0  0  0
  9 12  2  0  0  0  0
 10  2  2  0  0  0  0
 11 10  1  0  0  0  0
 11  9  1  0  0  0  0
 12  8  1  0  0  0  0
 13  4  2  0  0  0  0
 13  3  1  0  0  0  0
 14 19  1  0  0  0  0
 14 15  1  1  0  0  0
 15 16  1  0  0  0  0
 16 18  1  0  0  0  0
 17 18  1  0  0  0  0
 19 21  1  1  0  0  0
 19 22  1  0  0  0  0
 20 21  2  0  0  0  0
 22 23  1  0  0  0  0
 23 24  1  0  0  0  0
 24 27  1  0  0  0  0
 25 28  2  0  0  0  0
 28 26  1  0  0  0  0
 28 27  1  0  0  0  0
 30 29  1  0  0  0  0
 31 30  1  0  0  0  0
M  END
>  <MODEL>
7

>  <REMARK>
 VINA RESULT:      -5.5      4.302      7.750
  Name = 
  12 active torsions:
  status: ('A' for Active; 'I' for Inactive)
    1  A    between atoms: C_4  and  O_14
    2  A    between atoms: C_4  and  C_19
    3  A    between atoms: N_5  and  C_26
    4  A    between atoms: N_5  and  C_28
    5  A    between atoms: C_6  and  C_19
    6  A    between atoms: C_6  and  N_20
    7  A    between atoms: C_6  and  C_28
    8  A    between atoms: C_8  and  N_18
    9  A    between atoms: C_16  and  N_18
   10  A    between atoms: N_17  and  C_22
   11  A    between atoms: C_22  and  C_26
   12  A    between atoms: C_24  and  C_28
                            x       y       z     vdW  Elec       q    Type
                         _______ _______ _______ _____ _____    ______ ____

>  <TORSDO>
F 12

$$$$
=
 OpenBabel11042420253D

 31 33  0  0  1  0  0  0  0  0999 V2000
  161.0400  203.7100  148.5090 N   0  0  0  0  0  0  0  0  0  0  0  0
  160.9780  206.7730  152.1390 N   0  0  0  0  0  0  0  0  0  0  0  0
  160.9960  203.5520  150.8950 C   0  0  0  0  0  0  0  0  0  0  0  0
  160.9060  201.5570  149.6040 C   0  0  0  0  0  3  0  0  0  0  0  0
  161.0570  204.2980  149.7310 C   0  0  0  0  0  0  0  0  0  0  0  0
  160.7900  207.1970  154.5360 N   0  0  0  0  0  1  0  0  0  0  0  0
  160.9700  202.3430  148.4290 C   0  0  0  0  0  0  0  0  0  0  0  0
  161.0870  205.6320  149.9790 N   0  0  0  0  0  0  0  0  0  0  0  0
  160.9870  204.4780  151.9040 C   0  0  0  0  0  0  0  0  0  0  0  0
  160.8820  206.3180  153.4210 C   0  0  0  0  0  0  0  0  0  0  0  0
  160.8540  204.6070  153.5660 S   0  0  0  0  0  0  0  0  0  0  0  0
  161.0420  205.6960  151.3280 C   0  0  0  0  0  0  0  0  0  0  0  0
  160.9140  202.1670  150.8710 C   0  0  0  0  0  3  0  0  0  0  0  0
  161.0750  206.7190  149.0000 C   0  0  2  0  0  3  0  0  0  0  0  0
  161.5340  206.2070  147.6360 C   0  0  0  0  0  2  0  0  0  0  0  0
  160.4650  206.4380  146.5810 C   0  0  0  0  0  2  0  0  0  0  0  0
  159.9120  205.3780  144.7960 F   0  0  0  0  0  0  0  0  0  0  0  0
  160.9310  206.0260  145.3320 O   0  0  0  0  0  0  0  0  0  0  0  0
  161.9440  207.8920  149.4730 C   0  0  1  0  0  3  0  0  0  0  0  0
  161.9790  210.0660  148.2770 C   0  0  0  0  0  2  0  0  0  0  0  0
  162.3460  208.7860  148.3340 C   0  0  0  0  0  3  0  0  0  0  0  0
  161.2470  208.6740  150.4880 N   0  0  0  0  0  2  0  0  0  0  0  0
  162.2480  209.2220  151.3910 C   0  0  0  0  0  2  0  0  0  0  0  0
  161.6460  210.3440  152.2140 C   0  0  0  0  0  2  0  0  0  0  0  0
  160.2170  210.9170  154.6020 O   0  0  0  0  0  0  0  0  0  0  0  0
  162.0690  210.5710  156.0510 C   0  0  0  0  0  1  0  0  0  0  0  0
  162.2170  210.3250  153.5490 N   0  0  0  0  0  2  0  0  0  0  0  0
  161.4370  210.6170  154.7080 C   0  0  0  0  0  0  0  0  0  0  0  0
  160.9500  201.6950  147.1550 N   0  0  0  0  0  2  0  0  0  0  0  0
  160.8350  202.4230  145.9000 C   0  0  0  0  0  2  0  0  0  0  0  0
  160.0560  201.6020  144.8900 C   0  0  0  0  0  1  0  0  0  0  0  0
  1  5  1  0  0  0  0
  2 10  2  0  0  0  0
  3  9  1  0  0  0  0
  4 13  2  0  0  0  0
  5  8  1  0  0  0  0
  5  3  2  0  0  0  0
  7  1  2  0  0  0  0
  7  4  1  0  0  0  0
  8 12  1  0  0  0  0
  9 11  1  0  0  0  0
 10 11  1  0  0  0  0
 10  6  1  0  0  0  0
 12  9  2  0  0  0  0
 12  2  1  0  0  0  0
 13  3  1  0  0  0  0
 14 15  1  6  0  0  0
 14 19  1  0  0  0  0
 14  8  1  0  0  0  0
 16 15  1  0  0  0  0
 17 18  1  0  0  0  0
 18 16  1  0  0  0  0
 19 21  1  6  0  0  0
 19 22  1  0  0  0  0
 20 21  2  0  0  0  0
 22 23  1  0  0  0  0
 23 24  1  0  0  0  0
 24 27  1  0  0  0  0
 25 28  2  0  0  0  0
 27 28  1  0  0  0  0
 28 26  1  0  0  0  0
 29  7  1  0  0  0  0
 30 29  1  0  0  0  0
 31 30  1  0  0  0  0
M  END
>  <MODEL>
8

>  <REMARK>
 VINA RESULT:      -5.5      2.097      5.353
  Name = 
  12 active torsions:
  status: ('A' for Active; 'I' for Inactive)
    1  A    between atoms: C_4  and  O_14
    2  A    between atoms: C_4  and  C_19
    3  A    between atoms: N_5  and  C_26
    4  A    between atoms: N_5  and  C_28
    5  A    between atoms: C_6  and  C_19
    6  A    between atoms: C_6  and  N_20
    7  A    between atoms: C_6  and  C_28
    8  A    between atoms: C_8  and  N_18
    9  A    between atoms: C_16  and  N_18
   10  A    between atoms: N_17  and  C_22
   11  A    between atoms: C_22  and  C_26
   12  A    between atoms: C_24  and  C_28
                            x       y       z     vdW  Elec       q    Type
                         _______ _______ _______ _____ _____    ______ ____

>  <TORSDO>
F 12

$$$$
=
 OpenBabel11042420253D

 31 33  0  0  1  0  0  0  0  0999 V2000
  161.1170  207.5760  149.3310 N   0  0  0  0  0  0  0  0  0  0  0  0
  160.8330  207.8780  154.0640 N   0  0  0  0  0  0  0  0  0  0  0  0
  161.1340  206.0340  151.1590 C   0  0  0  0  0  0  0  0  0  0  0  0
  161.2090  205.1910  148.9370 C   0  0  0  0  0  3  0  0  0  0  0  0
  161.1010  207.3260  150.6640 C   0  0  0  0  0  0  0  0  0  0  0  0
  160.6510  206.7830  156.2380 N   0  0  0  0  0  1  0  0  0  0  0  0
  161.1750  206.5220  148.4560 C   0  0  0  0  0  0  0  0  0  0  0  0
  161.0090  208.2510  151.6530 N   0  0  0  0  0  0  0  0  0  0  0  0
  161.0560  206.1790  152.5190 C   0  0  0  0  0  0  0  0  0  0  0  0
  160.8050  206.7470  154.8240 C   0  0  0  0  0  0  0  0  0  0  0  0
  160.9420  205.2870  153.9290 S   0  0  0  0  0  0  0  0  0  0  0  0
  160.9840  207.5000  152.7760 C   0  0  0  0  0  0  0  0  0  0  0  0
  161.1830  204.9310  150.3190 C   0  0  0  0  0  3  0  0  0  0  0  0
  160.8760  209.7000  151.5050 C   0  0  2  0  0  3  0  0  0  0  0  0
  162.2380  210.3290  151.2150 C   0  0  0  0  0  2  0  0  0  0  0  0
  162.3320  210.7770  149.7660 C   0  0  0  0  0  2  0  0  0  0  0  0
  162.1430  212.6150  148.6690 F   0  0  0  0  0  0  0  0  0  0  0  0
  161.4950  211.8730  149.5510 O   0  0  0  0  0  0  0  0  0  0  0  0
  160.2320  210.3220  152.7520 C   0  0  1  0  0  3  0  0  0  0  0  0
  161.3960  211.0070  154.8330 C   0  0  0  0  0  2  0  0  0  0  0  0
  161.2060  211.1670  153.5230 C   0  0  0  0  0  3  0  0  0  0  0  0
  159.0690  211.1230  152.3860 N   0  0  0  0  0  2  0  0  0  0  0  0
  159.3860  212.5160  152.6630 C   0  0  0  0  0  2  0  0  0  0  0  0
  158.2170  213.1880  153.3550 C   0  0  0  0  0  2  0  0  0  0  0  0
  156.8370  211.2910  154.9590 O   0  0  0  0  0  0  0  0  0  0  0  0
  157.8400  211.9670  157.0050 C   0  0  0  0  0  1  0  0  0  0  0  0
  158.3640  213.0520  154.7940 N   0  0  0  0  0  2  0  0  0  0  0  0
  157.6420  212.0700  155.5360 C   0  0  0  0  0  0  0  0  0  0  0  0
  161.1940  206.7540  147.0460 N   0  0  0  0  0  2  0  0  0  0  0  0
  161.0210  205.6890  146.0690 C   0  0  0  0  0  2  0  0  0  0  0  0
  162.3190  205.4500  145.3230 C   0  0  0  0  0  1  0  0  0  0  0  0
  1  5  1  0  0  0  0
  2 10  2  0  0  0  0
  3  9  1  0  0  0  0
  4 13  2  0  0  0  0
  5  3  2  0  0  0  0
  5  8  1  0  0  0  0
  7  4  1  0  0  0  0
  7  1  2  0  0  0  0
  8 12  1  0  0  0  0
  9 12  2  0  0  0  0
  9 11  1  0  0  0  0
 10  6  1  0  0  0  0
 11 10  1  0  0  0  0
 12  2  1  0  0  0  0
 13  3  1  0  0  0  0
 14 15  1  1  0  0  0
 14  8  1  0  0  0  0
 14 19  1  0  0  0  0
 16 15  1  0  0  0  0
 17 18  1  0  0  0  0
 18 16  1  0  0  0  0
 19 21  1  6  0  0  0
 21 20  2  0  0  0  0
 22 23  1  0  0  0  0
 22 19  1  0  0  0  0
 23 24  1  0  0  0  0
 24 27  1  0  0  0  0
 25 28  2  0  0  0  0
 27 28  1  0  0  0  0
 28 26  1  0  0  0  0
 29  7  1  0  0  0  0
 30 29  1  0  0  0  0
 31 30  1  0  0  0  0
M  END
>  <MODEL>
9

>  <REMARK>
 VINA RESULT:      -5.5      3.587      7.193
  Name = 
  12 active torsions:
  status: ('A' for Active; 'I' for Inactive)
    1  A    between atoms: C_4  and  O_14
    2  A    between atoms: C_4  and  C_19
    3  A    between atoms: N_5  and  C_26
    4  A    between atoms: N_5  and  C_28
    5  A    between atoms: C_6  and  C_19
    6  A    between atoms: C_6  and  N_20
    7  A    between atoms: C_6  and  C_28
    8  A    between atoms: C_8  and  N_18
    9  A    between atoms: C_16  and  N_18
   10  A    between atoms: N_17  and  C_22
   11  A    between atoms: C_22  and  C_26
   12  A    between atoms: C_24  and  C_28
                            x       y       z     vdW  Elec       q    Type
                         _______ _______ _______ _____ _____    ______ ____

>  <TORSDO>
F 12

$$$$
