=
 OpenBabel11042420113D

 30 32  0  0  1  0  0  0  0  0999 V2000
  160.9370  208.9870  155.4790 O   0  0  0  0  0  1  0  0  0  0  0  0
  160.8690  208.8030  153.0740 C   0  0  0  0  0  0  0  0  0  0  0  0
  161.4440  207.4980  153.1250 N   0  0  0  0  0  0  0  0  0  0  0  0
  160.5760  209.3040  151.9560 O   0  0  0  0  0  0  0  0  0  0  0  0
  161.9650  206.2380  152.4620 C   0  0  1  0  0  0  0  0  0  0  0  0
  161.1130  204.9570  152.5090 C   0  0  0  0  0  2  0  0  0  0  0  0
  160.7910  205.9680  151.5040 C   0  0  2  0  0  3  0  0  0  0  0  0
  160.6310  209.5360  154.2800 N   0  0  0  0  0  0  0  0  0  0  0  0
  162.0050  206.3580  153.8450 C   0  0  0  0  0  2  0  0  0  0  0  0
  161.0360  204.3060  149.6220 C   0  0  0  0  0  0  0  0  0  0  0  0
  161.3240  205.5760  150.2080 N   0  0  0  0  0  2  0  0  0  0  0  0
  160.2240  202.2650  149.3740 N   0  0  0  0  0  2  0  0  0  0  0  0
  160.8890  202.5510  148.1460 C   0  0  0  0  0  0  0  0  0  0  0  0
  160.3340  203.3890  150.2060 N   0  0  0  0  0  0  0  0  0  0  0  0
  161.4430  201.6080  147.4600 N   0  0  0  0  0  2  0  0  0  0  0  0
  162.0080  204.6780  147.4140 N   0  0  0  0  0  0  0  0  0  0  0  0
  161.4490  203.8950  148.2910 C   0  0  0  0  0  0  0  0  0  0  0  0
  162.3180  204.4130  146.0360 C   0  0  0  0  0  0  0  0  0  0  0  0
  163.4880  204.1160  145.6700 O   0  0  0  0  0  0  0  0  0  0  0  0
  161.2400  204.4660  145.0300 C   0  0  0  0  0  0  0  0  0  0  0  0
  160.5670  203.4350  144.7700 O   0  0  0  0  0  0  0  0  0  0  0  0
  160.0280  206.4730  145.1390 F   0  0  0  0  0  0  0  0  0  0  0  0
  160.8990  205.7480  144.3470 C   0  0  0  0  0  2  0  0  0  0  0  0
  160.1330  210.9050  154.2330 C   0  0  0  0  0  2  0  0  0  0  0  0
  158.8240  211.0200  154.9960 C   0  0  0  0  0  2  0  0  0  0  0  0
  157.7390  211.2960  154.0710 N   0  0  0  0  0  2  0  0  0  0  0  0
  155.5240  212.9880  154.4740 O   0  0  0  0  0  0  0  0  0  0  0  0
  156.6500  211.7300  156.4760 O   0  0  0  0  0  1  0  0  0  0  0  0
  156.2910  211.5810  155.0160 P   0  0  0  0  0  0  0  0  0  0  0  0
  155.2460  210.2660  154.8310 O   0  0  0  0  0  1  0  0  0  0  0  0
  2  3  1  0  0  0  0
  2  8  1  0  0  0  0
  3  9  1  0  0  0  0
  4  2  2  0  0  0  0
  5  6  1  1  0  0  0
  5  3  1  0  0  0  0
  5  9  1  0  0  0  0
  7 11  1  6  0  0  0
  7  5  1  0  0  0  0
  7  6  1  0  0  0  0
  8  1  1  0  0  0  0
 10 14  2  0  0  0  0
 10 11  1  0  0  0  0
 12 14  1  0  0  0  0
 13 17  1  0  0  0  0
 13 12  1  0  0  0  0
 15 13  2  0  0  0  0
 16 17  2  0  0  0  0
 17 10  1  0  0  0  0
 18 16  1  0  0  0  0
 19 18  2  0  0  0  0
 20 18  1  0  0  0  0
 21 20  2  0  0  0  0
 23 20  1  0  0  0  0
 23 22  1  0  0  0  0
 24  8  1  0  0  0  0
 24 25  1  0  0  0  0
 26 25  1  0  0  0  0
 26 29  1  0  0  0  0
 27 29  2  0  0  0  0
 29 28  1  0  0  0  0
 30 29  1  0  0  0  0
M  END
>  <MODEL>
1

>  <REMARK>
 VINA RESULT:      -7.3      0.000      0.000
  Name = 
  8 active torsions:
  status: ('A' for Active; 'I' for Inactive)
    1  A    between atoms: C_2  and  C_13
    2  A    between atoms: C_2  and  N_29
    3  A    between atoms: C_3  and  C_12
    4  A    between atoms: C_3  and  N_19
    5  A    between atoms: N_4  and  C_25
    6  A    between atoms: N_8  and  C_13
    7  A    between atoms: N_8  and  P_24
    8  A    between atoms: C_12  and  C_27
                            x       y       z     vdW  Elec       q    Type
                         _______ _______ _______ _____ _____    ______ ____

>  <TORSDO>
F 8

$$$$
=
 OpenBabel11042420113D

 30 32  0  0  1  0  0  0  0  0999 V2000
  160.7070  200.8350  148.6730 O   0  0  0  0  0  1  0  0  0  0  0  0
  160.9040  203.2400  148.7280 C   0  0  0  0  0  0  0  0  0  0  0  0
  160.8550  203.2440  150.1540 N   0  0  0  0  0  0  0  0  0  0  0  0
  161.0190  204.3330  148.1130 O   0  0  0  0  0  0  0  0  0  0  0  0
  160.8590  203.9570  151.4920 C   0  0  1  0  0  0  0  0  0  0  0  0
  162.1260  203.9080  152.3660 C   0  0  0  0  0  2  0  0  0  0  0  0
  162.0740  204.8750  151.2710 C   0  0  2  0  0  3  0  0  0  0  0  0
  160.8200  202.0080  148.0050 N   0  0  0  0  0  0  0  0  0  0  0  0
  160.7400  202.5740  151.4470 C   0  0  0  0  0  2  0  0  0  0  0  0
  161.8510  207.3690  150.9700 C   0  0  0  0  0  0  0  0  0  0  0  0
  161.7610  206.1990  151.7840 N   0  0  0  0  0  2  0  0  0  0  0  0
  162.2290  208.6600  149.2150 N   0  0  0  0  0  2  0  0  0  0  0  0
  161.7000  209.5330  150.2090 C   0  0  0  0  0  0  0  0  0  0  0  0
  162.2640  207.3600  149.7440 N   0  0  0  0  0  0  0  0  0  0  0  0
  162.0600  210.7710  150.2610 N   0  0  0  0  0  2  0  0  0  0  0  0
  160.8370  208.9770  152.5030 N   0  0  0  0  0  0  0  0  0  0  0  0
  161.4540  208.7030  151.3900 C   0  0  0  0  0  0  0  0  0  0  0  0
  160.2760  210.2250  152.9410 C   0  0  0  0  0  0  0  0  0  0  0  0
  159.3190  210.7690  152.3230 O   0  0  0  0  0  0  0  0  0  0  0  0
  160.8120  210.8730  154.1520 C   0  0  0  0  0  0  0  0  0  0  0  0
  162.0440  210.8170  154.4070 O   0  0  0  0  0  0  0  0  0  0  0  0
  158.7440  210.9390  155.2600 F   0  0  0  0  0  0  0  0  0  0  0  0
  159.9170  211.6450  155.0620 C   0  0  0  0  0  2  0  0  0  0  0  0
  160.7720  202.0010  146.5480 C   0  0  0  0  0  2  0  0  0  0  0  0
  161.5300  203.1930  145.9880 C   0  0  0  0  0  2  0  0  0  0  0  0
  160.8500  203.6990  144.8090 N   0  0  0  0  0  2  0  0  0  0  0  0
  159.9790  206.3370  145.2710 O   0  0  0  0  0  1  0  0  0  0  0  0
  161.4640  205.7440  143.1970 O   0  0  0  0  0  0  0  0  0  0  0  0
  161.2430  205.3990  144.6520 P   0  0  0  0  0  0  0  0  0  0  0  0
  162.6570  205.7190  145.5200 O   0  0  0  0  0  1  0  0  0  0  0  0
  2  3  1  0  0  0  0
  3  9  1  0  0  0  0
  3  5  1  0  0  0  0
  4  2  2  0  0  0  0
  5  9  1  1  0  0  0
  5  6  1  0  0  0  0
  7  5  1  0  0  0  0
  7 11  1  1  0  0  0
  7  6  1  0  0  0  0
  8  1  1  0  0  0  0
  8  2  1  0  0  0  0
 10 17  1  0  0  0  0
 10 11  1  0  0  0  0
 12 14  1  0  0  0  0
 12 13  1  0  0  0  0
 13 15  2  0  0  0  0
 13 17  1  0  0  0  0
 14 10  2  0  0  0  0
 16 18  1  0  0  0  0
 17 16  2  0  0  0  0
 18 20  1  0  0  0  0
 19 18  2  0  0  0  0
 20 21  2  0  0  0  0
 20 23  1  0  0  0  0
 23 22  1  0  0  0  0
 24  8  1  0  0  0  0
 25 24  1  0  0  0  0
 26 25  1  0  0  0  0
 28 29  2  0  0  0  0
 29 26  1  0  0  0  0
 29 27  1  0  0  0  0
 29 30  1  0  0  0  0
M  END
>  <MODEL>
2

>  <REMARK>
 VINA RESULT:      -6.9      3.941      9.241
  Name = 
  8 active torsions:
  status: ('A' for Active; 'I' for Inactive)
    1  A    between atoms: C_2  and  C_13
    2  A    between atoms: C_2  and  N_29
    3  A    between atoms: C_3  and  C_12
    4  A    between atoms: C_3  and  N_19
    5  A    between atoms: N_4  and  C_25
    6  A    between atoms: N_8  and  C_13
    7  A    between atoms: N_8  and  P_24
    8  A    between atoms: C_12  and  C_27
                            x       y       z     vdW  Elec       q    Type
                         _______ _______ _______ _____ _____    ______ ____

>  <TORSDO>
F 8

$$$$
=
 OpenBabel11042420113D

 30 32  0  0  1  0  0  0  0  0999 V2000
  161.8480  205.0350  151.3930 O   0  0  0  0  0  1  0  0  0  0  0  0
  161.1070  207.3190  151.6240 C   0  0  0  0  0  0  0  0  0  0  0  0
  160.8880  207.1420  153.0220 N   0  0  0  0  0  0  0  0  0  0  0  0
  160.8710  208.4410  151.1000 O   0  0  0  0  0  0  0  0  0  0  0  0
  160.4600  207.6480  154.3850 C   0  0  1  0  0  0  0  0  0  0  0  0
  161.5340  207.9700  155.4400 C   0  0  0  0  0  2  0  0  0  0  0  0
  161.2510  208.9680  154.4100 C   0  0  2  0  0  3  0  0  0  0  0  0
  161.5850  206.2340  150.8220 N   0  0  0  0  0  0  0  0  0  0  0  0
  160.8810  206.3340  154.2380 C   0  0  0  0  0  2  0  0  0  0  0  0
  159.6520  210.8950  154.1050 C   0  0  0  0  0  0  0  0  0  0  0  0
  160.3980  210.0160  154.9480 N   0  0  0  0  0  2  0  0  0  0  0  0
  158.8590  211.8470  152.2740 N   0  0  0  0  0  2  0  0  0  0  0  0
  158.1860  212.4950  153.3500 C   0  0  0  0  0  0  0  0  0  0  0  0
  159.7110  210.8710  152.8130 N   0  0  0  0  0  0  0  0  0  0  0  0
  157.8190  213.7290  153.2520 N   0  0  0  0  0  2  0  0  0  0  0  0
  158.3110  212.0120  155.8130 N   0  0  0  0  0  0  0  0  0  0  0  0
  158.7050  211.8910  154.5770 C   0  0  0  0  0  0  0  0  0  0  0  0
  157.2820  212.8560  156.3530 C   0  0  0  0  0  0  0  0  0  0  0  0
  157.5360  214.0200  156.7710 O   0  0  0  0  0  0  0  0  0  0  0  0
  155.8920  212.3630  156.3970 C   0  0  0  0  0  0  0  0  0  0  0  0
  154.9650  213.1190  156.7890 O   0  0  0  0  0  0  0  0  0  0  0  0
  155.3770  210.9950  154.5610 F   0  0  0  0  0  0  0  0  0  0  0  0
  155.5590  210.9850  155.9320 C   0  0  0  0  0  2  0  0  0  0  0  0
  161.7200  206.3780  149.3780 C   0  0  0  0  0  2  0  0  0  0  0  0
  160.8110  205.3940  148.6600 C   0  0  0  0  0  2  0  0  0  0  0  0
  161.6020  204.3140  148.0980 N   0  0  0  0  0  2  0  0  0  0  0  0
  160.8960  205.9970  145.9530 O   0  0  0  0  0  1  0  0  0  0  0  0
  161.2350  203.4230  145.6020 O   0  0  0  0  0  0  0  0  0  0  0  0
  161.7640  204.6080  146.3780 P   0  0  0  0  0  0  0  0  0  0  0  0
  163.3970  204.8310  146.0080 O   0  0  0  0  0  1  0  0  0  0  0  0
  2  3  1  0  0  0  0
  3  9  1  0  0  0  0
  3  5  1  0  0  0  0
  4  2  2  0  0  0  0
  5  9  1  1  0  0  0
  5  7  1  0  0  0  0
  5  6  1  0  0  0  0
  7 11  1  1  0  0  0
  7  6  1  0  0  0  0
  8  1  1  0  0  0  0
  8  2  1  0  0  0  0
 10 17  1  0  0  0  0
 10 11  1  0  0  0  0
 12 14  1  0  0  0  0
 12 13  1  0  0  0  0
 13 17  1  0  0  0  0
 14 10  2  0  0  0  0
 15 13  2  0  0  0  0
 16 18  1  0  0  0  0
 17 16  2  0  0  0  0
 18 20  1  0  0  0  0
 18 19  2  0  0  0  0
 20 21  2  0  0  0  0
 22 23  1  0  0  0  0
 23 20  1  0  0  0  0
 24  8  1  0  0  0  0
 25 24  1  0  0  0  0
 26 25  1  0  0  0  0
 27 29  1  0  0  0  0
 28 29  2  0  0  0  0
 29 26  1  0  0  0  0
 30 29  1  0  0  0  0
M  END
>  <MODEL>
3

>  <REMARK>
 VINA RESULT:      -6.7      3.782     10.224
  Name = 
  8 active torsions:
  status: ('A' for Active; 'I' for Inactive)
    1  A    between atoms: C_2  and  C_13
    2  A    between atoms: C_2  and  N_29
    3  A    between atoms: C_3  and  C_12
    4  A    between atoms: C_3  and  N_19
    5  A    between atoms: N_4  and  C_25
    6  A    between atoms: N_8  and  C_13
    7  A    between atoms: N_8  and  P_24
    8  A    between atoms: C_12  and  C_27
                            x       y       z     vdW  Elec       q    Type
                         _______ _______ _______ _____ _____    ______ ____

>  <TORSDO>
F 8

$$$$
=
 OpenBabel11042420113D

 30 32  0  0  1  0  0  0  0  0999 V2000
  161.5320  203.7220  149.5270 O   0  0  0  0  0  1  0  0  0  0  0  0
  160.9070  205.9810  150.0980 C   0  0  0  0  0  0  0  0  0  0  0  0
  160.9180  205.6680  151.4900 N   0  0  0  0  0  0  0  0  0  0  0  0
  160.6210  207.1530  149.7320 O   0  0  0  0  0  0  0  0  0  0  0  0
  160.7360  206.0410  152.9480 C   0  0  1  0  0  0  0  0  0  0  0  0
  161.9790  206.2420  153.8330 C   0  0  0  0  0  2  0  0  0  0  0  0
  161.5590  207.3410  152.9670 C   0  0  2  0  0  3  0  0  0  0  0  0
  161.2150  204.9760  149.1270 N   0  0  0  0  0  0  0  0  0  0  0  0
  161.0890  204.7420  152.6060 C   0  0  0  0  0  2  0  0  0  0  0  0
  160.5540  209.6410  153.2190 C   0  0  0  0  0  0  0  0  0  0  0  0
  160.8380  208.3420  153.7390 N   0  0  0  0  0  2  0  0  0  0  0  0
  160.5090  211.3650  151.8360 N   0  0  0  0  0  2  0  0  0  0  0  0
  159.7250  211.7680  152.9550 C   0  0  0  0  0  0  0  0  0  0  0  0
  160.9530  210.0530  152.0590 N   0  0  0  0  0  0  0  0  0  0  0  0
  159.6720  213.0070  153.3130 N   0  0  0  0  0  2  0  0  0  0  0  0
  159.0740  210.4420  154.9880 N   0  0  0  0  0  0  0  0  0  0  0  0
  159.7510  210.6460  153.8950 C   0  0  0  0  0  0  0  0  0  0  0  0
  158.1430  211.3140  155.6490 C   0  0  0  0  0  0  0  0  0  0  0  0
  158.4960  212.0390  156.6200 O   0  0  0  0  0  0  0  0  0  0  0  0
  156.7510  211.3830  155.1680 C   0  0  0  0  0  0  0  0  0  0  0  0
  155.9540  210.4350  155.3970 O   0  0  0  0  0  0  0  0  0  0  0  0
  155.8570  213.5440  155.3730 F   0  0  0  0  0  0  0  0  0  0  0  0
  156.2530  212.5930  154.4500 C   0  0  0  0  0  2  0  0  0  0  0  0
  161.1130  205.2610  147.7010 C   0  0  0  0  0  2  0  0  0  0  0  0
  162.2940  204.6630  146.9550 C   0  0  0  0  0  2  0  0  0  0  0  0
  162.5680  205.4440  145.7620 N   0  0  0  0  0  2  0  0  0  0  0  0
  160.6690  203.6410  144.7260 O   0  0  0  0  0  1  0  0  0  0  0  0
  161.6400  205.5790  143.2560 O   0  0  0  0  0  0  0  0  0  0  0  0
  161.2150  205.2410  144.6670 P   0  0  0  0  0  0  0  0  0  0  0  0
  159.9670  206.2780  145.1360 O   0  0  0  0  0  1  0  0  0  0  0  0
  2  3  1  0  0  0  0
  3  9  1  0  0  0  0
  3  5  1  0  0  0  0
  4  2  2  0  0  0  0
  5  9  1  1  0  0  0
  5  7  1  0  0  0  0
  5  6  1  0  0  0  0
  7 11  1  1  0  0  0
  7  6  1  0  0  0  0
  8  1  1  0  0  0  0
  8  2  1  0  0  0  0
 10 11  1  0  0  0  0
 10 17  1  0  0  0  0
 12 14  1  0  0  0  0
 12 13  1  0  0  0  0
 13 15  2  0  0  0  0
 13 17  1  0  0  0  0
 14 10  2  0  0  0  0
 16 18  1  0  0  0  0
 17 16  2  0  0  0  0
 18 19  2  0  0  0  0
 20 21  2  0  0  0  0
 20 18  1  0  0  0  0
 23 20  1  0  0  0  0
 23 22  1  0  0  0  0
 24  8  1  0  0  0  0
 25 24  1  0  0  0  0
 26 25  1  0  0  0  0
 28 29  2  0  0  0  0
 29 27  1  0  0  0  0
 29 30  1  0  0  0  0
 29 26  1  0  0  0  0
M  END
>  <MODEL>
4

>  <REMARK>
 VINA RESULT:      -6.6      3.932      9.909
  Name = 
  8 active torsions:
  status: ('A' for Active; 'I' for Inactive)
    1  A    between atoms: C_2  and  C_13
    2  A    between atoms: C_2  and  N_29
    3  A    between atoms: C_3  and  C_12
    4  A    between atoms: C_3  and  N_19
    5  A    between atoms: N_4  and  C_25
    6  A    between atoms: N_8  and  C_13
    7  A    between atoms: N_8  and  P_24
    8  A    between atoms: C_12  and  C_27
                            x       y       z     vdW  Elec       q    Type
                         _______ _______ _______ _____ _____    ______ ____

>  <TORSDO>
F 8

$$$$
=
 OpenBabel11042420113D

 30 32  0  0  1  0  0  0  0  0999 V2000
  159.9780  212.2460  154.8960 O   0  0  0  0  0  1  0  0  0  0  0  0
  160.3920  209.9160  154.4250 C   0  0  0  0  0  0  0  0  0  0  0  0
  160.6150  210.2000  153.0450 N   0  0  0  0  0  0  0  0  0  0  0  0
  160.4830  208.7270  154.8320 O   0  0  0  0  0  0  0  0  0  0  0  0
  160.9360  209.7760  151.6250 C   0  0  1  0  0  0  0  0  0  0  0  0
  162.3360  210.0620  151.0530 C   0  0  0  0  0  2  0  0  0  0  0  0
  162.1620  208.8910  151.9100 C   0  0  2  0  0  3  0  0  0  0  0  0
  160.0640  210.9690  155.3370 N   0  0  0  0  0  0  0  0  0  0  0  0
  160.6890  211.1130  151.9070 C   0  0  0  0  0  2  0  0  0  0  0  0
  161.7040  206.4240  151.6600 C   0  0  0  0  0  0  0  0  0  0  0  0
  162.0700  207.6860  151.1020 N   0  0  0  0  0  2  0  0  0  0  0  0
  161.1350  204.8940  153.1520 N   0  0  0  0  0  2  0  0  0  0  0  0
  161.1050  204.2180  151.8980 C   0  0  0  0  0  0  0  0  0  0  0  0
  161.4800  206.2350  152.9210 N   0  0  0  0  0  0  0  0  0  0  0  0
  161.3860  202.9610  151.8190 N   0  0  0  0  0  2  0  0  0  0  0  0
  161.4710  205.1470  149.5920 N   0  0  0  0  0  0  0  0  0  0  0  0
  161.4930  205.2080  150.8930 C   0  0  0  0  0  0  0  0  0  0  0  0
  161.1280  204.0370  148.7470 C   0  0  0  0  0  0  0  0  0  0  0  0
  160.3850  203.1030  149.1560 O   0  0  0  0  0  0  0  0  0  0  0  0
  161.6350  203.9990  147.3620 C   0  0  0  0  0  0  0  0  0  0  0  0
  161.3590  203.0260  146.6130 O   0  0  0  0  0  0  0  0  0  0  0  0
  163.4850  204.6340  146.0630 F   0  0  0  0  0  0  0  0  0  0  0  0
  162.4370  205.1330  146.8150 C   0  0  0  0  0  2  0  0  0  0  0  0
  159.7400  210.6750  156.7280 C   0  0  0  0  0  2  0  0  0  0  0  0
  158.5890  211.5480  157.2000 C   0  0  0  0  0  2  0  0  0  0  0  0
  157.3820  211.2080  156.4680 N   0  0  0  0  0  2  0  0  0  0  0  0
  156.2520  212.7820  154.4240 O   0  0  0  0  0  0  0  0  0  0  0  0
  157.3930  213.8830  156.5090 O   0  0  0  0  0  1  0  0  0  0  0  0
  156.5490  212.7020  156.0870 P   0  0  0  0  0  0  0  0  0  0  0  0
  155.0810  212.7410  156.9220 O   0  0  0  0  0  1  0  0  0  0  0  0
  1  8  1  0  0  0  0
  2  4  2  0  0  0  0
  2  8  1  0  0  0  0
  3  2  1  0  0  0  0
  5  6  1  1  0  0  0
  5  9  1  0  0  0  0
  5  7  1  0  0  0  0
  5  3  1  0  0  0  0
  6  7  1  0  0  0  0
  7 11  1  6  0  0  0
  8 24  1  0  0  0  0
  9  3  1  0  0  0  0
 10 14  2  0  0  0  0
 11 10  1  0  0  0  0
 13 12  1  0  0  0  0
 14 12  1  0  0  0  0
 15 13  2  0  0  0  0
 16 17  2  0  0  0  0
 17 10  1  0  0  0  0
 17 13  1  0  0  0  0
 18 19  2  0  0  0  0
 18 16  1  0  0  0  0
 20 18  1  0  0  0  0
 21 20  2  0  0  0  0
 22 23  1  0  0  0  0
 23 20  1  0  0  0  0
 24 25  1  0  0  0  0
 26 25  1  0  0  0  0
 27 29  2  0  0  0  0
 29 26  1  0  0  0  0
 29 28  1  0  0  0  0
 29 30  1  0  0  0  0
M  END
>  <MODEL>
5

>  <REMARK>
 VINA RESULT:      -6.4      2.075      3.297
  Name = 
  8 active torsions:
  status: ('A' for Active; 'I' for Inactive)
    1  A    between atoms: C_2  and  C_13
    2  A    between atoms: C_2  and  N_29
    3  A    between atoms: C_3  and  C_12
    4  A    between atoms: C_3  and  N_19
    5  A    between atoms: N_4  and  C_25
    6  A    between atoms: N_8  and  C_13
    7  A    between atoms: N_8  and  P_24
    8  A    between atoms: C_12  and  C_27
                            x       y       z     vdW  Elec       q    Type
                         _______ _______ _______ _____ _____    ______ ____

>  <TORSDO>
F 8

$$$$
=
 OpenBabel11042420113D

 30 32  0  0  1  0  0  0  0  0999 V2000
  161.8440  209.1140  154.8970 O   0  0  0  0  0  1  0  0  0  0  0  0
  161.0580  208.5450  152.6870 C   0  0  0  0  0  0  0  0  0  0  0  0
  161.5970  207.2290  152.7990 N   0  0  0  0  0  0  0  0  0  0  0  0
  160.4550  208.8760  151.6320 O   0  0  0  0  0  0  0  0  0  0  0  0
  161.8720  205.8430  152.2480 C   0  0  1  0  0  0  0  0  0  0  0  0
  161.0480  204.6510  152.7660 C   0  0  0  0  0  2  0  0  0  0  0  0
  160.4610  205.5040  151.7350 C   0  0  2  0  0  3  0  0  0  0  0  0
  161.2050  209.4800  153.7610 N   0  0  0  0  0  0  0  0  0  0  0  0
  162.3250  206.1840  153.5150 C   0  0  0  0  0  2  0  0  0  0  0  0
  160.8150  205.6190  149.2400 C   0  0  0  0  0  0  0  0  0  0  0  0
  160.5760  204.8690  150.4310 N   0  0  0  0  0  2  0  0  0  0  0  0
  161.1450  207.3460  147.8990 N   0  0  0  0  0  2  0  0  0  0  0  0
  161.2720  206.1980  147.0630 C   0  0  0  0  0  0  0  0  0  0  0  0
  160.8960  206.9110  149.2090 N   0  0  0  0  0  0  0  0  0  0  0  0
  160.9360  206.2470  145.8180 N   0  0  0  0  0  2  0  0  0  0  0  0
  161.1990  203.7670  147.6960 N   0  0  0  0  0  0  0  0  0  0  0  0
  161.0430  205.0390  147.9270 C   0  0  0  0  0  0  0  0  0  0  0  0
  161.5700  203.1120  146.4730 C   0  0  0  0  0  0  0  0  0  0  0  0
  162.4800  203.5730  145.7290 O   0  0  0  0  0  0  0  0  0  0  0  0
  160.8930  201.8590  146.0900 C   0  0  0  0  0  0  0  0  0  0  0  0
  160.0750  201.8490  145.1320 O   0  0  0  0  0  0  0  0  0  0  0  0
  160.9160  200.7150  148.1400 F   0  0  0  0  0  0  0  0  0  0  0  0
  161.2030  200.5800  146.7930 C   0  0  0  0  0  2  0  0  0  0  0  0
  160.7420  210.8550  153.6190 C   0  0  0  0  0  2  0  0  0  0  0  0
  159.6290  211.1450  154.6110 C   0  0  0  0  0  2  0  0  0  0  0  0
  158.3740  211.3280  153.9030 N   0  0  0  0  0  2  0  0  0  0  0  0
  157.3500  213.6090  155.1990 O   0  0  0  0  0  1  0  0  0  0  0  0
  157.4100  211.2810  156.3980 O   0  0  0  0  0  1  0  0  0  0  0  0
  157.1950  211.9310  155.0510 P   0  0  0  0  0  0  0  0  0  0  0  0
  155.6440  211.5570  154.4940 O   0  0  0  0  0  0  0  0  0  0  0  0
  2  3  1  0  0  0  0
  2  8  1  0  0  0  0
  3  9  1  0  0  0  0
  4  2  2  0  0  0  0
  5  6  1  1  0  0  0
  5  3  1  0  0  0  0
  5  9  1  0  0  0  0
  7 11  1  6  0  0  0
  7  5  1  0  0  0  0
  7  6  1  0  0  0  0
  8  1  1  0  0  0  0
 10 11  1  0  0  0  0
 12 14  1  0  0  0  0
 13 12  1  0  0  0  0
 13 17  1  0  0  0  0
 14 10  2  0  0  0  0
 15 13  2  0  0  0  0
 16 17  2  0  0  0  0
 17 10  1  0  0  0  0
 18 16  1  0  0  0  0
 19 18  2  0  0  0  0
 20 18  1  0  0  0  0
 20 23  1  0  0  0  0
 21 20  2  0  0  0  0
 23 22  1  0  0  0  0
 24  8  1  0  0  0  0
 24 25  1  0  0  0  0
 26 25  1  0  0  0  0
 26 29  1  0  0  0  0
 29 27  1  0  0  0  0
 29 28  1  0  0  0  0
 30 29  2  0  0  0  0
M  END
>  <MODEL>
6

>  <REMARK>
 VINA RESULT:      -6.3      1.843      2.528
  Name = 
  8 active torsions:
  status: ('A' for Active; 'I' for Inactive)
    1  A    between atoms: C_2  and  C_13
    2  A    between atoms: C_2  and  N_29
    3  A    between atoms: C_3  and  C_12
    4  A    between atoms: C_3  and  N_19
    5  A    between atoms: N_4  and  C_25
    6  A    between atoms: N_8  and  C_13
    7  A    between atoms: N_8  and  P_24
    8  A    between atoms: C_12  and  C_27
                            x       y       z     vdW  Elec       q    Type
                         _______ _______ _______ _____ _____    ______ ____

>  <TORSDO>
F 8

$$$$
=
 OpenBabel11042420113D

 30 32  0  0  1  0  0  0  0  0999 V2000
  161.2900  208.5890  155.3880 O   0  0  0  0  0  1  0  0  0  0  0  0
  160.7320  208.2480  153.0650 C   0  0  0  0  0  0  0  0  0  0  0  0
  161.4640  207.0230  153.0350 N   0  0  0  0  0  0  0  0  0  0  0  0
  160.1470  208.6410  152.0210 O   0  0  0  0  0  0  0  0  0  0  0  0
  161.9840  205.7910  152.3210 C   0  0  1  0  0  0  0  0  0  0  0  0
  161.3290  204.4270  152.6010 C   0  0  0  0  0  2  0  0  0  0  0  0
  160.6760  205.3300  151.6550 C   0  0  2  0  0  3  0  0  0  0  0  0
  160.6680  209.0230  154.2660 N   0  0  0  0  0  0  0  0  0  0  0  0
  162.3040  206.0020  153.6560 C   0  0  0  0  0  2  0  0  0  0  0  0
  160.8960  203.5550  149.8760 C   0  0  0  0  0  0  0  0  0  0  0  0
  160.9640  204.9200  150.2890 N   0  0  0  0  0  2  0  0  0  0  0  0
  160.6280  201.3630  149.9720 N   0  0  0  0  0  2  0  0  0  0  0  0
  160.8740  201.6460  148.5970 C   0  0  0  0  0  0  0  0  0  0  0  0
  160.6300  202.5750  150.6780 N   0  0  0  0  0  0  0  0  0  0  0  0
  161.4780  200.7890  147.8430 N   0  0  0  0  0  2  0  0  0  0  0  0
  161.1670  203.8730  147.4700 N   0  0  0  0  0  0  0  0  0  0  0  0
  161.0690  203.0940  148.5090 C   0  0  0  0  0  0  0  0  0  0  0  0
  161.1930  203.5210  146.0770 C   0  0  0  0  0  0  0  0  0  0  0  0
  160.8810  202.3630  145.6850 O   0  0  0  0  0  0  0  0  0  0  0  0
  161.5680  204.5420  145.0810 C   0  0  0  0  0  0  0  0  0  0  0  0
  160.8860  204.6830  144.0320 O   0  0  0  0  0  0  0  0  0  0  0  0
  163.7200  204.7640  145.9930 F   0  0  0  0  0  0  0  0  0  0  0  0
  162.7250  205.4530  145.3230 C   0  0  0  0  0  2  0  0  0  0  0  0
  160.0040  210.3210  154.2800 C   0  0  0  0  0  2  0  0  0  0  0  0
  160.8650  211.3640  153.5870 C   0  0  0  0  0  2  0  0  0  0  0  0
  160.0780  212.0700  152.5920 N   0  0  0  0  0  2  0  0  0  0  0  0
  157.4310  212.3870  153.5000 O   0  0  0  0  0  1  0  0  0  0  0  0
  158.8550  214.4460  152.7300 O   0  0  0  0  0  0  0  0  0  0  0  0
  158.9560  213.1150  153.4410 P   0  0  0  0  0  0  0  0  0  0  0  0
  159.5200  213.3660  155.0130 O   0  0  0  0  0  1  0  0  0  0  0  0
  2  8  1  0  0  0  0
  3  2  1  0  0  0  0
  3  9  1  0  0  0  0
  4  2  2  0  0  0  0
  5  6  1  1  0  0  0
  5  3  1  0  0  0  0
  5  9  1  0  0  0  0
  7 11  1  6  0  0  0
  7  5  1  0  0  0  0
  7  6  1  0  0  0  0
  8 24  1  0  0  0  0
  8  1  1  0  0  0  0
 10 11  1  0  0  0  0
 10 14  2  0  0  0  0
 12 14  1  0  0  0  0
 13 12  1  0  0  0  0
 15 13  2  0  0  0  0
 16 17  2  0  0  0  0
 17 13  1  0  0  0  0
 17 10  1  0  0  0  0
 18 16  1  0  0  0  0
 19 18  2  0  0  0  0
 20 23  1  0  0  0  0
 20 18  1  0  0  0  0
 21 20  2  0  0  0  0
 23 22  1  0  0  0  0
 25 24  1  0  0  0  0
 26 29  1  0  0  0  0
 26 25  1  0  0  0  0
 28 29  2  0  0  0  0
 29 27  1  0  0  0  0
 29 30  1  0  0  0  0
M  END
>  <MODEL>
7

>  <REMARK>
 VINA RESULT:      -5.8      1.751      2.101
  Name = 
  8 active torsions:
  status: ('A' for Active; 'I' for Inactive)
    1  A    between atoms: C_2  and  C_13
    2  A    between atoms: C_2  and  N_29
    3  A    between atoms: C_3  and  C_12
    4  A    between atoms: C_3  and  N_19
    5  A    between atoms: N_4  and  C_25
    6  A    between atoms: N_8  and  C_13
    7  A    between atoms: N_8  and  P_24
    8  A    between atoms: C_12  and  C_27
                            x       y       z     vdW  Elec       q    Type
                         _______ _______ _______ _____ _____    ______ ____

>  <TORSDO>
F 8

$$$$
=
 OpenBabel11042420113D

 30 32  0  0  1  0  0  0  0  0999 V2000
  160.7400  211.0210  153.9020 O   0  0  0  0  0  1  0  0  0  0  0  0
  160.8240  208.6430  153.4990 C   0  0  0  0  0  0  0  0  0  0  0  0
  161.0450  208.8540  152.1050 N   0  0  0  0  0  0  0  0  0  0  0  0
  160.7670  207.4650  153.9420 O   0  0  0  0  0  0  0  0  0  0  0  0
  161.2670  208.3490  150.6930 C   0  0  1  0  0  0  0  0  0  0  0  0
  162.6760  208.4270  150.0790 C   0  0  0  0  0  2  0  0  0  0  0  0
  162.3710  207.3160  150.9780 C   0  0  2  0  0  3  0  0  0  0  0  0
  160.6660  209.7570  154.3830 N   0  0  0  0  0  0  0  0  0  0  0  0
  161.2090  209.7150  150.9370 C   0  0  0  0  0  2  0  0  0  0  0  0
  161.5970  204.9200  150.8240 C   0  0  0  0  0  0  0  0  0  0  0  0
  162.0950  206.1110  150.2120 N   0  0  0  0  0  2  0  0  0  0  0  0
  160.9010  203.5160  152.3830 N   0  0  0  0  0  2  0  0  0  0  0  0
  160.7350  202.8160  151.1530 C   0  0  0  0  0  0  0  0  0  0  0  0
  161.4020  204.7950  152.0970 N   0  0  0  0  0  0  0  0  0  0  0  0
  160.8530  201.5310  151.1040 N   0  0  0  0  0  2  0  0  0  0  0  0
  161.1210  203.6280  148.8070 N   0  0  0  0  0  0  0  0  0  0  0  0
  161.2030  203.7210  150.1030 C   0  0  0  0  0  0  0  0  0  0  0  0
  160.6080  202.5490  148.0100 C   0  0  0  0  0  0  0  0  0  0  0  0
  159.8060  201.7010  148.4900 O   0  0  0  0  0  0  0  0  0  0  0  0
  161.0070  202.4420  146.5940 C   0  0  0  0  0  0  0  0  0  0  0  0
  160.8260  201.3670  145.9650 O   0  0  0  0  0  0  0  0  0  0  0  0
  160.7660  203.9470  144.8090 F   0  0  0  0  0  0  0  0  0  0  0  0
  161.5820  203.6170  145.8760 C   0  0  0  0  0  2  0  0  0  0  0  0
  160.3450  209.5520  155.7910 C   0  0  0  0  0  2  0  0  0  0  0  0
  159.5030  210.7020  156.3160 C   0  0  0  0  0  2  0  0  0  0  0  0
  158.1630  210.6240  155.7620 N   0  0  0  0  0  2  0  0  0  0  0  0
  156.4710  212.6600  156.7230 O   0  0  0  0  0  1  0  0  0  0  0  0
  156.9340  212.3800  154.1610 O   0  0  0  0  0  0  0  0  0  0  0  0
  157.5890  212.2610  155.5180 P   0  0  0  0  0  0  0  0  0  0  0  0
  158.9010  213.3230  155.5970 O   0  0  0  0  0  1  0  0  0  0  0  0
  1  8  1  0  0  0  0
  2  4  2  0  0  0  0
  2  8  1  0  0  0  0
  3  2  1  0  0  0  0
  5  6  1  1  0  0  0
  5  9  1  0  0  0  0
  5  7  1  0  0  0  0
  5  3  1  0  0  0  0
  6  7  1  0  0  0  0
  7 11  1  6  0  0  0
  8 24  1  0  0  0  0
  9  3  1  0  0  0  0
 10 14  2  0  0  0  0
 11 10  1  0  0  0  0
 13 12  1  0  0  0  0
 14 12  1  0  0  0  0
 15 13  2  0  0  0  0
 16 17  2  0  0  0  0
 17 10  1  0  0  0  0
 17 13  1  0  0  0  0
 18 19  2  0  0  0  0
 18 16  1  0  0  0  0
 20 18  1  0  0  0  0
 21 20  2  0  0  0  0
 22 23  1  0  0  0  0
 23 20  1  0  0  0  0
 24 25  1  0  0  0  0
 26 25  1  0  0  0  0
 28 29  2  0  0  0  0
 29 30  1  0  0  0  0
 29 26  1  0  0  0  0
 29 27  1  0  0  0  0
M  END
>  <MODEL>
8

>  <REMARK>
 VINA RESULT:      -5.7      2.025      2.791
  Name = 
  8 active torsions:
  status: ('A' for Active; 'I' for Inactive)
    1  A    between atoms: C_2  and  C_13
    2  A    between atoms: C_2  and  N_29
    3  A    between atoms: C_3  and  C_12
    4  A    between atoms: C_3  and  N_19
    5  A    between atoms: N_4  and  C_25
    6  A    between atoms: N_8  and  C_13
    7  A    between atoms: N_8  and  P_24
    8  A    between atoms: C_12  and  C_27
                            x       y       z     vdW  Elec       q    Type
                         _______ _______ _______ _____ _____    ______ ____

>  <TORSDO>
F 8

$$$$
=
 OpenBabel11042420113D

 30 32  0  0  1  0  0  0  0  0999 V2000
  160.5350  211.8500  154.8520 O   0  0  0  0  0  1  0  0  0  0  0  0
  160.2410  211.0630  152.5900 C   0  0  0  0  0  0  0  0  0  0  0  0
  161.1610  209.9940  152.8070 N   0  0  0  0  0  0  0  0  0  0  0  0
  159.6910  211.1840  151.4620 O   0  0  0  0  0  0  0  0  0  0  0  0
  161.9320  208.7760  152.3390 C   0  0  1  0  0  0  0  0  0  0  0  0
  161.4850  207.3780  152.8030 C   0  0  0  0  0  2  0  0  0  0  0  0
  160.7780  207.9980  151.6830 C   0  0  2  0  0  3  0  0  0  0  0  0
  159.9500  211.9910  153.6390 N   0  0  0  0  0  0  0  0  0  0  0  0
  162.0990  209.2420  153.6360 C   0  0  0  0  0  2  0  0  0  0  0  0
  161.0540  206.0640  150.0870 C   0  0  0  0  0  0  0  0  0  0  0  0
  161.2440  207.4390  150.4240 N   0  0  0  0  0  2  0  0  0  0  0  0
  160.4570  203.9430  150.2600 N   0  0  0  0  0  2  0  0  0  0  0  0
  160.9850  204.0730  148.9420 C   0  0  0  0  0  0  0  0  0  0  0  0
  160.5080  205.2000  150.8800 N   0  0  0  0  0  0  0  0  0  0  0  0
  161.5830  203.0830  148.3690 N   0  0  0  0  0  2  0  0  0  0  0  0
  161.7960  206.1380  147.7610 N   0  0  0  0  0  0  0  0  0  0  0  0
  161.4010  205.4690  148.8070 C   0  0  0  0  0  0  0  0  0  0  0  0
  162.0200  205.6680  146.4220 C   0  0  0  0  0  0  0  0  0  0  0  0
  163.1600  205.2810  146.0430 O   0  0  0  0  0  0  0  0  0  0  0  0
  160.8890  205.6130  145.4770 C   0  0  0  0  0  0  0  0  0  0  0  0
  160.0500  206.5510  145.4380 O   0  0  0  0  0  0  0  0  0  0  0  0
  160.6510  203.2910  145.2280 F   0  0  0  0  0  0  0  0  0  0  0  0
  160.7510  204.4760  144.5210 C   0  0  0  0  0  2  0  0  0  0  0  0
  159.0860  213.1410  153.3980 C   0  0  0  0  0  2  0  0  0  0  0  0
  158.5420  213.6790  154.7110 C   0  0  0  0  0  2  0  0  0  0  0  0
  157.8600  212.6190  155.4320 N   0  0  0  0  0  2  0  0  0  0  0  0
  155.5290  213.2160  153.9680 O   0  0  0  0  0  0  0  0  0  0  0  0
  155.9980  214.3380  156.2880 O   0  0  0  0  0  1  0  0  0  0  0  0
  156.1620  213.0420  155.5270 P   0  0  0  0  0  0  0  0  0  0  0  0
  155.3330  211.8130  156.3360 O   0  0  0  0  0  1  0  0  0  0  0  0
  2  3  1  0  0  0  0
  2  8  1  0  0  0  0
  3  9  1  0  0  0  0
  4  2  2  0  0  0  0
  5  6  1  1  0  0  0
  5  3  1  0  0  0  0
  5  9  1  0  0  0  0
  7 11  1  6  0  0  0
  7  5  1  0  0  0  0
  7  6  1  0  0  0  0
  8  1  1  0  0  0  0
 10 11  1  0  0  0  0
 10 14  2  0  0  0  0
 12 14  1  0  0  0  0
 13 12  1  0  0  0  0
 15 13  2  0  0  0  0
 16 17  2  0  0  0  0
 17 13  1  0  0  0  0
 17 10  1  0  0  0  0
 18 16  1  0  0  0  0
 19 18  2  0  0  0  0
 20 18  1  0  0  0  0
 21 20  2  0  0  0  0
 23 22  1  0  0  0  0
 23 20  1  0  0  0  0
 24  8  1  0  0  0  0
 24 25  1  0  0  0  0
 25 26  1  0  0  0  0
 26 29  1  0  0  0  0
 27 29  2  0  0  0  0
 29 28  1  0  0  0  0
 29 30  1  0  0  0  0
M  END
>  <MODEL>
9

>  <REMARK>
 VINA RESULT:      -5.7      1.835      2.181
  Name = 
  8 active torsions:
  status: ('A' for Active; 'I' for Inactive)
    1  A    between atoms: C_2  and  C_13
    2  A    between atoms: C_2  and  N_29
    3  A    between atoms: C_3  and  C_12
    4  A    between atoms: C_3  and  N_19
    5  A    between atoms: N_4  and  C_25
    6  A    between atoms: N_8  and  C_13
    7  A    between atoms: N_8  and  P_24
    8  A    between atoms: C_12  and  C_27
                            x       y       z     vdW  Elec       q    Type
                         _______ _______ _______ _____ _____    ______ ____

>  <TORSDO>
F 8

$$$$
