=
 OpenBabel11042423133D

 29 33  0  0  1  0  0  0  0  0999 V2000
  162.0350  210.2480  152.3210 S   0  0  0  0  0  0  0  0  0  0  0  0
  161.8330  209.2760  150.9580 C   0  0  0  0  0  0  0  0  0  0  0  0
  161.3240  207.1610  149.0730 C   0  0  1  0  0  0  0  0  0  0  0  0
  161.5750  209.0700  153.4300 C   0  0  0  0  0  0  0  0  0  0  0  0
  162.7260  207.3690  148.5540 C   0  0  0  0  0  2  0  0  0  0  0  0
  162.1920  209.6160  149.5300 C   0  0  1  0  0  3  0  0  0  0  0  0
  161.2810  207.8830  152.7630 C   0  0  0  0  0  3  0  0  0  0  0  0
  161.2450  206.9730  150.4860 O   0  0  0  0  0  0  0  0  0  0  0  0
  161.4440  208.0180  151.3790 C   0  0  0  0  0  0  0  0  0  0  0  0
  161.7290  208.5310  148.5200 C   0  0  2  0  0  3  0  0  0  0  0  0
  161.6780  210.9470  149.1650 N   0  0  1  0  0  0  0  0  0  0  0  0
  162.7860  211.8030  149.0050 N   0  0  0  0  0  2  0  0  0  0  0  0
  162.3940  212.7850  148.0150 C   0  0  0  0  0  2  0  0  0  0  0  0
  161.2590  212.1550  147.2680 C   0  0  1  0  0  3  0  0  0  0  0  0
  161.0400  210.8730  147.9090 N   0  0  0  0  0  2  0  0  0  0  0  0
  160.0240  213.0030  147.3500 C   0  0  0  0  0  0  0  0  0  0  0  0
  158.4630  214.4530  147.9870 C   0  0  0  0  0  3  0  0  0  0  0  0
  159.3750  213.3900  145.0620 N   0  0  0  0  0  1  0  0  0  0  0  0
  159.7620  213.8790  148.3070 C   0  0  0  0  0  3  0  0  0  0  0  0
  158.9060  212.9570  146.3670 C   0  0  2  0  0  3  0  0  0  0  0  0
  157.9810  213.9430  146.9020 N   0  0  0  0  0  0  0  0  0  0  0  0
  161.5150  209.2860  154.8140 O   0  0  0  0  0  0  0  0  0  0  0  0
  159.3060  210.2890  154.8090 C   0  0  0  0  0  1  0  0  0  0  0  0
  160.6350  210.1250  156.8730 C   0  0  0  0  0  1  0  0  0  0  0  0
  159.6980  208.0790  155.8790 C   0  0  0  0  0  1  0  0  0  0  0  0
  160.3080  209.4350  155.5650 C   0  0  0  0  0  0  0  0  0  0  0  0
  160.4770  206.2640  148.1910 C   0  0  0  0  0  2  0  0  0  0  0  0
  161.1920  204.9850  147.9210 C   0  0  0  0  0  3  0  0  0  0  0  0
  161.0960  204.0110  148.7480 N   0  0  0  0  0  2  0  0  0  0  0  0
  1  4  1  0  0  0  0
  2  9  2  0  0  0  0
  2  1  1  0  0  0  0
  3 27  1  6  0  0  0
  3  8  1  0  0  0  0
  4 22  1  0  0  0  0
  5  3  1  0  0  0  0
  6  2  1  1  0  0  0
  7  4  2  0  0  0  0
  8  9  1  0  0  0  0
  9  7  1  0  0  0  0
 10  5  1  6  0  0  0
 10  3  1  0  0  0  0
 10  6  1  0  0  0  0
 11 15  1  6  0  0  0
 11  6  1  0  0  0  0
 12 11  1  0  0  0  0
 13 12  1  0  0  0  0
 14 16  1  1  0  0  0
 14 15  1  0  0  0  0
 14 13  1  0  0  0  0
 16 19  2  0  0  0  0
 17 19  1  0  0  0  0
 20 18  1  6  0  0  0
 20 21  1  0  0  0  0
 20 16  1  0  0  0  0
 21 17  2  0  0  0  0
 22 26  1  0  0  0  0
 23 26  1  0  0  0  0
 26 25  1  0  0  0  0
 26 24  1  0  0  0  0
 28 27  1  0  0  0  0
 28 29  2  0  0  0  0
M  END
>  <MODEL>
1

>  <REMARK>
 VINA RESULT:      -5.8      0.000      0.000
  Name = 
  6 active torsions:
  status: ('A' for Active; 'I' for Inactive)
    1  A    between atoms: C_1  and  C_25
    2  A    between atoms: C_6  and  C_23
    3  A    between atoms: C_7  and  O_10
    4  A    between atoms: O_10  and  C_27
    5  A    between atoms: C_11  and  N_18
    6  A    between atoms: C_14  and  C_23
                            x       y       z     vdW  Elec       q    Type
                         _______ _______ _______ _____ _____    ______ ____

>  <TORSDO>
F 6

$$$$
=
 OpenBabel11042423133D

 29 33  0  0  1  0  0  0  0  0999 V2000
  162.6100  210.2650  148.6620 S   0  0  0  0  0  0  0  0  0  0  0  0
  161.9580  210.1420  150.2120 C   0  0  0  0  0  0  0  0  0  0  0  0
  160.5930  210.5210  152.7170 C   0  0  1  0  0  0  0  0  0  0  0  0
  161.9240  211.7620  148.3150 C   0  0  0  0  0  0  0  0  0  0  0  0
  161.9220  210.3090  153.4030 C   0  0  0  0  0  2  0  0  0  0  0  0
  162.2450  209.0770  151.2430 C   0  0  1  0  0  3  0  0  0  0  0  0
  161.1940  212.2120  149.4130 C   0  0  0  0  0  3  0  0  0  0  0  0
  160.6160  211.5140  151.6920 O   0  0  0  0  0  0  0  0  0  0  0  0
  161.2370  211.2940  150.4690 C   0  0  0  0  0  0  0  0  0  0  0  0
  161.3510  209.2070  152.5070 C   0  0  2  0  0  3  0  0  0  0  0  0
  162.1460  207.7330  150.6490 N   0  0  1  0  0  0  0  0  0  0  0  0
  161.5920  206.8760  151.6190 N   0  0  0  0  0  2  0  0  0  0  0  0
  160.8620  205.8610  150.8880 C   0  0  0  0  0  2  0  0  0  0  0  0
  160.5980  206.4630  149.5420 C   0  0  1  0  0  3  0  0  0  0  0  0
  161.2370  207.7650  149.5710 N   0  0  0  0  0  2  0  0  0  0  0  0
  161.1790  205.6150  148.4500 C   0  0  0  0  0  0  0  0  0  0  0  0
  161.9750  203.9190  147.2530 C   0  0  0  0  0  3  0  0  0  0  0  0
  160.4630  206.6570  146.3990 N   0  0  0  0  0  1  0  0  0  0  0  0
  161.3990  204.3120  148.5310 C   0  0  0  0  0  3  0  0  0  0  0  0
  161.6090  206.1330  147.1220 C   0  0  2  0  0  3  0  0  0  0  0  0
  162.0930  204.9320  146.4600 N   0  0  0  0  0  0  0  0  0  0  0  0
  162.0900  212.4300  147.0940 O   0  0  0  0  0  0  0  0  0  0  0  0
  159.7750  212.2030  146.4020 C   0  0  0  0  0  1  0  0  0  0  0  0
  161.4720  213.1720  144.9060 C   0  0  0  0  0  1  0  0  0  0  0  0
  160.7460  214.4400  146.8850 C   0  0  0  0  0  1  0  0  0  0  0  0
  161.0360  213.0480  146.3520 C   0  0  0  0  0  0  0  0  0  0  0  0
  159.4130  210.5120  153.6680 C   0  0  0  0  0  2  0  0  0  0  0  0
  158.6660  211.8000  153.5750 C   0  0  0  0  0  3  0  0  0  0  0  0
  157.4810  211.8880  154.0530 N   0  0  0  0  0  2  0  0  0  0  0  0
  1  2  1  0  0  0  0
  2  9  2  0  0  0  0
  3  5  1  0  0  0  0
  3 27  1  1  0  0  0
  4  1  1  0  0  0  0
  4  7  2  0  0  0  0
  6  2  1  6  0  0  0
  6 10  1  0  0  0  0
  7  9  1  0  0  0  0
  8  3  1  0  0  0  0
  9  8  1  0  0  0  0
 10  3  1  0  0  0  0
 10  5  1  1  0  0  0
 11 15  1  6  0  0  0
 11  6  1  0  0  0  0
 11 12  1  0  0  0  0
 13 12  1  0  0  0  0
 14 16  1  6  0  0  0
 14 15  1  0  0  0  0
 14 13  1  0  0  0  0
 16 19  2  0  0  0  0
 17 19  1  0  0  0  0
 20 18  1  6  0  0  0
 20 16  1  0  0  0  0
 21 20  1  0  0  0  0
 21 17  2  0  0  0  0
 22  4  1  0  0  0  0
 24 26  1  0  0  0  0
 26 23  1  0  0  0  0
 26 25  1  0  0  0  0
 26 22  1  0  0  0  0
 28 27  1  0  0  0  0
 28 29  2  0  0  0  0
M  END
>  <MODEL>
2

>  <REMARK>
 VINA RESULT:      -5.7      3.045      7.373
  Name = 
  6 active torsions:
  status: ('A' for Active; 'I' for Inactive)
    1  A    between atoms: C_1  and  C_25
    2  A    between atoms: C_6  and  C_23
    3  A    between atoms: C_7  and  O_10
    4  A    between atoms: O_10  and  C_27
    5  A    between atoms: C_11  and  N_18
    6  A    between atoms: C_14  and  C_23
                            x       y       z     vdW  Elec       q    Type
                         _______ _______ _______ _____ _____    ______ ____

>  <TORSDO>
F 6

$$$$
=
 OpenBabel11042423133D

 29 33  0  0  1  0  0  0  0  0999 V2000
  162.4030  208.8320  148.6980 S   0  0  0  0  0  0  0  0  0  0  0  0
  161.9970  208.0780  150.1500 C   0  0  0  0  0  0  0  0  0  0  0  0
  161.2600  207.4070  152.8500 C   0  0  1  0  0  0  0  0  0  0  0  0
  162.2490  210.4020  149.2810 C   0  0  0  0  0  0  0  0  0  0  0  0
  162.5150  206.5710  152.9200 C   0  0  0  0  0  2  0  0  0  0  0  0
  162.0420  206.6000  150.4580 C   0  0  1  0  0  3  0  0  0  0  0  0
  161.9050  210.3720  150.6310 C   0  0  0  0  0  3  0  0  0  0  0  0
  161.4750  208.7500  152.4200 O   0  0  0  0  0  0  0  0  0  0  0  0
  161.7810  209.0600  151.1000 C   0  0  0  0  0  0  0  0  0  0  0  0
  161.4590  206.2580  151.8570 C   0  0  2  0  0  3  0  0  0  0  0  0
  161.3830  205.8240  149.3940 N   0  0  1  0  0  0  0  0  0  0  0  0
  160.5210  206.6960  148.7010 N   0  0  0  0  0  2  0  0  0  0  0  0
  160.4600  206.2020  147.3400 C   0  0  0  0  0  2  0  0  0  0  0  0
  161.6890  205.3620  147.1750 C   0  0  1  0  0  3  0  0  0  0  0  0
  162.3510  205.3880  148.4650 N   0  0  0  0  0  2  0  0  0  0  0  0
  161.3330  203.9560  146.7940 C   0  0  0  0  0  0  0  0  0  0  0  0
  160.7370  201.8140  146.8340 C   0  0  0  0  0  3  0  0  0  0  0  0
  160.3660  204.1290  144.5930 N   0  0  0  0  0  1  0  0  0  0  0  0
  160.9750  203.0030  147.6400 C   0  0  0  0  0  3  0  0  0  0  0  0
  161.3540  203.4320  145.4000 C   0  0  2  0  0  3  0  0  0  0  0  0
  160.9450  202.0490  145.5800 N   0  0  0  0  0  0  0  0  0  0  0  0
  162.4510  211.5470  148.4980 O   0  0  0  0  0  0  0  0  0  0  0  0
  160.4250  211.9640  147.2290 C   0  0  0  0  0  1  0  0  0  0  0  0
  162.1140  213.7220  147.5620 C   0  0  0  0  0  1  0  0  0  0  0  0
  160.7540  212.9820  149.4730 C   0  0  0  0  0  1  0  0  0  0  0  0
  161.4480  212.5220  148.2030 C   0  0  0  0  0  0  0  0  0  0  0  0
  160.3140  207.1790  154.0130 C   0  0  0  0  0  2  0  0  0  0  0  0
  160.5360  208.2100  155.0670 C   0  0  0  0  0  3  0  0  0  0  0  0
  161.3630  207.9840  156.0190 N   0  0  0  0  0  2  0  0  0  0  0  0
  1  4  1  0  0  0  0
  1  2  1  0  0  0  0
  2  9  2  0  0  0  0
  3  5  1  0  0  0  0
  3 27  1  1  0  0  0
  4  7  2  0  0  0  0
  6  2  1  6  0  0  0
  6 10  1  0  0  0  0
  7  9  1  0  0  0  0
  8  3  1  0  0  0  0
  9  8  1  0  0  0  0
 10  3  1  0  0  0  0
 10  5  1  1  0  0  0
 11 15  1  6  0  0  0
 11  6  1  0  0  0  0
 12 11  1  0  0  0  0
 13 12  1  0  0  0  0
 14 16  1  1  0  0  0
 14 13  1  0  0  0  0
 14 15  1  0  0  0  0
 16 19  2  0  0  0  0
 17 19  1  0  0  0  0
 20 18  1  6  0  0  0
 20 21  1  0  0  0  0
 20 16  1  0  0  0  0
 21 17  2  0  0  0  0
 22  4  1  0  0  0  0
 23 26  1  0  0  0  0
 24 26  1  0  0  0  0
 26 22  1  0  0  0  0
 26 25  1  0  0  0  0
 27 28  1  0  0  0  0
 28 29  2  0  0  0  0
M  END
>  <MODEL>
3

>  <REMARK>
 VINA RESULT:      -5.6      3.077      7.223
  Name = 
  6 active torsions:
  status: ('A' for Active; 'I' for Inactive)
    1  A    between atoms: C_1  and  C_25
    2  A    between atoms: C_6  and  C_23
    3  A    between atoms: C_7  and  O_10
    4  A    between atoms: O_10  and  C_27
    5  A    between atoms: C_11  and  N_18
    6  A    between atoms: C_14  and  C_23
                            x       y       z     vdW  Elec       q    Type
                         _______ _______ _______ _____ _____    ______ ____

>  <TORSDO>
F 6

$$$$
=
 OpenBabel11042423133D

 29 33  0  0  1  0  0  0  0  0999 V2000
  161.9830  207.1670  151.0950 S   0  0  0  0  0  0  0  0  0  0  0  0
  161.8400  208.6730  150.3500 C   0  0  0  0  0  0  0  0  0  0  0  0
  161.5810  210.8860  148.5280 C   0  0  1  0  0  0  0  0  0  0  0  0
  161.9100  206.2740  149.6710 C   0  0  0  0  0  0  0  0  0  0  0  0
  162.8410  211.4550  149.1360 C   0  0  0  0  0  2  0  0  0  0  0  0
  161.9560  210.0310  151.0010 C   0  0  1  0  0  3  0  0  0  0  0  0
  161.8010  207.1330  148.5800 C   0  0  0  0  0  3  0  0  0  0  0  0
  161.7030  209.5340  148.0880 O   0  0  0  0  0  0  0  0  0  0  0  0
  161.7760  208.4730  148.9830 C   0  0  0  0  0  0  0  0  0  0  0  0
  161.6230  211.1950  150.0270 C   0  0  2  0  0  3  0  0  0  0  0  0
  161.1350  210.0980  152.2210 N   0  0  1  0  0  0  0  0  0  0  0  0
  161.9990  209.9590  153.3250 N   0  0  0  0  0  2  0  0  0  0  0  0
  161.3910  210.7050  154.4080 C   0  0  0  0  0  2  0  0  0  0  0  0
  160.4560  211.6670  153.7410 C   0  0  1  0  0  3  0  0  0  0  0  0
  160.5520  211.3780  152.3230 N   0  0  0  0  0  2  0  0  0  0  0  0
  159.0500  211.4740  154.2240 C   0  0  0  0  0  0  0  0  0  0  0  0
  157.2500  210.8880  155.3920 C   0  0  0  0  0  3  0  0  0  0  0  0
  157.8470  213.4120  153.4440 N   0  0  0  0  0  1  0  0  0  0  0  0
  158.7030  210.8380  155.3330 C   0  0  0  0  0  3  0  0  0  0  0  0
  157.8390  211.9600  153.5050 C   0  0  2  0  0  3  0  0  0  0  0  0
  156.7610  211.5150  154.3730 N   0  0  0  0  0  0  0  0  0  0  0  0
  161.9610  204.8740  149.6280 O   0  0  0  0  0  0  0  0  0  0  0  0
  161.6130  203.5570  151.6360 C   0  0  0  0  0  1  0  0  0  0  0  0
  160.8300  202.7750  149.4380 C   0  0  0  0  0  1  0  0  0  0  0  0
  159.7060  204.6850  150.5070 C   0  0  0  0  0  1  0  0  0  0  0  0
  161.0480  204.0020  150.2980 C   0  0  0  0  0  0  0  0  0  0  0  0
  160.8500  211.8610  147.6250 C   0  0  0  0  0  2  0  0  0  0  0  0
  161.8120  212.8330  147.0310 C   0  0  0  0  0  3  0  0  0  0  0  0
  161.8950  212.9530  145.7590 N   0  0  0  0  0  2  0  0  0  0  0  0
  2  1  1  0  0  0  0
  3 27  1  6  0  0  0
  3  5  1  0  0  0  0
  3 10  1  0  0  0  0
  4  1  1  0  0  0  0
  6  2  1  6  0  0  0
  6 11  1  0  0  0  0
  7  9  1  0  0  0  0
  7  4  2  0  0  0  0
  8  3  1  0  0  0  0
  8  9  1  0  0  0  0
  9  2  2  0  0  0  0
 10  5  1  6  0  0  0
 10  6  1  0  0  0  0
 11 15  1  1  0  0  0
 11 12  1  0  0  0  0
 12 13  1  0  0  0  0
 14 16  1  1  0  0  0
 14 13  1  0  0  0  0
 15 14  1  0  0  0  0
 16 19  2  0  0  0  0
 19 17  1  0  0  0  0
 20 18  1  1  0  0  0
 20 16  1  0  0  0  0
 20 21  1  0  0  0  0
 21 17  2  0  0  0  0
 22  4  1  0  0  0  0
 22 26  1  0  0  0  0
 24 26  1  0  0  0  0
 26 25  1  0  0  0  0
 26 23  1  0  0  0  0
 28 27  1  0  0  0  0
 29 28  2  0  0  0  0
M  END
>  <MODEL>
4

>  <REMARK>
 VINA RESULT:      -4.7      2.888      6.222
  Name = 
  6 active torsions:
  status: ('A' for Active; 'I' for Inactive)
    1  A    between atoms: C_1  and  C_25
    2  A    between atoms: C_6  and  C_23
    3  A    between atoms: C_7  and  O_10
    4  A    between atoms: O_10  and  C_27
    5  A    between atoms: C_11  and  N_18
    6  A    between atoms: C_14  and  C_23
                            x       y       z     vdW  Elec       q    Type
                         _______ _______ _______ _____ _____    ______ ____

>  <TORSDO>
F 6

$$$$
=
 OpenBabel11042423133D

 29 33  0  0  1  0  0  0  0  0999 V2000
  162.2310  208.9170  149.3720 S   0  0  0  0  0  0  0  0  0  0  0  0
  161.7000  208.6110  150.9430 C   0  0  0  0  0  0  0  0  0  0  0  0
  160.7620  208.7440  153.6610 C   0  0  1  0  0  0  0  0  0  0  0  0
  162.1060  210.5910  149.4810 C   0  0  0  0  0  0  0  0  0  0  0  0
  161.9730  207.9330  154.0540 C   0  0  0  0  0  2  0  0  0  0  0  0
  161.6630  207.2790  151.6530 C   0  0  1  0  0  3  0  0  0  0  0  0
  161.6740  210.9500  150.7560 C   0  0  0  0  0  3  0  0  0  0  0  0
  161.0620  209.9070  152.8890 O   0  0  0  0  0  0  0  0  0  0  0  0
  161.4650  209.8250  151.5620 C   0  0  0  0  0  0  0  0  0  0  0  0
  160.9760  207.3580  153.0450 C   0  0  2  0  0  3  0  0  0  0  0  0
  161.0410  206.2500  150.8030 N   0  0  1  0  0  0  0  0  0  0  0  0
  160.3280  206.9110  149.7840 N   0  0  0  0  0  2  0  0  0  0  0  0
  160.3520  206.0270  148.6380 C   0  0  0  0  0  2  0  0  0  0  0  0
  161.5130  205.1110  148.8760 C   0  0  1  0  0  3  0  0  0  0  0  0
  162.0510  205.4980  150.1660 N   0  0  0  0  0  2  0  0  0  0  0  0
  161.0740  203.6780  148.8960 C   0  0  0  0  0  0  0  0  0  0  0  0
  160.1300  201.7370  149.4310 C   0  0  0  0  0  3  0  0  0  0  0  0
  161.0140  203.0080  146.5810 N   0  0  0  0  0  1  0  0  0  0  0  0
  160.2700  203.1380  149.7990 C   0  0  0  0  0  3  0  0  0  0  0  0
  161.5020  202.6530  147.9030 C   0  0  2  0  0  3  0  0  0  0  0  0
  160.8150  201.4600  148.3710 N   0  0  0  0  0  0  0  0  0  0  0  0
  162.4060  211.4640  148.4260 O   0  0  0  0  0  0  0  0  0  0  0  0
  162.4270  213.6720  147.4210 C   0  0  0  0  0  1  0  0  0  0  0  0
  160.8490  213.0970  149.2190 C   0  0  0  0  0  1  0  0  0  0  0  0
  160.5530  212.0960  146.9910 C   0  0  0  0  0  1  0  0  0  0  0  0
  161.5830  212.5550  148.0100 C   0  0  0  0  0  0  0  0  0  0  0  0
  159.7340  208.8740  154.7680 C   0  0  0  0  0  2  0  0  0  0  0  0
  159.4840  210.3120  155.0720 C   0  0  0  0  0  3  0  0  0  0  0  0
  158.4530  210.6520  155.7510 N   0  0  0  0  0  2  0  0  0  0  0  0
  1  4  1  0  0  0  0
  1  2  1  0  0  0  0
  2  9  2  0  0  0  0
  3  5  1  0  0  0  0
  3 27  1  1  0  0  0
  4  7  2  0  0  0  0
  6  2  1  6  0  0  0
  6 10  1  0  0  0  0
  7  9  1  0  0  0  0
  8  3  1  0  0  0  0
  9  8  1  0  0  0  0
 10  3  1  0  0  0  0
 10  5  1  1  0  0  0
 11 12  1  6  0  0  0
 11  6  1  0  0  0  0
 13 14  1  0  0  0  0
 13 12  1  0  0  0  0
 14 16  1  1  0  0  0
 14 15  1  0  0  0  0
 15 11  1  0  0  0  0
 16 19  2  0  0  0  0
 17 19  1  0  0  0  0
 20 18  1  6  0  0  0
 20 21  1  0  0  0  0
 20 16  1  0  0  0  0
 21 17  2  0  0  0  0
 22  4  1  0  0  0  0
 23 26  1  0  0  0  0
 25 26  1  0  0  0  0
 26 22  1  0  0  0  0
 26 24  1  0  0  0  0
 27 28  1  0  0  0  0
 28 29  2  0  0  0  0
M  END
>  <MODEL>
5

>  <REMARK>
 VINA RESULT:      -4.4      3.088      7.651
  Name = 
  6 active torsions:
  status: ('A' for Active; 'I' for Inactive)
    1  A    between atoms: C_1  and  C_25
    2  A    between atoms: C_6  and  C_23
    3  A    between atoms: C_7  and  O_10
    4  A    between atoms: O_10  and  C_27
    5  A    between atoms: C_11  and  N_18
    6  A    between atoms: C_14  and  C_23
                            x       y       z     vdW  Elec       q    Type
                         _______ _______ _______ _____ _____    ______ ____

>  <TORSDO>
F 6

$$$$
=
 OpenBabel11042423133D

 29 33  0  0  1  0  0  0  0  0999 V2000
  162.3390  209.7490  149.4110 S   0  0  0  0  0  0  0  0  0  0  0  0
  161.8060  209.7750  151.0110 C   0  0  0  0  0  0  0  0  0  0  0  0
  160.6000  210.3760  153.5540 C   0  0  1  0  0  0  0  0  0  0  0  0
  161.5430  211.1570  148.9510 C   0  0  0  0  0  0  0  0  0  0  0  0
  161.9830  210.3140  154.1560 C   0  0  0  0  0  2  0  0  0  0  0  0
  162.2280  208.8550  152.1310 C   0  0  1  0  0  3  0  0  0  0  0  0
  160.8660  211.6950  150.0430 C   0  0  0  0  0  3  0  0  0  0  0  0
  160.4910  211.2410  152.4240 O   0  0  0  0  0  0  0  0  0  0  0  0
  161.0370  210.9110  151.1900 C   0  0  0  0  0  0  0  0  0  0  0  0
  161.4180  209.0860  153.4370 C   0  0  2  0  0  3  0  0  0  0  0  0
  162.1680  207.4470  151.7020 N   0  0  1  0  0  0  0  0  0  0  0  0
  162.3200  206.6440  152.8490 N   0  0  0  0  0  2  0  0  0  0  0  0
  161.5810  205.4260  152.5870 C   0  0  0  0  0  2  0  0  0  0  0  0
  160.6090  205.7850  151.5060 C   0  0  1  0  0  3  0  0  0  0  0  0
  160.8860  207.1710  151.1820 N   0  0  0  0  0  2  0  0  0  0  0  0
  160.8000  204.9140  150.3000 C   0  0  0  0  0  0  0  0  0  0  0  0
  161.2640  204.1530  148.2630 C   0  0  0  0  0  3  0  0  0  0  0  0
  161.3370  202.7350  151.1780 N   0  0  0  0  0  1  0  0  0  0  0  0
  161.2560  205.3240  149.1260 C   0  0  0  0  0  3  0  0  0  0  0  0
  160.4820  203.4600  150.2540 C   0  0  2  0  0  3  0  0  0  0  0  0
  160.8340  203.1060  148.8880 N   0  0  0  0  0  0  0  0  0  0  0  0
  161.5820  211.6850  147.6530 O   0  0  0  0  0  0  0  0  0  0  0  0
  162.1830  213.1320  145.8000 C   0  0  0  0  0  1  0  0  0  0  0  0
  163.5170  213.0750  147.8680 C   0  0  0  0  0  1  0  0  0  0  0  0
  161.2710  214.0780  147.9110 C   0  0  0  0  0  1  0  0  0  0  0  0
  162.1130  212.9660  147.3080 C   0  0  0  0  0  0  0  0  0  0  0  0
  159.4910  210.4180  154.5870 C   0  0  0  0  0  2  0  0  0  0  0  0
  160.0370  210.8300  155.9120 C   0  0  0  0  0  3  0  0  0  0  0  0
  159.8950  212.0380  156.3140 N   0  0  0  0  0  2  0  0  0  0  0  0
  1  2  1  0  0  0  0
  2  9  2  0  0  0  0
  3  5  1  0  0  0  0
  3 27  1  1  0  0  0
  4  1  1  0  0  0  0
  4  7  2  0  0  0  0
  6  2  1  6  0  0  0
  6 10  1  0  0  0  0
  7  9  1  0  0  0  0
  8  3  1  0  0  0  0
  9  8  1  0  0  0  0
 10  3  1  0  0  0  0
 10  5  1  1  0  0  0
 11 15  1  1  0  0  0
 11  6  1  0  0  0  0
 11 12  1  0  0  0  0
 13 12  1  0  0  0  0
 14 16  1  6  0  0  0
 14 13  1  0  0  0  0
 15 14  1  0  0  0  0
 17 21  2  0  0  0  0
 17 19  1  0  0  0  0
 19 16  2  0  0  0  0
 20 16  1  0  0  0  0
 20 18  1  1  0  0  0
 21 20  1  0  0  0  0
 22  4  1  0  0  0  0
 23 26  1  0  0  0  0
 26 22  1  0  0  0  0
 26 24  1  0  0  0  0
 26 25  1  0  0  0  0
 27 28  1  0  0  0  0
 28 29  2  0  0  0  0
M  END
>  <MODEL>
6

>  <REMARK>
 VINA RESULT:      -4.3      3.356      7.850
  Name = 
  6 active torsions:
  status: ('A' for Active; 'I' for Inactive)
    1  A    between atoms: C_1  and  C_25
    2  A    between atoms: C_6  and  C_23
    3  A    between atoms: C_7  and  O_10
    4  A    between atoms: O_10  and  C_27
    5  A    between atoms: C_11  and  N_18
    6  A    between atoms: C_14  and  C_23
                            x       y       z     vdW  Elec       q    Type
                         _______ _______ _______ _____ _____    ______ ____

>  <TORSDO>
F 6

$$$$
=
 OpenBabel11042423133D

 29 33  0  0  1  0  0  0  0  0999 V2000
  162.3310  207.3470  150.7060 S   0  0  0  0  0  0  0  0  0  0  0  0
  162.1100  208.8680  150.0130 C   0  0  0  0  0  0  0  0  0  0  0  0
  161.5900  211.1160  148.2930 C   0  0  1  0  0  0  0  0  0  0  0  0
  161.9300  206.4780  149.3220 C   0  0  0  0  0  0  0  0  0  0  0  0
  162.9710  211.6200  148.6360 C   0  0  0  0  0  2  0  0  0  0  0  0
  162.4170  210.2100  150.6340 C   0  0  1  0  0  3  0  0  0  0  0  0
  161.6430  207.3570  148.2800 C   0  0  0  0  0  3  0  0  0  0  0  0
  161.5580  209.7660  147.8310 O   0  0  0  0  0  0  0  0  0  0  0  0
  161.7610  208.6910  148.6860 C   0  0  0  0  0  0  0  0  0  0  0  0
  161.9490  211.4020  149.7540 C   0  0  2  0  0  3  0  0  0  0  0  0
  161.8640  210.2950  151.9960 N   0  0  1  0  0  0  0  0  0  0  0  0
  160.9090  211.3300  152.0060 N   0  0  0  0  0  2  0  0  0  0  0  0
  159.9260  210.9590  153.0030 C   0  0  0  0  0  2  0  0  0  0  0  0
  160.0780  209.4790  153.1700 C   0  0  1  0  0  3  0  0  0  0  0  0
  161.1710  209.1030  152.2940 N   0  0  0  0  0  2  0  0  0  0  0  0
  160.3970  209.1280  154.5920 C   0  0  0  0  0  0  0  0  0  0  0  0
  160.5600  209.1230  156.8100 C   0  0  0  0  0  3  0  0  0  0  0  0
  160.5190  206.7210  154.6320 N   0  0  0  0  0  1  0  0  0  0  0  0
  160.0220  209.8240  155.6540 C   0  0  0  0  0  3  0  0  0  0  0  0
  161.2050  207.9460  155.0060 C   0  0  2  0  0  3  0  0  0  0  0  0
  161.2210  208.0710  156.4540 N   0  0  0  0  0  0  0  0  0  0  0  0
  161.9070  205.0780  149.2620 O   0  0  0  0  0  0  0  0  0  0  0  0
  160.8490  202.9060  149.4870 C   0  0  0  0  0  1  0  0  0  0  0  0
  159.8650  204.9220  150.4980 C   0  0  0  0  0  1  0  0  0  0  0  0
  161.9430  203.9970  151.4350 C   0  0  0  0  0  1  0  0  0  0  0  0
  161.1690  204.2350  150.1490 C   0  0  0  0  0  0  0  0  0  0  0  0
  160.7380  212.1350  147.5620 C   0  0  0  0  0  2  0  0  0  0  0  0
  161.5860  212.9650  146.6600 C   0  0  0  0  0  3  0  0  0  0  0  0
  161.1270  214.0580  146.1770 N   0  0  0  0  0  2  0  0  0  0  0  0
  2  1  1  0  0  0  0
  3 27  1  6  0  0  0
  3  5  1  0  0  0  0
  3 10  1  0  0  0  0
  4  1  1  0  0  0  0
  6  2  1  6  0  0  0
  6 11  1  0  0  0  0
  7  9  1  0  0  0  0
  7  4  2  0  0  0  0
  8  3  1  0  0  0  0
  8  9  1  0  0  0  0
  9  2  2  0  0  0  0
 10  5  1  6  0  0  0
 10  6  1  0  0  0  0
 11 12  1  6  0  0  0
 11 15  1  0  0  0  0
 12 13  1  0  0  0  0
 13 14  1  0  0  0  0
 14 16  1  1  0  0  0
 15 14  1  0  0  0  0
 16 20  1  0  0  0  0
 16 19  2  0  0  0  0
 19 17  1  0  0  0  0
 20 18  1  1  0  0  0
 20 21  1  0  0  0  0
 21 17  2  0  0  0  0
 22  4  1  0  0  0  0
 22 26  1  0  0  0  0
 23 26  1  0  0  0  0
 26 24  1  0  0  0  0
 26 25  1  0  0  0  0
 28 27  1  0  0  0  0
 29 28  2  0  0  0  0
M  END
>  <MODEL>
7

>  <REMARK>
 VINA RESULT:      -4.3      2.814      6.904
  Name = 
  6 active torsions:
  status: ('A' for Active; 'I' for Inactive)
    1  A    between atoms: C_1  and  C_25
    2  A    between atoms: C_6  and  C_23
    3  A    between atoms: C_7  and  O_10
    4  A    between atoms: O_10  and  C_27
    5  A    between atoms: C_11  and  N_18
    6  A    between atoms: C_14  and  C_23
                            x       y       z     vdW  Elec       q    Type
                         _______ _______ _______ _____ _____    ______ ____

>  <TORSDO>
F 6

$$$$
=
 OpenBabel11042423133D

 29 33  0  0  1  0  0  0  0  0999 V2000
  161.0750  208.0260  152.6870 S   0  0  0  0  0  0  0  0  0  0  0  0
  161.4970  208.7830  151.2410 C   0  0  0  0  0  0  0  0  0  0  0  0
  162.4050  210.5630  149.1690 C   0  0  1  0  0  0  0  0  0  0  0  0
  161.5910  209.2800  153.6830 C   0  0  0  0  0  0  0  0  0  0  0  0
  161.0310  210.4490  148.5540 C   0  0  0  0  0  2  0  0  0  0  0  0
  161.2090  208.3030  149.8380 C   0  0  1  0  0  3  0  0  0  0  0  0
  162.0780  210.3290  152.9070 C   0  0  0  0  0  3  0  0  0  0  0  0
  162.3990  210.9240  150.5500 O   0  0  0  0  0  0  0  0  0  0  0  0
  162.0050  210.0340  151.5410 C   0  0  0  0  0  0  0  0  0  0  0  0
  161.8770  209.1880  148.7500 C   0  0  2  0  0  3  0  0  0  0  0  0
  161.5810  206.8860  149.6840 N   0  0  1  0  0  0  0  0  0  0  0  0
  162.3340  206.5160  150.8160 N   0  0  0  0  0  2  0  0  0  0  0  0
  162.0780  205.1060  151.0250 C   0  0  0  0  0  2  0  0  0  0  0  0
  160.7890  204.8330  150.3110 C   0  0  1  0  0  3  0  0  0  0  0  0
  160.4140  206.0930  149.6970 N   0  0  0  0  0  2  0  0  0  0  0  0
  160.9660  203.7710  149.2670 C   0  0  0  0  0  0  0  0  0  0  0  0
  161.5020  202.6550  147.4190 C   0  0  0  0  0  3  0  0  0  0  0  0
  161.1140  201.7030  150.4950 N   0  0  0  0  0  1  0  0  0  0  0  0
  161.5790  203.9370  148.1050 C   0  0  0  0  0  3  0  0  0  0  0  0
  160.4550  202.3780  149.3900 C   0  0  2  0  0  3  0  0  0  0  0  0
  160.8770  201.7780  148.1340 N   0  0  0  0  0  0  0  0  0  0  0  0
  161.5190  209.2410  155.0830 O   0  0  0  0  0  0  0  0  0  0  0  0
  160.6070  209.9520  157.2160 C   0  0  0  0  0  1  0  0  0  0  0  0
  159.7050  207.9980  156.0220 C   0  0  0  0  0  1  0  0  0  0  0  0
  159.3120  210.2500  155.1150 C   0  0  0  0  0  1  0  0  0  0  0  0
  160.3160  209.3720  155.8430 C   0  0  0  0  0  0  0  0  0  0  0  0
  163.4200  211.2360  148.2660 C   0  0  0  0  0  2  0  0  0  0  0  0
  162.9890  212.6300  147.9560 C   0  0  0  0  0  3  0  0  0  0  0  0
  162.7060  212.9580  146.7510 N   0  0  0  0  0  2  0  0  0  0  0  0
  1  4  1  0  0  0  0
  2  9  2  0  0  0  0
  2  1  1  0  0  0  0
  3 27  1  6  0  0  0
  3  8  1  0  0  0  0
  4 22  1  0  0  0  0
  5  3  1  0  0  0  0
  6  2  1  1  0  0  0
  7  4  2  0  0  0  0
  8  9  1  0  0  0  0
  9  7  1  0  0  0  0
 10  5  1  6  0  0  0
 10  3  1  0  0  0  0
 10  6  1  0  0  0  0
 11 15  1  1  0  0  0
 11  6  1  0  0  0  0
 11 12  1  0  0  0  0
 12 13  1  0  0  0  0
 14 16  1  6  0  0  0
 14 13  1  0  0  0  0
 15 14  1  0  0  0  0
 16 20  1  0  0  0  0
 17 19  1  0  0  0  0
 17 21  2  0  0  0  0
 19 16  2  0  0  0  0
 20 18  1  1  0  0  0
 21 20  1  0  0  0  0
 22 26  1  0  0  0  0
 25 26  1  0  0  0  0
 26 24  1  0  0  0  0
 26 23  1  0  0  0  0
 28 27  1  0  0  0  0
 29 28  2  0  0  0  0
M  END
>  <MODEL>
8

>  <REMARK>
 VINA RESULT:      -4.0      2.457      6.594
  Name = 
  6 active torsions:
  status: ('A' for Active; 'I' for Inactive)
    1  A    between atoms: C_1  and  C_25
    2  A    between atoms: C_6  and  C_23
    3  A    between atoms: C_7  and  O_10
    4  A    between atoms: O_10  and  C_27
    5  A    between atoms: C_11  and  N_18
    6  A    between atoms: C_14  and  C_23
                            x       y       z     vdW  Elec       q    Type
                         _______ _______ _______ _____ _____    ______ ____

>  <TORSDO>
F 6

$$$$
=
 OpenBabel11042423133D

 29 33  0  0  1  0  0  0  0  0999 V2000
  161.5320  206.6840  150.2610 S   0  0  0  0  0  0  0  0  0  0  0  0
  161.6510  208.3310  149.9210 C   0  0  0  0  0  0  0  0  0  0  0  0
  161.7920  210.9420  148.7180 C   0  0  1  0  0  0  0  0  0  0  0  0
  161.3440  206.2000  148.6610 C   0  0  0  0  0  0  0  0  0  0  0  0
  163.1150  211.1280  149.4220 C   0  0  0  0  0  2  0  0  0  0  0  0
  161.9730  209.4450  150.8890 C   0  0  1  0  0  3  0  0  0  0  0  0
  161.3990  207.3120  147.8230 C   0  0  0  0  0  3  0  0  0  0  0  0
  161.7020  209.7420  147.9510 O   0  0  0  0  0  0  0  0  0  0  0  0
  161.5830  208.4940  148.5490 C   0  0  0  0  0  0  0  0  0  0  0  0
  161.8530  210.8540  150.2460 C   0  0  2  0  0  3  0  0  0  0  0  0
  161.1490  209.3350  152.1040 N   0  0  1  0  0  0  0  0  0  0  0  0
  161.3750  208.0620  152.6610 N   0  0  0  0  0  2  0  0  0  0  0  0
  161.1940  208.2100  154.0900 C   0  0  0  0  0  2  0  0  0  0  0  0
  161.3710  209.6740  154.3560 C   0  0  1  0  0  3  0  0  0  0  0  0
  161.5930  210.2770  153.0560 N   0  0  0  0  0  2  0  0  0  0  0  0
  160.1490  210.2540  155.0050 C   0  0  0  0  0  0  0  0  0  0  0  0
  158.1400  211.1260  155.3880 C   0  0  0  0  0  3  0  0  0  0  0  0
  160.0910  209.2850  157.2110 N   0  0  0  0  0  1  0  0  0  0  0  0
  159.0430  210.6100  154.3700 C   0  0  0  0  0  3  0  0  0  0  0  0
  160.0230  210.5290  156.4630 C   0  0  2  0  0  3  0  0  0  0  0  0
  158.6810  211.0810  156.5610 N   0  0  0  0  0  0  0  0  0  0  0  0
  161.1680  204.8670  148.2670 O   0  0  0  0  0  0  0  0  0  0  0  0
  161.5500  202.7950  147.0630 C   0  0  0  0  0  1  0  0  0  0  0  0
  163.0840  204.7070  146.8430 C   0  0  0  0  0  1  0  0  0  0  0  0
  160.8320  204.8500  145.8630 C   0  0  0  0  0  1  0  0  0  0  0  0
  161.6340  204.3110  147.0350 C   0  0  0  0  0  0  0  0  0  0  0  0
  161.2480  212.2180  148.1040 C   0  0  0  0  0  2  0  0  0  0  0  0
  162.2560  212.8170  147.1840 C   0  0  0  0  0  3  0  0  0  0  0  0
  162.6450  214.0240  147.3610 N   0  0  0  0  0  2  0  0  0  0  0  0
  2  1  1  0  0  0  0
  3 27  1  6  0  0  0
  3  5  1  0  0  0  0
  3 10  1  0  0  0  0
  4  1  1  0  0  0  0
  6  2  1  6  0  0  0
  6 11  1  0  0  0  0
  7  9  1  0  0  0  0
  7  4  2  0  0  0  0
  8  9  1  0  0  0  0
  8  3  1  0  0  0  0
  9  2  2  0  0  0  0
 10  5  1  6  0  0  0
 10  6  1  0  0  0  0
 11 12  1  1  0  0  0
 11 15  1  0  0  0  0
 12 13  1  0  0  0  0
 13 14  1  0  0  0  0
 14 16  1  6  0  0  0
 15 14  1  0  0  0  0
 16 20  1  0  0  0  0
 17 21  2  0  0  0  0
 19 16  2  0  0  0  0
 19 17  1  0  0  0  0
 20 21  1  0  0  0  0
 20 18  1  1  0  0  0
 22  4  1  0  0  0  0
 24 26  1  0  0  0  0
 25 26  1  0  0  0  0
 26 23  1  0  0  0  0
 26 22  1  0  0  0  0
 28 29  2  0  0  0  0
 28 27  1  0  0  0  0
M  END
>  <MODEL>
9

>  <REMARK>
 VINA RESULT:      -3.9      3.035      7.459
  Name = 
  6 active torsions:
  status: ('A' for Active; 'I' for Inactive)
    1  A    between atoms: C_1  and  C_25
    2  A    between atoms: C_6  and  C_23
    3  A    between atoms: C_7  and  O_10
    4  A    between atoms: O_10  and  C_27
    5  A    between atoms: C_11  and  N_18
    6  A    between atoms: C_14  and  C_23
                            x       y       z     vdW  Elec       q    Type
                         _______ _______ _______ _____ _____    ______ ____

>  <TORSDO>
F 6

$$$$
