=
 OpenBabel11052411103D

 44 49  0  0  1  0  0  0  0  0999 V2000
  161.4330  212.6530  146.9330 C   0  0  2  0  0  3  0  0  0  0  0  0
  162.6690  210.8540  149.8610 C   0  0  0  0  0  3  0  0  0  0  0  0
  160.3060  210.6360  152.3670 C   0  0  0  0  0  3  0  0  0  0  0  0
  160.9070  206.9560  149.8890 C   0  0  0  0  0  0  0  0  0  0  0  0
  160.5100  213.7160  146.6480 N   0  0  0  0  0  0  0  0  0  0  0  0
  160.1170  214.3380  147.6970 C   0  0  0  0  0  3  0  0  0  0  0  0
  160.2960  213.0180  151.2930 C   0  0  0  0  0  3  0  0  0  0  0  0
  161.5800  212.7280  148.4090 C   0  0  0  0  0  0  0  0  0  0  0  0
  162.7630  212.9370  146.2550 C   0  0  0  0  0  1  0  0  0  0  0  0
  162.0630  209.5160  149.8880 C   0  0  0  0  0  0  0  0  0  0  0  0
  161.0410  207.6570  151.0960 C   0  0  0  0  0  0  0  0  0  0  0  0
  159.6520  213.2970  149.9690 C   0  0  2  0  0  3  0  0  0  0  0  0
  160.2880  211.8220  151.8200 C   0  0  0  0  0  0  0  0  0  0  0  0
  162.1530  211.7950  149.1200 C   0  0  0  0  0  0  0  0  0  0  0  0
  160.7180  213.8190  148.9690 C   0  0  2  0  0  3  0  0  0  0  0  0
  161.9210  208.8050  148.6930 C   0  0  0  0  0  3  0  0  0  0  0  0
  161.5460  209.8010  152.3400 C   0  0  0  0  0  2  0  0  0  0  0  0
  161.5970  208.9580  151.0970 C   0  0  0  0  0  0  0  0  0  0  0  0
  161.3450  207.5370  148.6920 C   0  0  0  0  0  3  0  0  0  0  0  0
  155.6970  214.2300  152.8390 C   0  0  0  0  0  3  0  0  0  0  0  0
  158.1740  214.4490  151.7280 C   0  0  0  0  0  2  0  0  0  0  0  0
  156.7090  214.2600  151.7590 C   0  0  0  0  0  0  0  0  0  0  0  0
  156.2010  213.9360  150.6300 C   0  0  0  0  0  0  0  0  0  0  0  0
  157.1620  213.8530  149.5180 C   0  0  0  0  0  2  0  0  0  0  0  0
  154.8520  213.6790  150.6960 O   0  0  0  0  0  0  0  0  0  0  0  0
  158.4780  214.2610  150.2260 C   0  0  2  0  0  3  0  0  0  0  0  0
  154.4200  213.8580  152.0460 C   0  0  0  0  0  3  0  0  0  0  0  0
  160.5910  207.0370  152.2670 O   0  0  0  0  0  0  0  0  0  0  0  0
  161.2160  204.7890  153.3730 O   0  0  0  0  0  1  0  0  0  0  0  0
  160.5610  206.8110  154.8760 N   0  0  0  0  0  1  0  0  0  0  0  0
  161.6840  206.4520  153.5240 P   0  0  2  0  0  0  0  0  0  0  0  0
  160.3470  205.6750  149.9110 O   0  0  0  0  0  0  0  0  0  0  0  0
  161.0950  204.5070  150.2200 C   0  0  0  0  0  2  0  0  0  0  0  0
  160.3320  203.2850  149.7420 C   0  0  0  0  0  2  0  0  0  0  0  0
  161.2980  202.2150  149.2570 C   0  0  0  0  0  2  0  0  0  0  0  0
  160.8920  201.6990  147.8810 C   0  0  0  0  0  2  0  0  0  0  0  0
  162.2400  204.4710  145.6620 C   0  0  1  0  0  3  0  0  0  0  0  0
  160.6620  202.7200  145.5540 C   0  0  0  0  0  0  0  0  0  0  0  0
  159.7980  201.9020  145.1430 O   0  0  0  0  0  0  0  0  0  0  0  0
  162.2010  203.7210  147.0070 C   0  0  0  0  0  2  0  0  0  0  0  0
  161.2130  203.8130  144.7340 C   0  0  0  0  0  2  0  0  0  0  0  0
  161.2110  202.6800  146.8520 N   0  0  0  0  0  0  0  0  0  0  0  0
  161.8760  205.9330  145.8620 C   0  0  0  0  0  2  0  0  0  0  0  0
  160.4450  206.1880  145.4290 C   0  0  0  0  0  1  0  0  0  0  0  0
  1  9  1  6  0  0  0
  1  8  1  0  0  0  0
  2 10  1  0  0  0  0
  4 32  1  0  0  0  0
  4 11  1  0  0  0  0
  5  1  1  0  0  0  0
  5  6  2  0  0  0  0
  7 13  2  0  0  0  0
  8 15  1  0  0  0  0
  8 14  2  0  0  0  0
 10 18  1  0  0  0  0
 11 18  2  0  0  0  0
 11 28  1  0  0  0  0
 12 26  1  0  0  0  0
 12  7  1  1  0  0  0
 13  3  2  0  0  0  0
 14  2  2  0  0  0  0
 15  6  1  6  0  0  0
 15 12  1  0  0  0  0
 16 10  2  0  0  0  0
 17  3  1  0  0  0  0
 18 17  1  0  0  0  0
 19 16  1  0  0  0  0
 19  4  2  0  0  0  0
 21 22  1  0  0  0  0
 22 20  1  0  0  0  0
 23 25  1  0  0  0  0
 23 22  2  0  0  0  0
 24 23  1  0  0  0  0
 25 27  1  0  0  0  0
 26 24  1  6  0  0  0
 26 21  1  0  0  0  0
 27 20  2  0  0  0  0
 28 31  1  0  0  0  0
 31 29  1  6  0  0  0
 31 30  1  0  0  0  0
 32 33  1  0  0  0  0
 34 33  1  0  0  0  0
 35 34  1  0  0  0  0
 36 35  1  0  0  0  0
 37 43  1  1  0  0  0
 37 40  1  0  0  0  0
 38 42  1  0  0  0  0
 39 38  2  0  0  0  0
 41 38  1  0  0  0  0
 41 37  1  0  0  0  0
 42 40  1  0  0  0  0
 42 36  1  0  0  0  0
 44 43  1  0  0  0  0
M  END
>  <MODEL>
1

>  <REMARK>
 VINA RESULT:      -8.0      0.000      0.000
  Name = 
  10 active torsions:
  status: ('A' for Active; 'I' for Inactive)
    1  A    between atoms: O_4  and  C_16
    2  A    between atoms: O_4  and  P_33
    3  A    between atoms: C_5  and  O_25
    4  A    between atoms: C_7  and  C_26
    5  A    between atoms: C_7  and  C_36
    6  A    between atoms: C_13  and  O_25
    7  A    between atoms: C_13  and  C_26
    8  A    between atoms: C_18  and  C_31
    9  A    between atoms: C_20  and  C_29
   10  A    between atoms: C_36  and  N_44
                            x       y       z     vdW  Elec       q    Type
                         _______ _______ _______ _____ _____    ______ ____

>  <TORSDO>
F 10

$$$$
=
 OpenBabel11052411103D

 44 49  0  0  1  0  0  0  0  0999 V2000
  160.8100  206.6690  152.9350 C   0  0  2  0  0  3  0  0  0  0  0  0
  162.3830  209.7410  151.7440 C   0  0  0  0  0  3  0  0  0  0  0  0
  161.7700  210.3220  148.3970 C   0  0  0  0  0  3  0  0  0  0  0  0
  159.3470  212.7220  151.2980 C   0  0  0  0  0  0  0  0  0  0  0  0
  160.4550  205.3800  152.4080 N   0  0  0  0  0  0  0  0  0  0  0  0
  160.9610  205.1520  151.2530 C   0  0  0  0  0  3  0  0  0  0  0  0
  162.2900  207.7960  148.8160 C   0  0  0  0  0  3  0  0  0  0  0  0
  161.6860  207.2310  151.8760 C   0  0  0  0  0  0  0  0  0  0  0  0
  161.5910  206.4930  154.2280 C   0  0  0  0  0  1  0  0  0  0  0  0
  161.3480  210.7710  151.5770 C   0  0  0  0  0  0  0  0  0  0  0  0
  160.3590  212.6230  150.3320 C   0  0  0  0  0  0  0  0  0  0  0  0
  161.2790  206.8540  149.3930 C   0  0  2  0  0  3  0  0  0  0  0  0
  162.0140  209.0560  148.6070 C   0  0  0  0  0  0  0  0  0  0  0  0
  162.0510  208.4840  151.8380 C   0  0  0  0  0  0  0  0  0  0  0  0
  161.8080  206.2720  150.7300 C   0  0  2  0  0  3  0  0  0  0  0  0
  160.3320  210.8820  152.5300 C   0  0  0  0  0  3  0  0  0  0  0  0
  162.3080  211.3670  149.3210 C   0  0  0  0  0  2  0  0  0  0  0  0
  161.3530  211.6240  150.4530 C   0  0  0  0  0  0  0  0  0  0  0  0
  159.3380  211.8470  152.3910 C   0  0  0  0  0  3  0  0  0  0  0  0
  162.6840  204.9630  145.0110 C   0  0  0  0  0  3  0  0  0  0  0  0
  162.2290  205.1830  147.6870 C   0  0  0  0  0  2  0  0  0  0  0  0
  161.9320  205.2880  146.2440 C   0  0  0  0  0  0  0  0  0  0  0  0
  160.8380  205.8980  145.9800 C   0  0  0  0  0  0  0  0  0  0  0  0
  160.0730  206.3380  147.1580 C   0  0  0  0  0  2  0  0  0  0  0  0
  160.6220  206.0640  144.6330 O   0  0  0  0  0  0  0  0  0  0  0  0
  160.9610  205.8050  148.3100 C   0  0  2  0  0  3  0  0  0  0  0  0
  161.7180  205.4870  143.9210 C   0  0  0  0  0  3  0  0  0  0  0  0
  160.3280  213.5200  149.2570 O   0  0  0  0  0  0  0  0  0  0  0  0
  161.0160  213.9080  146.7990 O   0  0  0  0  0  1  0  0  0  0  0  0
  158.5700  214.4110  147.5340 N   0  0  0  0  0  1  0  0  0  0  0  0
  159.7560  213.0710  147.6490 P   0  0  2  0  0  0  0  0  0  0  0  0
  158.3700  213.7110  151.1530 O   0  0  0  0  0  0  0  0  0  0  0  0
  157.8290  214.4340  152.2510 C   0  0  0  0  0  2  0  0  0  0  0  0
  156.3380  214.1660  152.3400 C   0  0  0  0  0  2  0  0  0  0  0  0
  155.8320  214.4520  153.7460 C   0  0  0  0  0  2  0  0  0  0  0  0
  155.5270  213.1560  154.4880 C   0  0  0  0  0  2  0  0  0  0  0  0
  158.7320  212.6600  156.4650 C   0  0  1  0  0  3  0  0  0  0  0  0
  156.9710  211.3600  155.5850 C   0  0  0  0  0  0  0  0  0  0  0  0
  156.2120  210.3970  155.2980 O   0  0  0  0  0  0  0  0  0  0  0  0
  157.7330  213.5690  155.7240 C   0  0  0  0  0  2  0  0  0  0  0  0
  158.2240  211.2190  156.3460 C   0  0  0  0  0  2  0  0  0  0  0  0
  156.7020  212.6940  155.2150 N   0  0  0  0  0  0  0  0  0  0  0  0
  160.1100  212.7640  155.8340 C   0  0  0  0  0  2  0  0  0  0  0  0
  160.9350  211.5330  156.1560 C   0  0  0  0  0  1  0  0  0  0  0  0
  1  9  1  1  0  0  0
  2 14  2  0  0  0  0
  3 13  2  0  0  0  0
  3 17  1  0  0  0  0
  4 19  1  0  0  0  0
  5  1  1  0  0  0  0
  6  5  2  0  0  0  0
  8  1  1  0  0  0  0
 10  2  1  0  0  0  0
 10 16  1  0  0  0  0
 11 18  1  0  0  0  0
 11  4  2  0  0  0  0
 12  7  1  6  0  0  0
 12 15  1  0  0  0  0
 13  7  2  0  0  0  0
 14  8  2  0  0  0  0
 15  6  1  1  0  0  0
 15  8  1  0  0  0  0
 17 18  1  0  0  0  0
 18 10  2  0  0  0  0
 19 16  2  0  0  0  0
 20 22  1  0  0  0  0
 21 26  1  0  0  0  0
 22 21  1  0  0  0  0
 23 22  2  0  0  0  0
 23 24  1  0  0  0  0
 25 23  1  0  0  0  0
 26 24  1  6  0  0  0
 26 12  1  0  0  0  0
 27 25  1  0  0  0  0
 27 20  2  0  0  0  0
 28 11  1  0  0  0  0
 30 31  1  0  0  0  0
 31 29  1  6  0  0  0
 31 28  1  0  0  0  0
 32  4  1  0  0  0  0
 32 33  1  0  0  0  0
 33 34  1  0  0  0  0
 34 35  1  0  0  0  0
 35 36  1  0  0  0  0
 36 42  1  0  0  0  0
 37 43  1  6  0  0  0
 38 41  1  0  0  0  0
 39 38  2  0  0  0  0
 40 37  1  0  0  0  0
 41 37  1  0  0  0  0
 42 38  1  0  0  0  0
 42 40  1  0  0  0  0
 43 44  1  0  0  0  0
M  END
>  <MODEL>
2

>  <REMARK>
 VINA RESULT:      -7.4      3.218      9.947
  Name = 
  10 active torsions:
  status: ('A' for Active; 'I' for Inactive)
    1  A    between atoms: O_4  and  C_16
    2  A    between atoms: O_4  and  P_33
    3  A    between atoms: C_5  and  O_25
    4  A    between atoms: C_7  and  C_26
    5  A    between atoms: C_7  and  C_36
    6  A    between atoms: C_13  and  O_25
    7  A    between atoms: C_13  and  C_26
    8  A    between atoms: C_18  and  C_31
    9  A    between atoms: C_20  and  C_29
   10  A    between atoms: C_36  and  N_44
                            x       y       z     vdW  Elec       q    Type
                         _______ _______ _______ _____ _____    ______ ____

>  <TORSDO>
F 10

$$$$
=
 OpenBabel11052411103D

 44 49  0  0  1  0  0  0  0  0999 V2000
  159.0540  213.4440  148.2460 C   0  0  2  0  0  3  0  0  0  0  0  0
  162.0110  212.0020  149.8300 C   0  0  0  0  0  3  0  0  0  0  0  0
  161.2580  210.3400  152.7590 C   0  0  0  0  0  3  0  0  0  0  0  0
  161.9740  207.7780  149.1590 C   0  0  0  0  0  0  0  0  0  0  0  0
  157.7880  213.9890  148.6510 N   0  0  0  0  0  0  0  0  0  0  0  0
  157.7070  214.1920  149.9130 C   0  0  0  0  0  3  0  0  0  0  0  0
  159.9200  212.5790  152.5970 C   0  0  0  0  0  3  0  0  0  0  0  0
  159.8020  213.3550  149.5260 C   0  0  0  0  0  0  0  0  0  0  0  0
  159.7450  214.4100  147.2970 C   0  0  0  0  0  1  0  0  0  0  0  0
  162.0050  210.5490  149.6150 C   0  0  0  0  0  0  0  0  0  0  0  0
  162.3670  208.2700  150.4120 C   0  0  0  0  0  0  0  0  0  0  0  0
  158.7050  212.7250  151.7340 C   0  0  2  0  0  3  0  0  0  0  0  0
  160.5760  211.4510  152.6730 C   0  0  0  0  0  0  0  0  0  0  0  0
  160.9220  212.6980  149.6560 C   0  0  0  0  0  0  0  0  0  0  0  0
  158.9500  213.8250  150.6670 C   0  0  2  0  0  3  0  0  0  0  0  0
  161.6140  210.0420  148.3730 C   0  0  0  0  0  3  0  0  0  0  0  0
  162.5650  210.1890  152.0480 C   0  0  0  0  0  2  0  0  0  0  0  0
  162.3580  209.6630  150.6550 C   0  0  0  0  0  0  0  0  0  0  0  0
  161.5950  208.6680  148.1460 C   0  0  0  0  0  3  0  0  0  0  0  0
  157.3110  214.4300  156.1950 C   0  0  0  0  0  3  0  0  0  0  0  0
  157.6650  214.2770  153.4990 C   0  0  0  0  0  2  0  0  0  0  0  0
  157.3290  213.7990  154.8560 C   0  0  0  0  0  0  0  0  0  0  0  0
  157.1160  212.5390  154.9270 C   0  0  0  0  0  0  0  0  0  0  0  0
  157.2070  211.8210  153.6450 C   0  0  0  0  0  2  0  0  0  0  0  0
  156.8920  212.0990  156.2100 O   0  0  0  0  0  0  0  0  0  0  0  0
  157.5080  212.9850  152.6680 C   0  0  2  0  0  3  0  0  0  0  0  0
  156.9680  213.2180  157.0950 C   0  0  0  0  0  3  0  0  0  0  0  0
  162.7380  207.3430  151.3930 O   0  0  0  0  0  0  0  0  0  0  0  0
  160.2470  207.4340  152.0650 O   0  0  0  0  0  1  0  0  0  0  0  0
  162.0380  206.9040  153.8780 N   0  0  0  0  0  1  0  0  0  0  0  0
  161.5720  206.3290  152.2440 P   0  0  2  0  0  0  0  0  0  0  0  0
  161.9820  206.3960  148.9440 O   0  0  0  0  0  0  0  0  0  0  0  0
  161.3780  205.7840  147.8120 C   0  0  0  0  0  2  0  0  0  0  0  0
  161.9750  204.4030  147.6130 C   0  0  0  0  0  2  0  0  0  0  0  0
  161.6440  203.8790  146.2240 C   0  0  0  0  0  2  0  0  0  0  0  0
  160.9160  202.5420  146.3060 C   0  0  0  0  0  2  0  0  0  0  0  0
  160.5080  201.9090  150.0290 C   0  0  1  0  0  3  0  0  0  0  0  0
  161.2600  200.7670  148.1060 C   0  0  0  0  0  0  0  0  0  0  0  0
  161.6870  199.8770  147.3240 O   0  0  0  0  0  0  0  0  0  0  0  0
  160.4030  202.8320  148.8000 C   0  0  0  0  0  2  0  0  0  0  0  0
  161.0870  200.5700  149.5560 C   0  0  0  0  0  2  0  0  0  0  0  0
  160.8890  202.0590  147.6800 N   0  0  0  0  0  0  0  0  0  0  0  0
  161.4290  202.5180  151.0710 C   0  0  0  0  0  2  0  0  0  0  0  0
  160.6230  203.1100  152.2110 C   0  0  0  0  0  1  0  0  0  0  0  0
  1  9  1  6  0  0  0
  1  5  1  0  0  0  0
  1  8  1  0  0  0  0
  4 11  1  0  0  0  0
  5  6  2  0  0  0  0
  7 13  2  0  0  0  0
  8 14  2  0  0  0  0
  8 15  1  0  0  0  0
 10  2  1  0  0  0  0
 10 18  1  0  0  0  0
 11 18  2  0  0  0  0
 11 28  1  0  0  0  0
 12  7  1  1  0  0  0
 12 26  1  0  0  0  0
 13  3  2  0  0  0  0
 14  2  2  0  0  0  0
 15  6  1  6  0  0  0
 15 12  1  0  0  0  0
 16 10  2  0  0  0  0
 17  3  1  0  0  0  0
 18 17  1  0  0  0  0
 19 16  1  0  0  0  0
 19  4  2  0  0  0  0
 20 27  2  0  0  0  0
 21 22  1  0  0  0  0
 22 23  2  0  0  0  0
 22 20  1  0  0  0  0
 23 25  1  0  0  0  0
 24 23  1  0  0  0  0
 25 27  1  0  0  0  0
 26 21  1  1  0  0  0
 26 24  1  0  0  0  0
 28 31  1  0  0  0  0
 31 29  1  6  0  0  0
 31 30  1  0  0  0  0
 32  4  1  0  0  0  0
 33 32  1  0  0  0  0
 34 33  1  0  0  0  0
 35 36  1  0  0  0  0
 35 34  1  0  0  0  0
 36 42  1  0  0  0  0
 37 43  1  1  0  0  0
 38 41  1  0  0  0  0
 39 38  2  0  0  0  0
 40 37  1  0  0  0  0
 41 37  1  0  0  0  0
 42 38  1  0  0  0  0
 42 40  1  0  0  0  0
 43 44  1  0  0  0  0
M  END
>  <MODEL>
3

>  <REMARK>
 VINA RESULT:      -5.7      2.044      3.268
  Name = 
  10 active torsions:
  status: ('A' for Active; 'I' for Inactive)
    1  A    between atoms: O_4  and  C_16
    2  A    between atoms: O_4  and  P_33
    3  A    between atoms: C_5  and  O_25
    4  A    between atoms: C_7  and  C_26
    5  A    between atoms: C_7  and  C_36
    6  A    between atoms: C_13  and  O_25
    7  A    between atoms: C_13  and  C_26
    8  A    between atoms: C_18  and  C_31
    9  A    between atoms: C_20  and  C_29
   10  A    between atoms: C_36  and  N_44
                            x       y       z     vdW  Elec       q    Type
                         _______ _______ _______ _____ _____    ______ ____

>  <TORSDO>
F 10

$$$$
=
 OpenBabel11052411103D

 44 49  0  0  1  0  0  0  0  0999 V2000
  159.7870  213.0260  150.7990 C   0  0  2  0  0  3  0  0  0  0  0  0
  162.2500  210.5450  151.8520 C   0  0  0  0  0  3  0  0  0  0  0  0
  160.8420  207.9910  153.6970 C   0  0  0  0  0  3  0  0  0  0  0  0
  161.7760  207.0600  149.4190 C   0  0  0  0  0  0  0  0  0  0  0  0
  158.5540  213.5770  151.2900 N   0  0  0  0  0  0  0  0  0  0  0  0
  158.3030  213.2520  152.5030 C   0  0  0  0  0  3  0  0  0  0  0  0
  159.8440  210.3000  154.4040 C   0  0  0  0  0  3  0  0  0  0  0  0
  160.3070  212.2820  151.9740 C   0  0  0  0  0  0  0  0  0  0  0  0
  160.7350  214.1540  150.4260 C   0  0  0  0  0  1  0  0  0  0  0  0
  162.0910  209.3380  151.0300 C   0  0  0  0  0  0  0  0  0  0  0  0
  162.0290  206.9100  150.7900 C   0  0  0  0  0  0  0  0  0  0  0  0
  158.8080  211.0090  153.5880 C   0  0  2  0  0  3  0  0  0  0  0  0
  160.3300  209.1420  154.0410 C   0  0  0  0  0  0  0  0  0  0  0  0
  161.3000  211.4370  151.9040 C   0  0  0  0  0  0  0  0  0  0  0  0
  159.3560  212.3860  153.1270 C   0  0  2  0  0  3  0  0  0  0  0  0
  161.8380  209.4710  149.6620 C   0  0  0  0  0  3  0  0  0  0  0  0
  162.2130  207.9110  153.1060 C   0  0  0  0  0  2  0  0  0  0  0  0
  162.1610  208.0540  151.6110 C   0  0  0  0  0  0  0  0  0  0  0  0
  161.6780  208.3410  148.8630 C   0  0  0  0  0  3  0  0  0  0  0  0
  155.2640  213.9940  155.4000 C   0  0  0  0  0  3  0  0  0  0  0  0
  156.4960  212.0890  153.8920 C   0  0  0  0  0  2  0  0  0  0  0  0
  156.1380  212.8330  155.1180 C   0  0  0  0  0  0  0  0  0  0  0  0
  156.8070  212.4870  156.1520 C   0  0  0  0  0  0  0  0  0  0  0  0
  157.7700  211.3950  155.9310 C   0  0  0  0  0  2  0  0  0  0  0  0
  156.5240  213.2480  157.2610 O   0  0  0  0  0  0  0  0  0  0  0  0
  157.5230  211.0730  154.4360 C   0  0  2  0  0  3  0  0  0  0  0  0
  155.5400  214.2200  156.9060 C   0  0  0  0  0  3  0  0  0  0  0  0
  162.1210  205.6100  151.3010 O   0  0  0  0  0  0  0  0  0  0  0  0
  160.8550  204.3590  153.1730 O   0  0  0  0  0  1  0  0  0  0  0  0
  161.6440  203.0460  151.0680 N   0  0  0  0  0  1  0  0  0  0  0  0
  160.7260  204.5390  151.4520 P   0  0  2  0  0  0  0  0  0  0  0  0
  161.6410  205.9140  148.6290 O   0  0  0  0  0  0  0  0  0  0  0  0
  162.0530  205.8570  147.2690 C   0  0  0  0  0  2  0  0  0  0  0  0
  160.8910  206.2520  146.3770 C   0  0  0  0  0  2  0  0  0  0  0  0
  160.8040  205.3210  145.1780 C   0  0  0  0  0  2  0  0  0  0  0  0
  161.8490  204.2150  145.2700 C   0  0  0  0  0  2  0  0  0  0  0  0
  160.7510  201.2410  147.3630 C   0  0  1  0  0  3  0  0  0  0  0  0
  160.2170  202.2540  145.3000 C   0  0  0  0  0  0  0  0  0  0  0  0
  159.6660  202.5340  144.2030 O   0  0  0  0  0  0  0  0  0  0  0  0
  161.6590  202.4640  147.1320 C   0  0  0  0  0  2  0  0  0  0  0  0
  159.8290  201.1120  146.1450 C   0  0  0  0  0  2  0  0  0  0  0  0
  161.2700  203.0110  145.8530 N   0  0  0  0  0  0  0  0  0  0  0  0
  161.5870  199.9810  147.5010 C   0  0  0  0  0  2  0  0  0  0  0  0
  161.5160  199.1560  146.2300 C   0  0  0  0  0  1  0  0  0  0  0  0
  1  9  1  1  0  0  0
  1  5  1  0  0  0  0
  1  8  1  0  0  0  0
  2 14  2  0  0  0  0
  3 13  2  0  0  0  0
  4 11  1  0  0  0  0
  5  6  2  0  0  0  0
  8 15  1  0  0  0  0
 10 18  1  0  0  0  0
 10  2  1  0  0  0  0
 11 28  1  0  0  0  0
 11 18  2  0  0  0  0
 12  7  1  1  0  0  0
 12 26  1  0  0  0  0
 13  7  2  0  0  0  0
 14  8  2  0  0  0  0
 15  6  1  6  0  0  0
 15 12  1  0  0  0  0
 16 10  2  0  0  0  0
 17  3  1  0  0  0  0
 18 17  1  0  0  0  0
 19  4  2  0  0  0  0
 19 16  1  0  0  0  0
 20 27  2  0  0  0  0
 21 22  1  0  0  0  0
 22 20  1  0  0  0  0
 22 23  2  0  0  0  0
 23 25  1  0  0  0  0
 24 23  1  0  0  0  0
 26 21  1  6  0  0  0
 26 24  1  0  0  0  0
 27 25  1  0  0  0  0
 28 31  1  0  0  0  0
 31 30  1  6  0  0  0
 31 29  1  0  0  0  0
 32  4  1  0  0  0  0
 33 32  1  0  0  0  0
 34 33  1  0  0  0  0
 35 36  1  0  0  0  0
 35 34  1  0  0  0  0
 36 42  1  0  0  0  0
 37 43  1  6  0  0  0
 38 42  1  0  0  0  0
 38 41  1  0  0  0  0
 39 38  2  0  0  0  0
 40 37  1  0  0  0  0
 41 37  1  0  0  0  0
 42 40  1  0  0  0  0
 44 43  1  0  0  0  0
M  END
>  <MODEL>
4

>  <REMARK>
 VINA RESULT:      -5.0      2.457      3.893
  Name = 
  10 active torsions:
  status: ('A' for Active; 'I' for Inactive)
    1  A    between atoms: O_4  and  C_16
    2  A    between atoms: O_4  and  P_33
    3  A    between atoms: C_5  and  O_25
    4  A    between atoms: C_7  and  C_26
    5  A    between atoms: C_7  and  C_36
    6  A    between atoms: C_13  and  O_25
    7  A    between atoms: C_13  and  C_26
    8  A    between atoms: C_18  and  C_31
    9  A    between atoms: C_20  and  C_29
   10  A    between atoms: C_36  and  N_44
                            x       y       z     vdW  Elec       q    Type
                         _______ _______ _______ _____ _____    ______ ____

>  <TORSDO>
F 10

$$$$
