=
 OpenBabel11042421093D

 28 32  0  0  1  0  0  0  0  0999 V2000
  161.1450  202.6910  149.6900 C   0  0  0  0  0  0  0  0  0  0  0  0
  160.9500  204.2560  147.6180 C   0  0  2  0  0  3  0  0  0  0  0  0
  161.5100  204.0430  149.0450 C   0  0  1  0  0  3  0  0  0  0  0  0
  161.2190  205.2890  149.8860 C   0  0  2  0  0  3  0  0  0  0  0  0
  161.2910  201.0930  147.7330 C   0  0  0  0  0  3  0  0  0  0  0  0
  160.6430  203.4000  152.1280 C   0  0  0  0  0  3  0  0  0  0  0  0
  160.8020  202.4890  150.9760 C   0  0  0  0  0  3  0  0  0  0  0  0
  160.7100  201.9880  146.6990 C   0  0  0  0  0  2  0  0  0  0  0  0
  161.1430  204.6240  152.2520 C   0  0  0  0  0  3  0  0  0  0  0  0
  161.9720  205.2680  151.2020 C   0  0  2  0  0  3  0  0  0  0  0  0
  161.5050  203.2650  146.6140 C   0  0  0  0  0  2  0  0  0  0  0  0
  159.8560  205.5100  150.0390 F   0  0  0  0  0  0  0  0  0  0  0  0
  161.4380  201.4080  149.0190 C   0  0  0  0  0  3  0  0  0  0  0  0
  161.2050  205.5970  147.1340 N   0  0  0  0  0  0  0  0  0  0  0  0
  160.4040  206.1720  146.4600 O   0  0  0  0  0  0  0  0  0  0  0  0
  162.3140  206.6290  151.6120 N   0  0  0  0  0  2  0  0  0  0  0  0
  160.7690  207.6500  153.7540 C   0  0  0  0  0  2  0  0  0  0  0  0
  160.4380  208.5550  154.7690 O   0  0  0  0  0  0  0  0  0  0  0  0
  161.8020  210.3150  153.6680 C   0  0  2  0  0  3  0  0  0  0  0  0
  161.2490  209.7130  152.3650 C   0  0  1  0  0  0  0  0  0  0  0  0
  161.2780  207.6040  151.2230 C   0  0  2  0  0  3  0  0  0  0  0  0
  161.8270  208.6840  150.2810 C   0  0  0  0  0  2  0  0  0  0  0  0
  159.3130  210.6740  153.6110 O   0  0  0  0  0  1  0  0  0  0  0  0
  162.0650  209.9380  151.1140 C   0  0  0  0  0  2  0  0  0  0  0  0
  160.6090  208.3360  152.3960 C   0  0  1  0  0  3  0  0  0  0  0  0
  160.7310  212.1390  152.3850 O   0  0  0  0  0  1  0  0  0  0  0  0
  161.5410  209.4190  154.9060 C   0  0  0  0  0  2  0  0  0  0  0  0
  160.5510  210.9010  153.0020 C   0  0  0  0  0  0  0  0  0  0  0  0
  1  7  2  0  0  0  0
  2 14  1  6  0  0  0
  2  3  1  0  0  0  0
  3  1  1  1  0  0  0
  3  4  1  0  0  0  0
  4 12  1  1  0  0  0
  4 10  1  0  0  0  0
  5 13  2  0  0  0  0
  6  9  2  0  0  0  0
  7  6  1  0  0  0  0
  8  5  1  0  0  0  0
 10 16  1  1  0  0  0
 10  9  1  0  0  0  0
 11  8  1  0  0  0  0
 11  2  1  0  0  0  0
 13  1  1  0  0  0  0
 15 14  2  0  0  0  0
 17 18  1  0  0  0  0
 18 27  1  0  0  0  0
 19 27  1  1  0  0  0
 20 24  1  6  0  0  0
 20 25  1  0  0  0  0
 20 28  1  0  0  0  0
 20 19  1  0  0  0  0
 21 16  1  1  0  0  0
 21 25  1  0  0  0  0
 22 24  1  0  0  0  0
 22 21  1  0  0  0  0
 25 17  1  1  0  0  0
 26 28  1  0  0  0  0
 28 23  1  0  0  0  0
 28 19  1  0  0  0  0
M  END
>  <MODEL>
1

>  <REMARK>
 VINA RESULT:      -9.7      0.000      0.000
  Name = 
  3 active torsions:
  status: ('A' for Active; 'I' for Inactive)
    1  A    between atoms: C_4  and  N_9
    2  A    between atoms: C_11  and  N_12
    3  A    between atoms: N_12  and  C_24
                            x       y       z     vdW  Elec       q    Type
                         _______ _______ _______ _____ _____    ______ ____

>  <TORSDO>
F 3

$$$$
=
 OpenBabel11042421093D

 28 32  0  0  1  0  0  0  0  0999 V2000
  161.2390  203.9550  148.6940 C   0  0  0  0  0  0  0  0  0  0  0  0
  161.1940  206.3000  147.5620 C   0  0  2  0  0  3  0  0  0  0  0  0
  161.6220  205.4460  148.7800 C   0  0  1  0  0  3  0  0  0  0  0  0
  161.2120  206.1720  150.0650 C   0  0  2  0  0  3  0  0  0  0  0  0
  161.6210  203.4320  146.2480 C   0  0  0  0  0  3  0  0  0  0  0  0
  160.4840  203.4730  151.1220 C   0  0  0  0  0  3  0  0  0  0  0  0
  160.7800  203.1910  149.7030 C   0  0  0  0  0  3  0  0  0  0  0  0
  161.1140  204.7110  145.6870 C   0  0  0  0  0  2  0  0  0  0  0  0
  160.9310  204.4960  151.8430 C   0  0  0  0  0  3  0  0  0  0  0  0
  161.8360  205.5370  151.2920 C   0  0  2  0  0  3  0  0  0  0  0  0
  161.8730  205.8720  146.2760 C   0  0  0  0  0  2  0  0  0  0  0  0
  159.8350  206.3200  150.1670 F   0  0  0  0  0  0  0  0  0  0  0  0
  161.6340  203.1190  147.5420 C   0  0  0  0  0  3  0  0  0  0  0  0
  161.4520  207.7090  147.7740 N   0  0  0  0  0  0  0  0  0  0  0  0
  162.5410  208.0970  148.0760 O   0  0  0  0  0  0  0  0  0  0  0  0
  162.0960  206.5520  152.3130 N   0  0  0  0  0  2  0  0  0  0  0  0
  160.6580  206.8800  154.7300 C   0  0  0  0  0  2  0  0  0  0  0  0
  160.3940  207.4240  155.9930 O   0  0  0  0  0  0  0  0  0  0  0  0
  161.7900  209.4060  155.4490 C   0  0  2  0  0  3  0  0  0  0  0  0
  161.1730  209.2640  154.0460 C   0  0  1  0  0  0  0  0  0  0  0  0
  161.0860  207.6270  152.2960 C   0  0  2  0  0  3  0  0  0  0  0  0
  161.6460  208.9350  151.7210 C   0  0  0  0  0  2  0  0  0  0  0  0
  159.3170  209.8310  155.6120 O   0  0  0  0  0  1  0  0  0  0  0  0
  161.9590  209.8520  152.8980 C   0  0  0  0  0  2  0  0  0  0  0  0
  160.4820  207.9660  153.6670 C   0  0  1  0  0  3  0  0  0  0  0  0
  160.7500  211.5710  154.8540 O   0  0  0  0  0  1  0  0  0  0  0  0
  161.5330  208.1710  156.3500 C   0  0  0  0  0  2  0  0  0  0  0  0
  160.5420  210.2060  155.0550 C   0  0  0  0  0  0  0  0  0  0  0  0
  1  7  2  0  0  0  0
  2 14  1  1  0  0  0
  2  3  1  0  0  0  0
  3  1  1  6  0  0  0
  3  4  1  0  0  0  0
  4 12  1  1  0  0  0
  4 10  1  0  0  0  0
  5 13  2  0  0  0  0
  6  9  2  0  0  0  0
  7  6  1  0  0  0  0
  8  5  1  0  0  0  0
  8 11  1  0  0  0  0
 10  9  1  0  0  0  0
 10 16  1  1  0  0  0
 11  2  1  0  0  0  0
 13  1  1  0  0  0  0
 14 15  2  0  0  0  0
 17 18  1  0  0  0  0
 18 27  1  0  0  0  0
 19 27  1  1  0  0  0
 20 24  1  6  0  0  0
 20 28  1  0  0  0  0
 20 19  1  0  0  0  0
 21 16  1  1  0  0  0
 21 25  1  0  0  0  0
 22 21  1  0  0  0  0
 22 24  1  0  0  0  0
 25 20  1  0  0  0  0
 25 17  1  1  0  0  0
 26 28  1  0  0  0  0
 28 19  1  0  0  0  0
 28 23  1  0  0  0  0
M  END
>  <MODEL>
2

>  <REMARK>
 VINA RESULT:      -9.6      1.441      1.870
  Name = 
  3 active torsions:
  status: ('A' for Active; 'I' for Inactive)
    1  A    between atoms: C_4  and  N_9
    2  A    between atoms: C_11  and  N_12
    3  A    between atoms: N_12  and  C_24
                            x       y       z     vdW  Elec       q    Type
                         _______ _______ _______ _____ _____    ______ ____

>  <TORSDO>
F 3

$$$$
=
 OpenBabel11042421093D

 28 32  0  0  1  0  0  0  0  0999 V2000
  161.5960  205.0950  147.7570 C   0  0  0  0  0  0  0  0  0  0  0  0
  161.0980  203.2030  149.4770 C   0  0  2  0  0  3  0  0  0  0  0  0
  160.9170  204.6890  149.0800 C   0  0  1  0  0  3  0  0  0  0  0  0
  161.2300  205.5690  150.2940 C   0  0  2  0  0  3  0  0  0  0  0  0
  161.2110  203.0630  146.2980 C   0  0  0  0  0  3  0  0  0  0  0  0
  162.5530  207.4220  148.3590 C   0  0  0  0  0  3  0  0  0  0  0  0
  162.2530  206.2450  147.5190 C   0  0  0  0  0  3  0  0  0  0  0  0
  161.4130  202.0240  147.3420 C   0  0  0  0  0  2  0  0  0  0  0  0
  161.9400  207.7790  149.4820 C   0  0  0  0  0  3  0  0  0  0  0  0
  160.8120  207.0090  150.0660 C   0  0  2  0  0  3  0  0  0  0  0  0
  160.4600  202.2480  148.4870 C   0  0  0  0  0  2  0  0  0  0  0  0
  162.5500  205.4420  150.7070 F   0  0  0  0  0  0  0  0  0  0  0  0
  161.3270  204.3750  146.4950 C   0  0  0  0  0  3  0  0  0  0  0  0
  160.5640  202.9290  150.7940 N   0  0  0  0  0  0  0  0  0  0  0  0
  161.2610  202.5050  151.6660 O   0  0  0  0  0  0  0  0  0  0  0  0
  160.3990  207.6230  151.3270 N   0  0  0  0  0  2  0  0  0  0  0  0
  160.9580  210.2440  152.2410 C   0  0  0  0  0  2  0  0  0  0  0  0
  160.8600  211.3410  153.1050 O   0  0  0  0  0  0  0  0  0  0  0  0
  160.0730  209.8530  154.9320 C   0  0  2  0  0  3  0  0  0  0  0  0
  161.1000  208.8610  154.3590 C   0  0  1  0  0  0  0  0  0  0  0  0
  161.5130  207.7230  152.2880 C   0  0  2  0  0  3  0  0  0  0  0  0
  161.4020  206.6820  153.4100 C   0  0  0  0  0  2  0  0  0  0  0  0
  162.3760  210.8170  155.2320 O   0  0  0  0  0  1  0  0  0  0  0  0
  160.8600  207.3970  154.6420 C   0  0  0  0  0  2  0  0  0  0  0  0
  161.6590  209.0940  152.9660 C   0  0  1  0  0  3  0  0  0  0  0  0
  161.5890  209.1820  156.7690 O   0  0  0  0  0  1  0  0  0  0  0  0
  159.8040  211.0550  153.9920 C   0  0  0  0  0  2  0  0  0  0  0  0
  161.4920  209.7710  155.5080 C   0  0  0  0  0  0  0  0  0  0  0  0
  2 14  1  1  0  0  0
  3  1  1  6  0  0  0
  3  2  1  0  0  0  0
  3  4  1  0  0  0  0
  4 12  1  6  0  0  0
  5 13  2  0  0  0  0
  5  8  1  0  0  0  0
  6  9  2  0  0  0  0
  7  1  2  0  0  0  0
  7  6  1  0  0  0  0
  8 11  1  0  0  0  0
  9 10  1  0  0  0  0
 10  4  1  0  0  0  0
 10 16  1  1  0  0  0
 11  2  1  0  0  0  0
 13  1  1  0  0  0  0
 14 15  2  0  0  0  0
 17 18  1  0  0  0  0
 18 27  1  0  0  0  0
 19 27  1  6  0  0  0
 19 28  1  0  0  0  0
 20 24  1  1  0  0  0
 20 19  1  0  0  0  0
 20 28  1  0  0  0  0
 21 16  1  6  0  0  0
 21 25  1  0  0  0  0
 21 22  1  0  0  0  0
 22 24  1  0  0  0  0
 23 28  1  0  0  0  0
 25 17  1  6  0  0  0
 25 20  1  0  0  0  0
 28 26  1  0  0  0  0
M  END
>  <MODEL>
3

>  <REMARK>
 VINA RESULT:      -9.2      2.061      3.414
  Name = 
  3 active torsions:
  status: ('A' for Active; 'I' for Inactive)
    1  A    between atoms: C_4  and  N_9
    2  A    between atoms: C_11  and  N_12
    3  A    between atoms: N_12  and  C_24
                            x       y       z     vdW  Elec       q    Type
                         _______ _______ _______ _____ _____    ______ ____

>  <TORSDO>
F 3

$$$$
=
 OpenBabel11042421093D

 28 32  0  0  1  0  0  0  0  0999 V2000
  160.8810  207.7690  153.9260 C   0  0  0  0  0  0  0  0  0  0  0  0
  160.7250  210.2300  153.0880 C   0  0  2  0  0  3  0  0  0  0  0  0
  160.6450  208.7240  152.7390 C   0  0  1  0  0  3  0  0  0  0  0  0
  161.4850  208.4580  151.4860 C   0  0  2  0  0  3  0  0  0  0  0  0
  159.7150  208.9630  155.8290 C   0  0  0  0  0  3  0  0  0  0  0  0
  162.3260  205.9240  152.8280 C   0  0  0  0  0  3  0  0  0  0  0  0
  161.5810  206.6190  153.8980 C   0  0  0  0  0  3  0  0  0  0  0  0
  160.1050  210.3500  155.4650 C   0  0  0  0  0  2  0  0  0  0  0  0
  162.1980  206.1050  151.5190 C   0  0  0  0  0  3  0  0  0  0  0  0
  161.2370  207.0710  150.9270 C   0  0  2  0  0  3  0  0  0  0  0  0
  159.6490  210.6650  154.0640 C   0  0  0  0  0  2  0  0  0  0  0  0
  162.8310  208.7330  151.6910 F   0  0  0  0  0  0  0  0  0  0  0  0
  160.0880  207.8680  155.1700 C   0  0  0  0  0  3  0  0  0  0  0  0
  160.6410  211.0620  151.9060 N   0  0  0  0  0  0  0  0  0  0  0  0
  160.0800  212.1160  151.9320 O   0  0  0  0  0  0  0  0  0  0  0  0
  161.3800  207.0770  149.4720 N   0  0  0  0  0  2  0  0  0  0  0  0
  161.8900  206.5470  146.7380 C   0  0  0  0  0  2  0  0  0  0  0  0
  162.4080  205.8300  145.6530 O   0  0  0  0  0  0  0  0  0  0  0  0
  162.5460  203.7820  147.0520 C   0  0  2  0  0  3  0  0  0  0  0  0
  161.2140  204.2790  147.6400 C   0  0  1  0  0  0  0  0  0  0  0  0
  160.3930  206.2040  148.8120 C   0  0  2  0  0  3  0  0  0  0  0  0
  160.0850  204.9500  149.6430 C   0  0  0  0  0  2  0  0  0  0  0  0
  160.8030  203.7440  145.2390 O   0  0  0  0  0  1  0  0  0  0  0  0
  160.8610  203.7930  149.0260 C   0  0  0  0  0  2  0  0  0  0  0  0
  160.7930  205.7200  147.4100 C   0  0  1  0  0  3  0  0  0  0  0  0
  160.8850  201.9630  146.8130 O   0  0  0  0  0  1  0  0  0  0  0  0
  163.2660  204.8540  146.1950 C   0  0  0  0  0  2  0  0  0  0  0  0
  161.2060  203.2830  146.4950 C   0  0  0  0  0  0  0  0  0  0  0  0
  1 13  1  0  0  0  0
  2 14  1  6  0  0  0
  2 11  1  0  0  0  0
  3  2  1  0  0  0  0
  3  1  1  1  0  0  0
  4 12  1  1  0  0  0
  4  3  1  0  0  0  0
  6  7  1  0  0  0  0
  7  1  2  0  0  0  0
  8  5  1  0  0  0  0
  9  6  2  0  0  0  0
 10 16  1  6  0  0  0
 10  4  1  0  0  0  0
 10  9  1  0  0  0  0
 11  8  1  0  0  0  0
 13  5  2  0  0  0  0
 14 15  2  0  0  0  0
 18 27  1  0  0  0  0
 18 17  1  0  0  0  0
 19 27  1  6  0  0  0
 19 20  1  0  0  0  0
 20 24  1  1  0  0  0
 21 16  1  1  0  0  0
 21 22  1  0  0  0  0
 23 28  1  0  0  0  0
 24 22  1  0  0  0  0
 25 17  1  1  0  0  0
 25 20  1  0  0  0  0
 25 21  1  0  0  0  0
 28 26  1  0  0  0  0
 28 19  1  0  0  0  0
 28 20  1  0  0  0  0
M  END
>  <MODEL>
4

>  <REMARK>
 VINA RESULT:      -9.0      2.091      7.704
  Name = 
  3 active torsions:
  status: ('A' for Active; 'I' for Inactive)
    1  A    between atoms: C_4  and  N_9
    2  A    between atoms: C_11  and  N_12
    3  A    between atoms: N_12  and  C_24
                            x       y       z     vdW  Elec       q    Type
                         _______ _______ _______ _____ _____    ______ ____

>  <TORSDO>
F 3

$$$$
=
 OpenBabel11042421093D

 28 32  0  0  1  0  0  0  0  0999 V2000
  161.3660  206.8780  149.2340 C   0  0  0  0  0  0  0  0  0  0  0  0
  161.3320  204.7970  150.8000 C   0  0  2  0  0  3  0  0  0  0  0  0
  160.9610  206.2870  150.5990 C   0  0  1  0  0  3  0  0  0  0  0  0
  161.4030  207.0810  151.8320 C   0  0  2  0  0  3  0  0  0  0  0  0
  160.9080  204.9590  147.6490 C   0  0  0  0  0  3  0  0  0  0  0  0
  162.2120  209.2260  149.9160 C   0  0  0  0  0  3  0  0  0  0  0  0
  161.8720  208.1060  149.0150 C   0  0  0  0  0  3  0  0  0  0  0  0
  161.3730  203.8550  148.5290 C   0  0  0  0  0  2  0  0  0  0  0  0
  161.7730  209.4150  151.1560 C   0  0  0  0  0  3  0  0  0  0  0  0
  160.8320  208.4850  151.8300 C   0  0  2  0  0  3  0  0  0  0  0  0
  160.6160  203.8770  149.8310 C   0  0  0  0  0  2  0  0  0  0  0  0
  162.7800  207.0500  152.0080 F   0  0  0  0  0  0  0  0  0  0  0  0
  160.9450  206.2520  147.9630 C   0  0  0  0  0  3  0  0  0  0  0  0
  161.0580  204.3510  152.1490 N   0  0  0  0  0  0  0  0  0  0  0  0
  160.8300  203.2030  152.3850 O   0  0  0  0  0  0  0  0  0  0  0  0
  160.5920  208.9370  153.1990 N   0  0  0  0  0  2  0  0  0  0  0  0
  158.7390  211.0780  153.1460 C   0  0  0  0  0  2  0  0  0  0  0  0
  157.8300  211.9920  153.6920 O   0  0  0  0  0  0  0  0  0  0  0  0
  158.8350  211.6710  155.9410 C   0  0  2  0  0  3  0  0  0  0  0  0
  160.1650  211.6110  155.1700 C   0  0  1  0  0  0  0  0  0  0  0  0
  161.1710  210.2690  153.4550 C   0  0  2  0  0  3  0  0  0  0  0  0
  162.0910  210.2720  154.6840 C   0  0  0  0  0  2  0  0  0  0  0  0
  159.2480  213.9120  154.8760 O   0  0  0  0  0  1  0  0  0  0  0  0
  161.3050  210.8810  155.8390 C   0  0  0  0  0  2  0  0  0  0  0  0
  160.1420  211.3900  153.6670 C   0  0  1  0  0  3  0  0  0  0  0  0
  160.3530  213.3680  156.9110 O   0  0  0  0  0  1  0  0  0  0  0  0
  157.5950  211.5750  155.0160 C   0  0  0  0  0  2  0  0  0  0  0  0
  159.6960  212.9280  155.7610 C   0  0  0  0  0  0  0  0  0  0  0  0
  2 14  1  1  0  0  0
  3  1  1  6  0  0  0
  3  2  1  0  0  0  0
  3  4  1  0  0  0  0
  4 12  1  6  0  0  0
  5 13  2  0  0  0  0
  5  8  1  0  0  0  0
  6  9  2  0  0  0  0
  7  1  2  0  0  0  0
  7  6  1  0  0  0  0
  8 11  1  0  0  0  0
  9 10  1  0  0  0  0
 10  4  1  0  0  0  0
 10 16  1  1  0  0  0
 11  2  1  0  0  0  0
 13  1  1  0  0  0  0
 14 15  2  0  0  0  0
 17 18  1  0  0  0  0
 18 27  1  0  0  0  0
 19 27  1  6  0  0  0
 20 28  1  0  0  0  0
 20 24  1  1  0  0  0
 20 19  1  0  0  0  0
 21 16  1  1  0  0  0
 21 25  1  0  0  0  0
 21 22  1  0  0  0  0
 22 24  1  0  0  0  0
 23 28  1  0  0  0  0
 25 17  1  1  0  0  0
 25 20  1  0  0  0  0
 28 19  1  0  0  0  0
 28 26  1  0  0  0  0
M  END
>  <MODEL>
5

>  <REMARK>
 VINA RESULT:      -8.9      2.512      4.281
  Name = 
  3 active torsions:
  status: ('A' for Active; 'I' for Inactive)
    1  A    between atoms: C_4  and  N_9
    2  A    between atoms: C_11  and  N_12
    3  A    between atoms: N_12  and  C_24
                            x       y       z     vdW  Elec       q    Type
                         _______ _______ _______ _____ _____    ______ ____

>  <TORSDO>
F 3

$$$$
=
 OpenBabel11042421093D

 28 32  0  0  1  0  0  0  0  0999 V2000
  161.1280  207.3100  153.3230 C   0  0  0  0  0  0  0  0  0  0  0  0
  161.9340  209.1670  151.6850 C   0  0  2  0  0  3  0  0  0  0  0  0
  161.1060  207.8750  151.8890 C   0  0  1  0  0  3  0  0  0  0  0  0
  161.4470  206.8840  150.7720 C   0  0  2  0  0  3  0  0  0  0  0  0
  161.0660  209.4070  154.7380 C   0  0  0  0  0  3  0  0  0  0  0  0
  161.3070  204.7680  152.8760 C   0  0  0  0  0  3  0  0  0  0  0  0
  161.2050  206.0110  153.6670 C   0  0  0  0  0  3  0  0  0  0  0  0
  161.9560  210.2460  153.8940 C   0  0  0  0  0  2  0  0  0  0  0  0
  161.0000  204.6100  151.5930 C   0  0  0  0  0  3  0  0  0  0  0  0
  160.4830  205.7140  150.7450 C   0  0  2  0  0  3  0  0  0  0  0  0
  161.4080  210.3370  152.4940 C   0  0  0  0  0  2  0  0  0  0  0  0
  162.7790  206.4940  150.8060 F   0  0  0  0  0  0  0  0  0  0  0  0
  160.7520  208.1380  154.4880 C   0  0  0  0  0  3  0  0  0  0  0  0
  161.9890  209.5570  150.2920 N   0  0  0  0  0  0  0  0  0  0  0  0
  161.9560  210.7070  149.9710 O   0  0  0  0  0  0  0  0  0  0  0  0
  160.3010  205.2370  149.3750 N   0  0  0  0  0  2  0  0  0  0  0  0
  161.6640  203.2660  147.8670 C   0  0  0  0  0  2  0  0  0  0  0  0
  161.9000  202.4460  146.7570 O   0  0  0  0  0  0  0  0  0  0  0  0
  160.5740  203.9820  145.3220 C   0  0  2  0  0  3  0  0  0  0  0  0
  161.2340  205.0890  146.1620 C   0  0  1  0  0  0  0  0  0  0  0  0
  161.3370  205.7560  148.4640 C   0  0  2  0  0  3  0  0  0  0  0  0
  160.8310  206.9400  147.6280 C   0  0  0  0  0  2  0  0  0  0  0  0
  163.0510  203.9540  144.8860 O   0  0  0  0  0  1  0  0  0  0  0  0
  160.5030  206.4090  146.2380 C   0  0  0  0  0  2  0  0  0  0  0  0
  161.9030  204.7250  147.4760 C   0  0  1  0  0  3  0  0  0  0  0  0
  161.6890  205.5510  143.7680 O   0  0  0  0  0  1  0  0  0  0  0  0
  160.7690  202.5670  145.9270 C   0  0  0  0  0  2  0  0  0  0  0  0
  161.8550  204.6750  144.8410 C   0  0  0  0  0  0  0  0  0  0  0  0
  1  7  2  0  0  0  0
  1 13  1  0  0  0  0
  2 14  1  6  0  0  0
  2  3  1  0  0  0  0
  2 11  1  0  0  0  0
  3  1  1  1  0  0  0
  4 12  1  1  0  0  0
  4  3  1  0  0  0  0
  6  7  1  0  0  0  0
  8  5  1  0  0  0  0
  9  6  2  0  0  0  0
 10 16  1  6  0  0  0
 10  4  1  0  0  0  0
 10  9  1  0  0  0  0
 11  8  1  0  0  0  0
 13  5  2  0  0  0  0
 15 14  2  0  0  0  0
 18 17  1  0  0  0  0
 19 27  1  1  0  0  0
 19 20  1  0  0  0  0
 20 24  1  6  0  0  0
 20 25  1  0  0  0  0
 21 16  1  6  0  0  0
 22 21  1  0  0  0  0
 24 22  1  0  0  0  0
 25 17  1  1  0  0  0
 25 21  1  0  0  0  0
 26 28  1  0  0  0  0
 27 18  1  0  0  0  0
 28 23  1  0  0  0  0
 28 19  1  0  0  0  0
 28 20  1  0  0  0  0
M  END
>  <MODEL>
6

>  <REMARK>
 VINA RESULT:      -8.8      2.169      7.390
  Name = 
  3 active torsions:
  status: ('A' for Active; 'I' for Inactive)
    1  A    between atoms: C_4  and  N_9
    2  A    between atoms: C_11  and  N_12
    3  A    between atoms: N_12  and  C_24
                            x       y       z     vdW  Elec       q    Type
                         _______ _______ _______ _____ _____    ______ ____

>  <TORSDO>
F 3

$$$$
=
 OpenBabel11042421093D

 28 32  0  0  1  0  0  0  0  0999 V2000
  160.7080  208.2910  153.1420 C   0  0  0  0  0  0  0  0  0  0  0  0
  161.7300  210.0310  151.4950 C   0  0  2  0  0  3  0  0  0  0  0  0
  161.1460  208.6120  151.6990 C   0  0  1  0  0  3  0  0  0  0  0  0
  162.0760  207.5920  151.0360 C   0  0  2  0  0  3  0  0  0  0  0  0
  159.7060  210.4840  153.9110 C   0  0  0  0  0  3  0  0  0  0  0  0
  161.5200  205.8470  153.3970 C   0  0  0  0  0  3  0  0  0  0  0  0
  160.8860  207.1230  153.7870 C   0  0  0  0  0  3  0  0  0  0  0  0
  160.6820  211.3930  153.2550 C   0  0  0  0  0  2  0  0  0  0  0  0
  161.7760  205.4270  152.1630 C   0  0  0  0  0  3  0  0  0  0  0  0
  161.4360  206.2190  150.9540 C   0  0  2  0  0  3  0  0  0  0  0  0
  160.7200  211.1280  151.7720 C   0  0  0  0  0  2  0  0  0  0  0  0
  163.3350  207.5740  151.6200 F   0  0  0  0  0  0  0  0  0  0  0  0
  159.7580  209.1540  153.8740 C   0  0  0  0  0  3  0  0  0  0  0  0
  162.2530  210.2120  150.1580 N   0  0  0  0  0  0  0  0  0  0  0  0
  161.9900  211.1860  149.5190 O   0  0  0  0  0  0  0  0  0  0  0  0
  161.8990  205.5150  149.7590 N   0  0  0  0  0  2  0  0  0  0  0  0
  161.9430  206.2530  147.0260 C   0  0  0  0  0  2  0  0  0  0  0  0
  162.2490  206.1000  145.6690 O   0  0  0  0  0  0  0  0  0  0  0  0
  162.5120  203.6500  145.9880 C   0  0  2  0  0  3  0  0  0  0  0  0
  161.3150  203.8010  146.9420 C   0  0  1  0  0  0  0  0  0  0  0  0
  160.7800  204.9910  148.9540 C   0  0  2  0  0  3  0  0  0  0  0  0
  160.5500  203.4920  149.1910 C   0  0  0  0  0  2  0  0  0  0  0  0
  160.5040  204.3620  144.6520 O   0  0  0  0  0  1  0  0  0  0  0  0
  161.1650  202.7460  148.0130 C   0  0  0  0  0  2  0  0  0  0  0  0
  160.9300  205.1840  147.4380 C   0  0  1  0  0  3  0  0  0  0  0  0
  160.7520  202.0740  145.2520 O   0  0  0  0  0  1  0  0  0  0  0  0
  163.1360  205.0100  145.5820 C   0  0  0  0  0  2  0  0  0  0  0  0
  161.0800  203.4080  145.4950 C   0  0  0  0  0  0  0  0  0  0  0  0
  1  7  2  0  0  0  0
  1 13  1  0  0  0  0
  2 14  1  6  0  0  0
  2  3  1  0  0  0  0
  2 11  1  0  0  0  0
  3  1  1  1  0  0  0
  4 12  1  1  0  0  0
  4  3  1  0  0  0  0
  6  7  1  0  0  0  0
  8  5  1  0  0  0  0
  9  6  2  0  0  0  0
 10 16  1  6  0  0  0
 10  4  1  0  0  0  0
 10  9  1  0  0  0  0
 11  8  1  0  0  0  0
 13  5  2  0  0  0  0
 15 14  2  0  0  0  0
 18 17  1  0  0  0  0
 19 27  1  6  0  0  0
 19 20  1  0  0  0  0
 20 25  1  0  0  0  0
 20 24  1  1  0  0  0
 21 22  1  0  0  0  0
 21 16  1  1  0  0  0
 23 28  1  0  0  0  0
 24 22  1  0  0  0  0
 25 17  1  1  0  0  0
 25 21  1  0  0  0  0
 26 28  1  0  0  0  0
 27 18  1  0  0  0  0
 28 19  1  0  0  0  0
 28 20  1  0  0  0  0
M  END
>  <MODEL>
7

>  <REMARK>
 VINA RESULT:      -8.7      2.265      7.651
  Name = 
  3 active torsions:
  status: ('A' for Active; 'I' for Inactive)
    1  A    between atoms: C_4  and  N_9
    2  A    between atoms: C_11  and  N_12
    3  A    between atoms: N_12  and  C_24
                            x       y       z     vdW  Elec       q    Type
                         _______ _______ _______ _____ _____    ______ ____

>  <TORSDO>
F 3

$$$$
=
 OpenBabel11042421093D

 28 32  0  0  1  0  0  0  0  0999 V2000
  161.4200  206.6290  149.1000 C   0  0  0  0  0  0  0  0  0  0  0  0
  161.5400  204.4360  150.5000 C   0  0  2  0  0  3  0  0  0  0  0  0
  161.1500  205.9330  150.4490 C   0  0  1  0  0  3  0  0  0  0  0  0
  161.7070  206.6350  151.6910 C   0  0  2  0  0  3  0  0  0  0  0  0
  160.8130  204.8310  147.4260 C   0  0  0  0  0  3  0  0  0  0  0  0
  162.3250  208.9260  149.8750 C   0  0  0  0  0  3  0  0  0  0  0  0
  161.9010  207.8740  148.9280 C   0  0  0  0  0  3  0  0  0  0  0  0
  161.3630  203.6680  148.1700 C   0  0  0  0  0  2  0  0  0  0  0  0
  162.0080  209.0170  151.1620 C   0  0  0  0  0  3  0  0  0  0  0  0
  161.1370  208.0310  151.8510 C   0  0  2  0  0  3  0  0  0  0  0  0
  160.7350  203.5850  149.5370 C   0  0  0  0  0  2  0  0  0  0  0  0
  163.0950  206.6030  151.7310 F   0  0  0  0  0  0  0  0  0  0  0  0
  160.8790  206.0970  147.8320 C   0  0  0  0  0  3  0  0  0  0  0  0
  161.3980  203.8860  151.8320 N   0  0  0  0  0  0  0  0  0  0  0  0
  161.1580  202.7290  151.9990 O   0  0  0  0  0  0  0  0  0  0  0  0
  161.0300  208.3750  153.2670 N   0  0  0  0  0  2  0  0  0  0  0  0
  160.3950  208.7130  156.0060 C   0  0  0  0  0  2  0  0  0  0  0  0
  160.4480  209.3320  157.2610 O   0  0  0  0  0  0  0  0  0  0  0  0
  161.2170  211.4450  156.2040 C   0  0  2  0  0  3  0  0  0  0  0  0
  160.2260  211.0680  155.0890 C   0  0  1  0  0  0  0  0  0  0  0  0
  159.8900  209.2710  153.5360 C   0  0  2  0  0  3  0  0  0  0  0  0
  159.9920  210.5880  152.7540 C   0  0  0  0  0  2  0  0  0  0  0  0
  158.8880  211.4890  157.1510 O   0  0  0  0  0  1  0  0  0  0  0  0
  160.4880  211.6550  153.7220 C   0  0  0  0  0  2  0  0  0  0  0  0
  159.6980  209.6460  155.0140 C   0  0  1  0  0  3  0  0  0  0  0  0
  159.6680  213.3490  155.8900 O   0  0  0  0  0  1  0  0  0  0  0  0
  161.4860  210.2810  157.1920 C   0  0  0  0  0  2  0  0  0  0  0  0
  159.7850  211.9950  156.2070 C   0  0  0  0  0  0  0  0  0  0  0  0
  2 14  1  1  0  0  0
  3  1  1  6  0  0  0
  3  2  1  0  0  0  0
  3  4  1  0  0  0  0
  4 12  1  6  0  0  0
  4 10  1  0  0  0  0
  5 13  2  0  0  0  0
  5  8  1  0  0  0  0
  6  9  2  0  0  0  0
  7  1  2  0  0  0  0
  7  6  1  0  0  0  0
  8 11  1  0  0  0  0
  9 10  1  0  0  0  0
 10 16  1  1  0  0  0
 11  2  1  0  0  0  0
 13  1  1  0  0  0  0
 14 15  2  0  0  0  0
 17 18  1  0  0  0  0
 19 28  1  0  0  0  0
 19 27  1  1  0  0  0
 20 24  1  6  0  0  0
 20 19  1  0  0  0  0
 20 28  1  0  0  0  0
 21 16  1  1  0  0  0
 21 25  1  0  0  0  0
 22 21  1  0  0  0  0
 22 24  1  0  0  0  0
 25 20  1  0  0  0  0
 25 17  1  1  0  0  0
 26 28  1  0  0  0  0
 27 18  1  0  0  0  0
 28 23  1  0  0  0  0
M  END
>  <MODEL>
8

>  <REMARK>
 VINA RESULT:      -8.2      2.505      3.797
  Name = 
  3 active torsions:
  status: ('A' for Active; 'I' for Inactive)
    1  A    between atoms: C_4  and  N_9
    2  A    between atoms: C_11  and  N_12
    3  A    between atoms: N_12  and  C_24
                            x       y       z     vdW  Elec       q    Type
                         _______ _______ _______ _____ _____    ______ ____

>  <TORSDO>
F 3

$$$$
=
 OpenBabel11042421093D

 28 32  0  0  1  0  0  0  0  0999 V2000
  160.9420  203.2790  148.6070 C   0  0  0  0  0  0  0  0  0  0  0  0
  160.9010  204.5810  146.3520 C   0  0  2  0  0  3  0  0  0  0  0  0
  161.3150  204.5650  147.8430 C   0  0  1  0  0  3  0  0  0  0  0  0
  160.8840  205.8820  148.4940 C   0  0  2  0  0  3  0  0  0  0  0  0
  161.3620  201.4760  146.8810 C   0  0  0  0  0  3  0  0  0  0  0  0
  160.1550  204.2360  150.8790 C   0  0  0  0  0  3  0  0  0  0  0  0
  160.4730  203.2080  149.8670 C   0  0  0  0  0  3  0  0  0  0  0  0
  160.8570  202.2120  145.6930 C   0  0  0  0  0  2  0  0  0  0  0  0
  160.5860  205.4920  150.9030 C   0  0  0  0  0  3  0  0  0  0  0  0
  161.4930  206.0550  149.8710 C   0  0  2  0  0  3  0  0  0  0  0  0
  161.6010  203.5120  145.5350 C   0  0  0  0  0  2  0  0  0  0  0  0
  159.5050  206.0440  148.4820 F   0  0  0  0  0  0  0  0  0  0  0  0
  161.3580  201.9440  148.1280 C   0  0  0  0  0  3  0  0  0  0  0  0
  161.1480  205.8680  145.7380 N   0  0  0  0  0  0  0  0  0  0  0  0
  160.3480  206.3650  145.0030 O   0  0  0  0  0  0  0  0  0  0  0  0
  161.7320  207.4710  150.1470 N   0  0  0  0  0  2  0  0  0  0  0  0
  161.6040  210.0860  151.2250 C   0  0  0  0  0  2  0  0  0  0  0  0
  161.1040  211.1040  152.0450 O   0  0  0  0  0  0  0  0  0  0  0  0
  160.0870  209.4110  153.5530 C   0  0  2  0  0  3  0  0  0  0  0  0
  161.3720  208.6140  153.2740 C   0  0  1  0  0  0  0  0  0  0  0  0
  162.5100  207.6730  151.3830 C   0  0  2  0  0  3  0  0  0  0  0  0
  162.2580  206.5620  152.4120 C   0  0  0  0  0  2  0  0  0  0  0  0
  162.0410  210.6780  154.5030 O   0  0  0  0  0  1  0  0  0  0  0  0
  161.2940  207.1160  153.4540 C   0  0  0  0  0  2  0  0  0  0  0  0
  162.2500  209.0080  152.0980 C   0  0  1  0  0  3  0  0  0  0  0  0
  161.1250  208.8580  155.7300 O   0  0  0  0  0  1  0  0  0  0  0  0
  159.9030  210.6160  152.5950 C   0  0  0  0  0  2  0  0  0  0  0  0
  161.2880  209.5010  154.5030 C   0  0  0  0  0  0  0  0  0  0  0  0
  1  7  2  0  0  0  0
  2 14  1  6  0  0  0
  2  3  1  0  0  0  0
  3  4  1  0  0  0  0
  3  1  1  1  0  0  0
  4 12  1  1  0  0  0
  4 10  1  0  0  0  0
  5 13  2  0  0  0  0
  6  9  2  0  0  0  0
  7  6  1  0  0  0  0
  8  5  1  0  0  0  0
 10 16  1  1  0  0  0
 10  9  1  0  0  0  0
 11  8  1  0  0  0  0
 11  2  1  0  0  0  0
 13  1  1  0  0  0  0
 15 14  2  0  0  0  0
 17 18  1  0  0  0  0
 18 27  1  0  0  0  0
 19 27  1  6  0  0  0
 19 28  1  0  0  0  0
 20 24  1  1  0  0  0
 20 19  1  0  0  0  0
 20 28  1  0  0  0  0
 21 16  1  6  0  0  0
 21 25  1  0  0  0  0
 21 22  1  0  0  0  0
 22 24  1  0  0  0  0
 23 28  1  0  0  0  0
 25 17  1  6  0  0  0
 25 20  1  0  0  0  0
 28 26  1  0  0  0  0
M  END
>  <MODEL>
9

>  <REMARK>
 VINA RESULT:      -7.8      1.300      2.217
  Name = 
  3 active torsions:
  status: ('A' for Active; 'I' for Inactive)
    1  A    between atoms: C_4  and  N_9
    2  A    between atoms: C_11  and  N_12
    3  A    between atoms: N_12  and  C_24
                            x       y       z     vdW  Elec       q    Type
                         _______ _______ _______ _____ _____    ______ ____

>  <TORSDO>
F 3

$$$$
