=
 OpenBabel11052410513D

 28 32  0  0  1  0  0  0  0  0999 V2000
  161.5630  207.9760  152.9690 C   0  0  0  0  0  3  0  0  0  0  0  0
  162.3560  210.7060  149.3420 C   0  0  0  0  0  3  0  0  0  0  0  0
  161.0140  211.4050  156.8130 N   0  0  0  0  0  0  0  0  0  0  0  0
  161.3350  207.1930  151.8430 C   0  0  0  0  0  3  0  0  0  0  0  0
  161.2290  210.7410  154.5230 C   0  0  0  0  0  0  0  0  0  0  0  0
  161.5760  209.3370  151.2580 C   0  0  0  0  0  0  0  0  0  0  0  0
  159.8430  210.9490  154.3430 C   0  0  0  0  0  0  0  0  0  0  0  0
  162.0630  210.3140  153.4420 N   0  0  0  0  0  2  0  0  0  0  0  0
  163.2000  210.8490  155.9800 N   0  0  0  0  0  1  0  0  0  0  0  0
  161.5210  214.4160  148.0080 Cl  0  0  0  0  0  0  0  0  0  0  0  0
  162.3480  211.8780  148.5820 C   0  0  0  0  0  3  0  0  0  0  0  0
  159.0660  211.3480  155.4360 C   0  0  0  0  0  3  0  0  0  0  0  0
  159.6730  211.5690  156.6730 C   0  0  0  0  0  3  0  0  0  0  0  0
  160.7290  211.6760  150.8620 C   0  0  0  0  0  0  0  0  0  0  0  0
  161.5590  210.5960  150.4890 C   0  0  0  0  0  0  0  0  0  0  0  0
  159.1720  210.7790  153.0090 C   0  0  2  0  0  3  0  0  0  0  0  0
  161.6940  209.2620  152.5930 N   0  0  0  0  0  0  0  0  0  0  0  0
  159.8470  211.5850  151.9820 N   0  0  0  0  0  0  0  0  0  0  0  0
  158.6500  211.9130  152.6320 O   0  0  0  0  0  0  0  0  0  0  0  0
  161.8000  211.0120  155.7750 C   0  0  0  0  0  0  0  0  0  0  0  0
  161.5340  212.9480  148.9610 C   0  0  0  0  0  0  0  0  0  0  0  0
  161.3430  208.0680  150.7690 C   0  0  0  0  0  0  0  0  0  0  0  0
  160.7220  212.8430  150.0920 C   0  0  0  0  0  3  0  0  0  0  0  0
  161.1320  207.6830  149.3440 C   0  0  0  0  0  2  0  0  0  0  0  0
  161.5030  204.1440  147.8280 C   0  0  0  0  0  1  0  0  0  0  0  0
  160.5950  206.1770  146.9950 O   0  0  0  0  0  0  0  0  0  0  0  0
  161.1520  205.5820  147.9560 C   0  0  0  0  0  0  0  0  0  0  0  0
  161.4520  206.2770  149.1660 N   0  0  0  0  0  2  0  0  0  0  0  0
  2 15  1  0  0  0  0
  4  1  2  0  0  0  0
  5 20  1  0  0  0  0
  6 17  1  0  0  0  0
  7  5  2  0  0  0  0
  7 12  1  0  0  0  0
  8  5  1  0  0  0  0
 10 21  1  0  0  0  0
 11 21  1  0  0  0  0
 11  2  2  0  0  0  0
 12 13  2  0  0  0  0
 13  3  1  0  0  0  0
 14 18  1  0  0  0  0
 15 14  2  0  0  0  0
 15  6  1  0  0  0  0
 16 19  1  1  0  0  0
 16  7  1  0  0  0  0
 17  1  1  0  0  0  0
 17  8  1  0  0  0  0
 18 19  1  0  0  0  0
 18 16  1  0  0  0  0
 20  9  1  0  0  0  0
 20  3  2  0  0  0  0
 21 23  2  0  0  0  0
 22  6  2  0  0  0  0
 22  4  1  0  0  0  0
 23 14  1  0  0  0  0
 24 22  1  0  0  0  0
 25 27  1  0  0  0  0
 26 27  2  0  0  0  0
 27 28  1  0  0  0  0
 28 24  1  0  0  0  0
M  END
>  <MODEL>
1

>  <REMARK>
 VINA RESULT:      -6.6      0.000      0.000
  Name = 
  2 active torsions:
  status: ('A' for Active; 'I' for Inactive)
    1  A    between atoms: C_18  and  C_26
    2  A    between atoms: C_18  and  N_28
                            x       y       z     vdW  Elec       q    Type
                         _______ _______ _______ _____ _____    ______ ____

>  <TORSDO>
F 2

$$$$
=
 OpenBabel11052410513D

 28 32  0  0  1  0  0  0  0  0999 V2000
  161.2130  207.5920  154.5190 C   0  0  0  0  0  3  0  0  0  0  0  0
  162.3250  209.0870  150.3040 C   0  0  0  0  0  3  0  0  0  0  0  0
  161.1800  211.9870  157.2610 N   0  0  0  0  0  0  0  0  0  0  0  0
  160.8670  206.5670  153.6450 C   0  0  0  0  0  3  0  0  0  0  0  0
  161.2760  210.6970  155.2470 C   0  0  0  0  0  0  0  0  0  0  0  0
  161.3890  208.4160  152.5020 C   0  0  0  0  0  0  0  0  0  0  0  0
  159.9290  211.0310  154.9810 C   0  0  0  0  0  0  0  0  0  0  0  0
  162.0310  209.8810  154.3460 N   0  0  0  0  0  2  0  0  0  0  0  0
  163.2600  210.9370  156.6680 N   0  0  0  0  0  1  0  0  0  0  0  0
  161.9840  212.3640  147.9840 Cl  0  0  0  0  0  0  0  0  0  0  0  0
  162.4660  209.9960  149.2530 C   0  0  0  0  0  3  0  0  0  0  0  0
  159.2260  211.8140  155.9030 C   0  0  0  0  0  3  0  0  0  0  0  0
  159.8720  212.2840  157.0460 C   0  0  0  0  0  3  0  0  0  0  0  0
  160.8630  210.6470  151.4580 C   0  0  0  0  0  0  0  0  0  0  0  0
  161.5340  209.4050  151.4160 C   0  0  0  0  0  0  0  0  0  0  0  0
  159.2250  210.5910  153.7280 C   0  0  2  0  0  3  0  0  0  0  0  0
  161.5120  208.6950  153.8090 N   0  0  0  0  0  0  0  0  0  0  0  0
  159.9910  210.9860  152.5370 N   0  0  0  0  0  0  0  0  0  0  0  0
  158.8570  211.6370  153.0420 O   0  0  0  0  0  0  0  0  0  0  0  0
  161.8930  211.2220  156.3910 C   0  0  0  0  0  0  0  0  0  0  0  0
  161.8090  211.2270  149.3020 C   0  0  0  0  0  0  0  0  0  0  0  0
  160.9810  207.1040  152.3730 C   0  0  0  0  0  0  0  0  0  0  0  0
  161.0050  211.5470  150.3980 C   0  0  0  0  0  3  0  0  0  0  0  0
  160.7020  206.3740  151.1030 C   0  0  0  0  0  2  0  0  0  0  0  0
  160.9190  202.5490  150.5720 C   0  0  0  0  0  1  0  0  0  0  0  0
  160.9020  204.3940  149.0740 O   0  0  0  0  0  0  0  0  0  0  0  0
  160.8610  204.0020  150.2710 C   0  0  0  0  0  0  0  0  0  0  0  0
  160.7610  204.9410  151.3410 N   0  0  0  0  0  2  0  0  0  0  0  0
  2 15  1  0  0  0  0
  4  1  2  0  0  0  0
  5 20  1  0  0  0  0
  6 17  1  0  0  0  0
  7  5  2  0  0  0  0
  7 12  1  0  0  0  0
  8  5  1  0  0  0  0
 10 21  1  0  0  0  0
 11 21  1  0  0  0  0
 11  2  2  0  0  0  0
 12 13  2  0  0  0  0
 13  3  1  0  0  0  0
 14 18  1  0  0  0  0
 15 14  2  0  0  0  0
 15  6  1  0  0  0  0
 16 19  1  6  0  0  0
 16  7  1  0  0  0  0
 17  8  1  0  0  0  0
 17  1  1  0  0  0  0
 18 19  1  0  0  0  0
 18 16  1  0  0  0  0
 20  9  1  0  0  0  0
 20  3  2  0  0  0  0
 21 23  2  0  0  0  0
 22  6  2  0  0  0  0
 22  4  1  0  0  0  0
 23 14  1  0  0  0  0
 24 28  1  0  0  0  0
 24 22  1  0  0  0  0
 26 27  2  0  0  0  0
 27 25  1  0  0  0  0
 27 28  1  0  0  0  0
M  END
>  <MODEL>
2

>  <REMARK>
 VINA RESULT:      -5.9      1.427      1.682
  Name = 
  2 active torsions:
  status: ('A' for Active; 'I' for Inactive)
    1  A    between atoms: C_18  and  C_26
    2  A    between atoms: C_18  and  N_28
                            x       y       z     vdW  Elec       q    Type
                         _______ _______ _______ _____ _____    ______ ____

>  <TORSDO>
F 2

$$$$
=
 OpenBabel11052410513D

 28 32  0  0  1  0  0  0  0  0999 V2000
  159.9050  212.4660  151.8810 C   0  0  0  0  0  3  0  0  0  0  0  0
  160.8450  208.1200  150.6730 C   0  0  0  0  0  3  0  0  0  0  0  0
  157.7480  211.8570  156.5510 N   0  0  0  0  0  0  0  0  0  0  0  0
  160.8250  212.5480  150.8420 C   0  0  0  0  0  3  0  0  0  0  0  0
  158.9240  211.1200  154.6010 C   0  0  0  0  0  0  0  0  0  0  0  0
  160.6350  210.4340  151.5430 C   0  0  0  0  0  0  0  0  0  0  0  0
  160.1330  211.1500  155.3320 C   0  0  0  0  0  0  0  0  0  0  0  0
  158.8930  210.7070  153.2310 N   0  0  0  0  0  2  0  0  0  0  0  0
  156.4870  211.3930  154.5570 N   0  0  0  0  0  1  0  0  0  0  0  0
  161.7240  204.5570  152.3380 Cl  0  0  0  0  0  0  0  0  0  0  0  0
  161.0980  206.7570  150.8490 C   0  0  0  0  0  3  0  0  0  0  0  0
  160.1150  211.5800  156.6630 C   0  0  0  0  0  3  0  0  0  0  0  0
  158.9050  211.9350  157.2590 C   0  0  0  0  0  3  0  0  0  0  0  0
  161.2080  208.4960  153.0460 C   0  0  0  0  0  0  0  0  0  0  0  0
  160.8870  208.9970  151.7640 C   0  0  0  0  0  0  0  0  0  0  0  0
  161.4430  210.7150  154.7350 C   0  0  2  0  0  3  0  0  0  0  0  0
  159.8160  211.1880  152.2930 N   0  0  0  0  0  0  0  0  0  0  0  0
  161.3330  209.3610  154.1750 N   0  0  0  0  0  0  0  0  0  0  0  0
  161.9140  209.7000  155.4040 O   0  0  0  0  0  0  0  0  0  0  0  0
  157.7280  211.4500  155.2530 C   0  0  0  0  0  0  0  0  0  0  0  0
  161.4040  206.2630  152.1180 C   0  0  0  0  0  0  0  0  0  0  0  0
  161.2800  211.2550  150.6410 C   0  0  0  0  0  0  0  0  0  0  0  0
  161.4660  207.1310  153.2110 C   0  0  0  0  0  3  0  0  0  0  0  0
  162.2920  210.8470  149.6240 C   0  0  0  0  0  2  0  0  0  0  0  0
  162.3470  212.9540  146.3810 C   0  0  0  0  0  1  0  0  0  0  0  0
  163.8050  212.8240  148.2540 O   0  0  0  0  0  0  0  0  0  0  0  0
  162.7520  212.4080  147.7020 C   0  0  0  0  0  0  0  0  0  0  0  0
  161.9430  211.4160  148.3330 N   0  0  0  0  0  2  0  0  0  0  0  0
  1 17  1  0  0  0  0
  2 11  2  0  0  0  0
  2 15  1  0  0  0  0
  3 13  1  0  0  0  0
  4  1  2  0  0  0  0
  5 20  1  0  0  0  0
  5  7  2  0  0  0  0
  6 15  1  0  0  0  0
  6 17  1  0  0  0  0
  7 12  1  0  0  0  0
  8  5  1  0  0  0  0
  9 20  1  0  0  0  0
 11 21  1  0  0  0  0
 12 13  2  0  0  0  0
 14 23  1  0  0  0  0
 14 18  1  0  0  0  0
 15 14  2  0  0  0  0
 16  7  1  1  0  0  0
 16 19  1  0  0  0  0
 17  8  1  0  0  0  0
 18 16  1  0  0  0  0
 18 19  1  0  0  0  0
 20  3  2  0  0  0  0
 21 10  1  0  0  0  0
 21 23  2  0  0  0  0
 22  4  1  0  0  0  0
 22  6  2  0  0  0  0
 24 22  1  0  0  0  0
 25 27  1  0  0  0  0
 27 26  2  0  0  0  0
 27 28  1  0  0  0  0
 28 24  1  0  0  0  0
M  END
>  <MODEL>
3

>  <REMARK>
 VINA RESULT:      -5.3      3.219      5.051
  Name = 
  2 active torsions:
  status: ('A' for Active; 'I' for Inactive)
    1  A    between atoms: C_18  and  C_26
    2  A    between atoms: C_18  and  N_28
                            x       y       z     vdW  Elec       q    Type
                         _______ _______ _______ _____ _____    ______ ____

>  <TORSDO>
F 2

$$$$
=
 OpenBabel11052410513D

 28 32  0  0  1  0  0  0  0  0999 V2000
  158.4520  208.8310  137.3920 C   0  0  0  0  0  3  0  0  0  0  0  0
  160.8640  210.7660  140.8080 C   0  0  0  0  0  3  0  0  0  0  0  0
  153.6600  210.5600  138.3260 N   0  0  0  0  0  0  0  0  0  0  0  0
  159.7870  208.7530  137.0110 C   0  0  0  0  0  3  0  0  0  0  0  0
  156.0310  210.4850  138.6460 C   0  0  0  0  0  0  0  0  0  0  0  0
  159.5720  210.0590  138.8120 C   0  0  0  0  0  0  0  0  0  0  0  0
  156.1570  211.6860  137.9110 C   0  0  0  0  0  0  0  0  0  0  0  0
  157.1740  209.8340  139.2090 N   0  0  0  0  0  2  0  0  0  0  0  0
  154.5850  208.7690  139.6360 N   0  0  0  0  0  1  0  0  0  0  0  0
  160.8220  214.0270  143.1770 Cl  0  0  0  0  0  0  0  0  0  0  0  0
  161.1610  211.6810  141.8210 C   0  0  0  0  0  3  0  0  0  0  0  0
  155.0120  212.2740  137.3640 C   0  0  0  0  0  3  0  0  0  0  0  0
  153.7640  211.6910  137.5800 C   0  0  0  0  0  3  0  0  0  0  0  0
  159.1370  212.2540  139.9680 C   0  0  0  0  0  0  0  0  0  0  0  0
  159.8480  211.0360  139.8820 C   0  0  0  0  0  0  0  0  0  0  0  0
  157.4810  212.3700  137.7140 C   0  0  2  0  0  3  0  0  0  0  0  0
  158.3470  209.6290  138.4700 N   0  0  0  0  0  0  0  0  0  0  0  0
  158.1420  212.6040  139.0050 N   0  0  0  0  0  0  0  0  0  0  0  0
  157.4450  213.5580  138.2510 O   0  0  0  0  0  0  0  0  0  0  0  0
  154.7510  209.9560  138.8680 C   0  0  0  0  0  0  0  0  0  0  0  0
  160.4490  212.8790  141.9100 C   0  0  0  0  0  0  0  0  0  0  0  0
  160.4830  209.5370  137.9170 C   0  0  0  0  0  0  0  0  0  0  0  0
  159.4450  213.1660  140.9810 C   0  0  0  0  0  3  0  0  0  0  0  0
  161.9570  209.7640  137.9040 C   0  0  0  0  0  2  0  0  0  0  0  0
  163.4300  213.3300  137.6360 C   0  0  0  0  0  1  0  0  0  0  0  0
  163.8060  211.5310  139.1430 O   0  0  0  0  0  0  0  0  0  0  0  0
  163.1810  211.9520  138.1330 C   0  0  0  0  0  0  0  0  0  0  0  0
  162.2380  211.1190  137.4610 N   0  0  0  0  0  2  0  0  0  0  0  0
  1 17  1  0  0  0  0
  2 11  1  0  0  0  0
  3 20  1  0  0  0  0
  4  1  2  0  0  0  0
  4 22  1  0  0  0  0
  5 20  2  0  0  0  0
  5  8  1  0  0  0  0
  6 15  1  0  0  0  0
  7  5  1  0  0  0  0
 11 21  2  0  0  0  0
 12 13  1  0  0  0  0
 12  7  2  0  0  0  0
 13  3  2  0  0  0  0
 14 23  2  0  0  0  0
 15 14  1  0  0  0  0
 15  2  2  0  0  0  0
 16  7  1  1  0  0  0
 16 19  1  0  0  0  0
 16 18  1  0  0  0  0
 17  6  1  0  0  0  0
 17  8  1  0  0  0  0
 18 14  1  0  0  0  0
 19 18  1  0  0  0  0
 20  9  1  0  0  0  0
 21 10  1  0  0  0  0
 22  6  2  0  0  0  0
 23 21  1  0  0  0  0
 24 22  1  0  0  0  0
 25 27  1  0  0  0  0
 27 26  2  0  0  0  0
 28 24  1  0  0  0  0
 28 27  1  0  0  0  0
M  END
>  <MODEL>
4

>  <REMARK>
 VINA RESULT:      -4.8     11.693     14.016
  Name = 
  2 active torsions:
  status: ('A' for Active; 'I' for Inactive)
    1  A    between atoms: C_18  and  C_26
    2  A    between atoms: C_18  and  N_28
                            x       y       z     vdW  Elec       q    Type
                         _______ _______ _______ _____ _____    ______ ____

>  <TORSDO>
F 2

$$$$
=
 OpenBabel11052410513D

 28 32  0  0  1  0  0  0  0  0999 V2000
  160.4580  211.6380  151.8980 C   0  0  0  0  0  3  0  0  0  0  0  0
  160.7810  207.1470  150.9150 C   0  0  0  0  0  3  0  0  0  0  0  0
  158.1240  211.5750  156.5220 N   0  0  0  0  0  0  0  0  0  0  0  0
  161.4040  211.5340  150.8840 C   0  0  0  0  0  3  0  0  0  0  0  0
  159.2260  210.5810  154.6440 C   0  0  0  0  0  0  0  0  0  0  0  0
  160.8910  209.5070  151.6730 C   0  0  0  0  0  0  0  0  0  0  0  0
  160.4090  210.4720  155.4090 C   0  0  0  0  0  0  0  0  0  0  0  0
  159.1680  210.1120  153.2940 N   0  0  0  0  0  2  0  0  0  0  0  0
  156.8570  211.2020  154.5130 N   0  0  0  0  0  1  0  0  0  0  0  0
  161.0900  203.5800  152.7640 Cl  0  0  0  0  0  0  0  0  0  0  0  0
  160.8280  205.7720  151.1590 C   0  0  0  0  0  3  0  0  0  0  0  0
  160.4220  210.9650  156.7180 C   0  0  0  0  0  3  0  0  0  0  0  0
  159.2630  211.5190  157.2610 C   0  0  0  0  0  3  0  0  0  0  0  0
  161.1390  207.5810  153.2780 C   0  0  0  0  0  0  0  0  0  0  0  0
  160.9250  208.0610  151.9660 C   0  0  0  0  0  0  0  0  0  0  0  0
  161.6550  209.8230  154.8730 C   0  0  2  0  0  3  0  0  0  0  0  0
  160.1730  210.4070  152.3630 N   0  0  0  0  0  0  0  0  0  0  0  0
  161.3620  208.4740  154.3700 N   0  0  0  0  0  0  0  0  0  0  0  0
  161.9560  208.7850  155.6010 O   0  0  0  0  0  0  0  0  0  0  0  0
  158.0760  211.1130  155.2440 C   0  0  0  0  0  0  0  0  0  0  0  0
  161.0280  205.3020  152.4580 C   0  0  0  0  0  0  0  0  0  0  0  0
  161.6700  210.1810  150.7550 C   0  0  0  0  0  0  0  0  0  0  0  0
  161.1910  206.2040  153.5120 C   0  0  0  0  0  3  0  0  0  0  0  0
  162.6360  209.5820  149.7900 C   0  0  0  0  0  2  0  0  0  0  0  0
  161.4740  207.0470  147.1090 C   0  0  0  0  0  1  0  0  0  0  0  0
  163.2090  207.0070  148.7330 O   0  0  0  0  0  0  0  0  0  0  0  0
  162.2520  207.6480  148.2220 C   0  0  0  0  0  0  0  0  0  0  0  0
  161.9080  208.9470  148.7030 N   0  0  0  0  0  2  0  0  0  0  0  0
  1 17  1  0  0  0  0
  2 11  2  0  0  0  0
  2 15  1  0  0  0  0
  3 13  1  0  0  0  0
  4  1  2  0  0  0  0
  5 20  1  0  0  0  0
  5  7  2  0  0  0  0
  6 15  1  0  0  0  0
  6 17  1  0  0  0  0
  7 12  1  0  0  0  0
  8  5  1  0  0  0  0
  9 20  1  0  0  0  0
 11 21  1  0  0  0  0
 12 13  2  0  0  0  0
 14 23  1  0  0  0  0
 14 18  1  0  0  0  0
 15 14  2  0  0  0  0
 16  7  1  1  0  0  0
 16 19  1  0  0  0  0
 17  8  1  0  0  0  0
 18 16  1  0  0  0  0
 18 19  1  0  0  0  0
 20  3  2  0  0  0  0
 21 10  1  0  0  0  0
 21 23  2  0  0  0  0
 22  4  1  0  0  0  0
 22  6  2  0  0  0  0
 24 22  1  0  0  0  0
 25 27  1  0  0  0  0
 27 28  1  0  0  0  0
 27 26  2  0  0  0  0
 28 24  1  0  0  0  0
M  END
>  <MODEL>
5

>  <REMARK>
 VINA RESULT:      -4.6      3.053      4.579
  Name = 
  2 active torsions:
  status: ('A' for Active; 'I' for Inactive)
    1  A    between atoms: C_18  and  C_26
    2  A    between atoms: C_18  and  N_28
                            x       y       z     vdW  Elec       q    Type
                         _______ _______ _______ _____ _____    ______ ____

>  <TORSDO>
F 2

$$$$
=
 OpenBabel11052410513D

 28 32  0  0  1  0  0  0  0  0999 V2000
  157.8280  209.2030  137.5760 C   0  0  0  0  0  3  0  0  0  0  0  0
  160.3400  211.0540  140.9670 C   0  0  0  0  0  3  0  0  0  0  0  0
  153.2700  211.5910  138.1680 N   0  0  0  0  0  0  0  0  0  0  0  0
  159.1550  208.9290  137.2630 C   0  0  0  0  0  3  0  0  0  0  0  0
  155.5970  211.2380  138.6030 C   0  0  0  0  0  0  0  0  0  0  0  0
  159.0440  210.3760  138.9630 C   0  0  0  0  0  0  0  0  0  0  0  0
  155.9070  212.3570  137.7980 C   0  0  0  0  0  0  0  0  0  0  0  0
  156.6230  210.4880  139.2610 N   0  0  0  0  0  2  0  0  0  0  0  0
  153.9030  209.7950  139.6350 N   0  0  0  0  0  1  0  0  0  0  0  0
  160.6340  214.4530  143.1120 Cl  0  0  0  0  0  0  0  0  0  0  0  0
  160.7150  211.9930  141.9300 C   0  0  0  0  0  3  0  0  0  0  0  0
  154.8700  213.0460  137.1600 C   0  0  0  0  0  3  0  0  0  0  0  0
  153.5490  212.6440  137.3560 C   0  0  0  0  0  3  0  0  0  0  0  0
  158.8550  212.6850  139.9510 C   0  0  0  0  0  0  0  0  0  0  0  0
  159.4040  211.3840  139.9780 C   0  0  0  0  0  0  0  0  0  0  0  0
  157.3150  212.8510  137.6190 C   0  0  2  0  0  3  0  0  0  0  0  0
  157.7870  210.0840  138.5930 N   0  0  0  0  0  0  0  0  0  0  0  0
  157.9510  213.0900  138.9220 N   0  0  0  0  0  0  0  0  0  0  0  0
  157.4140  214.0690  138.0740 O   0  0  0  0  0  0  0  0  0  0  0  0
  154.2520  210.8930  138.7990 C   0  0  0  0  0  0  0  0  0  0  0  0
  160.1620  213.2750  141.9060 C   0  0  0  0  0  0  0  0  0  0  0  0
  159.9130  209.6800  138.1470 C   0  0  0  0  0  0  0  0  0  0  0  0
  159.2410  213.6210  140.9150 C   0  0  0  0  0  3  0  0  0  0  0  0
  161.4020  209.7160  138.1890 C   0  0  0  0  0  2  0  0  0  0  0  0
  162.6330  206.5540  140.0460 C   0  0  0  0  0  1  0  0  0  0  0  0
  161.9570  206.9560  137.8030 O   0  0  0  0  0  0  0  0  0  0  0  0
  162.1410  207.4340  138.9540 C   0  0  0  0  0  0  0  0  0  0  0  0
  161.8840  208.8120  139.2200 N   0  0  0  0  0  2  0  0  0  0  0  0
  1 17  1  0  0  0  0
  2 11  1  0  0  0  0
  3 20  1  0  0  0  0
  4  1  2  0  0  0  0
  4 22  1  0  0  0  0
  5 20  2  0  0  0  0
  5  8  1  0  0  0  0
  6 15  1  0  0  0  0
  7  5  1  0  0  0  0
 12 13  1  0  0  0  0
 12  7  2  0  0  0  0
 13  3  2  0  0  0  0
 14 15  1  0  0  0  0
 14 23  2  0  0  0  0
 15  2  2  0  0  0  0
 16  7  1  1  0  0  0
 16 19  1  0  0  0  0
 16 18  1  0  0  0  0
 17  6  1  0  0  0  0
 17  8  1  0  0  0  0
 18 14  1  0  0  0  0
 19 18  1  0  0  0  0
 20  9  1  0  0  0  0
 21 11  2  0  0  0  0
 21 10  1  0  0  0  0
 22 24  1  0  0  0  0
 22  6  2  0  0  0  0
 23 21  1  0  0  0  0
 24 28  1  0  0  0  0
 26 27  2  0  0  0  0
 27 28  1  0  0  0  0
 27 25  1  0  0  0  0
M  END
>  <MODEL>
6

>  <REMARK>
 VINA RESULT:      -4.5     11.454     13.792
  Name = 
  2 active torsions:
  status: ('A' for Active; 'I' for Inactive)
    1  A    between atoms: C_18  and  C_26
    2  A    between atoms: C_18  and  N_28
                            x       y       z     vdW  Elec       q    Type
                         _______ _______ _______ _____ _____    ______ ____

>  <TORSDO>
F 2

$$$$
=
 OpenBabel11052410513D

 28 32  0  0  1  0  0  0  0  0999 V2000
  160.3480  209.4700  156.4230 C   0  0  0  0  0  3  0  0  0  0  0  0
  162.4270  209.6130  152.3130 C   0  0  0  0  0  3  0  0  0  0  0  0
  158.5160  214.2930  156.8860 N   0  0  0  0  0  0  0  0  0  0  0  0
  160.5250  208.1460  156.0370 C   0  0  0  0  0  3  0  0  0  0  0  0
  159.5240  212.4680  155.7110 C   0  0  0  0  0  0  0  0  0  0  0  0
  160.9920  209.5180  154.3350 C   0  0  0  0  0  0  0  0  0  0  0  0
  158.2970  212.2270  155.0530 C   0  0  0  0  0  0  0  0  0  0  0  0
  160.6830  211.6740  155.4380 N   0  0  0  0  0  2  0  0  0  0  0  0
  160.8460  213.8340  157.2610 N   0  0  0  0  0  1  0  0  0  0  0  0
  162.1800  211.5290  148.7760 Cl  0  0  0  0  0  0  0  0  0  0  0  0
  162.7080  210.0730  151.0250 C   0  0  0  0  0  3  0  0  0  0  0  0
  157.1870  213.0180  155.3690 C   0  0  0  0  0  3  0  0  0  0  0  0
  157.3160  214.0510  156.2970 C   0  0  0  0  0  3  0  0  0  0  0  0
  160.3790  210.9200  152.3350 C   0  0  0  0  0  0  0  0  0  0  0  0
  161.2710  210.0370  152.9820 C   0  0  0  0  0  0  0  0  0  0  0  0
  158.1450  211.1620  154.0040 C   0  0  2  0  0  3  0  0  0  0  0  0
  160.6240  210.2750  155.3800 N   0  0  0  0  0  0  0  0  0  0  0  0
  159.1540  211.3240  152.9490 N   0  0  0  0  0  0  0  0  0  0  0  0
  157.8090  211.7090  152.8690 O   0  0  0  0  0  0  0  0  0  0  0  0
  159.6140  213.5410  156.6090 C   0  0  0  0  0  0  0  0  0  0  0  0
  161.8290  210.9550  150.3910 C   0  0  0  0  0  0  0  0  0  0  0  0
  160.9300  208.1920  154.7130 C   0  0  0  0  0  0  0  0  0  0  0  0
  160.6660  211.3700  151.0420 C   0  0  0  0  0  3  0  0  0  0  0  0
  161.2350  207.0040  153.8650 C   0  0  0  0  0  2  0  0  0  0  0  0
  160.8140  206.8820  150.0220 C   0  0  0  0  0  1  0  0  0  0  0  0
  162.3480  205.8520  151.5170 O   0  0  0  0  0  0  0  0  0  0  0  0
  161.3560  206.6170  151.3790 C   0  0  0  0  0  0  0  0  0  0  0  0
  160.7460  207.2300  152.5150 N   0  0  0  0  0  2  0  0  0  0  0  0
  2 15  1  0  0  0  0
  4  1  2  0  0  0  0
  5 20  2  0  0  0  0
  6 22  2  0  0  0  0
  6 17  1  0  0  0  0
  7 12  2  0  0  0  0
  7  5  1  0  0  0  0
  8  5  1  0  0  0  0
 10 21  1  0  0  0  0
 11  2  2  0  0  0  0
 12 13  1  0  0  0  0
 13  3  2  0  0  0  0
 14 18  1  0  0  0  0
 14 15  2  0  0  0  0
 15  6  1  0  0  0  0
 16 19  1  6  0  0  0
 16  7  1  0  0  0  0
 17  8  1  0  0  0  0
 17  1  1  0  0  0  0
 18 16  1  0  0  0  0
 19 18  1  0  0  0  0
 20  3  1  0  0  0  0
 20  9  1  0  0  0  0
 21 11  1  0  0  0  0
 21 23  2  0  0  0  0
 22  4  1  0  0  0  0
 23 14  1  0  0  0  0
 24 22  1  0  0  0  0
 25 27  1  0  0  0  0
 27 26  2  0  0  0  0
 27 28  1  0  0  0  0
 28 24  1  0  0  0  0
M  END
>  <MODEL>
7

>  <REMARK>
 VINA RESULT:      -4.2      2.115      3.192
  Name = 
  2 active torsions:
  status: ('A' for Active; 'I' for Inactive)
    1  A    between atoms: C_18  and  C_26
    2  A    between atoms: C_18  and  N_28
                            x       y       z     vdW  Elec       q    Type
                         _______ _______ _______ _____ _____    ______ ____

>  <TORSDO>
F 2

$$$$
=
 OpenBabel11052410513D

 28 32  0  0  1  0  0  0  0  0999 V2000
  158.3740  213.8730  152.0260 C   0  0  0  0  0  3  0  0  0  0  0  0
  160.2300  209.6560  152.0880 C   0  0  0  0  0  3  0  0  0  0  0  0
  155.7370  213.9680  156.4840 N   0  0  0  0  0  0  0  0  0  0  0  0
  159.3990  213.8920  151.0870 C   0  0  0  0  0  3  0  0  0  0  0  0
  157.2840  213.0450  154.9070 C   0  0  0  0  0  0  0  0  0  0  0  0
  159.4940  212.0160  152.2990 C   0  0  0  0  0  0  0  0  0  0  0  0
  158.3550  213.5000  155.7070 C   0  0  0  0  0  0  0  0  0  0  0  0
  157.5150  212.3190  153.6960 N   0  0  0  0  0  2  0  0  0  0  0  0
  154.8660  212.7890  154.5790 N   0  0  0  0  0  1  0  0  0  0  0  0
  161.4920  206.8580  154.7010 Cl  0  0  0  0  0  0  0  0  0  0  0  0
  160.6950  208.4580  152.6370 C   0  0  0  0  0  3  0  0  0  0  0  0
  158.0780  214.2240  156.8720 C   0  0  0  0  0  3  0  0  0  0  0  0
  156.7540  214.4520  157.2460 C   0  0  0  0  0  3  0  0  0  0  0  0
  160.1910  210.6570  154.3010 C   0  0  0  0  0  0  0  0  0  0  0  0
  159.9650  210.7580  152.9110 C   0  0  0  0  0  0  0  0  0  0  0  0
  159.7910  213.2160  155.3630 C   0  0  2  0  0  3  0  0  0  0  0  0
  158.4590  212.7410  152.7490 N   0  0  0  0  0  0  0  0  0  0  0  0
  160.0020  211.7750  155.1700 N   0  0  0  0  0  0  0  0  0  0  0  0
  160.3390  212.5110  156.3140 O   0  0  0  0  0  0  0  0  0  0  0  0
  155.9690  213.2680  155.3420 C   0  0  0  0  0  0  0  0  0  0  0  0
  160.9070  208.3580  154.0130 C   0  0  0  0  0  0  0  0  0  0  0  0
  160.1010  212.7120  151.2730 C   0  0  0  0  0  0  0  0  0  0  0  0
  160.6620  209.4560  154.8410 C   0  0  0  0  0  3  0  0  0  0  0  0
  161.2990  212.2910  150.4920 C   0  0  0  0  0  2  0  0  0  0  0  0
  161.3710  212.7210  146.6490 C   0  0  0  0  0  1  0  0  0  0  0  0
  161.6830  210.8450  148.0760 O   0  0  0  0  0  0  0  0  0  0  0  0
  161.4430  212.0790  147.9870 C   0  0  0  0  0  0  0  0  0  0  0  0
  161.2400  212.8670  149.1590 N   0  0  0  0  0  2  0  0  0  0  0  0
  1 17  1  0  0  0  0
  2 11  2  0  0  0  0
  2 15  1  0  0  0  0
  3 13  1  0  0  0  0
  4 22  1  0  0  0  0
  4  1  2  0  0  0  0
  5 20  1  0  0  0  0
  5  7  2  0  0  0  0
  6 17  1  0  0  0  0
  6 15  1  0  0  0  0
  7 12  1  0  0  0  0
  8  5  1  0  0  0  0
  9 20  1  0  0  0  0
 11 21  1  0  0  0  0
 12 13  2  0  0  0  0
 14 23  1  0  0  0  0
 14 18  1  0  0  0  0
 15 14  2  0  0  0  0
 16  7  1  1  0  0  0
 16 19  1  0  0  0  0
 17  8  1  0  0  0  0
 18 16  1  0  0  0  0
 18 19  1  0  0  0  0
 20  3  2  0  0  0  0
 21 10  1  0  0  0  0
 21 23  2  0  0  0  0
 22  6  2  0  0  0  0
 24 22  1  0  0  0  0
 25 27  1  0  0  0  0
 27 26  2  0  0  0  0
 27 28  1  0  0  0  0
 28 24  1  0  0  0  0
M  END
>  <MODEL>
8

>  <REMARK>
 VINA RESULT:      -4.0      3.545      5.613
  Name = 
  2 active torsions:
  status: ('A' for Active; 'I' for Inactive)
    1  A    between atoms: C_18  and  C_26
    2  A    between atoms: C_18  and  N_28
                            x       y       z     vdW  Elec       q    Type
                         _______ _______ _______ _____ _____    ______ ____

>  <TORSDO>
F 2

$$$$
=
 OpenBabel11052410513D

 28 32  0  0  1  0  0  0  0  0999 V2000
  161.5730  206.7260  153.5410 C   0  0  0  0  0  3  0  0  0  0  0  0
  158.9170  210.3990  154.3720 C   0  0  0  0  0  3  0  0  0  0  0  0
  161.5690  206.5270  148.3650 N   0  0  0  0  0  0  0  0  0  0  0  0
  161.8290  207.0940  154.8580 C   0  0  0  0  0  3  0  0  0  0  0  0
  161.1120  207.5310  150.4900 C   0  0  0  0  0  0  0  0  0  0  0  0
  160.6100  208.6660  153.8380 C   0  0  0  0  0  0  0  0  0  0  0  0
  162.2110  208.4000  150.3040 C   0  0  0  0  0  0  0  0  0  0  0  0
  160.2950  207.6050  151.6620 N   0  0  0  0  0  2  0  0  0  0  0  0
  159.6680  205.7520  149.6150 N   0  0  0  0  0  1  0  0  0  0  0  0
  157.8400  213.8960  152.6830 Cl  0  0  0  0  0  0  0  0  0  0  0  0
  158.2720  211.6110  154.1130 C   0  0  0  0  0  3  0  0  0  0  0  0
  162.9920  208.2740  149.1510 C   0  0  0  0  0  3  0  0  0  0  0  0
  162.6560  207.3240  148.1870 C   0  0  0  0  0  3  0  0  0  0  0  0
  160.3180  210.7230  152.4140 C   0  0  0  0  0  0  0  0  0  0  0  0
  159.9350  209.9400  153.5260 C   0  0  0  0  0  0  0  0  0  0  0  0
  162.5600  209.4750  151.2950 C   0  0  2  0  0  3  0  0  0  0  0  0
  160.8490  207.6920  152.9460 N   0  0  0  0  0  0  0  0  0  0  0  0
  161.3970  210.3310  151.5640 N   0  0  0  0  0  0  0  0  0  0  0  0
  162.4740  210.6430  150.7240 O   0  0  0  0  0  0  0  0  0  0  0  0
  160.7910  206.6160  149.4770 C   0  0  0  0  0  0  0  0  0  0  0  0
  158.6470  212.3770  153.0070 C   0  0  0  0  0  0  0  0  0  0  0  0
  161.2160  208.3240  155.0300 C   0  0  0  0  0  0  0  0  0  0  0  0
  159.6710  211.9380  152.1660 C   0  0  0  0  0  3  0  0  0  0  0  0
  161.2240  209.1210  156.2900 C   0  0  0  0  0  2  0  0  0  0  0  0
  164.1730  211.4320  157.2530 C   0  0  0  0  0  1  0  0  0  0  0  0
  161.8150  211.7260  157.2610 O   0  0  0  0  0  0  0  0  0  0  0  0
  162.7850  210.9580  157.0220 C   0  0  0  0  0  0  0  0  0  0  0  0
  162.5620  209.6360  156.5330 N   0  0  0  0  0  2  0  0  0  0  0  0
  1  4  2  0  0  0  0
  3 20  1  0  0  0  0
  4 22  1  0  0  0  0
  5  8  1  0  0  0  0
  6 22  2  0  0  0  0
  7  5  1  0  0  0  0
  8 17  1  0  0  0  0
 10 21  1  0  0  0  0
 11  2  1  0  0  0  0
 12  7  2  0  0  0  0
 13  3  2  0  0  0  0
 13 12  1  0  0  0  0
 14 15  1  0  0  0  0
 15  6  1  0  0  0  0
 15  2  2  0  0  0  0
 16  7  1  6  0  0  0
 16 18  1  0  0  0  0
 17  1  1  0  0  0  0
 17  6  1  0  0  0  0
 18 14  1  0  0  0  0
 19 16  1  0  0  0  0
 19 18  1  0  0  0  0
 20  9  1  0  0  0  0
 20  5  2  0  0  0  0
 21 11  2  0  0  0  0
 22 24  1  0  0  0  0
 23 14  2  0  0  0  0
 23 21  1  0  0  0  0
 24 28  1  0  0  0  0
 27 25  1  0  0  0  0
 27 26  2  0  0  0  0
 28 27  1  0  0  0  0
M  END
>  <MODEL>
9

>  <REMARK>
 VINA RESULT:      -4.0      2.635      6.634
  Name = 
  2 active torsions:
  status: ('A' for Active; 'I' for Inactive)
    1  A    between atoms: C_18  and  C_26
    2  A    between atoms: C_18  and  N_28
                            x       y       z     vdW  Elec       q    Type
                         _______ _______ _______ _____ _____    ______ ____

>  <TORSDO>
F 2

$$$$
