=
 OpenBabel11042422063D

 54 57  0  0  1  0  0  0  0  0999 V2000
  159.6360  212.7700  152.9710 C   0  0  0  0  0  0  0  0  0  0  0  0
  161.7160  210.4650  150.8060 C   0  0  0  0  0  0  0  0  0  0  0  0
  162.2990  210.4820  149.6450 N   0  0  0  0  0  0  0  0  0  0  0  0
  162.8480  211.5710  147.6670 O   0  0  0  0  0  0  0  0  0  0  0  0
  162.1550  211.5650  148.7180 C   0  0  0  0  0  0  0  0  0  0  0  0
  160.6780  212.6980  150.3870 C   0  0  0  0  0  0  0  0  0  0  0  0
  159.4440  213.8290  152.0780 C   0  0  0  0  0  3  0  0  0  0  0  0
  161.1720  212.6790  148.9660 C   0  0  2  0  0  3  0  0  0  0  0  0
  160.3770  211.6660  152.5500 C   0  0  0  0  0  3  0  0  0  0  0  0
  159.9570  213.7680  150.8200 N   0  0  0  0  0  0  0  0  0  0  0  0
  160.9030  211.6160  151.2550 C   0  0  0  0  0  0  0  0  0  0  0  0
  158.8910  212.8870  145.9070 N   0  0  0  0  0  2  0  0  0  0  0  0
  160.0360  212.5550  148.0630 N   0  0  0  0  0  2  0  0  0  0  0  0
  160.0420  213.0780  146.7340 C   0  0  0  0  0  0  0  0  0  0  0  0
  161.0460  213.7090  146.3060 O   0  0  0  0  0  0  0  0  0  0  0  0
  159.5590  212.9400  143.5690 C   0  0  0  0  0  0  0  0  0  0  0  0
  157.7800  214.3200  144.0350 C   0  0  0  0  0  2  0  0  0  0  0  0
  158.7650  213.3250  144.5490 C   0  0  0  0  0  0  0  0  0  0  0  0
  158.1460  214.4500  142.6290 N   0  0  0  0  0  0  0  0  0  0  0  0
  159.1410  213.6710  142.3770 C   0  0  0  0  0  0  0  0  0  0  0  0
  159.5590  212.4560  140.2630 C   0  0  0  0  0  1  0  0  0  0  0  0
  159.7000  213.5920  141.0990 O   0  0  0  0  0  0  0  0  0  0  0  0
  162.0230  212.8060  143.6200 C   0  0  0  0  0  1  0  0  0  0  0  0
  160.7280  212.0200  143.7140 C   0  0  0  0  0  2  0  0  0  0  0  0
  159.1130  212.7930  154.3780 C   0  0  0  0  0  2  0  0  0  0  0  0
  159.0810  211.4620  154.9720 N   0  0  0  0  0  0  0  0  0  0  0  0
  159.9020  212.2110  157.0180 O   0  0  0  0  0  1  0  0  0  0  0  0
  160.1820  211.3960  155.9180 C   0  0  0  0  0  2  0  0  0  0  0  0
  157.8530  211.3920  155.7450 C   0  0  0  0  0  2  0  0  0  0  0  0
  156.6550  211.3850  154.8170 C   0  0  0  0  0  2  0  0  0  0  0  0
  155.9590  212.5890  154.9280 O   0  0  0  0  0  0  0  0  0  0  0  0
  156.0360  212.9820  156.6180 P   0  0  1  0  0  0  0  0  0  0  0  0
  154.8360  214.2360  156.5340 O   0  0  0  0  0  1  0  0  0  0  0  0
  154.8570  211.6520  157.1620 C   0  0  0  0  0  1  0  0  0  0  0  0
  161.9580  209.3030  151.7120 C   0  0  0  0  0  2  0  0  0  0  0  0
  160.7740  208.3590  151.6670 C   0  0  0  0  0  2  0  0  0  0  0  0
  161.2480  206.9560  151.7810 C   0  0  0  0  0  3  0  0  0  0  0  0
  161.8330  206.3760  150.7430 C   0  0  0  0  0  3  0  0  0  0  0  0
  162.3130  205.0390  150.8510 N   0  0  0  0  0  2  0  0  0  0  0  0
  161.2420  204.4320  148.8650 O   0  0  0  0  0  0  0  0  0  0  0  0
  159.8750  201.6660  149.0590 C   0  0  0  0  0  2  0  0  0  0  0  0
  161.8490  203.8830  146.5800 C   0  0  2  0  0  3  0  0  0  0  0  0
  160.7660  202.8100  146.5210 C   0  0  0  0  0  2  0  0  0  0  0  0
  160.5320  203.3450  150.8840 C   0  0  0  0  0  0  0  0  0  0  0  0
  160.1910  203.8380  151.9940 O   0  0  0  0  0  0  0  0  0  0  0  0
  159.8570  202.1660  150.4260 N   0  0  0  0  0  2  0  0  0  0  0  0
  161.5400  201.0870  148.5930 S   0  0  0  0  0  0  0  0  0  0  0  0
  162.3180  204.1770  148.0020 C   0  0  0  0  0  2  0  0  0  0  0  0
  161.6750  203.9590  150.1080 C   0  0  2  0  0  3  0  0  0  0  0  0
  161.2950  201.4060  146.8090 C   0  0  0  0  0  2  0  0  0  0  0  0
  161.2540  205.4020  145.7790 P   0  0  0  0  0  0  0  0  0  0  0  0
  162.4120  206.1440  145.1520 O   0  0  0  0  0  1  0  0  0  0  0  0
  160.1250  205.0090  144.5830 O   0  0  0  0  0  0  0  0  0  0  0  0
  160.5180  206.3920  146.9360 O   0  0  0  0  0  1  0  0  0  0  0  0
  1 25  1  0  0  0  0
  2 11  1  0  0  0  0
  2 35  1  0  0  0  0
  3  2  2  0  0  0  0
  4  5  2  0  0  0  0
  5  8  1  0  0  0  0
  5  3  1  0  0  0  0
  6 10  2  0  0  0  0
  6 11  1  0  0  0  0
  7  1  2  0  0  0  0
  8 13  1  6  0  0  0
  8  6  1  0  0  0  0
  9  1  1  0  0  0  0
 10  7  1  0  0  0  0
 11  9  2  0  0  0  0
 12 14  1  0  0  0  0
 14 13  1  0  0  0  0
 15 14  2  0  0  0  0
 16 24  1  0  0  0  0
 16 18  2  0  0  0  0
 17 18  1  0  0  0  0
 18 12  1  0  0  0  0
 19 17  1  0  0  0  0
 20 19  2  0  0  0  0
 20 16  1  0  0  0  0
 21 22  1  0  0  0  0
 22 20  1  0  0  0  0
 23 24  1  0  0  0  0
 25 26  1  0  0  0  0
 26 29  1  0  0  0  0
 26 28  1  0  0  0  0
 28 27  1  0  0  0  0
 30 31  1  0  0  0  0
 30 29  1  0  0  0  0
 31 32  1  0  0  0  0
 32 34  1  1  0  0  0
 33 32  1  0  0  0  0
 36 35  1  0  0  0  0
 36 37  1  0  0  0  0
 38 39  1  0  0  0  0
 38 37  2  0  0  0  0
 40 49  1  0  0  0  0
 41 46  1  0  0  0  0
 42 51  1  1  0  0  0
 42 48  1  0  0  0  0
 43 42  1  0  0  0  0
 43 50  1  0  0  0  0
 44 45  2  0  0  0  0
 46 44  1  0  0  0  0
 47 41  1  0  0  0  0
 48 40  1  0  0  0  0
 49 39  1  1  0  0  0
 49 44  1  0  0  0  0
 50 47  1  0  0  0  0
 51 54  1  0  0  0  0
 52 51  1  0  0  0  0
 53 51  2  0  0  0  0
M  END
>  <MODEL>
1

>  <REMARK>
 VINA RESULT:      -5.2      0.000      0.000
  Name = 
  17 active torsions:
  status: ('A' for Active; 'I' for Inactive)
    1  A    between atoms: C_1  and  C_13
    2  A    between atoms: C_2  and  C_9
    3  A    between atoms: P_3  and  C_35
    4  A    between atoms: C_4  and  C_27
    5  A    between atoms: C_4  and  N_36
    6  A    between atoms: C_9  and  C_49
    7  A    between atoms: N_10  and  C_25
    8  A    between atoms: C_11  and  C_14
    9  A    between atoms: C_13  and  N_36
   10  A    between atoms: N_15  and  C_30
   11  A    between atoms: C_20  and  C_49
   12  A    between atoms: C_21  and  N_24
   13  A    between atoms: N_24  and  C_50
   14  A    between atoms: C_27  and  O_54
   15  A    between atoms: P_28  and  O_54
   16  A    between atoms: O_33  and  C_51
   17  A    between atoms: N_36  and  C_42
                            x       y       z     vdW  Elec       q    Type
                         _______ _______ _______ _____ _____    ______ ____

>  <TORSDO>
F 17

$$$$
=
 OpenBabel11042422063D

 54 57  0  0  1  0  0  0  0  0999 V2000
  158.6030  213.3530  151.2610 C   0  0  0  0  0  0  0  0  0  0  0  0
  161.6290  211.3240  150.2330 C   0  0  0  0  0  0  0  0  0  0  0  0
  162.5050  211.3000  149.2750 N   0  0  0  0  0  0  0  0  0  0  0  0
  163.3740  212.1590  147.2980 O   0  0  0  0  0  0  0  0  0  0  0  0
  162.4240  212.1480  148.1240 C   0  0  0  0  0  0  0  0  0  0  0  0
  160.3370  213.1290  149.0890 C   0  0  0  0  0  0  0  0  0  0  0  0
  158.4710  214.1740  150.1350 C   0  0  0  0  0  3  0  0  0  0  0  0
  161.2110  213.0060  147.8720 C   0  0  2  0  0  3  0  0  0  0  0  0
  159.6360  212.4170  151.2880 C   0  0  0  0  0  3  0  0  0  0  0  0
  159.3260  214.0410  149.0850 N   0  0  0  0  0  0  0  0  0  0  0  0
  160.5120  212.2920  150.2040 C   0  0  0  0  0  0  0  0  0  0  0  0
  159.4850  212.5230  144.4970 N   0  0  0  0  0  2  0  0  0  0  0  0
  160.4310  212.4590  146.7710 N   0  0  0  0  0  2  0  0  0  0  0  0
  160.2460  213.1480  145.5340 C   0  0  0  0  0  0  0  0  0  0  0  0
  160.7390  214.2970  145.3680 O   0  0  0  0  0  0  0  0  0  0  0  0
  159.8630  212.6870  142.1000 C   0  0  0  0  0  0  0  0  0  0  0  0
  158.3230  214.2060  142.8810 C   0  0  0  0  0  2  0  0  0  0  0  0
  159.2440  213.0760  143.1980 C   0  0  0  0  0  0  0  0  0  0  0  0
  158.5270  214.4050  141.4510 N   0  0  0  0  0  0  0  0  0  0  0  0
  159.3880  213.5490  141.0220 C   0  0  0  0  0  0  0  0  0  0  0  0
  159.4730  212.4240  138.8190 C   0  0  0  0  0  1  0  0  0  0  0  0
  159.7740  213.5110  139.6800 O   0  0  0  0  0  0  0  0  0  0  0  0
  162.2980  212.2860  142.1510 C   0  0  0  0  0  1  0  0  0  0  0  0
  160.9290  211.6420  142.0330 C   0  0  0  0  0  2  0  0  0  0  0  0
  157.7040  213.4710  152.4570 C   0  0  0  0  0  2  0  0  0  0  0  0
  158.3350  212.9620  153.6680 N   0  0  0  0  0  0  0  0  0  0  0  0
  156.9020  214.4530  154.7370 O   0  0  0  0  0  1  0  0  0  0  0  0
  158.2240  214.0070  154.6730 C   0  0  0  0  0  2  0  0  0  0  0  0
  157.5150  211.8510  154.1170 C   0  0  0  0  0  2  0  0  0  0  0  0
  158.2490  211.0610  155.1810 C   0  0  0  0  0  2  0  0  0  0  0  0
  159.5980  210.9470  154.8450 O   0  0  0  0  0  0  0  0  0  0  0  0
  160.4210  210.8550  156.3710 P   0  0  1  0  0  0  0  0  0  0  0  0
  160.0900  209.1680  156.6170 O   0  0  0  0  0  1  0  0  0  0  0  0
  162.1120  210.5950  155.6440 C   0  0  0  0  0  1  0  0  0  0  0  0
  161.8240  210.4210  151.4070 C   0  0  0  0  0  2  0  0  0  0  0  0
  162.3840  209.0910  150.9470 C   0  0  0  0  0  2  0  0  0  0  0  0
  161.4690  208.4820  149.9460 C   0  0  0  0  0  3  0  0  0  0  0  0
  161.3480  207.1630  149.8890 C   0  0  0  0  0  3  0  0  0  0  0  0
  160.4560  206.5710  148.9500 N   0  0  0  0  0  2  0  0  0  0  0  0
  161.2390  204.4380  148.4040 O   0  0  0  0  0  0  0  0  0  0  0  0
  162.5410  204.3390  145.6020 C   0  0  0  0  0  2  0  0  0  0  0  0
  160.3230  202.2330  147.9690 C   0  0  2  0  0  3  0  0  0  0  0  0
  161.3580  201.9890  146.8750 C   0  0  0  0  0  2  0  0  0  0  0  0
  162.1770  206.3010  147.2150 C   0  0  0  0  0  0  0  0  0  0  0  0
  162.6750  207.3750  147.6530 O   0  0  0  0  0  0  0  0  0  0  0  0
  162.7530  205.7110  146.0420 N   0  0  0  0  0  2  0  0  0  0  0  0
  160.8140  204.0750  145.0820 S   0  0  0  0  0  0  0  0  0  0  0  0
  160.0530  203.7150  148.2120 C   0  0  0  0  0  2  0  0  0  0  0  0
  160.9600  205.7070  147.8890 C   0  0  2  0  0  3  0  0  0  0  0  0
  160.8320  202.2890  145.4720 C   0  0  0  0  0  2  0  0  0  0  0  0
  160.8500  201.4220  149.5070 P   0  0  0  0  0  0  0  0  0  0  0  0
  161.8210  200.3050  149.1980 O   0  0  0  0  0  0  0  0  0  0  0  0
  161.5990  202.5530  150.5170 O   0  0  0  0  0  1  0  0  0  0  0  0
  159.4970  200.7830  150.2940 O   0  0  0  0  0  1  0  0  0  0  0  0
  1  9  1  0  0  0  0
  1 25  1  0  0  0  0
  2 35  1  0  0  0  0
  3  2  2  0  0  0  0
  4  5  2  0  0  0  0
  5  3  1  0  0  0  0
  6 11  1  0  0  0  0
  7  1  2  0  0  0  0
  8 13  1  6  0  0  0
  8  5  1  0  0  0  0
  8  6  1  0  0  0  0
 10  6  2  0  0  0  0
 10  7  1  0  0  0  0
 11  2  1  0  0  0  0
 11  9  2  0  0  0  0
 12 14  1  0  0  0  0
 14 13  1  0  0  0  0
 15 14  2  0  0  0  0
 16 18  2  0  0  0  0
 17 18  1  0  0  0  0
 18 12  1  0  0  0  0
 19 17  1  0  0  0  0
 20 19  2  0  0  0  0
 20 16  1  0  0  0  0
 21 22  1  0  0  0  0
 22 20  1  0  0  0  0
 24 16  1  0  0  0  0
 24 23  1  0  0  0  0
 25 26  1  0  0  0  0
 26 29  1  0  0  0  0
 26 28  1  0  0  0  0
 28 27  1  0  0  0  0
 29 30  1  0  0  0  0
 31 30  1  0  0  0  0
 31 32  1  0  0  0  0
 32 34  1  6  0  0  0
 32 33  1  0  0  0  0
 36 35  1  0  0  0  0
 37 36  1  0  0  0  0
 38 37  2  0  0  0  0
 39 38  1  0  0  0  0
 41 46  1  0  0  0  0
 42 48  1  0  0  0  0
 42 51  1  1  0  0  0
 43 42  1  0  0  0  0
 44 45  2  0  0  0  0
 44 49  1  0  0  0  0
 46 44  1  0  0  0  0
 47 50  1  0  0  0  0
 47 41  1  0  0  0  0
 48 40  1  0  0  0  0
 49 40  1  0  0  0  0
 49 39  1  1  0  0  0
 50 43  1  0  0  0  0
 51 54  1  0  0  0  0
 51 53  1  0  0  0  0
 52 51  2  0  0  0  0
M  END
>  <MODEL>
2

>  <REMARK>
 VINA RESULT:      -4.9      2.203      3.367
  Name = 
  17 active torsions:
  status: ('A' for Active; 'I' for Inactive)
    1  A    between atoms: C_1  and  C_13
    2  A    between atoms: C_2  and  C_9
    3  A    between atoms: P_3  and  C_35
    4  A    between atoms: C_4  and  C_27
    5  A    between atoms: C_4  and  N_36
    6  A    between atoms: C_9  and  C_49
    7  A    between atoms: N_10  and  C_25
    8  A    between atoms: C_11  and  C_14
    9  A    between atoms: C_13  and  N_36
   10  A    between atoms: N_15  and  C_30
   11  A    between atoms: C_20  and  C_49
   12  A    between atoms: C_21  and  N_24
   13  A    between atoms: N_24  and  C_50
   14  A    between atoms: C_27  and  O_54
   15  A    between atoms: P_28  and  O_54
   16  A    between atoms: O_33  and  C_51
   17  A    between atoms: N_36  and  C_42
                            x       y       z     vdW  Elec       q    Type
                         _______ _______ _______ _____ _____    ______ ____

>  <TORSDO>
F 17

$$$$
=
 OpenBabel11042422063D

 54 57  0  0  1  0  0  0  0  0999 V2000
  159.1270  213.7060  151.9340 C   0  0  0  0  0  0  0  0  0  0  0  0
  161.7260  211.1380  150.9410 C   0  0  0  0  0  0  0  0  0  0  0  0
  162.5320  210.9020  149.9500 N   0  0  0  0  0  0  0  0  0  0  0  0
  163.4140  211.4620  147.8750 O   0  0  0  0  0  0  0  0  0  0  0  0
  162.5230  211.6670  148.7390 C   0  0  0  0  0  0  0  0  0  0  0  0
  160.6780  213.0440  149.7130 C   0  0  0  0  0  0  0  0  0  0  0  0
  159.0660  214.4530  150.7520 C   0  0  0  0  0  3  0  0  0  0  0  0
  161.4520  212.6920  148.4730 C   0  0  2  0  0  3  0  0  0  0  0  0
  159.9960  212.6170  151.9910 C   0  0  0  0  0  3  0  0  0  0  0  0
  159.8280  214.1070  149.6810 N   0  0  0  0  0  0  0  0  0  0  0  0
  160.7790  212.2730  150.8830 C   0  0  0  0  0  0  0  0  0  0  0  0
  159.3610  212.3490  145.2920 N   0  0  0  0  0  2  0  0  0  0  0  0
  160.5330  212.2020  147.4540 N   0  0  0  0  0  2  0  0  0  0  0  0
  160.2580  212.9180  146.2500 C   0  0  0  0  0  0  0  0  0  0  0  0
  160.7920  214.0420  146.0440 O   0  0  0  0  0  0  0  0  0  0  0  0
  159.6200  212.6480  142.8920 C   0  0  0  0  0  0  0  0  0  0  0  0
  157.9860  213.9870  143.8020 C   0  0  0  0  0  2  0  0  0  0  0  0
  159.0160  212.9320  144.0310 C   0  0  0  0  0  0  0  0  0  0  0  0
  158.1100  214.2650  142.3760 N   0  0  0  0  0  0  0  0  0  0  0  0
  159.0240  213.5090  141.8750 C   0  0  0  0  0  0  0  0  0  0  0  0
  158.4690  214.0580  139.5270 C   0  0  0  0  0  1  0  0  0  0  0  0
  159.3530  213.5630  140.5180 O   0  0  0  0  0  0  0  0  0  0  0  0
  161.9210  212.4050  142.0330 C   0  0  0  0  0  1  0  0  0  0  0  0
  160.7700  211.7080  142.7350 C   0  0  0  0  0  2  0  0  0  0  0  0
  158.3280  214.0560  153.1550 C   0  0  0  0  0  2  0  0  0  0  0  0
  158.6080  213.1580  154.2680 N   0  0  0  0  0  0  0  0  0  0  0  0
  159.7690  213.0790  156.2840 O   0  0  0  0  0  1  0  0  0  0  0  0
  159.5580  213.8390  155.1310 C   0  0  0  0  0  2  0  0  0  0  0  0
  157.3670  213.0360  155.0140 C   0  0  0  0  0  2  0  0  0  0  0  0
  156.2570  212.5600  154.1000 C   0  0  0  0  0  2  0  0  0  0  0  0
  155.4050  211.6990  154.7920 O   0  0  0  0  0  0  0  0  0  0  0  0
  155.8800  211.8600  156.4550 P   0  0  1  0  0  0  0  0  0  0  0  0
  154.8530  213.2240  156.7720 O   0  0  0  0  0  1  0  0  0  0  0  0
  154.6870  210.5900  157.1020 C   0  0  0  0  0  1  0  0  0  0  0  0
  161.8390  210.3030  152.1730 C   0  0  0  0  0  2  0  0  0  0  0  0
  160.5250  209.5980  152.4400 C   0  0  0  0  0  2  0  0  0  0  0  0
  160.5210  208.2740  151.7640 C   0  0  0  0  0  3  0  0  0  0  0  0
  160.9390  207.2020  152.4230 C   0  0  0  0  0  3  0  0  0  0  0  0
  160.9160  205.9260  151.7920 N   0  0  0  0  0  2  0  0  0  0  0  0
  161.4620  204.4460  150.0680 O   0  0  0  0  0  0  0  0  0  0  0  0
  162.4620  205.9030  147.5320 C   0  0  0  0  0  2  0  0  0  0  0  0
  160.3270  202.8660  148.6150 C   0  0  2  0  0  3  0  0  0  0  0  0
  161.2230  203.2580  147.4440 C   0  0  0  0  0  2  0  0  0  0  0  0
  162.4250  206.6430  149.9890 C   0  0  0  0  0  0  0  0  0  0  0  0
  163.0520  207.2860  150.8760 O   0  0  0  0  0  0  0  0  0  0  0  0
  162.8300  206.7960  148.6220 N   0  0  0  0  0  2  0  0  0  0  0  0
  160.6760  205.9950  147.1810 S   0  0  0  0  0  0  0  0  0  0  0  0
  160.2060  203.9670  149.6650 C   0  0  0  0  0  2  0  0  0  0  0  0
  161.2380  205.7910  150.3760 C   0  0  2  0  0  3  0  0  0  0  0  0
  160.5850  204.2930  146.5190 C   0  0  0  0  0  2  0  0  0  0  0  0
  160.9370  201.3310  149.3710 P   0  0  0  0  0  0  0  0  0  0  0  0
  159.7730  200.4650  149.7980 O   0  0  0  0  0  1  0  0  0  0  0  0
  161.8840  200.4850  148.2540 O   0  0  0  0  0  0  0  0  0  0  0  0
  161.8770  201.7090  150.7240 O   0  0  0  0  0  1  0  0  0  0  0  0
  1  9  1  0  0  0  0
  1 25  1  0  0  0  0
  2 35  1  0  0  0  0
  3  2  2  0  0  0  0
  4  5  2  0  0  0  0
  5  3  1  0  0  0  0
  6 11  1  0  0  0  0
  7  1  2  0  0  0  0
  8 13  1  6  0  0  0
  8  5  1  0  0  0  0
  8  6  1  0  0  0  0
 10  6  2  0  0  0  0
 10  7  1  0  0  0  0
 11  2  1  0  0  0  0
 11  9  2  0  0  0  0
 12 14  1  0  0  0  0
 14 13  1  0  0  0  0
 15 14  2  0  0  0  0
 16 18  2  0  0  0  0
 17 18  1  0  0  0  0
 18 12  1  0  0  0  0
 19 17  1  0  0  0  0
 20 19  2  0  0  0  0
 20 16  1  0  0  0  0
 21 22  1  0  0  0  0
 22 20  1  0  0  0  0
 23 24  1  0  0  0  0
 24 16  1  0  0  0  0
 25 26  1  0  0  0  0
 26 29  1  0  0  0  0
 26 28  1  0  0  0  0
 28 27  1  0  0  0  0
 30 31  1  0  0  0  0
 30 29  1  0  0  0  0
 31 32  1  0  0  0  0
 32 33  1  0  0  0  0
 32 34  1  1  0  0  0
 35 36  1  0  0  0  0
 37 38  2  0  0  0  0
 37 36  1  0  0  0  0
 39 38  1  0  0  0  0
 40 49  1  0  0  0  0
 41 46  1  0  0  0  0
 42 51  1  1  0  0  0
 42 48  1  0  0  0  0
 43 42  1  0  0  0  0
 44 49  1  0  0  0  0
 44 45  2  0  0  0  0
 46 44  1  0  0  0  0
 47 41  1  0  0  0  0
 48 40  1  0  0  0  0
 49 39  1  1  0  0  0
 50 47  1  0  0  0  0
 50 43  1  0  0  0  0
 51 52  1  0  0  0  0
 51 54  1  0  0  0  0
 53 51  2  0  0  0  0
M  END
>  <MODEL>
3

>  <REMARK>
 VINA RESULT:      -3.6      2.016      2.657
  Name = 
  17 active torsions:
  status: ('A' for Active; 'I' for Inactive)
    1  A    between atoms: C_1  and  C_13
    2  A    between atoms: C_2  and  C_9
    3  A    between atoms: P_3  and  C_35
    4  A    between atoms: C_4  and  C_27
    5  A    between atoms: C_4  and  N_36
    6  A    between atoms: C_9  and  C_49
    7  A    between atoms: N_10  and  C_25
    8  A    between atoms: C_11  and  C_14
    9  A    between atoms: C_13  and  N_36
   10  A    between atoms: N_15  and  C_30
   11  A    between atoms: C_20  and  C_49
   12  A    between atoms: C_21  and  N_24
   13  A    between atoms: N_24  and  C_50
   14  A    between atoms: C_27  and  O_54
   15  A    between atoms: P_28  and  O_54
   16  A    between atoms: O_33  and  C_51
   17  A    between atoms: N_36  and  C_42
                            x       y       z     vdW  Elec       q    Type
                         _______ _______ _______ _____ _____    ______ ____

>  <TORSDO>
F 17

$$$$
=
 OpenBabel11042422063D

 54 57  0  0  1  0  0  0  0  0999 V2000
  159.8810  210.4560  154.4180 C   0  0  0  0  0  0  0  0  0  0  0  0
  161.2140  208.5040  151.4600 C   0  0  0  0  0  0  0  0  0  0  0  0
  161.8430  208.7330  150.3470 N   0  0  0  0  0  0  0  0  0  0  0  0
  162.8470  210.1970  148.8470 O   0  0  0  0  0  0  0  0  0  0  0  0
  162.1250  210.0530  149.8690 C   0  0  0  0  0  0  0  0  0  0  0  0
  161.0040  210.9520  151.9150 C   0  0  0  0  0  0  0  0  0  0  0  0
  160.1090  211.7610  153.9660 C   0  0  0  0  0  3  0  0  0  0  0  0
  161.5530  211.2680  150.5510 C   0  0  2  0  0  3  0  0  0  0  0  0
  160.2400  209.3910  153.5920 C   0  0  0  0  0  3  0  0  0  0  0  0
  160.6530  211.9770  152.7380 N   0  0  0  0  0  0  0  0  0  0  0  0
  160.8020  209.6250  152.3330 C   0  0  0  0  0  0  0  0  0  0  0  0
  159.6480  212.9510  147.6980 N   0  0  0  0  0  2  0  0  0  0  0  0
  160.5010  211.8530  149.7310 N   0  0  0  0  0  2  0  0  0  0  0  0
  160.7470  212.4220  148.4450 C   0  0  0  0  0  0  0  0  0  0  0  0
  161.9200  212.4660  147.9840 O   0  0  0  0  0  0  0  0  0  0  0  0
  158.7310  213.5750  145.5330 C   0  0  0  0  0  0  0  0  0  0  0  0
  160.9650  214.0770  145.7500 C   0  0  0  0  0  2  0  0  0  0  0  0
  159.7350  213.5210  146.3870 C   0  0  0  0  0  0  0  0  0  0  0  0
  160.5090  214.4360  144.4120 N   0  0  0  0  0  0  0  0  0  0  0  0
  159.2570  214.1540  144.3010 C   0  0  0  0  0  0  0  0  0  0  0  0
  159.1360  214.2480  141.8310 C   0  0  0  0  0  1  0  0  0  0  0  0
  158.5570  214.3970  143.1170 O   0  0  0  0  0  0  0  0  0  0  0  0
  156.5550  214.0000  146.6170 C   0  0  0  0  0  1  0  0  0  0  0  0
  157.3610  213.0290  145.7750 C   0  0  0  0  0  2  0  0  0  0  0  0
  159.3070  210.1580  155.7720 C   0  0  0  0  0  2  0  0  0  0  0  0
  160.0390  210.8320  156.8370 N   0  0  0  0  0  0  0  0  0  0  0  0
  161.8970  209.4300  156.8610 O   0  0  0  0  0  1  0  0  0  0  0  0
  161.4520  210.7100  156.5210 C   0  0  0  0  0  2  0  0  0  0  0  0
  159.7000  212.2410  156.7340 C   0  0  0  0  0  2  0  0  0  0  0  0
  158.2600  212.4610  157.1510 C   0  0  0  0  0  2  0  0  0  0  0  0
  157.7090  213.5160  156.4240 O   0  0  0  0  0  0  0  0  0  0  0  0
  156.4260  212.7900  155.5060 P   0  0  1  0  0  0  0  0  0  0  0  0
  155.4040  214.1940  155.5430 O   0  0  0  0  0  1  0  0  0  0  0  0
  157.1680  213.1590  153.8430 C   0  0  0  0  0  1  0  0  0  0  0  0
  160.9990  207.0890  151.8860 C   0  0  0  0  0  2  0  0  0  0  0  0
  162.2670  206.5380  152.5030 C   0  0  0  0  0  2  0  0  0  0  0  0
  162.4050  205.0980  152.1600 C   0  0  0  0  0  3  0  0  0  0  0  0
  161.4720  204.5070  151.4280 C   0  0  0  0  0  3  0  0  0  0  0  0
  161.6090  203.1350  151.0740 N   0  0  0  0  0  2  0  0  0  0  0  0
  160.7970  203.7280  148.9650 O   0  0  0  0  0  0  0  0  0  0  0  0
  159.5830  201.3240  147.4470 C   0  0  0  0  0  2  0  0  0  0  0  0
  161.6780  204.5190  146.8460 C   0  0  2  0  0  3  0  0  0  0  0  0
  160.6740  203.6650  146.0780 C   0  0  0  0  0  2  0  0  0  0  0  0
  159.9390  201.7180  149.9580 C   0  0  0  0  0  0  0  0  0  0  0  0
  159.4510  201.5240  151.1050 O   0  0  0  0  0  0  0  0  0  0  0  0
  159.3870  200.9910  148.8510 N   0  0  0  0  0  2  0  0  0  0  0  0
  161.3200  201.0790  146.9490 S   0  0  0  0  0  0  0  0  0  0  0  0
  161.9730  203.9790  148.2420 C   0  0  0  0  0  2  0  0  0  0  0  0
  161.1200  202.6460  149.7900 C   0  0  2  0  0  3  0  0  0  0  0  0
  161.2510  202.3280  145.6150 C   0  0  0  0  0  2  0  0  0  0  0  0
  161.0850  206.2340  146.9390 P   0  0  0  0  0  0  0  0  0  0  0  0
  160.5150  206.6580  145.6050 O   0  0  0  0  0  0  0  0  0  0  0  0
  159.8860  206.3560  148.1260 O   0  0  0  0  0  1  0  0  0  0  0  0
  162.3740  207.2500  147.3440 O   0  0  0  0  0  1  0  0  0  0  0  0
  1 25  1  0  0  0  0
  2 35  1  0  0  0  0
  2 11  1  0  0  0  0
  3  2  2  0  0  0  0
  4  5  2  0  0  0  0
  5  3  1  0  0  0  0
  5  8  1  0  0  0  0
  6 11  2  0  0  0  0
  6 10  1  0  0  0  0
  7  1  1  0  0  0  0
  8 13  1  6  0  0  0
  8  6  1  0  0  0  0
  9  1  2  0  0  0  0
 10  7  2  0  0  0  0
 11  9  1  0  0  0  0
 12 14  1  0  0  0  0
 14 13  1  0  0  0  0
 15 14  2  0  0  0  0
 16 24  1  0  0  0  0
 16 18  2  0  0  0  0
 17 18  1  0  0  0  0
 18 12  1  0  0  0  0
 19 17  1  0  0  0  0
 20 19  2  0  0  0  0
 20 16  1  0  0  0  0
 21 22  1  0  0  0  0
 22 20  1  0  0  0  0
 24 23  1  0  0  0  0
 25 26  1  0  0  0  0
 28 26  1  0  0  0  0
 28 27  1  0  0  0  0
 29 26  1  0  0  0  0
 29 30  1  0  0  0  0
 31 30  1  0  0  0  0
 32 34  1  6  0  0  0
 32 33  1  0  0  0  0
 32 31  1  0  0  0  0
 35 36  1  0  0  0  0
 37 36  1  0  0  0  0
 38 37  2  0  0  0  0
 39 38  1  0  0  0  0
 40 49  1  0  0  0  0
 41 46  1  0  0  0  0
 42 51  1  1  0  0  0
 42 48  1  0  0  0  0
 43 42  1  0  0  0  0
 44 45  2  0  0  0  0
 46 44  1  0  0  0  0
 47 41  1  0  0  0  0
 48 40  1  0  0  0  0
 49 44  1  0  0  0  0
 49 39  1  1  0  0  0
 50 43  1  0  0  0  0
 50 47  1  0  0  0  0
 51 54  1  0  0  0  0
 51 53  1  0  0  0  0
 52 51  2  0  0  0  0
M  END
>  <MODEL>
4

>  <REMARK>
 VINA RESULT:      -2.9      1.751      2.461
  Name = 
  17 active torsions:
  status: ('A' for Active; 'I' for Inactive)
    1  A    between atoms: C_1  and  C_13
    2  A    between atoms: C_2  and  C_9
    3  A    between atoms: P_3  and  C_35
    4  A    between atoms: C_4  and  C_27
    5  A    between atoms: C_4  and  N_36
    6  A    between atoms: C_9  and  C_49
    7  A    between atoms: N_10  and  C_25
    8  A    between atoms: C_11  and  C_14
    9  A    between atoms: C_13  and  N_36
   10  A    between atoms: N_15  and  C_30
   11  A    between atoms: C_20  and  C_49
   12  A    between atoms: C_21  and  N_24
   13  A    between atoms: N_24  and  C_50
   14  A    between atoms: C_27  and  O_54
   15  A    between atoms: P_28  and  O_54
   16  A    between atoms: O_33  and  C_51
   17  A    between atoms: N_36  and  C_42
                            x       y       z     vdW  Elec       q    Type
                         _______ _______ _______ _____ _____    ______ ____

>  <TORSDO>
F 17

$$$$
=
 OpenBabel11042422063D

 54 57  0  0  1  0  0  0  0  0999 V2000
  161.1550  209.0770  154.5150 C   0  0  0  0  0  0  0  0  0  0  0  0
  161.1710  206.9040  151.4140 C   0  0  0  0  0  0  0  0  0  0  0  0
  161.6480  206.9350  150.2070 N   0  0  0  0  0  0  0  0  0  0  0  0
  162.8610  207.9930  148.5310 O   0  0  0  0  0  0  0  0  0  0  0  0
  162.3150  208.0790  149.6620 C   0  0  0  0  0  0  0  0  0  0  0  0
  161.9560  209.2360  151.8490 C   0  0  0  0  0  0  0  0  0  0  0  0
  161.7710  210.2250  154.0050 C   0  0  0  0  0  3  0  0  0  0  0  0
  162.3520  209.3880  150.4060 C   0  0  2  0  0  3  0  0  0  0  0  0
  160.9550  207.9920  153.6620 C   0  0  0  0  0  3  0  0  0  0  0  0
  162.1470  210.2810  152.7000 N   0  0  0  0  0  0  0  0  0  0  0  0
  161.3500  208.0590  152.3210 C   0  0  0  0  0  0  0  0  0  0  0  0
  160.9530  212.0960  148.1020 N   0  0  0  0  0  2  0  0  0  0  0  0
  161.4710  210.3540  149.7640 N   0  0  0  0  0  2  0  0  0  0  0  0
  161.8940  211.1950  148.6910 C   0  0  0  0  0  0  0  0  0  0  0  0
  163.0860  211.1480  148.2800 O   0  0  0  0  0  0  0  0  0  0  0  0
  160.4430  213.1000  145.9460 C   0  0  0  0  0  0  0  0  0  0  0  0
  162.4360  213.8260  146.8340 C   0  0  0  0  0  2  0  0  0  0  0  0
  161.2230  212.9740  147.0020 C   0  0  0  0  0  0  0  0  0  0  0  0
  162.2320  214.4340  145.5250 N   0  0  0  0  0  0  0  0  0  0  0  0
  161.1130  214.0250  145.0370 C   0  0  0  0  0  0  0  0  0  0  0  0
  161.4150  214.2920  142.5950 C   0  0  0  0  0  1  0  0  0  0  0  0
  160.6620  214.4530  143.7860 O   0  0  0  0  0  0  0  0  0  0  0  0
  157.9780  213.2110  146.0000 C   0  0  0  0  0  1  0  0  0  0  0  0
  159.1820  212.3350  145.7060 C   0  0  0  0  0  2  0  0  0  0  0  0
  160.7410  208.9510  155.9520 C   0  0  0  0  0  2  0  0  0  0  0  0
  159.8250  210.0100  156.3520 N   0  0  0  0  0  0  0  0  0  0  0  0
  161.8290  210.9150  157.1160 O   0  0  0  0  0  1  0  0  0  0  0  0
  160.6160  211.2210  156.4940 C   0  0  0  0  0  2  0  0  0  0  0  0
  158.9290  210.2180  155.2280 C   0  0  0  0  0  2  0  0  0  0  0  0
  158.3220  211.6050  155.2970 C   0  0  0  0  0  2  0  0  0  0  0  0
  157.0280  211.5340  155.8140 O   0  0  0  0  0  0  0  0  0  0  0  0
  156.9320  212.8590  156.9320 P   0  0  1  0  0  0  0  0  0  0  0  0
  158.1150  213.8310  156.1120 O   0  0  0  0  0  1  0  0  0  0  0  0
  155.4610  213.6620  156.1280 C   0  0  0  0  0  1  0  0  0  0  0  0
  160.5210  205.6500  151.8980 C   0  0  0  0  0  2  0  0  0  0  0  0
  161.5560  204.5520  152.0310 C   0  0  0  0  0  2  0  0  0  0  0  0
  161.0850  203.3320  151.3250 C   0  0  0  0  0  3  0  0  0  0  0  0
  161.9320  202.6440  150.5730 C   0  0  0  0  0  3  0  0  0  0  0  0
  161.4960  201.4600  149.9110 N   0  0  0  0  0  2  0  0  0  0  0  0
  160.8450  202.7800  148.0960 O   0  0  0  0  0  0  0  0  0  0  0  0
  158.3740  201.6370  146.6320 C   0  0  0  0  0  2  0  0  0  0  0  0
  161.7250  203.4360  145.9310 C   0  0  2  0  0  3  0  0  0  0  0  0
  160.3330  203.3570  145.3120 C   0  0  0  0  0  2  0  0  0  0  0  0
  159.2050  201.3000  149.0370 C   0  0  0  0  0  0  0  0  0  0  0  0
  158.8410  201.1480  150.2350 O   0  0  0  0  0  0  0  0  0  0  0  0
  158.2180  201.1730  148.0040 N   0  0  0  0  0  2  0  0  0  0  0  0
  159.6490  200.6750  145.7530 S   0  0  0  0  0  0  0  0  0  0  0  0
  161.8740  202.5570  147.1700 C   0  0  0  0  0  2  0  0  0  0  0  0
  160.6630  201.5400  148.7180 C   0  0  2  0  0  3  0  0  0  0  0  0
  160.0650  202.0320  144.6010 C   0  0  0  0  0  2  0  0  0  0  0  0
  162.1260  205.1640  146.3250 P   0  0  0  0  0  0  0  0  0  0  0  0
  163.3500  205.2220  147.2110 O   0  0  0  0  0  1  0  0  0  0  0  0
  162.4260  206.0170  144.8960 O   0  0  0  0  0  0  0  0  0  0  0  0
  160.8200  205.8720  147.1320 O   0  0  0  0  0  1  0  0  0  0  0  0
  1 25  1  0  0  0  0
  2 35  1  0  0  0  0
  2 11  1  0  0  0  0
  3  2  2  0  0  0  0
  4  5  2  0  0  0  0
  5  3  1  0  0  0  0
  5  8  1  0  0  0  0
  6 11  2  0  0  0  0
  6 10  1  0  0  0  0
  7  1  1  0  0  0  0
  8 13  1  6  0  0  0
  8  6  1  0  0  0  0
  9  1  2  0  0  0  0
 10  7  2  0  0  0  0
 11  9  1  0  0  0  0
 12 14  1  0  0  0  0
 14 13  1  0  0  0  0
 15 14  2  0  0  0  0
 16 18  2  0  0  0  0
 17 18  1  0  0  0  0
 18 12  1  0  0  0  0
 19 17  1  0  0  0  0
 20 19  2  0  0  0  0
 20 16  1  0  0  0  0
 21 22  1  0  0  0  0
 22 20  1  0  0  0  0
 24 16  1  0  0  0  0
 24 23  1  0  0  0  0
 25 26  1  0  0  0  0
 26 28  1  0  0  0  0
 28 27  1  0  0  0  0
 29 30  1  0  0  0  0
 29 26  1  0  0  0  0
 30 31  1  0  0  0  0
 31 32  1  0  0  0  0
 32 34  1  6  0  0  0
 33 32  1  0  0  0  0
 35 36  1  0  0  0  0
 37 36  1  0  0  0  0
 38 37  2  0  0  0  0
 39 38  1  0  0  0  0
 40 49  1  0  0  0  0
 41 46  1  0  0  0  0
 42 51  1  1  0  0  0
 42 48  1  0  0  0  0
 43 42  1  0  0  0  0
 44 45  2  0  0  0  0
 46 44  1  0  0  0  0
 47 41  1  0  0  0  0
 48 40  1  0  0  0  0
 49 44  1  0  0  0  0
 49 39  1  1  0  0  0
 50 43  1  0  0  0  0
 50 47  1  0  0  0  0
 51 54  1  0  0  0  0
 51 52  1  0  0  0  0
 53 51  2  0  0  0  0
M  END
>  <MODEL>
5

>  <REMARK>
 VINA RESULT:      -2.7      2.145      3.254
  Name = 
  17 active torsions:
  status: ('A' for Active; 'I' for Inactive)
    1  A    between atoms: C_1  and  C_13
    2  A    between atoms: C_2  and  C_9
    3  A    between atoms: P_3  and  C_35
    4  A    between atoms: C_4  and  C_27
    5  A    between atoms: C_4  and  N_36
    6  A    between atoms: C_9  and  C_49
    7  A    between atoms: N_10  and  C_25
    8  A    between atoms: C_11  and  C_14
    9  A    between atoms: C_13  and  N_36
   10  A    between atoms: N_15  and  C_30
   11  A    between atoms: C_20  and  C_49
   12  A    between atoms: C_21  and  N_24
   13  A    between atoms: N_24  and  C_50
   14  A    between atoms: C_27  and  O_54
   15  A    between atoms: P_28  and  O_54
   16  A    between atoms: O_33  and  C_51
   17  A    between atoms: N_36  and  C_42
                            x       y       z     vdW  Elec       q    Type
                         _______ _______ _______ _____ _____    ______ ____

>  <TORSDO>
F 17

$$$$
