=
 OpenBabel11042421363D

 45 50  0  0  1  0  0  0  0  0999 V2000
  159.5200  208.3090  155.9850 C   0  0  0  0  0  2  0  0  0  0  0  0
  159.0580  209.7710  155.7390 C   0  0  0  0  0  2  0  0  0  0  0  0
  160.6840  212.9400  150.4480 C   0  0  0  0  0  2  0  0  0  0  0  0
  160.8960  210.6820  151.6830 C   0  0  1  0  0  3  0  0  0  0  0  0
  159.8400  210.5970  154.6620 C   0  0  1  0  0  3  0  0  0  0  0  0
  162.2560  210.0070  155.3210 C   0  0  1  0  0  3  0  0  0  0  0  0
  159.5420  212.4910  152.4670 C   0  0  0  0  0  0  0  0  0  0  0  0
  162.2550  211.1980  156.0510 O   0  0  0  0  0  1  0  0  0  0  0  0
  159.1590  212.8320  153.8670 C   0  0  2  0  0  3  0  0  0  0  0  0
  161.9450  208.8080  156.2130 C   0  0  0  0  0  2  0  0  0  0  0  0
  161.0220  208.4570  153.9820 C   0  0  1  0  0  0  0  0  0  0  0  0
  159.8570  208.1710  153.2460 O   0  0  0  0  0  1  0  0  0  0  0  0
  161.8050  210.6720  152.9310 C   0  0  0  0  0  2  0  0  0  0  0  0
  159.8960  212.0790  154.8940 N   0  0  1  0  0  0  0  0  0  0  0  0
  157.6920  212.7660  154.2100 C   0  0  1  0  0  3  0  0  0  0  0  0
  159.6110  211.1610  152.0650 O   0  0  0  0  0  0  0  0  0  0  0  0
  161.2120  209.9770  154.1860 C   0  0  1  0  0  0  0  0  0  0  0  0
  160.0910  213.3820  151.7080 N   0  0  0  0  0  0  0  0  0  0  0  0
  161.5240  211.6530  150.6560 C   0  0  1  0  0  3  0  0  0  0  0  0
  157.7140  212.7430  155.7260 C   0  0  0  0  0  2  0  0  0  0  0  0
  159.1800  212.4710  156.1150 C   0  0  0  0  0  2  0  0  0  0  0  0
  160.9120  207.9810  155.4390 C   0  0  2  0  0  3  0  0  0  0  0  0
  161.9600  209.7350  149.2750 O   0  0  0  0  0  0  0  0  0  0  0  0
  161.8810  211.7800  148.1680 N   0  0  0  0  0  1  0  0  0  0  0  0
  161.8220  210.9890  149.3500 C   0  0  0  0  0  0  0  0  0  0  0  0
  156.9760  214.0110  153.7210 C   0  0  0  0  0  2  0  0  0  0  0  0
  155.7500  213.6450  152.8910 C   0  0  1  0  0  3  0  0  0  0  0  0
  154.5780  214.0840  153.5150 O   0  0  0  0  0  1  0  0  0  0  0  0
  154.6940  214.3180  150.6970 N   0  0  0  0  0  2  0  0  0  0  0  0
  157.0230  214.4430  150.9840 N   0  0  0  0  0  1  0  0  0  0  0  0
  155.8570  214.2510  151.5180 C   0  0  0  0  0  0  0  0  0  0  0  0
  162.2230  207.7860  153.2880 C   0  0  0  0  0  2  0  0  0  0  0  0
  161.8690  206.3900  152.7690 C   0  0  0  0  0  2  0  0  0  0  0  0
  162.2770  206.2390  151.3780 N   0  0  0  0  0  2  0  0  0  0  0  0
  161.1000  206.1130  150.5080 C   0  0  1  0  0  3  0  0  0  0  0  0
  160.5230  207.3730  150.2870 O   0  0  0  0  0  1  0  0  0  0  0  0
  161.4390  205.4000  149.1750 C   0  0  1  0  0  3  0  0  0  0  0  0
  160.6320  201.1720  149.2720 C   0  0  0  0  0  3  0  0  0  0  0  0
  161.3080  203.1650  148.0650 C   0  0  0  0  0  3  0  0  0  0  0  0
  160.4960  201.9290  150.4400 C   0  0  0  0  0  3  0  0  0  0  0  0
  161.0380  201.7910  148.0840 C   0  0  0  0  0  3  0  0  0  0  0  0
  160.7660  203.3020  150.4230 C   0  0  0  0  0  3  0  0  0  0  0  0
  161.1820  203.9250  149.2330 C   0  0  0  0  0  0  0  0  0  0  0  0
  161.6170  206.8490  147.2550 O   0  0  0  0  0  1  0  0  0  0  0  0
  160.7350  206.0370  147.9740 C   0  0  0  0  0  2  0  0  0  0  0  0
  2  1  1  0  0  0  0
  3 19  1  0  0  0  0
  3 18  1  0  0  0  0
  4 16  1  0  0  0  0
  4 13  1  1  0  0  0
  5 14  1  0  0  0  0
  5  2  1  1  0  0  0
  6  8  1  1  0  0  0
  6 10  1  0  0  0  0
  9  7  1  6  0  0  0
  9 15  1  0  0  0  0
  9 14  1  0  0  0  0
 11 12  1  6  0  0  0
 11 17  1  0  0  0  0
 11 22  1  0  0  0  0
 14 21  1  1  0  0  0
 15 26  1  1  0  0  0
 15 20  1  0  0  0  0
 16  7  1  0  0  0  0
 17 13  1  6  0  0  0
 17  5  1  0  0  0  0
 17  6  1  0  0  0  0
 18  7  2  0  0  0  0
 19 25  1  6  0  0  0
 19  4  1  0  0  0  0
 20 21  1  0  0  0  0
 22  1  1  1  0  0  0
 22 10  1  0  0  0  0
 23 25  2  0  0  0  0
 24 25  1  0  0  0  0
 27 28  1  1  0  0  0
 27 26  1  0  0  0  0
 29 31  2  0  0  0  0
 30 31  1  0  0  0  0
 31 27  1  0  0  0  0
 32 11  1  0  0  0  0
 33 32  1  0  0  0  0
 34 33  1  0  0  0  0
 35 36  1  6  0  0  0
 35 34  1  0  0  0  0
 37 45  1  6  0  0  0
 37 43  1  0  0  0  0
 37 35  1  0  0  0  0
 38 40  1  0  0  0  0
 39 41  1  0  0  0  0
 39 43  2  0  0  0  0
 41 38  2  0  0  0  0
 42 40  2  0  0  0  0
 43 42  1  0  0  0  0
 44 45  1  0  0  0  0
M  END
>  <MODEL>
1

>  <REMARK>
 VINA RESULT:      -6.2      0.000      0.000
  Name = 
  11 active torsions:
  status: ('A' for Active; 'I' for Inactive)
    1  A    between atoms: C_4  and  C_5
    2  A    between atoms: C_4  and  N_40
    3  A    between atoms: C_5  and  C_31
    4  A    between atoms: C_5  and  C_45
    5  A    between atoms: C_7  and  C_15
    6  A    between atoms: C_7  and  C_29
    7  A    between atoms: C_15  and  C_44
    8  A    between atoms: C_19  and  C_24
    9  A    between atoms: C_19  and  C_34
   10  A    between atoms: C_34  and  N_40
   11  A    between atoms: C_37  and  C_38
                            x       y       z     vdW  Elec       q    Type
                         _______ _______ _______ _____ _____    ______ ____

>  <TORSDO>
F 11

$$$$
=
 OpenBabel11042421363D

 45 50  0  0  1  0  0  0  0  0999 V2000
  159.4650  208.3280  156.3750 C   0  0  0  0  0  2  0  0  0  0  0  0
  159.1490  209.8030  156.0080 C   0  0  0  0  0  2  0  0  0  0  0  0
  160.9570  212.3150  150.4310 C   0  0  0  0  0  2  0  0  0  0  0  0
  160.9680  210.1640  151.8590 C   0  0  1  0  0  3  0  0  0  0  0  0
  159.9830  210.4470  154.8500 C   0  0  1  0  0  3  0  0  0  0  0  0
  162.3420  209.6680  155.5190 C   0  0  1  0  0  3  0  0  0  0  0  0
  159.8260  212.1650  152.5000 C   0  0  0  0  0  0  0  0  0  0  0  0
  162.4810  210.9120  156.1410 O   0  0  0  0  0  1  0  0  0  0  0  0
  159.5150  212.6640  153.8700 C   0  0  2  0  0  3  0  0  0  0  0  0
  161.9320  208.5910  156.5200 C   0  0  0  0  0  2  0  0  0  0  0  0
  160.9230  208.1450  154.3440 C   0  0  1  0  0  0  0  0  0  0  0  0
  159.7170  207.9190  153.6540 O   0  0  0  0  0  1  0  0  0  0  0  0
  161.9020  210.1680  153.0880 C   0  0  0  0  0  2  0  0  0  0  0  0
  160.1960  211.9300  154.9480 N   0  0  1  0  0  0  0  0  0  0  0  0
  158.0580  212.7800  154.2410 C   0  0  1  0  0  3  0  0  0  0  0  0
  159.7480  210.8040  152.2160 O   0  0  0  0  0  0  0  0  0  0  0  0
  161.2720  209.6490  154.4090 C   0  0  1  0  0  0  0  0  0  0  0  0
  160.4440  212.9250  151.6560 N   0  0  0  0  0  0  0  0  0  0  0  0
  161.6660  210.9710  150.7390 C   0  0  1  0  0  3  0  0  0  0  0  0
  158.1140  212.8860  155.7520 C   0  0  0  0  0  2  0  0  0  0  0  0
  159.5540  212.4990  156.1410 C   0  0  0  0  0  2  0  0  0  0  0  0
  160.8020  207.8110  155.8380 C   0  0  2  0  0  3  0  0  0  0  0  0
  161.9720  210.7340  148.3680 O   0  0  0  0  0  0  0  0  0  0  0  0
  161.9950  208.7560  149.5920 N   0  0  0  0  0  1  0  0  0  0  0  0
  161.8620  210.1700  149.4930 C   0  0  0  0  0  0  0  0  0  0  0  0
  157.4600  214.0460  153.6540 C   0  0  0  0  0  2  0  0  0  0  0  0
  156.1560  213.7460  152.9230 C   0  0  1  0  0  3  0  0  0  0  0  0
  155.0630  214.2740  153.6170 O   0  0  0  0  0  1  0  0  0  0  0  0
  154.9960  214.4070  150.7780 N   0  0  0  0  0  2  0  0  0  0  0  0
  157.3410  214.4510  150.9240 N   0  0  0  0  0  1  0  0  0  0  0  0
  156.2030  214.3150  151.5310 C   0  0  0  0  0  0  0  0  0  0  0  0
  162.0320  207.2950  153.6930 C   0  0  0  0  0  2  0  0  0  0  0  0
  161.4920  205.9570  153.1820 C   0  0  0  0  0  2  0  0  0  0  0  0
  161.2790  206.0030  151.7410 N   0  0  0  0  0  2  0  0  0  0  0  0
  161.7170  204.7490  151.1150 C   0  0  1  0  0  3  0  0  0  0  0  0
  161.9450  203.7710  152.0950 O   0  0  0  0  0  1  0  0  0  0  0  0
  160.7170  204.2570  150.0410 C   0  0  1  0  0  3  0  0  0  0  0  0
  161.8040  205.6680  146.1210 C   0  0  0  0  0  3  0  0  0  0  0  0
  161.9360  203.9970  147.8750 C   0  0  0  0  0  3  0  0  0  0  0  0
  160.9370  206.4270  146.9140 C   0  0  0  0  0  3  0  0  0  0  0  0
  162.3030  204.4520  146.6020 C   0  0  0  0  0  3  0  0  0  0  0  0
  160.5690  205.9730  148.1850 C   0  0  0  0  0  3  0  0  0  0  0  0
  161.0620  204.7490  148.6680 C   0  0  0  0  0  0  0  0  0  0  0  0
  160.1230  202.2730  148.8030 O   0  0  0  0  0  1  0  0  0  0  0  0
  160.5410  202.7360  150.0540 C   0  0  0  0  0  2  0  0  0  0  0  0
  2  1  1  0  0  0  0
  3 19  1  0  0  0  0
  3 18  1  0  0  0  0
  4 16  1  0  0  0  0
  4 13  1  1  0  0  0
  5 14  1  0  0  0  0
  5  2  1  1  0  0  0
  6  8  1  1  0  0  0
  6 10  1  0  0  0  0
  9  7  1  6  0  0  0
  9 15  1  0  0  0  0
  9 14  1  0  0  0  0
 11 12  1  6  0  0  0
 11 17  1  0  0  0  0
 11 22  1  0  0  0  0
 14 21  1  1  0  0  0
 15 26  1  6  0  0  0
 15 20  1  0  0  0  0
 16  7  1  0  0  0  0
 17 13  1  6  0  0  0
 17  5  1  0  0  0  0
 17  6  1  0  0  0  0
 18  7  2  0  0  0  0
 19 25  1  6  0  0  0
 19  4  1  0  0  0  0
 20 21  1  0  0  0  0
 22  1  1  1  0  0  0
 22 10  1  0  0  0  0
 23 25  2  0  0  0  0
 25 24  1  0  0  0  0
 27 28  1  1  0  0  0
 27 26  1  0  0  0  0
 29 31  2  0  0  0  0
 30 31  1  0  0  0  0
 31 27  1  0  0  0  0
 32 11  1  0  0  0  0
 33 32  1  0  0  0  0
 34 33  1  0  0  0  0
 35 34  1  0  0  0  0
 35 36  1  1  0  0  0
 37 45  1  6  0  0  0
 37 35  1  0  0  0  0
 38 41  2  0  0  0  0
 38 40  1  0  0  0  0
 39 43  2  0  0  0  0
 40 42  2  0  0  0  0
 41 39  1  0  0  0  0
 42 43  1  0  0  0  0
 43 37  1  0  0  0  0
 44 45  1  0  0  0  0
M  END
>  <MODEL>
2

>  <REMARK>
 VINA RESULT:      -6.0      1.338      1.974
  Name = 
  11 active torsions:
  status: ('A' for Active; 'I' for Inactive)
    1  A    between atoms: C_4  and  C_5
    2  A    between atoms: C_4  and  N_40
    3  A    between atoms: C_5  and  C_31
    4  A    between atoms: C_5  and  C_45
    5  A    between atoms: C_7  and  C_15
    6  A    between atoms: C_7  and  C_29
    7  A    between atoms: C_15  and  C_44
    8  A    between atoms: C_19  and  C_24
    9  A    between atoms: C_19  and  C_34
   10  A    between atoms: C_34  and  N_40
   11  A    between atoms: C_37  and  C_38
                            x       y       z     vdW  Elec       q    Type
                         _______ _______ _______ _____ _____    ______ ____

>  <TORSDO>
F 11

$$$$
=
 OpenBabel11042421363D

 45 50  0  0  1  0  0  0  0  0999 V2000
  159.6980  208.1330  156.0090 C   0  0  0  0  0  2  0  0  0  0  0  0
  159.1700  209.5790  156.2060 C   0  0  0  0  0  2  0  0  0  0  0  0
  159.7340  213.9900  151.6320 C   0  0  0  0  0  2  0  0  0  0  0  0
  160.2140  211.5250  152.2330 C   0  0  1  0  0  3  0  0  0  0  0  0
  159.7240  210.6810  155.2410 C   0  0  1  0  0  3  0  0  0  0  0  0
  162.2320  210.1070  155.3080 C   0  0  1  0  0  3  0  0  0  0  0  0
  158.9910  213.0120  153.6510 C   0  0  0  0  0  0  0  0  0  0  0  0
  162.3410  211.0930  156.2920 O   0  0  0  0  0  1  0  0  0  0  0  0
  158.8660  212.9930  155.1360 C   0  0  2  0  0  3  0  0  0  0  0  0
  162.1120  208.7160  155.9260 C   0  0  0  0  0  2  0  0  0  0  0  0
  160.8030  208.8370  153.8710 C   0  0  1  0  0  0  0  0  0  0  0  0
  159.5280  208.6580  153.3020 O   0  0  0  0  0  1  0  0  0  0  0  0
  161.3360  211.2810  153.2640 C   0  0  0  0  0  2  0  0  0  0  0  0
  159.7930  212.0690  155.8090 N   0  0  1  0  0  0  0  0  0  0  0  0
  157.4880  212.7560  155.7030 C   0  0  1  0  0  3  0  0  0  0  0  0
  159.0110  211.8190  152.9350 O   0  0  0  0  0  0  0  0  0  0  0  0
  160.9970  210.2760  154.3990 C   0  0  1  0  0  0  0  0  0  0  0  0
  159.3740  214.0880  153.0450 N   0  0  0  0  0  0  0  0  0  0  0  0
  160.6240  212.7450  151.3760 C   0  0  1  0  0  3  0  0  0  0  0  0
  157.7880  212.3820  157.1410 C   0  0  0  0  0  2  0  0  0  0  0  0
  159.3050  212.1200  157.1930 C   0  0  0  0  0  2  0  0  0  0  0  0
  160.9720  208.0290  155.1660 C   0  0  2  0  0  3  0  0  0  0  0  0
  160.0330  213.0970  149.0740 O   0  0  0  0  0  0  0  0  0  0  0  0
  161.5590  211.3880  149.4750 N   0  0  0  0  0  1  0  0  0  0  0  0
  160.6890  212.4240  149.9180 C   0  0  0  0  0  0  0  0  0  0  0  0
  156.6700  214.0340  155.6590 C   0  0  0  0  0  2  0  0  0  0  0  0
  155.2430  213.7530  155.2010 C   0  0  1  0  0  3  0  0  0  0  0  0
  154.3160  214.2880  156.1010 O   0  0  0  0  0  1  0  0  0  0  0  0
  153.6860  214.4520  153.3380 N   0  0  0  0  0  1  0  0  0  0  0  0
  156.0120  214.4470  153.0060 N   0  0  0  0  0  2  0  0  0  0  0  0
  155.0180  214.3310  153.8300 C   0  0  0  0  0  0  0  0  0  0  0  0
  161.8690  208.4230  152.8380 C   0  0  0  0  0  2  0  0  0  0  0  0
  161.6180  207.0130  152.3000 C   0  0  0  0  0  2  0  0  0  0  0  0
  162.0940  206.8920  150.9280 N   0  0  0  0  0  2  0  0  0  0  0  0
  160.9640  206.8840  149.9900 C   0  0  1  0  0  3  0  0  0  0  0  0
  161.2000  207.7800  148.9360 O   0  0  0  0  0  1  0  0  0  0  0  0
  160.6550  205.4590  149.4670 C   0  0  1  0  0  3  0  0  0  0  0  0
  161.5470  205.0350  145.2770 C   0  0  0  0  0  3  0  0  0  0  0  0
  161.6310  204.1880  147.5490 C   0  0  0  0  0  3  0  0  0  0  0  0
  160.8570  206.1650  145.7260 C   0  0  0  0  0  3  0  0  0  0  0  0
  161.9330  204.0460  146.1890 C   0  0  0  0  0  3  0  0  0  0  0  0
  160.5530  206.3080  147.0850 C   0  0  0  0  0  3  0  0  0  0  0  0
  160.9330  205.3130  148.0020 C   0  0  0  0  0  0  0  0  0  0  0  0
  160.4480  203.4610  150.8040 O   0  0  0  0  0  1  0  0  0  0  0  0
  161.3690  204.3700  150.2750 C   0  0  0  0  0  2  0  0  0  0  0  0
  1  2  1  0  0  0  0
  3 18  1  0  0  0  0
  4 16  1  0  0  0  0
  4 13  1  1  0  0  0
  5 14  1  0  0  0  0
  5  2  1  1  0  0  0
  6 10  1  0  0  0  0
  6  8  1  1  0  0  0
  9  7  1  6  0  0  0
  9 15  1  0  0  0  0
  9 14  1  0  0  0  0
 11 12  1  6  0  0  0
 11 17  1  0  0  0  0
 11 22  1  0  0  0  0
 14 21  1  1  0  0  0
 15 26  1  1  0  0  0
 15 20  1  0  0  0  0
 16  7  1  0  0  0  0
 17 13  1  6  0  0  0
 17  5  1  0  0  0  0
 17  6  1  0  0  0  0
 18  7  2  0  0  0  0
 19 25  1  6  0  0  0
 19  3  1  0  0  0  0
 19  4  1  0  0  0  0
 20 21  1  0  0  0  0
 22 10  1  1  0  0  0
 22  1  1  0  0  0  0
 23 25  2  0  0  0  0
 24 25  1  0  0  0  0
 27 26  1  0  0  0  0
 27 28  1  1  0  0  0
 29 31  1  0  0  0  0
 30 31  2  0  0  0  0
 31 27  1  0  0  0  0
 32 11  1  0  0  0  0
 33 32  1  0  0  0  0
 34 33  1  0  0  0  0
 35 36  1  6  0  0  0
 35 34  1  0  0  0  0
 37 35  1  0  0  0  0
 37 45  1  1  0  0  0
 38 40  2  0  0  0  0
 38 41  1  0  0  0  0
 39 43  1  0  0  0  0
 40 42  1  0  0  0  0
 41 39  2  0  0  0  0
 42 43  2  0  0  0  0
 43 37  1  0  0  0  0
 45 44  1  0  0  0  0
M  END
>  <MODEL>
3

>  <REMARK>
 VINA RESULT:      -4.5      1.547      2.247
  Name = 
  11 active torsions:
  status: ('A' for Active; 'I' for Inactive)
    1  A    between atoms: C_4  and  C_5
    2  A    between atoms: C_4  and  N_40
    3  A    between atoms: C_5  and  C_31
    4  A    between atoms: C_5  and  C_45
    5  A    between atoms: C_7  and  C_15
    6  A    between atoms: C_7  and  C_29
    7  A    between atoms: C_15  and  C_44
    8  A    between atoms: C_19  and  C_24
    9  A    between atoms: C_19  and  C_34
   10  A    between atoms: C_34  and  N_40
   11  A    between atoms: C_37  and  C_38
                            x       y       z     vdW  Elec       q    Type
                         _______ _______ _______ _____ _____    ______ ____

>  <TORSDO>
F 11

$$$$
=
 OpenBabel11042421363D

 45 50  0  0  1  0  0  0  0  0999 V2000
  160.0810  204.3290  152.0500 C   0  0  0  0  0  2  0  0  0  0  0  0
  160.1120  205.4290  153.1450 C   0  0  0  0  0  2  0  0  0  0  0  0
  161.7680  211.4390  151.7910 C   0  0  0  0  0  2  0  0  0  0  0  0
  161.4070  209.0890  150.7820 C   0  0  1  0  0  3  0  0  0  0  0  0
  160.9280  206.7290  152.8300 C   0  0  1  0  0  3  0  0  0  0  0  0
  163.0710  205.6830  151.8640 C   0  0  1  0  0  3  0  0  0  0  0  0
  160.9150  209.6350  153.0580 C   0  0  0  0  0  0  0  0  0  0  0  0
  163.6060  205.8100  153.1480 O   0  0  0  0  0  1  0  0  0  0  0  0
  160.9260  208.7460  154.2540 C   0  0  2  0  0  3  0  0  0  0  0  0
  162.5290  204.2770  151.6250 C   0  0  0  0  0  2  0  0  0  0  0  0
  161.1650  205.9150  150.4380 C   0  0  1  0  0  0  0  0  0  0  0  0
  159.8620  206.4130  150.2500 O   0  0  0  0  0  1  0  0  0  0  0  0
  162.4620  208.0230  151.1460 C   0  0  0  0  0  2  0  0  0  0  0  0
  161.5280  207.4240  154.0180 N   0  0  1  0  0  0  0  0  0  0  0  0
  159.6090  208.5330  154.9580 C   0  0  1  0  0  3  0  0  0  0  0  0
  160.4520  209.1580  151.8350 O   0  0  0  0  0  0  0  0  0  0  0  0
  161.8970  206.6450  151.5870 C   0  0  1  0  0  0  0  0  0  0  0  0
  161.5940  210.7360  153.0600 N   0  0  0  0  0  0  0  0  0  0  0  0
  162.1390  210.4470  150.6580 C   0  0  1  0  0  3  0  0  0  0  0  0
  159.8880  207.3050  155.8040 C   0  0  0  0  0  2  0  0  0  0  0  0
  161.2160  206.7310  155.2750 C   0  0  0  0  0  2  0  0  0  0  0  0
  161.1560  204.4740  150.9700 C   0  0  2  0  0  3  0  0  0  0  0  0
  162.2940  210.4640  148.2600 O   0  0  0  0  0  0  0  0  0  0  0  0
  161.3290  212.3490  149.2230 N   0  0  0  0  0  1  0  0  0  0  0  0
  161.9570  211.0740  149.3140 C   0  0  0  0  0  0  0  0  0  0  0  0
  159.2890  209.7160  155.8530 C   0  0  0  0  0  2  0  0  0  0  0  0
  158.5240  210.7900  155.0850 C   0  0  1  0  0  3  0  0  0  0  0  0
  157.1990  210.8650  155.5230 O   0  0  0  0  0  1  0  0  0  0  0  0
  158.9050  213.1720  154.3360 N   0  0  0  0  0  2  0  0  0  0  0  0
  160.2270  212.2350  156.0370 N   0  0  0  0  0  1  0  0  0  0  0  0
  159.1980  212.1250  155.2560 C   0  0  0  0  0  0  0  0  0  0  0  0
  161.9210  205.9870  149.0980 C   0  0  0  0  0  2  0  0  0  0  0  0
  161.3820  207.1070  148.2040 C   0  0  0  0  0  2  0  0  0  0  0  0
  161.5580  206.7720  146.7970 N   0  0  0  0  0  2  0  0  0  0  0  0
  160.6420  205.6920  146.4060 C   0  0  1  0  0  3  0  0  0  0  0  0
  159.5900  206.2040  145.6300 O   0  0  0  0  0  1  0  0  0  0  0  0
  161.3790  204.5420  145.6780 C   0  0  1  0  0  3  0  0  0  0  0  0
  160.8300  200.7570  147.6550 C   0  0  0  0  0  3  0  0  0  0  0  0
  160.8320  202.1040  145.6370 C   0  0  0  0  0  3  0  0  0  0  0  0
  161.2080  201.8780  148.4010 C   0  0  0  0  0  3  0  0  0  0  0  0
  160.6420  200.8700  146.2730 C   0  0  0  0  0  3  0  0  0  0  0  0
  161.4000  203.1110  147.7660 C   0  0  0  0  0  3  0  0  0  0  0  0
  161.2200  203.2260  146.3770 C   0  0  0  0  0  0  0  0  0  0  0  0
  161.5810  205.4540  143.4540 O   0  0  0  0  0  1  0  0  0  0  0  0
  160.9860  204.4340  144.2020 C   0  0  0  0  0  2  0  0  0  0  0  0
  1  2  1  0  0  0  0
  3 18  1  0  0  0  0
  4 13  1  1  0  0  0
  4 16  1  0  0  0  0
  5  2  1  1  0  0  0
  5 14  1  0  0  0  0
  6  8  1  1  0  0  0
  7 18  2  0  0  0  0
  9  7  1  6  0  0  0
  9 15  1  0  0  0  0
 10  6  1  0  0  0  0
 11 12  1  6  0  0  0
 11 22  1  0  0  0  0
 11 17  1  0  0  0  0
 14  9  1  0  0  0  0
 14 21  1  1  0  0  0
 15 20  1  0  0  0  0
 15 26  1  1  0  0  0
 16  7  1  0  0  0  0
 17 13  1  6  0  0  0
 17  6  1  0  0  0  0
 17  5  1  0  0  0  0
 19 25  1  6  0  0  0
 19  4  1  0  0  0  0
 19  3  1  0  0  0  0
 21 20  1  0  0  0  0
 22 10  1  1  0  0  0
 22  1  1  0  0  0  0
 23 25  2  0  0  0  0
 24 25  1  0  0  0  0
 27 31  1  0  0  0  0
 27 28  1  1  0  0  0
 27 26  1  0  0  0  0
 29 31  2  0  0  0  0
 31 30  1  0  0  0  0
 32 11  1  0  0  0  0
 33 32  1  0  0  0  0
 34 33  1  0  0  0  0
 35 36  1  6  0  0  0
 35 34  1  0  0  0  0
 37 45  1  6  0  0  0
 37 43  1  0  0  0  0
 37 35  1  0  0  0  0
 38 40  1  0  0  0  0
 39 41  1  0  0  0  0
 39 43  2  0  0  0  0
 41 38  2  0  0  0  0
 42 40  2  0  0  0  0
 43 42  1  0  0  0  0
 44 45  1  0  0  0  0
M  END
>  <MODEL>
4

>  <REMARK>
 VINA RESULT:      -3.6      2.374      4.274
  Name = 
  11 active torsions:
  status: ('A' for Active; 'I' for Inactive)
    1  A    between atoms: C_4  and  C_5
    2  A    between atoms: C_4  and  N_40
    3  A    between atoms: C_5  and  C_31
    4  A    between atoms: C_5  and  C_45
    5  A    between atoms: C_7  and  C_15
    6  A    between atoms: C_7  and  C_29
    7  A    between atoms: C_15  and  C_44
    8  A    between atoms: C_19  and  C_24
    9  A    between atoms: C_19  and  C_34
   10  A    between atoms: C_34  and  N_40
   11  A    between atoms: C_37  and  C_38
                            x       y       z     vdW  Elec       q    Type
                         _______ _______ _______ _____ _____    ______ ____

>  <TORSDO>
F 11

$$$$
