=
 OpenBabel11052411103D

 44 49  0  0  1  0  0  0  0  0999 V2000
  161.1130  208.8930  148.8130 O   0  0  0  0  0  0  0  0  0  0  0  0
  159.7470  213.3800  144.2020 N   0  0  0  0  0  2  0  0  0  0  0  0
  160.4430  211.8270  147.2290 C   0  0  0  0  0  0  0  0  0  0  0  0
  161.5480  209.7380  147.7860 C   0  0  0  0  0  2  0  0  0  0  0  0
  161.5930  211.8090  149.3610 C   0  0  1  0  0  3  0  0  0  0  0  0
  159.6790  212.1350  144.9600 C   0  0  0  0  0  2  0  0  0  0  0  0
  160.6210  209.0690  151.8150 C   0  0  0  0  0  1  0  0  0  0  0  0
  162.8480  210.1340  151.8820 C   0  0  0  0  0  1  0  0  0  0  0  0
  159.7110  212.5070  146.3890 C   0  0  0  0  0  0  0  0  0  0  0  0
  159.3570  214.4490  145.1190 C   0  0  0  0  0  2  0  0  0  0  0  0
  161.1670  211.1550  148.0820 C   0  0  0  0  0  0  0  0  0  0  0  0
  162.1040  208.9830  149.7990 C   0  0  1  0  0  3  0  0  0  0  0  0
  159.5720  213.9670  146.5410 C   0  0  1  0  0  3  0  0  0  0  0  0
  161.6370  209.8580  150.9890 C   0  0  0  0  0  0  0  0  0  0  0  0
  160.9880  211.1220  150.5220 N   0  0  0  0  0  0  0  0  0  0  0  0
  158.1000  213.1840  148.3810 C   0  0  0  0  0  2  0  0  0  0  0  0
  158.3590  214.3060  147.3930 C   0  0  0  0  0  3  0  0  0  0  0  0
  158.7860  214.4530  148.8420 C   0  0  0  0  0  2  0  0  0  0  0  0
  163.1110  211.9730  149.4360 C   0  0  0  0  0  2  0  0  0  0  0  0
  163.6000  212.6320  148.2360 N   0  0  0  0  0  1  0  0  0  0  0  0
  160.7900  212.1000  151.5920 C   0  0  0  0  0  2  0  0  0  0  0  0
  159.3220  212.4710  151.6960 C   0  0  0  0  0  2  0  0  0  0  0  0
  158.6130  211.5910  152.7140 C   0  0  0  0  0  2  0  0  0  0  0  0
  156.9350  213.2760  153.9080 C   0  0  0  0  0  2  0  0  0  0  0  0
  158.3140  213.8640  153.6890 C   0  0  0  0  0  2  0  0  0  0  0  0
  158.1620  212.3780  153.9420 C   0  0  0  0  0  0  0  0  0  0  0  0
  158.7230  212.0440  155.1840 O   0  0  0  0  0  0  0  0  0  0  0  0
  159.3090  210.7790  155.0410 C   0  0  0  0  0  2  0  0  0  0  0  0
  160.6330  210.8120  155.5480 O   0  0  0  0  0  0  0  0  0  0  0  0
  161.4620  208.6850  155.9260 O   0  0  0  0  0  0  0  0  0  0  0  0
  161.1290  209.8110  156.3820 C   0  0  0  0  0  3  0  0  0  0  0  0
  162.5890  207.5900  150.2060 C   0  0  0  0  0  2  0  0  0  0  0  0
  162.5410  205.9080  146.8390 C   0  0  0  0  0  3  0  0  0  0  0  0
  161.1280  204.6140  148.3040 C   0  0  0  0  0  3  0  0  0  0  0  0
  161.3950  205.4770  149.3710 C   0  0  0  0  0  0  0  0  0  0  0  0
  162.8160  206.7850  147.8870 C   0  0  0  0  0  3  0  0  0  0  0  0
  162.2520  206.5890  149.1510 C   0  0  0  0  0  0  0  0  0  0  0  0
  161.6950  204.8180  147.0400 C   0  0  0  0  0  0  0  0  0  0  0  0
  160.9250  202.6380  146.1590 C   0  0  0  0  0  1  0  0  0  0  0  0
  161.4380  203.9520  145.9720 O   0  0  0  0  0  0  0  0  0  0  0  0
  160.7950  205.1600  150.6030 O   0  0  0  0  0  0  0  0  0  0  0  0
  161.6990  203.1230  151.4740 C   0  0  0  0  0  2  0  0  0  0  0  0
  160.4430  203.8570  151.0430 C   0  0  0  0  0  3  0  0  0  0  0  0
  160.7740  203.7160  152.5170 C   0  0  0  0  0  2  0  0  0  0  0  0
  1 12  1  0  0  0  0
  2  6  1  0  0  0  0
  2 10  1  0  0  0  0
  3 11  2  0  0  0  0
  4 11  1  0  0  0  0
  4  1  1  0  0  0  0
  5 19  1  1  0  0  0
  5 15  1  0  0  0  0
  6  9  1  0  0  0  0
  9 13  1  0  0  0  0
  9  3  2  0  0  0  0
 10 13  1  0  0  0  0
 11  5  1  0  0  0  0
 12 32  1  1  0  0  0
 12 14  1  0  0  0  0
 13 17  1  1  0  0  0
 14  7  1  0  0  0  0
 14  8  1  0  0  0  0
 15 14  1  0  0  0  0
 15 21  1  0  0  0  0
 16 18  1  0  0  0  0
 17 16  1  0  0  0  0
 17 18  1  0  0  0  0
 20 19  1  0  0  0  0
 21 22  1  0  0  0  0
 22 23  1  0  0  0  0
 23 26  1  0  0  0  0
 24 26  1  0  0  0  0
 25 24  1  0  0  0  0
 25 26  1  0  0  0  0
 26 27  1  0  0  0  0
 28 27  1  0  0  0  0
 28 29  1  0  0  0  0
 29 31  1  0  0  0  0
 30 31  2  0  0  0  0
 33 38  2  0  0  0  0
 33 36  1  0  0  0  0
 34 35  2  0  0  0  0
 35 41  1  0  0  0  0
 36 37  2  0  0  0  0
 37 35  1  0  0  0  0
 37 32  1  0  0  0  0
 38 34  1  0  0  0  0
 40 39  1  0  0  0  0
 40 38  1  0  0  0  0
 41 43  1  0  0  0  0
 42 44  1  0  0  0  0
 43 42  1  0  0  0  0
 43 44  1  0  0  0  0
M  END
>  <MODEL>
1

>  <REMARK>
 VINA RESULT:      -3.2      0.000      0.000
  Name = 
  15 active torsions:
  status: ('A' for Active; 'I' for Inactive)
    1  A    between atoms: O_5  and  C_23
    2  A    between atoms: O_5  and  C_35
    3  A    between atoms: O_7  and  C_35
    4  A    between atoms: O_7  and  C_41
    5  A    between atoms: C_11  and  C_19
    6  A    between atoms: C_11  and  N_42
    7  A    between atoms: C_12  and  C_36
    8  A    between atoms: C_14  and  C_18
    9  A    between atoms: C_16  and  C_19
   10  A    between atoms: C_16  and  C_23
   11  A    between atoms: C_21  and  C_32
   12  A    between atoms: C_21  and  C_34
   13  A    between atoms: O_25  and  C_38
   14  A    between atoms: C_29  and  O_43
   15  A    between atoms: C_33  and  O_43
                            x       y       z     vdW  Elec       q    Type
                         _______ _______ _______ _____ _____    ______ ____

>  <TORSDO>
F 15

$$$$
=
 OpenBabel11052411103D

 44 49  0  0  1  0  0  0  0  0999 V2000
  161.6360  207.6690  149.2830 O   0  0  0  0  0  0  0  0  0  0  0  0
  162.1910  213.8080  146.9900 N   0  0  0  0  0  2  0  0  0  0  0  0
  161.5980  211.0600  149.0280 C   0  0  0  0  0  0  0  0  0  0  0  0
  162.4350  208.7820  148.9950 C   0  0  0  0  0  2  0  0  0  0  0  0
  161.7400  209.9860  151.1950 C   0  0  1  0  0  3  0  0  0  0  0  0
  161.8520  212.3900  147.0300 C   0  0  0  0  0  2  0  0  0  0  0  0
  159.9180  206.6710  151.5930 C   0  0  0  0  0  1  0  0  0  0  0  0
  161.8710  207.2490  152.9900 C   0  0  0  0  0  1  0  0  0  0  0  0
  161.2650  212.1320  148.3600 C   0  0  0  0  0  0  0  0  0  0  0  0
  161.4150  214.4530  148.0480 C   0  0  0  0  0  2  0  0  0  0  0  0
  161.9160  209.9920  149.7070 C   0  0  0  0  0  0  0  0  0  0  0  0
  162.1150  207.1890  150.5090 C   0  0  1  0  0  3  0  0  0  0  0  0
  161.0260  213.4020  149.0700 C   0  0  1  0  0  3  0  0  0  0  0  0
  161.1600  207.5590  151.6720 C   0  0  0  0  0  0  0  0  0  0  0  0
  160.7270  208.9880  151.5940 N   0  0  0  0  0  0  0  0  0  0  0  0
  158.8700  214.4520  148.4240 C   0  0  0  0  0  2  0  0  0  0  0  0
  159.5560  213.5470  149.4310 C   0  0  0  0  0  3  0  0  0  0  0  0
  158.7050  212.9500  148.3260 C   0  0  0  0  0  2  0  0  0  0  0  0
  163.0790  209.8640  151.9240 C   0  0  0  0  0  2  0  0  0  0  0  0
  162.9910  210.4880  153.2330 N   0  0  0  0  0  1  0  0  0  0  0  0
  160.0620  209.4580  152.8100 C   0  0  0  0  0  2  0  0  0  0  0  0
  159.5980  210.8920  152.6330 C   0  0  0  0  0  2  0  0  0  0  0  0
  158.4770  211.2220  153.6060 C   0  0  0  0  0  2  0  0  0  0  0  0
  157.8500  213.5980  152.5860 C   0  0  0  0  0  2  0  0  0  0  0  0
  159.3130  213.4760  152.9570 C   0  0  0  0  0  2  0  0  0  0  0  0
  158.2710  212.7270  153.7600 C   0  0  0  0  0  0  0  0  0  0  0  0
  158.1950  213.2550  155.0570 O   0  0  0  0  0  0  0  0  0  0  0  0
  158.3230  212.1780  155.9450 C   0  0  0  0  0  2  0  0  0  0  0  0
  157.5610  212.4350  157.1140 O   0  0  0  0  0  0  0  0  0  0  0  0
  155.3350  211.8230  156.9570 O   0  0  0  0  0  0  0  0  0  0  0  0
  156.2000  212.7330  157.0570 C   0  0  0  0  0  3  0  0  0  0  0  0
  162.4300  205.6940  150.4170 C   0  0  0  0  0  2  0  0  0  0  0  0
  162.1980  205.5280  146.6640 C   0  0  0  0  0  3  0  0  0  0  0  0
  161.0890  203.5710  147.5340 C   0  0  0  0  0  3  0  0  0  0  0  0
  161.3780  203.9570  148.8480 C   0  0  0  0  0  0  0  0  0  0  0  0
  162.4910  205.9350  147.9650 C   0  0  0  0  0  3  0  0  0  0  0  0
  162.0880  205.1690  149.0620 C   0  0  0  0  0  0  0  0  0  0  0  0
  161.4950  204.3460  146.4400 C   0  0  0  0  0  0  0  0  0  0  0  0
  161.1000  204.8940  144.0600 C   0  0  0  0  0  1  0  0  0  0  0  0
  161.2170  203.9580  145.1250 O   0  0  0  0  0  0  0  0  0  0  0  0
  160.9480  203.0900  149.8680 O   0  0  0  0  0  0  0  0  0  0  0  0
  160.7380  201.1540  148.4760 C   0  0  0  0  0  2  0  0  0  0  0  0
  160.1980  201.8990  149.6820 C   0  0  0  0  0  3  0  0  0  0  0  0
  161.1040  200.6970  149.8730 C   0  0  0  0  0  2  0  0  0  0  0  0
  1 12  1  0  0  0  0
  2  6  1  0  0  0  0
  2 10  1  0  0  0  0
  3 11  2  0  0  0  0
  4  1  1  0  0  0  0
  4 11  1  0  0  0  0
  5 15  1  0  0  0  0
  5 19  1  1  0  0  0
  6  9  1  0  0  0  0
  7 14  1  0  0  0  0
  9  3  2  0  0  0  0
  9 13  1  0  0  0  0
 10 13  1  0  0  0  0
 11  5  1  0  0  0  0
 12 32  1  6  0  0  0
 12 14  1  0  0  0  0
 13 17  1  6  0  0  0
 14  8  1  0  0  0  0
 15 14  1  0  0  0  0
 15 21  1  0  0  0  0
 16 17  1  0  0  0  0
 18 16  1  0  0  0  0
 18 17  1  0  0  0  0
 19 20  1  0  0  0  0
 22 21  1  0  0  0  0
 22 23  1  0  0  0  0
 23 26  1  0  0  0  0
 24 25  1  0  0  0  0
 24 26  1  0  0  0  0
 25 26  1  0  0  0  0
 26 27  1  0  0  0  0
 27 28  1  0  0  0  0
 28 29  1  0  0  0  0
 30 31  2  0  0  0  0
 31 29  1  0  0  0  0
 33 36  1  0  0  0  0
 34 35  2  0  0  0  0
 35 37  1  0  0  0  0
 35 41  1  0  0  0  0
 36 37  2  0  0  0  0
 37 32  1  0  0  0  0
 38 33  2  0  0  0  0
 38 34  1  0  0  0  0
 39 40  1  0  0  0  0
 40 38  1  0  0  0  0
 42 43  1  0  0  0  0
 42 44  1  0  0  0  0
 43 41  1  0  0  0  0
 43 44  1  0  0  0  0
M  END
>  <MODEL>
2

>  <REMARK>
 VINA RESULT:      -1.6      2.022      2.775
  Name = 
  15 active torsions:
  status: ('A' for Active; 'I' for Inactive)
    1  A    between atoms: O_5  and  C_23
    2  A    between atoms: O_5  and  C_35
    3  A    between atoms: O_7  and  C_35
    4  A    between atoms: O_7  and  C_41
    5  A    between atoms: C_11  and  C_19
    6  A    between atoms: C_11  and  N_42
    7  A    between atoms: C_12  and  C_36
    8  A    between atoms: C_14  and  C_18
    9  A    between atoms: C_16  and  C_19
   10  A    between atoms: C_16  and  C_23
   11  A    between atoms: C_21  and  C_32
   12  A    between atoms: C_21  and  C_34
   13  A    between atoms: O_25  and  C_38
   14  A    between atoms: C_29  and  O_43
   15  A    between atoms: C_33  and  O_43
                            x       y       z     vdW  Elec       q    Type
                         _______ _______ _______ _____ _____    ______ ____

>  <TORSDO>
F 15

$$$$
=
 OpenBabel11052411103D

 44 49  0  0  1  0  0  0  0  0999 V2000
  160.1810  211.9320  150.6670 O   0  0  0  0  0  0  0  0  0  0  0  0
  162.4020  205.7710  150.0700 N   0  0  0  0  0  2  0  0  0  0  0  0
  161.5110  209.0630  149.4170 C   0  0  0  0  0  0  0  0  0  0  0  0
  161.2040  210.9950  150.8540 C   0  0  0  0  0  2  0  0  0  0  0  0
  161.9920  211.2000  148.3820 C   0  0  1  0  0  3  0  0  0  0  0  0
  161.5300  206.8780  150.4440 C   0  0  0  0  0  2  0  0  0  0  0  0
  159.2260  213.8110  148.4660 C   0  0  0  0  0  1  0  0  0  0  0  0
  161.6050  214.4530  148.3020 C   0  0  0  0  0  1  0  0  0  0  0  0
  161.4460  207.7680  149.2680 C   0  0  0  0  0  0  0  0  0  0  0  0
  162.4470  205.7500  148.6090 C   0  0  0  0  0  2  0  0  0  0  0  0
  161.5710  210.3600  149.5490 C   0  0  0  0  0  0  0  0  0  0  0  0
  160.8340  213.1000  150.2500 C   0  0  1  0  0  3  0  0  0  0  0  0
  162.0660  207.1250  148.0940 C   0  0  1  0  0  3  0  0  0  0  0  0
  160.6540  213.3330  148.7280 C   0  0  0  0  0  0  0  0  0  0  0  0
  160.8850  212.0770  147.9490 N   0  0  0  0  0  0  0  0  0  0  0  0
  161.6340  206.1030  145.8730 C   0  0  0  0  0  2  0  0  0  0  0  0
  161.0640  206.9960  146.9590 C   0  0  0  0  0  3  0  0  0  0  0  0
  160.6130  205.5510  146.8470 C   0  0  0  0  0  2  0  0  0  0  0  0
  163.3120  211.9230  148.6500 C   0  0  0  0  0  2  0  0  0  0  0  0
  163.9880  212.2060  147.3950 N   0  0  0  0  0  1  0  0  0  0  0  0
  161.0060  212.3050  146.5080 C   0  0  0  0  0  2  0  0  0  0  0  0
  159.7260  211.8950  145.8030 C   0  0  0  0  0  2  0  0  0  0  0  0
  159.4070  212.8490  144.6620 C   0  0  0  0  0  2  0  0  0  0  0  0
  161.4730  214.2540  143.7480 C   0  0  0  0  0  2  0  0  0  0  0  0
  160.3240  214.1750  142.7640 C   0  0  0  0  0  2  0  0  0  0  0  0
  160.5860  213.0190  143.7070 C   0  0  0  0  0  0  0  0  0  0  0  0
  161.0170  211.8980  142.9820 O   0  0  0  0  0  0  0  0  0  0  0  0
  160.1760  211.7860  141.8670 C   0  0  0  0  0  2  0  0  0  0  0  0
  160.9320  211.9810  140.6820 O   0  0  0  0  0  0  0  0  0  0  0  0
  162.6650  210.4790  140.3720 O   0  0  0  0  0  0  0  0  0  0  0  0
  161.5420  210.9220  140.0120 C   0  0  0  0  0  3  0  0  0  0  0  0
  160.4130  214.2910  151.1130 C   0  0  0  0  0  2  0  0  0  0  0  0
  156.7020  214.2470  151.7410 C   0  0  0  0  0  3  0  0  0  0  0  0
  157.7550  213.1470  153.6110 C   0  0  0  0  0  3  0  0  0  0  0  0
  159.0210  213.3360  153.0460 C   0  0  0  0  0  0  0  0  0  0  0  0
  157.9550  214.4520  151.1620 C   0  0  0  0  0  3  0  0  0  0  0  0
  159.1180  214.0100  151.7990 C   0  0  0  0  0  0  0  0  0  0  0  0
  156.5950  213.5950  152.9670 C   0  0  0  0  0  0  0  0  0  0  0  0
  155.1360  213.0310  154.8850 C   0  0  0  0  0  1  0  0  0  0  0  0
  155.3260  213.3990  153.5240 O   0  0  0  0  0  0  0  0  0  0  0  0
  160.1150  212.8200  153.7640 O   0  0  0  0  0  0  0  0  0  0  0  0
  159.8740  210.5990  154.6210 C   0  0  0  0  0  2  0  0  0  0  0  0
  160.0370  212.0670  154.9650 C   0  0  0  0  0  3  0  0  0  0  0  0
  161.2260  211.1290  155.0500 C   0  0  0  0  0  2  0  0  0  0  0  0
  1  4  1  0  0  0  0
  2  6  1  0  0  0  0
  3 11  2  0  0  0  0
  5 19  1  1  0  0  0
  5 11  1  0  0  0  0
  7 14  1  0  0  0  0
  8 14  1  0  0  0  0
  9  3  2  0  0  0  0
  9  6  1  0  0  0  0
 10  2  1  0  0  0  0
 11  4  1  0  0  0  0
 12  1  1  0  0  0  0
 12 32  1  1  0  0  0
 13 17  1  6  0  0  0
 13 10  1  0  0  0  0
 13  9  1  0  0  0  0
 14 12  1  0  0  0  0
 15  5  1  0  0  0  0
 15 14  1  0  0  0  0
 16 18  1  0  0  0  0
 16 17  1  0  0  0  0
 18 17  1  0  0  0  0
 20 19  1  0  0  0  0
 21 15  1  0  0  0  0
 22 21  1  0  0  0  0
 23 22  1  0  0  0  0
 25 26  1  0  0  0  0
 25 24  1  0  0  0  0
 26 24  1  0  0  0  0
 26 23  1  0  0  0  0
 27 26  1  0  0  0  0
 28 27  1  0  0  0  0
 29 28  1  0  0  0  0
 31 30  2  0  0  0  0
 31 29  1  0  0  0  0
 32 37  1  0  0  0  0
 33 38  1  0  0  0  0
 35 34  1  0  0  0  0
 35 41  1  0  0  0  0
 36 33  2  0  0  0  0
 36 37  1  0  0  0  0
 37 35  2  0  0  0  0
 38 40  1  0  0  0  0
 38 34  2  0  0  0  0
 40 39  1  0  0  0  0
 41 43  1  0  0  0  0
 42 43  1  0  0  0  0
 42 44  1  0  0  0  0
 43 44  1  0  0  0  0
M  END
>  <MODEL>
3

>  <REMARK>
 VINA RESULT:      -1.4      2.981      9.089
  Name = 
  15 active torsions:
  status: ('A' for Active; 'I' for Inactive)
    1  A    between atoms: O_5  and  C_23
    2  A    between atoms: O_5  and  C_35
    3  A    between atoms: O_7  and  C_35
    4  A    between atoms: O_7  and  C_41
    5  A    between atoms: C_11  and  C_19
    6  A    between atoms: C_11  and  N_42
    7  A    between atoms: C_12  and  C_36
    8  A    between atoms: C_14  and  C_18
    9  A    between atoms: C_16  and  C_19
   10  A    between atoms: C_16  and  C_23
   11  A    between atoms: C_21  and  C_32
   12  A    between atoms: C_21  and  C_34
   13  A    between atoms: O_25  and  C_38
   14  A    between atoms: C_29  and  O_43
   15  A    between atoms: C_33  and  O_43
                            x       y       z     vdW  Elec       q    Type
                         _______ _______ _______ _____ _____    ______ ____

>  <TORSDO>
F 15

$$$$
=
 OpenBabel11052411103D

 44 49  0  0  1  0  0  0  0  0999 V2000
  161.7520  207.5810  148.4760 O   0  0  0  0  0  0  0  0  0  0  0  0
  161.8220  214.0260  147.1720 N   0  0  0  0  0  2  0  0  0  0  0  0
  161.4730  210.9580  148.7590 C   0  0  0  0  0  0  0  0  0  0  0  0
  162.4650  208.7790  148.3550 C   0  0  0  0  0  2  0  0  0  0  0  0
  161.7460  209.5720  150.7270 C   0  0  1  0  0  3  0  0  0  0  0  0
  161.5830  212.5990  146.9920 C   0  0  0  0  0  2  0  0  0  0  0  0
  160.1690  206.1120  150.6250 C   0  0  0  0  0  1  0  0  0  0  0  0
  162.1130  206.6040  152.0660 C   0  0  0  0  0  1  0  0  0  0  0  0
  161.0500  212.0940  148.2740 C   0  0  0  0  0  0  0  0  0  0  0  0
  161.0310  214.4400  148.3290 C   0  0  0  0  0  2  0  0  0  0  0  0
  161.8820  209.8230  149.2570 C   0  0  0  0  0  0  0  0  0  0  0  0
  162.2950  206.9500  149.6030 C   0  0  1  0  0  3  0  0  0  0  0  0
  160.7420  213.2170  149.1790 C   0  0  1  0  0  3  0  0  0  0  0  0
  161.3480  207.0640  150.8240 C   0  0  0  0  0  0  0  0  0  0  0  0
  160.8140  208.4530  150.9790 N   0  0  0  0  0  0  0  0  0  0  0  0
  159.1600  213.1290  151.0910 C   0  0  0  0  0  2  0  0  0  0  0  0
  159.2760  213.1970  149.5790 C   0  0  0  0  0  3  0  0  0  0  0  0
  158.9540  214.4490  150.3750 C   0  0  0  0  0  2  0  0  0  0  0  0
  163.1090  209.4340  151.4080 C   0  0  0  0  0  2  0  0  0  0  0  0
  163.4230  210.6490  152.1410 N   0  0  0  0  0  1  0  0  0  0  0  0
  160.1500  208.6770  152.2640 C   0  0  0  0  0  2  0  0  0  0  0  0
  160.1900  210.1520  152.6230 C   0  0  0  0  0  2  0  0  0  0  0  0
  158.8430  210.6130  153.1590 C   0  0  0  0  0  2  0  0  0  0  0  0
  158.4580  212.8170  154.6000 C   0  0  0  0  0  2  0  0  0  0  0  0
  159.9160  212.5660  154.2710 C   0  0  0  0  0  2  0  0  0  0  0  0
  158.9780  211.3930  154.4640 C   0  0  0  0  0  0  0  0  0  0  0  0
  159.3290  210.6860  155.6240 O   0  0  0  0  0  0  0  0  0  0  0  0
  160.6010  210.1400  155.4000 C   0  0  0  0  0  2  0  0  0  0  0  0
  160.8670  209.1470  156.3780 O   0  0  0  0  0  0  0  0  0  0  0  0
  160.4560  206.9500  156.9760 O   0  0  0  0  0  0  0  0  0  0  0  0
  160.0170  208.0610  156.5770 C   0  0  0  0  0  3  0  0  0  0  0  0
  162.7100  205.5160  149.2720 C   0  0  0  0  0  2  0  0  0  0  0  0
  161.2970  205.6680  145.7870 C   0  0  0  0  0  3  0  0  0  0  0  0
  160.9540  203.4230  146.5980 C   0  0  0  0  0  3  0  0  0  0  0  0
  161.5740  203.7360  147.8120 C   0  0  0  0  0  0  0  0  0  0  0  0
  161.9130  206.0050  146.9920 C   0  0  0  0  0  3  0  0  0  0  0  0
  162.0550  205.0580  148.0110 C   0  0  0  0  0  0  0  0  0  0  0  0
  160.8130  204.3770  145.5830 C   0  0  0  0  0  0  0  0  0  0  0  0
  159.5580  202.8200  144.1270 C   0  0  0  0  0  1  0  0  0  0  0  0
  160.2030  204.0650  144.3630 O   0  0  0  0  0  0  0  0  0  0  0  0
  161.6870  202.6940  148.7490 O   0  0  0  0  0  0  0  0  0  0  0  0
  161.1520  200.9870  150.3400 C   0  0  0  0  0  2  0  0  0  0  0  0
  160.6160  202.1160  149.4800 C   0  0  0  0  0  3  0  0  0  0  0  0
  160.8430  202.3320  150.9650 C   0  0  0  0  0  2  0  0  0  0  0  0
  1 12  1  0  0  0  0
  2 10  1  0  0  0  0
  3 11  2  0  0  0  0
  4  1  1  0  0  0  0
  4 11  1  0  0  0  0
  5 15  1  0  0  0  0
  5 19  1  6  0  0  0
  6  2  1  0  0  0  0
  6  9  1  0  0  0  0
  7 14  1  0  0  0  0
  9  3  2  0  0  0  0
  9 13  1  0  0  0  0
 10 13  1  0  0  0  0
 11  5  1  0  0  0  0
 12 32  1  6  0  0  0
 12 14  1  0  0  0  0
 13 17  1  6  0  0  0
 14 15  1  0  0  0  0
 14  8  1  0  0  0  0
 15 21  1  0  0  0  0
 17 18  1  0  0  0  0
 17 16  1  0  0  0  0
 18 16  1  0  0  0  0
 19 20  1  0  0  0  0
 21 22  1  0  0  0  0
 22 23  1  0  0  0  0
 23 26  1  0  0  0  0
 25 26  1  0  0  0  0
 25 24  1  0  0  0  0
 26 24  1  0  0  0  0
 26 27  1  0  0  0  0
 28 27  1  0  0  0  0
 28 29  1  0  0  0  0
 29 31  1  0  0  0  0
 31 30  2  0  0  0  0
 33 36  1  0  0  0  0
 34 35  2  0  0  0  0
 35 37  1  0  0  0  0
 35 41  1  0  0  0  0
 36 37  2  0  0  0  0
 37 32  1  0  0  0  0
 38 33  2  0  0  0  0
 38 34  1  0  0  0  0
 39 40  1  0  0  0  0
 40 38  1  0  0  0  0
 41 43  1  0  0  0  0
 42 44  1  0  0  0  0
 43 42  1  0  0  0  0
 43 44  1  0  0  0  0
M  END
>  <MODEL>
4

>  <REMARK>
 VINA RESULT:      -1.3      1.739      2.474
  Name = 
  15 active torsions:
  status: ('A' for Active; 'I' for Inactive)
    1  A    between atoms: O_5  and  C_23
    2  A    between atoms: O_5  and  C_35
    3  A    between atoms: O_7  and  C_35
    4  A    between atoms: O_7  and  C_41
    5  A    between atoms: C_11  and  C_19
    6  A    between atoms: C_11  and  N_42
    7  A    between atoms: C_12  and  C_36
    8  A    between atoms: C_14  and  C_18
    9  A    between atoms: C_16  and  C_19
   10  A    between atoms: C_16  and  C_23
   11  A    between atoms: C_21  and  C_32
   12  A    between atoms: C_21  and  C_34
   13  A    between atoms: O_25  and  C_38
   14  A    between atoms: C_29  and  O_43
   15  A    between atoms: C_33  and  O_43
                            x       y       z     vdW  Elec       q    Type
                         _______ _______ _______ _____ _____    ______ ____

>  <TORSDO>
F 15

$$$$
=
 OpenBabel11052411103D

 44 49  0  0  1  0  0  0  0  0999 V2000
  159.9220  211.8370  151.6300 O   0  0  0  0  0  0  0  0  0  0  0  0
  155.3050  214.4360  155.5260 N   0  0  0  0  0  2  0  0  0  0  0  0
  157.8280  212.4250  154.2450 C   0  0  0  0  0  0  0  0  0  0  0  0
  159.5370  212.8070  152.5630 C   0  0  0  0  0  2  0  0  0  0  0  0
  159.8810  211.1770  154.5620 C   0  0  1  0  0  3  0  0  0  0  0  0
  155.9490  213.9380  154.3160 C   0  0  0  0  0  2  0  0  0  0  0  0
  161.0350  209.0000  151.6640 C   0  0  0  0  0  1  0  0  0  0  0  0
  162.6300  209.8940  153.3240 C   0  0  0  0  0  1  0  0  0  0  0  0
  156.6250  212.6780  154.6850 C   0  0  0  0  0  0  0  0  0  0  0  0
  155.1980  213.3010  156.4410 C   0  0  0  0  0  2  0  0  0  0  0  0
  159.0300  212.1550  153.8120 C   0  0  0  0  0  0  0  0  0  0  0  0
  161.2230  211.4740  152.0040 C   0  0  1  0  0  3  0  0  0  0  0  0
  156.2310  212.2630  156.0440 C   0  0  1  0  0  3  0  0  0  0  0  0
  161.2430  210.0950  152.7100 C   0  0  0  0  0  0  0  0  0  0  0  0
  160.1580  209.9860  153.7340 N   0  0  0  0  0  0  0  0  0  0  0  0
  155.0740  210.5820  154.6290 C   0  0  0  0  0  2  0  0  0  0  0  0
  155.5970  210.8820  156.0210 C   0  0  0  0  0  3  0  0  0  0  0  0
  156.3860  209.9800  155.0900 C   0  0  0  0  0  2  0  0  0  0  0  0
  161.1220  211.8450  155.1560 C   0  0  0  0  0  2  0  0  0  0  0  0
  161.4120  211.2820  156.4640 N   0  0  0  0  0  1  0  0  0  0  0  0
  160.3090  208.8280  154.6160 C   0  0  0  0  0  2  0  0  0  0  0  0
  160.1020  207.5430  153.8340 C   0  0  0  0  0  2  0  0  0  0  0  0
  161.1610  206.5140  154.1950 C   0  0  0  0  0  2  0  0  0  0  0  0
  162.5540  206.1280  151.9610 C   0  0  0  0  0  2  0  0  0  0  0  0
  161.0660  206.2850  151.7170 C   0  0  0  0  0  2  0  0  0  0  0  0
  161.5530  205.6470  153.0010 C   0  0  0  0  0  0  0  0  0  0  0  0
  161.2000  204.2890  153.0250 O   0  0  0  0  0  0  0  0  0  0  0  0
  160.4380  204.0460  151.8740 C   0  0  0  0  0  2  0  0  0  0  0  0
  161.0390  203.0030  151.1220 O   0  0  0  0  0  0  0  0  0  0  0  0
  161.0270  204.1080  149.0890 O   0  0  0  0  0  0  0  0  0  0  0  0
  161.0760  203.0250  149.7290 C   0  0  0  0  0  3  0  0  0  0  0  0
  162.1740  211.5730  150.8100 C   0  0  0  0  0  2  0  0  0  0  0  0
  160.0570  213.6820  148.5210 C   0  0  0  0  0  3  0  0  0  0  0  0
  160.6080  211.6620  147.3230 C   0  0  0  0  0  3  0  0  0  0  0  0
  161.3510  211.1870  148.4090 C   0  0  0  0  0  0  0  0  0  0  0  0
  160.7870  213.2250  149.6180 C   0  0  0  0  0  3  0  0  0  0  0  0
  161.4330  211.9860  149.5820 C   0  0  0  0  0  0  0  0  0  0  0  0
  159.9620  212.9040  147.3680 C   0  0  0  0  0  0  0  0  0  0  0  0
  158.9740  212.6060  145.1200 C   0  0  0  0  0  1  0  0  0  0  0  0
  159.2270  213.3870  146.2810 O   0  0  0  0  0  0  0  0  0  0  0  0
  161.9810  209.9410  148.2440 O   0  0  0  0  0  0  0  0  0  0  0  0
  161.2670  207.6810  147.9130 C   0  0  0  0  0  2  0  0  0  0  0  0
  161.6430  208.7430  148.9280 C   0  0  0  0  0  3  0  0  0  0  0  0
  162.6350  207.6550  148.5620 C   0  0  0  0  0  2  0  0  0  0  0  0
  1 12  1  0  0  0  0
  1  4  1  0  0  0  0
  2 10  1  0  0  0  0
  3  9  2  0  0  0  0
  4 11  1  0  0  0  0
  5 19  1  6  0  0  0
  6  9  1  0  0  0  0
  6  2  1  0  0  0  0
  7 14  1  0  0  0  0
  9 13  1  0  0  0  0
 11  3  2  0  0  0  0
 11  5  1  0  0  0  0
 12 32  1  6  0  0  0
 12 14  1  0  0  0  0
 13 17  1  6  0  0  0
 13 10  1  0  0  0  0
 14  8  1  0  0  0  0
 14 15  1  0  0  0  0
 15  5  1  0  0  0  0
 15 21  1  0  0  0  0
 16 18  1  0  0  0  0
 16 17  1  0  0  0  0
 18 17  1  0  0  0  0
 19 20  1  0  0  0  0
 22 23  1  0  0  0  0
 22 21  1  0  0  0  0
 24 26  1  0  0  0  0
 25 24  1  0  0  0  0
 25 26  1  0  0  0  0
 26 27  1  0  0  0  0
 26 23  1  0  0  0  0
 28 27  1  0  0  0  0
 29 28  1  0  0  0  0
 30 31  2  0  0  0  0
 31 29  1  0  0  0  0
 33 36  1  0  0  0  0
 34 38  1  0  0  0  0
 34 35  2  0  0  0  0
 35 37  1  0  0  0  0
 37 36  2  0  0  0  0
 37 32  1  0  0  0  0
 38 33  2  0  0  0  0
 39 40  1  0  0  0  0
 40 38  1  0  0  0  0
 41 35  1  0  0  0  0
 41 43  1  0  0  0  0
 42 44  1  0  0  0  0
 42 43  1  0  0  0  0
 44 43  1  0  0  0  0
M  END
>  <MODEL>
5

>  <REMARK>
 VINA RESULT:      -1.1      2.731      7.422
  Name = 
  15 active torsions:
  status: ('A' for Active; 'I' for Inactive)
    1  A    between atoms: O_5  and  C_23
    2  A    between atoms: O_5  and  C_35
    3  A    between atoms: O_7  and  C_35
    4  A    between atoms: O_7  and  C_41
    5  A    between atoms: C_11  and  C_19
    6  A    between atoms: C_11  and  N_42
    7  A    between atoms: C_12  and  C_36
    8  A    between atoms: C_14  and  C_18
    9  A    between atoms: C_16  and  C_19
   10  A    between atoms: C_16  and  C_23
   11  A    between atoms: C_21  and  C_32
   12  A    between atoms: C_21  and  C_34
   13  A    between atoms: O_25  and  C_38
   14  A    between atoms: C_29  and  O_43
   15  A    between atoms: C_33  and  O_43
                            x       y       z     vdW  Elec       q    Type
                         _______ _______ _______ _____ _____    ______ ____

>  <TORSDO>
F 15

$$$$
=
 OpenBabel11052411103D

 44 49  0  0  1  0  0  0  0  0999 V2000
  160.0670  211.5130  150.8180 O   0  0  0  0  0  0  0  0  0  0  0  0
  162.6710  205.5990  149.5910 N   0  0  0  0  0  2  0  0  0  0  0  0
  161.5920  208.8860  149.2880 C   0  0  0  0  0  0  0  0  0  0  0  0
  161.1420  210.6220  150.9240 C   0  0  0  0  0  2  0  0  0  0  0  0
  161.9600  211.1510  148.5110 C   0  0  1  0  0  3  0  0  0  0  0  0
  161.7260  206.6040  150.0650 C   0  0  0  0  0  2  0  0  0  0  0  0
  159.0390  213.5680  148.8170 C   0  0  0  0  0  1  0  0  0  0  0  0
  161.3770  214.3630  148.7850 C   0  0  0  0  0  1  0  0  0  0  0  0
  161.6090  207.6140  148.9940 C   0  0  0  0  0  0  0  0  0  0  0  0
  162.7430  205.7460  148.1380 C   0  0  0  0  0  2  0  0  0  0  0  0
  161.5710  210.1610  149.5660 C   0  0  0  0  0  0  0  0  0  0  0  0
  160.6550  212.7570  150.5500 C   0  0  1  0  0  3  0  0  0  0  0  0
  162.2880  207.1460  147.7710 C   0  0  1  0  0  3  0  0  0  0  0  0
  160.4890  213.1490  149.0600 C   0  0  0  0  0  0  0  0  0  0  0  0
  160.8090  212.0050  148.1510 N   0  0  0  0  0  0  0  0  0  0  0  0
  161.6180  205.8710  145.7490 C   0  0  0  0  0  2  0  0  0  0  0  0
  161.3160  207.0870  146.6050 C   0  0  0  0  0  3  0  0  0  0  0  0
  160.4590  205.8400  146.7250 C   0  0  0  0  0  2  0  0  0  0  0  0
  163.2290  211.9150  148.8910 C   0  0  0  0  0  2  0  0  0  0  0  0
  163.9230  212.3530  147.6910 N   0  0  0  0  0  1  0  0  0  0  0  0
  160.9420  212.4010  146.7480 C   0  0  0  0  0  2  0  0  0  0  0  0
  159.7750  211.8650  145.9400 C   0  0  0  0  0  2  0  0  0  0  0  0
  159.1500  212.9660  145.0960 C   0  0  0  0  0  2  0  0  0  0  0  0
  159.2420  212.9630  142.4370 C   0  0  0  0  0  2  0  0  0  0  0  0
  160.0840  211.8700  143.0640 C   0  0  0  0  0  2  0  0  0  0  0  0
  159.9050  213.1880  143.7880 C   0  0  0  0  0  0  0  0  0  0  0  0
  161.1270  213.8770  143.8380 O   0  0  0  0  0  0  0  0  0  0  0  0
  162.0820  213.0550  143.2240 C   0  0  0  0  0  2  0  0  0  0  0  0
  162.7350  213.7800  142.1930 O   0  0  0  0  0  0  0  0  0  0  0  0
  161.8590  213.3130  140.1030 O   0  0  0  0  0  0  0  0  0  0  0  0
  162.8390  213.2860  140.8940 C   0  0  0  0  0  3  0  0  0  0  0  0
  160.1470  213.8160  151.5300 C   0  0  0  0  0  2  0  0  0  0  0  0
  159.5670  212.1890  154.8750 C   0  0  0  0  0  3  0  0  0  0  0  0
  157.4360  212.2890  153.7510 C   0  0  0  0  0  3  0  0  0  0  0  0
  158.0160  212.9180  152.6440 C   0  0  0  0  0  0  0  0  0  0  0  0
  160.1690  212.8090  153.7800 C   0  0  0  0  0  3  0  0  0  0  0  0
  159.4140  213.1740  152.6610 C   0  0  0  0  0  0  0  0  0  0  0  0
  158.1990  211.9250  154.8670 C   0  0  0  0  0  0  0  0  0  0  0  0
  156.6250  211.9350  156.7760 C   0  0  0  0  0  1  0  0  0  0  0  0
  157.6210  211.3050  155.9800 O   0  0  0  0  0  0  0  0  0  0  0  0
  157.1510  213.2660  151.5920 O   0  0  0  0  0  0  0  0  0  0  0  0
  155.2520  214.2480  150.5160 C   0  0  0  0  0  2  0  0  0  0  0  0
  156.3770  214.4530  151.5130 C   0  0  0  0  0  3  0  0  0  0  0  0
  154.9680  214.1700  152.0020 C   0  0  0  0  0  2  0  0  0  0  0  0
  1  4  1  0  0  0  0
  2  6  1  0  0  0  0
  3 11  2  0  0  0  0
  5 19  1  1  0  0  0
  5 11  1  0  0  0  0
  7 14  1  0  0  0  0
  8 14  1  0  0  0  0
  9  3  2  0  0  0  0
  9  6  1  0  0  0  0
 10  2  1  0  0  0  0
 11  4  1  0  0  0  0
 12  1  1  0  0  0  0
 12 32  1  1  0  0  0
 13 17  1  6  0  0  0
 13 10  1  0  0  0  0
 13  9  1  0  0  0  0
 14 12  1  0  0  0  0
 15  5  1  0  0  0  0
 15 14  1  0  0  0  0
 16 17  1  0  0  0  0
 16 18  1  0  0  0  0
 17 18  1  0  0  0  0
 20 19  1  0  0  0  0
 21 15  1  0  0  0  0
 22 21  1  0  0  0  0
 23 22  1  0  0  0  0
 24 25  1  0  0  0  0
 24 26  1  0  0  0  0
 25 26  1  0  0  0  0
 26 27  1  0  0  0  0
 26 23  1  0  0  0  0
 28 27  1  0  0  0  0
 29 28  1  0  0  0  0
 30 31  2  0  0  0  0
 31 29  1  0  0  0  0
 32 37  1  0  0  0  0
 34 38  2  0  0  0  0
 35 37  2  0  0  0  0
 35 34  1  0  0  0  0
 36 33  2  0  0  0  0
 37 36  1  0  0  0  0
 38 33  1  0  0  0  0
 38 40  1  0  0  0  0
 40 39  1  0  0  0  0
 41 35  1  0  0  0  0
 42 43  1  0  0  0  0
 42 44  1  0  0  0  0
 43 41  1  0  0  0  0
 43 44  1  0  0  0  0
M  END
>  <MODEL>
6

>  <REMARK>
 VINA RESULT:      -0.8      3.103      9.175
  Name = 
  15 active torsions:
  status: ('A' for Active; 'I' for Inactive)
    1  A    between atoms: O_5  and  C_23
    2  A    between atoms: O_5  and  C_35
    3  A    between atoms: O_7  and  C_35
    4  A    between atoms: O_7  and  C_41
    5  A    between atoms: C_11  and  C_19
    6  A    between atoms: C_11  and  N_42
    7  A    between atoms: C_12  and  C_36
    8  A    between atoms: C_14  and  C_18
    9  A    between atoms: C_16  and  C_19
   10  A    between atoms: C_16  and  C_23
   11  A    between atoms: C_21  and  C_32
   12  A    between atoms: C_21  and  C_34
   13  A    between atoms: O_25  and  C_38
   14  A    between atoms: C_29  and  O_43
   15  A    between atoms: C_33  and  O_43
                            x       y       z     vdW  Elec       q    Type
                         _______ _______ _______ _____ _____    ______ ____

>  <TORSDO>
F 15

$$$$
=
 OpenBabel11052411103D

 44 49  0  0  1  0  0  0  0  0999 V2000
  158.9420  211.0910  152.3620 O   0  0  0  0  0  0  0  0  0  0  0  0
  161.4740  205.0260  152.6240 N   0  0  0  0  0  2  0  0  0  0  0  0
  160.8340  208.3290  151.7630 C   0  0  0  0  0  0  0  0  0  0  0  0
  159.8040  210.1680  152.9670 C   0  0  0  0  0  2  0  0  0  0  0  0
  161.6380  210.5320  151.1580 C   0  0  1  0  0  3  0  0  0  0  0  0
  160.4770  206.0900  152.5920 C   0  0  0  0  0  2  0  0  0  0  0  0
  159.0310  213.0690  150.0470 C   0  0  0  0  0  1  0  0  0  0  0  0
  161.1810  213.7740  151.0360 C   0  0  0  0  0  1  0  0  0  0  0  0
  160.9060  207.0430  151.5490 C   0  0  0  0  0  0  0  0  0  0  0  0
  162.1930  205.0900  151.3530 C   0  0  0  0  0  2  0  0  0  0  0  0
  160.7650  209.6170  151.9600 C   0  0  0  0  0  0  0  0  0  0  0  0
  159.6580  212.2950  152.3450 C   0  0  1  0  0  3  0  0  0  0  0  0
  162.0300  206.4830  150.7750 C   0  0  1  0  0  3  0  0  0  0  0  0
  160.1950  212.6100  150.9250 C   0  0  0  0  0  0  0  0  0  0  0  0
  160.8190  211.4070  150.2930 N   0  0  0  0  0  0  0  0  0  0  0  0
  161.3080  204.9660  148.9470 C   0  0  0  0  0  2  0  0  0  0  0  0
  161.6760  206.3960  149.3000 C   0  0  0  0  0  3  0  0  0  0  0  0
  160.2180  205.9990  149.1540 C   0  0  0  0  0  2  0  0  0  0  0  0
  162.6480  211.2680  152.0390 C   0  0  0  0  0  2  0  0  0  0  0  0
  163.3170  210.3280  152.9220 N   0  0  0  0  0  1  0  0  0  0  0  0
  161.5850  211.7200  149.0860 C   0  0  0  0  0  2  0  0  0  0  0  0
  160.6980  211.6020  147.8590 C   0  0  0  0  0  2  0  0  0  0  0  0
  160.8720  212.8080  146.9490 C   0  0  0  0  0  2  0  0  0  0  0  0
  158.6970  213.9870  145.9700 C   0  0  0  0  0  2  0  0  0  0  0  0
  158.4240  212.6100  146.5400 C   0  0  0  0  0  2  0  0  0  0  0  0
  159.7650  212.9060  145.9030 C   0  0  0  0  0  0  0  0  0  0  0  0
  159.9070  212.1660  144.7190 O   0  0  0  0  0  0  0  0  0  0  0  0
  161.0880  212.6020  144.1040 C   0  0  0  0  0  2  0  0  0  0  0  0
  160.8650  212.7560  142.7110 O   0  0  0  0  0  0  0  0  0  0  0  0
  160.0280  211.4720  140.9770 O   0  0  0  0  0  0  0  0  0  0  0  0
  160.9330  211.6790  141.8290 C   0  0  0  0  0  3  0  0  0  0  0  0
  158.8300  213.4250  152.9590 C   0  0  0  0  0  2  0  0  0  0  0  0
  155.7480  212.3400  154.8300 C   0  0  0  0  0  3  0  0  0  0  0  0
  157.6190  212.0880  156.3300 C   0  0  0  0  0  3  0  0  0  0  0  0
  158.5060  212.5390  155.3470 C   0  0  0  0  0  0  0  0  0  0  0  0
  156.6130  212.7980  153.8360 C   0  0  0  0  0  3  0  0  0  0  0  0
  157.9860  212.9070  154.0760 C   0  0  0  0  0  0  0  0  0  0  0  0
  156.2450  211.9840  156.0820 C   0  0  0  0  0  0  0  0  0  0  0  0
  154.5090  210.4000  156.8580 C   0  0  0  0  0  1  0  0  0  0  0  0
  155.3570  211.5250  157.0600 O   0  0  0  0  0  0  0  0  0  0  0  0
  159.8680  212.5770  155.6950 O   0  0  0  0  0  0  0  0  0  0  0  0
  160.3830  210.3200  156.3030 C   0  0  0  0  0  2  0  0  0  0  0  0
  160.4900  211.7820  156.6940 C   0  0  0  0  0  3  0  0  0  0  0  0
  161.6860  211.0640  156.0950 C   0  0  0  0  0  2  0  0  0  0  0  0
  1  4  1  0  0  0  0
  3 11  2  0  0  0  0
  5 11  1  0  0  0  0
  5 19  1  1  0  0  0
  6  2  1  0  0  0  0
  7 14  1  0  0  0  0
  9  3  2  0  0  0  0
  9  6  1  0  0  0  0
 10  2  1  0  0  0  0
 11  4  1  0  0  0  0
 12  1  1  0  0  0  0
 12 32  1  6  0  0  0
 13 17  1  6  0  0  0
 13 10  1  0  0  0  0
 13  9  1  0  0  0  0
 14  8  1  0  0  0  0
 14 12  1  0  0  0  0
 15 14  1  0  0  0  0
 15  5  1  0  0  0  0
 16 18  1  0  0  0  0
 16 17  1  0  0  0  0
 18 17  1  0  0  0  0
 19 20  1  0  0  0  0
 21 15  1  0  0  0  0
 22 21  1  0  0  0  0
 23 22  1  0  0  0  0
 24 25  1  0  0  0  0
 26 24  1  0  0  0  0
 26 25  1  0  0  0  0
 26 23  1  0  0  0  0
 27 26  1  0  0  0  0
 28 27  1  0  0  0  0
 29 28  1  0  0  0  0
 30 31  2  0  0  0  0
 31 29  1  0  0  0  0
 32 37  1  0  0  0  0
 33 38  1  0  0  0  0
 35 41  1  0  0  0  0
 35 34  1  0  0  0  0
 36 37  1  0  0  0  0
 36 33  2  0  0  0  0
 37 35  2  0  0  0  0
 38 34  2  0  0  0  0
 38 40  1  0  0  0  0
 39 40  1  0  0  0  0
 41 43  1  0  0  0  0
 42 43  1  0  0  0  0
 44 42  1  0  0  0  0
 44 43  1  0  0  0  0
M  END
>  <MODEL>
7

>  <REMARK>
 VINA RESULT:      -0.7      2.747      9.049
  Name = 
  15 active torsions:
  status: ('A' for Active; 'I' for Inactive)
    1  A    between atoms: O_5  and  C_23
    2  A    between atoms: O_5  and  C_35
    3  A    between atoms: O_7  and  C_35
    4  A    between atoms: O_7  and  C_41
    5  A    between atoms: C_11  and  C_19
    6  A    between atoms: C_11  and  N_42
    7  A    between atoms: C_12  and  C_36
    8  A    between atoms: C_14  and  C_18
    9  A    between atoms: C_16  and  C_19
   10  A    between atoms: C_16  and  C_23
   11  A    between atoms: C_21  and  C_32
   12  A    between atoms: C_21  and  C_34
   13  A    between atoms: O_25  and  C_38
   14  A    between atoms: C_29  and  O_43
   15  A    between atoms: C_33  and  O_43
                            x       y       z     vdW  Elec       q    Type
                         _______ _______ _______ _____ _____    ______ ____

>  <TORSDO>
F 15

$$$$
=
 OpenBabel11052411103D

 44 49  0  0  1  0  0  0  0  0999 V2000
  160.4600  208.3240  152.6920 O   0  0  0  0  0  0  0  0  0  0  0  0
  160.1070  202.2750  150.1340 N   0  0  0  0  0  2  0  0  0  0  0  0
  160.8270  205.6330  150.6450 C   0  0  0  0  0  0  0  0  0  0  0  0
  160.9260  207.0040  152.6460 C   0  0  0  0  0  2  0  0  0  0  0  0
  162.3910  207.4800  150.5490 C   0  0  1  0  0  3  0  0  0  0  0  0
  159.6820  203.5120  150.7790 C   0  0  0  0  0  2  0  0  0  0  0  0
  160.9980  210.9510  151.2460 C   0  0  0  0  0  1  0  0  0  0  0  0
  163.3760  210.4110  151.6360 C   0  0  0  0  0  1  0  0  0  0  0  0
  160.2950  204.6190  150.0180 C   0  0  0  0  0  0  0  0  0  0  0  0
  160.5490  202.6360  148.7890 C   0  0  0  0  0  2  0  0  0  0  0  0
  161.3610  206.6550  151.2560 C   0  0  0  0  0  0  0  0  0  0  0  0
  161.6130  209.1080  152.8260 C   0  0  1  0  0  3  0  0  0  0  0  0
  160.9110  204.1090  148.7790 C   0  0  1  0  0  3  0  0  0  0  0  0
  161.9790  209.8040  151.4910 C   0  0  0  0  0  0  0  0  0  0  0  0
  161.8980  208.8570  150.3360 N   0  0  0  0  0  0  0  0  0  0  0  0
  160.8420  206.1980  147.4380 C   0  0  0  0  0  2  0  0  0  0  0  0
  160.3040  204.7840  147.5600 C   0  0  0  0  0  3  0  0  0  0  0  0
  161.4010  205.0980  146.5590 C   0  0  0  0  0  2  0  0  0  0  0  0
  163.7570  207.3890  151.2320 C   0  0  0  0  0  2  0  0  0  0  0  0
  164.0210  206.0180  151.6350 N   0  0  0  0  0  1  0  0  0  0  0  0
  162.5010  209.3850  149.1120 C   0  0  0  0  0  2  0  0  0  0  0  0
  161.5830  210.4140  148.4770 C   0  0  0  0  0  2  0  0  0  0  0  0
  162.3120  211.7310  148.2640 C   0  0  0  0  0  2  0  0  0  0  0  0
  162.2200  213.2380  146.0730 C   0  0  0  0  0  2  0  0  0  0  0  0
  162.1710  214.0450  147.3540 C   0  0  0  0  0  2  0  0  0  0  0  0
  161.5590  212.6600  147.3160 C   0  0  0  0  0  0  0  0  0  0  0  0
  160.1650  212.7500  147.4460 O   0  0  0  0  0  0  0  0  0  0  0  0
  159.9100  213.5560  148.5640 C   0  0  0  0  0  2  0  0  0  0  0  0
  158.6130  214.1200  148.4540 O   0  0  0  0  0  0  0  0  0  0  0  0
  156.7100  213.1890  149.3850 O   0  0  0  0  0  0  0  0  0  0  0  0
  157.4670  213.3290  148.3880 C   0  0  0  0  0  3  0  0  0  0  0  0
  161.4790  210.0680  154.0090 C   0  0  0  0  0  2  0  0  0  0  0  0
  157.9450  211.2080  153.3890 C   0  0  0  0  0  3  0  0  0  0  0  0
  158.0740  210.5030  155.6920 C   0  0  0  0  0  3  0  0  0  0  0  0
  159.4230  210.1650  155.5430 C   0  0  0  0  0  0  0  0  0  0  0  0
  159.2910  210.8840  153.2200 C   0  0  0  0  0  3  0  0  0  0  0  0
  160.0420  210.3680  154.2800 C   0  0  0  0  0  0  0  0  0  0  0  0
  157.3290  211.0210  154.6250 C   0  0  0  0  0  0  0  0  0  0  0  0
  155.5290  212.3880  155.6320 C   0  0  0  0  0  1  0  0  0  0  0  0
  155.9770  211.3520  154.7670 O   0  0  0  0  0  0  0  0  0  0  0  0
  160.0660  209.6260  156.6720 O   0  0  0  0  0  0  0  0  0  0  0  0
  159.8890  207.3170  156.0660 C   0  0  0  0  0  2  0  0  0  0  0  0
  159.8600  208.3240  157.2000 C   0  0  0  0  0  3  0  0  0  0  0  0
  161.0990  207.4810  156.9630 C   0  0  0  0  0  2  0  0  0  0  0  0
  1 12  1  0  0  0  0
  2  6  1  0  0  0  0
  3 11  2  0  0  0  0
  4  1  1  0  0  0  0
  5 19  1  1  0  0  0
  5 11  1  0  0  0  0
  7 14  1  0  0  0  0
  9  3  2  0  0  0  0
  9  6  1  0  0  0  0
 10  2  1  0  0  0  0
 11  4  1  0  0  0  0
 12 32  1  1  0  0  0
 13 17  1  6  0  0  0
 13 10  1  0  0  0  0
 13  9  1  0  0  0  0
 14  8  1  0  0  0  0
 14 12  1  0  0  0  0
 15  5  1  0  0  0  0
 15 14  1  0  0  0  0
 16 17  1  0  0  0  0
 18 16  1  0  0  0  0
 18 17  1  0  0  0  0
 19 20  1  0  0  0  0
 21 15  1  0  0  0  0
 22 21  1  0  0  0  0
 23 22  1  0  0  0  0
 24 26  1  0  0  0  0
 24 25  1  0  0  0  0
 26 25  1  0  0  0  0
 26 27  1  0  0  0  0
 26 23  1  0  0  0  0
 27 28  1  0  0  0  0
 29 28  1  0  0  0  0
 31 29  1  0  0  0  0
 31 30  2  0  0  0  0
 32 37  1  0  0  0  0
 33 38  1  0  0  0  0
 35 34  1  0  0  0  0
 35 41  1  0  0  0  0
 36 33  2  0  0  0  0
 36 37  1  0  0  0  0
 37 35  2  0  0  0  0
 38 40  1  0  0  0  0
 38 34  2  0  0  0  0
 40 39  1  0  0  0  0
 41 43  1  0  0  0  0
 42 44  1  0  0  0  0
 42 43  1  0  0  0  0
 44 43  1  0  0  0  0
M  END
>  <MODEL>
8

>  <REMARK>
 VINA RESULT:      -0.7      2.713      7.957
  Name = 
  15 active torsions:
  status: ('A' for Active; 'I' for Inactive)
    1  A    between atoms: O_5  and  C_23
    2  A    between atoms: O_5  and  C_35
    3  A    between atoms: O_7  and  C_35
    4  A    between atoms: O_7  and  C_41
    5  A    between atoms: C_11  and  C_19
    6  A    between atoms: C_11  and  N_42
    7  A    between atoms: C_12  and  C_36
    8  A    between atoms: C_14  and  C_18
    9  A    between atoms: C_16  and  C_19
   10  A    between atoms: C_16  and  C_23
   11  A    between atoms: C_21  and  C_32
   12  A    between atoms: C_21  and  C_34
   13  A    between atoms: O_25  and  C_38
   14  A    between atoms: C_29  and  O_43
   15  A    between atoms: C_33  and  O_43
                            x       y       z     vdW  Elec       q    Type
                         _______ _______ _______ _____ _____    ______ ____

>  <TORSDO>
F 15

$$$$
=
 OpenBabel11052411103D

 44 49  0  0  1  0  0  0  0  0999 V2000
  160.4530  208.2920  152.5910 O   0  0  0  0  0  0  0  0  0  0  0  0
  160.1420  202.3190  149.8550 N   0  0  0  0  0  2  0  0  0  0  0  0
  160.8380  205.6660  150.4640 C   0  0  0  0  0  0  0  0  0  0  0  0
  160.9280  206.9780  152.5050 C   0  0  0  0  0  2  0  0  0  0  0  0
  162.3880  207.5260  150.4220 C   0  0  1  0  0  3  0  0  0  0  0  0
  159.7090  203.5330  150.5360 C   0  0  0  0  0  2  0  0  0  0  0  0
  160.9700  210.9640  151.2220 C   0  0  0  0  0  1  0  0  0  0  0  0
  163.3520  210.4310  151.5940 C   0  0  0  0  0  1  0  0  0  0  0  0
  160.3130  204.6670  149.8070 C   0  0  0  0  0  0  0  0  0  0  0  0
  160.5810  202.7230  148.5200 C   0  0  0  0  0  2  0  0  0  0  0  0
  161.3650  206.6730  151.1050 C   0  0  0  0  0  0  0  0  0  0  0  0
  161.6010  209.0800  152.7460 C   0  0  1  0  0  3  0  0  0  0  0  0
  160.9310  204.1980  148.5530 C   0  0  1  0  0  3  0  0  0  0  0  0
  161.9600  209.8180  151.4320 C   0  0  0  0  0  0  0  0  0  0  0  0
  161.8850  208.9050  150.2500 N   0  0  0  0  0  0  0  0  0  0  0  0
  160.8770  206.3120  147.2510 C   0  0  0  0  0  2  0  0  0  0  0  0
  160.3180  204.9050  147.3550 C   0  0  0  0  0  3  0  0  0  0  0  0
  161.4060  205.2190  146.3450 C   0  0  0  0  0  2  0  0  0  0  0  0
  163.7550  207.4260  151.1010 C   0  0  0  0  0  2  0  0  0  0  0  0
  163.9470  206.0880  151.6360 N   0  0  0  0  0  1  0  0  0  0  0  0
  162.4820  209.4740  149.0410 C   0  0  0  0  0  2  0  0  0  0  0  0
  161.6070  210.5890  148.4990 C   0  0  0  0  0  2  0  0  0  0  0  0
  162.4370  211.8250  148.1890 C   0  0  0  0  0  2  0  0  0  0  0  0
  161.1910  214.1730  148.3030 C   0  0  0  0  0  2  0  0  0  0  0  0
  160.2410  212.9990  148.1830 C   0  0  0  0  0  2  0  0  0  0  0  0
  161.6080  212.9280  147.5350 C   0  0  0  0  0  0  0  0  0  0  0  0
  161.4750  212.9160  146.1390 O   0  0  0  0  0  0  0  0  0  0  0  0
  162.7060  213.3280  145.6090 C   0  0  0  0  0  2  0  0  0  0  0  0
  162.7780  212.9590  144.2410 O   0  0  0  0  0  0  0  0  0  0  0  0
  161.2260  213.5170  142.6170 O   0  0  0  0  0  0  0  0  0  0  0  0
  161.6360  212.7010  143.4850 C   0  0  0  0  0  3  0  0  0  0  0  0
  161.4610  210.0040  153.9580 C   0  0  0  0  0  2  0  0  0  0  0  0
  157.9840  211.2650  153.2570 C   0  0  0  0  0  3  0  0  0  0  0  0
  158.0240  210.5230  155.5510 C   0  0  0  0  0  3  0  0  0  0  0  0
  159.3660  210.1430  155.4350 C   0  0  0  0  0  0  0  0  0  0  0  0
  159.3230  210.9010  153.1200 C   0  0  0  0  0  3  0  0  0  0  0  0
  160.0270  210.3460  154.1930 C   0  0  0  0  0  0  0  0  0  0  0  0
  157.3270  211.0800  154.4710 C   0  0  0  0  0  0  0  0  0  0  0  0
  155.5760  212.7930  154.8200 C   0  0  0  0  0  1  0  0  0  0  0  0
  155.9830  211.4510  154.5810 O   0  0  0  0  0  0  0  0  0  0  0  0
  159.9590  209.5670  156.5720 O   0  0  0  0  0  0  0  0  0  0  0  0
  159.8540  207.2640  155.9320 C   0  0  0  0  0  2  0  0  0  0  0  0
  159.7070  208.2600  157.0660 C   0  0  0  0  0  3  0  0  0  0  0  0
  160.9680  207.4240  156.9450 C   0  0  0  0  0  2  0  0  0  0  0  0
  1 12  1  0  0  0  0
  2  6  1  0  0  0  0
  3 11  2  0  0  0  0
  4  1  1  0  0  0  0
  5 19  1  1  0  0  0
  5 11  1  0  0  0  0
  7 14  1  0  0  0  0
  9  3  2  0  0  0  0
  9  6  1  0  0  0  0
 10 13  1  0  0  0  0
 10  2  1  0  0  0  0
 11  4  1  0  0  0  0
 12 32  1  1  0  0  0
 13 17  1  6  0  0  0
 13  9  1  0  0  0  0
 14  8  1  0  0  0  0
 14 12  1  0  0  0  0
 15  5  1  0  0  0  0
 15 14  1  0  0  0  0
 16 17  1  0  0  0  0
 18 16  1  0  0  0  0
 18 17  1  0  0  0  0
 19 20  1  0  0  0  0
 21 15  1  0  0  0  0
 22 21  1  0  0  0  0
 23 22  1  0  0  0  0
 25 24  1  0  0  0  0
 26 25  1  0  0  0  0
 26 23  1  0  0  0  0
 26 24  1  0  0  0  0
 27 26  1  0  0  0  0
 28 27  1  0  0  0  0
 29 28  1  0  0  0  0
 30 31  2  0  0  0  0
 31 29  1  0  0  0  0
 32 37  1  0  0  0  0
 33 38  1  0  0  0  0
 35 34  1  0  0  0  0
 35 41  1  0  0  0  0
 36 33  2  0  0  0  0
 36 37  1  0  0  0  0
 37 35  2  0  0  0  0
 38 40  1  0  0  0  0
 38 34  2  0  0  0  0
 40 39  1  0  0  0  0
 41 43  1  0  0  0  0
 42 44  1  0  0  0  0
 42 43  1  0  0  0  0
 44 43  1  0  0  0  0
M  END
>  <MODEL>
9

>  <REMARK>
 VINA RESULT:      -0.6      2.871      8.299
  Name = 
  15 active torsions:
  status: ('A' for Active; 'I' for Inactive)
    1  A    between atoms: O_5  and  C_23
    2  A    between atoms: O_5  and  C_35
    3  A    between atoms: O_7  and  C_35
    4  A    between atoms: O_7  and  C_41
    5  A    between atoms: C_11  and  C_19
    6  A    between atoms: C_11  and  N_42
    7  A    between atoms: C_12  and  C_36
    8  A    between atoms: C_14  and  C_18
    9  A    between atoms: C_16  and  C_19
   10  A    between atoms: C_16  and  C_23
   11  A    between atoms: C_21  and  C_32
   12  A    between atoms: C_21  and  C_34
   13  A    between atoms: O_25  and  C_38
   14  A    between atoms: C_29  and  O_43
   15  A    between atoms: C_33  and  O_43
                            x       y       z     vdW  Elec       q    Type
                         _______ _______ _______ _____ _____    ______ ____

>  <TORSDO>
F 15

$$$$
