=
 OpenBabel11052411003D

 37 41  0  0  1  0  0  0  0  0999 V2000
  161.2990  213.4360  149.5530 C   0  0  0  0  0  2  0  0  0  0  0  0
  158.3200  213.6750  147.9920 C   0  0  0  0  0  2  0  0  0  0  0  0
  160.8620  212.2450  156.7380 C   0  0  0  0  0  2  0  0  0  0  0  0
  160.8820  212.9120  147.1140 C   0  0  0  0  0  2  0  0  0  0  0  0
  159.4340  212.4650  156.2410 C   0  0  2  0  0  3  0  0  0  0  0  0
  161.6420  211.0750  154.6270 C   0  0  0  0  0  2  0  0  0  0  0  0
  157.8790  212.2240  150.5090 C   0  0  0  0  0  1  0  0  0  0  0  0
  160.3720  214.3400  146.8790 C   0  0  0  0  0  2  0  0  0  0  0  0
  158.0470  214.1720  152.4440 O   0  0  0  0  0  1  0  0  0  0  0  0
  159.5660  212.2410  153.6900 C   0  0  1  0  0  3  0  0  0  0  0  0
  160.2740  210.9050  153.9800 C   0  0  1  0  0  3  0  0  0  0  0  0
  159.2390  213.9210  151.7540 C   0  0  1  0  0  3  0  0  0  0  0  0
  158.6310  214.3100  149.3480 C   0  0  0  0  0  2  0  0  0  0  0  0
  160.5580  210.6150  151.5510 C   0  0  0  0  0  3  0  0  0  0  0  0
  159.4890  213.1840  154.9000 C   0  0  0  0  0  2  0  0  0  0  0  0
  160.2730  212.5350  150.0920 N   0  0  1  0  0  0  0  0  0  0  0  0
  161.4910  210.9890  156.1410 C   0  0  0  0  0  2  0  0  0  0  0  0
  160.3340  210.0530  152.7430 C   0  0  0  0  0  0  0  0  0  0  0  0
  160.1980  212.9920  152.4950 C   0  0  2  0  0  3  0  0  0  0  0  0
  158.9020  214.4490  146.8950 N   0  0  0  0  0  0  0  0  0  0  0  0
  161.8890  212.8830  148.2570 C   0  0  0  0  0  2  0  0  0  0  0  0
  160.7990  212.0940  151.3870 C   0  0  1  0  0  3  0  0  0  0  0  0
  159.0150  213.2520  150.4030 C   0  0  2  0  0  0  0  0  0  0  0  0
  160.7820  207.9140  153.9590 C   0  0  0  0  0  0  0  0  0  0  0  0
  161.9160  207.0110  153.6340 C   0  0  0  0  0  2  0  0  0  0  0  0
  162.0490  207.0880  152.1610 C   0  0  0  0  0  0  0  0  0  0  0  0
  160.1610  208.3890  156.3800 O   0  0  0  0  0  0  0  0  0  0  0  0
  163.0750  206.7490  151.5890 O   0  0  0  0  0  0  0  0  0  0  0  0
  160.4540  208.1580  155.1990 C   0  0  0  0  0  0  0  0  0  0  0  0
  160.0810  208.5720  152.8040 C   0  0  2  0  0  3  0  0  0  0  0  0
  160.6630  207.7780  151.2650 S   0  0  0  0  0  0  0  0  0  0  0  0
  158.3930  213.8900  145.6510 C   0  0  0  0  0  2  0  0  0  0  0  0
  157.4190  212.7760  145.9500 C   0  0  0  0  0  1  0  0  0  0  0  0
  158.6760  213.3310  157.2310 C   0  0  0  0  0  2  0  0  0  0  0  0
  157.2160  213.0430  157.1680 C   0  0  0  0  0  0  0  0  0  0  0  0
  156.8130  211.8520  157.1100 O   0  0  0  0  0  0  0  0  0  0  0  0
  156.2770  214.1120  157.2060 N   0  0  0  0  0  1  0  0  0  0  0  0
  2 13  1  0  0  0  0
  4 21  1  0  0  0  0
  5  3  1  0  0  0  0
  5 34  1  1  0  0  0
  6 17  1  0  0  0  0
  8 20  1  0  0  0  0
  8  4  1  0  0  0  0
 10 11  1  0  0  0  0
 10 15  1  1  0  0  0
 11  6  1  6  0  0  0
 12  9  1  1  0  0  0
 12 19  1  0  0  0  0
 13 23  1  0  0  0  0
 14 18  2  0  0  0  0
 15  5  1  0  0  0  0
 16  1  1  1  0  0  0
 16 23  1  0  0  0  0
 16 22  1  0  0  0  0
 17  3  1  0  0  0  0
 18 30  1  0  0  0  0
 18 11  1  0  0  0  0
 19 10  1  0  0  0  0
 20  2  1  0  0  0  0
 21  1  1  0  0  0  0
 22 14  1  0  0  0  0
 22 19  1  0  0  0  0
 23  7  1  0  0  0  0
 23 12  1  0  0  0  0
 24 29  2  0  0  0  0
 25 24  1  0  0  0  0
 26 25  1  0  0  0  0
 28 26  2  0  0  0  0
 29 27  2  0  0  0  0
 30 24  1  0  0  0  0
 31 26  1  0  0  0  0
 31 30  1  0  0  0  0
 32 33  1  0  0  0  0
 32 20  1  0  0  0  0
 35 37  1  0  0  0  0
 35 34  1  0  0  0  0
 36 35  2  0  0  0  0
M  END
>  <MODEL>
1

>  <REMARK>
 VINA RESULT:      -2.0      0.000      0.000
  Name = 
  4 active torsions:
  status: ('A' for Active; 'I' for Inactive)
    1  A    between atoms: C_6  and  C_16
    2  A    between atoms: C_7  and  C_16
    3  A    between atoms: C_8  and  N_32
    4  A    between atoms: C_30  and  C_33
                            x       y       z     vdW  Elec       q    Type
                         _______ _______ _______ _____ _____    ______ ____

>  <TORSDO>
F 4

$$$$
=
 OpenBabel11052411003D

 37 41  0  0  1  0  0  0  0  0999 V2000
  159.5670  213.3960  154.6830 C   0  0  0  0  0  2  0  0  0  0  0  0
  157.0940  211.1990  155.3370 C   0  0  0  0  0  2  0  0  0  0  0  0
  163.0930  212.2030  148.4090 C   0  0  0  0  0  2  0  0  0  0  0  0
  157.5370  213.8650  156.1170 C   0  0  0  0  0  2  0  0  0  0  0  0
  162.1230  211.0380  148.5960 C   0  0  2  0  0  3  0  0  0  0  0  0
  161.5650  213.9250  149.4710 C   0  0  0  0  0  2  0  0  0  0  0  0
  157.5910  211.1270  152.4420 C   0  0  0  0  0  1  0  0  0  0  0  0
  157.9120  212.7080  157.0530 C   0  0  0  0  0  2  0  0  0  0  0  0
  159.9710  209.7680  152.2030 O   0  0  0  0  0  1  0  0  0  0  0  0
  160.4950  211.8040  150.4230 C   0  0  1  0  0  3  0  0  0  0  0  0
  160.3150  213.0580  149.5480 C   0  0  1  0  0  3  0  0  0  0  0  0
  160.0620  211.0100  152.8430 C   0  0  1  0  0  3  0  0  0  0  0  0
  158.4590  210.8100  154.7680 C   0  0  0  0  0  2  0  0  0  0  0  0
  158.8090  213.9570  151.2750 C   0  0  0  0  0  3  0  0  0  0  0  0
  161.7280  210.9620  150.0650 C   0  0  0  0  0  2  0  0  0  0  0  0
  158.8280  212.9630  153.4900 N   0  0  1  0  0  0  0  0  0  0  0  0
  162.3680  213.5340  148.2360 C   0  0  0  0  0  2  0  0  0  0  0  0
  159.1070  213.8410  149.9780 C   0  0  0  0  0  0  0  0  0  0  0  0
  160.5270  212.1430  151.9320 C   0  0  2  0  0  3  0  0  0  0  0  0
  157.1720  211.4650  156.7740 N   0  0  0  0  0  0  0  0  0  0  0  0
  158.7820  214.4500  155.4610 C   0  0  0  0  0  2  0  0  0  0  0  0
  159.6710  213.3590  152.3590 C   0  0  1  0  0  3  0  0  0  0  0  0
  158.7280  211.4870  153.4070 C   0  0  2  0  0  0  0  0  0  0  0  0
  156.8380  213.7670  148.9290 C   0  0  0  0  0  0  0  0  0  0  0  0
  156.5240  212.9700  147.7140 C   0  0  0  0  0  2  0  0  0  0  0  0
  157.7430  213.0600  146.8800 C   0  0  0  0  0  0  0  0  0  0  0  0
  155.2060  213.8490  150.8790 O   0  0  0  0  0  0  0  0  0  0  0  0
  157.9690  212.2610  145.9820 O   0  0  0  0  0  0  0  0  0  0  0  0
  156.0030  213.8190  149.9310 C   0  0  0  0  0  0  0  0  0  0  0  0
  158.1740  214.4520  148.9680 C   0  0  2  0  0  3  0  0  0  0  0  0
  158.9100  214.3490  147.3000 S   0  0  0  0  0  0  0  0  0  0  0  0
  155.8100  211.6290  157.2600 C   0  0  0  0  0  2  0  0  0  0  0  0
  154.8570  210.8450  156.3890 C   0  0  0  0  0  1  0  0  0  0  0  0
  162.8020  209.7390  148.2030 C   0  0  0  0  0  2  0  0  0  0  0  0
  162.1170  208.5780  148.8370 C   0  0  0  0  0  0  0  0  0  0  0  0
  161.2110  207.9660  148.2130 O   0  0  0  0  0  0  0  0  0  0  0  0
  162.5090  208.1390  150.1330 N   0  0  0  0  0  1  0  0  0  0  0  0
  1 21  1  0  0  0  0
  2 20  1  0  0  0  0
  3  5  1  0  0  0  0
  4  8  1  0  0  0  0
  5 34  1  1  0  0  0
  5 15  1  0  0  0  0
  7 23  1  0  0  0  0
 10 15  1  6  0  0  0
 10 19  1  0  0  0  0
 11  6  1  1  0  0  0
 11 18  1  0  0  0  0
 11 10  1  0  0  0  0
 12  9  1  6  0  0  0
 12 23  1  0  0  0  0
 13  2  1  0  0  0  0
 14 22  1  0  0  0  0
 16  1  1  1  0  0  0
 17  3  1  0  0  0  0
 17  6  1  0  0  0  0
 18 14  2  0  0  0  0
 19 22  1  0  0  0  0
 19 12  1  0  0  0  0
 20  8  1  0  0  0  0
 20 32  1  0  0  0  0
 21  4  1  0  0  0  0
 22 16  1  0  0  0  0
 23 16  1  0  0  0  0
 23 13  1  0  0  0  0
 24 30  1  0  0  0  0
 24 29  2  0  0  0  0
 25 24  1  0  0  0  0
 26 31  1  0  0  0  0
 26 25  1  0  0  0  0
 28 26  2  0  0  0  0
 29 27  2  0  0  0  0
 30 18  1  0  0  0  0
 31 30  1  0  0  0  0
 33 32  1  0  0  0  0
 34 35  1  0  0  0  0
 35 37  1  0  0  0  0
 36 35  2  0  0  0  0
M  END
>  <MODEL>
2

>  <REMARK>
 VINA RESULT:      -1.8      3.003      7.862
  Name = 
  4 active torsions:
  status: ('A' for Active; 'I' for Inactive)
    1  A    between atoms: C_6  and  C_16
    2  A    between atoms: C_7  and  C_16
    3  A    between atoms: C_8  and  N_32
    4  A    between atoms: C_30  and  C_33
                            x       y       z     vdW  Elec       q    Type
                         _______ _______ _______ _____ _____    ______ ____

>  <TORSDO>
F 4

$$$$
=
 OpenBabel11052411003D

 37 41  0  0  1  0  0  0  0  0999 V2000
  161.9540  213.4810  149.0180 C   0  0  0  0  0  2  0  0  0  0  0  0
  159.2780  213.6740  146.9750 C   0  0  0  0  0  2  0  0  0  0  0  0
  160.3260  212.3060  156.0310 C   0  0  0  0  0  2  0  0  0  0  0  0
  161.9610  212.9440  146.5460 C   0  0  0  0  0  2  0  0  0  0  0  0
  159.0000  212.5040  155.3000 C   0  0  2  0  0  3  0  0  0  0  0  0
  161.4670  211.1400  154.0890 C   0  0  0  0  0  2  0  0  0  0  0  0
  158.4380  212.2250  149.3890 C   0  0  0  0  0  1  0  0  0  0  0  0
  161.4790  214.3640  146.2210 C   0  0  0  0  0  2  0  0  0  0  0  0
  158.2510  214.1810  151.3150 O   0  0  0  0  0  1  0  0  0  0  0  0
  159.5630  212.2750  152.8090 C   0  0  1  0  0  3  0  0  0  0  0  0
  160.2310  210.9500  153.2210 C   0  0  1  0  0  3  0  0  0  0  0  0
  159.5460  213.9440  150.8370 C   0  0  1  0  0  3  0  0  0  0  0  0
  159.3470  214.3180  148.3600 C   0  0  0  0  0  2  0  0  0  0  0  0
  160.9230  210.6560  150.8770 C   0  0  0  0  0  3  0  0  0  0  0  0
  159.2710  213.2200  153.9830 C   0  0  0  0  0  2  0  0  0  0  0  0
  160.8630  212.5670  149.3800 N   0  0  1  0  0  0  0  0  0  0  0  0
  161.0640  211.0570  155.5560 C   0  0  0  0  0  2  0  0  0  0  0  0
  160.5100  210.0950  152.0160 C   0  0  0  0  0  0  0  0  0  0  0  0
  160.3780  213.0310  151.7340 C   0  0  2  0  0  3  0  0  0  0  0  0
  160.0270  214.4520  145.9870 N   0  0  0  0  0  0  0  0  0  0  0  0
  162.7610  212.9330  147.8430 C   0  0  0  0  0  2  0  0  0  0  0  0
  161.1690  212.1380  150.7480 C   0  0  1  0  0  3  0  0  0  0  0  0
  159.5610  213.2680  149.4710 C   0  0  2  0  0  0  0  0  0  0  0  0
  160.9040  207.9440  153.2290 C   0  0  0  0  0  0  0  0  0  0  0  0
  162.0660  207.0560  152.9640 C   0  0  0  0  0  2  0  0  0  0  0  0
  162.2900  207.1560  151.5040 C   0  0  0  0  0  0  0  0  0  0  0  0
  160.1280  208.3780  155.6130 O   0  0  0  0  0  0  0  0  0  0  0  0
  163.3530  206.8350  150.9930 O   0  0  0  0  0  0  0  0  0  0  0  0
  160.4970  208.1670  154.4490 C   0  0  0  0  0  0  0  0  0  0  0  0
  160.2700  208.6100  152.0420 C   0  0  2  0  0  3  0  0  0  0  0  0
  160.9550  207.8440  150.5320 S   0  0  0  0  0  0  0  0  0  0  0  0
  159.7420  213.8830  144.6790 C   0  0  0  0  0  2  0  0  0  0  0  0
  158.8810  212.6520  144.8310 C   0  0  0  0  0  1  0  0  0  0  0  0
  158.0750  213.3630  156.1440 C   0  0  0  0  0  2  0  0  0  0  0  0
  156.6620  212.9140  155.9920 C   0  0  0  0  0  0  0  0  0  0  0  0
  155.7260  213.6220  156.4470 O   0  0  0  0  0  0  0  0  0  0  0  0
  156.3690  211.7030  155.3050 N   0  0  0  0  0  1  0  0  0  0  0  0
  2 13  1  0  0  0  0
  4 21  1  0  0  0  0
  5  3  1  0  0  0  0
  5 34  1  1  0  0  0
  6 17  1  0  0  0  0
  7 23  1  0  0  0  0
  8  4  1  0  0  0  0
 10 11  1  0  0  0  0
 10 15  1  1  0  0  0
 11  6  1  6  0  0  0
 12  9  1  1  0  0  0
 12 19  1  0  0  0  0
 13 23  1  0  0  0  0
 14 18  2  0  0  0  0
 15  5  1  0  0  0  0
 16  1  1  1  0  0  0
 16 23  1  0  0  0  0
 16 22  1  0  0  0  0
 17  3  1  0  0  0  0
 18 30  1  0  0  0  0
 18 11  1  0  0  0  0
 19 10  1  0  0  0  0
 20  8  1  0  0  0  0
 20  2  1  0  0  0  0
 21  1  1  0  0  0  0
 22 14  1  0  0  0  0
 22 19  1  0  0  0  0
 23 12  1  0  0  0  0
 24 29  2  0  0  0  0
 25 24  1  0  0  0  0
 26 25  1  0  0  0  0
 28 26  2  0  0  0  0
 29 27  2  0  0  0  0
 30 24  1  0  0  0  0
 31 26  1  0  0  0  0
 31 30  1  0  0  0  0
 32 33  1  0  0  0  0
 32 20  1  0  0  0  0
 35 34  1  0  0  0  0
 35 36  2  0  0  0  0
 37 35  1  0  0  0  0
M  END
>  <MODEL>
3

>  <REMARK>
 VINA RESULT:      -1.2      1.163      1.179
  Name = 
  4 active torsions:
  status: ('A' for Active; 'I' for Inactive)
    1  A    between atoms: C_6  and  C_16
    2  A    between atoms: C_7  and  C_16
    3  A    between atoms: C_8  and  N_32
    4  A    between atoms: C_30  and  C_33
                            x       y       z     vdW  Elec       q    Type
                         _______ _______ _______ _____ _____    ______ ____

>  <TORSDO>
F 4

$$$$
=
 OpenBabel11052411003D

 37 41  0  0  1  0  0  0  0  0999 V2000
  162.7360  213.4220  147.1240 C   0  0  0  0  0  2  0  0  0  0  0  0
  160.2120  213.0710  144.9160 C   0  0  0  0  0  2  0  0  0  0  0  0
  161.2060  211.0790  153.8620 C   0  0  0  0  0  2  0  0  0  0  0  0
  163.0080  213.1820  144.6210 C   0  0  0  0  0  2  0  0  0  0  0  0
  159.9140  210.9720  153.0560 C   0  0  2  0  0  3  0  0  0  0  0  0
  162.7210  210.5020  151.9110 C   0  0  0  0  0  2  0  0  0  0  0  0
  159.7200  211.1900  147.1180 C   0  0  0  0  0  1  0  0  0  0  0  0
  162.1510  214.4340  144.3930 C   0  0  0  0  0  2  0  0  0  0  0  0
  158.8900  212.7920  149.1960 O   0  0  0  0  0  1  0  0  0  0  0  0
  160.6290  211.1840  150.6030 C   0  0  1  0  0  3  0  0  0  0  0  0
  161.6320  210.0650  150.9400 C   0  0  1  0  0  3  0  0  0  0  0  0
  160.2180  212.9850  148.7960 C   0  0  1  0  0  3  0  0  0  0  0  0
  160.0310  213.5540  146.3550 C   0  0  0  0  0  2  0  0  0  0  0  0
  162.4840  210.2370  148.6360 C   0  0  0  0  0  3  0  0  0  0  0  0
  160.0240  211.8740  151.8330 C   0  0  0  0  0  2  0  0  0  0  0  0
  161.9410  212.2030  147.3210 N   0  0  1  0  0  0  0  0  0  0  0  0
  162.2940  210.1490  153.3300 C   0  0  0  0  0  2  0  0  0  0  0  0
  162.2000  209.4610  149.6860 C   0  0  0  0  0  0  0  0  0  0  0  0
  161.2380  212.2520  149.6640 C   0  0  2  0  0  3  0  0  0  0  0  0
  160.7480  214.1320  144.0620 N   0  0  0  0  0  0  0  0  0  0  0  0
  163.7180  213.2560  145.9670 C   0  0  0  0  0  2  0  0  0  0  0  0
  162.2970  211.7320  148.6620 C   0  0  1  0  0  3  0  0  0  0  0  0
  160.4890  212.4930  147.3780 C   0  0  2  0  0  0  0  0  0  0  0  0
  161.2060  207.2830  148.9600 C   0  0  0  0  0  0  0  0  0  0  0  0
  160.4140  206.4050  149.8600 C   0  0  0  0  0  2  0  0  0  0  0  0
  161.0630  206.5390  151.1840 C   0  0  0  0  0  0  0  0  0  0  0  0
  160.4770  207.6610  146.5520 O   0  0  0  0  0  0  0  0  0  0  0  0
  160.4860  206.2340  152.2170 O   0  0  0  0  0  0  0  0  0  0  0  0
  160.8420  207.4770  147.7220 C   0  0  0  0  0  0  0  0  0  0  0  0
  162.3980  207.9750  149.5580 C   0  0  2  0  0  3  0  0  0  0  0  0
  162.7060  207.2450  151.2040 S   0  0  0  0  0  0  0  0  0  0  0  0
  160.6980  213.6520  142.6890 C   0  0  0  0  0  2  0  0  0  0  0  0
  160.1480  212.2460  142.6570 C   0  0  0  0  0  1  0  0  0  0  0  0
  158.7430  211.4370  153.9030 C   0  0  0  0  0  2  0  0  0  0  0  0
  158.8800  210.9410  155.3010 C   0  0  0  0  0  0  0  0  0  0  0  0
  159.0160  209.7090  155.5210 O   0  0  0  0  0  0  0  0  0  0  0  0
  158.8910  211.8620  156.3860 N   0  0  0  0  0  1  0  0  0  0  0  0
  2 13  1  0  0  0  0
  4 21  1  0  0  0  0
  5  3  1  0  0  0  0
  5 34  1  1  0  0  0
  6 17  1  0  0  0  0
  7 23  1  0  0  0  0
  8  4  1  0  0  0  0
 10 11  1  0  0  0  0
 10 15  1  1  0  0  0
 11  6  1  1  0  0  0
 12  9  1  1  0  0  0
 12 19  1  0  0  0  0
 13 23  1  0  0  0  0
 14 22  1  0  0  0  0
 14 18  2  0  0  0  0
 15  5  1  0  0  0  0
 16  1  1  1  0  0  0
 16 23  1  0  0  0  0
 16 22  1  0  0  0  0
 17  3  1  0  0  0  0
 18 11  1  0  0  0  0
 19 10  1  0  0  0  0
 20  8  1  0  0  0  0
 20  2  1  0  0  0  0
 21  1  1  0  0  0  0
 22 19  1  0  0  0  0
 23 12  1  0  0  0  0
 24 30  1  0  0  0  0
 24 25  1  0  0  0  0
 25 26  1  0  0  0  0
 26 31  1  0  0  0  0
 26 28  2  0  0  0  0
 27 29  2  0  0  0  0
 29 24  2  0  0  0  0
 30 18  1  0  0  0  0
 30 31  1  0  0  0  0
 32 20  1  0  0  0  0
 33 32  1  0  0  0  0
 34 35  1  0  0  0  0
 35 36  2  0  0  0  0
 35 37  1  0  0  0  0
M  END
>  <MODEL>
4

>  <REMARK>
 VINA RESULT:      -1.0      2.629      3.908
  Name = 
  4 active torsions:
  status: ('A' for Active; 'I' for Inactive)
    1  A    between atoms: C_6  and  C_16
    2  A    between atoms: C_7  and  C_16
    3  A    between atoms: C_8  and  N_32
    4  A    between atoms: C_30  and  C_33
                            x       y       z     vdW  Elec       q    Type
                         _______ _______ _______ _____ _____    ______ ____

>  <TORSDO>
F 4

$$$$
=
 OpenBabel11052411003D

 37 41  0  0  1  0  0  0  0  0999 V2000
  162.9840  212.9730  147.4940 C   0  0  0  0  0  2  0  0  0  0  0  0
  160.3530  213.5820  145.4750 C   0  0  0  0  0  2  0  0  0  0  0  0
  161.1940  210.9390  154.2680 C   0  0  0  0  0  2  0  0  0  0  0  0
  163.0010  212.7790  144.9720 C   0  0  0  0  0  2  0  0  0  0  0  0
  159.8910  211.3040  153.5600 C   0  0  2  0  0  3  0  0  0  0  0  0
  162.3030  209.9910  152.1930 C   0  0  0  0  0  2  0  0  0  0  0  0
  159.4040  211.8630  147.6610 C   0  0  0  0  0  1  0  0  0  0  0  0
  162.5970  214.2530  144.8410 C   0  0  0  0  0  2  0  0  0  0  0  0
  159.2870  213.5450  149.8350 O   0  0  0  0  0  1  0  0  0  0  0  0
  160.4790  211.3880  151.0650 C   0  0  1  0  0  3  0  0  0  0  0  0
  161.0720  209.9860  151.2970 C   0  0  1  0  0  3  0  0  0  0  0  0
  160.5750  213.3090  149.3400 C   0  0  1  0  0  3  0  0  0  0  0  0
  160.4330  214.0260  146.9370 C   0  0  0  0  0  2  0  0  0  0  0  0
  161.7840  209.9790  148.9410 C   0  0  0  0  0  3  0  0  0  0  0  0
  160.2170  212.1780  152.3550 C   0  0  0  0  0  2  0  0  0  0  0  0
  161.8430  212.0770  147.7190 N   0  0  1  0  0  0  0  0  0  0  0  0
  161.8740  209.7300  153.6320 C   0  0  0  0  0  2  0  0  0  0  0  0
  161.3260  209.2900  149.9890 C   0  0  0  0  0  0  0  0  0  0  0  0
  161.3460  212.2400  150.1100 C   0  0  2  0  0  3  0  0  0  0  0  0
  161.1550  214.4480  144.6100 N   0  0  0  0  0  0  0  0  0  0  0  0
  163.7800  212.5490  146.2620 C   0  0  0  0  0  2  0  0  0  0  0  0
  162.1070  211.4500  149.0180 C   0  0  1  0  0  3  0  0  0  0  0  0
  160.5770  212.8250  147.8950 C   0  0  2  0  0  0  0  0  0  0  0  0
  162.0900  206.9360  150.3500 C   0  0  0  0  0  0  0  0  0  0  0  0
  162.8970  206.1770  149.3600 C   0  0  0  0  0  2  0  0  0  0  0  0
  162.3830  206.6140  148.0410 C   0  0  0  0  0  0  0  0  0  0  0  0
  162.6200  206.7880  152.8340 O   0  0  0  0  0  0  0  0  0  0  0  0
  163.0290  206.4590  147.0160 O   0  0  0  0  0  0  0  0  0  0  0  0
  162.3520  206.8600  151.6270 C   0  0  0  0  0  0  0  0  0  0  0  0
  161.0110  207.8300  149.8090 C   0  0  2  0  0  3  0  0  0  0  0  0
  160.8030  207.4530  148.0340 S   0  0  0  0  0  0  0  0  0  0  0  0
  160.8610  214.0780  143.2330 C   0  0  0  0  0  2  0  0  0  0  0  0
  159.9310  212.8890  143.2090 C   0  0  0  0  0  1  0  0  0  0  0  0
  158.9970  212.0870  154.5050 C   0  0  0  0  0  2  0  0  0  0  0  0
  158.1790  211.1610  155.3380 C   0  0  0  0  0  0  0  0  0  0  0  0
  158.7460  210.3350  156.1000 O   0  0  0  0  0  0  0  0  0  0  0  0
  156.7580  211.2340  155.2990 N   0  0  0  0  0  1  0  0  0  0  0  0
  2 13  1  0  0  0  0
  4 21  1  0  0  0  0
  5  3  1  0  0  0  0
  5 34  1  1  0  0  0
  6 17  1  0  0  0  0
  7 23  1  0  0  0  0
  8  4  1  0  0  0  0
 10 11  1  0  0  0  0
 10 15  1  1  0  0  0
 11  6  1  6  0  0  0
 12  9  1  1  0  0  0
 12 19  1  0  0  0  0
 13 23  1  0  0  0  0
 14 22  1  0  0  0  0
 14 18  2  0  0  0  0
 15  5  1  0  0  0  0
 16  1  1  1  0  0  0
 16 23  1  0  0  0  0
 16 22  1  0  0  0  0
 17  3  1  0  0  0  0
 18 11  1  0  0  0  0
 19 10  1  0  0  0  0
 20  8  1  0  0  0  0
 20  2  1  0  0  0  0
 21  1  1  0  0  0  0
 22 19  1  0  0  0  0
 23 12  1  0  0  0  0
 24 29  2  0  0  0  0
 25 24  1  0  0  0  0
 26 25  1  0  0  0  0
 28 26  2  0  0  0  0
 29 27  2  0  0  0  0
 30 18  1  0  0  0  0
 30 24  1  0  0  0  0
 31 26  1  0  0  0  0
 31 30  1  0  0  0  0
 32 20  1  0  0  0  0
 33 32  1  0  0  0  0
 34 35  1  0  0  0  0
 35 36  2  0  0  0  0
 37 35  1  0  0  0  0
M  END
>  <MODEL>
5

>  <REMARK>
 VINA RESULT:      -0.7      2.357      3.264
  Name = 
  4 active torsions:
  status: ('A' for Active; 'I' for Inactive)
    1  A    between atoms: C_6  and  C_16
    2  A    between atoms: C_7  and  C_16
    3  A    between atoms: C_8  and  N_32
    4  A    between atoms: C_30  and  C_33
                            x       y       z     vdW  Elec       q    Type
                         _______ _______ _______ _____ _____    ______ ____

>  <TORSDO>
F 4

$$$$
