=
 OpenBabel11042420143D

 25 28  0  0  1  0  0  0  0  0999 V2000
  161.3750  205.0480  149.2870 C   0  0  0  0  0  0  0  0  0  0  0  0
  161.4850  206.1540  150.1580 C   0  0  0  0  0  0  0  0  0  0  0  0
  160.7260  203.5960  151.1370 C   0  0  0  0  0  3  0  0  0  0  0  0
  161.6030  205.0010  147.8970 C   0  0  0  0  0  0  0  0  0  0  0  0
  161.9510  209.8390  150.2480 C   0  0  0  0  0  0  0  0  0  0  0  0
  161.9560  204.5190  145.1650 C   0  0  0  0  0  3  0  0  0  0  0  0
  160.8310  204.6850  152.0080 C   0  0  0  0  0  3  0  0  0  0  0  0
  161.4000  203.7310  147.3600 C   0  0  0  0  0  0  0  0  0  0  0  0
  161.5680  203.4630  146.0030 C   0  0  0  0  0  3  0  0  0  0  0  0
  161.2870  207.0930  152.4880 C   0  0  0  0  0  0  0  0  0  0  0  0
  161.0250  206.8550  154.2080 Cl  0  0  0  0  0  0  0  0  0  0  0  0
  162.1450  211.0670  149.8550 C   0  0  0  0  0  3  0  0  0  0  0  0
  161.9490  207.4970  149.6490 C   0  0  0  0  0  2  0  0  0  0  0  0
  162.1640  205.8060  145.6900 C   0  0  0  0  0  3  0  0  0  0  0  0
  160.9990  203.8030  149.7910 C   0  0  0  0  0  0  0  0  0  0  0  0
  160.9410  202.6480  148.5630 S   0  0  0  0  0  0  0  0  0  0  0  0
  161.5290  208.3300  152.0560 C   0  0  0  0  0  3  0  0  0  0  0  0
  161.9880  206.0540  147.0600 C   0  0  0  0  0  3  0  0  0  0  0  0
  161.7570  208.6100  150.6340 C   0  0  0  0  0  0  0  0  0  0  0  0
  161.2080  205.9590  151.5380 C   0  0  0  0  0  0  0  0  0  0  0  0
  161.9600  211.4470  148.4240 C   0  0  2  0  0  3  0  0  0  0  0  0
  163.1650  211.9040  147.8860 O   0  0  0  0  0  1  0  0  0  0  0  0
  160.9130  212.5020  148.3030 C   0  0  0  0  0  0  0  0  0  0  0  0
  160.1240  212.5610  147.1630 O   0  0  0  0  0  0  0  0  0  0  0  0
  160.7260  213.3290  149.2360 O   0  0  0  0  0  1  0  0  0  0  0  0
  1 15  1  0  0  0  0
  1  2  2  0  0  0  0
  2 20  1  0  0  0  0
  3  7  1  0  0  0  0
  4  1  1  0  0  0  0
  5 19  2  0  0  0  0
  6 14  2  0  0  0  0
  6  9  1  0  0  0  0
  8  4  1  0  0  0  0
  8 16  1  0  0  0  0
  9  8  2  0  0  0  0
 10 11  1  0  0  0  0
 12  5  2  0  0  0  0
 13  2  1  0  0  0  0
 13 19  1  0  0  0  0
 14 18  1  0  0  0  0
 15  3  2  0  0  0  0
 16 15  1  0  0  0  0
 17 10  2  0  0  0  0
 18  4  2  0  0  0  0
 19 17  1  0  0  0  0
 20  7  2  0  0  0  0
 20 10  1  0  0  0  0
 21 22  1  1  0  0  0
 21 12  1  0  0  0  0
 23 21  1  0  0  0  0
 23 25  1  0  0  0  0
 24 23  2  0  0  0  0
M  END
>  <MODEL>
1

>  <REMARK>
 VINA RESULT:     -10.6      0.000      0.000
  Name = 
  2 active torsions:
  status: ('A' for Active; 'I' for Inactive)
    1  A    between atoms: C_2  and  C_21
    2  A    between atoms: C_15  and  C_21
                            x       y       z     vdW  Elec       q    Type
                         _______ _______ _______ _____ _____    ______ ____

>  <TORSDO>
F 2

$$$$
=
 OpenBabel11042420143D

 25 28  0  0  1  0  0  0  0  0999 V2000
  161.3130  206.1170  151.0000 C   0  0  0  0  0  0  0  0  0  0  0  0
  161.1350  204.9500  150.2240 C   0  0  0  0  0  0  0  0  0  0  0  0
  161.0190  204.8480  153.0620 C   0  0  0  0  0  3  0  0  0  0  0  0
  161.5560  207.4340  150.5600 C   0  0  0  0  0  0  0  0  0  0  0  0
  161.3810  203.6040  146.7710 C   0  0  0  0  0  0  0  0  0  0  0  0
  162.0460  210.1450  150.0760 C   0  0  0  0  0  3  0  0  0  0  0  0
  160.8410  203.6860  152.3040 C   0  0  0  0  0  3  0  0  0  0  0  0
  161.6780  208.3400  151.6120 C   0  0  0  0  0  0  0  0  0  0  0  0
  161.9230  209.6950  151.3990 C   0  0  0  0  0  3  0  0  0  0  0  0
  160.7230  202.4670  150.1270 C   0  0  0  0  0  0  0  0  0  0  0  0
  160.3470  200.9530  150.9350 Cl  0  0  0  0  0  0  0  0  0  0  0  0
  161.5690  203.5440  145.4810 C   0  0  0  0  0  3  0  0  0  0  0  0
  161.1330  205.0170  148.7170 C   0  0  0  0  0  2  0  0  0  0  0  0
  161.9270  209.2440  149.0040 C   0  0  0  0  0  3  0  0  0  0  0  0
  161.2540  206.0410  152.3920 C   0  0  0  0  0  0  0  0  0  0  0  0
  161.4940  207.5570  153.0900 S   0  0  0  0  0  0  0  0  0  0  0  0
  160.8800  202.4500  148.8050 C   0  0  0  0  0  3  0  0  0  0  0  0
  161.6810  207.8820  149.2410 C   0  0  0  0  0  3  0  0  0  0  0  0
  161.1960  203.6720  148.0580 C   0  0  0  0  0  0  0  0  0  0  0  0
  160.8930  203.7220  150.8960 C   0  0  0  0  0  0  0  0  0  0  0  0
  162.2890  204.6360  144.7640 C   0  0  2  0  0  3  0  0  0  0  0  0
  163.1180  205.3300  145.6480 O   0  0  0  0  0  1  0  0  0  0  0  0
  161.3120  205.5720  144.1370 C   0  0  0  0  0  0  0  0  0  0  0  0
  160.3420  206.1790  144.9210 O   0  0  0  0  0  1  0  0  0  0  0  0
  161.3740  205.8310  142.9060 O   0  0  0  0  0  0  0  0  0  0  0  0
  1 15  2  0  0  0  0
  2 20  2  0  0  0  0
  2  1  1  0  0  0  0
  4  1  1  0  0  0  0
  4  8  1  0  0  0  0
  5 19  2  0  0  0  0
  6  9  1  0  0  0  0
  7  3  2  0  0  0  0
  8 16  1  0  0  0  0
  9  8  2  0  0  0  0
 10 20  1  0  0  0  0
 10 11  1  0  0  0  0
 12  5  2  0  0  0  0
 13  2  1  0  0  0  0
 14 18  1  0  0  0  0
 14  6  2  0  0  0  0
 15  3  1  0  0  0  0
 15 16  1  0  0  0  0
 17 10  2  0  0  0  0
 18  4  2  0  0  0  0
 19 13  1  0  0  0  0
 19 17  1  0  0  0  0
 20  7  1  0  0  0  0
 21 12  1  0  0  0  0
 21 22  1  1  0  0  0
 23 21  1  0  0  0  0
 23 24  1  0  0  0  0
 25 23  2  0  0  0  0
M  END
>  <MODEL>
2

>  <REMARK>
 VINA RESULT:     -10.5      3.379      5.943
  Name = 
  2 active torsions:
  status: ('A' for Active; 'I' for Inactive)
    1  A    between atoms: C_2  and  C_21
    2  A    between atoms: C_15  and  C_21
                            x       y       z     vdW  Elec       q    Type
                         _______ _______ _______ _____ _____    ______ ____

>  <TORSDO>
F 2

$$$$
=
 OpenBabel11042420143D

 25 28  0  0  1  0  0  0  0  0999 V2000
  161.4800  207.1830  151.0250 C   0  0  0  0  0  0  0  0  0  0  0  0
  161.2930  205.8840  150.5020 C   0  0  0  0  0  0  0  0  0  0  0  0
  161.2860  206.3440  153.3070 C   0  0  0  0  0  3  0  0  0  0  0  0
  161.6830  208.3890  150.3240 C   0  0  0  0  0  0  0  0  0  0  0  0
  161.4330  203.8840  147.3750 C   0  0  0  0  0  0  0  0  0  0  0  0
  162.1070  210.9550  149.2950 C   0  0  0  0  0  3  0  0  0  0  0  0
  161.1000  205.0540  152.8010 C   0  0  0  0  0  3  0  0  0  0  0  0
  161.8290  209.4870  151.1700 C   0  0  0  0  0  0  0  0  0  0  0  0
  162.0410  210.7750  150.6850 C   0  0  0  0  0  3  0  0  0  0  0  0
  160.9210  203.4270  150.9140 C   0  0  0  0  0  0  0  0  0  0  0  0
  160.6020  202.0990  152.0190 Cl  0  0  0  0  0  0  0  0  0  0  0  0
  161.5730  203.5710  146.1170 C   0  0  0  0  0  3  0  0  0  0  0  0
  161.2330  205.6510  149.0120 C   0  0  0  0  0  2  0  0  0  0  0  0
  161.9630  209.8590  148.4270 C   0  0  0  0  0  3  0  0  0  0  0  0
  161.4750  207.3830  152.4050 C   0  0  0  0  0  0  0  0  0  0  0  0
  161.7140  209.0100  152.7800 S   0  0  0  0  0  0  0  0  0  0  0  0
  161.0290  203.1500  149.6160 C   0  0  0  0  0  3  0  0  0  0  0  0
  161.7500  208.5690  148.9380 C   0  0  0  0  0  3  0  0  0  0  0  0
  161.2950  204.2040  148.6310 C   0  0  0  0  0  0  0  0  0  0  0  0
  161.0980  204.8110  151.4120 C   0  0  0  0  0  0  0  0  0  0  0  0
  162.2460  204.5060  145.1690 C   0  0  2  0  0  3  0  0  0  0  0  0
  163.1950  205.2780  145.8440 O   0  0  0  0  0  1  0  0  0  0  0  0
  161.2390  205.3920  144.5170 C   0  0  0  0  0  0  0  0  0  0  0  0
  160.2600  206.0040  145.2870 O   0  0  0  0  0  1  0  0  0  0  0  0
  161.2820  205.6040  143.2760 O   0  0  0  0  0  0  0  0  0  0  0  0
  1 15  1  0  0  0  0
  2  1  2  0  0  0  0
  2 20  1  0  0  0  0
  4  1  1  0  0  0  0
  4  8  1  0  0  0  0
  5 19  2  0  0  0  0
  6  9  1  0  0  0  0
  7  3  1  0  0  0  0
  8 16  1  0  0  0  0
  9  8  2  0  0  0  0
 10 20  1  0  0  0  0
 10 11  1  0  0  0  0
 12  5  2  0  0  0  0
 13  2  1  0  0  0  0
 14 18  1  0  0  0  0
 14  6  2  0  0  0  0
 15 16  1  0  0  0  0
 15  3  2  0  0  0  0
 17 10  2  0  0  0  0
 18  4  2  0  0  0  0
 19 13  1  0  0  0  0
 19 17  1  0  0  0  0
 20  7  2  0  0  0  0
 21 22  1  1  0  0  0
 21 12  1  0  0  0  0
 23 21  1  0  0  0  0
 23 24  1  0  0  0  0
 25 23  2  0  0  0  0
M  END
>  <MODEL>
3

>  <REMARK>
 VINA RESULT:     -10.3      3.292      5.891
  Name = 
  2 active torsions:
  status: ('A' for Active; 'I' for Inactive)
    1  A    between atoms: C_2  and  C_21
    2  A    between atoms: C_15  and  C_21
                            x       y       z     vdW  Elec       q    Type
                         _______ _______ _______ _____ _____    ______ ____

>  <TORSDO>
F 2

$$$$
=
 OpenBabel11042420143D

 25 28  0  0  1  0  0  0  0  0999 V2000
  161.3270  205.0040  149.5940 C   0  0  0  0  0  0  0  0  0  0  0  0
  161.4280  206.1050  150.4720 C   0  0  0  0  0  0  0  0  0  0  0  0
  160.7940  203.5120  151.4490 C   0  0  0  0  0  3  0  0  0  0  0  0
  161.5080  204.9780  148.1960 C   0  0  0  0  0  0  0  0  0  0  0  0
  161.7660  209.8030  150.5840 C   0  0  0  0  0  0  0  0  0  0  0  0
  161.7830  204.5340  145.4480 C   0  0  0  0  0  3  0  0  0  0  0  0
  160.8910  204.5960  152.3270 C   0  0  0  0  0  3  0  0  0  0  0  0
  161.3320  203.7060  147.6520 C   0  0  0  0  0  0  0  0  0  0  0  0
  161.4620  203.4580  146.2880 C   0  0  0  0  0  3  0  0  0  0  0  0
  161.2780  207.0150  152.8160 C   0  0  0  0  0  0  0  0  0  0  0  0
  161.0840  206.7510  154.5430 Cl  0  0  0  0  0  0  0  0  0  0  0  0
  161.9020  211.0410  150.1980 C   0  0  0  0  0  3  0  0  0  0  0  0
  161.8260  207.4680  149.9610 C   0  0  0  0  0  2  0  0  0  0  0  0
  161.9630  205.8230  145.9790 C   0  0  0  0  0  3  0  0  0  0  0  0
  161.0130  203.7410  150.0970 C   0  0  0  0  0  0  0  0  0  0  0  0
  160.9540  202.5960  148.8600 S   0  0  0  0  0  0  0  0  0  0  0  0
  161.4610  208.2630  152.3890 C   0  0  0  0  0  3  0  0  0  0  0  0
  161.8270  206.0520  147.3570 C   0  0  0  0  0  3  0  0  0  0  0  0
  161.6290  208.5640  150.9640 C   0  0  0  0  0  0  0  0  0  0  0  0
  161.2070  205.8870  151.8580 C   0  0  0  0  0  0  0  0  0  0  0  0
  161.6540  211.4280  148.7780 C   0  0  2  0  0  3  0  0  0  0  0  0
  161.8320  210.3250  147.9390 O   0  0  0  0  0  1  0  0  0  0  0  0
  162.5740  212.5300  148.3760 C   0  0  0  0  0  0  0  0  0  0  0  0
  162.1720  213.8500  148.5260 O   0  0  0  0  0  1  0  0  0  0  0  0
  163.7200  212.2730  147.9210 O   0  0  0  0  0  0  0  0  0  0  0  0
  1 15  1  0  0  0  0
  1  2  2  0  0  0  0
  2 20  1  0  0  0  0
  3  7  1  0  0  0  0
  4  1  1  0  0  0  0
  5 19  2  0  0  0  0
  6 14  2  0  0  0  0
  6  9  1  0  0  0  0
  8  4  1  0  0  0  0
  8 16  1  0  0  0  0
  9  8  2  0  0  0  0
 10 11  1  0  0  0  0
 12  5  2  0  0  0  0
 13  2  1  0  0  0  0
 13 19  1  0  0  0  0
 14 18  1  0  0  0  0
 15  3  2  0  0  0  0
 16 15  1  0  0  0  0
 17 10  2  0  0  0  0
 18  4  2  0  0  0  0
 19 17  1  0  0  0  0
 20  7  2  0  0  0  0
 20 10  1  0  0  0  0
 21 22  1  6  0  0  0
 21 12  1  0  0  0  0
 23 24  1  0  0  0  0
 23 21  1  0  0  0  0
 25 23  2  0  0  0  0
M  END
>  <MODEL>
4

>  <REMARK>
 VINA RESULT:     -10.1      0.786      1.078
  Name = 
  2 active torsions:
  status: ('A' for Active; 'I' for Inactive)
    1  A    between atoms: C_2  and  C_21
    2  A    between atoms: C_15  and  C_21
                            x       y       z     vdW  Elec       q    Type
                         _______ _______ _______ _____ _____    ______ ____

>  <TORSDO>
F 2

$$$$
=
 OpenBabel11042420143D

 25 28  0  0  1  0  0  0  0  0999 V2000
  161.3680  205.1130  148.7000 C   0  0  0  0  0  0  0  0  0  0  0  0
  161.3750  206.3690  149.3450 C   0  0  0  0  0  0  0  0  0  0  0  0
  161.9950  206.1460  146.5800 C   0  0  0  0  0  3  0  0  0  0  0  0
  161.0770  203.8470  149.2480 C   0  0  0  0  0  0  0  0  0  0  0  0
  161.1730  208.0080  152.6730 C   0  0  0  0  0  0  0  0  0  0  0  0
  160.5700  201.1920  149.9660 C   0  0  0  0  0  3  0  0  0  0  0  0
  162.0050  207.3950  147.2100 C   0  0  0  0  0  3  0  0  0  0  0  0
  161.1660  202.8200  148.3100 C   0  0  0  0  0  0  0  0  0  0  0  0
  160.9200  201.4900  148.6410 C   0  0  0  0  0  3  0  0  0  0  0  0
  161.7410  208.8580  149.2160 C   0  0  0  0  0  0  0  0  0  0  0  0
  162.0610  210.3040  148.2700 Cl  0  0  0  0  0  0  0  0  0  0  0  0
  161.0490  208.1730  153.9610 C   0  0  0  0  0  3  0  0  0  0  0  0
  160.9840  206.4940  150.7980 C   0  0  0  0  0  2  0  0  0  0  0  0
  160.4770  202.2160  150.9250 C   0  0  0  0  0  3  0  0  0  0  0  0
  161.6780  205.0290  147.3420 C   0  0  0  0  0  0  0  0  0  0  0  0
  161.6000  203.4320  146.8040 S   0  0  0  0  0  0  0  0  0  0  0  0
  161.5670  208.9950  150.5300 C   0  0  0  0  0  3  0  0  0  0  0  0
  160.7300  203.5500  150.5700 C   0  0  0  0  0  3  0  0  0  0  0  0
  161.2970  207.8360  151.3880 C   0  0  0  0  0  0  0  0  0  0  0  0
  161.6970  207.5210  148.5790 C   0  0  0  0  0  0  0  0  0  0  0  0
  161.1970  207.0190  154.8950 C   0  0  2  0  0  3  0  0  0  0  0  0
  160.8110  205.8340  154.2630 O   0  0  0  0  0  1  0  0  0  0  0  0
  160.3730  207.2370  156.1180 C   0  0  0  0  0  0  0  0  0  0  0  0
  160.9640  207.7590  157.2610 O   0  0  0  0  0  1  0  0  0  0  0  0
  159.1420  206.9710  156.1170 O   0  0  0  0  0  0  0  0  0  0  0  0
  1  4  1  0  0  0  0
  1  2  1  0  0  0  0
  2 13  1  0  0  0  0
  3  7  2  0  0  0  0
  3 15  1  0  0  0  0
  4 18  1  0  0  0  0
  5 12  2  0  0  0  0
  6 14  1  0  0  0  0
  7 20  1  0  0  0  0
  8  9  1  0  0  0  0
  8  4  2  0  0  0  0
  9  6  2  0  0  0  0
 10 17  2  0  0  0  0
 11 10  1  0  0  0  0
 12 21  1  0  0  0  0
 13 19  1  0  0  0  0
 15  1  2  0  0  0  0
 16 15  1  0  0  0  0
 16  8  1  0  0  0  0
 17 19  1  0  0  0  0
 18 14  2  0  0  0  0
 19  5  2  0  0  0  0
 20 10  1  0  0  0  0
 20  2  2  0  0  0  0
 21 22  1  6  0  0  0
 21 23  1  0  0  0  0
 23 24  1  0  0  0  0
 25 23  2  0  0  0  0
M  END
>  <MODEL>
5

>  <REMARK>
 VINA RESULT:      -9.8      3.847      5.503
  Name = 
  2 active torsions:
  status: ('A' for Active; 'I' for Inactive)
    1  A    between atoms: C_2  and  C_21
    2  A    between atoms: C_15  and  C_21
                            x       y       z     vdW  Elec       q    Type
                         _______ _______ _______ _____ _____    ______ ____

>  <TORSDO>
F 2

$$$$
=
 OpenBabel11042420143D

 25 28  0  0  1  0  0  0  0  0999 V2000
  161.4010  205.8380  149.4110 C   0  0  0  0  0  0  0  0  0  0  0  0
  161.4370  207.1280  149.9840 C   0  0  0  0  0  0  0  0  0  0  0  0
  161.9930  206.7400  147.2230 C   0  0  0  0  0  3  0  0  0  0  0  0
  161.1060  204.6090  150.0360 C   0  0  0  0  0  0  0  0  0  0  0  0
  161.3280  208.9550  153.2160 C   0  0  0  0  0  0  0  0  0  0  0  0
  160.5840  202.0060  150.9140 C   0  0  0  0  0  3  0  0  0  0  0  0
  162.0310  208.0230  147.7800 C   0  0  0  0  0  3  0  0  0  0  0  0
  161.1620  203.5290  149.1560 C   0  0  0  0  0  0  0  0  0  0  0  0
  160.9070  202.2230  149.5670 C   0  0  0  0  0  3  0  0  0  0  0  0
  161.8290  209.6010  149.7060 C   0  0  0  0  0  0  0  0  0  0  0  0
  162.1460  210.9860  148.6720 Cl  0  0  0  0  0  0  0  0  0  0  0  0
  161.2340  209.1940  154.4950 C   0  0  0  0  0  3  0  0  0  0  0  0
  161.0790  207.3400  151.4340 C   0  0  0  0  0  2  0  0  0  0  0  0
  160.5230  203.0830  151.8150 C   0  0  0  0  0  3  0  0  0  0  0  0
  161.6790  205.6720  148.0540 C   0  0  0  0  0  0  0  0  0  0  0  0
  161.5710  204.0490  147.6080 S   0  0  0  0  0  0  0  0  0  0  0  0
  161.6860  209.8140  151.0130 C   0  0  0  0  0  3  0  0  0  0  0  0
  160.7840  204.3920  151.3800 C   0  0  0  0  0  3  0  0  0  0  0  0
  161.4210  208.7090  151.9400 C   0  0  0  0  0  0  0  0  0  0  0  0
  161.7560  208.2300  149.1470 C   0  0  0  0  0  0  0  0  0  0  0  0
  161.3890  208.0930  155.4890 C   0  0  2  0  0  3  0  0  0  0  0  0
  161.4840  206.8610  154.8360 O   0  0  0  0  0  1  0  0  0  0  0  0
  160.2330  208.0830  156.4310 C   0  0  0  0  0  0  0  0  0  0  0  0
  159.3390  207.0220  156.4120 O   0  0  0  0  0  0  0  0  0  0  0  0
  160.0740  209.0190  157.2590 O   0  0  0  0  0  1  0  0  0  0  0  0
  1  2  1  0  0  0  0
  1  4  1  0  0  0  0
  2 13  1  0  0  0  0
  3  7  2  0  0  0  0
  3 15  1  0  0  0  0
  4 18  1  0  0  0  0
  5 12  2  0  0  0  0
  6 14  1  0  0  0  0
  7 20  1  0  0  0  0
  8  9  1  0  0  0  0
  8  4  2  0  0  0  0
  9  6  2  0  0  0  0
 10 17  2  0  0  0  0
 11 10  1  0  0  0  0
 12 21  1  0  0  0  0
 13 19  1  0  0  0  0
 15  1  2  0  0  0  0
 16 15  1  0  0  0  0
 16  8  1  0  0  0  0
 17 19  1  0  0  0  0
 18 14  2  0  0  0  0
 19  5  2  0  0  0  0
 20 10  1  0  0  0  0
 20  2  2  0  0  0  0
 21 22  1  6  0  0  0
 21 23  1  0  0  0  0
 23 25  1  0  0  0  0
 24 23  2  0  0  0  0
M  END
>  <MODEL>
6

>  <REMARK>
 VINA RESULT:      -9.0      3.771      5.469
  Name = 
  2 active torsions:
  status: ('A' for Active; 'I' for Inactive)
    1  A    between atoms: C_2  and  C_21
    2  A    between atoms: C_15  and  C_21
                            x       y       z     vdW  Elec       q    Type
                         _______ _______ _______ _____ _____    ______ ____

>  <TORSDO>
F 2

$$$$
=
 OpenBabel11042420143D

 25 28  0  0  1  0  0  0  0  0999 V2000
  161.5320  207.3570  150.0970 C   0  0  0  0  0  0  0  0  0  0  0  0
  161.3820  206.6150  151.2890 C   0  0  0  0  0  0  0  0  0  0  0  0
  161.2860  205.3370  148.7510 C   0  0  0  0  0  3  0  0  0  0  0  0
  161.7430  208.7430  149.9480 C   0  0  0  0  0  0  0  0  0  0  0  0
  160.9350  206.9390  154.9620 C   0  0  0  0  0  0  0  0  0  0  0  0
  162.1620  211.4210  149.2570 C   0  0  0  0  0  3  0  0  0  0  0  0
  161.1360  204.5930  149.9250 C   0  0  0  0  0  3  0  0  0  0  0  0
  161.8490  209.1330  148.6140 C   0  0  0  0  0  0  0  0  0  0  0  0
  162.0560  210.4590  148.2420 C   0  0  0  0  0  3  0  0  0  0  0  0
  160.9970  204.3930  152.4110 C   0  0  0  0  0  0  0  0  0  0  0  0
  160.8270  202.6470  152.3150 Cl  0  0  0  0  0  0  0  0  0  0  0  0
  160.8160  207.4690  156.1480 C   0  0  0  0  0  3  0  0  0  0  0  0
  161.4960  207.2840  152.6360 C   0  0  0  0  0  2  0  0  0  0  0  0
  162.0570  211.0460  150.6080 C   0  0  0  0  0  3  0  0  0  0  0  0
  161.4800  206.7080  148.8630 C   0  0  0  0  0  0  0  0  0  0  0  0
  161.6870  207.8020  147.5960 S   0  0  0  0  0  0  0  0  0  0  0  0
  160.9220  204.9640  153.6120 C   0  0  0  0  0  3  0  0  0  0  0  0
  161.8470  209.7030  150.9600 C   0  0  0  0  0  3  0  0  0  0  0  0
  161.0540  206.4160  153.7750 C   0  0  0  0  0  0  0  0  0  0  0  0
  161.1830  205.2120  151.1900 C   0  0  0  0  0  0  0  0  0  0  0  0
  160.5220  208.9230  156.3070 C   0  0  2  0  0  3  0  0  0  0  0  0
  159.3690  209.2630  155.5950 O   0  0  0  0  0  1  0  0  0  0  0  0
  161.6760  209.7370  155.8300 C   0  0  0  0  0  0  0  0  0  0  0  0
  161.5960  210.3950  154.6110 O   0  0  0  0  0  0  0  0  0  0  0  0
  162.7150  209.8500  156.5340 O   0  0  0  0  0  1  0  0  0  0  0  0
  1  2  2  0  0  0  0
  2 13  1  0  0  0  0
  3 15  2  0  0  0  0
  3  7  1  0  0  0  0
  4  1  1  0  0  0  0
  4 18  1  0  0  0  0
  5 12  2  0  0  0  0
  6 14  1  0  0  0  0
  7 20  2  0  0  0  0
  8  4  2  0  0  0  0
  9  8  1  0  0  0  0
  9  6  2  0  0  0  0
 10 17  2  0  0  0  0
 11 10  1  0  0  0  0
 12 21  1  0  0  0  0
 13 19  1  0  0  0  0
 14 18  2  0  0  0  0
 15  1  1  0  0  0  0
 16  8  1  0  0  0  0
 16 15  1  0  0  0  0
 17 19  1  0  0  0  0
 19  5  2  0  0  0  0
 20  2  1  0  0  0  0
 20 10  1  0  0  0  0
 21 22  1  6  0  0  0
 23 21  1  0  0  0  0
 23 25  1  0  0  0  0
 24 23  2  0  0  0  0
M  END
>  <MODEL>
7

>  <REMARK>
 VINA RESULT:      -8.0      3.383      5.686
  Name = 
  2 active torsions:
  status: ('A' for Active; 'I' for Inactive)
    1  A    between atoms: C_2  and  C_21
    2  A    between atoms: C_15  and  C_21
                            x       y       z     vdW  Elec       q    Type
                         _______ _______ _______ _____ _____    ______ ____

>  <TORSDO>
F 2

$$$$
=
 OpenBabel11042420143D

 25 28  0  0  1  0  0  0  0  0999 V2000
  160.9120  209.1480  153.4300 C   0  0  0  0  0  0  0  0  0  0  0  0
  161.2010  208.6370  152.1460 C   0  0  0  0  0  0  0  0  0  0  0  0
  161.0470  211.4380  152.6010 C   0  0  0  0  0  3  0  0  0  0  0  0
  160.6700  208.4370  154.6230 C   0  0  0  0  0  0  0  0  0  0  0  0
  161.3310  205.5090  150.1470 C   0  0  0  0  0  0  0  0  0  0  0  0
  160.1420  207.3870  157.1610 C   0  0  0  0  0  3  0  0  0  0  0  0
  161.3350  210.9430  151.3250 C   0  0  0  0  0  3  0  0  0  0  0  0
  160.4180  209.2740  155.7090 C   0  0  0  0  0  0  0  0  0  0  0  0
  160.1510  208.7780  156.9830 C   0  0  0  0  0  3  0  0  0  0  0  0
  161.7010  209.0680  149.7150 C   0  0  0  0  0  0  0  0  0  0  0  0
  162.0460  210.1890  148.4070 Cl  0  0  0  0  0  0  0  0  0  0  0  0
  161.2710  204.2450  149.8280 C   0  0  0  0  0  3  0  0  0  0  0  0
  161.3460  207.1520  151.9200 C   0  0  0  0  0  2  0  0  0  0  0  0
  160.3930  206.5280  156.0770 C   0  0  0  0  0  3  0  0  0  0  0  0
  160.8390  210.5270  153.6280 C   0  0  0  0  0  0  0  0  0  0  0  0
  160.4840  210.8880  155.2370 S   0  0  0  0  0  0  0  0  0  0  0  0
  161.6710  207.7670  149.4340 C   0  0  0  0  0  3  0  0  0  0  0  0
  160.6580  207.0490  154.8010 C   0  0  0  0  0  3  0  0  0  0  0  0
  161.3900  206.7690  150.4720 C   0  0  0  0  0  0  0  0  0  0  0  0
  161.4170  209.5560  151.0850 C   0  0  0  0  0  0  0  0  0  0  0  0
  160.5880  203.2660  150.7230 C   0  0  2  0  0  3  0  0  0  0  0  0
  161.2670  203.1700  151.9400 O   0  0  0  0  0  1  0  0  0  0  0  0
  160.5220  201.9280  150.0670 C   0  0  0  0  0  0  0  0  0  0  0  0
  159.6290  201.7150  149.0270 O   0  0  0  0  0  0  0  0  0  0  0  0
  161.2860  200.9960  150.4360 O   0  0  0  0  0  1  0  0  0  0  0  0
  1 15  2  0  0  0  0
  1  4  1  0  0  0  0
  2  1  1  0  0  0  0
  3 15  1  0  0  0  0
  4 18  2  0  0  0  0
  4  8  1  0  0  0  0
  5 19  2  0  0  0  0
  7  3  2  0  0  0  0
  8  9  2  0  0  0  0
  9  6  1  0  0  0  0
 10 20  1  0  0  0  0
 11 10  1  0  0  0  0
 12  5  2  0  0  0  0
 12 21  1  0  0  0  0
 13  2  1  0  0  0  0
 14  6  2  0  0  0  0
 15 16  1  0  0  0  0
 16  8  1  0  0  0  0
 17 10  2  0  0  0  0
 17 19  1  0  0  0  0
 18 14  1  0  0  0  0
 19 13  1  0  0  0  0
 20  7  1  0  0  0  0
 20  2  2  0  0  0  0
 21 22  1  1  0  0  0
 23 25  1  0  0  0  0
 23 21  1  0  0  0  0
 24 23  2  0  0  0  0
M  END
>  <MODEL>
8

>  <REMARK>
 VINA RESULT:      -7.8      4.986      8.185
  Name = 
  2 active torsions:
  status: ('A' for Active; 'I' for Inactive)
    1  A    between atoms: C_2  and  C_21
    2  A    between atoms: C_15  and  C_21
                            x       y       z     vdW  Elec       q    Type
                         _______ _______ _______ _____ _____    ______ ____

>  <TORSDO>
F 2

$$$$
