=
 OpenBabel11042420253D

 31 34  0  0  1  0  0  0  0  0999 V2000
  161.2400  206.4270  152.0390 C   0  0  2  0  0  3  0  0  0  0  0  0
  161.1510  207.8480  152.4820 N   0  0  0  0  0  0  0  0  0  0  0  0
  161.6530  205.5690  153.2160 C   0  0  0  0  0  1  0  0  0  0  0  0
  162.2720  207.2720  151.6780 C   0  0  2  0  0  3  0  0  0  0  0  0
  160.0820  210.0380  152.4160 C   0  0  0  0  0  3  0  0  0  0  0  0
  159.4430  211.1040  153.0530 C   0  0  0  0  0  3  0  0  0  0  0  0
  159.2190  211.0690  154.4330 C   0  0  0  0  0  0  0  0  0  0  0  0
  159.6420  209.9520  155.1700 C   0  0  0  0  0  3  0  0  0  0  0  0
  160.5030  208.9260  153.1510 C   0  0  0  0  0  0  0  0  0  0  0  0
  160.2850  208.8760  154.5380 C   0  0  0  0  0  0  0  0  0  0  0  0
  157.4790  212.7150  154.5890 C   0  0  0  0  0  3  0  0  0  0  0  0
  158.5620  212.1780  155.0570 N   0  0  0  0  0  0  0  0  0  0  0  0
  156.8990  213.7080  156.7740 C   0  0  0  0  0  2  0  0  0  0  0  0
  154.8430  214.4390  156.0780 C   0  0  0  0  0  2  0  0  0  0  0  0
  155.5730  214.0080  157.2610 N   0  0  0  0  0  2  0  0  0  0  0  0
  156.8330  213.8710  155.2790 C   0  0  2  0  0  3  0  0  0  0  0  0
  155.4850  213.9610  154.9250 O   0  0  0  0  0  0  0  0  0  0  0  0
  160.0290  207.2810  156.4140 C   0  0  0  0  0  1  0  0  0  0  0  0
  160.7110  207.7570  155.2620 O   0  0  0  0  0  0  0  0  0  0  0  0
  162.2660  208.8920  149.9240 O   0  0  0  0  0  0  0  0  0  0  0  0
  162.1400  207.6760  150.2380 C   0  0  0  0  0  0  0  0  0  0  0  0
  161.4910  204.7550  147.1550 C   0  0  0  0  0  0  0  0  0  0  0  0
  161.1570  204.4660  148.4850 C   0  0  0  0  0  3  0  0  0  0  0  0
  162.2480  206.9560  147.8500 C   0  0  0  0  0  3  0  0  0  0  0  0
  161.3670  205.4140  149.4890 C   0  0  0  0  0  3  0  0  0  0  0  0
  162.0390  206.0080  146.8450 C   0  0  0  0  0  3  0  0  0  0  0  0
  161.9140  206.6690  149.1800 C   0  0  0  0  0  0  0  0  0  0  0  0
  161.2690  203.7550  146.0960 C   0  0  0  0  0  0  0  0  0  0  0  0
  161.4890  204.0530  144.8900 O   0  0  0  0  0  0  0  0  0  0  0  0
  160.8030  202.4460  146.4340 N   0  0  0  0  0  2  0  0  0  0  0  0
  160.5710  201.4260  145.4250 C   0  0  0  0  0  1  0  0  0  0  0  0
  1  2  1  0  0  0  0
  1  3  1  1  0  0  0
  2  9  1  0  0  0  0
  4 21  1  6  0  0  0
  4  1  1  0  0  0  0
  4  2  1  0  0  0  0
  5  6  2  0  0  0  0
  5  9  1  0  0  0  0
  6  7  1  0  0  0  0
  7 12  1  0  0  0  0
  7  8  2  0  0  0  0
  9 10  2  0  0  0  0
 10  8  1  0  0  0  0
 10 19  1  0  0  0  0
 11 12  2  0  0  0  0
 13 15  1  0  0  0  0
 14 15  1  0  0  0  0
 16 11  1  6  0  0  0
 16 13  1  0  0  0  0
 17 16  1  0  0  0  0
 17 14  1  0  0  0  0
 19 18  1  0  0  0  0
 20 21  2  0  0  0  0
 22 23  1  0  0  0  0
 23 25  2  0  0  0  0
 24 27  2  0  0  0  0
 26 22  2  0  0  0  0
 26 24  1  0  0  0  0
 27 25  1  0  0  0  0
 27 21  1  0  0  0  0
 28 30  1  0  0  0  0
 28 22  1  0  0  0  0
 29 28  2  0  0  0  0
 31 30  1  0  0  0  0
M  END
>  <MODEL>
1

>  <REMARK>
 VINA RESULT:      -7.7      0.000      0.000
  Name = 
  7 active torsions:
  status: ('A' for Active; 'I' for Inactive)
    1  A    between atoms: N_3  and  C_18
    2  A    between atoms: C_5  and  C_10
    3  A    between atoms: C_6  and  N_29
    4  A    between atoms: C_12  and  C_28
    5  A    between atoms: O_21  and  C_25
    6  A    between atoms: C_22  and  C_24
    7  A    between atoms: C_22  and  C_27
                            x       y       z     vdW  Elec       q    Type
                         _______ _______ _______ _____ _____    ______ ____

>  <TORSDO>
F 7

$$$$
=
 OpenBabel11042420253D

 31 34  0  0  1  0  0  0  0  0999 V2000
  161.4100  207.8500  156.1000 C   0  0  2  0  0  3  0  0  0  0  0  0
  160.9630  207.5830  154.7030 N   0  0  0  0  0  0  0  0  0  0  0  0
  161.0150  206.6800  156.9760 C   0  0  0  0  0  1  0  0  0  0  0  0
  160.2850  208.5150  155.6550 C   0  0  2  0  0  3  0  0  0  0  0  0
  161.1220  205.5440  153.3760 C   0  0  0  0  0  3  0  0  0  0  0  0
  161.2360  204.8950  152.1450 C   0  0  0  0  0  3  0  0  0  0  0  0
  161.3150  205.6350  150.9620 C   0  0  0  0  0  0  0  0  0  0  0  0
  161.2760  207.0380  151.0240 C   0  0  0  0  0  3  0  0  0  0  0  0
  161.0830  206.9400  153.4370 C   0  0  0  0  0  0  0  0  0  0  0  0
  161.1600  207.6980  152.2570 C   0  0  0  0  0  0  0  0  0  0  0  0
  161.4570  205.5420  148.5680 C   0  0  0  0  0  3  0  0  0  0  0  0
  161.4330  204.9410  149.7160 N   0  0  0  0  0  0  0  0  0  0  0  0
  162.9490  204.9440  146.6940 C   0  0  0  0  0  2  0  0  0  0  0  0
  161.2920  205.0810  145.1190 C   0  0  0  0  0  2  0  0  0  0  0  0
  162.7300  205.2220  145.2940 N   0  0  0  0  0  2  0  0  0  0  0  0
  161.5810  204.7700  147.2960 C   0  0  2  0  0  3  0  0  0  0  0  0
  160.6480  205.2190  146.3580 O   0  0  0  0  0  0  0  0  0  0  0  0
  162.0940  209.9270  151.7170 C   0  0  0  0  0  1  0  0  0  0  0  0
  161.1190  209.0950  152.3320 O   0  0  0  0  0  0  0  0  0  0  0  0
  161.8170  210.3280  155.3860 O   0  0  0  0  0  0  0  0  0  0  0  0
  160.6180  209.9400  155.3130 C   0  0  0  0  0  0  0  0  0  0  0  0
  157.5900  212.6660  153.9520 C   0  0  0  0  0  0  0  0  0  0  0  0
  157.3410  211.8180  155.0400 C   0  0  0  0  0  3  0  0  0  0  0  0
  159.8210  211.7250  153.7610 C   0  0  0  0  0  3  0  0  0  0  0  0
  158.3240  210.9310  155.4840 C   0  0  0  0  0  3  0  0  0  0  0  0
  158.8370  212.6120  153.3160 C   0  0  0  0  0  3  0  0  0  0  0  0
  159.5740  210.8770  154.8490 C   0  0  0  0  0  0  0  0  0  0  0  0
  156.5530  213.6020  153.4840 C   0  0  0  0  0  0  0  0  0  0  0  0
  156.8240  214.4490  152.5900 O   0  0  0  0  0  0  0  0  0  0  0  0
  155.2370  213.5510  154.0430 N   0  0  0  0  0  2  0  0  0  0  0  0
  154.1810  214.4530  153.6140 C   0  0  0  0  0  1  0  0  0  0  0  0
  1  3  1  1  0  0  0
  2  4  1  0  0  0  0
  2  1  1  0  0  0  0
  4 21  1  6  0  0  0
  4  1  1  0  0  0  0
  5  9  1  0  0  0  0
  6  5  2  0  0  0  0
  7  8  2  0  0  0  0
  7  6  1  0  0  0  0
  8 10  1  0  0  0  0
  9  2  1  0  0  0  0
 10 19  1  0  0  0  0
 10  9  2  0  0  0  0
 11 12  2  0  0  0  0
 12  7  1  0  0  0  0
 13 16  1  0  0  0  0
 14 15  1  0  0  0  0
 14 17  1  0  0  0  0
 15 13  1  0  0  0  0
 16 11  1  1  0  0  0
 17 16  1  0  0  0  0
 18 19  1  0  0  0  0
 21 20  2  0  0  0  0
 22 23  1  0  0  0  0
 23 25  2  0  0  0  0
 24 27  2  0  0  0  0
 26 24  1  0  0  0  0
 26 22  2  0  0  0  0
 27 21  1  0  0  0  0
 27 25  1  0  0  0  0
 28 22  1  0  0  0  0
 28 30  1  0  0  0  0
 29 28  2  0  0  0  0
 31 30  1  0  0  0  0
M  END
>  <MODEL>
2

>  <REMARK>
 VINA RESULT:      -7.6      2.043      9.794
  Name = 
  7 active torsions:
  status: ('A' for Active; 'I' for Inactive)
    1  A    between atoms: N_3  and  C_18
    2  A    between atoms: C_5  and  C_10
    3  A    between atoms: C_6  and  N_29
    4  A    between atoms: C_12  and  C_28
    5  A    between atoms: O_21  and  C_25
    6  A    between atoms: C_22  and  C_24
    7  A    between atoms: C_22  and  C_27
                            x       y       z     vdW  Elec       q    Type
                         _______ _______ _______ _____ _____    ______ ____

>  <TORSDO>
F 7

$$$$
=
 OpenBabel11042420253D

 31 34  0  0  1  0  0  0  0  0999 V2000
  160.8170  209.4390  156.2060 C   0  0  2  0  0  3  0  0  0  0  0  0
  160.5690  209.9260  154.8190 N   0  0  0  0  0  0  0  0  0  0  0  0
  161.7440  210.4070  156.9100 C   0  0  0  0  0  1  0  0  0  0  0  0
  161.4840  208.8010  155.1790 C   0  0  2  0  0  3  0  0  0  0  0  0
  160.6100  211.1050  152.6860 C   0  0  0  0  0  3  0  0  0  0  0  0
  160.0140  211.9510  151.7470 C   0  0  0  0  0  3  0  0  0  0  0  0
  158.7480  212.4920  151.9870 C   0  0  0  0  0  0  0  0  0  0  0  0
  158.0810  212.1760  153.1830 C   0  0  0  0  0  3  0  0  0  0  0  0
  159.9450  210.7920  153.8750 C   0  0  0  0  0  0  0  0  0  0  0  0
  158.6720  211.3280  154.1310 C   0  0  0  0  0  0  0  0  0  0  0  0
  158.6770  213.5390  149.8290 C   0  0  0  0  0  3  0  0  0  0  0  0
  158.1650  213.3550  151.0060 N   0  0  0  0  0  0  0  0  0  0  0  0
  156.5420  214.2200  148.7940 C   0  0  0  0  0  2  0  0  0  0  0  0
  157.4450  214.4520  146.7010 C   0  0  0  0  0  2  0  0  0  0  0  0
  156.2010  214.1480  147.3920 N   0  0  0  0  0  2  0  0  0  0  0  0
  158.0280  214.4520  148.8420 C   0  0  2  0  0  3  0  0  0  0  0  0
  158.5310  214.2210  147.5590 O   0  0  0  0  0  0  0  0  0  0  0  0
  156.6040  210.8970  155.4220 C   0  0  0  0  0  1  0  0  0  0  0  0
  158.0180  211.0050  155.3260 O   0  0  0  0  0  0  0  0  0  0  0  0
  160.1520  206.9060  155.7620 O   0  0  0  0  0  0  0  0  0  0  0  0
  160.8330  207.4830  154.8700 C   0  0  0  0  0  0  0  0  0  0  0  0
  161.1370  205.7070  150.9700 C   0  0  0  0  0  0  0  0  0  0  0  0
  161.0870  207.1010  151.1100 C   0  0  0  0  0  3  0  0  0  0  0  0
  160.9890  205.4830  153.3840 C   0  0  0  0  0  3  0  0  0  0  0  0
  160.9890  207.6800  152.3770 C   0  0  0  0  0  3  0  0  0  0  0  0
  161.0870  204.9020  152.1160 C   0  0  0  0  0  3  0  0  0  0  0  0
  160.9400  206.8760  153.5260 C   0  0  0  0  0  0  0  0  0  0  0  0
  161.2420  205.0960  149.6330 C   0  0  0  0  0  0  0  0  0  0  0  0
  161.3470  205.8280  148.6110 O   0  0  0  0  0  0  0  0  0  0  0  0
  161.2270  203.6730  149.4930 N   0  0  0  0  0  2  0  0  0  0  0  0
  161.3290  203.0240  148.1960 C   0  0  0  0  0  1  0  0  0  0  0  0
  1  3  1  1  0  0  0
  2  4  1  0  0  0  0
  2  1  1  0  0  0  0
  4 21  1  6  0  0  0
  4  1  1  0  0  0  0
  5  9  1  0  0  0  0
  6  7  1  0  0  0  0
  6  5  2  0  0  0  0
  7  8  2  0  0  0  0
  8 10  1  0  0  0  0
  9 10  2  0  0  0  0
  9  2  1  0  0  0  0
 10 19  1  0  0  0  0
 11 12  2  0  0  0  0
 12  7  1  0  0  0  0
 13 16  1  0  0  0  0
 14 15  1  0  0  0  0
 14 17  1  0  0  0  0
 15 13  1  0  0  0  0
 16 11  1  1  0  0  0
 17 16  1  0  0  0  0
 19 18  1  0  0  0  0
 21 20  2  0  0  0  0
 22 23  2  0  0  0  0
 22 26  1  0  0  0  0
 23 25  1  0  0  0  0
 24 27  1  0  0  0  0
 25 27  2  0  0  0  0
 26 24  2  0  0  0  0
 27 21  1  0  0  0  0
 28 22  1  0  0  0  0
 29 28  2  0  0  0  0
 30 28  1  0  0  0  0
 31 30  1  0  0  0  0
M  END
>  <MODEL>
3

>  <REMARK>
 VINA RESULT:      -7.5      3.434      5.149
  Name = 
  7 active torsions:
  status: ('A' for Active; 'I' for Inactive)
    1  A    between atoms: N_3  and  C_18
    2  A    between atoms: C_5  and  C_10
    3  A    between atoms: C_6  and  N_29
    4  A    between atoms: C_12  and  C_28
    5  A    between atoms: O_21  and  C_25
    6  A    between atoms: C_22  and  C_24
    7  A    between atoms: C_22  and  C_27
                            x       y       z     vdW  Elec       q    Type
                         _______ _______ _______ _____ _____    ______ ____

>  <TORSDO>
F 7

$$$$
=
 OpenBabel11042420253D

 31 34  0  0  1  0  0  0  0  0999 V2000
  162.5250  207.2410  149.0710 C   0  0  2  0  0  3  0  0  0  0  0  0
  161.6650  207.7170  150.1910 N   0  0  0  0  0  0  0  0  0  0  0  0
  162.6440  208.3410  148.0380 C   0  0  0  0  0  1  0  0  0  0  0  0
  161.2280  206.7700  149.1200 C   0  0  2  0  0  3  0  0  0  0  0  0
  160.9250  207.8500  152.5100 C   0  0  0  0  0  3  0  0  0  0  0  0
  160.6910  208.5820  153.6770 C   0  0  0  0  0  3  0  0  0  0  0  0
  160.9620  209.9530  153.7160 C   0  0  0  0  0  0  0  0  0  0  0  0
  161.4710  210.5860  152.5700 C   0  0  0  0  0  3  0  0  0  0  0  0
  161.4310  208.4820  151.3710 C   0  0  0  0  0  0  0  0  0  0  0  0
  161.7080  209.8580  151.3940 C   0  0  0  0  0  0  0  0  0  0  0  0
  159.5260  211.0450  155.2990 C   0  0  0  0  0  3  0  0  0  0  0  0
  160.7110  210.6750  154.9260 N   0  0  0  0  0  0  0  0  0  0  0  0
  157.8580  212.0770  156.7980 C   0  0  0  0  0  2  0  0  0  0  0  0
  159.1650  213.9010  157.2610 C   0  0  0  0  0  2  0  0  0  0  0  0
  157.7780  213.4700  157.1710 N   0  0  0  0  0  2  0  0  0  0  0  0
  159.3190  211.7980  156.5710 C   0  0  2  0  0  3  0  0  0  0  0  0
  159.9800  213.0280  156.5250 O   0  0  0  0  0  0  0  0  0  0  0  0
  161.6150  211.6270  149.6630 C   0  0  0  0  0  1  0  0  0  0  0  0
  162.2160  210.4780  150.2460 O   0  0  0  0  0  0  0  0  0  0  0  0
  161.2160  205.1750  150.8980 O   0  0  0  0  0  0  0  0  0  0  0  0
  161.2000  205.3640  149.6500 C   0  0  0  0  0  0  0  0  0  0  0  0
  160.9190  201.9910  147.0050 C   0  0  0  0  0  0  0  0  0  0  0  0
  161.2220  203.2630  146.5000 C   0  0  0  0  0  3  0  0  0  0  0  0
  160.8030  202.9340  149.2400 C   0  0  0  0  0  3  0  0  0  0  0  0
  161.3140  204.3610  147.3570 C   0  0  0  0  0  3  0  0  0  0  0  0
  160.7100  201.8350  148.3820 C   0  0  0  0  0  3  0  0  0  0  0  0
  161.1060  204.2060  148.7360 C   0  0  0  0  0  0  0  0  0  0  0  0
  160.8240  200.8330  146.0990 C   0  0  0  0  0  0  0  0  0  0  0  0
  160.1160  200.9020  145.0570 O   0  0  0  0  0  0  0  0  0  0  0  0
  161.5330  199.6280  146.4000 N   0  0  0  0  0  2  0  0  0  0  0  0
  161.4710  198.4600  145.5380 C   0  0  0  0  0  1  0  0  0  0  0  0
  1  3  1  6  0  0  0
  1  4  1  0  0  0  0
  1  2  1  0  0  0  0
  2  9  1  0  0  0  0
  4 21  1  1  0  0  0
  4  2  1  0  0  0  0
  5  6  1  0  0  0  0
  6  7  2  0  0  0  0
  7 12  1  0  0  0  0
  8  7  1  0  0  0  0
  9 10  1  0  0  0  0
  9  5  2  0  0  0  0
 10  8  2  0  0  0  0
 12 11  2  0  0  0  0
 13 15  1  0  0  0  0
 15 14  1  0  0  0  0
 16 11  1  6  0  0  0
 16 13  1  0  0  0  0
 17 16  1  0  0  0  0
 17 14  1  0  0  0  0
 18 19  1  0  0  0  0
 19 10  1  0  0  0  0
 21 20  2  0  0  0  0
 22 26  1  0  0  0  0
 23 22  2  0  0  0  0
 23 25  1  0  0  0  0
 25 27  2  0  0  0  0
 26 24  2  0  0  0  0
 27 24  1  0  0  0  0
 27 21  1  0  0  0  0
 28 30  1  0  0  0  0
 28 22  1  0  0  0  0
 29 28  2  0  0  0  0
 31 30  1  0  0  0  0
M  END
>  <MODEL>
4

>  <REMARK>
 VINA RESULT:      -7.5      2.272      3.664
  Name = 
  7 active torsions:
  status: ('A' for Active; 'I' for Inactive)
    1  A    between atoms: N_3  and  C_18
    2  A    between atoms: C_5  and  C_10
    3  A    between atoms: C_6  and  N_29
    4  A    between atoms: C_12  and  C_28
    5  A    between atoms: O_21  and  C_25
    6  A    between atoms: C_22  and  C_24
    7  A    between atoms: C_22  and  C_27
                            x       y       z     vdW  Elec       q    Type
                         _______ _______ _______ _____ _____    ______ ____

>  <TORSDO>
F 7

$$$$
=
 OpenBabel11042420253D

 31 34  0  0  1  0  0  0  0  0999 V2000
  161.2620  209.2600  155.2340 C   0  0  2  0  0  3  0  0  0  0  0  0
  161.4380  209.5120  153.7750 N   0  0  0  0  0  0  0  0  0  0  0  0
  162.3250  210.0200  155.9980 C   0  0  0  0  0  1  0  0  0  0  0  0
  161.8400  208.2570  154.4800 C   0  0  2  0  0  3  0  0  0  0  0  0
  162.0620  209.9970  151.4690 C   0  0  0  0  0  3  0  0  0  0  0  0
  161.9580  210.7750  150.3140 C   0  0  0  0  0  3  0  0  0  0  0  0
  161.1080  211.8860  150.2860 C   0  0  0  0  0  0  0  0  0  0  0  0
  160.3610  212.2090  151.4300 C   0  0  0  0  0  3  0  0  0  0  0  0
  161.3180  210.3210  152.6070 C   0  0  0  0  0  0  0  0  0  0  0  0
  160.4600  211.4320  152.5950 C   0  0  0  0  0  0  0  0  0  0  0  0
  161.8380  212.5200  148.0890 C   0  0  0  0  0  3  0  0  0  0  0  0
  161.0230  212.6640  149.0870 N   0  0  0  0  0  0  0  0  0  0  0  0
  160.4600  212.9980  146.0970 C   0  0  0  0  0  2  0  0  0  0  0  0
  162.2670  213.2770  144.7160 C   0  0  0  0  0  2  0  0  0  0  0  0
  160.8680  212.8760  144.7170 N   0  0  0  0  0  2  0  0  0  0  0  0
  161.7060  213.3590  146.8610 C   0  0  2  0  0  3  0  0  0  0  0  0
  162.7950  213.1540  146.0100 O   0  0  0  0  0  0  0  0  0  0  0  0
  158.3180  211.5330  153.8330 C   0  0  0  0  0  1  0  0  0  0  0  0
  159.7210  211.7440  153.7420 O   0  0  0  0  0  0  0  0  0  0  0  0
  159.8970  206.9770  155.0180 O   0  0  0  0  0  0  0  0  0  0  0  0
  160.8450  207.1660  154.2060 C   0  0  0  0  0  0  0  0  0  0  0  0
  161.0940  204.7650  150.6530 C   0  0  0  0  0  0  0  0  0  0  0  0
  160.9130  206.1520  150.5580 C   0  0  0  0  0  3  0  0  0  0  0  0
  161.1110  204.9570  153.0740 C   0  0  0  0  0  3  0  0  0  0  0  0
  160.8320  206.9340  151.7120 C   0  0  0  0  0  3  0  0  0  0  0  0
  161.1920  204.1740  151.9190 C   0  0  0  0  0  3  0  0  0  0  0  0
  160.9320  206.3440  152.9810 C   0  0  0  0  0  0  0  0  0  0  0  0
  161.1810  203.9400  149.4350 C   0  0  0  0  0  0  0  0  0  0  0  0
  161.5930  204.4480  148.3560 O   0  0  0  0  0  0  0  0  0  0  0  0
  160.7990  202.5630  149.4750 N   0  0  0  0  0  2  0  0  0  0  0  0
  160.8680  201.7090  148.3000 C   0  0  0  0  0  1  0  0  0  0  0  0
  1  3  1  1  0  0  0
  2  4  1  0  0  0  0
  2  1  1  0  0  0  0
  4 21  1  6  0  0  0
  4  1  1  0  0  0  0
  5  9  1  0  0  0  0
  6  5  2  0  0  0  0
  7  6  1  0  0  0  0
  7  8  2  0  0  0  0
  8 10  1  0  0  0  0
  9  2  1  0  0  0  0
 10  9  2  0  0  0  0
 10 19  1  0  0  0  0
 11 12  2  0  0  0  0
 12  7  1  0  0  0  0
 13 16  1  0  0  0  0
 14 15  1  0  0  0  0
 14 17  1  0  0  0  0
 15 13  1  0  0  0  0
 16 11  1  1  0  0  0
 17 16  1  0  0  0  0
 19 18  1  0  0  0  0
 21 20  2  0  0  0  0
 22 26  1  0  0  0  0
 23 22  2  0  0  0  0
 23 25  1  0  0  0  0
 25 27  2  0  0  0  0
 26 24  2  0  0  0  0
 27 24  1  0  0  0  0
 27 21  1  0  0  0  0
 28 30  1  0  0  0  0
 28 22  1  0  0  0  0
 29 28  2  0  0  0  0
 31 30  1  0  0  0  0
M  END
>  <MODEL>
5

>  <REMARK>
 VINA RESULT:      -7.5      3.719      6.247
  Name = 
  7 active torsions:
  status: ('A' for Active; 'I' for Inactive)
    1  A    between atoms: N_3  and  C_18
    2  A    between atoms: C_5  and  C_10
    3  A    between atoms: C_6  and  N_29
    4  A    between atoms: C_12  and  C_28
    5  A    between atoms: O_21  and  C_25
    6  A    between atoms: C_22  and  C_24
    7  A    between atoms: C_22  and  C_27
                            x       y       z     vdW  Elec       q    Type
                         _______ _______ _______ _____ _____    ______ ____

>  <TORSDO>
F 7

$$$$
=
 OpenBabel11042420253D

 31 34  0  0  1  0  0  0  0  0999 V2000
  161.0670  206.2380  153.0220 C   0  0  2  0  0  3  0  0  0  0  0  0
  161.5630  206.9470  151.8070 N   0  0  0  0  0  0  0  0  0  0  0  0
  161.9560  206.5920  154.1950 C   0  0  0  0  0  1  0  0  0  0  0  0
  161.7730  205.4950  152.0960 C   0  0  2  0  0  3  0  0  0  0  0  0
  162.1730  207.9690  149.6800 C   0  0  0  0  0  3  0  0  0  0  0  0
  162.3310  209.0940  148.8670 C   0  0  0  0  0  3  0  0  0  0  0  0
  162.0360  210.3680  149.3600 C   0  0  0  0  0  0  0  0  0  0  0  0
  161.5790  210.5050  150.6810 C   0  0  0  0  0  3  0  0  0  0  0  0
  161.7190  208.1080  150.9940 C   0  0  0  0  0  0  0  0  0  0  0  0
  161.4180  209.3800  151.5050 C   0  0  0  0  0  0  0  0  0  0  0  0
  161.2230  212.0950  147.9050 C   0  0  0  0  0  3  0  0  0  0  0  0
  162.2080  211.5010  148.5030 N   0  0  0  0  0  0  0  0  0  0  0  0
  160.5400  213.2400  145.8260 C   0  0  0  0  0  2  0  0  0  0  0  0
  162.6820  213.8140  145.2500 C   0  0  0  0  0  2  0  0  0  0  0  0
  161.3750  213.5190  144.6810 N   0  0  0  0  0  2  0  0  0  0  0  0
  161.4580  213.2730  147.0190 C   0  0  2  0  0  3  0  0  0  0  0  0
  162.7710  213.2710  146.5400 O   0  0  0  0  0  0  0  0  0  0  0  0
  161.5860  210.3550  153.7750 C   0  0  0  0  0  1  0  0  0  0  0  0
  160.9620  209.5040  152.8230 O   0  0  0  0  0  0  0  0  0  0  0  0
  159.9250  204.0030  151.8440 O   0  0  0  0  0  0  0  0  0  0  0  0
  160.8360  204.6610  151.2690 C   0  0  0  0  0  0  0  0  0  0  0  0
  161.1270  204.6000  146.9830 C   0  0  0  0  0  0  0  0  0  0  0  0
  161.5860  203.5120  147.7390 C   0  0  0  0  0  3  0  0  0  0  0  0
  160.4790  205.7220  149.0380 C   0  0  0  0  0  3  0  0  0  0  0  0
  161.4920  203.5290  149.1320 C   0  0  0  0  0  3  0  0  0  0  0  0
  160.5730  205.7050  147.6440 C   0  0  0  0  0  3  0  0  0  0  0  0
  160.9370  204.6350  149.7940 C   0  0  0  0  0  0  0  0  0  0  0  0
  161.2250  204.5810  145.5130 C   0  0  0  0  0  0  0  0  0  0  0  0
  161.0850  203.4960  144.8850 O   0  0  0  0  0  0  0  0  0  0  0  0
  161.4770  205.7920  144.7970 N   0  0  0  0  0  2  0  0  0  0  0  0
  161.5810  205.8240  143.3470 C   0  0  0  0  0  1  0  0  0  0  0  0
  1  3  1  1  0  0  0
  2  4  1  0  0  0  0
  2  1  1  0  0  0  0
  4 21  1  6  0  0  0
  4  1  1  0  0  0  0
  5  9  1  0  0  0  0
  6  7  1  0  0  0  0
  6  5  2  0  0  0  0
  7  8  2  0  0  0  0
  8 10  1  0  0  0  0
  9 10  2  0  0  0  0
  9  2  1  0  0  0  0
 10 19  1  0  0  0  0
 11 12  2  0  0  0  0
 12  7  1  0  0  0  0
 13 16  1  0  0  0  0
 14 17  1  0  0  0  0
 15 14  1  0  0  0  0
 15 13  1  0  0  0  0
 16 11  1  1  0  0  0
 17 16  1  0  0  0  0
 19 18  1  0  0  0  0
 21 20  2  0  0  0  0
 22 26  2  0  0  0  0
 22 23  1  0  0  0  0
 23 25  2  0  0  0  0
 24 27  2  0  0  0  0
 25 27  1  0  0  0  0
 26 24  1  0  0  0  0
 27 21  1  0  0  0  0
 28 22  1  0  0  0  0
 29 28  2  0  0  0  0
 30 28  1  0  0  0  0
 31 30  1  0  0  0  0
M  END
>  <MODEL>
6

>  <REMARK>
 VINA RESULT:      -7.3      3.966      5.950
  Name = 
  7 active torsions:
  status: ('A' for Active; 'I' for Inactive)
    1  A    between atoms: N_3  and  C_18
    2  A    between atoms: C_5  and  C_10
    3  A    between atoms: C_6  and  N_29
    4  A    between atoms: C_12  and  C_28
    5  A    between atoms: O_21  and  C_25
    6  A    between atoms: C_22  and  C_24
    7  A    between atoms: C_22  and  C_27
                            x       y       z     vdW  Elec       q    Type
                         _______ _______ _______ _____ _____    ______ ____

>  <TORSDO>
F 7

$$$$
=
 OpenBabel11042420253D

 31 34  0  0  1  0  0  0  0  0999 V2000
  161.7840  205.7660  152.5890 C   0  0  2  0  0  3  0  0  0  0  0  0
  161.9240  206.5300  151.3160 N   0  0  0  0  0  0  0  0  0  0  0  0
  163.0540  205.9190  153.3980 C   0  0  0  0  0  1  0  0  0  0  0  0
  162.0340  205.0440  151.4380 C   0  0  2  0  0  3  0  0  0  0  0  0
  161.9470  207.6750  149.1650 C   0  0  0  0  0  3  0  0  0  0  0  0
  161.9610  208.8490  148.4070 C   0  0  0  0  0  3  0  0  0  0  0  0
  161.9700  210.0960  149.0370 C   0  0  0  0  0  0  0  0  0  0  0  0
  161.9640  210.1570  150.4410 C   0  0  0  0  0  3  0  0  0  0  0  0
  161.9410  207.7380  150.5610 C   0  0  0  0  0  0  0  0  0  0  0  0
  161.9490  208.9840  151.2100 C   0  0  0  0  0  0  0  0  0  0  0  0
  161.3570  212.3660  148.5570 C   0  0  0  0  0  3  0  0  0  0  0  0
  161.9860  211.2800  148.2330 N   0  0  0  0  0  0  0  0  0  0  0  0
  160.3410  213.5100  146.6190 C   0  0  0  0  0  2  0  0  0  0  0  0
  162.3510  214.2210  145.7810 C   0  0  0  0  0  2  0  0  0  0  0  0
  160.9990  213.8600  145.3820 N   0  0  0  0  0  2  0  0  0  0  0  0
  161.4060  213.5740  147.6810 C   0  0  2  0  0  3  0  0  0  0  0  0
  162.6410  213.6590  147.0340 O   0  0  0  0  0  0  0  0  0  0  0  0
  160.7620  209.2740  153.3640 C   0  0  0  0  0  1  0  0  0  0  0  0
  161.9420  209.0310  152.6090 O   0  0  0  0  0  0  0  0  0  0  0  0
  159.6840  204.6280  151.5320 O   0  0  0  0  0  0  0  0  0  0  0  0
  160.7760  204.3870  150.9460 C   0  0  0  0  0  0  0  0  0  0  0  0
  160.8250  201.8280  147.4960 C   0  0  0  0  0  0  0  0  0  0  0  0
  160.4280  201.3260  148.7440 C   0  0  0  0  0  3  0  0  0  0  0  0
  161.1870  204.0030  148.5140 C   0  0  0  0  0  3  0  0  0  0  0  0
  160.4110  202.1560  149.8670 C   0  0  0  0  0  3  0  0  0  0  0  0
  161.2040  203.1730  147.3900 C   0  0  0  0  0  3  0  0  0  0  0  0
  160.7900  203.5030  149.7620 C   0  0  0  0  0  0  0  0  0  0  0  0
  160.8410  200.9520  146.3120 C   0  0  0  0  0  0  0  0  0  0  0  0
  160.4540  201.3930  145.1950 O   0  0  0  0  0  0  0  0  0  0  0  0
  161.2970  199.6010  146.4260 N   0  0  0  0  0  2  0  0  0  0  0  0
  161.3330  198.7000  145.2860 C   0  0  0  0  0  1  0  0  0  0  0  0
  1  3  1  1  0  0  0
  2  4  1  0  0  0  0
  2  1  1  0  0  0  0
  4 21  1  6  0  0  0
  4  1  1  0  0  0  0
  5  9  1  0  0  0  0
  6  7  1  0  0  0  0
  6  5  2  0  0  0  0
  7  8  2  0  0  0  0
  8 10  1  0  0  0  0
  9 10  2  0  0  0  0
  9  2  1  0  0  0  0
 10 19  1  0  0  0  0
 12 11  2  0  0  0  0
 12  7  1  0  0  0  0
 13 16  1  0  0  0  0
 14 17  1  0  0  0  0
 15 14  1  0  0  0  0
 15 13  1  0  0  0  0
 16 11  1  6  0  0  0
 17 16  1  0  0  0  0
 19 18  1  0  0  0  0
 21 20  2  0  0  0  0
 22 23  1  0  0  0  0
 23 25  2  0  0  0  0
 24 27  2  0  0  0  0
 26 22  2  0  0  0  0
 26 24  1  0  0  0  0
 27 25  1  0  0  0  0
 27 21  1  0  0  0  0
 28 30  1  0  0  0  0
 28 22  1  0  0  0  0
 29 28  2  0  0  0  0
 31 30  1  0  0  0  0
M  END
>  <MODEL>
7

>  <REMARK>
 VINA RESULT:      -7.3      4.149      5.860
  Name = 
  7 active torsions:
  status: ('A' for Active; 'I' for Inactive)
    1  A    between atoms: N_3  and  C_18
    2  A    between atoms: C_5  and  C_10
    3  A    between atoms: C_6  and  N_29
    4  A    between atoms: C_12  and  C_28
    5  A    between atoms: O_21  and  C_25
    6  A    between atoms: C_22  and  C_24
    7  A    between atoms: C_22  and  C_27
                            x       y       z     vdW  Elec       q    Type
                         _______ _______ _______ _____ _____    ______ ____

>  <TORSDO>
F 7

$$$$
=
 OpenBabel11042420253D

 31 34  0  0  1  0  0  0  0  0999 V2000
  161.7760  205.3850  151.3550 C   0  0  2  0  0  3  0  0  0  0  0  0
  161.4970  206.8100  151.0150 N   0  0  0  0  0  0  0  0  0  0  0  0
  161.1030  204.4930  150.3340 C   0  0  0  0  0  1  0  0  0  0  0  0
  160.8280  206.0450  152.1120 C   0  0  2  0  0  3  0  0  0  0  0  0
  161.9740  209.1970  150.8950 C   0  0  0  0  0  3  0  0  0  0  0  0
  162.1820  210.3650  150.1570 C   0  0  0  0  0  3  0  0  0  0  0  0
  162.1180  210.3380  148.7610 C   0  0  0  0  0  0  0  0  0  0  0  0
  161.8450  209.1240  148.1080 C   0  0  0  0  0  3  0  0  0  0  0  0
  161.7030  207.9910  150.2440 C   0  0  0  0  0  0  0  0  0  0  0  0
  161.6360  207.9460  148.8420 C   0  0  0  0  0  0  0  0  0  0  0  0
  161.3690  212.3050  147.6080 C   0  0  0  0  0  3  0  0  0  0  0  0
  162.3340  211.5510  148.0330 N   0  0  0  0  0  0  0  0  0  0  0  0
  160.4290  214.0180  146.0990 C   0  0  0  0  0  2  0  0  0  0  0  0
  162.3310  214.1790  144.8340 C   0  0  0  0  0  2  0  0  0  0  0  0
  160.8870  214.3400  144.7680 N   0  0  0  0  0  2  0  0  0  0  0  0
  161.6490  213.5620  146.8530 C   0  0  2  0  0  3  0  0  0  0  0  0
  162.6670  213.3540  145.9180 O   0  0  0  0  0  0  0  0  0  0  0  0
  162.1680  206.2200  147.1490 C   0  0  0  0  0  1  0  0  0  0  0  0
  161.3640  206.7310  148.2030 O   0  0  0  0  0  0  0  0  0  0  0  0
  162.4070  205.8220  153.8900 O   0  0  0  0  0  0  0  0  0  0  0  0
  161.4010  206.4400  153.4440 C   0  0  0  0  0  0  0  0  0  0  0  0
  159.7540  209.7070  155.6950 C   0  0  0  0  0  0  0  0  0  0  0  0
  160.4490  209.9490  154.5020 C   0  0  0  0  0  3  0  0  0  0  0  0
  160.1400  207.3260  155.4080 C   0  0  0  0  0  3  0  0  0  0  0  0
  160.9850  208.8890  153.7680 C   0  0  0  0  0  3  0  0  0  0  0  0
  159.6040  208.3870  156.1420 C   0  0  0  0  0  3  0  0  0  0  0  0
  160.8340  207.5670  154.2140 C   0  0  0  0  0  0  0  0  0  0  0  0
  159.1870  210.8260  156.4680 C   0  0  0  0  0  0  0  0  0  0  0  0
  159.9190  211.4800  157.2610 O   0  0  0  0  0  0  0  0  0  0  0  0
  157.8080  211.1720  156.3210 N   0  0  0  0  0  2  0  0  0  0  0  0
  157.2040  212.2680  157.0610 C   0  0  0  0  0  1  0  0  0  0  0  0
  1  3  1  6  0  0  0
  1  4  1  0  0  0  0
  2  1  1  0  0  0  0
  2  4  1  0  0  0  0
  4 21  1  1  0  0  0
  6  5  2  0  0  0  0
  7  6  1  0  0  0  0
  8  7  2  0  0  0  0
  8 10  1  0  0  0  0
  9  5  1  0  0  0  0
  9  2  1  0  0  0  0
 10  9  2  0  0  0  0
 11 12  2  0  0  0  0
 12  7  1  0  0  0  0
 13 16  1  0  0  0  0
 14 17  1  0  0  0  0
 15 14  1  0  0  0  0
 15 13  1  0  0  0  0
 16 11  1  6  0  0  0
 17 16  1  0  0  0  0
 18 19  1  0  0  0  0
 19 10  1  0  0  0  0
 21 20  2  0  0  0  0
 21 27  1  0  0  0  0
 22 26  1  0  0  0  0
 22 28  1  0  0  0  0
 23 22  2  0  0  0  0
 24 26  2  0  0  0  0
 25 27  2  0  0  0  0
 25 23  1  0  0  0  0
 27 24  1  0  0  0  0
 28 29  2  0  0  0  0
 30 28  1  0  0  0  0
 30 31  1  0  0  0  0
M  END
>  <MODEL>
8

>  <REMARK>
 VINA RESULT:      -7.0      3.804      8.832
  Name = 
  7 active torsions:
  status: ('A' for Active; 'I' for Inactive)
    1  A    between atoms: N_3  and  C_18
    2  A    between atoms: C_5  and  C_10
    3  A    between atoms: C_6  and  N_29
    4  A    between atoms: C_12  and  C_28
    5  A    between atoms: O_21  and  C_25
    6  A    between atoms: C_22  and  C_24
    7  A    between atoms: C_22  and  C_27
                            x       y       z     vdW  Elec       q    Type
                         _______ _______ _______ _____ _____    ______ ____

>  <TORSDO>
F 7

$$$$
=
 OpenBabel11042420253D

 31 34  0  0  1  0  0  0  0  0999 V2000
  162.3850  207.1180  149.2720 C   0  0  2  0  0  3  0  0  0  0  0  0
  161.5040  207.6670  150.3420 N   0  0  0  0  0  0  0  0  0  0  0  0
  162.6620  208.2050  148.2560 C   0  0  0  0  0  1  0  0  0  0  0  0
  161.0510  206.7640  149.2410 C   0  0  2  0  0  3  0  0  0  0  0  0
  161.1410  209.8340  151.3960 C   0  0  0  0  0  3  0  0  0  0  0  0
  160.9080  210.6170  152.5300 C   0  0  0  0  0  3  0  0  0  0  0  0
  160.8020  210.0200  153.7890 C   0  0  0  0  0  0  0  0  0  0  0  0
  160.9300  208.6260  153.9030 C   0  0  0  0  0  3  0  0  0  0  0  0
  161.2690  208.4470  151.5110 C   0  0  0  0  0  0  0  0  0  0  0  0
  161.1640  207.8330  152.7690 C   0  0  0  0  0  0  0  0  0  0  0  0
  159.4230  210.9010  155.5450 C   0  0  0  0  0  3  0  0  0  0  0  0
  160.5640  210.8490  154.9320 N   0  0  0  0  0  0  0  0  0  0  0  0
  157.7640  211.9410  157.0490 C   0  0  0  0  0  2  0  0  0  0  0  0
  158.8920  213.9310  157.1800 C   0  0  0  0  0  2  0  0  0  0  0  0
  157.5580  213.3550  157.2600 N   0  0  0  0  0  2  0  0  0  0  0  0
  159.2270  211.7840  156.7330 C   0  0  2  0  0  3  0  0  0  0  0  0
  159.7430  213.0580  156.4850 O   0  0  0  0  0  0  0  0  0  0  0  0
  161.0500  205.7330  154.0760 C   0  0  0  0  0  1  0  0  0  0  0  0
  161.2930  206.4430  152.8690 O   0  0  0  0  0  0  0  0  0  0  0  0
  160.6790  205.1840  150.9930 O   0  0  0  0  0  0  0  0  0  0  0  0
  160.8660  205.3650  149.7580 C   0  0  0  0  0  0  0  0  0  0  0  0
  160.8400  202.0070  147.0790 C   0  0  0  0  0  0  0  0  0  0  0  0
  160.5410  201.8310  148.4370 C   0  0  0  0  0  3  0  0  0  0  0  0
  161.1540  204.3820  147.4820 C   0  0  0  0  0  3  0  0  0  0  0  0
  160.5490  202.9210  149.3100 C   0  0  0  0  0  3  0  0  0  0  0  0
  161.1460  203.2910  146.6080 C   0  0  0  0  0  3  0  0  0  0  0  0
  160.8550  204.2070  148.8400 C   0  0  0  0  0  0  0  0  0  0  0  0
  160.8300  200.8570  146.1590 C   0  0  0  0  0  0  0  0  0  0  0  0
  160.2060  200.9280  145.0650 O   0  0  0  0  0  0  0  0  0  0  0  0
  161.5300  199.6580  146.5030 N   0  0  0  0  0  2  0  0  0  0  0  0
  161.5510  198.4980  145.6270 C   0  0  0  0  0  1  0  0  0  0  0  0
  1  3  1  6  0  0  0
  1  2  1  0  0  0  0
  2  9  1  0  0  0  0
  4  1  1  0  0  0  0
  4 21  1  1  0  0  0
  4  2  1  0  0  0  0
  5  9  2  0  0  0  0
  5  6  1  0  0  0  0
  6  7  2  0  0  0  0
  7  8  1  0  0  0  0
  7 12  1  0  0  0  0
  9 10  1  0  0  0  0
 10 19  1  0  0  0  0
 10  8  2  0  0  0  0
 12 11  2  0  0  0  0
 13 15  1  0  0  0  0
 14 15  1  0  0  0  0
 16 11  1  6  0  0  0
 16 13  1  0  0  0  0
 17 16  1  0  0  0  0
 17 14  1  0  0  0  0
 19 18  1  0  0  0  0
 21 20  2  0  0  0  0
 22 23  1  0  0  0  0
 23 25  2  0  0  0  0
 24 27  2  0  0  0  0
 26 22  2  0  0  0  0
 26 24  1  0  0  0  0
 27 25  1  0  0  0  0
 27 21  1  0  0  0  0
 28 30  1  0  0  0  0
 28 22  1  0  0  0  0
 29 28  2  0  0  0  0
 31 30  1  0  0  0  0
M  END
>  <MODEL>
9

>  <REMARK>
 VINA RESULT:      -6.9      2.171      2.980
  Name = 
  7 active torsions:
  status: ('A' for Active; 'I' for Inactive)
    1  A    between atoms: N_3  and  C_18
    2  A    between atoms: C_5  and  C_10
    3  A    between atoms: C_6  and  N_29
    4  A    between atoms: C_12  and  C_28
    5  A    between atoms: O_21  and  C_25
    6  A    between atoms: C_22  and  C_24
    7  A    between atoms: C_22  and  C_27
                            x       y       z     vdW  Elec       q    Type
                         _______ _______ _______ _____ _____    ______ ____

>  <TORSDO>
F 7

$$$$
