=
 OpenBabel11052410453D

 37 40  0  0  1  0  0  0  0  0999 V2000
  161.9430  209.4130  152.3290 C   0  0  0  0  0  0  0  0  0  0  0  0
  161.9030  208.2260  151.5430 N   0  0  0  0  0  0  0  0  0  0  0  0
  162.3260  207.4020  150.3700 C   0  0  1  0  0  3  0  0  0  0  0  0
  162.7100  210.3540  151.9960 O   0  0  0  0  0  0  0  0  0  0  0  0
  161.4420  206.8350  151.2660 C   0  0  1  0  0  3  0  0  0  0  0  0
  160.2290  210.4960  153.7190 O   0  0  0  0  0  0  0  0  0  0  0  0
  161.1120  208.6640  154.6120 C   0  0  0  0  0  3  0  0  0  0  0  0
  159.8090  208.7720  156.5510 O   0  0  0  0  0  0  0  0  0  0  0  0
  159.6360  210.3400  154.8630 N   0  0  0  0  0  0  0  0  0  0  0  0
  161.1050  209.5350  153.5280 C   0  0  0  0  0  0  0  0  0  0  0  0
  160.1520  209.2290  155.4280 C   0  0  0  0  0  0  0  0  0  0  0  0
  156.4790  212.3310  155.0930 C   0  0  0  0  0  3  0  0  0  0  0  0
  156.6090  212.9160  156.3550 C   0  0  0  0  0  0  0  0  0  0  0  0
  155.3500  213.9650  156.9690 Cl  0  0  0  0  0  0  0  0  0  0  0  0
  157.7460  212.6640  157.1270 C   0  0  0  0  0  3  0  0  0  0  0  0
  158.7490  211.8210  156.6390 C   0  0  0  0  0  3  0  0  0  0  0  0
  158.6240  211.2250  155.3740 C   0  0  0  0  0  0  0  0  0  0  0  0
  157.4820  211.4900  154.6060 C   0  0  0  0  0  3  0  0  0  0  0  0
  160.6910  207.1670  148.6420 O   0  0  0  0  0  0  0  0  0  0  0  0
  161.9230  209.1350  148.5680 N   0  0  0  0  0  1  0  0  0  0  0  0
  161.6100  207.8680  149.1420 C   0  0  0  0  0  0  0  0  0  0  0  0
  162.1780  205.8790  152.1860 C   0  0  0  0  0  2  0  0  0  0  0  0
  161.1940  205.0300  152.9720 C   0  0  0  0  0  2  0  0  0  0  0  0
  160.5060  204.0320  152.0590 C   0  0  1  0  0  3  0  0  0  0  0  0
  161.4140  203.6780  150.9770 C   0  0  1  0  0  3  0  0  0  0  0  0
  161.2260  202.7500  152.1020 N   0  0  0  0  0  2  0  0  0  0  0  0
  160.6230  203.1930  149.7810 C   0  0  0  0  0  2  0  0  0  0  0  0
  161.1840  203.8230  148.5120 C   0  0  0  0  0  2  0  0  0  0  0  0
  161.6180  202.7790  147.4840 C   0  0  1  0  0  3  0  0  0  0  0  0
  160.9410  201.4340  147.7180 C   0  0  0  0  0  2  0  0  0  0  0  0
  161.8790  200.4030  147.6330 O   0  0  0  0  0  0  0  0  0  0  0  0
  161.3810  199.5810  146.7340 O   0  0  0  0  0  1  0  0  0  0  0  0
  161.3010  203.3640  145.7880 S   0  0  0  0  0  0  0  0  0  0  0  0
  162.4860  204.7010  145.9210 C   0  0  0  0  0  0  0  0  0  0  0  0
  163.6480  204.4560  146.2010 O   0  0  0  0  0  0  0  0  0  0  0  0
  160.6170  206.1460  145.4370 N   0  0  0  0  0  1  0  0  0  0  0  0
  162.0420  206.1130  145.7230 C   0  0  0  0  0  2  0  0  0  0  0  0
  1 10  1  0  0  0  0
  2  1  1  0  0  0  0
  3 21  1  6  0  0  0
  3  5  1  0  0  0  0
  3  2  1  0  0  0  0
  4  1  2  0  0  0  0
  5  2  1  0  0  0  0
  5 22  1  1  0  0  0
  6  9  1  0  0  0  0
  7 11  1  0  0  0  0
  9 17  1  0  0  0  0
  9 11  1  0  0  0  0
 10  6  1  0  0  0  0
 10  7  2  0  0  0  0
 11  8  2  0  0  0  0
 12 13  1  0  0  0  0
 13 14  1  0  0  0  0
 13 15  2  0  0  0  0
 16 15  1  0  0  0  0
 17 16  2  0  0  0  0
 18 12  2  0  0  0  0
 18 17  1  0  0  0  0
 19 21  2  0  0  0  0
 20 21  1  0  0  0  0
 22 23  1  0  0  0  0
 24 26  1  0  0  0  0
 24 23  1  1  0  0  0
 25 27  1  6  0  0  0
 25 24  1  0  0  0  0
 25 26  1  0  0  0  0
 28 27  1  0  0  0  0
 29 30  1  1  0  0  0
 29 28  1  0  0  0  0
 31 30  1  0  0  0  0
 32 31  1  0  0  0  0
 33 34  1  0  0  0  0
 33 29  1  0  0  0  0
 34 35  2  0  0  0  0
 36 37  1  0  0  0  0
 37 34  1  0  0  0  0
M  END
>  <MODEL>
1

>  <REMARK>
 VINA RESULT:      -7.3      0.000      0.000
  Name = 
  14 active torsions:
  status: ('A' for Active; 'I' for Inactive)
    1  A    between atoms: C_2  and  O_7
    2  A    between atoms: C_2  and  C_25
    3  A    between atoms: C_3  and  C_29
    4  A    between atoms: C_5  and  S_18
    5  A    between atoms: C_5  and  C_37
    6  A    between atoms: C_6  and  C_14
    7  A    between atoms: C_6  and  C_25
    8  A    between atoms: C_8  and  C_13
    9  A    between atoms: C_13  and  C_33
   10  A    between atoms: C_14  and  C_22
   11  A    between atoms: S_18  and  C_25
   12  A    between atoms: C_23  and  C_31
   13  A    between atoms: N_27  and  C_30
   14  A    between atoms: C_33  and  C_34
                            x       y       z     vdW  Elec       q    Type
                         _______ _______ _______ _____ _____    ______ ____

>  <TORSDO>
F 14

$$$$
=
 OpenBabel11052410453D

 37 40  0  0  1  0  0  0  0  0999 V2000
  161.6200  206.7090  152.8240 C   0  0  0  0  0  0  0  0  0  0  0  0
  161.4120  208.1110  152.6860 N   0  0  0  0  0  0  0  0  0  0  0  0
  161.4270  209.5090  153.2150 C   0  0  1  0  0  3  0  0  0  0  0  0
  162.0730  206.2520  153.9060 O   0  0  0  0  0  0  0  0  0  0  0  0
  161.0470  209.3250  151.9000 C   0  0  1  0  0  3  0  0  0  0  0  0
  161.4540  206.1280  150.4420 O   0  0  0  0  0  0  0  0  0  0  0  0
  160.8690  204.4940  151.8280 C   0  0  0  0  0  3  0  0  0  0  0  0
  160.3800  202.9800  150.1130 O   0  0  0  0  0  0  0  0  0  0  0  0
  161.1220  205.1260  149.6860 N   0  0  0  0  0  0  0  0  0  0  0  0
  161.3220  205.8030  151.7090 C   0  0  0  0  0  0  0  0  0  0  0  0
  160.7640  204.1150  150.5040 C   0  0  0  0  0  0  0  0  0  0  0  0
  160.6280  206.2980  146.1700 C   0  0  0  0  0  3  0  0  0  0  0  0
  161.2320  205.2670  145.4450 C   0  0  0  0  0  0  0  0  0  0  0  0
  161.2860  205.3420  143.6970 Cl  0  0  0  0  0  0  0  0  0  0  0  0
  161.7930  204.1780  146.1160 C   0  0  0  0  0  3  0  0  0  0  0  0
  161.7540  204.1230  147.5120 C   0  0  0  0  0  3  0  0  0  0  0  0
  161.1540  205.1560  148.2490 C   0  0  0  0  0  0  0  0  0  0  0  0
  160.5900  206.2420  147.5650 C   0  0  0  0  0  3  0  0  0  0  0  0
  159.3430  210.5540  153.7400 O   0  0  0  0  0  0  0  0  0  0  0  0
  160.0610  208.9690  155.2780 N   0  0  0  0  0  1  0  0  0  0  0  0
  160.2310  209.7310  154.0850 C   0  0  0  0  0  0  0  0  0  0  0  0
  162.1970  209.6770  150.9740 C   0  0  0  0  0  2  0  0  0  0  0  0
  162.0300  211.0830  150.4250 C   0  0  0  0  0  2  0  0  0  0  0  0
  162.0050  211.0610  148.9070 C   0  0  1  0  0  3  0  0  0  0  0  0
  161.4450  212.3160  148.4270 C   0  0  1  0  0  3  0  0  0  0  0  0
  162.9000  212.1050  148.3870 N   0  0  0  0  0  2  0  0  0  0  0  0
  160.8670  212.1230  147.0420 C   0  0  0  0  0  2  0  0  0  0  0  0
  159.7260  213.1120  146.8260 C   0  0  0  0  0  2  0  0  0  0  0  0
  158.7490  212.6470  145.7470 C   0  0  1  0  0  3  0  0  0  0  0  0
  157.3140  212.6070  146.2570 C   0  0  0  0  0  2  0  0  0  0  0  0
  157.3010  212.5850  147.6530 O   0  0  0  0  0  0  0  0  0  0  0  0
  156.6250  213.6620  147.9910 O   0  0  0  0  0  1  0  0  0  0  0  0
  158.8670  213.7010  144.2650 S   0  0  0  0  0  0  0  0  0  0  0  0
  160.1750  212.7110  143.5440 C   0  0  0  0  0  0  0  0  0  0  0  0
  160.0320  211.5040  143.4350 O   0  0  0  0  0  0  0  0  0  0  0  0
  162.3320  212.3690  142.5190 N   0  0  0  0  0  1  0  0  0  0  0  0
  161.4480  213.3600  143.1110 C   0  0  0  0  0  2  0  0  0  0  0  0
  1  4  2  0  0  0  0
  2  1  1  0  0  0  0
  2  3  1  0  0  0  0
  3 21  1  1  0  0  0
  5 22  1  6  0  0  0
  5  2  1  0  0  0  0
  5  3  1  0  0  0  0
  6 10  1  0  0  0  0
  8 11  2  0  0  0  0
  9  6  1  0  0  0  0
  9 11  1  0  0  0  0
 10  7  2  0  0  0  0
 10  1  1  0  0  0  0
 11  7  1  0  0  0  0
 12 18  1  0  0  0  0
 13 15  1  0  0  0  0
 13 12  2  0  0  0  0
 14 13  1  0  0  0  0
 15 16  2  0  0  0  0
 16 17  1  0  0  0  0
 17  9  1  0  0  0  0
 18 17  2  0  0  0  0
 19 21  2  0  0  0  0
 21 20  1  0  0  0  0
 23 22  1  0  0  0  0
 24 23  1  1  0  0  0
 25 27  1  6  0  0  0
 25 24  1  0  0  0  0
 26 25  1  0  0  0  0
 26 24  1  0  0  0  0
 28 27  1  0  0  0  0
 29 30  1  1  0  0  0
 29 28  1  0  0  0  0
 30 31  1  0  0  0  0
 31 32  1  0  0  0  0
 33 29  1  0  0  0  0
 34 33  1  0  0  0  0
 35 34  2  0  0  0  0
 36 37  1  0  0  0  0
 37 34  1  0  0  0  0
M  END
>  <MODEL>
2

>  <REMARK>
 VINA RESULT:      -7.1      5.140      9.124
  Name = 
  14 active torsions:
  status: ('A' for Active; 'I' for Inactive)
    1  A    between atoms: C_2  and  O_7
    2  A    between atoms: C_2  and  C_25
    3  A    between atoms: C_3  and  C_29
    4  A    between atoms: C_5  and  S_18
    5  A    between atoms: C_5  and  C_37
    6  A    between atoms: C_6  and  C_14
    7  A    between atoms: C_6  and  C_25
    8  A    between atoms: C_8  and  C_13
    9  A    between atoms: C_13  and  C_33
   10  A    between atoms: C_14  and  C_22
   11  A    between atoms: S_18  and  C_25
   12  A    between atoms: C_23  and  C_31
   13  A    between atoms: N_27  and  C_30
   14  A    between atoms: C_33  and  C_34
                            x       y       z     vdW  Elec       q    Type
                         _______ _______ _______ _____ _____    ______ ____

>  <TORSDO>
F 14

$$$$
=
 OpenBabel11052410453D

 37 40  0  0  1  0  0  0  0  0999 V2000
  161.3690  207.2410  153.0310 C   0  0  0  0  0  0  0  0  0  0  0  0
  161.2090  208.6140  152.6840 N   0  0  0  0  0  0  0  0  0  0  0  0
  161.1660  210.0680  153.0260 C   0  0  1  0  0  3  0  0  0  0  0  0
  161.6440  206.9290  154.2190 O   0  0  0  0  0  0  0  0  0  0  0  0
  160.9880  209.7150  151.7030 C   0  0  1  0  0  3  0  0  0  0  0  0
  161.2930  206.4230  150.7150 O   0  0  0  0  0  0  0  0  0  0  0  0
  161.0160  204.8470  152.2540 C   0  0  0  0  0  3  0  0  0  0  0  0
  160.7930  203.1190  150.6930 O   0  0  0  0  0  0  0  0  0  0  0  0
  161.1390  205.3140  150.0590 N   0  0  0  0  0  0  0  0  0  0  0  0
  161.2290  206.1990  152.0080 C   0  0  0  0  0  0  0  0  0  0  0  0
  160.9710  204.3350  150.9720 C   0  0  0  0  0  0  0  0  0  0  0  0
  160.8050  206.2530  146.4550 C   0  0  0  0  0  3  0  0  0  0  0  0
  161.2120  205.0750  145.8210 C   0  0  0  0  0  0  0  0  0  0  0  0
  161.2530  204.9910  144.0740 Cl  0  0  0  0  0  0  0  0  0  0  0  0
  161.5840  203.9650  146.5840 C   0  0  0  0  0  3  0  0  0  0  0  0
  161.5570  204.0360  147.9790 C   0  0  0  0  0  3  0  0  0  0  0  0
  161.1540  205.2160  148.6250 C   0  0  0  0  0  0  0  0  0  0  0  0
  160.7770  206.3220  147.8500 C   0  0  0  0  0  3  0  0  0  0  0  0
  159.6570  210.1160  154.8780 O   0  0  0  0  0  0  0  0  0  0  0  0
  158.8490  211.0840  152.9280 N   0  0  0  0  0  1  0  0  0  0  0  0
  159.8560  210.3970  153.6670 C   0  0  0  0  0  0  0  0  0  0  0  0
  162.2720  209.9480  150.9270 C   0  0  0  0  0  2  0  0  0  0  0  0
  161.9750  210.1500  149.4520 C   0  0  0  0  0  2  0  0  0  0  0  0
  162.3750  211.5480  149.0160 C   0  0  1  0  0  3  0  0  0  0  0  0
  161.6140  211.9080  147.8280 C   0  0  1  0  0  3  0  0  0  0  0  0
  161.2200  212.4490  149.1370 N   0  0  0  0  0  2  0  0  0  0  0  0
  162.3580  212.9670  147.0440 C   0  0  0  0  0  2  0  0  0  0  0  0
  161.3610  213.8020  146.2480 C   0  0  0  0  0  2  0  0  0  0  0  0
  161.3820  213.4700  144.7560 C   0  0  1  0  0  3  0  0  0  0  0  0
  162.7450  212.9610  144.3050 C   0  0  0  0  0  2  0  0  0  0  0  0
  163.3270  213.8680  143.4190 O   0  0  0  0  0  0  0  0  0  0  0  0
  162.3070  214.4250  142.8020 O   0  0  0  0  0  1  0  0  0  0  0  0
  160.0820  212.2630  144.3410 S   0  0  0  0  0  0  0  0  0  0  0  0
  158.8400  213.5320  144.1050 C   0  0  0  0  0  0  0  0  0  0  0  0
  158.8300  214.1880  143.0770 O   0  0  0  0  0  0  0  0  0  0  0  0
  157.6480  212.6140  145.9910 N   0  0  0  0  0  1  0  0  0  0  0  0
  157.8420  213.8060  145.1830 C   0  0  0  0  0  2  0  0  0  0  0  0
  1  4  2  0  0  0  0
  2  3  1  0  0  0  0
  2  1  1  0  0  0  0
  3 21  1  1  0  0  0
  5 22  1  6  0  0  0
  5  2  1  0  0  0  0
  5  3  1  0  0  0  0
  6 10  1  0  0  0  0
  8 11  2  0  0  0  0
  9  6  1  0  0  0  0
  9 11  1  0  0  0  0
 10  7  2  0  0  0  0
 10  1  1  0  0  0  0
 11  7  1  0  0  0  0
 12 18  1  0  0  0  0
 13 12  2  0  0  0  0
 13 15  1  0  0  0  0
 14 13  1  0  0  0  0
 15 16  2  0  0  0  0
 16 17  1  0  0  0  0
 17  9  1  0  0  0  0
 18 17  2  0  0  0  0
 20 21  1  0  0  0  0
 21 19  2  0  0  0  0
 23 22  1  0  0  0  0
 24 26  1  0  0  0  0
 24 23  1  1  0  0  0
 25 27  1  6  0  0  0
 25 24  1  0  0  0  0
 25 26  1  0  0  0  0
 28 27  1  0  0  0  0
 29 30  1  1  0  0  0
 29 28  1  0  0  0  0
 31 30  1  0  0  0  0
 32 31  1  0  0  0  0
 33 29  1  0  0  0  0
 34 33  1  0  0  0  0
 34 37  1  0  0  0  0
 35 34  2  0  0  0  0
 37 36  1  0  0  0  0
M  END
>  <MODEL>
3

>  <REMARK>
 VINA RESULT:      -6.8      5.422      9.246
  Name = 
  14 active torsions:
  status: ('A' for Active; 'I' for Inactive)
    1  A    between atoms: C_2  and  O_7
    2  A    between atoms: C_2  and  C_25
    3  A    between atoms: C_3  and  C_29
    4  A    between atoms: C_5  and  S_18
    5  A    between atoms: C_5  and  C_37
    6  A    between atoms: C_6  and  C_14
    7  A    between atoms: C_6  and  C_25
    8  A    between atoms: C_8  and  C_13
    9  A    between atoms: C_13  and  C_33
   10  A    between atoms: C_14  and  C_22
   11  A    between atoms: S_18  and  C_25
   12  A    between atoms: C_23  and  C_31
   13  A    between atoms: N_27  and  C_30
   14  A    between atoms: C_33  and  C_34
                            x       y       z     vdW  Elec       q    Type
                         _______ _______ _______ _____ _____    ______ ____

>  <TORSDO>
F 14

$$$$
=
 OpenBabel11052410453D

 37 40  0  0  1  0  0  0  0  0999 V2000
  162.1410  206.1490  152.9000 C   0  0  0  0  0  0  0  0  0  0  0  0
  161.3950  207.2270  153.4570 N   0  0  0  0  0  0  0  0  0  0  0  0
  161.1920  208.3160  154.4610 C   0  0  1  0  0  3  0  0  0  0  0  0
  163.2540  205.8400  153.4010 O   0  0  0  0  0  0  0  0  0  0  0  0
  160.2360  208.1670  153.4750 C   0  0  1  0  0  3  0  0  0  0  0  0
  161.7970  205.7850  150.4940 O   0  0  0  0  0  0  0  0  0  0  0  0
  160.8920  204.2300  151.7960 C   0  0  0  0  0  3  0  0  0  0  0  0
  160.0390  202.9840  150.0090 O   0  0  0  0  0  0  0  0  0  0  0  0
  161.2330  204.9370  149.6900 N   0  0  0  0  0  0  0  0  0  0  0  0
  161.6230  205.4110  151.7420 C   0  0  0  0  0  0  0  0  0  0  0  0
  160.6760  203.9760  150.4560 C   0  0  0  0  0  0  0  0  0  0  0  0
  160.6630  206.3240  146.2640 C   0  0  0  0  0  3  0  0  0  0  0  0
  161.2660  205.3490  145.4650 C   0  0  0  0  0  0  0  0  0  0  0  0
  161.2880  205.5340  143.7250 Cl  0  0  0  0  0  0  0  0  0  0  0  0
  161.8500  204.2250  146.0550 C   0  0  0  0  0  3  0  0  0  0  0  0
  161.8370  204.0810  147.4460 C   0  0  0  0  0  3  0  0  0  0  0  0
  161.2380  205.0580  148.2570 C   0  0  0  0  0  0  0  0  0  0  0  0
  160.6510  206.1780  147.6530 C   0  0  0  0  0  3  0  0  0  0  0  0
  161.4680  207.7310  156.7620 O   0  0  0  0  0  0  0  0  0  0  0  0
  159.3900  207.2170  155.8610 N   0  0  0  0  0  1  0  0  0  0  0  0
  160.7160  207.7280  155.7520 C   0  0  0  0  0  0  0  0  0  0  0  0
  160.4360  209.2160  152.3970 C   0  0  0  0  0  2  0  0  0  0  0  0
  161.3270  210.3370  152.9020 C   0  0  0  0  0  2  0  0  0  0  0  0
  160.5070  211.5870  153.1730 C   0  0  1  0  0  3  0  0  0  0  0  0
  159.3380  211.5800  152.3060 C   0  0  1  0  0  3  0  0  0  0  0  0
  159.1980  211.2050  153.7210 N   0  0  0  0  0  2  0  0  0  0  0  0
  158.8400  212.9950  152.1050 C   0  0  0  0  0  2  0  0  0  0  0  0
  159.7420  213.7140  151.1080 C   0  0  0  0  0  2  0  0  0  0  0  0
  159.3620  213.4170  149.6580 C   0  0  1  0  0  3  0  0  0  0  0  0
  157.9550  213.8990  149.3270 C   0  0  0  0  0  2  0  0  0  0  0  0
  157.1330  212.8120  149.0270 O   0  0  0  0  0  0  0  0  0  0  0  0
  157.2530  212.6600  147.7250 O   0  0  0  0  0  1  0  0  0  0  0  0
  160.5720  214.1460  148.5060 S   0  0  0  0  0  0  0  0  0  0  0  0
  161.1270  212.5460  147.9210 C   0  0  0  0  0  0  0  0  0  0  0  0
  160.5290  211.9910  147.0140 O   0  0  0  0  0  0  0  0  0  0  0  0
  162.0770  210.4470  148.6350 N   0  0  0  0  0  1  0  0  0  0  0  0
  162.2990  211.8820  148.5660 C   0  0  0  0  0  2  0  0  0  0  0  0
  1  4  2  0  0  0  0
  1  2  1  0  0  0  0
  2  5  1  0  0  0  0
  2  3  1  0  0  0  0
  3 21  1  1  0  0  0
  5 22  1  6  0  0  0
  5  3  1  0  0  0  0
  6 10  1  0  0  0  0
  8 11  2  0  0  0  0
  9 11  1  0  0  0  0
  9  6  1  0  0  0  0
 10  7  2  0  0  0  0
 10  1  1  0  0  0  0
 11  7  1  0  0  0  0
 12 18  1  0  0  0  0
 13 15  1  0  0  0  0
 13 12  2  0  0  0  0
 14 13  1  0  0  0  0
 15 16  2  0  0  0  0
 16 17  1  0  0  0  0
 17  9  1  0  0  0  0
 18 17  2  0  0  0  0
 21 20  1  0  0  0  0
 21 19  2  0  0  0  0
 22 23  1  0  0  0  0
 24 23  1  6  0  0  0
 24 26  1  0  0  0  0
 25 27  1  1  0  0  0
 25 24  1  0  0  0  0
 25 26  1  0  0  0  0
 28 27  1  0  0  0  0
 29 30  1  6  0  0  0
 29 28  1  0  0  0  0
 31 30  1  0  0  0  0
 32 31  1  0  0  0  0
 33 29  1  0  0  0  0
 34 33  1  0  0  0  0
 34 37  1  0  0  0  0
 35 34  2  0  0  0  0
 37 36  1  0  0  0  0
M  END
>  <MODEL>
4

>  <REMARK>
 VINA RESULT:      -6.3      4.545      9.176
  Name = 
  14 active torsions:
  status: ('A' for Active; 'I' for Inactive)
    1  A    between atoms: C_2  and  O_7
    2  A    between atoms: C_2  and  C_25
    3  A    between atoms: C_3  and  C_29
    4  A    between atoms: C_5  and  S_18
    5  A    between atoms: C_5  and  C_37
    6  A    between atoms: C_6  and  C_14
    7  A    between atoms: C_6  and  C_25
    8  A    between atoms: C_8  and  C_13
    9  A    between atoms: C_13  and  C_33
   10  A    between atoms: C_14  and  C_22
   11  A    between atoms: S_18  and  C_25
   12  A    between atoms: C_23  and  C_31
   13  A    between atoms: N_27  and  C_30
   14  A    between atoms: C_33  and  C_34
                            x       y       z     vdW  Elec       q    Type
                         _______ _______ _______ _____ _____    ______ ____

>  <TORSDO>
F 14

$$$$
=
 OpenBabel11052410453D

 37 40  0  0  1  0  0  0  0  0999 V2000
  159.1630  212.1530  153.8020 C   0  0  0  0  0  0  0  0  0  0  0  0
  160.1730  211.2140  154.1590 N   0  0  0  0  0  0  0  0  0  0  0  0
  160.8540  210.3120  155.1370 C   0  0  1  0  0  3  0  0  0  0  0  0
  158.2950  212.4850  154.6520 O   0  0  0  0  0  0  0  0  0  0  0  0
  161.3450  210.3460  153.8470 C   0  0  1  0  0  3  0  0  0  0  0  0
  160.0590  212.5290  151.5450 O   0  0  0  0  0  0  0  0  0  0  0  0
  158.1100  213.5200  151.9350 C   0  0  0  0  0  3  0  0  0  0  0  0
  157.9600  214.4530  149.7950 O   0  0  0  0  0  0  0  0  0  0  0  0
  159.7510  213.1460  150.4460 N   0  0  0  0  0  0  0  0  0  0  0  0
  159.1240  212.7190  152.4490 C   0  0  0  0  0  0  0  0  0  0  0  0
  158.5660  213.7570  150.6530 C   0  0  0  0  0  0  0  0  0  0  0  0
  161.1900  214.1600  147.1460 C   0  0  0  0  0  3  0  0  0  0  0  0
  162.1710  213.1830  146.9570 C   0  0  0  0  0  0  0  0  0  0  0  0
  163.1740  213.2150  145.5230 Cl  0  0  0  0  0  0  0  0  0  0  0  0
  162.3500  212.1800  147.9140 C   0  0  0  0  0  3  0  0  0  0  0  0
  161.5520  212.1590  149.0610 C   0  0  0  0  0  3  0  0  0  0  0  0
  160.5680  213.1400  149.2620 C   0  0  0  0  0  0  0  0  0  0  0  0
  160.3930  214.1380  148.2930 C   0  0  0  0  0  3  0  0  0  0  0  0
  161.1990  211.9860  156.8070 O   0  0  0  0  0  0  0  0  0  0  0  0
  163.1190  210.8730  156.1200 N   0  0  0  0  0  1  0  0  0  0  0  0
  161.7160  211.1200  156.0530 C   0  0  0  0  0  0  0  0  0  0  0  0
  160.8640  209.1290  153.0770 C   0  0  0  0  0  2  0  0  0  0  0  0
  161.1290  207.8590  153.8670 C   0  0  0  0  0  2  0  0  0  0  0  0
  161.9570  206.8860  153.0460 C   0  0  1  0  0  3  0  0  0  0  0  0
  161.1850  206.4740  151.8830 C   0  0  1  0  0  3  0  0  0  0  0  0
  162.2490  207.4770  151.7320 N   0  0  0  0  0  2  0  0  0  0  0  0
  161.6790  205.1310  151.3890 C   0  0  0  0  0  2  0  0  0  0  0  0
  160.6420  204.5210  150.4530 C   0  0  0  0  0  2  0  0  0  0  0  0
  161.1240  204.4640  149.0050 C   0  0  1  0  0  3  0  0  0  0  0  0
  160.7540  203.1490  148.3310 C   0  0  0  0  0  2  0  0  0  0  0  0
  160.1690  202.2840  149.2570 O   0  0  0  0  0  0  0  0  0  0  0  0
  161.1860  201.6520  149.8030 O   0  0  0  0  0  1  0  0  0  0  0  0
  160.4760  205.8730  148.0470 S   0  0  0  0  0  0  0  0  0  0  0  0
  162.0700  206.2360  147.3130 C   0  0  0  0  0  0  0  0  0  0  0  0
  162.8990  206.8690  147.9450 O   0  0  0  0  0  0  0  0  0  0  0  0
  163.4060  204.7780  145.9310 N   0  0  0  0  0  1  0  0  0  0  0  0
  162.3650  205.7920  145.9180 C   0  0  0  0  0  2  0  0  0  0  0  0
  1  2  1  0  0  0  0
  1  4  2  0  0  0  0
  2  3  1  0  0  0  0
  3 21  1  1  0  0  0
  5 22  1  6  0  0  0
  5  2  1  0  0  0  0
  5  3  1  0  0  0  0
  6 10  1  0  0  0  0
  7 10  2  0  0  0  0
  8 11  2  0  0  0  0
  9 11  1  0  0  0  0
  9  6  1  0  0  0  0
 10  1  1  0  0  0  0
 11  7  1  0  0  0  0
 12 18  1  0  0  0  0
 13 12  2  0  0  0  0
 13 15  1  0  0  0  0
 14 13  1  0  0  0  0
 15 16  2  0  0  0  0
 16 17  1  0  0  0  0
 17  9  1  0  0  0  0
 18 17  2  0  0  0  0
 21 20  1  0  0  0  0
 21 19  2  0  0  0  0
 22 23  1  0  0  0  0
 24 23  1  1  0  0  0
 25 27  1  6  0  0  0
 25 24  1  0  0  0  0
 26 25  1  0  0  0  0
 26 24  1  0  0  0  0
 28 27  1  0  0  0  0
 29 30  1  6  0  0  0
 29 28  1  0  0  0  0
 30 31  1  0  0  0  0
 31 32  1  0  0  0  0
 33 29  1  0  0  0  0
 34 35  2  0  0  0  0
 34 33  1  0  0  0  0
 37 36  1  0  0  0  0
 37 34  1  0  0  0  0
M  END
>  <MODEL>
5

>  <REMARK>
 VINA RESULT:      -6.1      3.997      6.075
  Name = 
  14 active torsions:
  status: ('A' for Active; 'I' for Inactive)
    1  A    between atoms: C_2  and  O_7
    2  A    between atoms: C_2  and  C_25
    3  A    between atoms: C_3  and  C_29
    4  A    between atoms: C_5  and  S_18
    5  A    between atoms: C_5  and  C_37
    6  A    between atoms: C_6  and  C_14
    7  A    between atoms: C_6  and  C_25
    8  A    between atoms: C_8  and  C_13
    9  A    between atoms: C_13  and  C_33
   10  A    between atoms: C_14  and  C_22
   11  A    between atoms: S_18  and  C_25
   12  A    between atoms: C_23  and  C_31
   13  A    between atoms: N_27  and  C_30
   14  A    between atoms: C_33  and  C_34
                            x       y       z     vdW  Elec       q    Type
                         _______ _______ _______ _____ _____    ______ ____

>  <TORSDO>
F 14

$$$$
=
 OpenBabel11052410453D

 37 40  0  0  1  0  0  0  0  0999 V2000
  161.9380  206.6090  152.7660 C   0  0  0  0  0  0  0  0  0  0  0  0
  161.1930  207.5760  153.5010 N   0  0  0  0  0  0  0  0  0  0  0  0
  160.9470  208.4120  154.7150 C   0  0  1  0  0  3  0  0  0  0  0  0
  162.9850  206.1210  153.2660 O   0  0  0  0  0  0  0  0  0  0  0  0
  160.0810  208.5580  153.6500 C   0  0  1  0  0  3  0  0  0  0  0  0
  161.6550  204.9840  150.9440 O   0  0  0  0  0  0  0  0  0  0  0  0
  160.8550  207.0080  150.5010 C   0  0  0  0  0  3  0  0  0  0  0  0
  160.1080  206.4330  148.3610 O   0  0  0  0  0  0  0  0  0  0  0  0
  161.1630  204.9140  149.7460 N   0  0  0  0  0  0  0  0  0  0  0  0
  161.4970  206.1950  151.4300 C   0  0  0  0  0  0  0  0  0  0  0  0
  160.6650  206.1320  149.4500 C   0  0  0  0  0  0  0  0  0  0  0  0
  160.7770  201.3380  148.7200 C   0  0  0  0  0  3  0  0  0  0  0  0
  161.1560  201.3920  147.3760 C   0  0  0  0  0  0  0  0  0  0  0  0
  161.1360  199.9370  146.4020 Cl  0  0  0  0  0  0  0  0  0  0  0  0
  161.5520  202.6060  146.8100 C   0  0  0  0  0  3  0  0  0  0  0  0
  161.5620  203.7680  147.5870 C   0  0  0  0  0  3  0  0  0  0  0  0
  161.1780  203.7250  148.9360 C   0  0  0  0  0  0  0  0  0  0  0  0
  160.7880  202.5000  149.4950 C   0  0  0  0  0  3  0  0  0  0  0  0
  160.9990  207.2560  156.8060 O   0  0  0  0  0  0  0  0  0  0  0  0
  158.9620  207.1810  155.6930 N   0  0  0  0  0  1  0  0  0  0  0  0
  160.3290  207.5740  155.7880 C   0  0  0  0  0  0  0  0  0  0  0  0
  160.4260  209.8140  152.8700 C   0  0  0  0  0  2  0  0  0  0  0  0
  159.4910  210.9500  153.2450 C   0  0  0  0  0  2  0  0  0  0  0  0
  160.0270  212.2730  152.7280 C   0  0  1  0  0  3  0  0  0  0  0  0
  159.1660  212.7440  151.6530 C   0  0  1  0  0  3  0  0  0  0  0  0
  159.0480  213.3370  152.9940 N   0  0  0  0  0  2  0  0  0  0  0  0
  159.9370  213.6810  150.7500 C   0  0  0  0  0  2  0  0  0  0  0  0
  159.2640  213.7380  149.3830 C   0  0  0  0  0  2  0  0  0  0  0  0
  160.1910  213.2820  148.2570 C   0  0  1  0  0  3  0  0  0  0  0  0
  159.6810  213.7150  146.8880 C   0  0  0  0  0  2  0  0  0  0  0  0
  160.7360  213.7610  145.9760 O   0  0  0  0  0  0  0  0  0  0  0  0
  160.2080  214.2860  144.8910 O   0  0  0  0  0  1  0  0  0  0  0  0
  161.8880  213.8890  148.5250 S   0  0  0  0  0  0  0  0  0  0  0  0
  162.6200  212.2900  148.1850 C   0  0  0  0  0  0  0  0  0  0  0  0
  163.6580  212.2210  147.5470 O   0  0  0  0  0  0  0  0  0  0  0  0
  162.0460  210.9370  150.0980 N   0  0  0  0  0  1  0  0  0  0  0  0
  161.9410  211.0450  148.6520 C   0  0  0  0  0  2  0  0  0  0  0  0
  1  4  2  0  0  0  0
  1  2  1  0  0  0  0
  2  5  1  0  0  0  0
  2  3  1  0  0  0  0
  3 21  1  1  0  0  0
  5 22  1  6  0  0  0
  5  3  1  0  0  0  0
  6 10  1  0  0  0  0
  7 10  2  0  0  0  0
  8 11  2  0  0  0  0
  9  6  1  0  0  0  0
 10  1  1  0  0  0  0
 11  9  1  0  0  0  0
 11  7  1  0  0  0  0
 12 18  1  0  0  0  0
 13 12  2  0  0  0  0
 14 13  1  0  0  0  0
 15 13  1  0  0  0  0
 15 16  2  0  0  0  0
 16 17  1  0  0  0  0
 17 18  2  0  0  0  0
 17  9  1  0  0  0  0
 20 21  1  0  0  0  0
 21 19  2  0  0  0  0
 22 23  1  0  0  0  0
 24 26  1  0  0  0  0
 24 23  1  1  0  0  0
 25 27  1  6  0  0  0
 25 24  1  0  0  0  0
 25 26  1  0  0  0  0
 28 27  1  0  0  0  0
 29 30  1  6  0  0  0
 29 33  1  0  0  0  0
 29 28  1  0  0  0  0
 31 30  1  0  0  0  0
 32 31  1  0  0  0  0
 34 33  1  0  0  0  0
 34 37  1  0  0  0  0
 35 34  2  0  0  0  0
 37 36  1  0  0  0  0
M  END
>  <MODEL>
6

>  <REMARK>
 VINA RESULT:      -6.0      4.903      9.565
  Name = 
  14 active torsions:
  status: ('A' for Active; 'I' for Inactive)
    1  A    between atoms: C_2  and  O_7
    2  A    between atoms: C_2  and  C_25
    3  A    between atoms: C_3  and  C_29
    4  A    between atoms: C_5  and  S_18
    5  A    between atoms: C_5  and  C_37
    6  A    between atoms: C_6  and  C_14
    7  A    between atoms: C_6  and  C_25
    8  A    between atoms: C_8  and  C_13
    9  A    between atoms: C_13  and  C_33
   10  A    between atoms: C_14  and  C_22
   11  A    between atoms: S_18  and  C_25
   12  A    between atoms: C_23  and  C_31
   13  A    between atoms: N_27  and  C_30
   14  A    between atoms: C_33  and  C_34
                            x       y       z     vdW  Elec       q    Type
                         _______ _______ _______ _____ _____    ______ ____

>  <TORSDO>
F 14

$$$$
=
 OpenBabel11052410453D

 37 40  0  0  1  0  0  0  0  0999 V2000
  157.8440  213.5650  151.3210 C   0  0  0  0  0  0  0  0  0  0  0  0
  158.2690  212.9590  152.5390 N   0  0  0  0  0  0  0  0  0  0  0  0
  158.0470  212.5490  153.9590 C   0  0  1  0  0  3  0  0  0  0  0  0
  156.6800  214.0340  151.2330 O   0  0  0  0  0  0  0  0  0  0  0  0
  159.2540  212.2160  153.3760 C   0  0  1  0  0  3  0  0  0  0  0  0
  158.3740  213.4730  148.9220 O   0  0  0  0  0  0  0  0  0  0  0  0
  160.1230  213.8650  150.2340 C   0  0  0  0  0  3  0  0  0  0  0  0
  161.6420  213.9960  148.4600 O   0  0  0  0  0  0  0  0  0  0  0  0
  159.3930  213.5870  148.1270 N   0  0  0  0  0  0  0  0  0  0  0  0
  158.7540  213.6290  150.1710 C   0  0  0  0  0  0  0  0  0  0  0  0
  160.4720  213.8300  148.8980 C   0  0  0  0  0  0  0  0  0  0  0  0
  159.9060  212.2700  144.6640 C   0  0  0  0  0  3  0  0  0  0  0  0
  159.1540  213.1740  143.9080 C   0  0  0  0  0  0  0  0  0  0  0  0
  159.0490  212.9870  142.1710 Cl  0  0  0  0  0  0  0  0  0  0  0  0
  158.4870  214.2270  144.5400 C   0  0  0  0  0  3  0  0  0  0  0  0
  158.5670  214.3720  145.9270 C   0  0  0  0  0  3  0  0  0  0  0  0
  159.3150  213.4660  146.6960 C   0  0  0  0  0  0  0  0  0  0  0  0
  159.9850  212.4160  146.0510 C   0  0  0  0  0  3  0  0  0  0  0  0
  159.3500  214.1730  155.1330 O   0  0  0  0  0  0  0  0  0  0  0  0
  157.0500  214.4120  155.3530 N   0  0  0  0  0  1  0  0  0  0  0  0
  158.2020  213.7350  154.8560 C   0  0  0  0  0  0  0  0  0  0  0  0
  159.2470  210.7550  152.9660 C   0  0  0  0  0  2  0  0  0  0  0  0
  160.5300  210.3980  152.2370 C   0  0  0  0  0  2  0  0  0  0  0  0
  160.6210  208.8970  152.0260 C   0  0  1  0  0  3  0  0  0  0  0  0
  162.0250  208.5150  151.9600 C   0  0  1  0  0  3  0  0  0  0  0  0
  161.2620  208.2760  153.1940 N   0  0  0  0  0  2  0  0  0  0  0  0
  162.1680  207.2190  151.1930 C   0  0  0  0  0  2  0  0  0  0  0  0
  161.9520  207.4820  149.7060 C   0  0  0  0  0  2  0  0  0  0  0  0
  161.5810  206.2140  148.9380 C   0  0  1  0  0  3  0  0  0  0  0  0
  160.7370  205.2640  149.7780 C   0  0  0  0  0  2  0  0  0  0  0  0
  161.3650  204.0210  149.8720 O   0  0  0  0  0  0  0  0  0  0  0  0
  160.7850  203.2910  148.9430 O   0  0  0  0  0  1  0  0  0  0  0  0
  160.7210  206.6240  147.3850 S   0  0  0  0  0  0  0  0  0  0  0  0
  161.7130  205.4870  146.4190 C   0  0  0  0  0  0  0  0  0  0  0  0
  162.8910  205.3270  146.6920 O   0  0  0  0  0  0  0  0  0  0  0  0
  161.4470  205.4420  144.0220 N   0  0  0  0  0  1  0  0  0  0  0  0
  161.1040  204.7660  145.2620 C   0  0  0  0  0  2  0  0  0  0  0  0
  1  2  1  0  0  0  0
  2  5  1  0  0  0  0
  2  3  1  0  0  0  0
  3 21  1  1  0  0  0
  4  1  2  0  0  0  0
  5 22  1  6  0  0  0
  5  3  1  0  0  0  0
  6 10  1  0  0  0  0
  8 11  2  0  0  0  0
  9 11  1  0  0  0  0
  9  6  1  0  0  0  0
 10  7  2  0  0  0  0
 10  1  1  0  0  0  0
 11  7  1  0  0  0  0
 12 18  1  0  0  0  0
 13 15  1  0  0  0  0
 13 12  2  0  0  0  0
 14 13  1  0  0  0  0
 15 16  2  0  0  0  0
 16 17  1  0  0  0  0
 17  9  1  0  0  0  0
 18 17  2  0  0  0  0
 21 19  2  0  0  0  0
 21 20  1  0  0  0  0
 23 22  1  0  0  0  0
 24 23  1  1  0  0  0
 24 26  1  0  0  0  0
 25 27  1  6  0  0  0
 25 24  1  0  0  0  0
 25 26  1  0  0  0  0
 28 27  1  0  0  0  0
 29 28  1  1  0  0  0
 29 30  1  0  0  0  0
 30 31  1  0  0  0  0
 32 31  1  0  0  0  0
 33 29  1  0  0  0  0
 34 35  2  0  0  0  0
 34 33  1  0  0  0  0
 36 37  1  0  0  0  0
 37 34  1  0  0  0  0
M  END
>  <MODEL>
7

>  <REMARK>
 VINA RESULT:      -5.9      4.935      7.445
  Name = 
  14 active torsions:
  status: ('A' for Active; 'I' for Inactive)
    1  A    between atoms: C_2  and  O_7
    2  A    between atoms: C_2  and  C_25
    3  A    between atoms: C_3  and  C_29
    4  A    between atoms: C_5  and  S_18
    5  A    between atoms: C_5  and  C_37
    6  A    between atoms: C_6  and  C_14
    7  A    between atoms: C_6  and  C_25
    8  A    between atoms: C_8  and  C_13
    9  A    between atoms: C_13  and  C_33
   10  A    between atoms: C_14  and  C_22
   11  A    between atoms: S_18  and  C_25
   12  A    between atoms: C_23  and  C_31
   13  A    between atoms: N_27  and  C_30
   14  A    between atoms: C_33  and  C_34
                            x       y       z     vdW  Elec       q    Type
                         _______ _______ _______ _____ _____    ______ ____

>  <TORSDO>
F 14

$$$$
=
 OpenBabel11052410453D

 37 40  0  0  1  0  0  0  0  0999 V2000
  160.5210  206.4960  149.9510 C   0  0  0  0  0  0  0  0  0  0  0  0
  160.9240  207.3030  151.0540 N   0  0  0  0  0  0  0  0  0  0  0  0
  161.0460  208.6170  151.7560 C   0  0  1  0  0  3  0  0  0  0  0  0
  159.9170  207.0250  148.9820 O   0  0  0  0  0  0  0  0  0  0  0  0
  161.5150  207.4940  152.4100 C   0  0  1  0  0  3  0  0  0  0  0  0
  160.7800  204.3030  148.8710 O   0  0  0  0  0  0  0  0  0  0  0  0
  161.1150  204.2910  151.0660 C   0  0  0  0  0  3  0  0  0  0  0  0
  161.5800  202.0000  151.1560 O   0  0  0  0  0  0  0  0  0  0  0  0
  161.0670  203.0750  149.1770 N   0  0  0  0  0  0  0  0  0  0  0  0
  160.7970  205.0550  149.9500 C   0  0  0  0  0  0  0  0  0  0  0  0
  161.2790  203.0380  150.5080 C   0  0  0  0  0  0  0  0  0  0  0  0
  161.5820  199.6640  147.7330 C   0  0  0  0  0  3  0  0  0  0  0  0
  161.2240  199.8700  146.3980 C   0  0  0  0  0  0  0  0  0  0  0  0
  161.2780  198.5390  145.2620 Cl  0  0  0  0  0  0  0  0  0  0  0  0
  160.8250  201.1380  145.9690 C   0  0  0  0  0  3  0  0  0  0  0  0
  160.7770  202.1990  146.8780 C   0  0  0  0  0  3  0  0  0  0  0  0
  161.1290  202.0010  148.2230 C   0  0  0  0  0  0  0  0  0  0  0  0
  161.5340  200.7250  148.6400 C   0  0  0  0  0  3  0  0  0  0  0  0
  163.0230  209.9490  151.9230 O   0  0  0  0  0  0  0  0  0  0  0  0
  162.3380  209.4760  149.7550 N   0  0  0  0  0  1  0  0  0  0  0  0
  162.1770  209.3990  151.1690 C   0  0  0  0  0  0  0  0  0  0  0  0
  160.5100  207.0440  153.4530 C   0  0  0  0  0  2  0  0  0  0  0  0
  161.1340  207.0560  154.8370 C   0  0  0  0  0  2  0  0  0  0  0  0
  161.0870  208.4540  155.4290 C   0  0  1  0  0  3  0  0  0  0  0  0
  159.7370  208.7180  155.9080 C   0  0  1  0  0  3  0  0  0  0  0  0
  160.7950  208.3680  156.8670 N   0  0  0  0  0  2  0  0  0  0  0  0
  159.4890  210.2100  155.9470 C   0  0  0  0  0  2  0  0  0  0  0  0
  159.4620  210.7580  154.5250 C   0  0  0  0  0  2  0  0  0  0  0  0
  158.2640  211.6730  154.2750 C   0  0  1  0  0  3  0  0  0  0  0  0
  157.1510  211.4450  155.2900 C   0  0  0  0  0  2  0  0  0  0  0  0
  155.9760  211.0700  154.6370 O   0  0  0  0  0  0  0  0  0  0  0  0
  155.3200  210.3560  155.5270 O   0  0  0  0  0  1  0  0  0  0  0  0
  158.7720  213.4230  154.2710 S   0  0  0  0  0  0  0  0  0  0  0  0
  158.2160  213.6840  152.5880 C   0  0  0  0  0  0  0  0  0  0  0  0
  157.0220  213.6840  152.3370 O   0  0  0  0  0  0  0  0  0  0  0  0
  160.0740  212.6970  151.4090 N   0  0  0  0  0  1  0  0  0  0  0  0
  159.2150  213.8670  151.4940 C   0  0  0  0  0  2  0  0  0  0  0  0
  1  2  1  0  0  0  0
  2  3  1  0  0  0  0
  2  5  1  0  0  0  0
  3 21  1  6  0  0  0
  3  5  1  0  0  0  0
  4  1  2  0  0  0  0
  5 22  1  1  0  0  0
  6  9  1  0  0  0  0
  6 10  1  0  0  0  0
  9 11  1  0  0  0  0
 10  1  1  0  0  0  0
 10  7  2  0  0  0  0
 11  7  1  0  0  0  0
 11  8  2  0  0  0  0
 12 18  1  0  0  0  0
 13 12  2  0  0  0  0
 14 13  1  0  0  0  0
 15 13  1  0  0  0  0
 15 16  2  0  0  0  0
 16 17  1  0  0  0  0
 17 18  2  0  0  0  0
 17  9  1  0  0  0  0
 20 21  1  0  0  0  0
 21 19  2  0  0  0  0
 22 23  1  0  0  0  0
 24 23  1  6  0  0  0
 24 25  1  0  0  0  0
 24 26  1  0  0  0  0
 25 27  1  1  0  0  0
 25 26  1  0  0  0  0
 28 27  1  0  0  0  0
 29 28  1  1  0  0  0
 29 30  1  0  0  0  0
 31 30  1  0  0  0  0
 31 32  1  0  0  0  0
 33 29  1  0  0  0  0
 34 33  1  0  0  0  0
 35 34  2  0  0  0  0
 36 37  1  0  0  0  0
 37 34  1  0  0  0  0
M  END
>  <MODEL>
8

>  <REMARK>
 VINA RESULT:      -5.8      4.659     10.248
  Name = 
  14 active torsions:
  status: ('A' for Active; 'I' for Inactive)
    1  A    between atoms: C_2  and  O_7
    2  A    between atoms: C_2  and  C_25
    3  A    between atoms: C_3  and  C_29
    4  A    between atoms: C_5  and  S_18
    5  A    between atoms: C_5  and  C_37
    6  A    between atoms: C_6  and  C_14
    7  A    between atoms: C_6  and  C_25
    8  A    between atoms: C_8  and  C_13
    9  A    between atoms: C_13  and  C_33
   10  A    between atoms: C_14  and  C_22
   11  A    between atoms: S_18  and  C_25
   12  A    between atoms: C_23  and  C_31
   13  A    between atoms: N_27  and  C_30
   14  A    between atoms: C_33  and  C_34
                            x       y       z     vdW  Elec       q    Type
                         _______ _______ _______ _____ _____    ______ ____

>  <TORSDO>
F 14

$$$$
=
 OpenBabel11052410453D

 37 40  0  0  1  0  0  0  0  0999 V2000
  162.0820  207.0420  151.9000 C   0  0  0  0  0  0  0  0  0  0  0  0
  161.7800  208.4340  151.9090 N   0  0  0  0  0  0  0  0  0  0  0  0
  161.7860  209.7840  152.5490 C   0  0  1  0  0  3  0  0  0  0  0  0
  162.6960  206.5320  152.8730 O   0  0  0  0  0  0  0  0  0  0  0  0
  161.2500  209.6790  151.2820 C   0  0  1  0  0  3  0  0  0  0  0  0
  161.8530  206.5600  149.5000 O   0  0  0  0  0  0  0  0  0  0  0  0
  161.1110  204.9470  150.8350 C   0  0  0  0  0  3  0  0  0  0  0  0
  160.4700  203.5470  149.0740 O   0  0  0  0  0  0  0  0  0  0  0  0
  161.4210  205.6220  148.7140 N   0  0  0  0  0  0  0  0  0  0  0  0
  161.6920  206.2080  150.7570 C   0  0  0  0  0  0  0  0  0  0  0  0
  160.9660  204.6250  149.5000 C   0  0  0  0  0  0  0  0  0  0  0  0
  162.6350  205.3220  145.1900 C   0  0  0  0  0  3  0  0  0  0  0  0
  161.5300  205.7900  144.4730 C   0  0  0  0  0  0  0  0  0  0  0  0
  161.5790  205.8410  142.7250 Cl  0  0  0  0  0  0  0  0  0  0  0  0
  160.3870  206.2170  145.1540 C   0  0  0  0  0  3  0  0  0  0  0  0
  160.3470  206.1700  146.5500 C   0  0  0  0  0  3  0  0  0  0  0  0
  161.4510  205.6970  147.2780 C   0  0  0  0  0  0  0  0  0  0  0  0
  162.5940  205.2760  146.5850 C   0  0  0  0  0  3  0  0  0  0  0  0
  160.8600  209.3130  154.7020 O   0  0  0  0  0  0  0  0  0  0  0  0
  159.5130  210.5980  153.3130 N   0  0  0  0  0  1  0  0  0  0  0  0
  160.7030  209.8590  153.5780 C   0  0  0  0  0  0  0  0  0  0  0  0
  162.2490  210.1770  150.2530 C   0  0  0  0  0  2  0  0  0  0  0  0
  161.5710  211.0910  149.2480 C   0  0  0  0  0  2  0  0  0  0  0  0
  162.5730  211.5890  148.2220 C   0  0  1  0  0  3  0  0  0  0  0  0
  162.0310  212.7730  147.5710 C   0  0  1  0  0  3  0  0  0  0  0  0
  163.0560  212.9210  148.6150 N   0  0  0  0  0  2  0  0  0  0  0  0
  162.6670  212.9450  146.2080 C   0  0  0  0  0  2  0  0  0  0  0  0
  161.8110  213.8810  145.3620 C   0  0  0  0  0  2  0  0  0  0  0  0
  161.2980  213.2120  144.0880 C   0  0  1  0  0  3  0  0  0  0  0  0
  160.2340  212.1620  144.3840 C   0  0  0  0  0  2  0  0  0  0  0  0
  158.9650  212.6750  144.1080 O   0  0  0  0  0  0  0  0  0  0  0  0
  158.3210  212.5880  145.2520 O   0  0  0  0  0  1  0  0  0  0  0  0
  160.6610  214.4510  142.9140 S   0  0  0  0  0  0  0  0  0  0  0  0
  161.6550  213.8250  141.5610 C   0  0  0  0  0  0  0  0  0  0  0  0
  162.8710  213.9080  141.6130 O   0  0  0  0  0  0  0  0  0  0  0  0
  160.0560  212.2030  140.7680 N   0  0  0  0  0  1  0  0  0  0  0  0
  160.9920  213.2380  140.3590 C   0  0  0  0  0  2  0  0  0  0  0  0
  1  2  1  0  0  0  0
  1  4  2  0  0  0  0
  2  3  1  0  0  0  0
  3 21  1  1  0  0  0
  5 22  1  6  0  0  0
  5  2  1  0  0  0  0
  5  3  1  0  0  0  0
  6 10  1  0  0  0  0
  8 11  2  0  0  0  0
  9 11  1  0  0  0  0
  9  6  1  0  0  0  0
 10  7  2  0  0  0  0
 10  1  1  0  0  0  0
 11  7  1  0  0  0  0
 12 18  1  0  0  0  0
 13 15  1  0  0  0  0
 13 12  2  0  0  0  0
 14 13  1  0  0  0  0
 15 16  2  0  0  0  0
 16 17  1  0  0  0  0
 17  9  1  0  0  0  0
 18 17  2  0  0  0  0
 20 21  1  0  0  0  0
 21 19  2  0  0  0  0
 23 22  1  0  0  0  0
 24 26  1  0  0  0  0
 24 23  1  1  0  0  0
 25 27  1  6  0  0  0
 25 24  1  0  0  0  0
 25 26  1  0  0  0  0
 28 27  1  0  0  0  0
 29 30  1  1  0  0  0
 29 28  1  0  0  0  0
 31 30  1  0  0  0  0
 31 32  1  0  0  0  0
 33 29  1  0  0  0  0
 34 35  2  0  0  0  0
 34 33  1  0  0  0  0
 37 36  1  0  0  0  0
 37 34  1  0  0  0  0
M  END
>  <MODEL>
9

>  <REMARK>
 VINA RESULT:      -5.6      5.644      9.536
  Name = 
  14 active torsions:
  status: ('A' for Active; 'I' for Inactive)
    1  A    between atoms: C_2  and  O_7
    2  A    between atoms: C_2  and  C_25
    3  A    between atoms: C_3  and  C_29
    4  A    between atoms: C_5  and  S_18
    5  A    between atoms: C_5  and  C_37
    6  A    between atoms: C_6  and  C_14
    7  A    between atoms: C_6  and  C_25
    8  A    between atoms: C_8  and  C_13
    9  A    between atoms: C_13  and  C_33
   10  A    between atoms: C_14  and  C_22
   11  A    between atoms: S_18  and  C_25
   12  A    between atoms: C_23  and  C_31
   13  A    between atoms: N_27  and  C_30
   14  A    between atoms: C_33  and  C_34
                            x       y       z     vdW  Elec       q    Type
                         _______ _______ _______ _____ _____    ______ ____

>  <TORSDO>
F 14

$$$$
