=
 OpenBabel11042422023D

 46 50  0  0  1  0  0  0  0  0999 V2000
  161.1370  208.1370  153.4120 C   0  0  0  0  0  0  0  0  0  0  0  0
  160.1490  210.2770  153.9720 C   0  0  0  0  0  3  0  0  0  0  0  0
  161.1470  209.6140  151.7560 C   0  0  0  0  0  0  0  0  0  0  0  0
  161.7390  208.4200  151.3480 C   0  0  0  0  0  0  0  0  0  0  0  0
  160.2680  208.4770  155.6240 C   0  0  0  0  0  3  0  0  0  0  0  0
  160.7710  209.4170  153.0680 C   0  0  0  0  0  0  0  0  0  0  0  0
  160.8960  207.6310  154.6910 C   0  0  0  0  0  3  0  0  0  0  0  0
  161.7280  207.5250  152.3630 N   0  0  0  0  0  0  0  0  0  0  0  0
  159.9020  209.7940  155.2710 C   0  0  0  0  0  0  0  0  0  0  0  0
  158.2250  211.4090  155.6440 O   0  0  0  0  0  1  0  0  0  0  0  0
  159.2250  210.6660  156.2680 C   0  0  0  0  0  2  0  0  0  0  0  0
  162.2680  206.2280  152.2980 N   0  0  0  0  0  2  0  0  0  0  0  0
  161.4640  205.0200  152.4090 C   0  0  0  0  0  2  0  0  0  0  0  0
  161.8840  204.0090  151.3520 C   0  0  0  0  0  2  0  0  0  0  0  0
  161.0870  202.7490  151.4680 C   0  0  0  0  0  0  0  0  0  0  0  0
  160.3180  202.5940  152.4030 O   0  0  0  0  0  0  0  0  0  0  0  0
  161.2810  201.6540  150.4580 C   0  0  0  0  0  2  0  0  0  0  0  0
  161.9140  203.2840  147.5400 O   0  0  0  0  0  0  0  0  0  0  0  0
  160.6270  201.1690  146.6310 C   0  0  0  0  0  2  0  0  0  0  0  0
  159.1110  201.8580  149.2460 C   0  0  0  0  0  1  0  0  0  0  0  0
  162.5270  200.4950  148.1050 C   0  0  0  0  0  1  0  0  0  0  0  0
  160.9880  203.3380  148.5890 C   0  0  0  0  0  2  0  0  0  0  0  0
  160.9710  202.9100  146.1440 S   0  0  0  0  0  0  0  0  0  0  0  0
  160.6230  201.9280  149.0900 C   0  0  1  0  0  0  0  0  0  0  0  0
  161.0400  200.8340  148.0700 C   0  0  1  0  0  3  0  0  0  0  0  0
  162.3670  208.1680  150.0130 C   0  0  0  0  0  2  0  0  0  0  0  0
  160.4990  206.6580  149.3300 C   0  0  0  0  0  1  0  0  0  0  0  0
  161.9280  207.6740  147.7270 O   0  0  0  0  0  1  0  0  0  0  0  0
  161.3080  207.8890  148.9570 C   0  0  2  0  0  3  0  0  0  0  0  0
  160.9850  210.8660  150.9580 C   0  0  0  0  0  2  0  0  0  0  0  0
  162.2350  211.1270  150.1370 C   0  0  0  0  0  2  0  0  0  0  0  0
  162.2480  212.9510  146.8820 N   0  0  0  0  0  0  0  0  0  0  0  0
  160.8730  213.3740  147.0930 C   0  0  2  0  0  3  0  0  0  0  0  0
  160.2840  212.6400  148.6630 S   0  0  0  0  0  0  0  0  0  0  0  0
  164.1630  211.6670  147.9290 C   0  0  0  0  0  1  0  0  0  0  0  0
  162.7530  212.1440  147.9310 C   0  0  0  0  0  0  0  0  0  0  0  0
  161.8930  211.8970  148.9050 C   0  0  1  0  0  3  0  0  0  0  0  0
  160.5150  212.9180  144.6110 N   0  0  0  0  0  0  0  0  0  0  0  0
  162.3040  211.8600  141.0280 C   0  0  0  0  0  1  0  0  0  0  0  0
  161.8150  213.5130  144.3060 C   0  0  0  0  0  2  0  0  0  0  0  0
  159.6340  212.5630  143.4990 C   0  0  0  0  0  2  0  0  0  0  0  0
  160.0060  212.9320  145.9540 C   0  0  0  0  0  0  0  0  0  0  0  0
  161.5980  212.6230  142.0390 N   0  0  0  0  0  0  0  0  0  0  0  0
  160.4350  211.8280  142.4290 C   0  0  0  0  0  2  0  0  0  0  0  0
  162.4930  212.7230  143.1900 C   0  0  0  0  0  2  0  0  0  0  0  0
  158.8130  212.5900  146.1800 O   0  0  0  0  0  0  0  0  0  0  0  0
  1  7  1  0  0  0  0
  2  9  2  0  0  0  0
  3  6  1  0  0  0  0
  4  3  2  0  0  0  0
  4  8  1  0  0  0  0
  6  1  2  0  0  0  0
  6  2  1  0  0  0  0
  7  5  2  0  0  0  0
  8  1  1  0  0  0  0
  9  5  1  0  0  0  0
  9 11  1  0  0  0  0
 10 11  1  0  0  0  0
 12  8  1  0  0  0  0
 12 13  1  0  0  0  0
 14 15  1  0  0  0  0
 14 13  1  0  0  0  0
 15 16  2  0  0  0  0
 17 15  1  0  0  0  0
 18 22  1  0  0  0  0
 19 25  1  0  0  0  0
 22 24  1  0  0  0  0
 23 19  1  0  0  0  0
 23 18  1  0  0  0  0
 24 20  1  1  0  0  0
 24 17  1  0  0  0  0
 25 21  1  6  0  0  0
 25 24  1  0  0  0  0
 26  4  1  0  0  0  0
 28 29  1  0  0  0  0
 29 27  1  1  0  0  0
 29 26  1  0  0  0  0
 30  3  1  0  0  0  0
 31 30  1  0  0  0  0
 32 33  1  0  0  0  0
 32 36  2  0  0  0  0
 33 42  1  6  0  0  0
 33 34  1  0  0  0  0
 34 37  1  0  0  0  0
 35 36  1  0  0  0  0
 36 37  1  0  0  0  0
 37 31  1  1  0  0  0
 38 42  1  0  0  0  0
 39 43  1  0  0  0  0
 40 38  1  0  0  0  0
 41 38  1  0  0  0  0
 42 46  2  0  0  0  0
 43 44  1  0  0  0  0
 43 45  1  0  0  0  0
 44 41  1  0  0  0  0
 45 40  1  0  0  0  0
M  END
>  <MODEL>
1

>  <REMARK>
 VINA RESULT:      -6.3      0.000      0.000
  Name = 
  13 active torsions:
  status: ('A' for Active; 'I' for Inactive)
    1  A    between atoms: N_9  and  N_34
    2  A    between atoms: N_9  and  C_36
    3  A    between atoms: C_10  and  C_29
    4  A    between atoms: C_12  and  C_40
    5  A    between atoms: C_15  and  C_17
    6  A    between atoms: C_15  and  C_32
    7  A    between atoms: C_23  and  C_27
    8  A    between atoms: C_23  and  C_36
    9  A    between atoms: C_24  and  C_38
   10  A    between atoms: C_27  and  C_45
   11  A    between atoms: C_39  and  C_43
   12  A    between atoms: C_40  and  C_43
   13  A    between atoms: C_44  and  C_45
                            x       y       z     vdW  Elec       q    Type
                         _______ _______ _______ _____ _____    ______ ____

>  <TORSDO>
F 13

$$$$
=
 OpenBabel11042422023D

 46 50  0  0  1  0  0  0  0  0999 V2000
  161.1970  207.2580  152.1360 C   0  0  0  0  0  0  0  0  0  0  0  0
  161.3820  206.4550  149.8570 C   0  0  0  0  0  3  0  0  0  0  0  0
  161.4410  208.8570  150.6160 C   0  0  0  0  0  0  0  0  0  0  0  0
  161.3340  209.4080  151.8920 C   0  0  0  0  0  0  0  0  0  0  0  0
  161.0990  204.8960  151.7200 C   0  0  0  0  0  3  0  0  0  0  0  0
  161.3510  207.4910  150.7900 C   0  0  0  0  0  0  0  0  0  0  0  0
  161.0690  205.9610  152.6380 C   0  0  0  0  0  3  0  0  0  0  0  0
  161.1860  208.4260  152.8120 N   0  0  0  0  0  0  0  0  0  0  0  0
  161.2480  205.1390  150.3380 C   0  0  0  0  0  0  0  0  0  0  0  0
  161.3180  204.4720  148.0770 O   0  0  0  0  0  1  0  0  0  0  0  0
  161.2940  203.9970  149.3860 C   0  0  0  0  0  2  0  0  0  0  0  0
  161.0280  208.6360  154.1940 N   0  0  0  0  0  2  0  0  0  0  0  0
  160.1720  209.6720  154.7530 C   0  0  0  0  0  2  0  0  0  0  0  0
  160.9970  210.6480  155.5800 C   0  0  0  0  0  2  0  0  0  0  0  0
  160.1310  211.7080  156.1810 C   0  0  0  0  0  0  0  0  0  0  0  0
  160.6230  212.7570  156.5660 O   0  0  0  0  0  0  0  0  0  0  0  0
  158.6610  211.4520  156.3610 C   0  0  0  0  0  2  0  0  0  0  0  0
  157.0530  213.1290  153.8770 O   0  0  0  0  0  0  0  0  0  0  0  0
  155.3230  213.4250  155.8450 C   0  0  0  0  0  2  0  0  0  0  0  0
  158.0690  213.7000  157.2590 C   0  0  0  0  0  1  0  0  0  0  0  0
  155.9140  211.0190  155.5280 C   0  0  0  0  0  1  0  0  0  0  0  0
  158.0760  213.3610  154.8040 C   0  0  0  0  0  2  0  0  0  0  0  0
  155.8240  214.2680  154.2880 S   0  0  0  0  0  0  0  0  0  0  0  0
  157.7700  212.6930  156.1580 C   0  0  1  0  0  0  0  0  0  0  0  0
  156.2730  212.2990  156.2750 C   0  0  1  0  0  3  0  0  0  0  0  0
  161.3110  210.8700  152.2130 C   0  0  0  0  0  2  0  0  0  0  0  0
  160.0300  213.0020  151.9930 C   0  0  0  0  0  1  0  0  0  0  0  0
  158.9650  210.9670  152.6000 O   0  0  0  0  0  1  0  0  0  0  0  0
  159.9840  211.4950  151.8080 C   0  0  2  0  0  3  0  0  0  0  0  0
  161.5820  209.5870  149.3210 C   0  0  0  0  0  2  0  0  0  0  0  0
  162.2330  210.9380  149.5510 C   0  0  0  0  0  2  0  0  0  0  0  0
  162.2330  213.2130  146.5940 N   0  0  0  0  0  0  0  0  0  0  0  0
  160.8540  213.5900  146.8600 C   0  0  2  0  0  3  0  0  0  0  0  0
  160.2700  212.6300  148.3060 S   0  0  0  0  0  0  0  0  0  0  0  0
  164.1590  211.8080  147.4490 C   0  0  0  0  0  1  0  0  0  0  0  0
  162.7440  212.2680  147.5160 C   0  0  0  0  0  0  0  0  0  0  0  0
  161.8850  211.8750  148.4420 C   0  0  1  0  0  3  0  0  0  0  0  0
  160.5580  213.2840  144.3480 N   0  0  0  0  0  0  0  0  0  0  0  0
  162.3650  212.1520  140.7960 C   0  0  0  0  0  1  0  0  0  0  0  0
  161.9360  213.7200  144.1250 C   0  0  0  0  0  2  0  0  0  0  0  0
  159.6930  213.0910  143.1850 C   0  0  0  0  0  2  0  0  0  0  0  0
  159.9930  213.3090  145.6670 C   0  0  0  0  0  0  0  0  0  0  0  0
  161.7150  212.9580  141.8120 N   0  0  0  0  0  0  0  0  0  0  0  0
  160.4440  212.3030  142.1160 C   0  0  0  0  0  2  0  0  0  0  0  0
  162.5600  212.8950  143.0020 C   0  0  0  0  0  2  0  0  0  0  0  0
  158.7560  213.1150  145.8270 O   0  0  0  0  0  0  0  0  0  0  0  0
  1  7  1  0  0  0  0
  1  8  1  0  0  0  0
  2  9  2  0  0  0  0
  2  6  1  0  0  0  0
  3  6  1  0  0  0  0
  3  4  2  0  0  0  0
  4 26  1  0  0  0  0
  4  8  1  0  0  0  0
  5  7  2  0  0  0  0
  6  1  2  0  0  0  0
  8 12  1  0  0  0  0
  9  5  1  0  0  0  0
 10 11  1  0  0  0  0
 11  9  1  0  0  0  0
 12 13  1  0  0  0  0
 13 14  1  0  0  0  0
 14 15  1  0  0  0  0
 15 17  1  0  0  0  0
 15 16  2  0  0  0  0
 18 23  1  0  0  0  0
 18 22  1  0  0  0  0
 19 25  1  0  0  0  0
 22 24  1  0  0  0  0
 23 19  1  0  0  0  0
 24 25  1  0  0  0  0
 24 17  1  0  0  0  0
 24 20  1  1  0  0  0
 25 21  1  6  0  0  0
 29 27  1  1  0  0  0
 29 26  1  0  0  0  0
 29 28  1  0  0  0  0
 30 31  1  0  0  0  0
 30  3  1  0  0  0  0
 32 33  1  0  0  0  0
 32 36  2  0  0  0  0
 33 42  1  6  0  0  0
 33 34  1  0  0  0  0
 34 37  1  0  0  0  0
 35 36  1  0  0  0  0
 36 37  1  0  0  0  0
 37 31  1  1  0  0  0
 38 42  1  0  0  0  0
 39 43  1  0  0  0  0
 40 38  1  0  0  0  0
 41 38  1  0  0  0  0
 42 46  2  0  0  0  0
 43 44  1  0  0  0  0
 43 45  1  0  0  0  0
 44 41  1  0  0  0  0
 45 40  1  0  0  0  0
M  END
>  <MODEL>
2

>  <REMARK>
 VINA RESULT:      -5.2      2.321      7.442
  Name = 
  13 active torsions:
  status: ('A' for Active; 'I' for Inactive)
    1  A    between atoms: N_9  and  N_34
    2  A    between atoms: N_9  and  C_36
    3  A    between atoms: C_10  and  C_29
    4  A    between atoms: C_12  and  C_40
    5  A    between atoms: C_15  and  C_17
    6  A    between atoms: C_15  and  C_32
    7  A    between atoms: C_23  and  C_27
    8  A    between atoms: C_23  and  C_36
    9  A    between atoms: C_24  and  C_38
   10  A    between atoms: C_27  and  C_45
   11  A    between atoms: C_39  and  C_43
   12  A    between atoms: C_40  and  C_43
   13  A    between atoms: C_44  and  C_45
                            x       y       z     vdW  Elec       q    Type
                         _______ _______ _______ _____ _____    ______ ____

>  <TORSDO>
F 13

$$$$
=
 OpenBabel11042422023D

 46 50  0  0  1  0  0  0  0  0999 V2000
  161.5330  208.2900  152.3840 C   0  0  0  0  0  0  0  0  0  0  0  0
  161.4840  206.2180  151.1300 C   0  0  0  0  0  3  0  0  0  0  0  0
  162.0620  208.5020  150.2390 C   0  0  0  0  0  0  0  0  0  0  0  0
  162.1080  209.7410  150.8780 C   0  0  0  0  0  0  0  0  0  0  0  0
  160.9350  206.2580  153.5130 C   0  0  0  0  0  3  0  0  0  0  0  0
  161.6950  207.5930  151.2100 C   0  0  0  0  0  0  0  0  0  0  0  0
  161.1520  207.6470  153.5630 C   0  0  0  0  0  3  0  0  0  0  0  0
  161.7840  209.6020  152.1840 N   0  0  0  0  0  0  0  0  0  0  0  0
  161.0930  205.5470  152.3040 C   0  0  0  0  0  0  0  0  0  0  0  0
  161.9680  203.4450  151.6880 O   0  0  0  0  0  1  0  0  0  0  0  0
  160.8730  204.0760  152.2770 C   0  0  0  0  0  2  0  0  0  0  0  0
  161.7110  210.6570  153.1110 N   0  0  0  0  0  2  0  0  0  0  0  0
  160.4720  211.0840  153.7430 C   0  0  0  0  0  2  0  0  0  0  0  0
  159.3390  211.0950  152.7270 C   0  0  0  0  0  2  0  0  0  0  0  0
  158.6200  212.4070  152.7390 C   0  0  0  0  0  0  0  0  0  0  0  0
  158.0310  212.7920  151.7420 O   0  0  0  0  0  0  0  0  0  0  0  0
  158.6760  213.2720  153.9660 C   0  0  0  0  0  2  0  0  0  0  0  0
  156.7520  211.1550  155.8070 O   0  0  0  0  0  0  0  0  0  0  0  0
  156.5010  213.3700  157.2170 C   0  0  0  0  0  2  0  0  0  0  0  0
  156.4660  214.3800  154.2860 C   0  0  0  0  0  1  0  0  0  0  0  0
  158.9080  212.8260  156.8260 C   0  0  0  0  0  1  0  0  0  0  0  0
  156.6370  211.9350  154.6500 C   0  0  0  0  0  2  0  0  0  0  0  0
  155.5820  211.8090  156.8930 S   0  0  0  0  0  0  0  0  0  0  0  0
  157.3790  213.2760  154.8000 C   0  0  1  0  0  0  0  0  0  0  0  0
  157.7020  213.5880  156.2860 C   0  0  1  0  0  3  0  0  0  0  0  0
  162.3970  211.0530  150.2190 C   0  0  0  0  0  2  0  0  0  0  0  0
  161.5560  211.7440  147.9720 C   0  0  0  0  0  1  0  0  0  0  0  0
  160.7590  212.7600  149.9650 O   0  0  0  0  0  1  0  0  0  0  0  0
  161.1920  211.5460  149.4330 C   0  0  2  0  0  3  0  0  0  0  0  0
  162.3150  208.2160  148.7960 C   0  0  0  0  0  2  0  0  0  0  0  0
  161.0270  207.7960  148.1120 C   0  0  0  0  0  2  0  0  0  0  0  0
  162.5340  205.1770  145.9230 N   0  0  0  0  0  0  0  0  0  0  0  0
  161.3160  205.1120  145.1320 C   0  0  2  0  0  3  0  0  0  0  0  0
  160.0930  206.2550  145.8720 S   0  0  0  0  0  0  0  0  0  0  0  0
  163.6300  206.3620  147.8750 C   0  0  0  0  0  1  0  0  0  0  0  0
  162.4590  206.1040  146.9910 C   0  0  0  0  0  0  0  0  0  0  0  0
  161.3010  206.7320  147.1020 C   0  0  1  0  0  3  0  0  0  0  0  0
  160.9960  202.8310  146.2230 N   0  0  0  0  0  0  0  0  0  0  0  0
  160.6960  200.7510  149.7930 C   0  0  0  0  0  1  0  0  0  0  0  0
  161.9070  203.2110  147.3020 C   0  0  0  0  0  2  0  0  0  0  0  0
  160.5360  201.4440  146.1560 C   0  0  0  0  0  2  0  0  0  0  0  0
  160.7770  203.7140  145.1120 C   0  0  0  0  0  0  0  0  0  0  0  0
  161.1830  201.2090  148.5050 N   0  0  0  0  0  0  0  0  0  0  0  0
  160.1040  200.9840  147.5450 C   0  0  0  0  0  2  0  0  0  0  0  0
  161.3960  202.6490  148.6270 C   0  0  0  0  0  2  0  0  0  0  0  0
  160.1440  203.3080  144.0990 O   0  0  0  0  0  0  0  0  0  0  0  0
  1  7  1  0  0  0  0
  2  6  1  0  0  0  0
  2  9  2  0  0  0  0
  3  4  2  0  0  0  0
  3  6  1  0  0  0  0
  4  8  1  0  0  0  0
  5  7  2  0  0  0  0
  6  1  2  0  0  0  0
  8  1  1  0  0  0  0
  8 12  1  0  0  0  0
  9  5  1  0  0  0  0
 10 11  1  0  0  0  0
 11  9  1  0  0  0  0
 12 13  1  0  0  0  0
 14 15  1  0  0  0  0
 14 13  1  0  0  0  0
 15 17  1  0  0  0  0
 16 15  2  0  0  0  0
 17 24  1  0  0  0  0
 18 23  1  0  0  0  0
 22 24  1  0  0  0  0
 22 18  1  0  0  0  0
 23 19  1  0  0  0  0
 24 20  1  6  0  0  0
 24 25  1  0  0  0  0
 25 21  1  1  0  0  0
 25 19  1  0  0  0  0
 26  4  1  0  0  0  0
 29 27  1  6  0  0  0
 29 28  1  0  0  0  0
 29 26  1  0  0  0  0
 30  3  1  0  0  0  0
 31 30  1  0  0  0  0
 32 36  2  0  0  0  0
 33 42  1  1  0  0  0
 33 34  1  0  0  0  0
 33 32  1  0  0  0  0
 34 37  1  0  0  0  0
 36 37  1  0  0  0  0
 36 35  1  0  0  0  0
 37 31  1  6  0  0  0
 38 40  1  0  0  0  0
 40 45  1  0  0  0  0
 41 38  1  0  0  0  0
 41 44  1  0  0  0  0
 42 38  1  0  0  0  0
 43 45  1  0  0  0  0
 43 39  1  0  0  0  0
 44 43  1  0  0  0  0
 46 42  2  0  0  0  0
M  END
>  <MODEL>
3

>  <REMARK>
 VINA RESULT:      -5.2      3.431      9.241
  Name = 
  13 active torsions:
  status: ('A' for Active; 'I' for Inactive)
    1  A    between atoms: N_9  and  N_34
    2  A    between atoms: N_9  and  C_36
    3  A    between atoms: C_10  and  C_29
    4  A    between atoms: C_12  and  C_40
    5  A    between atoms: C_15  and  C_17
    6  A    between atoms: C_15  and  C_32
    7  A    between atoms: C_23  and  C_27
    8  A    between atoms: C_23  and  C_36
    9  A    between atoms: C_24  and  C_38
   10  A    between atoms: C_27  and  C_45
   11  A    between atoms: C_39  and  C_43
   12  A    between atoms: C_40  and  C_43
   13  A    between atoms: C_44  and  C_45
                            x       y       z     vdW  Elec       q    Type
                         _______ _______ _______ _____ _____    ______ ____

>  <TORSDO>
F 13

$$$$
=
 OpenBabel11042422023D

 46 50  0  0  1  0  0  0  0  0999 V2000
  161.2460  210.5120  151.2420 C   0  0  0  0  0  0  0  0  0  0  0  0
  162.0390  210.7510  148.9650 C   0  0  0  0  0  3  0  0  0  0  0  0
  162.2930  208.7260  150.4430 C   0  0  0  0  0  0  0  0  0  0  0  0
  161.8800  208.5030  151.7550 C   0  0  0  0  0  0  0  0  0  0  0  0
  160.8570  212.5780  150.0830 C   0  0  0  0  0  3  0  0  0  0  0  0
  161.8830  210.0070  150.1330 C   0  0  0  0  0  0  0  0  0  0  0  0
  160.7160  211.8040  151.2490 C   0  0  0  0  0  3  0  0  0  0  0  0
  161.2430  209.5970  152.2340 N   0  0  0  0  0  0  0  0  0  0  0  0
  161.5200  212.0590  148.9500 C   0  0  0  0  0  0  0  0  0  0  0  0
  161.2810  214.2050  148.0010 O   0  0  0  0  0  1  0  0  0  0  0  0
  161.6440  212.8890  147.7210 C   0  0  0  0  0  2  0  0  0  0  0  0
  160.7190  209.7170  153.5340 N   0  0  0  0  0  2  0  0  0  0  0  0
  161.2380  210.6500  154.5230 C   0  0  0  0  0  2  0  0  0  0  0  0
  160.5540  210.4300  155.8650 C   0  0  0  0  0  2  0  0  0  0  0  0
  159.9240  211.6930  156.3590 C   0  0  0  0  0  0  0  0  0  0  0  0
  160.6230  212.6220  156.7310 O   0  0  0  0  0  0  0  0  0  0  0  0
  158.4280  211.7890  156.4490 C   0  0  0  0  0  2  0  0  0  0  0  0
  157.8370  212.6710  153.2170 O   0  0  0  0  0  0  0  0  0  0  0  0
  155.6840  213.6560  154.3780 C   0  0  0  0  0  2  0  0  0  0  0  0
  157.9310  214.2320  156.4350 C   0  0  0  0  0  1  0  0  0  0  0  0
  155.9920  211.2480  154.9630 C   0  0  0  0  0  1  0  0  0  0  0  0
  158.5810  213.1340  154.3100 C   0  0  0  0  0  2  0  0  0  0  0  0
  156.7160  213.9390  152.8810 S   0  0  0  0  0  0  0  0  0  0  0  0
  157.8150  212.9440  155.6320 C   0  0  1  0  0  0  0  0  0  0  0  0
  156.3050  212.6800  155.3860 C   0  0  1  0  0  3  0  0  0  0  0  0
  162.1560  207.2720  152.5600 C   0  0  0  0  0  2  0  0  0  0  0  0
  160.6620  206.6040  154.4460 C   0  0  0  0  0  1  0  0  0  0  0  0
  160.9150  205.2420  152.5170 O   0  0  0  0  0  1  0  0  0  0  0  0
  160.8620  206.5690  152.9410 C   0  0  2  0  0  3  0  0  0  0  0  0
  163.0570  207.7950  149.5610 C   0  0  0  0  0  2  0  0  0  0  0  0
  162.4190  207.7360  148.1850 C   0  0  0  0  0  2  0  0  0  0  0  0
  161.2100  204.5030  146.7680 N   0  0  0  0  0  0  0  0  0  0  0  0
  160.5040  204.2040  148.0040 C   0  0  2  0  0  3  0  0  0  0  0  0
  160.8370  205.5570  149.1920 S   0  0  0  0  0  0  0  0  0  0  0  0
  162.6370  206.2460  145.6130 C   0  0  0  0  0  1  0  0  0  0  0  0
  161.9080  205.7340  146.8050 C   0  0  0  0  0  0  0  0  0  0  0  0
  161.8190  206.3890  147.9510 C   0  0  1  0  0  3  0  0  0  0  0  0
  160.8690  201.6910  147.7860 N   0  0  0  0  0  0  0  0  0  0  0  0
  161.6060  198.5470  145.1910 C   0  0  0  0  0  1  0  0  0  0  0  0
  160.1560  201.6910  146.5090 C   0  0  0  0  0  2  0  0  0  0  0  0
  161.2410  200.4060  148.3760 C   0  0  0  0  0  2  0  0  0  0  0  0
  160.9610  202.8930  148.5660 C   0  0  0  0  0  0  0  0  0  0  0  0
  160.9510  199.4050  146.1610 N   0  0  0  0  0  0  0  0  0  0  0  0
  161.8570  199.5130  147.3030 C   0  0  0  0  0  2  0  0  0  0  0  0
  160.8340  200.7230  145.5420 C   0  0  0  0  0  2  0  0  0  0  0  0
  161.4090  202.8470  149.7450 O   0  0  0  0  0  0  0  0  0  0  0  0
  1  7  1  0  0  0  0
  1  8  1  0  0  0  0
  2  6  1  0  0  0  0
  3  4  2  0  0  0  0
  4  8  1  0  0  0  0
  4 26  1  0  0  0  0
  5  7  2  0  0  0  0
  6  3  1  0  0  0  0
  6  1  2  0  0  0  0
  8 12  1  0  0  0  0
  9  2  2  0  0  0  0
  9  5  1  0  0  0  0
 11 10  1  0  0  0  0
 11  9  1  0  0  0  0
 12 13  1  0  0  0  0
 13 14  1  0  0  0  0
 14 15  1  0  0  0  0
 15 17  1  0  0  0  0
 15 16  2  0  0  0  0
 18 22  1  0  0  0  0
 19 25  1  0  0  0  0
 22 24  1  0  0  0  0
 23 18  1  0  0  0  0
 23 19  1  0  0  0  0
 24 20  1  1  0  0  0
 24 17  1  0  0  0  0
 25 21  1  6  0  0  0
 25 24  1  0  0  0  0
 26 29  1  0  0  0  0
 28 29  1  0  0  0  0
 29 27  1  1  0  0  0
 30  3  1  0  0  0  0
 31 30  1  0  0  0  0
 32 36  2  0  0  0  0
 32 33  1  0  0  0  0
 33 42  1  1  0  0  0
 33 34  1  0  0  0  0
 35 36  1  0  0  0  0
 36 37  1  0  0  0  0
 37 31  1  6  0  0  0
 37 34  1  0  0  0  0
 38 41  1  0  0  0  0
 38 42  1  0  0  0  0
 39 43  1  0  0  0  0
 40 38  1  0  0  0  0
 42 46  2  0  0  0  0
 43 44  1  0  0  0  0
 44 41  1  0  0  0  0
 45 43  1  0  0  0  0
 45 40  1  0  0  0  0
M  END
>  <MODEL>
4

>  <REMARK>
 VINA RESULT:      -4.9      3.403      9.505
  Name = 
  13 active torsions:
  status: ('A' for Active; 'I' for Inactive)
    1  A    between atoms: N_9  and  N_34
    2  A    between atoms: N_9  and  C_36
    3  A    between atoms: C_10  and  C_29
    4  A    between atoms: C_12  and  C_40
    5  A    between atoms: C_15  and  C_17
    6  A    between atoms: C_15  and  C_32
    7  A    between atoms: C_23  and  C_27
    8  A    between atoms: C_23  and  C_36
    9  A    between atoms: C_24  and  C_38
   10  A    between atoms: C_27  and  C_45
   11  A    between atoms: C_39  and  C_43
   12  A    between atoms: C_40  and  C_43
   13  A    between atoms: C_44  and  C_45
                            x       y       z     vdW  Elec       q    Type
                         _______ _______ _______ _____ _____    ______ ____

>  <TORSDO>
F 13

$$$$
=
 OpenBabel11042422023D

 46 50  0  0  1  0  0  0  0  0999 V2000
  161.1720  205.1310  152.0460 C   0  0  0  0  0  0  0  0  0  0  0  0
  160.6940  203.9250  150.0000 C   0  0  0  0  0  3  0  0  0  0  0  0
  160.7910  206.4260  150.2840 C   0  0  0  0  0  0  0  0  0  0  0  0
  161.0480  207.2020  151.4140 C   0  0  0  0  0  0  0  0  0  0  0  0
  161.1430  202.7310  152.0870 C   0  0  0  0  0  3  0  0  0  0  0  0
  160.8730  205.1140  150.7040 C   0  0  0  0  0  0  0  0  0  0  0  0
  161.3160  203.9470  152.7720 C   0  0  0  0  0  3  0  0  0  0  0  0
  161.2790  206.4040  152.4820 N   0  0  0  0  0  0  0  0  0  0  0  0
  160.8270  202.7180  150.7110 C   0  0  0  0  0  0  0  0  0  0  0  0
  159.4180  201.3750  149.3800 O   0  0  0  0  0  1  0  0  0  0  0  0
  160.6640  201.4200  150.0020 C   0  0  0  0  0  2  0  0  0  0  0  0
  161.5480  206.8630  153.7850 N   0  0  0  0  0  2  0  0  0  0  0  0
  160.6410  207.7170  154.5360 C   0  0  0  0  0  2  0  0  0  0  0  0
  161.2850  208.1470  155.8460 C   0  0  0  0  0  2  0  0  0  0  0  0
  161.6140  209.6060  155.8290 C   0  0  0  0  0  0  0  0  0  0  0  0
  162.4430  210.0560  156.6030 O   0  0  0  0  0  0  0  0  0  0  0  0
  160.8770  210.5210  154.8940 C   0  0  0  0  0  2  0  0  0  0  0  0
  159.3320  213.5520  154.9370 O   0  0  0  0  0  0  0  0  0  0  0  0
  157.2370  211.9520  155.0060 C   0  0  0  0  0  2  0  0  0  0  0  0
  159.2970  210.5120  156.8220 C   0  0  0  0  0  1  0  0  0  0  0  0
  158.7490  211.3650  153.1070 C   0  0  0  0  0  1  0  0  0  0  0  0
  159.9640  212.6870  155.8380 C   0  0  0  0  0  2  0  0  0  0  0  0
  157.7060  213.6610  155.5020 S   0  0  0  0  0  0  0  0  0  0  0  0
  159.6480  211.2130  155.5180 C   0  0  1  0  0  0  0  0  0  0  0  0
  158.4250  211.0840  154.5710 C   0  0  1  0  0  3  0  0  0  0  0  0
  161.0060  208.6970  151.4750 C   0  0  0  0  0  2  0  0  0  0  0  0
  162.8120  210.3280  152.0320 C   0  0  0  0  0  1  0  0  0  0  0  0
  162.1610  209.9110  149.7860 O   0  0  0  0  0  1  0  0  0  0  0  0
  162.3300  209.2970  151.0260 C   0  0  2  0  0  3  0  0  0  0  0  0
  160.4550  206.9070  148.9110 C   0  0  0  0  0  2  0  0  0  0  0  0
  161.7080  206.9680  148.0580 C   0  0  0  0  0  2  0  0  0  0  0  0
  162.1020  204.8730  144.9950 N   0  0  0  0  0  0  0  0  0  0  0  0
  160.7350  205.1650  144.5980 C   0  0  2  0  0  3  0  0  0  0  0  0
  159.9710  206.2040  145.8980 S   0  0  0  0  0  0  0  0  0  0  0  0
  163.8530  205.3550  146.7600 C   0  0  0  0  0  1  0  0  0  0  0  0
  162.4720  205.4820  146.2190 C   0  0  0  0  0  0  0  0  0  0  0  0
  161.5160  206.1880  146.7990 C   0  0  1  0  0  3  0  0  0  0  0  0
  160.4300  202.6650  144.9870 N   0  0  0  0  0  0  0  0  0  0  0  0
  161.2210  199.4660  147.4970 C   0  0  0  0  0  1  0  0  0  0  0  0
  161.7650  202.5860  145.5770 C   0  0  0  0  0  2  0  0  0  0  0  0
  159.7040  201.4200  144.7380 C   0  0  0  0  0  2  0  0  0  0  0  0
  159.9570  203.8970  144.4210 C   0  0  0  0  0  0  0  0  0  0  0  0
  161.2090  200.3270  146.3300 N   0  0  0  0  0  0  0  0  0  0  0  0
  159.8060  200.5170  145.9640 C   0  0  0  0  0  2  0  0  0  0  0  0
  161.7500  201.6160  146.7560 C   0  0  0  0  0  2  0  0  0  0  0  0
  158.8880  203.9130  143.7500 O   0  0  0  0  0  0  0  0  0  0  0  0
  1  8  1  0  0  0  0
  1  7  1  0  0  0  0
  2  6  1  0  0  0  0
  2  9  2  0  0  0  0
  3  6  1  0  0  0  0
  3  4  2  0  0  0  0
  4 26  1  0  0  0  0
  4  8  1  0  0  0  0
  5  7  2  0  0  0  0
  6  1  2  0  0  0  0
  8 12  1  0  0  0  0
  9  5  1  0  0  0  0
 10 11  1  0  0  0  0
 11  9  1  0  0  0  0
 12 13  1  0  0  0  0
 13 14  1  0  0  0  0
 15 14  1  0  0  0  0
 15 16  2  0  0  0  0
 17 24  1  0  0  0  0
 17 15  1  0  0  0  0
 18 23  1  0  0  0  0
 18 22  1  0  0  0  0
 19 23  1  0  0  0  0
 24 22  1  0  0  0  0
 24 20  1  1  0  0  0
 25 21  1  6  0  0  0
 25 19  1  0  0  0  0
 25 24  1  0  0  0  0
 28 29  1  0  0  0  0
 29 26  1  0  0  0  0
 29 27  1  1  0  0  0
 30  3  1  0  0  0  0
 31 30  1  0  0  0  0
 32 36  2  0  0  0  0
 33 42  1  1  0  0  0
 33 32  1  0  0  0  0
 33 34  1  0  0  0  0
 34 37  1  0  0  0  0
 36 35  1  0  0  0  0
 36 37  1  0  0  0  0
 37 31  1  6  0  0  0
 38 40  1  0  0  0  0
 40 45  1  0  0  0  0
 41 38  1  0  0  0  0
 41 44  1  0  0  0  0
 42 38  1  0  0  0  0
 43 45  1  0  0  0  0
 43 39  1  0  0  0  0
 44 43  1  0  0  0  0
 46 42  2  0  0  0  0
M  END
>  <MODEL>
5

>  <REMARK>
 VINA RESULT:      -4.8      4.129      8.928
  Name = 
  13 active torsions:
  status: ('A' for Active; 'I' for Inactive)
    1  A    between atoms: N_9  and  N_34
    2  A    between atoms: N_9  and  C_36
    3  A    between atoms: C_10  and  C_29
    4  A    between atoms: C_12  and  C_40
    5  A    between atoms: C_15  and  C_17
    6  A    between atoms: C_15  and  C_32
    7  A    between atoms: C_23  and  C_27
    8  A    between atoms: C_23  and  C_36
    9  A    between atoms: C_24  and  C_38
   10  A    between atoms: C_27  and  C_45
   11  A    between atoms: C_39  and  C_43
   12  A    between atoms: C_40  and  C_43
   13  A    between atoms: C_44  and  C_45
                            x       y       z     vdW  Elec       q    Type
                         _______ _______ _______ _____ _____    ______ ____

>  <TORSDO>
F 13

$$$$
=
 OpenBabel11042422023D

 46 50  0  0  1  0  0  0  0  0999 V2000
  161.6030  207.9650  152.5460 C   0  0  0  0  0  0  0  0  0  0  0  0
  161.8050  205.8490  151.3840 C   0  0  0  0  0  3  0  0  0  0  0  0
  162.4200  208.1220  150.4890 C   0  0  0  0  0  0  0  0  0  0  0  0
  162.3310  209.3830  151.0770 C   0  0  0  0  0  0  0  0  0  0  0  0
  160.9250  205.9520  153.6640 C   0  0  0  0  0  3  0  0  0  0  0  0
  161.9530  207.2340  151.4360 C   0  0  0  0  0  0  0  0  0  0  0  0
  161.0830  207.3490  153.6870 C   0  0  0  0  0  3  0  0  0  0  0  0
  161.8330  209.2780  152.3310 N   0  0  0  0  0  0  0  0  0  0  0  0
  161.2760  205.2050  152.5190 C   0  0  0  0  0  0  0  0  0  0  0  0
  160.2130  203.3460  151.5300 O   0  0  0  0  0  1  0  0  0  0  0  0
  161.1150  203.7260  152.5220 C   0  0  0  0  0  2  0  0  0  0  0  0
  161.5930  210.3620  153.1940 N   0  0  0  0  0  2  0  0  0  0  0  0
  160.2590  210.8450  153.5210 C   0  0  0  0  0  2  0  0  0  0  0  0
  159.8530  210.3740  154.9090 C   0  0  0  0  0  2  0  0  0  0  0  0
  159.7000  211.5300  155.8450 C   0  0  0  0  0  0  0  0  0  0  0  0
  160.6440  212.2740  156.0610 O   0  0  0  0  0  0  0  0  0  0  0  0
  158.3950  211.7370  156.5600 C   0  0  0  0  0  2  0  0  0  0  0  0
  156.7510  213.0360  153.8810 O   0  0  0  0  0  0  0  0  0  0  0  0
  155.2720  213.9830  155.8480 C   0  0  0  0  0  2  0  0  0  0  0  0
  158.1590  214.1860  156.9620 C   0  0  0  0  0  1  0  0  0  0  0  0
  155.5460  211.5090  156.0460 C   0  0  0  0  0  1  0  0  0  0  0  0
  157.8820  213.3240  154.6550 C   0  0  0  0  0  2  0  0  0  0  0  0
  155.7090  214.3920  154.1080 S   0  0  0  0  0  0  0  0  0  0  0  0
  157.6380  213.0140  156.1440 C   0  0  1  0  0  0  0  0  0  0  0  0
  156.1240  212.8600  156.4540 C   0  0  1  0  0  3  0  0  0  0  0  0
  162.6640  210.6820  150.4110 C   0  0  0  0  0  2  0  0  0  0  0  0
  161.9560  211.4620  148.1470 C   0  0  0  0  0  1  0  0  0  0  0  0
  160.9850  212.3450  150.1270 O   0  0  0  0  0  1  0  0  0  0  0  0
  161.4980  211.1750  149.5670 C   0  0  2  0  0  3  0  0  0  0  0  0
  162.8840  207.7950  149.1080 C   0  0  0  0  0  2  0  0  0  0  0  0
  161.7020  207.7470  148.1580 C   0  0  0  0  0  2  0  0  0  0  0  0
  161.4370  204.4970  146.3450 N   0  0  0  0  0  0  0  0  0  0  0  0
  160.6000  203.9540  147.4020 C   0  0  2  0  0  3  0  0  0  0  0  0
  160.4390  205.2240  148.7110 S   0  0  0  0  0  0  0  0  0  0  0  0
  162.6640  206.5790  145.5900 C   0  0  0  0  0  1  0  0  0  0  0  0
  161.8550  205.8280  146.5880 C   0  0  0  0  0  0  0  0  0  0  0  0
  161.4360  206.3410  147.7330 C   0  0  1  0  0  3  0  0  0  0  0  0
  161.0050  201.4400  147.3100 N   0  0  0  0  0  0  0  0  0  0  0  0
  161.3310  198.1080  144.8710 C   0  0  0  0  0  1  0  0  0  0  0  0
  160.0560  201.3190  146.2050 C   0  0  0  0  0  2  0  0  0  0  0  0
  161.5320  200.2150  147.9120 C   0  0  0  0  0  2  0  0  0  0  0  0
  161.2050  202.7030  147.9620 C   0  0  0  0  0  0  0  0  0  0  0  0
  160.8490  199.0290  145.8820 N   0  0  0  0  0  0  0  0  0  0  0  0
  161.9570  199.2490  146.8100 C   0  0  0  0  0  2  0  0  0  0  0  0
  160.5650  200.2890  145.2000 C   0  0  0  0  0  2  0  0  0  0  0  0
  161.8770  202.7640  149.0280 O   0  0  0  0  0  0  0  0  0  0  0  0
  1  7  1  0  0  0  0
  2  6  1  0  0  0  0
  2  9  2  0  0  0  0
  3  4  2  0  0  0  0
  3  6  1  0  0  0  0
  4  8  1  0  0  0  0
  5  7  2  0  0  0  0
  6  1  2  0  0  0  0
  8  1  1  0  0  0  0
  8 12  1  0  0  0  0
  9 11  1  0  0  0  0
  9  5  1  0  0  0  0
 10 11  1  0  0  0  0
 12 13  1  0  0  0  0
 13 14  1  0  0  0  0
 14 15  1  0  0  0  0
 15 16  2  0  0  0  0
 15 17  1  0  0  0  0
 18 23  1  0  0  0  0
 18 22  1  0  0  0  0
 19 25  1  0  0  0  0
 22 24  1  0  0  0  0
 23 19  1  0  0  0  0
 24 25  1  0  0  0  0
 24 17  1  0  0  0  0
 24 20  1  1  0  0  0
 25 21  1  6  0  0  0
 26  4  1  0  0  0  0
 29 27  1  6  0  0  0
 29 28  1  0  0  0  0
 29 26  1  0  0  0  0
 30  3  1  0  0  0  0
 31 30  1  0  0  0  0
 32 36  2  0  0  0  0
 32 33  1  0  0  0  0
 33 42  1  1  0  0  0
 33 34  1  0  0  0  0
 35 36  1  0  0  0  0
 36 37  1  0  0  0  0
 37 31  1  6  0  0  0
 37 34  1  0  0  0  0
 38 41  1  0  0  0  0
 38 42  1  0  0  0  0
 39 43  1  0  0  0  0
 40 38  1  0  0  0  0
 42 46  2  0  0  0  0
 43 44  1  0  0  0  0
 44 41  1  0  0  0  0
 45 43  1  0  0  0  0
 45 40  1  0  0  0  0
M  END
>  <MODEL>
6

>  <REMARK>
 VINA RESULT:      -4.8      3.501      9.616
  Name = 
  13 active torsions:
  status: ('A' for Active; 'I' for Inactive)
    1  A    between atoms: N_9  and  N_34
    2  A    between atoms: N_9  and  C_36
    3  A    between atoms: C_10  and  C_29
    4  A    between atoms: C_12  and  C_40
    5  A    between atoms: C_15  and  C_17
    6  A    between atoms: C_15  and  C_32
    7  A    between atoms: C_23  and  C_27
    8  A    between atoms: C_23  and  C_36
    9  A    between atoms: C_24  and  C_38
   10  A    between atoms: C_27  and  C_45
   11  A    between atoms: C_39  and  C_43
   12  A    between atoms: C_40  and  C_43
   13  A    between atoms: C_44  and  C_45
                            x       y       z     vdW  Elec       q    Type
                         _______ _______ _______ _____ _____    ______ ____

>  <TORSDO>
F 13

$$$$
=
 OpenBabel11042422023D

 46 50  0  0  1  0  0  0  0  0999 V2000
  161.2080  205.9870  151.7750 C   0  0  0  0  0  0  0  0  0  0  0  0
  161.2120  205.5250  149.3970 C   0  0  0  0  0  3  0  0  0  0  0  0
  161.2790  207.7940  150.4880 C   0  0  0  0  0  0  0  0  0  0  0  0
  161.2720  208.1540  151.8350 C   0  0  0  0  0  0  0  0  0  0  0  0
  161.1310  203.7060  151.0310 C   0  0  0  0  0  3  0  0  0  0  0  0
  161.2380  206.4150  150.4690 C   0  0  0  0  0  0  0  0  0  0  0  0
  161.1560  204.6280  152.0930 C   0  0  0  0  0  3  0  0  0  0  0  0
  161.2290  207.0470  152.6120 N   0  0  0  0  0  0  0  0  0  0  0  0
  161.1520  204.1500  149.6910 C   0  0  0  0  0  0  0  0  0  0  0  0
  161.3820  203.7980  147.3700 O   0  0  0  0  0  1  0  0  0  0  0  0
  161.1420  203.1570  148.5830 C   0  0  0  0  0  2  0  0  0  0  0  0
  161.1870  207.0520  154.0180 N   0  0  0  0  0  2  0  0  0  0  0  0
  160.0100  207.4360  154.7820 C   0  0  0  0  0  2  0  0  0  0  0  0
  160.3870  207.7040  156.2320 C   0  0  0  0  0  2  0  0  0  0  0  0
  160.1220  209.1280  156.6010 C   0  0  0  0  0  0  0  0  0  0  0  0
  161.0250  209.8290  157.0310 O   0  0  0  0  0  0  0  0  0  0  0  0
  158.7260  209.6750  156.4940 C   0  0  0  0  0  2  0  0  0  0  0  0
  158.3350  211.4400  153.6130 O   0  0  0  0  0  0  0  0  0  0  0  0
  156.9950  212.9700  155.2910 C   0  0  0  0  0  2  0  0  0  0  0  0
  159.4210  212.0210  156.9710 C   0  0  0  0  0  1  0  0  0  0  0  0
  156.2000  210.6050  155.4070 C   0  0  0  0  0  1  0  0  0  0  0  0
  159.3000  211.2690  154.6130 C   0  0  0  0  0  2  0  0  0  0  0  0
  157.9060  213.1090  153.6990 S   0  0  0  0  0  0  0  0  0  0  0  0
  158.6520  211.1340  156.0030 C   0  0  1  0  0  0  0  0  0  0  0  0
  157.1770  211.6180  155.9950 C   0  0  1  0  0  3  0  0  0  0  0  0
  161.2410  209.5530  152.3650 C   0  0  0  0  0  2  0  0  0  0  0  0
  162.3700  210.7010  154.2740 C   0  0  0  0  0  1  0  0  0  0  0  0
  163.2910  210.7290  152.0850 O   0  0  0  0  0  1  0  0  0  0  0  0
  162.5800  209.9320  152.9810 C   0  0  2  0  0  3  0  0  0  0  0  0
  161.2880  208.7060  149.3060 C   0  0  0  0  0  2  0  0  0  0  0  0
  162.4470  209.6800  149.4060 C   0  0  0  0  0  2  0  0  0  0  0  0
  162.1390  213.1250  148.0060 N   0  0  0  0  0  0  0  0  0  0  0  0
  160.9130  213.3400  148.7570 C   0  0  2  0  0  3  0  0  0  0  0  0
  160.5190  211.7980  149.6610 S   0  0  0  0  0  0  0  0  0  0  0  0
  163.9890  211.4510  147.5690 C   0  0  0  0  0  1  0  0  0  0  0  0
  162.6970  211.8380  148.2010 C   0  0  0  0  0  0  0  0  0  0  0  0
  162.0070  211.0500  149.0080 C   0  0  1  0  0  3  0  0  0  0  0  0
  160.0470  214.0200  146.4580 N   0  0  0  0  0  0  0  0  0  0  0  0
  160.6750  213.8370  142.3670 C   0  0  0  0  0  1  0  0  0  0  0  0
  161.4190  214.1800  145.9800 C   0  0  0  0  0  2  0  0  0  0  0  0
  158.9530  214.4530  145.5900 C   0  0  0  0  0  2  0  0  0  0  0  0
  159.7890  213.7040  147.8350 C   0  0  0  0  0  0  0  0  0  0  0  0
  160.5210  214.3580  143.7130 N   0  0  0  0  0  0  0  0  0  0  0  0
  159.1950  213.9450  144.1720 C   0  0  0  0  0  2  0  0  0  0  0  0
  161.5220  213.6860  144.5380 C   0  0  0  0  0  2  0  0  0  0  0  0
  158.6110  213.7530  148.2830 O   0  0  0  0  0  0  0  0  0  0  0  0
  1  7  1  0  0  0  0
  1  8  1  0  0  0  0
  2  9  2  0  0  0  0
  2  6  1  0  0  0  0
  3  4  2  0  0  0  0
  4 26  1  0  0  0  0
  4  8  1  0  0  0  0
  5  7  2  0  0  0  0
  6  3  1  0  0  0  0
  6  1  2  0  0  0  0
  8 12  1  0  0  0  0
  9  5  1  0  0  0  0
 10 11  1  0  0  0  0
 11  9  1  0  0  0  0
 12 13  1  0  0  0  0
 13 14  1  0  0  0  0
 14 15  1  0  0  0  0
 15 16  2  0  0  0  0
 17 15  1  0  0  0  0
 18 23  1  0  0  0  0
 18 22  1  0  0  0  0
 19 25  1  0  0  0  0
 22 24  1  0  0  0  0
 23 19  1  0  0  0  0
 24 17  1  0  0  0  0
 24 20  1  1  0  0  0
 25 21  1  6  0  0  0
 25 24  1  0  0  0  0
 26 29  1  0  0  0  0
 28 29  1  0  0  0  0
 29 27  1  1  0  0  0
 30 31  1  0  0  0  0
 30  3  1  0  0  0  0
 32 36  2  0  0  0  0
 32 33  1  0  0  0  0
 33 42  1  6  0  0  0
 33 34  1  0  0  0  0
 35 36  1  0  0  0  0
 36 37  1  0  0  0  0
 37 31  1  1  0  0  0
 37 34  1  0  0  0  0
 38 42  1  0  0  0  0
 39 43  1  0  0  0  0
 40 38  1  0  0  0  0
 41 38  1  0  0  0  0
 42 46  2  0  0  0  0
 43 44  1  0  0  0  0
 43 45  1  0  0  0  0
 44 41  1  0  0  0  0
 45 40  1  0  0  0  0
M  END
>  <MODEL>
7

>  <REMARK>
 VINA RESULT:      -4.1      2.305      6.985
  Name = 
  13 active torsions:
  status: ('A' for Active; 'I' for Inactive)
    1  A    between atoms: N_9  and  N_34
    2  A    between atoms: N_9  and  C_36
    3  A    between atoms: C_10  and  C_29
    4  A    between atoms: C_12  and  C_40
    5  A    between atoms: C_15  and  C_17
    6  A    between atoms: C_15  and  C_32
    7  A    between atoms: C_23  and  C_27
    8  A    between atoms: C_23  and  C_36
    9  A    between atoms: C_24  and  C_38
   10  A    between atoms: C_27  and  C_45
   11  A    between atoms: C_39  and  C_43
   12  A    between atoms: C_40  and  C_43
   13  A    between atoms: C_44  and  C_45
                            x       y       z     vdW  Elec       q    Type
                         _______ _______ _______ _____ _____    ______ ____

>  <TORSDO>
F 13

$$$$
=
 OpenBabel11042422023D

 46 50  0  0  1  0  0  0  0  0999 V2000
  160.9350  210.6090  151.7780 C   0  0  0  0  0  0  0  0  0  0  0  0
  161.2490  211.4780  149.5380 C   0  0  0  0  0  3  0  0  0  0  0  0
  161.7740  209.1470  150.3360 C   0  0  0  0  0  0  0  0  0  0  0  0
  161.6350  208.5660  151.5950 C   0  0  0  0  0  0  0  0  0  0  0  0
  160.3440  212.8900  151.3190 C   0  0  0  0  0  3  0  0  0  0  0  0
  161.3250  210.4440  150.4700 C   0  0  0  0  0  0  0  0  0  0  0  0
  160.4340  211.8290  152.2380 C   0  0  0  0  0  3  0  0  0  0  0  0
  161.1220  209.4640  152.4680 N   0  0  0  0  0  0  0  0  0  0  0  0
  160.7550  212.7200  149.9790 C   0  0  0  0  0  0  0  0  0  0  0  0
  161.6400  213.7620  148.0570 O   0  0  0  0  0  1  0  0  0  0  0  0
  160.6360  213.8510  149.0200 C   0  0  0  0  0  2  0  0  0  0  0  0
  160.8770  209.2120  153.8290 N   0  0  0  0  0  2  0  0  0  0  0  0
  161.8050  209.5720  154.8910 C   0  0  0  0  0  2  0  0  0  0  0  0
  161.2960  210.7920  155.6440 C   0  0  0  0  0  2  0  0  0  0  0  0
  160.2460  210.4110  156.6380 C   0  0  0  0  0  0  0  0  0  0  0  0
  160.1340  209.2490  156.9960 O   0  0  0  0  0  0  0  0  0  0  0  0
  159.2940  211.4540  157.1490 C   0  0  0  0  0  2  0  0  0  0  0  0
  156.6710  213.6040  156.8790 O   0  0  0  0  0  0  0  0  0  0  0  0
  157.6090  213.6910  154.4170 C   0  0  0  0  0  2  0  0  0  0  0  0
  157.9310  210.7080  155.1990 C   0  0  0  0  0  1  0  0  0  0  0  0
  159.4160  214.1510  156.0790 C   0  0  0  0  0  1  0  0  0  0  0  0
  156.8970  212.2220  156.8660 C   0  0  0  0  0  2  0  0  0  0  0  0
  156.0270  213.9570  155.3180 S   0  0  0  0  0  0  0  0  0  0  0  0
  158.2080  211.8740  156.1370 C   0  0  1  0  0  0  0  0  0  0  0  0
  158.7150  213.0610  155.2740 C   0  0  1  0  0  3  0  0  0  0  0  0
  162.0530  207.1770  151.9670 C   0  0  0  0  0  2  0  0  0  0  0  0
  161.2170  204.9410  152.6980 C   0  0  0  0  0  1  0  0  0  0  0  0
  160.4700  205.9510  150.6820 O   0  0  0  0  0  1  0  0  0  0  0  0
  160.8580  206.2370  151.9910 C   0  0  2  0  0  3  0  0  0  0  0  0
  162.3310  208.5170  149.1020 C   0  0  0  0  0  2  0  0  0  0  0  0
  161.2050  208.1210  148.1640 C   0  0  0  0  0  2  0  0  0  0  0  0
  162.9020  205.1400  146.6950 N   0  0  0  0  0  0  0  0  0  0  0  0
  161.8380  204.9950  145.7140 C   0  0  2  0  0  3  0  0  0  0  0  0
  160.5790  206.2830  146.0430 S   0  0  0  0  0  0  0  0  0  0  0  0
  163.7140  206.5760  148.6160 C   0  0  0  0  0  1  0  0  0  0  0  0
  162.7010  206.2250  147.5830 C   0  0  0  0  0  0  0  0  0  0  0  0
  161.5830  206.9020  147.3880 C   0  0  1  0  0  3  0  0  0  0  0  0
  161.2070  202.9180  147.0490 N   0  0  0  0  0  0  0  0  0  0  0  0
  160.2100  201.4120  150.7770 C   0  0  0  0  0  1  0  0  0  0  0  0
  161.9540  203.4210  148.2000 C   0  0  0  0  0  2  0  0  0  0  0  0
  160.6790  201.5560  147.1040 C   0  0  0  0  0  2  0  0  0  0  0  0
  161.2240  203.6320  145.8030 C   0  0  0  0  0  0  0  0  0  0  0  0
  160.9240  201.6520  149.5380 N   0  0  0  0  0  0  0  0  0  0  0  0
  160.0020  201.3260  148.4520 C   0  0  0  0  0  2  0  0  0  0  0  0
  161.2040  203.0860  149.4870 C   0  0  0  0  0  2  0  0  0  0  0  0
  160.7370  203.1020  144.7660 O   0  0  0  0  0  0  0  0  0  0  0  0
  1  7  1  0  0  0  0
  1  8  1  0  0  0  0
  2  9  2  0  0  0  0
  2  6  1  0  0  0  0
  3  6  1  0  0  0  0
  3  4  2  0  0  0  0
  4 26  1  0  0  0  0
  4  8  1  0  0  0  0
  5  7  2  0  0  0  0
  6  1  2  0  0  0  0
  8 12  1  0  0  0  0
  9  5  1  0  0  0  0
 10 11  1  0  0  0  0
 11  9  1  0  0  0  0
 12 13  1  0  0  0  0
 13 14  1  0  0  0  0
 14 15  1  0  0  0  0
 15 16  2  0  0  0  0
 15 17  1  0  0  0  0
 19 25  1  0  0  0  0
 19 23  1  0  0  0  0
 22 18  1  0  0  0  0
 23 18  1  0  0  0  0
 24 20  1  6  0  0  0
 24 22  1  0  0  0  0
 24 17  1  0  0  0  0
 25 21  1  1  0  0  0
 25 24  1  0  0  0  0
 26 29  1  0  0  0  0
 28 29  1  0  0  0  0
 29 27  1  6  0  0  0
 30  3  1  0  0  0  0
 31 30  1  0  0  0  0
 32 36  2  0  0  0  0
 33 42  1  1  0  0  0
 33 34  1  0  0  0  0
 33 32  1  0  0  0  0
 34 37  1  0  0  0  0
 36 35  1  0  0  0  0
 37 36  1  0  0  0  0
 37 31  1  6  0  0  0
 38 41  1  0  0  0  0
 38 40  1  0  0  0  0
 40 45  1  0  0  0  0
 41 44  1  0  0  0  0
 42 38  1  0  0  0  0
 43 39  1  0  0  0  0
 44 43  1  0  0  0  0
 45 43  1  0  0  0  0
 46 42  2  0  0  0  0
M  END
>  <MODEL>
8

>  <REMARK>
 VINA RESULT:      -3.6      3.669      9.107
  Name = 
  13 active torsions:
  status: ('A' for Active; 'I' for Inactive)
    1  A    between atoms: N_9  and  N_34
    2  A    between atoms: N_9  and  C_36
    3  A    between atoms: C_10  and  C_29
    4  A    between atoms: C_12  and  C_40
    5  A    between atoms: C_15  and  C_17
    6  A    between atoms: C_15  and  C_32
    7  A    between atoms: C_23  and  C_27
    8  A    between atoms: C_23  and  C_36
    9  A    between atoms: C_24  and  C_38
   10  A    between atoms: C_27  and  C_45
   11  A    between atoms: C_39  and  C_43
   12  A    between atoms: C_40  and  C_43
   13  A    between atoms: C_44  and  C_45
                            x       y       z     vdW  Elec       q    Type
                         _______ _______ _______ _____ _____    ______ ____

>  <TORSDO>
F 13

$$$$
=
 OpenBabel11042422023D

 46 50  0  0  1  0  0  0  0  0999 V2000
  161.4190  209.4650  150.4830 C   0  0  0  0  0  0  0  0  0  0  0  0
  162.4230  210.0460  148.3550 C   0  0  0  0  0  3  0  0  0  0  0  0
  161.7960  207.7360  149.1430 C   0  0  0  0  0  0  0  0  0  0  0  0
  161.2270  207.3100  150.3430 C   0  0  0  0  0  0  0  0  0  0  0  0
  161.9120  211.7680  150.0160 C   0  0  0  0  0  3  0  0  0  0  0  0
  161.9110  209.1070  149.2500 C   0  0  0  0  0  0  0  0  0  0  0  0
  161.4040  210.7980  150.8990 C   0  0  0  0  0  3  0  0  0  0  0  0
  161.0000  208.3700  151.1520 N   0  0  0  0  0  0  0  0  0  0  0  0
  162.4250  211.3950  148.7540 C   0  0  0  0  0  0  0  0  0  0  0  0
  162.0050  212.6950  146.8310 O   0  0  0  0  0  1  0  0  0  0  0  0
  162.9440  212.4390  147.8300 C   0  0  0  0  0  2  0  0  0  0  0  0
  160.4560  208.2910  152.4470 N   0  0  0  0  0  2  0  0  0  0  0  0
  161.2370  208.4970  153.6580 C   0  0  0  0  0  2  0  0  0  0  0  0
  160.3180  208.7980  154.8320 C   0  0  0  0  0  2  0  0  0  0  0  0
  160.5980  210.1540  155.3990 C   0  0  0  0  0  0  0  0  0  0  0  0
  161.7340  210.6000  155.3870 O   0  0  0  0  0  0  0  0  0  0  0  0
  159.4840  210.9370  156.0330 C   0  0  0  0  0  2  0  0  0  0  0  0
  158.5930  211.9020  152.8960 O   0  0  0  0  0  0  0  0  0  0  0  0
  157.0370  213.4720  154.3330 C   0  0  0  0  0  2  0  0  0  0  0  0
  159.6850  213.4200  155.9450 C   0  0  0  0  0  1  0  0  0  0  0  0
  156.7690  211.0840  155.0130 C   0  0  0  0  0  1  0  0  0  0  0  0
  159.6170  212.1520  153.8160 C   0  0  0  0  0  2  0  0  0  0  0  0
  157.8230  213.4290  152.6700 S   0  0  0  0  0  0  0  0  0  0  0  0
  159.0780  212.2060  155.2580 C   0  0  1  0  0  0  0  0  0  0  0  0
  157.5350  212.3750  155.2840 C   0  0  1  0  0  3  0  0  0  0  0  0
  160.9650  205.8870  150.7280 C   0  0  0  0  0  2  0  0  0  0  0  0
  161.5220  205.0590  153.0160 C   0  0  0  0  0  1  0  0  0  0  0  0
  163.0810  206.3080  151.7310 O   0  0  0  0  0  1  0  0  0  0  0  0
  162.0680  205.3550  151.6300 C   0  0  2  0  0  3  0  0  0  0  0  0
  162.2310  206.8890  147.9930 C   0  0  0  0  0  2  0  0  0  0  0  0
  161.2150  206.9720  146.8690 C   0  0  0  0  0  2  0  0  0  0  0  0
  161.8240  203.9530  144.7630 N   0  0  0  0  0  0  0  0  0  0  0  0
  160.4620  203.4980  144.9880 C   0  0  2  0  0  3  0  0  0  0  0  0
  159.6440  204.6840  146.1190 S   0  0  0  0  0  0  0  0  0  0  0  0
  163.4500  205.8290  145.2620 C   0  0  0  0  0  1  0  0  0  0  0  0
  162.1260  205.1680  145.4250 C   0  0  0  0  0  0  0  0  0  0  0  0
  161.1370  205.6680  146.1450 C   0  0  1  0  0  3  0  0  0  0  0  0
  160.9090  201.9110  146.9320 N   0  0  0  0  0  0  0  0  0  0  0  0
  161.1520  201.5150  151.0480 C   0  0  0  0  0  1  0  0  0  0  0  0
  161.5570  202.9910  147.6750 C   0  0  0  0  0  2  0  0  0  0  0  0
  160.9790  200.5540  147.4730 C   0  0  0  0  0  2  0  0  0  0  0  0
  160.4590  202.1240  145.5850 C   0  0  0  0  0  0  0  0  0  0  0  0
  161.5220  201.5440  149.6460 N   0  0  0  0  0  0  0  0  0  0  0  0
  160.6550  200.5840  148.9640 C   0  0  0  0  0  2  0  0  0  0  0  0
  161.1990  202.8820  149.1550 C   0  0  0  0  0  2  0  0  0  0  0  0
  160.0750  201.1460  144.8860 O   0  0  0  0  0  0  0  0  0  0  0  0
  1  7  1  0  0  0  0
  1  8  1  0  0  0  0
  2  9  2  0  0  0  0
  2  6  1  0  0  0  0
  3  6  1  0  0  0  0
  3  4  2  0  0  0  0
  4 26  1  0  0  0  0
  4  8  1  0  0  0  0
  5  7  2  0  0  0  0
  6  1  2  0  0  0  0
  8 12  1  0  0  0  0
  9  5  1  0  0  0  0
 10 11  1  0  0  0  0
 11  9  1  0  0  0  0
 12 13  1  0  0  0  0
 13 14  1  0  0  0  0
 14 15  1  0  0  0  0
 15 17  1  0  0  0  0
 16 15  2  0  0  0  0
 18 22  1  0  0  0  0
 19 25  1  0  0  0  0
 22 24  1  0  0  0  0
 23 18  1  0  0  0  0
 23 19  1  0  0  0  0
 24 25  1  0  0  0  0
 24 20  1  1  0  0  0
 24 17  1  0  0  0  0
 25 21  1  6  0  0  0
 26 29  1  0  0  0  0
 29 28  1  0  0  0  0
 29 27  1  1  0  0  0
 30  3  1  0  0  0  0
 31 30  1  0  0  0  0
 32 33  1  0  0  0  0
 32 36  2  0  0  0  0
 33 42  1  1  0  0  0
 33 34  1  0  0  0  0
 34 37  1  0  0  0  0
 35 36  1  0  0  0  0
 36 37  1  0  0  0  0
 37 31  1  6  0  0  0
 38 41  1  0  0  0  0
 38 40  1  0  0  0  0
 40 45  1  0  0  0  0
 41 44  1  0  0  0  0
 42 38  1  0  0  0  0
 43 39  1  0  0  0  0
 44 43  1  0  0  0  0
 45 43  1  0  0  0  0
 46 42  2  0  0  0  0
M  END
>  <MODEL>
9

>  <REMARK>
 VINA RESULT:      -3.6      3.294      9.208
  Name = 
  13 active torsions:
  status: ('A' for Active; 'I' for Inactive)
    1  A    between atoms: N_9  and  N_34
    2  A    between atoms: N_9  and  C_36
    3  A    between atoms: C_10  and  C_29
    4  A    between atoms: C_12  and  C_40
    5  A    between atoms: C_15  and  C_17
    6  A    between atoms: C_15  and  C_32
    7  A    between atoms: C_23  and  C_27
    8  A    between atoms: C_23  and  C_36
    9  A    between atoms: C_24  and  C_38
   10  A    between atoms: C_27  and  C_45
   11  A    between atoms: C_39  and  C_43
   12  A    between atoms: C_40  and  C_43
   13  A    between atoms: C_44  and  C_45
                            x       y       z     vdW  Elec       q    Type
                         _______ _______ _______ _____ _____    ______ ____

>  <TORSDO>
F 13

$$$$
