=
 OpenBabel11052411153D

 26 29  0  0  1  0  0  0  0  0999 V2000
  161.3600  206.1700  152.9300 C   0  0  0  0  0  3  0  0  0  0  0  0
  161.0480  202.5240  146.7820 N   0  0  0  0  0  0  0  0  0  0  0  0
  161.5610  206.6880  151.6390 C   0  0  0  0  0  0  0  0  0  0  0  0
  161.6280  206.1200  149.2520 N   0  0  0  0  0  0  0  0  0  0  0  0
  161.5250  204.8920  147.2040 C   0  0  0  0  0  2  0  0  0  0  0  0
  160.8300  201.9540  147.9950 C   0  0  0  0  0  3  0  0  0  0  0  0
  160.9450  203.9430  152.0110 C   0  0  0  0  0  3  0  0  0  0  0  0
  161.1570  204.4800  150.7420 C   0  0  0  0  0  0  0  0  0  0  0  0
  161.3520  203.7840  146.3660 C   0  0  0  0  0  0  0  0  0  0  0  0
  161.4580  205.8110  150.5550 C   0  0  1  0  0  3  0  0  0  0  0  0
  161.4310  204.9630  148.5790 C   0  0  0  0  0  0  0  0  0  0  0  0
  160.8610  202.5560  149.2440 C   0  0  0  0  0  3  0  0  0  0  0  0
  161.0520  204.8060  153.1140 C   0  0  0  0  0  3  0  0  0  0  0  0
  161.1250  203.8830  149.5040 C   0  0  0  0  0  0  0  0  0  0  0  0
  161.5000  203.9620  144.9850 O   0  0  0  0  0  0  0  0  0  0  0  0
  161.2020  205.1810  144.3160 C   0  0  0  0  0  1  0  0  0  0  0  0
  161.9130  208.1240  151.4500 C   0  0  0  0  0  2  0  0  0  0  0  0
  160.7270  208.9370  151.5780 N   0  0  0  0  0  0  0  0  0  0  0  0
  160.5240  209.7230  152.5780 C   0  0  0  0  0  3  0  0  0  0  0  0
  160.0630  209.1170  156.0270 C   0  0  0  0  0  0  0  0  0  0  0  0
  159.5980  209.7470  157.0120 O   0  0  0  0  0  0  0  0  0  0  0  0
  161.2780  211.0620  154.3680 C   0  0  0  0  0  2  0  0  0  0  0  0
  161.4990  209.8720  153.7070 C   0  0  1  0  0  3  0  0  0  0  0  0
  160.7570  209.8150  154.9990 N   0  0  0  0  0  0  0  0  0  0  0  0
  159.9150  207.6370  155.9530 C   0  0  0  0  0  2  0  0  0  0  0  0
  160.3510  207.0090  157.2600 C   0  0  0  0  0  1  0  0  0  0  0  0
  1 13  1  0  0  0  0
  2  6  1  0  0  0  0
  3  1  2  0  0  0  0
  5 11  1  0  0  0  0
  6 12  2  0  0  0  0
  7 13  2  0  0  0  0
  8  7  1  0  0  0  0
  9  2  2  0  0  0  0
  9  5  1  0  0  0  0
 10  4  1  1  0  0  0
 10  8  1  0  0  0  0
 10  3  1  0  0  0  0
 11  4  2  0  0  0  0
 11 14  1  0  0  0  0
 12 14  1  0  0  0  0
 14  8  2  0  0  0  0
 15  9  1  0  0  0  0
 16 15  1  0  0  0  0
 17 18  1  0  0  0  0
 17  3  1  0  0  0  0
 18 19  2  0  0  0  0
 20 21  2  0  0  0  0
 22 24  1  0  0  0  0
 23 19  1  6  0  0  0
 23 22  1  0  0  0  0
 23 24  1  0  0  0  0
 24 20  1  0  0  0  0
 25 20  1  0  0  0  0
 25 26  1  0  0  0  0
M  END
>  <MODEL>
1

>  <REMARK>
 VINA RESULT:      -9.3      0.000      0.000
  Name = 
  5 active torsions:
  status: ('A' for Active; 'I' for Inactive)
    1  A    between atoms: C_2  and  C_6
    2  A    between atoms: C_4  and  C_23
    3  A    between atoms: N_11  and  C_23
    4  A    between atoms: C_12  and  C_20
    5  A    between atoms: C_16  and  O_19
                            x       y       z     vdW  Elec       q    Type
                         _______ _______ _______ _____ _____    ______ ____

>  <TORSDO>
F 5

$$$$
=
 OpenBabel11052411153D

 26 29  0  0  1  0  0  0  0  0999 V2000
  161.1930  204.5230  149.6500 C   0  0  0  0  0  3  0  0  0  0  0  0
  160.9600  209.2200  155.0410 N   0  0  0  0  0  0  0  0  0  0  0  0
  161.1940  205.9240  149.5390 C   0  0  0  0  0  0  0  0  0  0  0  0
  161.1250  208.0230  150.8090 N   0  0  0  0  0  0  0  0  0  0  0  0
  161.0440  209.5840  152.6180 C   0  0  0  0  0  3  0  0  0  0  0  0
  160.9670  207.8750  155.2280 C   0  0  0  0  0  3  0  0  0  0  0  0
  161.1110  204.6790  152.0880 C   0  0  0  0  0  3  0  0  0  0  0  0
  161.1060  206.0660  151.9500 C   0  0  0  0  0  0  0  0  0  0  0  0
  160.9910  210.0260  153.9450 C   0  0  0  0  0  0  0  0  0  0  0  0
  161.1440  206.6770  150.7170 C   0  0  0  0  0  0  0  0  0  0  0  0
  161.0760  208.2920  152.1350 C   0  0  0  0  0  0  0  0  0  0  0  0
  161.0130  206.8750  154.2680 C   0  0  0  0  0  3  0  0  0  0  0  0
  161.1540  203.9050  150.9160 C   0  0  0  0  0  3  0  0  0  0  0  0
  161.0620  207.0570  152.9030 C   0  0  0  0  0  0  0  0  0  0  0  0
  160.9670  211.4050  154.1890 O   0  0  0  0  0  0  0  0  0  0  0  0
  160.2210  212.0020  155.2420 C   0  0  0  0  0  1  0  0  0  0  0  0
  161.2090  206.5740  148.1980 C   0  0  0  0  0  2  0  0  0  0  0  0
  162.3590  206.1240  147.4510 N   0  0  0  0  0  0  0  0  0  0  0  0
  162.2640  205.3910  146.3970 C   0  0  0  0  0  3  0  0  0  0  0  0
  160.8740  202.1440  146.3250 C   0  0  0  0  0  0  0  0  0  0  0  0
  160.9670  201.1250  145.5920 O   0  0  0  0  0  0  0  0  0  0  0  0
  161.1350  204.3690  144.5950 C   0  0  0  0  0  2  0  0  0  0  0  0
  160.9490  204.9320  145.8400 C   0  0  1  0  0  3  0  0  0  0  0  0
  160.9530  203.4440  145.7500 N   0  0  0  0  0  0  0  0  0  0  0  0
  160.6500  201.9890  147.7880 C   0  0  0  0  0  2  0  0  0  0  0  0
  161.3400  200.7350  148.2850 C   0  0  0  0  0  1  0  0  0  0  0  0
  1 13  1  0  0  0  0
  2  6  1  0  0  0  0
  3  1  2  0  0  0  0
  3 10  1  0  0  0  0
  4 11  1  0  0  0  0
  5  9  1  0  0  0  0
  8  7  1  0  0  0  0
  8 14  2  0  0  0  0
  9 15  1  0  0  0  0
  9  2  2  0  0  0  0
 10  4  2  0  0  0  0
 10  8  1  0  0  0  0
 11  5  2  0  0  0  0
 11 14  1  0  0  0  0
 12  6  2  0  0  0  0
 13  7  2  0  0  0  0
 14 12  1  0  0  0  0
 15 16  1  0  0  0  0
 17  3  1  0  0  0  0
 18 17  1  0  0  0  0
 19 18  2  0  0  0  0
 20 25  1  0  0  0  0
 21 20  2  0  0  0  0
 22 24  1  0  0  0  0
 22 23  1  0  0  0  0
 23 19  1  1  0  0  0
 24 23  1  0  0  0  0
 24 20  1  0  0  0  0
 25 26  1  0  0  0  0
M  END
>  <MODEL>
2

>  <REMARK>
 VINA RESULT:      -9.0      1.453      8.333
  Name = 
  5 active torsions:
  status: ('A' for Active; 'I' for Inactive)
    1  A    between atoms: C_2  and  C_6
    2  A    between atoms: C_4  and  C_23
    3  A    between atoms: N_11  and  C_23
    4  A    between atoms: C_12  and  C_20
    5  A    between atoms: C_16  and  O_19
                            x       y       z     vdW  Elec       q    Type
                         _______ _______ _______ _____ _____    ______ ____

>  <TORSDO>
F 5

$$$$
=
 OpenBabel11052411153D

 26 29  0  0  1  0  0  0  0  0999 V2000
  161.1830  205.0240  148.8120 C   0  0  0  0  0  3  0  0  0  0  0  0
  160.9180  209.3340  154.5160 N   0  0  0  0  0  0  0  0  0  0  0  0
  161.1920  204.6290  150.1600 C   0  0  2  0  0  3  0  0  0  0  0  0
  161.1440  205.4410  152.4750 N   0  0  0  0  0  0  0  0  0  0  0  0
  161.0590  206.8900  154.3750 C   0  0  0  0  0  2  0  0  0  0  0  0
  160.8940  209.7920  153.2380 C   0  0  0  0  0  3  0  0  0  0  0  0
  161.0400  207.3760  149.4640 C   0  0  0  0  0  3  0  0  0  0  0  0
  161.0580  206.9570  150.7940 C   0  0  0  0  0  0  0  0  0  0  0  0
  160.9890  208.0970  155.0800 C   0  0  0  0  0  0  0  0  0  0  0  0
  161.1340  205.6260  151.1390 C   0  0  0  0  0  0  0  0  0  0  0  0
  161.0710  206.6820  153.0110 C   0  0  0  0  0  0  0  0  0  0  0  0
  160.9370  209.0580  152.0620 C   0  0  0  0  0  3  0  0  0  0  0  0
  161.1050  206.3890  148.4660 C   0  0  0  0  0  3  0  0  0  0  0  0
  161.0140  207.6860  151.9590 C   0  0  0  0  0  0  0  0  0  0  0  0
  160.9900  208.0530  156.4800 O   0  0  0  0  0  0  0  0  0  0  0  0
  160.3290  207.0440  157.2330 C   0  0  0  0  0  1  0  0  0  0  0  0
  161.3010  203.1870  150.5210 C   0  0  0  0  0  2  0  0  0  0  0  0
  160.1150  202.4860  150.0930 N   0  0  0  0  0  0  0  0  0  0  0  0
  160.1020  201.6870  149.0830 C   0  0  0  0  0  3  0  0  0  0  0  0
  160.4490  201.6440  145.5670 C   0  0  0  0  0  0  0  0  0  0  0  0
  160.2430  200.8210  144.6380 O   0  0  0  0  0  0  0  0  0  0  0  0
  161.2850  200.1060  147.7930 C   0  0  0  0  0  2  0  0  0  0  0  0
  161.3170  201.4060  148.2520 C   0  0  1  0  0  3  0  0  0  0  0  0
  160.8980  201.1850  146.8380 N   0  0  0  0  0  0  0  0  0  0  0  0
  160.2540  203.1000  145.3290 C   0  0  0  0  0  2  0  0  0  0  0  0
  161.5960  203.8020  145.3010 C   0  0  0  0  0  1  0  0  0  0  0  0
  1  3  1  0  0  0  0
  2  9  2  0  0  0  0
  3 17  1  1  0  0  0
  3 10  1  0  0  0  0
  4 11  1  0  0  0  0
  5  9  1  0  0  0  0
  6  2  1  0  0  0  0
  7  8  2  0  0  0  0
  8 10  1  0  0  0  0
  8 14  1  0  0  0  0
  9 15  1  0  0  0  0
 10  4  2  0  0  0  0
 11  5  1  0  0  0  0
 12  6  2  0  0  0  0
 13  1  2  0  0  0  0
 13  7  1  0  0  0  0
 14 12  1  0  0  0  0
 14 11  2  0  0  0  0
 15 16  1  0  0  0  0
 18 17  1  0  0  0  0
 19 18  2  0  0  0  0
 20 24  1  0  0  0  0
 21 20  2  0  0  0  0
 22 23  1  0  0  0  0
 23 19  1  1  0  0  0
 24 22  1  0  0  0  0
 24 23  1  0  0  0  0
 25 20  1  0  0  0  0
 26 25  1  0  0  0  0
M  END
>  <MODEL>
3

>  <REMARK>
 VINA RESULT:      -8.7      1.697      8.952
  Name = 
  5 active torsions:
  status: ('A' for Active; 'I' for Inactive)
    1  A    between atoms: C_2  and  C_6
    2  A    between atoms: C_4  and  C_23
    3  A    between atoms: N_11  and  C_23
    4  A    between atoms: C_12  and  C_20
    5  A    between atoms: C_16  and  O_19
                            x       y       z     vdW  Elec       q    Type
                         _______ _______ _______ _____ _____    ______ ____

>  <TORSDO>
F 5

$$$$
=
 OpenBabel11052411153D

 26 29  0  0  1  0  0  0  0  0999 V2000
  161.0840  203.8800  152.4020 C   0  0  0  0  0  3  0  0  0  0  0  0
  160.9990  202.6210  145.3600 N   0  0  0  0  0  0  0  0  0  0  0  0
  161.1980  204.8370  151.3800 C   0  0  0  0  0  0  0  0  0  0  0  0
  161.2640  205.1570  148.9480 N   0  0  0  0  0  0  0  0  0  0  0  0
  161.2380  204.7250  146.5960 C   0  0  0  0  0  2  0  0  0  0  0  0
  160.8720  201.6410  146.2910 C   0  0  0  0  0  3  0  0  0  0  0  0
  160.8800  202.0880  150.7520 C   0  0  0  0  0  3  0  0  0  0  0  0
  161.0030  203.0580  149.7570 C   0  0  0  0  0  0  0  0  0  0  0  0
  161.1610  203.9720  145.4190 C   0  0  0  0  0  0  0  0  0  0  0  0
  161.1600  204.3920  150.0550 C   0  0  2  0  0  3  0  0  0  0  0  0
  161.1710  204.2970  147.9060 C   0  0  0  0  0  0  0  0  0  0  0  0
  160.8710  201.7640  147.6720 C   0  0  0  0  0  3  0  0  0  0  0  0
  160.9230  202.5140  152.0900 C   0  0  0  0  0  3  0  0  0  0  0  0
  161.0020  202.9350  148.3870 C   0  0  0  0  0  0  0  0  0  0  0  0
  161.2550  204.6390  144.1920 O   0  0  0  0  0  0  0  0  0  0  0  0
  161.2670  206.0560  144.0700 C   0  0  0  0  0  1  0  0  0  0  0  0
  161.3940  206.2760  151.7140 C   0  0  0  0  0  2  0  0  0  0  0  0
  160.9780  206.5220  153.0740 N   0  0  0  0  0  0  0  0  0  0  0  0
  160.9950  207.6930  153.6090 C   0  0  0  0  0  3  0  0  0  0  0  0
  161.3620  211.0040  154.7840 C   0  0  0  0  0  0  0  0  0  0  0  0
  160.6130  212.0010  154.9590 O   0  0  0  0  0  0  0  0  0  0  0  0
  160.3580  209.6730  152.4970 C   0  0  0  0  0  2  0  0  0  0  0  0
  161.4490  208.9170  152.8730 C   0  0  1  0  0  3  0  0  0  0  0  0
  161.1290  210.1220  153.6910 N   0  0  0  0  0  0  0  0  0  0  0  0
  162.5080  210.7650  155.7030 C   0  0  0  0  0  2  0  0  0  0  0  0
  162.2360  209.5470  156.5600 C   0  0  0  0  0  1  0  0  0  0  0  0
  2  9  2  0  0  0  0
  2  6  1  0  0  0  0
  3 17  1  0  0  0  0
  3  1  2  0  0  0  0
  5 11  1  0  0  0  0
  6 12  2  0  0  0  0
  7 13  2  0  0  0  0
  8 10  1  0  0  0  0
  8  7  1  0  0  0  0
  9  5  1  0  0  0  0
 10  4  1  6  0  0  0
 10  3  1  0  0  0  0
 11 14  1  0  0  0  0
 11  4  2  0  0  0  0
 12 14  1  0  0  0  0
 13  1  1  0  0  0  0
 14  8  2  0  0  0  0
 15  9  1  0  0  0  0
 16 15  1  0  0  0  0
 17 18  1  0  0  0  0
 18 19  2  0  0  0  0
 20 21  2  0  0  0  0
 20 25  1  0  0  0  0
 22 23  1  0  0  0  0
 22 24  1  0  0  0  0
 23 19  1  1  0  0  0
 23 24  1  0  0  0  0
 24 20  1  0  0  0  0
 25 26  1  0  0  0  0
M  END
>  <MODEL>
4

>  <REMARK>
 VINA RESULT:      -8.6      1.512      2.085
  Name = 
  5 active torsions:
  status: ('A' for Active; 'I' for Inactive)
    1  A    between atoms: C_2  and  C_6
    2  A    between atoms: C_4  and  C_23
    3  A    between atoms: N_11  and  C_23
    4  A    between atoms: C_12  and  C_20
    5  A    between atoms: C_16  and  O_19
                            x       y       z     vdW  Elec       q    Type
                         _______ _______ _______ _____ _____    ______ ____

>  <TORSDO>
F 5

$$$$
=
 OpenBabel11052411153D

 26 29  0  0  1  0  0  0  0  0999 V2000
  161.0130  206.9300  153.4670 C   0  0  0  0  0  3  0  0  0  0  0  0
  161.3580  204.3010  146.8220 N   0  0  0  0  0  0  0  0  0  0  0  0
  160.8930  207.6590  152.2710 C   0  0  0  0  0  0  0  0  0  0  0  0
  160.9110  207.4890  149.8230 N   0  0  0  0  0  0  0  0  0  0  0  0
  161.0320  206.6010  147.6070 C   0  0  0  0  0  2  0  0  0  0  0  0
  161.4720  203.5280  147.9330 C   0  0  0  0  0  3  0  0  0  0  0  0
  161.2990  204.8510  152.2130 C   0  0  0  0  0  3  0  0  0  0  0  0
  161.1840  205.5990  151.0420 C   0  0  0  0  0  0  0  0  0  0  0  0
  161.1670  205.6320  146.6060 C   0  0  0  0  0  0  0  0  0  0  0  0
  160.9890  206.9620  151.0630 C   0  0  1  0  0  3  0  0  0  0  0  0
  161.0570  206.4430  148.9780 C   0  0  0  0  0  0  0  0  0  0  0  0
  161.4190  203.9230  149.2620 C   0  0  0  0  0  3  0  0  0  0  0  0
  161.2120  205.5350  153.4380 C   0  0  0  0  0  3  0  0  0  0  0  0
  161.2350  205.2070  149.7250 C   0  0  0  0  0  0  0  0  0  0  0  0
  161.1060  206.0400  145.2690 O   0  0  0  0  0  0  0  0  0  0  0  0
  161.2270  205.1460  144.1700 C   0  0  0  0  0  1  0  0  0  0  0  0
  160.7090  209.1380  152.3070 C   0  0  0  0  0  2  0  0  0  0  0  0
  161.9220  209.7700  152.7660 N   0  0  0  0  0  0  0  0  0  0  0  0
  162.0310  210.3110  153.9290 C   0  0  0  0  0  3  0  0  0  0  0  0
  159.3970  212.6400  154.2720 C   0  0  0  0  0  0  0  0  0  0  0  0
  159.2340  213.7620  154.8160 O   0  0  0  0  0  0  0  0  0  0  0  0
  161.1970  211.2250  155.9370 C   0  0  0  0  0  2  0  0  0  0  0  0
  160.9090  210.3360  154.9230 C   0  0  1  0  0  3  0  0  0  0  0  0
  160.2490  211.6730  154.8760 N   0  0  0  0  0  0  0  0  0  0  0  0
  158.6740  212.3120  153.0120 C   0  0  0  0  0  2  0  0  0  0  0  0
  159.5470  212.6380  151.8180 C   0  0  0  0  0  1  0  0  0  0  0  0
  2  6  1  0  0  0  0
  3 17  1  0  0  0  0
  3  1  2  0  0  0  0
  5 11  1  0  0  0  0
  6 12  2  0  0  0  0
  7 13  2  0  0  0  0
  8 10  1  0  0  0  0
  8  7  1  0  0  0  0
  9  2  2  0  0  0  0
  9  5  1  0  0  0  0
 10  4  1  6  0  0  0
 10  3  1  0  0  0  0
 11 14  1  0  0  0  0
 11  4  2  0  0  0  0
 12 14  1  0  0  0  0
 13  1  1  0  0  0  0
 14  8  2  0  0  0  0
 15  9  1  0  0  0  0
 16 15  1  0  0  0  0
 17 18  1  0  0  0  0
 18 19  2  0  0  0  0
 20 21  2  0  0  0  0
 20 24  1  0  0  0  0
 23 19  1  6  0  0  0
 23 22  1  0  0  0  0
 24 23  1  0  0  0  0
 24 22  1  0  0  0  0
 25 20  1  0  0  0  0
 26 25  1  0  0  0  0
M  END
>  <MODEL>
5

>  <REMARK>
 VINA RESULT:      -8.4      1.813      2.666
  Name = 
  5 active torsions:
  status: ('A' for Active; 'I' for Inactive)
    1  A    between atoms: C_2  and  C_6
    2  A    between atoms: C_4  and  C_23
    3  A    between atoms: N_11  and  C_23
    4  A    between atoms: C_12  and  C_20
    5  A    between atoms: C_16  and  O_19
                            x       y       z     vdW  Elec       q    Type
                         _______ _______ _______ _____ _____    ______ ____

>  <TORSDO>
F 5

$$$$
=
 OpenBabel11052411153D

 26 29  0  0  1  0  0  0  0  0999 V2000
  160.9740  203.3970  151.3370 C   0  0  0  0  0  3  0  0  0  0  0  0
  161.9030  210.4570  150.6500 N   0  0  0  0  0  0  0  0  0  0  0  0
  161.2460  204.0930  150.1470 C   0  0  0  0  0  0  0  0  0  0  0  0
  161.6460  206.3150  149.1850 N   0  0  0  0  0  0  0  0  0  0  0  0
  161.9520  208.6760  148.9650 C   0  0  0  0  0  2  0  0  0  0  0  0
  161.6540  209.8540  151.8410 C   0  0  0  0  0  3  0  0  0  0  0  0
  161.0300  205.4820  152.6120 C   0  0  0  0  0  3  0  0  0  0  0  0
  161.2920  206.1490  151.4160 C   0  0  0  0  0  0  0  0  0  0  0  0
  162.0450  210.0130  149.3710 C   0  0  0  0  0  0  0  0  0  0  0  0
  161.3960  205.4820  150.2160 C   0  0  1  0  0  3  0  0  0  0  0  0
  161.7080  207.5530  149.7290 C   0  0  0  0  0  0  0  0  0  0  0  0
  161.4600  208.5040  152.0950 C   0  0  0  0  0  3  0  0  0  0  0  0
  160.8690  204.0870  152.5620 C   0  0  0  0  0  3  0  0  0  0  0  0
  161.4850  207.4870  151.1650 C   0  0  0  0  0  0  0  0  0  0  0  0
  162.3030  210.9880  148.4000 O   0  0  0  0  0  0  0  0  0  0  0  0
  161.3010  211.8410  147.8600 C   0  0  0  0  0  1  0  0  0  0  0  0
  161.3300  203.3630  148.8500 C   0  0  0  0  0  2  0  0  0  0  0  0
  160.2120  202.4600  148.7250 N   0  0  0  0  0  0  0  0  0  0  0  0
  160.0870  201.6350  147.7440 C   0  0  0  0  0  3  0  0  0  0  0  0
  160.9100  203.9870  145.2400 C   0  0  0  0  0  0  0  0  0  0  0  0
  160.4540  204.3240  144.1170 O   0  0  0  0  0  0  0  0  0  0  0  0
  160.4570  201.2010  145.4550 C   0  0  0  0  0  2  0  0  0  0  0  0
  161.0910  201.5300  146.6360 C   0  0  1  0  0  3  0  0  0  0  0  0
  160.8460  202.6270  145.6550 N   0  0  0  0  0  0  0  0  0  0  0  0
  161.5430  205.0060  146.1220 C   0  0  0  0  0  2  0  0  0  0  0  0
  163.0370  204.7640  146.1980 C   0  0  0  0  0  1  0  0  0  0  0  0
  1 13  1  0  0  0  0
  2  6  1  0  0  0  0
  3 10  1  0  0  0  0
  3  1  2  0  0  0  0
  4 11  2  0  0  0  0
  5  9  1  0  0  0  0
  5 11  1  0  0  0  0
  6 12  2  0  0  0  0
  8  7  1  0  0  0  0
  9  2  2  0  0  0  0
 10  4  1  6  0  0  0
 10  8  1  0  0  0  0
 11 14  1  0  0  0  0
 13  7  2  0  0  0  0
 14  8  2  0  0  0  0
 14 12  1  0  0  0  0
 15  9  1  0  0  0  0
 16 15  1  0  0  0  0
 17  3  1  0  0  0  0
 18 17  1  0  0  0  0
 19 18  2  0  0  0  0
 20 24  1  0  0  0  0
 20 25  1  0  0  0  0
 21 20  2  0  0  0  0
 22 24  1  0  0  0  0
 22 23  1  0  0  0  0
 23 19  1  1  0  0  0
 24 23  1  0  0  0  0
 25 26  1  0  0  0  0
M  END
>  <MODEL>
6

>  <REMARK>
 VINA RESULT:      -8.4      2.757      7.897
  Name = 
  5 active torsions:
  status: ('A' for Active; 'I' for Inactive)
    1  A    between atoms: C_2  and  C_6
    2  A    between atoms: C_4  and  C_23
    3  A    between atoms: N_11  and  C_23
    4  A    between atoms: C_12  and  C_20
    5  A    between atoms: C_16  and  O_19
                            x       y       z     vdW  Elec       q    Type
                         _______ _______ _______ _____ _____    ______ ____

>  <TORSDO>
F 5

$$$$
=
 OpenBabel11052411153D

 26 29  0  0  1  0  0  0  0  0999 V2000
  161.8530  205.7250  151.8000 C   0  0  0  0  0  3  0  0  0  0  0  0
  159.5260  211.4420  155.4160 N   0  0  0  0  0  0  0  0  0  0  0  0
  161.6450  207.0150  151.2820 C   0  0  0  0  0  0  0  0  0  0  0  0
  160.9160  209.2910  151.8370 N   0  0  0  0  0  0  0  0  0  0  0  0
  160.1340  211.1950  153.0540 C   0  0  0  0  0  3  0  0  0  0  0  0
  159.7140  210.2270  155.9910 C   0  0  0  0  0  3  0  0  0  0  0  0
  161.1540  206.4650  154.0230 C   0  0  0  0  0  3  0  0  0  0  0  0
  160.9490  207.7340  153.4820 C   0  0  0  0  0  0  0  0  0  0  0  0
  159.6860  211.9320  154.1560 C   0  0  0  0  0  0  0  0  0  0  0  0
  161.1830  208.0070  152.1530 C   0  0  0  0  0  0  0  0  0  0  0  0
  160.5000  209.8660  152.9900 C   0  0  0  0  0  0  0  0  0  0  0  0
  160.1600  209.0560  155.3960 C   0  0  0  0  0  3  0  0  0  0  0  0
  161.6110  205.4530  153.1630 C   0  0  0  0  0  3  0  0  0  0  0  0
  160.5080  208.8940  154.0730 C   0  0  0  0  0  0  0  0  0  0  0  0
  159.3720  213.2840  153.9720 O   0  0  0  0  0  0  0  0  0  0  0  0
  158.0820  213.7430  153.5850 C   0  0  0  0  0  1  0  0  0  0  0  0
  161.8760  207.2910  149.8360 C   0  0  0  0  0  2  0  0  0  0  0  0
  160.6910  206.9660  149.0810 N   0  0  0  0  0  0  0  0  0  0  0  0
  160.6070  205.9260  148.3250 C   0  0  0  0  0  3  0  0  0  0  0  0
  161.2500  203.6880  145.6680 C   0  0  0  0  0  0  0  0  0  0  0  0
  160.8700  202.5380  145.3300 O   0  0  0  0  0  0  0  0  0  0  0  0
  161.3140  203.6820  148.4990 C   0  0  0  0  0  2  0  0  0  0  0  0
  161.7330  204.9510  148.1560 C   0  0  1  0  0  3  0  0  0  0  0  0
  161.3990  204.0120  147.0470 N   0  0  0  0  0  0  0  0  0  0  0  0
  161.5720  204.7020  144.6270 C   0  0  0  0  0  2  0  0  0  0  0  0
  160.6570  205.9000  144.7730 C   0  0  0  0  0  1  0  0  0  0  0  0
  1 13  1  0  0  0  0
  2  6  1  0  0  0  0
  3  1  2  0  0  0  0
  3 10  1  0  0  0  0
  4 10  2  0  0  0  0
  4 11  1  0  0  0  0
  5  9  1  0  0  0  0
  8  7  1  0  0  0  0
  8 14  2  0  0  0  0
  9  2  2  0  0  0  0
 10  8  1  0  0  0  0
 11  5  2  0  0  0  0
 11 14  1  0  0  0  0
 12  6  2  0  0  0  0
 13  7  2  0  0  0  0
 14 12  1  0  0  0  0
 15  9  1  0  0  0  0
 16 15  1  0  0  0  0
 17  3  1  0  0  0  0
 18 17  1  0  0  0  0
 19 18  2  0  0  0  0
 20 24  1  0  0  0  0
 21 20  2  0  0  0  0
 23 19  1  1  0  0  0
 23 22  1  0  0  0  0
 24 23  1  0  0  0  0
 24 22  1  0  0  0  0
 25 26  1  0  0  0  0
 25 20  1  0  0  0  0
M  END
>  <MODEL>
7

>  <REMARK>
 VINA RESULT:      -8.3      1.709      8.719
  Name = 
  5 active torsions:
  status: ('A' for Active; 'I' for Inactive)
    1  A    between atoms: C_2  and  C_6
    2  A    between atoms: C_4  and  C_23
    3  A    between atoms: N_11  and  C_23
    4  A    between atoms: C_12  and  C_20
    5  A    between atoms: C_16  and  O_19
                            x       y       z     vdW  Elec       q    Type
                         _______ _______ _______ _____ _____    ______ ____

>  <TORSDO>
F 5

$$$$
=
 OpenBabel11052411153D

 26 29  0  0  1  0  0  0  0  0999 V2000
  161.3190  207.0710  152.8580 C   0  0  0  0  0  3  0  0  0  0  0  0
  161.0650  201.5840  148.2740 N   0  0  0  0  0  0  0  0  0  0  0  0
  161.3640  207.1500  151.4550 C   0  0  0  0  0  0  0  0  0  0  0  0
  161.3430  205.8340  149.3840 N   0  0  0  0  0  0  0  0  0  0  0  0
  161.2610  203.9930  147.8610 C   0  0  0  0  0  2  0  0  0  0  0  0
  161.0040  201.4290  149.6220 C   0  0  0  0  0  3  0  0  0  0  0  0
  161.1330  204.6360  152.7520 C   0  0  0  0  0  3  0  0  0  0  0  0
  161.1870  204.7410  151.3630 C   0  0  0  0  0  0  0  0  0  0  0  0
  161.1760  202.6590  147.4460 C   0  0  0  0  0  0  0  0  0  0  0  0
  161.3020  205.9570  150.7270 C   0  0  2  0  0  3  0  0  0  0  0  0
  161.2510  204.5050  149.1420 C   0  0  0  0  0  0  0  0  0  0  0  0
  161.0410  202.4100  150.6010 C   0  0  0  0  0  3  0  0  0  0  0  0
  161.2010  205.8220  153.5020 C   0  0  0  0  0  3  0  0  0  0  0  0
  161.1490  203.7680  150.3920 C   0  0  0  0  0  0  0  0  0  0  0  0
  161.2070  202.3840  146.0740 O   0  0  0  0  0  0  0  0  0  0  0  0
  160.0840  201.9000  145.3460 C   0  0  0  0  0  1  0  0  0  0  0  0
  161.5150  208.4700  150.7800 C   0  0  0  0  0  2  0  0  0  0  0  0
  162.2730  209.3640  151.6210 N   0  0  0  0  0  0  0  0  0  0  0  0
  161.7310  210.3200  152.2920 C   0  0  0  0  0  3  0  0  0  0  0  0
  160.0140  213.1950  151.1670 C   0  0  0  0  0  0  0  0  0  0  0  0
  159.7070  214.3200  151.6390 O   0  0  0  0  0  0  0  0  0  0  0  0
  159.9090  211.3880  153.3430 C   0  0  0  0  0  2  0  0  0  0  0  0
  160.2580  210.5980  152.2680 C   0  0  1  0  0  3  0  0  0  0  0  0
  160.0430  212.0510  152.0150 N   0  0  0  0  0  0  0  0  0  0  0  0
  160.3160  213.0530  149.7160 C   0  0  0  0  0  2  0  0  0  0  0  0
  161.1430  214.2320  149.2450 C   0  0  0  0  0  1  0  0  0  0  0  0
  1 13  1  0  0  0  0
  2  6  1  0  0  0  0
  3  1  2  0  0  0  0
  5 11  1  0  0  0  0
  6 12  2  0  0  0  0
  7 13  2  0  0  0  0
  8  7  1  0  0  0  0
  9  5  1  0  0  0  0
  9  2  2  0  0  0  0
 10  4  1  6  0  0  0
 10  8  1  0  0  0  0
 10  3  1  0  0  0  0
 11  4  2  0  0  0  0
 11 14  1  0  0  0  0
 14 12  1  0  0  0  0
 14  8  2  0  0  0  0
 15  9  1  0  0  0  0
 16 15  1  0  0  0  0
 17  3  1  0  0  0  0
 17 18  1  0  0  0  0
 18 19  2  0  0  0  0
 20 21  2  0  0  0  0
 20 24  1  0  0  0  0
 23 19  1  1  0  0  0
 23 22  1  0  0  0  0
 24 23  1  0  0  0  0
 24 22  1  0  0  0  0
 25 20  1  0  0  0  0
 26 25  1  0  0  0  0
M  END
>  <MODEL>
8

>  <REMARK>
 VINA RESULT:      -8.3      2.457      3.596
  Name = 
  5 active torsions:
  status: ('A' for Active; 'I' for Inactive)
    1  A    between atoms: C_2  and  C_6
    2  A    between atoms: C_4  and  C_23
    3  A    between atoms: N_11  and  C_23
    4  A    between atoms: C_12  and  C_20
    5  A    between atoms: C_16  and  O_19
                            x       y       z     vdW  Elec       q    Type
                         _______ _______ _______ _____ _____    ______ ____

>  <TORSDO>
F 5

$$$$
=
 OpenBabel11052411153D

 26 29  0  0  1  0  0  0  0  0999 V2000
  161.5770  207.9920  150.9960 C   0  0  0  0  0  3  0  0  0  0  0  0
  161.5680  203.6100  145.3410 N   0  0  0  0  0  0  0  0  0  0  0  0
  161.2550  206.6230  150.9980 C   0  0  2  0  0  3  0  0  0  0  0  0
  161.0290  204.6280  149.5880 N   0  0  0  0  0  0  0  0  0  0  0  0
  161.0260  203.1730  147.6920 C   0  0  0  0  0  2  0  0  0  0  0  0
  161.9030  204.9240  145.2610 C   0  0  0  0  0  3  0  0  0  0  0  0
  162.0130  207.9230  148.5920 C   0  0  0  0  0  3  0  0  0  0  0  0
  161.6820  206.5690  148.6200 C   0  0  0  0  0  0  0  0  0  0  0  0
  161.1800  202.7890  146.3540 C   0  0  0  0  0  0  0  0  0  0  0  0
  161.3120  205.9330  149.7840 C   0  0  0  0  0  0  0  0  0  0  0  0
  161.2230  204.4110  148.2660 C   0  0  0  0  0  0  0  0  0  0  0  0
  161.9430  205.8630  146.2820 C   0  0  0  0  0  3  0  0  0  0  0  0
  161.9560  208.6360  149.8010 C   0  0  0  0  0  3  0  0  0  0  0  0
  161.6440  205.6390  147.6080 C   0  0  0  0  0  0  0  0  0  0  0  0
  160.9190  201.4570  146.0080 O   0  0  0  0  0  0  0  0  0  0  0  0
  160.0820  201.0800  144.9220 C   0  0  0  0  0  1  0  0  0  0  0  0
  160.8310  205.9520  152.2590 C   0  0  0  0  0  2  0  0  0  0  0  0
  161.8250  206.1630  153.2830 N   0  0  0  0  0  0  0  0  0  0  0  0
  161.5850  206.8170  154.3660 C   0  0  0  0  0  3  0  0  0  0  0  0
  160.7430  210.1950  154.9640 C   0  0  0  0  0  0  0  0  0  0  0  0
  160.7610  210.9820  155.9460 O   0  0  0  0  0  0  0  0  0  0  0  0
  160.1290  207.6440  156.0270 C   0  0  0  0  0  2  0  0  0  0  0  0
  160.2480  207.4230  154.6710 C   0  0  1  0  0  3  0  0  0  0  0  0
  160.4480  208.8170  155.1620 N   0  0  0  0  0  0  0  0  0  0  0  0
  161.0010  210.7110  153.5920 C   0  0  0  0  0  2  0  0  0  0  0  0
  159.7260  210.6600  152.7750 C   0  0  0  0  0  1  0  0  0  0  0  0
  1  3  1  0  0  0  0
  2  9  2  0  0  0  0
  3 17  1  6  0  0  0
  4 10  2  0  0  0  0
  5 11  1  0  0  0  0
  6  2  1  0  0  0  0
  6 12  2  0  0  0  0
  7  8  2  0  0  0  0
  7 13  1  0  0  0  0
  8 10  1  0  0  0  0
  9  5  1  0  0  0  0
 10  3  1  0  0  0  0
 11  4  1  0  0  0  0
 12 14  1  0  0  0  0
 13  1  2  0  0  0  0
 14 11  2  0  0  0  0
 14  8  1  0  0  0  0
 15  9  1  0  0  0  0
 16 15  1  0  0  0  0
 17 18  1  0  0  0  0
 18 19  2  0  0  0  0
 20 24  1  0  0  0  0
 20 21  2  0  0  0  0
 23 19  1  1  0  0  0
 23 24  1  0  0  0  0
 23 22  1  0  0  0  0
 24 22  1  0  0  0  0
 25 20  1  0  0  0  0
 26 25  1  0  0  0  0
M  END
>  <MODEL>
9

>  <REMARK>
 VINA RESULT:      -8.2      1.676      3.213
  Name = 
  5 active torsions:
  status: ('A' for Active; 'I' for Inactive)
    1  A    between atoms: C_2  and  C_6
    2  A    between atoms: C_4  and  C_23
    3  A    between atoms: N_11  and  C_23
    4  A    between atoms: C_12  and  C_20
    5  A    between atoms: C_16  and  O_19
                            x       y       z     vdW  Elec       q    Type
                         _______ _______ _______ _____ _____    ______ ____

>  <TORSDO>
F 5

$$$$
