=
 OpenBabel11042423053D

 48 54  0  0  1  0  0  0  0  0999 V2000
  159.8080  207.1280  155.8020 C   0  0  0  0  0  0  0  0  0  0  0  0
  158.9640  207.1410  156.7330 O   0  0  0  0  0  0  0  0  0  0  0  0
  160.5780  207.9730  153.5860 C   0  0  0  0  0  0  0  0  0  0  0  0
  160.0310  208.3470  154.9510 C   0  0  2  0  0  3  0  0  0  0  0  0
  161.3410  205.8510  154.4770 N   0  0  0  0  0  0  0  0  0  0  0  0
  161.6470  211.6100  156.0910 C   0  0  0  0  0  3  0  0  0  0  0  0
  159.4310  209.9500  152.4650 C   0  0  0  0  0  2  0  0  0  0  0  0
  159.6550  212.0670  153.7980 C   0  0  0  0  0  2  0  0  0  0  0  0
  161.2940  206.8400  153.4310 C   0  0  1  0  0  3  0  0  0  0  0  0
  160.6420  205.9460  155.5690 C   0  0  0  0  0  3  0  0  0  0  0  0
  160.3820  208.8440  152.4640 N   0  0  0  0  0  0  0  0  0  0  0  0
  159.6050  212.1140  151.2510 C   0  0  2  0  0  3  0  0  0  0  0  0
  161.6960  212.1480  150.1460 C   0  0  0  0  0  2  0  0  0  0  0  0
  163.0460  209.7780  156.8150 C   0  0  0  0  0  3  0  0  0  0  0  0
  160.0920  211.3460  152.5130 C   0  0  2  0  0  0  0  0  0  0  0  0
  162.8020  211.1480  156.7290 C   0  0  0  0  0  3  0  0  0  0  0  0
  160.6440  212.9860  150.7120 N   0  0  0  0  0  2  0  0  0  0  0  0
  160.9650  209.3230  155.6320 C   0  0  0  0  0  0  0  0  0  0  0  0
  161.6400  211.2800  152.5320 C   0  0  0  0  0  2  0  0  0  0  0  0
  159.5800  211.1690  154.9030 O   0  0  0  0  0  0  0  0  0  0  0  0
  160.7260  210.7040  155.5470 C   0  0  0  0  0  0  0  0  0  0  0  0
  162.2300  211.1110  151.1320 C   0  0  0  0  0  2  0  0  0  0  0  0
  162.1390  208.8730  156.2610 C   0  0  0  0  0  3  0  0  0  0  0  0
  158.2950  212.8840  151.4090 C   0  0  1  0  0  3  0  0  0  0  0  0
  158.5780  214.2200  151.7720 O   0  0  0  0  0  0  0  0  0  0  0  0
  158.0980  214.0250  150.4610 C   0  0  1  0  0  3  0  0  0  0  0  0
  159.1910  214.1880  149.5150 N   0  0  0  0  0  2  0  0  0  0  0  0
  156.3700  213.7960  148.5080 C   0  0  0  0  0  1  0  0  0  0  0  0
  156.8980  212.1800  146.0640 C   0  0  0  0  0  1  0  0  0  0  0  0
  158.5950  214.4530  144.5800 C   0  0  0  0  0  1  0  0  0  0  0  0
  158.7340  213.6170  145.8420 C   0  0  2  0  0  3  0  0  0  0  0  0
  157.4250  213.4750  146.4840 N   0  0  0  0  0  0  0  0  0  0  0  0
  159.8970  214.4230  146.9630 S   0  0  0  0  0  0  0  0  0  0  0  0
  157.6300  213.4120  147.8750 N   0  0  0  0  0  0  0  0  0  0  0  0
  158.5990  214.4500  148.2080 C   0  0  1  0  0  3  0  0  0  0  0  0
  161.9940  206.5500  152.1430 C   0  0  0  0  0  2  0  0  0  0  0  0
  161.6620  205.1670  151.6520 C   0  0  0  0  0  2  0  0  0  0  0  0
  160.6780  205.2410  150.6630 O   0  0  0  0  0  0  0  0  0  0  0  0
  161.2390  204.6170  149.5440 C   0  0  1  0  0  3  0  0  0  0  0  0
  160.8570  203.2000  149.5350 C   0  0  0  0  0  0  0  0  0  0  0  0
  160.5430  202.0390  149.5270 C   0  0  0  0  0  3  0  0  0  0  0  0
  160.8230  205.2800  148.2470 C   0  0  0  0  0  0  0  0  0  0  0  0
  160.1020  206.2650  148.3030 O   0  0  0  0  0  0  0  0  0  0  0  0
  161.1280  205.8370  145.8300 C   0  0  0  0  0  2  0  0  0  0  0  0
  162.6650  204.3980  146.8230 C   0  0  0  0  0  2  0  0  0  0  0  0
  161.2230  204.7820  146.8840 C   0  0  1  0  0  3  0  0  0  0  0  0
  163.1510  204.8190  145.5770 O   0  0  0  0  0  0  0  0  0  0  0  0
  162.4640  205.9520  145.2660 N   0  0  0  0  0  2  0  0  0  0  0  0
  1  2  2  0  0  0  0
  4  3  1  6  0  0  0
  4 18  1  0  0  0  0
  4  1  1  0  0  0  0
  5 10  2  0  0  0  0
  6 16  1  0  0  0  0
  8 20  1  0  0  0  0
  9 36  1  6  0  0  0
  9  3  1  0  0  0  0
  9  5  1  0  0  0  0
 10  1  1  0  0  0  0
 11  7  1  0  0  0  0
 11  3  2  0  0  0  0
 12 17  1  1  0  0  0
 12 24  1  0  0  0  0
 12 15  1  0  0  0  0
 13 17  1  0  0  0  0
 13 22  1  0  0  0  0
 15  7  1  6  0  0  0
 15 19  1  0  0  0  0
 15  8  1  0  0  0  0
 16 14  2  0  0  0  0
 18 23  2  0  0  0  0
 20 21  1  0  0  0  0
 21 18  1  0  0  0  0
 21  6  2  0  0  0  0
 22 19  1  0  0  0  0
 23 14  1  0  0  0  0
 24 25  1  1  0  0  0
 26 27  1  6  0  0  0
 26 24  1  0  0  0  0
 26 25  1  0  0  0  0
 29 32  1  0  0  0  0
 31 30  1  6  0  0  0
 31 32  1  0  0  0  0
 31 33  1  0  0  0  0
 32 34  1  0  0  0  0
 33 35  1  0  0  0  0
 34 35  1  0  0  0  0
 34 28  1  0  0  0  0
 35 27  1  1  0  0  0
 37 36  1  0  0  0  0
 38 37  1  0  0  0  0
 39 40  1  6  0  0  0
 39 38  1  0  0  0  0
 41 40  3  0  0  0  0
 42 43  2  0  0  0  0
 42 39  1  0  0  0  0
 44 46  1  0  0  0  0
 45 46  1  0  0  0  0
 46 42  1  1  0  0  0
 47 45  1  0  0  0  0
 48 47  1  0  0  0  0
 48 44  1  0  0  0  0
M  END
>  <MODEL>
1

>  <REMARK>
 VINA RESULT:      -2.6      0.000      0.000
  Name = 
  10 active torsions:
  status: ('A' for Active; 'I' for Inactive)
    1  A    between atoms: C_3  and  C_42
    2  A    between atoms: C_5  and  C_9
    3  A    between atoms: C_5  and  C_42
    4  A    between atoms: N_6  and  C_44
    5  A    between atoms: N_6  and  C_45
    6  A    between atoms: C_21  and  C_48
    7  A    between atoms: C_22  and  C_25
    8  A    between atoms: C_31  and  O_38
    9  A    between atoms: C_31  and  C_48
   10  A    between atoms: O_38  and  C_42
                            x       y       z     vdW  Elec       q    Type
                         _______ _______ _______ _____ _____    ______ ____

>  <TORSDO>
F 10

$$$$
=
 OpenBabel11042423053D

 48 54  0  0  1  0  0  0  0  0999 V2000
  160.6160  207.3110  149.2590 C   0  0  0  0  0  0  0  0  0  0  0  0
  159.7340  206.4650  148.9650 O   0  0  0  0  0  0  0  0  0  0  0  0
  161.3850  209.2100  150.6810 C   0  0  0  0  0  0  0  0  0  0  0  0
  160.7370  207.8380  150.6620 C   0  0  2  0  0  3  0  0  0  0  0  0
  162.3440  208.7820  148.4960 N   0  0  0  0  0  0  0  0  0  0  0  0
  161.9150  205.8580  153.7040 C   0  0  0  0  0  3  0  0  0  0  0  0
  160.0720  209.9190  152.7430 C   0  0  0  0  0  2  0  0  0  0  0  0
  159.9920  208.1190  154.4920 C   0  0  0  0  0  2  0  0  0  0  0  0
  162.2320  209.5710  149.6960 C   0  0  0  0  0  0  0  0  0  0  0  0
  161.5890  207.7510  148.2560 C   0  0  0  0  0  3  0  0  0  0  0  0
  161.1430  210.1090  151.7700 N   0  0  0  0  0  2  0  0  0  0  0  0
  160.0530  210.5830  155.1410 C   0  0  2  0  0  3  0  0  0  0  0  0
  162.1750  211.4970  155.6460 C   0  0  0  0  0  2  0  0  0  0  0  0
  163.4800  205.4810  151.9020 C   0  0  0  0  0  3  0  0  0  0  0  0
  160.5660  209.5020  154.1460 C   0  0  2  0  0  0  0  0  0  0  0  0
  163.0850  205.2640  153.2210 C   0  0  0  0  0  3  0  0  0  0  0  0
  161.0090  210.8290  156.2160 N   0  0  0  0  0  2  0  0  0  0  0  0
  161.5210  206.8830  151.5350 C   0  0  0  0  0  0  0  0  0  0  0  0
  162.1090  209.3880  154.2330 C   0  0  0  0  0  2  0  0  0  0  0  0
  159.9690  207.2610  153.3540 O   0  0  0  0  0  0  0  0  0  0  0  0
  161.1300  206.6620  152.8660 C   0  0  0  0  0  0  0  0  0  0  0  0
  162.7780  210.7430  154.4630 C   0  0  0  0  0  2  0  0  0  0  0  0
  162.7090  206.2930  151.0680 C   0  0  0  0  0  3  0  0  0  0  0  0
  158.6580  210.3450  155.7150 C   0  0  1  0  0  3  0  0  0  0  0  0
  158.6450  210.7100  157.0800 O   0  0  0  0  0  0  0  0  0  0  0  0
  157.9440  211.5650  156.2050 C   0  0  1  0  0  3  0  0  0  0  0  0
  158.7000  212.7930  156.0170 N   0  0  0  0  0  2  0  0  0  0  0  0
  155.9430  214.0230  156.1070 C   0  0  0  0  0  1  0  0  0  0  0  0
  154.8090  212.9720  153.5630 C   0  0  0  0  0  1  0  0  0  0  0  0
  156.9260  214.4530  151.6730 C   0  0  0  0  0  1  0  0  0  0  0  0
  156.9670  213.3810  152.7500 C   0  0  2  0  0  3  0  0  0  0  0  0
  156.0310  213.7270  153.8220 N   0  0  0  0  0  0  0  0  0  0  0  0
  158.6460  213.2560  153.4000 S   0  0  0  0  0  0  0  0  0  0  0  0
  156.5670  213.2510  155.0340 N   0  0  0  0  0  0  0  0  0  0  0  0
  157.9830  213.6000  155.0360 C   0  0  1  0  0  3  0  0  0  0  0  0
  163.0190  210.8380  149.7920 C   0  0  0  0  0  2  0  0  0  0  0  0
  162.2710  211.9830  149.1660 C   0  0  0  0  0  2  0  0  0  0  0  0
  162.3800  211.9120  147.7750 O   0  0  0  0  0  0  0  0  0  0  0  0
  161.2000  212.4840  147.2870 C   0  0  1  0  0  3  0  0  0  0  0  0
  160.4970  213.1580  148.3850 C   0  0  0  0  0  0  0  0  0  0  0  0
  159.9200  213.7100  149.2840 C   0  0  0  0  0  3  0  0  0  0  0  0
  161.4590  213.4570  146.1560 C   0  0  0  0  0  0  0  0  0  0  0  0
  162.3020  214.3270  146.3180 O   0  0  0  0  0  0  0  0  0  0  0  0
  161.6310  213.3560  143.6650 C   0  0  0  0  0  2  0  0  0  0  0  0
  159.8810  212.2100  144.6880 C   0  0  0  0  0  2  0  0  0  0  0  0
  160.7190  213.4370  144.8450 C   0  0  1  0  0  3  0  0  0  0  0  0
  159.9890  211.8070  143.3500 O   0  0  0  0  0  0  0  0  0  0  0  0
  161.2450  212.1480  142.9510 N   0  0  0  0  0  2  0  0  0  0  0  0
  2  1  2  0  0  0  0
  3 11  1  0  0  0  0
  4  1  1  6  0  0  0
  4  3  1  0  0  0  0
  4 18  1  0  0  0  0
  5  9  1  0  0  0  0
  9 36  1  0  0  0  0
  9  3  2  0  0  0  0
 10  5  2  0  0  0  0
 10  1  1  0  0  0  0
 11  7  1  0  0  0  0
 12 24  1  0  0  0  0
 12 17  1  1  0  0  0
 13 17  1  0  0  0  0
 14 16  2  0  0  0  0
 15  7  1  6  0  0  0
 15 19  1  0  0  0  0
 15  8  1  0  0  0  0
 15 12  1  0  0  0  0
 16  6  1  0  0  0  0
 18 21  1  0  0  0  0
 19 22  1  0  0  0  0
 20  8  1  0  0  0  0
 21 20  1  0  0  0  0
 21  6  2  0  0  0  0
 22 13  1  0  0  0  0
 23 18  2  0  0  0  0
 23 14  1  0  0  0  0
 24 26  1  0  0  0  0
 24 25  1  1  0  0  0
 26 27  1  6  0  0  0
 26 25  1  0  0  0  0
 29 32  1  0  0  0  0
 31 30  1  6  0  0  0
 31 33  1  0  0  0  0
 31 32  1  0  0  0  0
 32 34  1  0  0  0  0
 33 35  1  0  0  0  0
 34 35  1  0  0  0  0
 34 28  1  0  0  0  0
 35 27  1  1  0  0  0
 37 36  1  0  0  0  0
 38 37  1  0  0  0  0
 39 38  1  0  0  0  0
 39 40  1  1  0  0  0
 40 41  3  0  0  0  0
 42 43  2  0  0  0  0
 42 39  1  0  0  0  0
 44 46  1  0  0  0  0
 45 46  1  0  0  0  0
 46 42  1  1  0  0  0
 47 45  1  0  0  0  0
 48 47  1  0  0  0  0
 48 44  1  0  0  0  0
M  END
>  <MODEL>
2

>  <REMARK>
 VINA RESULT:      -1.6      3.313      6.605
  Name = 
  10 active torsions:
  status: ('A' for Active; 'I' for Inactive)
    1  A    between atoms: C_3  and  C_42
    2  A    between atoms: C_5  and  C_9
    3  A    between atoms: C_5  and  C_42
    4  A    between atoms: N_6  and  C_44
    5  A    between atoms: N_6  and  C_45
    6  A    between atoms: C_21  and  C_48
    7  A    between atoms: C_22  and  C_25
    8  A    between atoms: C_31  and  O_38
    9  A    between atoms: C_31  and  C_48
   10  A    between atoms: O_38  and  C_42
                            x       y       z     vdW  Elec       q    Type
                         _______ _______ _______ _____ _____    ______ ____

>  <TORSDO>
F 10

$$$$
