=
 OpenBabel11042421453D

 51 57  0  0  1  0  0  0  0  0999 V2000
  161.1770  206.3730  150.9910 N   0  0  0  0  0  0  0  0  0  0  0  0
  161.4380  207.4590  151.9000 N   0  0  2  0  0  0  0  0  0  0  0  0
  156.7120  210.0960  154.2700 O   0  0  0  0  0  0  0  0  0  0  0  0
  157.3030  211.7280  155.9890 O   0  0  0  0  0  0  0  0  0  0  0  0
  161.3990  209.9250  153.3980 C   0  0  0  0  0  1  0  0  0  0  0  0
  160.7680  212.2750  150.9220 C   0  0  0  0  0  2  0  0  0  0  0  0
  160.1930  207.8910  152.3770 N   0  0  0  0  0  2  0  0  0  0  0  0
  159.5100  212.7270  151.6530 C   0  0  2  0  0  3  0  0  0  0  0  0
  160.5440  210.1330  148.0030 F   0  0  0  0  0  0  0  0  0  0  0  0
  162.8650  209.7490  148.4200 C   0  0  0  0  0  2  0  0  0  0  0  0
  161.5980  210.4870  148.8280 C   0  0  1  0  0  3  0  0  0  0  0  0
  161.4260  207.7030  150.4990 C   0  0  1  0  0  3  0  0  0  0  0  0
  158.1600  212.2260  153.4880 C   0  0  2  0  0  3  0  0  0  0  0  0
  160.4240  208.7560  153.5320 C   0  0  2  0  0  0  0  0  0  0  0  0
  157.7970  211.0210  154.7560 S   0  0  0  0  0  0  0  0  0  0  0  0
  159.9310  214.1120  152.7530 S   0  0  0  0  0  0  0  0  0  0  0  0
  161.8320  212.0020  148.8060 C   0  0  2  0  0  3  0  0  0  0  0  0
  158.9790  211.6280  152.4460 N   0  0  0  0  0  2  0  0  0  0  0  0
  159.2190  208.8690  154.4480 C   0  0  1  0  0  3  0  0  0  0  0  0
  162.7120  208.2490  148.6170 C   0  0  0  0  0  2  0  0  0  0  0  0
  160.7630  212.7200  149.5280 N   0  0  0  0  0  0  0  0  0  0  0  0
  160.4300  208.0350  154.8580 C   0  0  0  0  0  2  0  0  0  0  0  0
  162.7930  207.9180  150.0280 N   0  0  0  0  0  2  0  0  0  0  0  0
  161.1020  214.1430  149.5430 C   0  0  0  0  0  1  0  0  0  0  0  0
  158.8980  213.4140  154.0700 C   0  0  1  0  0  3  0  0  0  0  0  0
  159.2280  210.1310  155.1740 N   0  0  0  0  0  2  0  0  0  0  0  0
  161.9480  212.4690  147.3470 C   0  0  0  0  0  2  0  0  0  0  0  0
  156.7710  213.3950  146.2180 C   0  0  0  0  0  1  0  0  0  0  0  0
  160.5990  212.7210  146.7270 C   0  0  0  0  0  0  0  0  0  0  0  0
  160.3690  213.3270  145.4830 C   0  0  0  0  0  0  0  0  0  0  0  0
  158.2500  213.2450  146.2510 C   0  0  0  0  0  0  0  0  0  0  0  0
  159.1170  212.5780  147.5260 S   0  0  0  0  0  0  0  0  0  0  0  0
  159.0580  213.5950  145.2240 N   0  0  0  0  0  0  0  0  0  0  0  0
  161.4160  213.5960  144.4770 C   0  0  0  0  0  0  0  0  0  0  0  0
  162.3120  214.4500  144.7130 O   0  0  0  0  0  0  0  0  0  0  0  0
  161.4840  212.8380  143.2670 N   0  0  0  0  0  2  0  0  0  0  0  0
  159.6700  211.6170  141.9920 C   0  0  0  0  0  2  0  0  0  0  0  0
  160.7580  212.0640  141.0230 C   0  0  0  0  0  2  0  0  0  0  0  0
  160.4430  212.8870  142.2450 C   0  0  0  0  0  0  0  0  0  0  0  0
  159.7340  214.2030  141.9900 C   0  0  0  0  0  1  0  0  0  0  0  0
  157.9060  214.4530  154.5610 C   0  0  0  0  0  2  0  0  0  0  0  0
  155.6530  214.1000  155.0260 C   0  0  0  0  0  1  0  0  0  0  0  0
  156.6100  214.2360  153.9450 N   0  0  0  0  0  2  0  0  0  0  0  0
  162.3610  205.5190  151.0230 C   0  0  0  0  0  2  0  0  0  0  0  0
  161.9460  204.0530  151.0440 C   0  0  1  0  0  3  0  0  0  0  0  0
  161.3010  203.7610  152.2430 O   0  0  0  0  0  1  0  0  0  0  0  0
  161.0630  203.6880  149.8450 C   0  0  0  0  0  2  0  0  0  0  0  0
  161.6910  201.3120  150.4250 O   0  0  0  0  0  1  0  0  0  0  0  0
  160.7630  201.7030  148.1810 C   0  0  0  0  0  2  0  0  0  0  0  0
  160.9820  202.1840  149.5970 C   0  0  0  0  0  0  0  0  0  0  0  0
  159.6210  201.6660  149.1910 C   0  0  0  0  0  2  0  0  0  0  0  0
  1 44  1  0  0  0  0
  1  2  1  0  0  0  0
  2  7  1  1  0  0  0
  3 15  2  0  0  0  0
  7 14  1  0  0  0  0
  8  6  1  1  0  0  0
  8 18  1  0  0  0  0
  8 16  1  0  0  0  0
 10 20  1  0  0  0  0
 10 11  1  0  0  0  0
 11  9  1  6  0  0  0
 12 23  1  6  0  0  0
 12  1  1  0  0  0  0
 12  2  1  0  0  0  0
 13 18  1  6  0  0  0
 13 25  1  0  0  0  0
 13 15  1  0  0  0  0
 14  5  1  6  0  0  0
 14 19  1  0  0  0  0
 14 22  1  0  0  0  0
 15 26  1  0  0  0  0
 15  4  2  0  0  0  0
 16 25  1  0  0  0  0
 17 27  1  6  0  0  0
 17 11  1  0  0  0  0
 17 21  1  0  0  0  0
 19 22  1  1  0  0  0
 19 26  1  0  0  0  0
 20 23  1  0  0  0  0
 21 24  1  0  0  0  0
 21  6  1  0  0  0  0
 25 41  1  6  0  0  0
 28 31  1  0  0  0  0
 29 27  1  0  0  0  0
 29 32  1  0  0  0  0
 30 29  2  0  0  0  0
 31 32  1  0  0  0  0
 33 30  1  0  0  0  0
 33 31  2  0  0  0  0
 34 35  2  0  0  0  0
 34 30  1  0  0  0  0
 36 34  1  0  0  0  0
 37 39  1  0  0  0  0
 38 37  1  0  0  0  0
 38 39  1  0  0  0  0
 39 36  1  0  0  0  0
 40 39  1  0  0  0  0
 43 41  1  0  0  0  0
 43 42  1  0  0  0  0
 44 45  1  0  0  0  0
 45 46  1  1  0  0  0
 47 45  1  0  0  0  0
 49 51  1  0  0  0  0
 49 50  1  0  0  0  0
 50 47  1  0  0  0  0
 50 48  1  0  0  0  0
 51 50  1  0  0  0  0
M  END
>  <MODEL>
1

>  <REMARK>
 VINA RESULT:      -1.8      0.000      0.000
  Name = 
  10 active torsions:
  status: ('A' for Active; 'I' for Inactive)
    1  A    between atoms: N_1  and  C_37
    2  A    between atoms: C_9  and  C_17
    3  A    between atoms: C_9  and  C_37
    4  A    between atoms: C_11  and  C_35
    5  A    between atoms: C_17  and  C_28
    6  A    between atoms: C_25  and  C_31
    7  A    between atoms: C_31  and  C_34
    8  A    between atoms: C_32  and  N_38
    9  A    between atoms: C_32  and  C_49
   10  A    between atoms: N_33  and  C_36
                            x       y       z     vdW  Elec       q    Type
                         _______ _______ _______ _____ _____    ______ ____

>  <TORSDO>
F 10

$$$$
=
 OpenBabel11042421453D

 51 57  0  0  1  0  0  0  0  0999 V2000
  161.5600  210.9400  148.3130 N   0  0  0  0  0  0  0  0  0  0  0  0
  162.3180  209.7760  148.6920 N   0  0  2  0  0  0  0  0  0  0  0  0
  159.9880  204.5410  147.2550 O   0  0  0  0  0  0  0  0  0  0  0  0
  161.4990  202.6760  147.7110 O   0  0  0  0  0  0  0  0  0  0  0  0
  163.1940  207.1810  149.6010 C   0  0  0  0  0  1  0  0  0  0  0  0
  161.1950  206.6710  152.3940 C   0  0  0  0  0  2  0  0  0  0  0  0
  161.6150  208.6640  148.2080 N   0  0  0  0  0  2  0  0  0  0  0  0
  160.6360  205.3960  151.7760 C   0  0  2  0  0  3  0  0  0  0  0  0
  159.2500  209.7330  152.3960 F   0  0  0  0  0  0  0  0  0  0  0  0
  161.3510  210.7680  152.8720 C   0  0  0  0  0  2  0  0  0  0  0  0
  160.5890  209.4720  152.6350 C   0  0  1  0  0  3  0  0  0  0  0  0
  161.4610  210.3960  149.6430 C   0  0  1  0  0  3  0  0  0  0  0  0
  160.6690  204.1200  149.8240 C   0  0  2  0  0  3  0  0  0  0  0  0
  162.4980  207.5020  148.2790 C   0  0  2  0  0  0  0  0  0  0  0  0
  161.1470  204.0850  148.1020 S   0  0  0  0  0  0  0  0  0  0  0  0
  161.6370  203.9830  152.3300 S   0  0  0  0  0  0  0  0  0  0  0  0
  160.7630  208.5260  153.8280 C   0  0  2  0  0  3  0  0  0  0  0  0
  160.6910  205.4840  150.3240 N   0  0  0  0  0  2  0  0  0  0  0  0
  162.0920  206.3810  147.3400 C   0  0  1  0  0  3  0  0  0  0  0  0
  161.3470  211.6400  151.6250 C   0  0  0  0  0  2  0  0  0  0  0  0
  160.3480  207.1510  153.4870 N   0  0  0  0  0  0  0  0  0  0  0  0
  163.3040  207.2550  147.0280 C   0  0  0  0  0  2  0  0  0  0  0  0
  162.2650  211.1040  150.6370 N   0  0  0  0  0  2  0  0  0  0  0  0
  160.6280  206.2920  154.6380 C   0  0  0  0  0  1  0  0  0  0  0  0
  161.6100  203.2760  150.6600 C   0  0  1  0  0  3  0  0  0  0  0  0
  162.5390  205.0890  147.8400 N   0  0  0  0  0  2  0  0  0  0  0  0
  159.9730  209.0790  155.0240 C   0  0  0  0  0  2  0  0  0  0  0  0
  163.7340  212.2080  157.2570 C   0  0  0  0  0  1  0  0  0  0  0  0
  160.7830  210.0580  155.8320 C   0  0  0  0  0  0  0  0  0  0  0  0
  160.2920  211.2190  156.4460 C   0  0  0  0  0  0  0  0  0  0  0  0
  162.5010  211.5440  156.7580 C   0  0  0  0  0  0  0  0  0  0  0  0
  162.4700  210.0920  155.9140 S   0  0  0  0  0  0  0  0  0  0  0  0
  161.2560  212.0260  156.9720 N   0  0  0  0  0  0  0  0  0  0  0  0
  158.8580  211.5410  156.6010 C   0  0  0  0  0  0  0  0  0  0  0  0
  158.1090  210.7730  157.2600 O   0  0  0  0  0  0  0  0  0  0  0  0
  158.3200  212.7620  156.0880 N   0  0  0  0  0  2  0  0  0  0  0  0
  156.9270  213.4580  154.0930 C   0  0  0  0  0  2  0  0  0  0  0  0
  157.4800  212.0570  153.8620 C   0  0  0  0  0  2  0  0  0  0  0  0
  158.2670  213.0630  154.6610 C   0  0  0  0  0  0  0  0  0  0  0  0
  159.5070  213.6180  153.9860 C   0  0  0  0  0  1  0  0  0  0  0  0
  161.1180  201.8410  150.7090 C   0  0  0  0  0  2  0  0  0  0  0  0
  159.5520  201.0980  149.1560 C   0  0  0  0  0  1  0  0  0  0  0  0
  159.6950  201.7910  150.4210 N   0  0  0  0  0  2  0  0  0  0  0  0
  162.5220  212.0310  148.1860 C   0  0  0  0  0  2  0  0  0  0  0  0
  161.8420  213.2590  147.5930 C   0  0  1  0  0  3  0  0  0  0  0  0
  162.8020  214.1840  147.1900 O   0  0  0  0  0  1  0  0  0  0  0  0
  160.9120  212.8960  146.4290 C   0  0  0  0  0  2  0  0  0  0  0  0
  159.0760  213.6830  147.9750 O   0  0  0  0  0  1  0  0  0  0  0  0
  158.3880  212.4200  145.9800 C   0  0  0  0  0  2  0  0  0  0  0  0
  159.4450  213.2120  146.7130 C   0  0  0  0  0  0  0  0  0  0  0  0
  158.6890  213.8600  145.5770 C   0  0  0  0  0  2  0  0  0  0  0  0
  1  2  1  0  0  0  0
  1 12  1  0  0  0  0
  2  7  1  6  0  0  0
  2 12  1  0  0  0  0
  3 15  2  0  0  0  0
  4 15  2  0  0  0  0
  6 21  1  0  0  0  0
  7 14  1  0  0  0  0
  8 16  1  0  0  0  0
  8  6  1  1  0  0  0
 11  9  1  1  0  0  0
 11 10  1  0  0  0  0
 11 17  1  0  0  0  0
 12 23  1  1  0  0  0
 13 18  1  1  0  0  0
 13 25  1  0  0  0  0
 14  5  1  1  0  0  0
 15 13  1  0  0  0  0
 17 27  1  1  0  0  0
 18  8  1  0  0  0  0
 19 22  1  6  0  0  0
 19 26  1  0  0  0  0
 19 14  1  0  0  0  0
 20 10  1  0  0  0  0
 21 17  1  0  0  0  0
 21 24  1  0  0  0  0
 22 14  1  0  0  0  0
 23 20  1  0  0  0  0
 25 41  1  1  0  0  0
 25 16  1  0  0  0  0
 26 15  1  0  0  0  0
 27 29  1  0  0  0  0
 29 32  1  0  0  0  0
 29 30  2  0  0  0  0
 30 34  1  0  0  0  0
 30 33  1  0  0  0  0
 31 33  2  0  0  0  0
 31 28  1  0  0  0  0
 32 31  1  0  0  0  0
 34 35  2  0  0  0  0
 36 34  1  0  0  0  0
 37 39  1  0  0  0  0
 38 37  1  0  0  0  0
 38 39  1  0  0  0  0
 39 36  1  0  0  0  0
 40 39  1  0  0  0  0
 42 43  1  0  0  0  0
 43 41  1  0  0  0  0
 44  1  1  0  0  0  0
 45 46  1  6  0  0  0
 45 44  1  0  0  0  0
 47 50  1  0  0  0  0
 47 45  1  0  0  0  0
 49 50  1  0  0  0  0
 50 48  1  0  0  0  0
 51 49  1  0  0  0  0
 51 50  1  0  0  0  0
M  END
>  <MODEL>
2

>  <REMARK>
 VINA RESULT:      -1.2      2.953      9.863
  Name = 
  10 active torsions:
  status: ('A' for Active; 'I' for Inactive)
    1  A    between atoms: N_1  and  C_37
    2  A    between atoms: C_9  and  C_17
    3  A    between atoms: C_9  and  C_37
    4  A    between atoms: C_11  and  C_35
    5  A    between atoms: C_17  and  C_28
    6  A    between atoms: C_25  and  C_31
    7  A    between atoms: C_31  and  C_34
    8  A    between atoms: C_32  and  N_38
    9  A    between atoms: C_32  and  C_49
   10  A    between atoms: N_33  and  C_36
                            x       y       z     vdW  Elec       q    Type
                         _______ _______ _______ _____ _____    ______ ____

>  <TORSDO>
F 10

$$$$
=
 OpenBabel11042421453D

 51 57  0  0  1  0  0  0  0  0999 V2000
  161.4210  211.0650  154.6120 N   0  0  0  0  0  0  0  0  0  0  0  0
  160.6490  210.0500  153.9440 N   0  0  2  0  0  0  0  0  0  0  0  0
  163.4600  205.0080  152.6930 O   0  0  0  0  0  0  0  0  0  0  0  0
  161.9670  203.2860  151.8120 O   0  0  0  0  0  0  0  0  0  0  0  0
  159.7050  207.9160  152.2460 C   0  0  0  0  0  1  0  0  0  0  0  0
  161.0590  208.7780  149.1680 C   0  0  0  0  0  2  0  0  0  0  0  0
  161.4870  208.9370  153.8000 N   0  0  0  0  0  2  0  0  0  0  0  0
  161.7950  207.4460  149.1040 C   0  0  2  0  0  3  0  0  0  0  0  0
  162.8220  211.8260  150.0380 F   0  0  0  0  0  0  0  0  0  0  0  0
  160.6260  212.6880  150.4180 C   0  0  0  0  0  2  0  0  0  0  0  0
  161.4760  211.5090  149.9670 C   0  0  1  0  0  3  0  0  0  0  0  0
  161.2470  211.0920  153.1830 C   0  0  1  0  0  3  0  0  0  0  0  0
  162.2470  205.5240  150.3460 C   0  0  2  0  0  3  0  0  0  0  0  0
  160.6610  207.7890  153.4320 C   0  0  2  0  0  0  0  0  0  0  0  0
  162.1640  204.7700  151.9640 S   0  0  0  0  0  0  0  0  0  0  0  0
  160.7580  206.2390  148.2240 S   0  0  0  0  0  0  0  0  0  0  0  0
  161.0840  211.0800  148.5490 C   0  0  2  0  0  3  0  0  0  0  0  0
  162.0570  206.9610  150.4510 N   0  0  0  0  0  2  0  0  0  0  0  0
  161.3120  206.4560  153.7470 C   0  0  1  0  0  3  0  0  0  0  0  0
  160.8670  213.0060  151.8860 C   0  0  0  0  0  2  0  0  0  0  0  0
  161.6230  209.7440  148.2240 N   0  0  0  0  0  0  0  0  0  0  0  0
  160.1630  206.9810  154.6040 C   0  0  0  0  0  2  0  0  0  0  0  0
  160.2140  212.0190  152.7260 N   0  0  0  0  0  2  0  0  0  0  0  0
  161.1330  209.3670  146.8980 C   0  0  0  0  0  1  0  0  0  0  0  0
  161.1820  204.9540  149.4310 C   0  0  1  0  0  3  0  0  0  0  0  0
  160.8220  205.4090  152.8610 N   0  0  0  0  0  2  0  0  0  0  0  0
  161.5660  212.1460  147.5530 C   0  0  0  0  0  2  0  0  0  0  0  0
  156.9680  214.0260  145.4910 C   0  0  0  0  0  1  0  0  0  0  0  0
  160.4420  212.6710  146.7000 C   0  0  0  0  0  0  0  0  0  0  0  0
  160.5860  213.3980  145.5090 C   0  0  0  0  0  0  0  0  0  0  0  0
  158.3630  213.6230  145.8110 C   0  0  0  0  0  0  0  0  0  0  0  0
  158.8160  212.7250  147.1560 S   0  0  0  0  0  0  0  0  0  0  0  0
  159.4210  213.9050  145.0170 N   0  0  0  0  0  0  0  0  0  0  0  0
  161.8590  213.5580  144.7750 C   0  0  0  0  0  0  0  0  0  0  0  0
  162.6760  214.4520  145.1200 O   0  0  0  0  0  0  0  0  0  0  0  0
  162.2220  212.6530  143.7300 N   0  0  0  0  0  2  0  0  0  0  0  0
  162.2110  212.9030  141.2110 C   0  0  0  0  0  2  0  0  0  0  0  0
  161.2150  213.8810  141.8220 C   0  0  0  0  0  2  0  0  0  0  0  0
  161.4750  212.5510  142.4800 C   0  0  0  0  0  0  0  0  0  0  0  0
  160.3530  211.5350  142.3820 C   0  0  0  0  0  1  0  0  0  0  0  0
  161.7130  203.7230  148.7190 C   0  0  0  0  0  2  0  0  0  0  0  0
  161.2350  201.4480  148.8100 C   0  0  0  0  0  1  0  0  0  0  0  0
  160.6500  202.7480  148.5490 N   0  0  0  0  0  2  0  0  0  0  0  0
  160.4650  211.8920  155.3440 C   0  0  0  0  0  2  0  0  0  0  0  0
  159.5960  211.0170  156.2380 C   0  0  1  0  0  3  0  0  0  0  0  0
  160.3690  210.4650  157.2570 O   0  0  0  0  0  1  0  0  0  0  0  0
  158.4020  211.7880  156.8140 C   0  0  0  0  0  2  0  0  0  0  0  0
  157.2490  211.1140  154.6710 O   0  0  0  0  0  1  0  0  0  0  0  0
  156.3310  213.0570  155.8680 C   0  0  0  0  0  2  0  0  0  0  0  0
  157.2000  211.8200  155.8740 C   0  0  0  0  0  0  0  0  0  0  0  0
  155.8480  211.7790  156.5480 C   0  0  0  0  0  2  0  0  0  0  0  0
  1 44  1  0  0  0  0
  2  7  1  6  0  0  0
  2  1  1  0  0  0  0
  4 15  2  0  0  0  0
  8  6  1  1  0  0  0
  8 18  1  0  0  0  0
 10 20  1  0  0  0  0
 11  9  1  6  0  0  0
 11 10  1  0  0  0  0
 12 23  1  1  0  0  0
 12  2  1  0  0  0  0
 12  1  1  0  0  0  0
 13 18  1  1  0  0  0
 13 15  1  0  0  0  0
 14  5  1  6  0  0  0
 14 19  1  0  0  0  0
 14  7  1  0  0  0  0
 14 22  1  0  0  0  0
 15  3  2  0  0  0  0
 15 26  1  0  0  0  0
 16  8  1  0  0  0  0
 16 25  1  0  0  0  0
 17 27  1  6  0  0  0
 17 11  1  0  0  0  0
 19 22  1  1  0  0  0
 20 23  1  0  0  0  0
 21 17  1  0  0  0  0
 21  6  1  0  0  0  0
 24 21  1  0  0  0  0
 25 41  1  6  0  0  0
 25 13  1  0  0  0  0
 26 19  1  0  0  0  0
 28 31  1  0  0  0  0
 29 32  1  0  0  0  0
 29 27  1  0  0  0  0
 30 29  2  0  0  0  0
 31 32  1  0  0  0  0
 33 30  1  0  0  0  0
 33 31  2  0  0  0  0
 34 35  2  0  0  0  0
 34 30  1  0  0  0  0
 36 34  1  0  0  0  0
 37 38  1  0  0  0  0
 37 39  1  0  0  0  0
 38 39  1  0  0  0  0
 39 36  1  0  0  0  0
 40 39  1  0  0  0  0
 43 41  1  0  0  0  0
 43 42  1  0  0  0  0
 44 45  1  0  0  0  0
 45 47  1  0  0  0  0
 45 46  1  1  0  0  0
 48 50  1  0  0  0  0
 49 50  1  0  0  0  0
 49 51  1  0  0  0  0
 50 51  1  0  0  0  0
 50 47  1  0  0  0  0
M  END
>  <MODEL>
3

>  <REMARK>
 VINA RESULT:       0.2      2.317      6.929
  Name = 
  10 active torsions:
  status: ('A' for Active; 'I' for Inactive)
    1  A    between atoms: N_1  and  C_37
    2  A    between atoms: C_9  and  C_17
    3  A    between atoms: C_9  and  C_37
    4  A    between atoms: C_11  and  C_35
    5  A    between atoms: C_17  and  C_28
    6  A    between atoms: C_25  and  C_31
    7  A    between atoms: C_31  and  C_34
    8  A    between atoms: C_32  and  N_38
    9  A    between atoms: C_32  and  C_49
   10  A    between atoms: N_33  and  C_36
                            x       y       z     vdW  Elec       q    Type
                         _______ _______ _______ _____ _____    ______ ____

>  <TORSDO>
F 10

$$$$
=
 OpenBabel11042421453D

 51 57  0  0  1  0  0  0  0  0999 V2000
  161.7330  212.4850  148.9470 N   0  0  0  0  0  0  0  0  0  0  0  0
  160.6920  211.9360  149.7780 N   0  0  2  0  0  0  0  0  0  0  0  0
  161.6290  212.0890  155.6090 O   0  0  0  0  0  0  0  0  0  0  0  0
  159.6800  211.3800  156.8990 O   0  0  0  0  0  0  0  0  0  0  0  0
  159.1570  210.5880  151.8160 C   0  0  0  0  0  1  0  0  0  0  0  0
  160.8920  207.6030  152.1830 C   0  0  0  0  0  2  0  0  0  0  0  0
  161.0960  212.1270  151.1060 N   0  0  0  0  0  2  0  0  0  0  0  0
  161.1180  207.9020  153.6590 C   0  0  2  0  0  3  0  0  0  0  0  0
  163.5580  208.0740  149.7690 F   0  0  0  0  0  0  0  0  0  0  0  0
  161.7830  207.9840  148.1710 C   0  0  0  0  0  2  0  0  0  0  0  0
  162.1920  207.8920  149.6340 C   0  0  1  0  0  3  0  0  0  0  0  0
  161.6570  211.0680  149.1960 C   0  0  1  0  0  3  0  0  0  0  0  0
  160.8030  209.5490  155.2800 C   0  0  2  0  0  3  0  0  0  0  0  0
  159.9420  211.8890  151.9710 C   0  0  2  0  0  0  0  0  0  0  0  0
  160.3730  211.2590  155.5700 S   0  0  0  0  0  0  0  0  0  0  0  0
  159.7750  207.1510  154.6270 S   0  0  0  0  0  0  0  0  0  0  0  0
  161.7530  206.5480  150.2260 C   0  0  2  0  0  3  0  0  0  0  0  0
  161.1210  209.3410  153.8770 N   0  0  0  0  0  2  0  0  0  0  0  0
  160.0690  212.5460  153.3330 C   0  0  1  0  0  3  0  0  0  0  0  0
  162.0400  209.3780  147.6190 C   0  0  0  0  0  2  0  0  0  0  0  0
  161.8080  206.5680  151.7010 N   0  0  0  0  0  0  0  0  0  0  0  0
  159.1300  213.1230  152.2770 C   0  0  0  0  0  2  0  0  0  0  0  0
  161.0390  210.3050  148.1140 N   0  0  0  0  0  2  0  0  0  0  0  0
  161.2900  205.2910  152.1930 C   0  0  0  0  0  1  0  0  0  0  0  0
  159.6580  208.6340  155.6640 C   0  0  1  0  0  3  0  0  0  0  0  0
  159.2930  211.8290  154.3360 N   0  0  0  0  0  2  0  0  0  0  0  0
  162.6300  205.4320  149.6390 C   0  0  0  0  0  2  0  0  0  0  0  0
  159.1220  201.4030  149.0090 C   0  0  0  0  0  1  0  0  0  0  0  0
  161.8140  204.2470  149.1940 C   0  0  0  0  0  0  0  0  0  0  0  0
  161.6380  203.8230  147.8690 C   0  0  0  0  0  0  0  0  0  0  0  0
  160.1360  202.4840  148.8850 C   0  0  0  0  0  0  0  0  0  0  0  0
  160.7390  203.3820  150.1700 S   0  0  0  0  0  0  0  0  0  0  0  0
  160.7170  202.8310  147.7140 N   0  0  0  0  0  0  0  0  0  0  0  0
  162.4190  204.3250  146.7190 C   0  0  0  0  0  0  0  0  0  0  0  0
  163.4910  204.9570  146.9140 O   0  0  0  0  0  0  0  0  0  0  0  0
  162.0230  204.0300  145.3780 N   0  0  0  0  0  2  0  0  0  0  0  0
  160.8750  205.7550  143.9250 C   0  0  0  0  0  2  0  0  0  0  0  0
  160.3430  205.8570  145.3490 C   0  0  0  0  0  2  0  0  0  0  0  0
  160.7810  204.5260  144.7940 C   0  0  0  0  0  0  0  0  0  0  0  0
  159.6700  203.5370  144.4940 C   0  0  0  0  0  1  0  0  0  0  0  0
  159.7630  208.2560  157.1310 C   0  0  0  0  0  2  0  0  0  0  0  0
  161.5830  206.8560  156.7530 C   0  0  0  0  0  1  0  0  0  0  0  0
  160.2260  206.8860  157.2600 N   0  0  0  0  0  2  0  0  0  0  0  0
  161.0870  212.9060  147.7070 C   0  0  0  0  0  2  0  0  0  0  0  0
  161.9940  213.8660  146.9470 C   0  0  1  0  0  3  0  0  0  0  0  0
  163.1810  213.2240  146.6040 O   0  0  0  0  0  1  0  0  0  0  0  0
  161.3070  214.4460  145.7050 C   0  0  0  0  0  2  0  0  0  0  0  0
  160.8940  212.0450  145.0410 O   0  0  0  0  0  1  0  0  0  0  0  0
  161.3700  213.6370  143.2270 C   0  0  0  0  0  2  0  0  0  0  0  0
  160.9630  213.3860  144.6610 C   0  0  0  0  0  0  0  0  0  0  0  0
  159.9120  213.7870  143.6520 C   0  0  0  0  0  2  0  0  0  0  0  0
  1 12  1  0  0  0  0
  1  2  1  0  0  0  0
  2  7  1  1  0  0  0
  7 14  1  0  0  0  0
  8  6  1  6  0  0  0
  8 18  1  0  0  0  0
  8 16  1  0  0  0  0
 10 11  1  0  0  0  0
 11  9  1  6  0  0  0
 11 17  1  0  0  0  0
 12 23  1  6  0  0  0
 12  2  1  0  0  0  0
 13 18  1  6  0  0  0
 13 15  1  0  0  0  0
 13 25  1  0  0  0  0
 14  5  1  6  0  0  0
 14 22  1  0  0  0  0
 14 19  1  0  0  0  0
 15  3  2  0  0  0  0
 15  4  2  0  0  0  0
 16 25  1  0  0  0  0
 17 27  1  6  0  0  0
 17 21  1  0  0  0  0
 19 22  1  6  0  0  0
 19 26  1  0  0  0  0
 20 23  1  0  0  0  0
 20 10  1  0  0  0  0
 21  6  1  0  0  0  0
 21 24  1  0  0  0  0
 25 41  1  1  0  0  0
 26 15  1  0  0  0  0
 29 27  1  0  0  0  0
 29 32  1  0  0  0  0
 30 29  2  0  0  0  0
 31 28  1  0  0  0  0
 31 32  1  0  0  0  0
 33 30  1  0  0  0  0
 33 31  2  0  0  0  0
 34 35  2  0  0  0  0
 34 30  1  0  0  0  0
 36 34  1  0  0  0  0
 37 39  1  0  0  0  0
 37 38  1  0  0  0  0
 39 38  1  0  0  0  0
 39 36  1  0  0  0  0
 40 39  1  0  0  0  0
 41 43  1  0  0  0  0
 42 43  1  0  0  0  0
 44  1  1  0  0  0  0
 45 46  1  6  0  0  0
 45 44  1  0  0  0  0
 47 45  1  0  0  0  0
 49 51  1  0  0  0  0
 49 50  1  0  0  0  0
 50 48  1  0  0  0  0
 50 47  1  0  0  0  0
 51 50  1  0  0  0  0
M  END
>  <MODEL>
4

>  <REMARK>
 VINA RESULT:       0.8      2.998      7.893
  Name = 
  10 active torsions:
  status: ('A' for Active; 'I' for Inactive)
    1  A    between atoms: N_1  and  C_37
    2  A    between atoms: C_9  and  C_17
    3  A    between atoms: C_9  and  C_37
    4  A    between atoms: C_11  and  C_35
    5  A    between atoms: C_17  and  C_28
    6  A    between atoms: C_25  and  C_31
    7  A    between atoms: C_31  and  C_34
    8  A    between atoms: C_32  and  N_38
    9  A    between atoms: C_32  and  C_49
   10  A    between atoms: N_33  and  C_36
                            x       y       z     vdW  Elec       q    Type
                         _______ _______ _______ _____ _____    ______ ____

>  <TORSDO>
F 10

$$$$
=
 OpenBabel11042421453D

 51 57  0  0  1  0  0  0  0  0999 V2000
  161.2840  207.2700  149.0470 N   0  0  0  0  0  0  0  0  0  0  0  0
  161.8220  207.8260  150.2620 N   0  0  2  0  0  0  0  0  0  0  0  0
  158.3520  207.5530  155.0360 O   0  0  0  0  0  0  0  0  0  0  0  0
  159.4880  208.2800  157.0730 O   0  0  0  0  0  0  0  0  0  0  0  0
  162.2330  209.1710  152.7820 C   0  0  0  0  0  1  0  0  0  0  0  0
  160.4420  212.1120  152.3420 C   0  0  0  0  0  2  0  0  0  0  0  0
  160.8660  207.6040  151.2630 N   0  0  0  0  0  2  0  0  0  0  0  0
  159.5800  211.7830  153.5540 C   0  0  2  0  0  3  0  0  0  0  0  0
  159.1690  211.6280  148.9800 F   0  0  0  0  0  0  0  0  0  0  0  0
  161.4720  211.7810  148.3590 C   0  0  0  0  0  2  0  0  0  0  0  0
  160.4430  211.8400  149.4790 C   0  0  1  0  0  3  0  0  0  0  0  0
  161.2020  208.6840  149.3120 C   0  0  1  0  0  3  0  0  0  0  0  0
  159.1710  210.1150  155.1330 C   0  0  2  0  0  3  0  0  0  0  0  0
  161.4960  207.8500  152.5570 C   0  0  2  0  0  0  0  0  0  0  0  0
  159.4680  208.4100  155.5750 S   0  0  0  0  0  0  0  0  0  0  0  0
  160.3200  212.5450  155.0300 S   0  0  0  0  0  0  0  0  0  0  0  0
  160.5320  213.1830  150.2140 C   0  0  2  0  0  3  0  0  0  0  0  0
  159.5160  210.3410  153.7390 N   0  0  0  0  0  2  0  0  0  0  0  0
  160.7850  207.1680  153.7110 C   0  0  1  0  0  3  0  0  0  0  0  0
  161.5290  210.3920  147.7420 C   0  0  0  0  0  2  0  0  0  0  0  0
  159.8160  213.1360  151.5040 N   0  0  0  0  0  0  0  0  0  0  0  0
  162.1150  206.6290  153.1910 C   0  0  0  0  0  2  0  0  0  0  0  0
  162.2220  209.4780  148.6310 N   0  0  0  0  0  2  0  0  0  0  0  0
  160.0220  214.4150  152.1850 C   0  0  0  0  0  1  0  0  0  0  0  0
  159.9940  211.0470  155.9990 C   0  0  1  0  0  3  0  0  0  0  0  0
  161.0040  207.8840  154.9600 N   0  0  0  0  0  2  0  0  0  0  0  0
  159.9860  214.2900  149.3000 C   0  0  0  0  0  2  0  0  0  0  0  0
  163.6590  214.3570  145.3710 C   0  0  0  0  0  1  0  0  0  0  0  0
  160.7670  214.3990  148.0170 C   0  0  0  0  0  0  0  0  0  0  0  0
  160.2470  214.2410  146.7240 C   0  0  0  0  0  0  0  0  0  0  0  0
  162.4450  214.3200  146.2290 C   0  0  0  0  0  0  0  0  0  0  0  0
  162.4520  214.4530  147.9040 S   0  0  0  0  0  0  0  0  0  0  0  0
  161.1890  214.2180  145.7390 N   0  0  0  0  0  0  0  0  0  0  0  0
  158.8060  214.1820  146.4030 C   0  0  0  0  0  0  0  0  0  0  0  0
  157.9650  213.9770  147.3190 O   0  0  0  0  0  0  0  0  0  0  0  0
  158.3380  214.4420  145.0780 N   0  0  0  0  0  2  0  0  0  0  0  0
  159.2710  214.2410  142.7340 C   0  0  0  0  0  2  0  0  0  0  0  0
  157.8020  213.8340  142.7310 C   0  0  0  0  0  2  0  0  0  0  0  0
  158.6600  213.5810  143.9440 C   0  0  0  0  0  0  0  0  0  0  0  0
  159.0180  212.1300  144.2080 C   0  0  0  0  0  1  0  0  0  0  0  0
  159.2270  211.3980  157.2610 C   0  0  0  0  0  2  0  0  0  0  0  0
  157.0910  212.1610  156.7420 C   0  0  0  0  0  1  0  0  0  0  0  0
  158.4380  212.5980  157.0480 N   0  0  0  0  0  2  0  0  0  0  0  0
  162.4320  206.8840  148.2310 C   0  0  0  0  0  2  0  0  0  0  0  0
  161.9720  206.0310  147.0550 C   0  0  1  0  0  3  0  0  0  0  0  0
  163.0550  205.3420  146.5170 O   0  0  0  0  0  1  0  0  0  0  0  0
  160.8490  205.0640  147.4500 C   0  0  0  0  0  2  0  0  0  0  0  0
  162.5660  203.2150  147.5590 O   0  0  0  0  0  1  0  0  0  0  0  0
  160.3580  202.7440  148.5340 C   0  0  0  0  0  2  0  0  0  0  0  0
  161.3670  203.7510  148.0320 C   0  0  0  0  0  0  0  0  0  0  0  0
  161.1690  203.5780  149.5210 C   0  0  0  0  0  2  0  0  0  0  0  0
  1 12  1  0  0  0  0
  1  2  1  0  0  0  0
  2  7  1  1  0  0  0
  3 15  2  0  0  0  0
  7 14  1  0  0  0  0
  8  6  1  6  0  0  0
  8 18  1  0  0  0  0
  8 16  1  0  0  0  0
 10 11  1  0  0  0  0
 11  9  1  6  0  0  0
 11 17  1  0  0  0  0
 12 23  1  6  0  0  0
 12  2  1  0  0  0  0
 13 18  1  6  0  0  0
 13 15  1  0  0  0  0
 13 25  1  0  0  0  0
 14  5  1  1  0  0  0
 14 22  1  0  0  0  0
 14 19  1  0  0  0  0
 15  4  2  0  0  0  0
 16 25  1  0  0  0  0
 17 27  1  6  0  0  0
 17 21  1  0  0  0  0
 19 22  1  1  0  0  0
 19 26  1  0  0  0  0
 20 10  1  0  0  0  0
 20 23  1  0  0  0  0
 21 24  1  0  0  0  0
 21  6  1  0  0  0  0
 25 41  1  1  0  0  0
 26 15  1  0  0  0  0
 28 31  1  0  0  0  0
 29 27  1  0  0  0  0
 30 29  2  0  0  0  0
 31 32  1  0  0  0  0
 32 29  1  0  0  0  0
 33 31  2  0  0  0  0
 33 30  1  0  0  0  0
 34 30  1  0  0  0  0
 34 35  2  0  0  0  0
 36 34  1  0  0  0  0
 37 39  1  0  0  0  0
 38 37  1  0  0  0  0
 38 39  1  0  0  0  0
 39 40  1  0  0  0  0
 39 36  1  0  0  0  0
 42 43  1  0  0  0  0
 43 41  1  0  0  0  0
 44  1  1  0  0  0  0
 45 46  1  1  0  0  0
 45 47  1  0  0  0  0
 45 44  1  0  0  0  0
 47 50  1  0  0  0  0
 48 50  1  0  0  0  0
 49 51  1  0  0  0  0
 50 49  1  0  0  0  0
 50 51  1  0  0  0  0
M  END
>  <MODEL>
5

>  <REMARK>
 VINA RESULT:       0.9      2.404      3.123
  Name = 
  10 active torsions:
  status: ('A' for Active; 'I' for Inactive)
    1  A    between atoms: N_1  and  C_37
    2  A    between atoms: C_9  and  C_17
    3  A    between atoms: C_9  and  C_37
    4  A    between atoms: C_11  and  C_35
    5  A    between atoms: C_17  and  C_28
    6  A    between atoms: C_25  and  C_31
    7  A    between atoms: C_31  and  C_34
    8  A    between atoms: C_32  and  N_38
    9  A    between atoms: C_32  and  C_49
   10  A    between atoms: N_33  and  C_36
                            x       y       z     vdW  Elec       q    Type
                         _______ _______ _______ _____ _____    ______ ____

>  <TORSDO>
F 10

$$$$
