=
 OpenBabel11052411543D

 32 36  0  0  1  0  0  0  0  0999 V2000
  161.8420  210.7360  150.5130 C   0  0  0  0  0  2  0  0  0  0  0  0
  160.5520  203.4300  149.7540 N   0  0  0  0  0  0  0  0  0  0  0  0
  162.1160  206.6050  148.7660 C   0  0  0  0  0  0  0  0  0  0  0  0
  161.3850  208.3760  153.0300 C   0  0  0  0  0  0  0  0  0  0  0  0
  161.4990  205.7120  149.6230 C   0  0  0  0  0  0  0  0  0  0  0  0
  161.4250  204.1080  147.8550 C   0  0  0  0  0  0  0  0  0  0  0  0
  160.8690  208.1210  154.2010 C   0  0  0  0  0  3  0  0  0  0  0  0
  162.3860  207.8860  149.4610 C   0  0  1  0  0  3  0  0  0  0  0  0
  162.4070  206.2630  147.4260 C   0  0  0  0  0  3  0  0  0  0  0  0
  161.8980  208.6300  151.8550 C   0  0  0  0  0  0  0  0  0  0  0  0
  161.1580  204.4560  149.1410 C   0  0  0  0  0  0  0  0  0  0  0  0
  160.4630  202.4780  148.8260 N   0  0  0  0  0  0  0  0  0  0  0  0
  161.6130  208.9520  148.8380 N   0  0  0  0  0  2  0  0  0  0  0  0
  162.0520  204.9770  146.9520 C   0  0  0  0  0  2  0  0  0  0  0  0
  162.2680  210.2210  149.1410 C   0  0  1  0  0  3  0  0  0  0  0  0
  161.3050  206.2960  150.9670 C   0  0  0  0  0  2  0  0  0  0  0  0
  162.5380  209.9650  151.6280 C   0  0  0  0  0  2  0  0  0  0  0  0
  161.8760  207.6390  150.8140 N   0  0  0  0  0  0  0  0  0  0  0  0
  160.9850  202.8580  147.6590 N   0  0  0  0  0  0  0  0  0  0  0  0
  159.6900  208.8970  156.1140 O   0  0  0  0  0  0  0  0  0  0  0  0
  160.0870  209.1200  154.9390 C   0  0  0  0  0  0  0  0  0  0  0  0
  159.7610  210.4150  154.2870 C   0  0  0  0  0  1  0  0  0  0  0  0
  163.0340  212.0960  147.8440 O   0  0  0  0  0  1  0  0  0  0  0  0
  161.9420  211.2510  148.0650 C   0  0  2  0  0  3  0  0  0  0  0  0
  159.8890  212.6460  147.5460 C   0  0  0  0  0  0  0  0  0  0  0  0
  160.7870  212.0370  148.4780 N   0  0  0  0  0  2  0  0  0  0  0  0
  160.0300  212.4640  146.3070 O   0  0  0  0  0  0  0  0  0  0  0  0
  157.6280  213.9690  150.0440 C   0  0  0  0  0  2  0  0  0  0  0  0
  156.7450  213.4280  148.9360 C   0  0  0  0  0  2  0  0  0  0  0  0
  159.0150  213.8820  149.4850 C   0  0  0  0  0  2  0  0  0  0  0  0
  158.7890  213.5240  148.0370 C   0  0  2  0  0  3  0  0  0  0  0  0
  157.5560  212.8650  147.9350 O   0  0  0  0  0  0  0  0  0  0  0  0
  1 17  1  0  0  0  0
  3  5  1  0  0  0  0
  4  7  2  0  0  0  0
  5 16  1  0  0  0  0
  6 11  1  0  0  0  0
  7 21  1  0  0  0  0
  8  3  1  6  0  0  0
  8 18  1  0  0  0  0
  9  3  2  0  0  0  0
 10  4  2  0  0  0  0
 11  5  2  0  0  0  0
 11  2  1  0  0  0  0
 12  2  2  0  0  0  0
 13 15  1  0  0  0  0
 13  8  1  0  0  0  0
 14  9  1  0  0  0  0
 14  6  1  0  0  0  0
 15 24  1  6  0  0  0
 15  1  1  0  0  0  0
 17 10  1  0  0  0  0
 18 16  1  0  0  0  0
 18 10  1  0  0  0  0
 19  6  2  0  0  0  0
 19 12  1  0  0  0  0
 21 20  2  0  0  0  0
 22 21  1  0  0  0  0
 24 23  1  1  0  0  0
 24 26  1  0  0  0  0
 25 26  1  0  0  0  0
 27 25  2  0  0  0  0
 29 28  1  0  0  0  0
 30 28  1  0  0  0  0
 31 25  1  1  0  0  0
 31 30  1  0  0  0  0
 32 31  1  0  0  0  0
 32 29  1  0  0  0  0
M  END
>  <MODEL>
1

>  <REMARK>
 VINA RESULT:      -8.3      0.000      0.000
  Name = 
  4 active torsions:
  status: ('A' for Active; 'I' for Inactive)
    1  A    between atoms: C_3  and  C_13
    2  A    between atoms: N_7  and  C_23
    3  A    between atoms: C_15  and  C_22
    4  A    between atoms: C_23  and  C_27
                            x       y       z     vdW  Elec       q    Type
                         _______ _______ _______ _____ _____    ______ ____

>  <TORSDO>
F 4

$$$$
=
 OpenBabel11052411543D

 32 36  0  0  1  0  0  0  0  0999 V2000
  161.8020  210.3270  150.6820 C   0  0  0  0  0  2  0  0  0  0  0  0
  160.7810  203.1590  148.9000 N   0  0  0  0  0  0  0  0  0  0  0  0
  162.1660  206.5140  148.3340 C   0  0  0  0  0  0  0  0  0  0  0  0
  161.5570  207.6060  152.8370 C   0  0  0  0  0  0  0  0  0  0  0  0
  161.6260  205.4770  149.0720 C   0  0  0  0  0  0  0  0  0  0  0  0
  161.5390  204.1470  147.0900 C   0  0  0  0  0  0  0  0  0  0  0  0
  161.1060  207.1580  153.9780 C   0  0  0  0  0  3  0  0  0  0  0  0
  162.4150  207.6910  149.1990 C   0  0  1  0  0  3  0  0  0  0  0  0
  162.4110  206.3860  146.9470 C   0  0  0  0  0  3  0  0  0  0  0  0
  162.0050  208.0530  151.6950 C   0  0  0  0  0  0  0  0  0  0  0  0
  161.3160  204.2910  148.4230 C   0  0  0  0  0  0  0  0  0  0  0  0
  160.6890  202.3490  147.8450 N   0  0  0  0  0  0  0  0  0  0  0  0
  161.5710  208.7990  148.7710 N   0  0  0  0  0  2  0  0  0  0  0  0
  162.0880  205.1680  146.3020 C   0  0  0  0  0  2  0  0  0  0  0  0
  162.1870  210.0400  149.2330 C   0  0  1  0  0  3  0  0  0  0  0  0
  161.4690  205.8490  150.4940 C   0  0  0  0  0  2  0  0  0  0  0  0
  162.5790  209.4360  151.6430 C   0  0  0  0  0  2  0  0  0  0  0  0
  161.9770  207.2260  150.5200 N   0  0  0  0  0  0  0  0  0  0  0  0
  161.1410  202.9200  146.7280 N   0  0  0  0  0  0  0  0  0  0  0  0
  160.1690  209.2320  154.6630 O   0  0  0  0  0  0  0  0  0  0  0  0
  160.3180  208.0010  154.8840 C   0  0  0  0  0  0  0  0  0  0  0  0
  159.6850  207.3900  156.0820 C   0  0  0  0  0  1  0  0  0  0  0  0
  162.8930  211.8350  147.7990 O   0  0  0  0  0  1  0  0  0  0  0  0
  161.7690  211.1990  148.3350 C   0  0  2  0  0  3  0  0  0  0  0  0
  160.0670  213.0710  148.5030 C   0  0  0  0  0  0  0  0  0  0  0  0
  160.9850  212.1540  149.1060 N   0  0  0  0  0  2  0  0  0  0  0  0
  159.8510  213.0380  147.2620 O   0  0  0  0  0  0  0  0  0  0  0  0
  158.4950  214.3040  151.5210 C   0  0  0  0  0  2  0  0  0  0  0  0
  157.4560  214.4530  150.4250 C   0  0  0  0  0  2  0  0  0  0  0  0
  159.7430  213.9090  150.7930 C   0  0  0  0  0  2  0  0  0  0  0  0
  159.3760  214.0920  149.3410 C   0  0  2  0  0  3  0  0  0  0  0  0
  157.9850  213.9630  149.2200 O   0  0  0  0  0  0  0  0  0  0  0  0
  1 17  1  0  0  0  0
  3  5  1  0  0  0  0
  4  7  2  0  0  0  0
  5 16  1  0  0  0  0
  6 11  1  0  0  0  0
  7 21  1  0  0  0  0
  8  3  1  6  0  0  0
  8 18  1  0  0  0  0
  9  3  2  0  0  0  0
 10  4  2  0  0  0  0
 11  2  1  0  0  0  0
 11  5  2  0  0  0  0
 12  2  2  0  0  0  0
 13  8  1  0  0  0  0
 13 15  1  0  0  0  0
 14  9  1  0  0  0  0
 14  6  1  0  0  0  0
 15 24  1  6  0  0  0
 15  1  1  0  0  0  0
 16 18  1  0  0  0  0
 17 10  1  0  0  0  0
 18 10  1  0  0  0  0
 19  6  2  0  0  0  0
 19 12  1  0  0  0  0
 20 21  2  0  0  0  0
 21 22  1  0  0  0  0
 24 23  1  1  0  0  0
 24 26  1  0  0  0  0
 25 26  1  0  0  0  0
 27 25  2  0  0  0  0
 29 28  1  0  0  0  0
 30 28  1  0  0  0  0
 31 25  1  6  0  0  0
 31 30  1  0  0  0  0
 32 31  1  0  0  0  0
 32 29  1  0  0  0  0
M  END
>  <MODEL>
2

>  <REMARK>
 VINA RESULT:      -8.2      0.968      1.150
  Name = 
  4 active torsions:
  status: ('A' for Active; 'I' for Inactive)
    1  A    between atoms: C_3  and  C_13
    2  A    between atoms: N_7  and  C_23
    3  A    between atoms: C_15  and  C_22
    4  A    between atoms: C_23  and  C_27
                            x       y       z     vdW  Elec       q    Type
                         _______ _______ _______ _____ _____    ______ ____

>  <TORSDO>
F 4

$$$$
=
 OpenBabel11052411543D

 32 36  0  0  1  0  0  0  0  0999 V2000
  161.5640  207.5220  149.4980 C   0  0  0  0  0  2  0  0  0  0  0  0
  159.6260  212.0770  155.0750 N   0  0  0  0  0  0  0  0  0  0  0  0
  160.9060  208.9110  153.7200 C   0  0  0  0  0  0  0  0  0  0  0  0
  161.9300  210.9790  149.6550 C   0  0  0  0  0  0  0  0  0  0  0  0
  160.5980  210.2590  153.7080 C   0  0  0  0  0  0  0  0  0  0  0  0
  159.7700  210.0620  155.9400 C   0  0  0  0  0  0  0  0  0  0  0  0
  161.8730  212.1100  149.0060 C   0  0  0  0  0  3  0  0  0  0  0  0
  161.4960  208.5030  152.4230 C   0  0  1  0  0  3  0  0  0  0  0  0
  160.6550  208.1050  154.8540 C   0  0  0  0  0  3  0  0  0  0  0  0
  161.9830  209.8480  150.3060 C   0  0  0  0  0  0  0  0  0  0  0  0
  160.0240  210.8190  154.8400 C   0  0  0  0  0  0  0  0  0  0  0  0
  159.1380  212.0580  156.3150 N   0  0  0  0  0  2  0  0  0  0  0  0
  160.6150  207.5480  151.7650 N   0  0  0  0  0  2  0  0  0  0  0  0
  160.0690  208.6940  156.0000 C   0  0  0  0  0  3  0  0  0  0  0  0
  161.4150  206.7740  150.8190 C   0  0  1  0  0  3  0  0  0  0  0  0
  160.9560  210.8850  152.4170 C   0  0  0  0  0  2  0  0  0  0  0  0
  162.5760  208.6550  149.6200 C   0  0  0  0  0  2  0  0  0  0  0  0
  161.5130  209.7570  151.6620 N   0  0  0  0  0  0  0  0  0  0  0  0
  159.2100  210.8480  156.8690 N   0  0  0  0  0  0  0  0  0  0  0  0
  160.4530  211.5870  147.1730 O   0  0  0  0  0  0  0  0  0  0  0  0
  161.4870  212.1730  147.5920 C   0  0  0  0  0  0  0  0  0  0  0  0
  162.3300  212.9430  146.6400 C   0  0  0  0  0  1  0  0  0  0  0  0
  161.1640  204.5060  151.5810 O   0  0  0  0  0  1  0  0  0  0  0  0
  160.7760  205.4090  150.5850 C   0  0  2  0  0  3  0  0  0  0  0  0
  160.9870  203.5400  148.8840 C   0  0  0  0  0  0  0  0  0  0  0  0
  161.1760  204.9020  149.2800 N   0  0  0  0  0  2  0  0  0  0  0  0
  160.3940  202.7290  149.6440 O   0  0  0  0  0  0  0  0  0  0  0  0
  161.2820  203.5590  145.2770 C   0  0  0  0  0  2  0  0  0  0  0  0
  160.8440  202.1540  145.6460 C   0  0  0  0  0  2  0  0  0  0  0  0
  161.5810  204.2100  146.5930 C   0  0  0  0  0  2  0  0  0  0  0  0
  161.5150  203.0650  147.5740 C   0  0  2  0  0  3  0  0  0  0  0  0
  160.6770  202.0760  147.0390 O   0  0  0  0  0  0  0  0  0  0  0  0
  1 17  1  0  0  0  0
  1 15  1  0  0  0  0
  2 12  1  0  0  0  0
  3  9  1  0  0  0  0
  4 10  2  0  0  0  0
  5  3  2  0  0  0  0
  5 11  1  0  0  0  0
  6 14  1  0  0  0  0
  6 19  2  0  0  0  0
  7  4  2  0  0  0  0
  8 13  1  6  0  0  0
  8  3  1  0  0  0  0
  9 14  2  0  0  0  0
 10 18  1  0  0  0  0
 11  2  2  0  0  0  0
 11  6  1  0  0  0  0
 12 19  1  0  0  0  0
 15 24  1  6  0  0  0
 15 13  1  0  0  0  0
 16  5  1  0  0  0  0
 17 10  1  0  0  0  0
 18 16  1  0  0  0  0
 18  8  1  0  0  0  0
 20 21  2  0  0  0  0
 21  7  1  0  0  0  0
 22 21  1  0  0  0  0
 24 23  1  1  0  0  0
 25 26  1  0  0  0  0
 25 27  2  0  0  0  0
 26 24  1  0  0  0  0
 28 29  1  0  0  0  0
 28 30  1  0  0  0  0
 29 32  1  0  0  0  0
 30 31  1  0  0  0  0
 31 25  1  1  0  0  0
 32 31  1  0  0  0  0
M  END
>  <MODEL>
3

>  <REMARK>
 VINA RESULT:      -8.2      3.692      8.291
  Name = 
  4 active torsions:
  status: ('A' for Active; 'I' for Inactive)
    1  A    between atoms: C_3  and  C_13
    2  A    between atoms: N_7  and  C_23
    3  A    between atoms: C_15  and  C_22
    4  A    between atoms: C_23  and  C_27
                            x       y       z     vdW  Elec       q    Type
                         _______ _______ _______ _____ _____    ______ ____

>  <TORSDO>
F 4

$$$$
=
 OpenBabel11052411543D

 32 36  0  0  1  0  0  0  0  0999 V2000
  161.6980  209.0620  147.9620 C   0  0  0  0  0  2  0  0  0  0  0  0
  159.9940  209.2150  155.2200 N   0  0  0  0  0  0  0  0  0  0  0  0
  161.6840  207.8080  152.2770 C   0  0  0  0  0  0  0  0  0  0  0  0
  161.2160  211.8530  149.9820 C   0  0  0  0  0  0  0  0  0  0  0  0
  161.0550  208.7850  153.0280 C   0  0  0  0  0  0  0  0  0  0  0  0
  160.8270  207.2220  154.8200 C   0  0  0  0  0  0  0  0  0  0  0  0
  160.7330  213.0630  150.0690 C   0  0  0  0  0  3  0  0  0  0  0  0
  162.0490  208.3370  150.9410 C   0  0  1  0  0  3  0  0  0  0  0  0
  161.9040  206.5090  152.7890 C   0  0  0  0  0  3  0  0  0  0  0  0
  161.6950  210.6410  149.8970 C   0  0  0  0  0  0  0  0  0  0  0  0
  160.6290  208.4660  154.3090 C   0  0  0  0  0  0  0  0  0  0  0  0
  159.8180  208.4100  156.2680 N   0  0  0  0  0  2  0  0  0  0  0  0
  161.3090  207.6180  149.9130 N   0  0  0  0  0  2  0  0  0  0  0  0
  161.4630  206.2030  154.0990 C   0  0  0  0  0  3  0  0  0  0  0  0
  162.0430  207.7470  148.6570 C   0  0  1  0  0  3  0  0  0  0  0  0
  160.9440  210.0550  152.2800 C   0  0  0  0  0  2  0  0  0  0  0  0
  162.3950  210.2370  148.6360 C   0  0  0  0  0  2  0  0  0  0  0  0
  161.5800  209.7260  150.9990 N   0  0  0  0  0  0  0  0  0  0  0  0
  160.3130  207.1900  156.0570 N   0  0  0  0  0  0  0  0  0  0  0  0
  158.9080  214.2440  149.1080 O   0  0  0  0  0  0  0  0  0  0  0  0
  160.0350  213.7020  148.9480 C   0  0  0  0  0  0  0  0  0  0  0  0
  160.6680  213.7090  147.6040 C   0  0  0  0  0  1  0  0  0  0  0  0
  160.7940  206.9350  146.7680 O   0  0  0  0  0  1  0  0  0  0  0  0
  161.7290  206.5680  147.7420 C   0  0  2  0  0  3  0  0  0  0  0  0
  161.3230  204.0950  148.1330 C   0  0  0  0  0  0  0  0  0  0  0  0
  161.2050  205.4630  148.5340 N   0  0  0  0  0  2  0  0  0  0  0  0
  161.9580  203.7860  147.0890 O   0  0  0  0  0  0  0  0  0  0  0  0
  161.0060  201.8790  150.9760 C   0  0  0  0  0  2  0  0  0  0  0  0
  161.0500  200.9780  149.7560 C   0  0  0  0  0  2  0  0  0  0  0  0
  160.9090  203.2620  150.4090 C   0  0  0  0  0  2  0  0  0  0  0  0
  160.6720  203.0230  148.9390 C   0  0  2  0  0  3  0  0  0  0  0  0
  161.2050  201.7700  148.6060 O   0  0  0  0  0  0  0  0  0  0  0  0
  1 17  1  0  0  0  0
  1 15  1  0  0  0  0
  2 12  1  0  0  0  0
  3  9  1  0  0  0  0
  3  5  2  0  0  0  0
  4  7  2  0  0  0  0
  5 11  1  0  0  0  0
  6 19  2  0  0  0  0
  8 13  1  6  0  0  0
  8 18  1  0  0  0  0
  8  3  1  0  0  0  0
  9 14  2  0  0  0  0
 10  4  2  0  0  0  0
 10 18  1  0  0  0  0
 11  6  1  0  0  0  0
 11  2  2  0  0  0  0
 14  6  1  0  0  0  0
 15 24  1  6  0  0  0
 15 13  1  0  0  0  0
 16  5  1  0  0  0  0
 17 10  1  0  0  0  0
 18 16  1  0  0  0  0
 19 12  1  0  0  0  0
 21 20  2  0  0  0  0
 21  7  1  0  0  0  0
 22 21  1  0  0  0  0
 24 23  1  6  0  0  0
 24 26  1  0  0  0  0
 25 26  1  0  0  0  0
 27 25  2  0  0  0  0
 29 28  1  0  0  0  0
 30 28  1  0  0  0  0
 31 25  1  6  0  0  0
 31 30  1  0  0  0  0
 32 31  1  0  0  0  0
 32 29  1  0  0  0  0
M  END
>  <MODEL>
4

>  <REMARK>
 VINA RESULT:      -8.0      3.423      7.355
  Name = 
  4 active torsions:
  status: ('A' for Active; 'I' for Inactive)
    1  A    between atoms: C_3  and  C_13
    2  A    between atoms: N_7  and  C_23
    3  A    between atoms: C_15  and  C_22
    4  A    between atoms: C_23  and  C_27
                            x       y       z     vdW  Elec       q    Type
                         _______ _______ _______ _____ _____    ______ ____

>  <TORSDO>
F 4

$$$$
=
 OpenBabel11052411543D

 32 36  0  0  1  0  0  0  0  0999 V2000
  161.8260  209.1790  149.9500 C   0  0  0  0  0  2  0  0  0  0  0  0
  157.7720  212.9390  154.9530 N   0  0  0  0  0  0  0  0  0  0  0  0
  160.2640  210.4230  153.9750 C   0  0  0  0  0  0  0  0  0  0  0  0
  160.8730  212.5230  149.8440 C   0  0  0  0  0  0  0  0  0  0  0  0
  159.4840  211.5550  153.8250 C   0  0  0  0  0  0  0  0  0  0  0  0
  158.5580  211.1710  155.9930 C   0  0  0  0  0  0  0  0  0  0  0  0
  160.4710  213.5170  149.0990 C   0  0  0  0  0  3  0  0  0  0  0  0
  161.0960  210.2040  152.7680 C   0  0  1  0  0  3  0  0  0  0  0  0
  160.2110  209.6380  155.1490 C   0  0  0  0  0  3  0  0  0  0  0  0
  161.2710  211.5280  150.5900 C   0  0  0  0  0  0  0  0  0  0  0  0
  158.6280  211.9120  154.8570 C   0  0  0  0  0  0  0  0  0  0  0  0
  157.1990  212.7990  156.1480 N   0  0  0  0  0  2  0  0  0  0  0  0
  160.7030  208.9570  152.1250 N   0  0  0  0  0  2  0  0  0  0  0  0
  159.3320  210.0200  156.1910 C   0  0  0  0  0  3  0  0  0  0  0  0
  161.8270  208.4940  151.3140 C   0  0  1  0  0  3  0  0  0  0  0  0
  159.7180  212.2050  152.5180 C   0  0  0  0  0  2  0  0  0  0  0  0
  162.3300  210.6130  150.0560 C   0  0  0  0  0  2  0  0  0  0  0  0
  160.7280  211.3330  151.9070 N   0  0  0  0  0  0  0  0  0  0  0  0
  157.6540  211.7330  156.8060 N   0  0  0  0  0  0  0  0  0  0  0  0
  159.5470  214.1980  147.0170 O   0  0  0  0  0  0  0  0  0  0  0  0
  160.2390  213.3620  147.6580 C   0  0  0  0  0  0  0  0  0  0  0  0
  160.8320  212.2010  146.9460 C   0  0  0  0  0  1  0  0  0  0  0  0
  162.9280  206.3820  151.6410 O   0  0  0  0  0  1  0  0  0  0  0  0
  161.7650  206.9800  151.1460 C   0  0  2  0  0  3  0  0  0  0  0  0
  160.9710  205.4530  149.2840 C   0  0  0  0  0  0  0  0  0  0  0  0
  161.6060  206.6520  149.7360 N   0  0  0  0  0  2  0  0  0  0  0  0
  160.4550  204.6520  150.1080 O   0  0  0  0  0  0  0  0  0  0  0  0
  162.4130  204.4300  146.1260 C   0  0  0  0  0  2  0  0  0  0  0  0
  161.7930  205.7910  145.8730 C   0  0  0  0  0  2  0  0  0  0  0  0
  161.9560  204.0680  147.5060 C   0  0  0  0  0  2  0  0  0  0  0  0
  160.9360  205.1320  147.8280 C   0  0  2  0  0  3  0  0  0  0  0  0
  161.2350  206.2720  147.0690 O   0  0  0  0  0  0  0  0  0  0  0  0
  1 17  1  0  0  0  0
  1 15  1  0  0  0  0
  2 12  1  0  0  0  0
  3  9  1  0  0  0  0
  4 10  2  0  0  0  0
  5  3  2  0  0  0  0
  5 11  1  0  0  0  0
  6 14  1  0  0  0  0
  6 19  2  0  0  0  0
  7  4  2  0  0  0  0
  8 13  1  6  0  0  0
  8  3  1  0  0  0  0
  9 14  2  0  0  0  0
 10 18  1  0  0  0  0
 11  2  2  0  0  0  0
 11  6  1  0  0  0  0
 12 19  1  0  0  0  0
 15 24  1  6  0  0  0
 15 13  1  0  0  0  0
 16  5  1  0  0  0  0
 17 10  1  0  0  0  0
 18 16  1  0  0  0  0
 18  8  1  0  0  0  0
 20 21  2  0  0  0  0
 21  7  1  0  0  0  0
 22 21  1  0  0  0  0
 24 23  1  6  0  0  0
 25 26  1  0  0  0  0
 25 27  2  0  0  0  0
 26 24  1  0  0  0  0
 28 30  1  0  0  0  0
 29 28  1  0  0  0  0
 29 32  1  0  0  0  0
 30 31  1  0  0  0  0
 31 25  1  1  0  0  0
 32 31  1  0  0  0  0
M  END
>  <MODEL>
5

>  <REMARK>
 VINA RESULT:      -7.0      3.488      8.136
  Name = 
  4 active torsions:
  status: ('A' for Active; 'I' for Inactive)
    1  A    between atoms: C_3  and  C_13
    2  A    between atoms: N_7  and  C_23
    3  A    between atoms: C_15  and  C_22
    4  A    between atoms: C_23  and  C_27
                            x       y       z     vdW  Elec       q    Type
                         _______ _______ _______ _____ _____    ______ ____

>  <TORSDO>
F 4

$$$$
=
 OpenBabel11052411543D

 32 36  0  0  1  0  0  0  0  0999 V2000
  161.5030  210.6050  152.0410 C   0  0  0  0  0  2  0  0  0  0  0  0
  160.8310  203.7770  149.1180 N   0  0  0  0  0  0  0  0  0  0  0  0
  162.1180  207.2180  149.1520 C   0  0  0  0  0  0  0  0  0  0  0  0
  161.2560  207.5740  153.7320 C   0  0  0  0  0  0  0  0  0  0  0  0
  161.5820  206.0630  149.6920 C   0  0  0  0  0  0  0  0  0  0  0  0
  161.6380  205.0580  147.5260 C   0  0  0  0  0  0  0  0  0  0  0  0
  160.7670  206.9400  154.7640 C   0  0  0  0  0  3  0  0  0  0  0  0
  162.2830  208.2520  150.2020 C   0  0  1  0  0  3  0  0  0  0  0  0
  162.4330  207.3150  147.7780 C   0  0  0  0  0  3  0  0  0  0  0  0
  161.7410  208.2070  152.6980 C   0  0  0  0  0  0  0  0  0  0  0  0
  161.3460  204.9850  148.8510 C   0  0  0  0  0  0  0  0  0  0  0  0
  160.8200  203.1400  147.9470 N   0  0  0  0  0  0  0  0  0  0  0  0
  161.4200  209.3880  149.9070 N   0  0  0  0  0  2  0  0  0  0  0  0
  162.1860  206.2050  146.9360 C   0  0  0  0  0  2  0  0  0  0  0  0
  161.9670  210.5590  150.5870 C   0  0  1  0  0  3  0  0  0  0  0  0
  161.3440  206.2030  151.1440 C   0  0  0  0  0  2  0  0  0  0  0  0
  162.2660  209.5970  152.8920 C   0  0  0  0  0  2  0  0  0  0  0  0
  161.8000  207.5730  151.4090 N   0  0  0  0  0  0  0  0  0  0  0  0
  161.3030  203.8920  146.9580 N   0  0  0  0  0  0  0  0  0  0  0  0
  159.3310  206.9530  156.6580 O   0  0  0  0  0  0  0  0  0  0  0  0
  159.9070  207.6080  155.7470 C   0  0  0  0  0  0  0  0  0  0  0  0
  159.7130  209.0780  155.6670 C   0  0  0  0  0  1  0  0  0  0  0  0
  160.4560  212.4270  150.4930 O   0  0  0  0  0  1  0  0  0  0  0  0
  161.5510  211.8320  149.8590 C   0  0  2  0  0  3  0  0  0  0  0  0
  161.1020  212.5070  147.4560 C   0  0  0  0  0  0  0  0  0  0  0  0
  161.2060  211.5140  148.4790 N   0  0  0  0  0  2  0  0  0  0  0  0
  161.3770  213.7120  147.7020 O   0  0  0  0  0  0  0  0  0  0  0  0
  160.3240  213.1220  143.9750 C   0  0  0  0  0  2  0  0  0  0  0  0
  159.0490  212.5780  144.5920 C   0  0  0  0  0  2  0  0  0  0  0  0
  161.3530  212.9530  145.0500 C   0  0  0  0  0  2  0  0  0  0  0  0
  160.6430  212.1240  146.0900 C   0  0  2  0  0  3  0  0  0  0  0  0
  159.2640  212.3420  145.9600 O   0  0  0  0  0  0  0  0  0  0  0  0
  1 17  1  0  0  0  0
  3  5  1  0  0  0  0
  4  7  2  0  0  0  0
  5 16  1  0  0  0  0
  6 11  1  0  0  0  0
  7 21  1  0  0  0  0
  8  3  1  6  0  0  0
  8 18  1  0  0  0  0
  9  3  2  0  0  0  0
 10 17  1  0  0  0  0
 10  4  2  0  0  0  0
 11  2  1  0  0  0  0
 11  5  2  0  0  0  0
 12  2  2  0  0  0  0
 13  8  1  0  0  0  0
 13 15  1  0  0  0  0
 14  6  1  0  0  0  0
 14  9  1  0  0  0  0
 15 24  1  6  0  0  0
 15  1  1  0  0  0  0
 16 18  1  0  0  0  0
 18 10  1  0  0  0  0
 19  6  2  0  0  0  0
 19 12  1  0  0  0  0
 21 20  2  0  0  0  0
 22 21  1  0  0  0  0
 24 23  1  1  0  0  0
 25 27  2  0  0  0  0
 25 26  1  0  0  0  0
 26 24  1  0  0  0  0
 28 29  1  0  0  0  0
 28 30  1  0  0  0  0
 29 32  1  0  0  0  0
 30 31  1  0  0  0  0
 31 25  1  1  0  0  0
 32 31  1  0  0  0  0
M  END
>  <MODEL>
6

>  <REMARK>
 VINA RESULT:      -6.9      1.757      2.297
  Name = 
  4 active torsions:
  status: ('A' for Active; 'I' for Inactive)
    1  A    between atoms: C_3  and  C_13
    2  A    between atoms: N_7  and  C_23
    3  A    between atoms: C_15  and  C_22
    4  A    between atoms: C_23  and  C_27
                            x       y       z     vdW  Elec       q    Type
                         _______ _______ _______ _____ _____    ______ ____

>  <TORSDO>
F 4

$$$$
=
 OpenBabel11052411543D

 32 36  0  0  1  0  0  0  0  0999 V2000
  161.6470  208.8690  151.4240 C   0  0  0  0  0  2  0  0  0  0  0  0
  156.6640  213.9760  153.5900 N   0  0  0  0  0  0  0  0  0  0  0  0
  159.0180  211.2240  154.2050 C   0  0  0  0  0  0  0  0  0  0  0  0
  161.1880  212.0760  150.1540 C   0  0  0  0  0  0  0  0  0  0  0  0
  158.4710  212.2890  153.5130 C   0  0  0  0  0  0  0  0  0  0  0  0
  156.8490  212.5470  155.2480 C   0  0  0  0  0  0  0  0  0  0  0  0
  161.1730  212.8330  149.0910 C   0  0  0  0  0  3  0  0  0  0  0  0
  160.1650  210.6560  153.4580 C   0  0  1  0  0  3  0  0  0  0  0  0
  158.4910  210.7980  155.4460 C   0  0  0  0  0  3  0  0  0  0  0  0
  161.1990  211.3170  151.2170 C   0  0  0  0  0  0  0  0  0  0  0  0
  157.3750  212.9410  154.0590 C   0  0  0  0  0  0  0  0  0  0  0  0
  155.7190  214.1890  154.5060 N   0  0  0  0  0  2  0  0  0  0  0  0
  159.8580  209.2900  153.0560 N   0  0  0  0  0  2  0  0  0  0  0  0
  157.3730  211.4770  155.9860 C   0  0  0  0  0  3  0  0  0  0  0  0
  161.1200  208.5910  152.8290 C   0  0  1  0  0  3  0  0  0  0  0  0
  159.1950  212.5440  152.2500 C   0  0  0  0  0  2  0  0  0  0  0  0
  162.2570  210.2630  151.3320 C   0  0  0  0  0  2  0  0  0  0  0  0
  160.2370  211.5100  152.2680 N   0  0  0  0  0  0  0  0  0  0  0  0
  155.8030  213.3360  155.5270 N   0  0  0  0  0  0  0  0  0  0  0  0
  161.1880  211.0760  147.4910 O   0  0  0  0  0  0  0  0  0  0  0  0
  161.4070  212.2900  147.7480 C   0  0  0  0  0  0  0  0  0  0  0  0
  161.9100  213.1870  146.6760 C   0  0  0  0  0  1  0  0  0  0  0  0
  161.7640  206.6320  154.0670 O   0  0  0  0  0  1  0  0  0  0  0  0
  160.9360  207.0920  153.0380 C   0  0  2  0  0  3  0  0  0  0  0  0
  161.1680  204.9630  151.6800 C   0  0  0  0  0  0  0  0  0  0  0  0
  161.2480  206.3860  151.8030 N   0  0  0  0  0  2  0  0  0  0  0  0
  160.7490  204.2600  152.6380 O   0  0  0  0  0  0  0  0  0  0  0  0
  161.0010  204.2450  148.1370 C   0  0  0  0  0  2  0  0  0  0  0  0
  160.8680  202.9040  148.8350 C   0  0  0  0  0  2  0  0  0  0  0  0
  161.3420  205.2010  149.2380 C   0  0  0  0  0  2  0  0  0  0  0  0
  161.6030  204.2990  150.4180 C   0  0  2  0  0  3  0  0  0  0  0  0
  160.8930  203.1060  150.2250 O   0  0  0  0  0  0  0  0  0  0  0  0
  1 15  1  0  0  0  0
  2 11  2  0  0  0  0
  2 12  1  0  0  0  0
  3  9  1  0  0  0  0
  4 10  2  0  0  0  0
  5 11  1  0  0  0  0
  5  3  2  0  0  0  0
  6 19  2  0  0  0  0
  6 14  1  0  0  0  0
  7  4  2  0  0  0  0
  8 13  1  6  0  0  0
  8  3  1  0  0  0  0
  9 14  2  0  0  0  0
 10 17  1  0  0  0  0
 10 18  1  0  0  0  0
 11  6  1  0  0  0  0
 12 19  1  0  0  0  0
 15 24  1  6  0  0  0
 15 13  1  0  0  0  0
 16 18  1  0  0  0  0
 16  5  1  0  0  0  0
 17  1  1  0  0  0  0
 18  8  1  0  0  0  0
 20 21  2  0  0  0  0
 21  7  1  0  0  0  0
 22 21  1  0  0  0  0
 24 23  1  1  0  0  0
 25 26  1  0  0  0  0
 25 27  2  0  0  0  0
 26 24  1  0  0  0  0
 28 29  1  0  0  0  0
 28 30  1  0  0  0  0
 29 32  1  0  0  0  0
 30 31  1  0  0  0  0
 31 25  1  1  0  0  0
 32 31  1  0  0  0  0
M  END
>  <MODEL>
7

>  <REMARK>
 VINA RESULT:      -6.4      3.632      8.774
  Name = 
  4 active torsions:
  status: ('A' for Active; 'I' for Inactive)
    1  A    between atoms: C_3  and  C_13
    2  A    between atoms: N_7  and  C_23
    3  A    between atoms: C_15  and  C_22
    4  A    between atoms: C_23  and  C_27
                            x       y       z     vdW  Elec       q    Type
                         _______ _______ _______ _____ _____    ______ ____

>  <TORSDO>
F 4

$$$$
=
 OpenBabel11052411543D

 32 36  0  0  1  0  0  0  0  0999 V2000
  161.5020  206.1820  149.0730 C   0  0  0  0  0  2  0  0  0  0  0  0
  161.6370  207.8430  156.3420 N   0  0  0  0  0  0  0  0  0  0  0  0
  160.9870  208.6220  152.8110 C   0  0  0  0  0  0  0  0  0  0  0  0
  160.8340  204.0710  151.7580 C   0  0  0  0  0  0  0  0  0  0  0  0
  161.1800  207.8070  153.9110 C   0  0  0  0  0  0  0  0  0  0  0  0
  161.4460  209.7520  155.2720 C   0  0  0  0  0  0  0  0  0  0  0  0
  160.9590  202.8700  152.2550 C   0  0  0  0  0  3  0  0  0  0  0  0
  160.7680  207.8060  151.5930 C   0  0  1  0  0  3  0  0  0  0  0  0
  161.0140  210.0310  152.9200 C   0  0  0  0  0  3  0  0  0  0  0  0
  160.7130  205.2730  151.2620 C   0  0  0  0  0  0  0  0  0  0  0  0
  161.4120  208.4000  155.1440 C   0  0  0  0  0  0  0  0  0  0  0  0
  161.8050  208.8710  157.1740 N   0  0  0  0  0  2  0  0  0  0  0  0
  161.8580  208.0310  150.6530 N   0  0  0  0  0  2  0  0  0  0  0  0
  161.2510  210.6180  154.1870 C   0  0  0  0  0  3  0  0  0  0  0  0
  161.3800  207.6840  149.3170 C   0  0  1  0  0  3  0  0  0  0  0  0
  161.1030  206.3770  153.5460 C   0  0  0  0  0  2  0  0  0  0  0  0
  160.4040  205.4170  149.8030 C   0  0  0  0  0  2  0  0  0  0  0  0
  160.8410  206.4320  152.1030 N   0  0  0  0  0  0  0  0  0  0  0  0
  161.6950  210.0470  156.5540 N   0  0  0  0  0  0  0  0  0  0  0  0
  162.7350  201.3090  152.0110 O   0  0  0  0  0  0  0  0  0  0  0  0
  161.6750  201.8070  151.5430 C   0  0  0  0  0  0  0  0  0  0  0  0
  161.1410  201.3090  150.2490 C   0  0  0  0  0  1  0  0  0  0  0  0
  163.4160  207.8720  148.0520 O   0  0  0  0  0  1  0  0  0  0  0  0
  162.1630  208.4560  148.2610 C   0  0  2  0  0  3  0  0  0  0  0  0
  161.6580  210.9340  148.0670 C   0  0  0  0  0  0  0  0  0  0  0  0
  162.3300  209.8380  148.6930 N   0  0  0  0  0  2  0  0  0  0  0  0
  160.8270  210.7320  147.1410 O   0  0  0  0  0  0  0  0  0  0  0  0
  160.8220  214.2060  149.3670 C   0  0  0  0  0  2  0  0  0  0  0  0
  161.4460  214.4520  148.0070 C   0  0  0  0  0  2  0  0  0  0  0  0
  161.0350  212.7430  149.6110 C   0  0  0  0  0  2  0  0  0  0  0  0
  161.9570  212.3310  148.4910 C   0  0  2  0  0  3  0  0  0  0  0  0
  161.7720  213.2170  147.4210 O   0  0  0  0  0  0  0  0  0  0  0  0
  1 15  1  0  0  0  0
  1 17  1  0  0  0  0
  2 12  1  0  0  0  0
  3  9  1  0  0  0  0
  3  5  2  0  0  0  0
  4  7  2  0  0  0  0
  5 11  1  0  0  0  0
  6 19  2  0  0  0  0
  8 13  1  6  0  0  0
  8 18  1  0  0  0  0
  8  3  1  0  0  0  0
  9 14  2  0  0  0  0
 10  4  2  0  0  0  0
 10 18  1  0  0  0  0
 11  6  1  0  0  0  0
 11  2  2  0  0  0  0
 14  6  1  0  0  0  0
 15 24  1  6  0  0  0
 15 13  1  0  0  0  0
 16  5  1  0  0  0  0
 17 10  1  0  0  0  0
 18 16  1  0  0  0  0
 19 12  1  0  0  0  0
 21 20  2  0  0  0  0
 21  7  1  0  0  0  0
 22 21  1  0  0  0  0
 24 23  1  1  0  0  0
 24 26  1  0  0  0  0
 25 26  1  0  0  0  0
 27 25  2  0  0  0  0
 28 30  1  0  0  0  0
 29 28  1  0  0  0  0
 31 25  1  6  0  0  0
 31 30  1  0  0  0  0
 32 29  1  0  0  0  0
 32 31  1  0  0  0  0
M  END
>  <MODEL>
8

>  <REMARK>
 VINA RESULT:      -6.3      3.091      5.953
  Name = 
  4 active torsions:
  status: ('A' for Active; 'I' for Inactive)
    1  A    between atoms: C_3  and  C_13
    2  A    between atoms: N_7  and  C_23
    3  A    between atoms: C_15  and  C_22
    4  A    between atoms: C_23  and  C_27
                            x       y       z     vdW  Elec       q    Type
                         _______ _______ _______ _____ _____    ______ ____

>  <TORSDO>
F 4

$$$$
=
 OpenBabel11052411543D

 32 36  0  0  1  0  0  0  0  0999 V2000
  161.5520  207.9130  148.7270 C   0  0  0  0  0  2  0  0  0  0  0  0
  161.5080  207.4930  156.1720 N   0  0  0  0  0  0  0  0  0  0  0  0
  161.0750  209.2680  152.9850 C   0  0  0  0  0  0  0  0  0  0  0  0
  160.6010  205.2140  150.7060 C   0  0  0  0  0  0  0  0  0  0  0  0
  161.1540  208.1670  153.8190 C   0  0  0  0  0  0  0  0  0  0  0  0
  161.5170  209.6320  155.6710 C   0  0  0  0  0  0  0  0  0  0  0  0
  160.6080  203.9170  150.8540 C   0  0  0  0  0  3  0  0  0  0  0  0
  160.8440  208.8400  151.5850 C   0  0  1  0  0  3  0  0  0  0  0  0
  161.2110  210.5840  153.4820 C   0  0  0  0  0  3  0  0  0  0  0  0
  160.5990  206.5120  150.5620 C   0  0  0  0  0  0  0  0  0  0  0  0
  161.3800  208.3750  155.1720 C   0  0  0  0  0  0  0  0  0  0  0  0
  161.7220  208.2330  157.2600 N   0  0  0  0  0  2  0  0  0  0  0  0
  161.9880  209.2180  150.7650 N   0  0  0  0  0  2  0  0  0  0  0  0
  161.4400  210.7760  154.8660 C   0  0  0  0  0  3  0  0  0  0  0  0
  161.5410  209.2950  149.3760 C   0  0  1  0  0  3  0  0  0  0  0  0
  160.9770  206.9060  153.0700 C   0  0  0  0  0  2  0  0  0  0  0  0
  160.3660  207.0780  149.1940 C   0  0  0  0  0  2  0  0  0  0  0  0
  160.7830  207.3790  151.6940 N   0  0  0  0  0  0  0  0  0  0  0  0
  161.7340  209.5380  156.9900 N   0  0  0  0  0  0  0  0  0  0  0  0
  161.6160  201.8630  150.2090 O   0  0  0  0  0  0  0  0  0  0  0  0
  161.2660  203.0300  149.8870 C   0  0  0  0  0  0  0  0  0  0  0  0
  161.5210  203.5180  148.5070 C   0  0  0  0  0  1  0  0  0  0  0  0
  163.0780  211.1430  149.4560 O   0  0  0  0  0  1  0  0  0  0  0  0
  162.4290  210.2550  148.5920 C   0  0  2  0  0  3  0  0  0  0  0  0
  160.9410  212.2150  147.9780 C   0  0  0  0  0  0  0  0  0  0  0  0
  161.6170  211.0010  147.6390 N   0  0  0  0  0  2  0  0  0  0  0  0
  161.0820  212.7290  149.1200 O   0  0  0  0  0  0  0  0  0  0  0  0
  157.8000  212.7470  146.2610 C   0  0  0  0  0  2  0  0  0  0  0  0
  158.8090  212.4150  145.1790 C   0  0  0  0  0  2  0  0  0  0  0  0
  158.6270  212.8970  147.5020 C   0  0  0  0  0  2  0  0  0  0  0  0
  160.0440  212.8700  146.9850 C   0  0  2  0  0  3  0  0  0  0  0  0
  160.0570  212.1630  145.7740 O   0  0  0  0  0  0  0  0  0  0  0  0
  1 17  1  0  0  0  0
  1 15  1  0  0  0  0
  2 12  1  0  0  0  0
  3  9  1  0  0  0  0
  3  5  2  0  0  0  0
  4  7  2  0  0  0  0
  5 11  1  0  0  0  0
  6 19  2  0  0  0  0
  8 13  1  6  0  0  0
  8 18  1  0  0  0  0
  8  3  1  0  0  0  0
  9 14  2  0  0  0  0
 10  4  2  0  0  0  0
 10 18  1  0  0  0  0
 11  6  1  0  0  0  0
 11  2  2  0  0  0  0
 14  6  1  0  0  0  0
 15 24  1  6  0  0  0
 15 13  1  0  0  0  0
 16  5  1  0  0  0  0
 17 10  1  0  0  0  0
 18 16  1  0  0  0  0
 19 12  1  0  0  0  0
 21 20  2  0  0  0  0
 21  7  1  0  0  0  0
 22 21  1  0  0  0  0
 24 23  1  1  0  0  0
 25 27  2  0  0  0  0
 26 25  1  0  0  0  0
 26 24  1  0  0  0  0
 28 30  1  0  0  0  0
 29 32  1  0  0  0  0
 29 28  1  0  0  0  0
 31 30  1  0  0  0  0
 31 25  1  1  0  0  0
 32 31  1  0  0  0  0
M  END
>  <MODEL>
9

>  <REMARK>
 VINA RESULT:      -5.9      2.862      5.743
  Name = 
  4 active torsions:
  status: ('A' for Active; 'I' for Inactive)
    1  A    between atoms: C_3  and  C_13
    2  A    between atoms: N_7  and  C_23
    3  A    between atoms: C_15  and  C_22
    4  A    between atoms: C_23  and  C_27
                            x       y       z     vdW  Elec       q    Type
                         _______ _______ _______ _____ _____    ______ ____

>  <TORSDO>
F 4

$$$$
