=
 OpenBabel11042422093D

 34 36  0  0  1  0  0  0  0  0999 V2000
  162.8660  205.8650  151.9400 C   0  0  0  0  0  1  0  0  0  0  0  0
  161.0550  208.0180  150.0160 N   0  0  0  0  0  0  0  0  0  0  0  0
  161.2140  207.5490  151.3390 N   0  0  0  0  0  0  0  0  0  0  0  0
  161.2850  205.6640  150.0690 C   0  0  0  0  0  0  0  0  0  0  0  0
  161.4450  206.1200  151.4580 C   0  0  1  0  0  3  0  0  0  0  0  0
  161.3550  204.3830  149.6950 C   0  0  0  0  0  3  0  0  0  0  0  0
  161.0500  206.8230  149.1700 C   0  0  0  0  0  2  0  0  0  0  0  0
  160.8470  207.8220  153.7680 C   0  0  0  0  0  3  0  0  0  0  0  0
  160.1070  210.4820  153.3910 C   0  0  0  0  0  3  0  0  0  0  0  0
  160.4850  208.6010  154.8700 C   0  0  0  0  0  0  0  0  0  0  0  0
  160.1080  209.9510  154.6910 C   0  0  0  0  0  0  0  0  0  0  0  0
  160.5040  208.0170  156.1320 O   0  0  0  0  0  1  0  0  0  0  0  0
  160.8460  208.3600  152.4730 C   0  0  0  0  0  0  0  0  0  0  0  0
  160.4700  209.6970  152.2970 C   0  0  0  0  0  3  0  0  0  0  0  0
  160.7020  211.7390  156.4670 C   0  0  0  0  0  1  0  0  0  0  0  0
  159.7150  210.8220  155.8260 C   0  0  0  0  0  0  0  0  0  0  0  0
  158.5370  210.8080  156.2740 O   0  0  0  0  0  0  0  0  0  0  0  0
  161.1500  203.9010  148.3120 C   0  0  0  0  0  0  0  0  0  0  0  0
  160.5570  202.7300  148.0390 C   0  0  0  0  0  3  0  0  0  0  0  0
  161.7010  204.7030  147.2060 C   0  0  0  0  0  0  0  0  0  0  0  0
  162.9420  204.7260  146.9820 O   0  0  0  0  0  1  0  0  0  0  0  0
  160.8540  205.4450  146.3920 O   0  0  0  0  0  0  0  0  0  0  0  0
  161.1830  200.9000  149.5510 C   0  0  0  0  0  1  0  0  0  0  0  0
  160.0500  201.7830  149.0760 C   0  0  0  0  0  2  0  0  0  0  0  0
  162.2580  208.7640  149.6640 C   0  0  0  0  0  2  0  0  0  0  0  0
  161.9380  209.8320  148.6310 C   0  0  0  0  0  2  0  0  0  0  0  0
  161.9380  211.2070  149.2740 C   0  0  0  0  0  2  0  0  0  0  0  0
  161.2050  212.0510  146.9780 C   0  0  0  0  0  2  0  0  0  0  0  0
  162.0350  213.6220  148.6880 O   0  0  0  0  0  0  0  0  0  0  0  0
  160.8310  213.8070  149.3950 C   0  0  0  0  0  2  0  0  0  0  0  0
  159.6250  213.7720  147.1510 C   0  0  0  0  0  2  0  0  0  0  0  0
  159.8020  212.3300  147.2630 N   0  0  0  0  0  2  0  0  0  0  0  0
  159.7620  214.4520  148.5140 C   0  0  0  0  0  2  0  0  0  0  0  0
  162.0960  212.2890  148.2040 C   0  0  1  0  0  3  0  0  0  0  0  0
  2  3  1  0  0  0  0
  3  5  1  0  0  0  0
  3 13  1  0  0  0  0
  4  5  1  0  0  0  0
  5  1  1  6  0  0  0
  6  4  2  0  0  0  0
  7  2  1  0  0  0  0
  7  4  1  0  0  0  0
  8 10  1  0  0  0  0
  9 11  1  0  0  0  0
 10 12  1  0  0  0  0
 11 10  2  0  0  0  0
 11 16  1  0  0  0  0
 13  8  2  0  0  0  0
 14 13  1  0  0  0  0
 14  9  2  0  0  0  0
 16 17  2  0  0  0  0
 16 15  1  0  0  0  0
 18  6  1  0  0  0  0
 19 18  2  0  0  0  0
 19 24  1  0  0  0  0
 20 18  1  0  0  0  0
 21 20  1  0  0  0  0
 22 20  2  0  0  0  0
 24 23  1  0  0  0  0
 25  2  1  0  0  0  0
 26 27  1  0  0  0  0
 26 25  1  0  0  0  0
 28 32  1  0  0  0  0
 28 34  1  0  0  0  0
 29 30  1  0  0  0  0
 31 32  1  0  0  0  0
 31 33  1  0  0  0  0
 33 30  1  0  0  0  0
 34 29  1  0  0  0  0
 34 27  1  1  0  0  0
M  END
>  <MODEL>
1

>  <REMARK>
 VINA RESULT:      -7.8      0.000      0.000
  Name = 
  9 active torsions:
  status: ('A' for Active; 'I' for Inactive)
    1  A    between atoms: C_2  and  C_8
    2  A    between atoms: C_2  and  C_18
    3  A    between atoms: N_3  and  C_13
    4  A    between atoms: N_9  and  C_32
    5  A    between atoms: C_13  and  C_19
    6  A    between atoms: C_19  and  C_31
    7  A    between atoms: C_23  and  C_30
    8  A    between atoms: C_26  and  C_28
    9  A    between atoms: C_29  and  C_31
                            x       y       z     vdW  Elec       q    Type
                         _______ _______ _______ _____ _____    ______ ____

>  <TORSDO>
F 9

$$$$
=
 OpenBabel11042422093D

 34 36  0  0  1  0  0  0  0  0999 V2000
  163.0330  205.6710  151.9120 C   0  0  0  0  0  1  0  0  0  0  0  0
  160.9530  207.6010  150.0240 N   0  0  0  0  0  0  0  0  0  0  0  0
  161.2420  207.2220  151.3550 N   0  0  0  0  0  0  0  0  0  0  0  0
  161.3270  205.2710  150.1890 C   0  0  0  0  0  0  0  0  0  0  0  0
  161.5670  205.8180  151.5330 C   0  0  1  0  0  3  0  0  0  0  0  0
  161.4440  203.9760  149.8820 C   0  0  0  0  0  3  0  0  0  0  0  0
  160.9540  206.3600  149.2490 C   0  0  0  0  0  2  0  0  0  0  0  0
  161.0430  207.6170  153.7850 C   0  0  0  0  0  3  0  0  0  0  0  0
  160.1300  210.2090  153.3240 C   0  0  0  0  0  3  0  0  0  0  0  0
  160.7210  208.4390  154.8690 C   0  0  0  0  0  0  0  0  0  0  0  0
  160.2570  209.7560  154.6470 C   0  0  0  0  0  0  0  0  0  0  0  0
  160.8670  207.9320  156.1550 O   0  0  0  0  0  1  0  0  0  0  0  0
  160.9150  208.0770  152.4680 C   0  0  0  0  0  0  0  0  0  0  0  0
  160.4530  209.3810  152.2490 C   0  0  0  0  0  3  0  0  0  0  0  0
  160.9110  211.6070  156.3350 C   0  0  0  0  0  1  0  0  0  0  0  0
  159.9010  210.6700  155.7600 C   0  0  0  0  0  0  0  0  0  0  0  0
  158.7390  210.6770  156.2450 O   0  0  0  0  0  0  0  0  0  0  0  0
  161.1620  203.4010  148.5490 C   0  0  0  0  0  0  0  0  0  0  0  0
  161.5510  203.9960  147.4120 C   0  0  0  0  0  3  0  0  0  0  0  0
  160.3450  202.1760  148.4760 C   0  0  0  0  0  0  0  0  0  0  0  0
  159.6160  201.8300  149.4450 O   0  0  0  0  0  1  0  0  0  0  0  0
  160.3690  201.3890  147.3320 O   0  0  0  0  0  0  0  0  0  0  0  0
  162.3580  205.7710  145.9200 C   0  0  0  0  0  1  0  0  0  0  0  0
  162.2930  205.2900  147.3530 C   0  0  0  0  0  2  0  0  0  0  0  0
  162.0780  208.3910  149.5350 C   0  0  0  0  0  2  0  0  0  0  0  0
  161.8050  209.8740  149.7170 C   0  0  0  0  0  2  0  0  0  0  0  0
  162.0810  210.6250  148.4260 C   0  0  0  0  0  2  0  0  0  0  0  0
  163.1110  212.9000  147.8890 C   0  0  0  0  0  2  0  0  0  0  0  0
  160.7480  212.7190  148.5770 O   0  0  0  0  0  0  0  0  0  0  0  0
  160.1940  212.4160  147.3180 C   0  0  0  0  0  2  0  0  0  0  0  0
  161.8440  214.0700  146.3030 C   0  0  0  0  0  2  0  0  0  0  0  0
  162.7920  212.9760  146.4680 N   0  0  0  0  0  2  0  0  0  0  0  0
  160.4020  213.5600  146.3280 C   0  0  0  0  0  2  0  0  0  0  0  0
  162.0380  212.1340  148.6750 C   0  0  1  0  0  3  0  0  0  0  0  0
  2  3  1  0  0  0  0
  3  5  1  0  0  0  0
  3 13  1  0  0  0  0
  4  5  1  0  0  0  0
  5  1  1  6  0  0  0
  6  4  2  0  0  0  0
  7  2  1  0  0  0  0
  7  4  1  0  0  0  0
  8 10  1  0  0  0  0
  9 11  1  0  0  0  0
 10 12  1  0  0  0  0
 11 10  2  0  0  0  0
 11 16  1  0  0  0  0
 13  8  2  0  0  0  0
 14 13  1  0  0  0  0
 14  9  2  0  0  0  0
 16 17  2  0  0  0  0
 16 15  1  0  0  0  0
 18  6  1  0  0  0  0
 19 18  2  0  0  0  0
 20 18  1  0  0  0  0
 20 21  1  0  0  0  0
 22 20  2  0  0  0  0
 23 24  1  0  0  0  0
 24 19  1  0  0  0  0
 25 26  1  0  0  0  0
 25  2  1  0  0  0  0
 27 26  1  0  0  0  0
 28 34  1  0  0  0  0
 29 34  1  0  0  0  0
 30 29  1  0  0  0  0
 31 33  1  0  0  0  0
 31 32  1  0  0  0  0
 32 28  1  0  0  0  0
 33 30  1  0  0  0  0
 34 27  1  6  0  0  0
M  END
>  <MODEL>
2

>  <REMARK>
 VINA RESULT:      -6.5      1.461      2.138
  Name = 
  9 active torsions:
  status: ('A' for Active; 'I' for Inactive)
    1  A    between atoms: C_2  and  C_8
    2  A    between atoms: C_2  and  C_18
    3  A    between atoms: N_3  and  C_13
    4  A    between atoms: N_9  and  C_32
    5  A    between atoms: C_13  and  C_19
    6  A    between atoms: C_19  and  C_31
    7  A    between atoms: C_23  and  C_30
    8  A    between atoms: C_26  and  C_28
    9  A    between atoms: C_29  and  C_31
                            x       y       z     vdW  Elec       q    Type
                         _______ _______ _______ _____ _____    ______ ____

>  <TORSDO>
F 9

$$$$
=
 OpenBabel11042422093D

 34 36  0  0  1  0  0  0  0  0999 V2000
  163.1670  205.8620  151.9500 C   0  0  0  0  0  1  0  0  0  0  0  0
  161.1800  207.9550  150.1380 N   0  0  0  0  0  0  0  0  0  0  0  0
  161.4280  207.4900  151.4490 N   0  0  0  0  0  0  0  0  0  0  0  0
  161.4910  205.6100  150.1700 C   0  0  0  0  0  0  0  0  0  0  0  0
  161.7140  206.0690  151.5490 C   0  0  1  0  0  3  0  0  0  0  0  0
  161.5820  204.3330  149.7880 C   0  0  0  0  0  3  0  0  0  0  0  0
  161.1680  206.7630  149.2890 C   0  0  0  0  0  2  0  0  0  0  0  0
  160.9140  209.6710  152.4900 C   0  0  0  0  0  3  0  0  0  0  0  0
  160.6540  208.4560  154.9840 C   0  0  0  0  0  3  0  0  0  0  0  0
  160.6020  210.4490  153.6080 C   0  0  0  0  0  0  0  0  0  0  0  0
  160.4660  209.8430  154.8780 C   0  0  0  0  0  0  0  0  0  0  0  0
  160.4290  211.8180  153.4380 O   0  0  0  0  0  1  0  0  0  0  0  0
  161.0980  208.2860  152.6040 C   0  0  0  0  0  0  0  0  0  0  0  0
  160.9660  207.6880  153.8630 C   0  0  0  0  0  3  0  0  0  0  0  0
  161.1830  211.4090  156.8120 C   0  0  0  0  0  1  0  0  0  0  0  0
  160.1350  210.6220  156.0980 C   0  0  0  0  0  0  0  0  0  0  0  0
  158.9630  210.6380  156.5570 O   0  0  0  0  0  0  0  0  0  0  0  0
  161.3170  203.8470  148.4170 C   0  0  0  0  0  0  0  0  0  0  0  0
  160.6670  202.7000  148.1740 C   0  0  0  0  0  3  0  0  0  0  0  0
  161.8690  204.6140  147.2860 C   0  0  0  0  0  0  0  0  0  0  0  0
  163.1130  204.6700  147.0920 O   0  0  0  0  0  1  0  0  0  0  0  0
  161.0170  205.2850  146.4160 O   0  0  0  0  0  0  0  0  0  0  0  0
  158.9600  201.0160  148.7060 C   0  0  0  0  0  1  0  0  0  0  0  0
  160.1510  201.7860  149.2360 C   0  0  0  0  0  2  0  0  0  0  0  0
  162.3350  208.7430  149.7210 C   0  0  0  0  0  2  0  0  0  0  0  0
  162.1300  209.2870  148.3180 C   0  0  0  0  0  2  0  0  0  0  0  0
  161.2620  210.5310  148.3540 C   0  0  0  0  0  2  0  0  0  0  0  0
  163.1500  212.2150  148.0020 C   0  0  0  0  0  2  0  0  0  0  0  0
  161.2490  212.7470  149.4830 O   0  0  0  0  0  0  0  0  0  0  0  0
  160.3500  213.2040  148.5000 C   0  0  0  0  0  2  0  0  0  0  0  0
  162.3310  214.3080  147.3400 C   0  0  0  0  0  2  0  0  0  0  0  0
  162.6010  212.9550  146.8710 N   0  0  0  0  0  2  0  0  0  0  0  0
  160.8790  214.4530  147.7980 C   0  0  0  0  0  2  0  0  0  0  0  0
  162.0480  211.7050  148.9410 C   0  0  1  0  0  3  0  0  0  0  0  0
  2  3  1  0  0  0  0
  3  5  1  0  0  0  0
  3 13  1  0  0  0  0
  4  5  1  0  0  0  0
  5  1  1  6  0  0  0
  6  4  2  0  0  0  0
  7  2  1  0  0  0  0
  7  4  1  0  0  0  0
  8 13  2  0  0  0  0
  8 10  1  0  0  0  0
 10 11  2  0  0  0  0
 11  9  1  0  0  0  0
 11 16  1  0  0  0  0
 12 10  1  0  0  0  0
 13 14  1  0  0  0  0
 14  9  2  0  0  0  0
 16 17  2  0  0  0  0
 16 15  1  0  0  0  0
 18  6  1  0  0  0  0
 19 18  2  0  0  0  0
 19 24  1  0  0  0  0
 20 18  1  0  0  0  0
 21 20  1  0  0  0  0
 22 20  2  0  0  0  0
 23 24  1  0  0  0  0
 25  2  1  0  0  0  0
 26 27  1  0  0  0  0
 26 25  1  0  0  0  0
 28 34  1  0  0  0  0
 30 29  1  0  0  0  0
 31 33  1  0  0  0  0
 32 31  1  0  0  0  0
 32 28  1  0  0  0  0
 33 30  1  0  0  0  0
 34 27  1  6  0  0  0
 34 29  1  0  0  0  0
M  END
>  <MODEL>
3

>  <REMARK>
 VINA RESULT:      -6.5      1.065      1.555
  Name = 
  9 active torsions:
  status: ('A' for Active; 'I' for Inactive)
    1  A    between atoms: C_2  and  C_8
    2  A    between atoms: C_2  and  C_18
    3  A    between atoms: N_3  and  C_13
    4  A    between atoms: N_9  and  C_32
    5  A    between atoms: C_13  and  C_19
    6  A    between atoms: C_19  and  C_31
    7  A    between atoms: C_23  and  C_30
    8  A    between atoms: C_26  and  C_28
    9  A    between atoms: C_29  and  C_31
                            x       y       z     vdW  Elec       q    Type
                         _______ _______ _______ _____ _____    ______ ____

>  <TORSDO>
F 9

$$$$
=
 OpenBabel11042422093D

 34 36  0  0  1  0  0  0  0  0999 V2000
  163.0850  209.1020  150.2350 C   0  0  0  0  0  1  0  0  0  0  0  0
  160.9340  206.6420  151.2020 N   0  0  0  0  0  0  0  0  0  0  0  0
  161.3860  207.3650  150.0760 N   0  0  0  0  0  0  0  0  0  0  0  0
  161.1020  208.9530  151.6800 C   0  0  0  0  0  0  0  0  0  0  0  0
  161.5990  208.7840  150.3060 C   0  0  1  0  0  3  0  0  0  0  0  0
  161.0460  210.1300  152.3110 C   0  0  0  0  0  3  0  0  0  0  0  0
  160.6960  207.6400  152.2460 C   0  0  0  0  0  2  0  0  0  0  0  0
  162.4540  206.2430  148.1510 C   0  0  0  0  0  3  0  0  0  0  0  0
  160.0530  206.3050  146.7400 C   0  0  0  0  0  3  0  0  0  0  0  0
  162.3980  205.7090  146.8610 C   0  0  0  0  0  0  0  0  0  0  0  0
  161.1850  205.7340  146.1360 C   0  0  0  0  0  0  0  0  0  0  0  0
  163.5540  205.1600  146.3180 O   0  0  0  0  0  1  0  0  0  0  0  0
  161.3200  206.8090  148.7490 C   0  0  0  0  0  0  0  0  0  0  0  0
  160.1190  206.8360  148.0280 C   0  0  0  0  0  3  0  0  0  0  0  0
  160.4690  203.8360  144.5280 C   0  0  0  0  0  1  0  0  0  0  0  0
  161.0690  205.1810  144.7640 C   0  0  0  0  0  0  0  0  0  0  0  0
  161.4740  205.8360  143.7670 O   0  0  0  0  0  0  0  0  0  0  0  0
  160.5070  210.3250  153.6740 C   0  0  0  0  0  0  0  0  0  0  0  0
  159.3280  210.9190  153.9030 C   0  0  0  0  0  3  0  0  0  0  0  0
  161.3480  209.9300  154.8190 C   0  0  0  0  0  0  0  0  0  0  0  0
  162.3240  210.6420  155.1780 O   0  0  0  0  0  0  0  0  0  0  0  0
  161.0680  208.7620  155.5190 O   0  0  0  0  0  1  0  0  0  0  0  0
  158.6390  212.9480  152.7040 C   0  0  0  0  0  1  0  0  0  0  0  0
  158.4350  211.4540  152.8330 C   0  0  0  0  0  2  0  0  0  0  0  0
  162.0410  205.8150  151.6710 C   0  0  0  0  0  2  0  0  0  0  0  0
  161.5190  204.5300  152.2920 C   0  0  0  0  0  2  0  0  0  0  0  0
  161.8160  203.3470  151.3890 C   0  0  0  0  0  2  0  0  0  0  0  0
  160.4490  203.5930  149.2460 C   0  0  0  0  0  2  0  0  0  0  0  0
  160.3000  201.5380  150.6030 O   0  0  0  0  0  0  0  0  0  0  0  0
  161.4250  200.8700  150.0810 C   0  0  0  0  0  2  0  0  0  0  0  0
  160.7850  201.7860  147.7920 C   0  0  0  0  0  2  0  0  0  0  0  0
  161.3900  203.0130  148.2950 N   0  0  0  0  0  2  0  0  0  0  0  0
  161.2540  200.5710  148.5930 C   0  0  0  0  0  2  0  0  0  0  0  0
  160.5540  202.9350  150.6280 C   0  0  1  0  0  3  0  0  0  0  0  0
  2 25  1  0  0  0  0
  2  7  1  0  0  0  0
  3  5  1  0  0  0  0
  3  2  1  0  0  0  0
  4  7  1  0  0  0  0
  4  6  2  0  0  0  0
  5  1  1  1  0  0  0
  5  4  1  0  0  0  0
  6 18  1  0  0  0  0
  8 13  1  0  0  0  0
  9 14  1  0  0  0  0
 10  8  2  0  0  0  0
 11  9  2  0  0  0  0
 11 10  1  0  0  0  0
 12 10  1  0  0  0  0
 13  3  1  0  0  0  0
 14 13  2  0  0  0  0
 15 16  1  0  0  0  0
 16 11  1  0  0  0  0
 17 16  2  0  0  0  0
 18 19  2  0  0  0  0
 18 20  1  0  0  0  0
 20 21  2  0  0  0  0
 20 22  1  0  0  0  0
 23 24  1  0  0  0  0
 24 19  1  0  0  0  0
 25 26  1  0  0  0  0
 27 26  1  0  0  0  0
 28 34  1  0  0  0  0
 29 34  1  0  0  0  0
 30 29  1  0  0  0  0
 31 32  1  0  0  0  0
 31 33  1  0  0  0  0
 32 28  1  0  0  0  0
 33 30  1  0  0  0  0
 34 27  1  6  0  0  0
M  END
>  <MODEL>
4

>  <REMARK>
 VINA RESULT:      -6.4      2.754      9.136
  Name = 
  9 active torsions:
  status: ('A' for Active; 'I' for Inactive)
    1  A    between atoms: C_2  and  C_8
    2  A    between atoms: C_2  and  C_18
    3  A    between atoms: N_3  and  C_13
    4  A    between atoms: N_9  and  C_32
    5  A    between atoms: C_13  and  C_19
    6  A    between atoms: C_19  and  C_31
    7  A    between atoms: C_23  and  C_30
    8  A    between atoms: C_26  and  C_28
    9  A    between atoms: C_29  and  C_31
                            x       y       z     vdW  Elec       q    Type
                         _______ _______ _______ _____ _____    ______ ____

>  <TORSDO>
F 9

$$$$
=
 OpenBabel11042422093D

 34 36  0  0  1  0  0  0  0  0999 V2000
  163.0550  209.9330  151.3910 C   0  0  0  0  0  1  0  0  0  0  0  0
  160.8340  207.4390  152.0690 N   0  0  0  0  0  0  0  0  0  0  0  0
  161.4490  208.1430  151.0100 N   0  0  0  0  0  0  0  0  0  0  0  0
  160.8650  209.7660  152.4930 C   0  0  0  0  0  0  0  0  0  0  0  0
  161.5860  209.5730  151.2260 C   0  0  1  0  0  3  0  0  0  0  0  0
  160.6760  210.9580  153.0670 C   0  0  0  0  0  3  0  0  0  0  0  0
  160.4020  208.4580  153.0260 C   0  0  0  0  0  2  0  0  0  0  0  0
  160.5050  207.1570  148.9510 C   0  0  0  0  0  3  0  0  0  0  0  0
  163.0650  206.7590  147.9260 C   0  0  0  0  0  3  0  0  0  0  0  0
  160.6610  206.5720  147.6910 C   0  0  0  0  0  0  0  0  0  0  0  0
  161.9550  206.3670  147.1610 C   0  0  0  0  0  0  0  0  0  0  0  0
  159.5230  206.2030  146.9830 O   0  0  0  0  0  1  0  0  0  0  0  0
  161.6170  207.5480  149.7080 C   0  0  0  0  0  0  0  0  0  0  0  0
  162.8990  207.3410  149.1830 C   0  0  0  0  0  3  0  0  0  0  0  0
  163.1770  204.6570  145.6490 C   0  0  0  0  0  1  0  0  0  0  0  0
  162.1780  205.7510  145.8300 C   0  0  0  0  0  0  0  0  0  0  0  0
  161.5290  206.1370  144.8220 O   0  0  0  0  0  0  0  0  0  0  0  0
  159.9140  211.1760  154.3150 C   0  0  0  0  0  0  0  0  0  0  0  0
  160.4700  211.0500  155.5280 C   0  0  0  0  0  3  0  0  0  0  0  0
  158.4700  211.4540  154.2110 C   0  0  0  0  0  0  0  0  0  0  0  0
  158.0040  212.0740  153.2180 O   0  0  0  0  0  0  0  0  0  0  0  0
  157.6040  211.0280  155.2110 O   0  0  0  0  0  1  0  0  0  0  0  0
  161.9540  209.3230  156.4460 C   0  0  0  0  0  1  0  0  0  0  0  0
  161.8950  210.6720  155.7640 C   0  0  0  0  0  2  0  0  0  0  0  0
  161.8670  206.6580  152.7400 C   0  0  0  0  0  2  0  0  0  0  0  0
  161.3260  205.2980  153.1490 C   0  0  0  0  0  2  0  0  0  0  0  0
  160.7170  204.5900  151.9520 C   0  0  0  0  0  2  0  0  0  0  0  0
  161.9560  202.3790  151.6370 C   0  0  0  0  0  2  0  0  0  0  0  0
  161.7340  203.9740  149.7670 O   0  0  0  0  0  0  0  0  0  0  0  0
  160.4560  203.5850  149.3210 C   0  0  0  0  0  2  0  0  0  0  0  0
  161.1290  201.1760  149.8050 C   0  0  0  0  0  2  0  0  0  0  0  0
  160.8470  201.5460  151.1860 N   0  0  0  0  0  2  0  0  0  0  0  0
  160.4550  202.1400  148.8270 C   0  0  0  0  0  2  0  0  0  0  0  0
  161.8010  203.8350  151.1790 C   0  0  1  0  0  3  0  0  0  0  0  0
  2 25  1  0  0  0  0
  2  7  1  0  0  0  0
  3  5  1  0  0  0  0
  3  2  1  0  0  0  0
  4  7  1  0  0  0  0
  4  6  2  0  0  0  0
  5  1  1  1  0  0  0
  5  4  1  0  0  0  0
  6 18  1  0  0  0  0
  8 13  1  0  0  0  0
  9 14  1  0  0  0  0
 10  8  2  0  0  0  0
 11 10  1  0  0  0  0
 11  9  2  0  0  0  0
 12 10  1  0  0  0  0
 13  3  1  0  0  0  0
 14 13  2  0  0  0  0
 15 16  1  0  0  0  0
 16 11  1  0  0  0  0
 17 16  2  0  0  0  0
 18 19  2  0  0  0  0
 19 24  1  0  0  0  0
 20 18  1  0  0  0  0
 20 22  1  0  0  0  0
 21 20  2  0  0  0  0
 24 23  1  0  0  0  0
 25 26  1  0  0  0  0
 27 26  1  0  0  0  0
 29 34  1  0  0  0  0
 30 29  1  0  0  0  0
 31 32  1  0  0  0  0
 32 28  1  0  0  0  0
 33 30  1  0  0  0  0
 33 31  1  0  0  0  0
 34 28  1  0  0  0  0
 34 27  1  1  0  0  0
M  END
>  <MODEL>
5

>  <REMARK>
 VINA RESULT:      -6.2      2.881      8.878
  Name = 
  9 active torsions:
  status: ('A' for Active; 'I' for Inactive)
    1  A    between atoms: C_2  and  C_8
    2  A    between atoms: C_2  and  C_18
    3  A    between atoms: N_3  and  C_13
    4  A    between atoms: N_9  and  C_32
    5  A    between atoms: C_13  and  C_19
    6  A    between atoms: C_19  and  C_31
    7  A    between atoms: C_23  and  C_30
    8  A    between atoms: C_26  and  C_28
    9  A    between atoms: C_29  and  C_31
                            x       y       z     vdW  Elec       q    Type
                         _______ _______ _______ _____ _____    ______ ____

>  <TORSDO>
F 9

$$$$
=
 OpenBabel11042422093D

 34 36  0  0  1  0  0  0  0  0999 V2000
  163.8090  207.1980  148.4960 C   0  0  0  0  0  1  0  0  0  0  0  0
  161.0950  206.5030  150.4360 N   0  0  0  0  0  0  0  0  0  0  0  0
  161.7090  206.1900  149.2030 N   0  0  0  0  0  0  0  0  0  0  0  0
  161.8770  208.4540  149.3490 C   0  0  0  0  0  0  0  0  0  0  0  0
  162.2930  207.3240  148.5060 C   0  0  1  0  0  3  0  0  0  0  0  0
  162.1430  209.7320  149.0640 C   0  0  0  0  0  3  0  0  0  0  0  0
  161.1440  207.9620  150.5450 C   0  0  0  0  0  2  0  0  0  0  0  0
  160.9540  203.8380  149.2560 C   0  0  0  0  0  3  0  0  0  0  0  0
  161.5770  203.5410  146.5570 C   0  0  0  0  0  3  0  0  0  0  0  0
  160.7370  202.6080  148.6290 C   0  0  0  0  0  0  0  0  0  0  0  0
  161.0490  202.4470  147.2600 C   0  0  0  0  0  0  0  0  0  0  0  0
  160.2130  201.5620  149.3790 O   0  0  0  0  0  1  0  0  0  0  0  0
  161.4800  204.9270  148.5480 C   0  0  0  0  0  0  0  0  0  0  0  0
  161.7910  204.7650  147.1920 C   0  0  0  0  0  3  0  0  0  0  0  0
  160.0780  201.1180  145.2610 C   0  0  0  0  0  1  0  0  0  0  0  0
  160.8380  201.1640  146.5440 C   0  0  0  0  0  0  0  0  0  0  0  0
  161.2960  200.0840  147.0040 O   0  0  0  0  0  0  0  0  0  0  0  0
  161.6930  210.8840  149.8750 C   0  0  0  0  0  0  0  0  0  0  0  0
  161.3740  212.0660  149.3310 C   0  0  0  0  0  3  0  0  0  0  0  0
  161.6850  210.7420  151.3420 C   0  0  0  0  0  0  0  0  0  0  0  0
  162.7070  210.3310  151.9560 O   0  0  0  0  0  0  0  0  0  0  0  0
  160.5440  211.0640  152.0680 O   0  0  0  0  0  1  0  0  0  0  0  0
  160.1610  213.0380  147.4300 C   0  0  0  0  0  1  0  0  0  0  0  0
  161.4420  212.3630  147.8690 C   0  0  0  0  0  2  0  0  0  0  0  0
  161.9480  205.9840  151.5000 C   0  0  0  0  0  2  0  0  0  0  0  0
  161.1390  205.7490  152.7630 C   0  0  0  0  0  2  0  0  0  0  0  0
  161.5800  206.7020  153.8600 C   0  0  0  0  0  2  0  0  0  0  0  0
  159.9410  206.9540  155.8020 C   0  0  0  0  0  2  0  0  0  0  0  0
  160.4640  208.8720  154.3410 O   0  0  0  0  0  0  0  0  0  0  0  0
  161.6440  209.2980  154.9820 C   0  0  0  0  0  2  0  0  0  0  0  0
  160.5240  208.7410  157.2010 C   0  0  0  0  0  2  0  0  0  0  0  0
  160.8700  207.3710  156.8450 N   0  0  0  0  0  2  0  0  0  0  0  0
  161.3690  209.7450  156.4160 C   0  0  0  0  0  2  0  0  0  0  0  0
  160.3720  207.4570  154.4180 C   0  0  1  0  0  3  0  0  0  0  0  0
  2  7  1  0  0  0  0
  2 25  1  0  0  0  0
  3  2  1  0  0  0  0
  4  7  1  0  0  0  0
  5  1  1  1  0  0  0
  5  3  1  0  0  0  0
  5  4  1  0  0  0  0
  6  4  2  0  0  0  0
  6 18  1  0  0  0  0
  9 14  2  0  0  0  0
  9 11  1  0  0  0  0
 10  8  1  0  0  0  0
 10 12  1  0  0  0  0
 11 10  2  0  0  0  0
 13  3  1  0  0  0  0
 13  8  2  0  0  0  0
 14 13  1  0  0  0  0
 15 16  1  0  0  0  0
 16 17  2  0  0  0  0
 16 11  1  0  0  0  0
 18 20  1  0  0  0  0
 19 18  2  0  0  0  0
 20 21  2  0  0  0  0
 20 22  1  0  0  0  0
 23 24  1  0  0  0  0
 24 19  1  0  0  0  0
 25 26  1  0  0  0  0
 26 27  1  0  0  0  0
 28 32  1  0  0  0  0
 29 34  1  0  0  0  0
 29 30  1  0  0  0  0
 30 33  1  0  0  0  0
 32 31  1  0  0  0  0
 33 31  1  0  0  0  0
 34 27  1  1  0  0  0
 34 28  1  0  0  0  0
M  END
>  <MODEL>
6

>  <REMARK>
 VINA RESULT:      -6.2      2.358      8.529
  Name = 
  9 active torsions:
  status: ('A' for Active; 'I' for Inactive)
    1  A    between atoms: C_2  and  C_8
    2  A    between atoms: C_2  and  C_18
    3  A    between atoms: N_3  and  C_13
    4  A    between atoms: N_9  and  C_32
    5  A    between atoms: C_13  and  C_19
    6  A    between atoms: C_19  and  C_31
    7  A    between atoms: C_23  and  C_30
    8  A    between atoms: C_26  and  C_28
    9  A    between atoms: C_29  and  C_31
                            x       y       z     vdW  Elec       q    Type
                         _______ _______ _______ _____ _____    ______ ____

>  <TORSDO>
F 9

$$$$
=
 OpenBabel11042422093D

 34 36  0  0  1  0  0  0  0  0999 V2000
  163.0310  210.1320  151.3080 C   0  0  0  0  0  1  0  0  0  0  0  0
  160.8330  207.6430  152.0750 N   0  0  0  0  0  0  0  0  0  0  0  0
  161.4560  208.3030  150.9920 N   0  0  0  0  0  0  0  0  0  0  0  0
  160.8250  209.9890  152.3820 C   0  0  0  0  0  0  0  0  0  0  0  0
  161.5700  209.7440  151.1380 C   0  0  1  0  0  3  0  0  0  0  0  0
  160.6100  211.2050  152.8920 C   0  0  0  0  0  3  0  0  0  0  0  0
  160.3710  208.7030  152.9730 C   0  0  0  0  0  2  0  0  0  0  0  0
  160.5590  207.2020  148.9700 C   0  0  0  0  0  3  0  0  0  0  0  0
  163.1420  206.7880  148.0090 C   0  0  0  0  0  3  0  0  0  0  0  0
  160.7450  206.5570  147.7440 C   0  0  0  0  0  0  0  0  0  0  0  0
  162.0500  206.3430  147.2460 C   0  0  0  0  0  0  0  0  0  0  0  0
  159.6240  206.1390  147.0370 O   0  0  0  0  0  1  0  0  0  0  0  0
  161.6540  207.6460  149.7250 C   0  0  0  0  0  0  0  0  0  0  0  0
  162.9460  207.4300  149.2320 C   0  0  0  0  0  3  0  0  0  0  0  0
  163.1610  204.4450  145.8810 C   0  0  0  0  0  1  0  0  0  0  0  0
  162.3040  205.6640  145.9510 C   0  0  0  0  0  0  0  0  0  0  0  0
  161.8020  206.1020  144.8830 O   0  0  0  0  0  0  0  0  0  0  0  0
  159.8250  211.4750  154.1160 C   0  0  0  0  0  0  0  0  0  0  0  0
  158.5470  211.8750  154.0770 C   0  0  0  0  0  3  0  0  0  0  0  0
  160.5100  211.3810  155.4180 C   0  0  0  0  0  0  0  0  0  0  0  0
  159.9740  211.8420  156.4620 O   0  0  0  0  0  1  0  0  0  0  0  0
  161.7580  210.7770  155.5080 O   0  0  0  0  0  0  0  0  0  0  0  0
  157.4490  213.5770  152.6870 C   0  0  0  0  0  1  0  0  0  0  0  0
  157.7770  212.1050  152.8180 C   0  0  0  0  0  2  0  0  0  0  0  0
  161.8660  206.9120  152.8020 C   0  0  0  0  0  2  0  0  0  0  0  0
  161.4110  205.4910  153.0850 C   0  0  0  0  0  2  0  0  0  0  0  0
  161.7420  204.5850  151.9130 C   0  0  0  0  0  2  0  0  0  0  0  0
  160.1740  204.1400  149.9460 C   0  0  0  0  0  2  0  0  0  0  0  0
  160.4000  202.4960  151.7720 O   0  0  0  0  0  0  0  0  0  0  0  0
  161.5490  201.8300  151.3030 C   0  0  0  0  0  2  0  0  0  0  0  0
  160.6040  202.0640  148.9490 C   0  0  0  0  0  2  0  0  0  0  0  0
  161.0940  203.4320  149.0640 N   0  0  0  0  0  2  0  0  0  0  0  0
  161.2880  201.1460  149.9620 C   0  0  0  0  0  2  0  0  0  0  0  0
  160.4800  203.8710  151.4260 C   0  0  1  0  0  3  0  0  0  0  0  0
  2 25  1  0  0  0  0
  2  7  1  0  0  0  0
  3  5  1  0  0  0  0
  3  2  1  0  0  0  0
  4  6  2  0  0  0  0
  4  7  1  0  0  0  0
  5  1  1  1  0  0  0
  5  4  1  0  0  0  0
  6 18  1  0  0  0  0
  8 13  1  0  0  0  0
  9 14  1  0  0  0  0
 10  8  2  0  0  0  0
 11 10  1  0  0  0  0
 11  9  2  0  0  0  0
 12 10  1  0  0  0  0
 13  3  1  0  0  0  0
 14 13  2  0  0  0  0
 15 16  1  0  0  0  0
 16 11  1  0  0  0  0
 17 16  2  0  0  0  0
 18 20  1  0  0  0  0
 19 18  2  0  0  0  0
 20 22  2  0  0  0  0
 20 21  1  0  0  0  0
 23 24  1  0  0  0  0
 24 19  1  0  0  0  0
 25 26  1  0  0  0  0
 27 26  1  0  0  0  0
 28 34  1  0  0  0  0
 30 29  1  0  0  0  0
 31 32  1  0  0  0  0
 31 33  1  0  0  0  0
 32 28  1  0  0  0  0
 33 30  1  0  0  0  0
 34 29  1  0  0  0  0
 34 27  1  6  0  0  0
M  END
>  <MODEL>
7

>  <REMARK>
 VINA RESULT:      -5.7      2.834      9.031
  Name = 
  9 active torsions:
  status: ('A' for Active; 'I' for Inactive)
    1  A    between atoms: C_2  and  C_8
    2  A    between atoms: C_2  and  C_18
    3  A    between atoms: N_3  and  C_13
    4  A    between atoms: N_9  and  C_32
    5  A    between atoms: C_13  and  C_19
    6  A    between atoms: C_19  and  C_31
    7  A    between atoms: C_23  and  C_30
    8  A    between atoms: C_26  and  C_28
    9  A    between atoms: C_29  and  C_31
                            x       y       z     vdW  Elec       q    Type
                         _______ _______ _______ _____ _____    ______ ____

>  <TORSDO>
F 9

$$$$
=
 OpenBabel11042422093D

 34 36  0  0  1  0  0  0  0  0999 V2000
  163.3360  210.7030  153.3920 C   0  0  0  0  0  1  0  0  0  0  0  0
  160.8200  208.7720  152.1440 N   0  0  0  0  0  0  0  0  0  0  0  0
  161.4900  210.0040  151.9670 N   0  0  0  0  0  0  0  0  0  0  0  0
  161.1820  209.8540  154.2160 C   0  0  0  0  0  0  0  0  0  0  0  0
  161.8270  210.6980  153.1990 C   0  0  1  0  0  3  0  0  0  0  0  0
  161.1760  210.1380  155.5220 C   0  0  0  0  0  3  0  0  0  0  0  0
  160.5640  208.6620  153.5810 C   0  0  0  0  0  2  0  0  0  0  0  0
  161.1370  211.9990  150.5540 C   0  0  0  0  0  3  0  0  0  0  0  0
  161.9910  210.5970  148.3030 C   0  0  0  0  0  3  0  0  0  0  0  0
  161.1680  212.6400  149.3120 C   0  0  0  0  0  0  0  0  0  0  0  0
  161.6000  211.9380  148.1630 C   0  0  0  0  0  0  0  0  0  0  0  0
  160.7670  213.9690  149.2390 O   0  0  0  0  0  1  0  0  0  0  0  0
  161.5310  210.6610  150.6860 C   0  0  0  0  0  0  0  0  0  0  0  0
  161.9560  209.9660  149.5460 C   0  0  0  0  0  3  0  0  0  0  0  0
  160.4610  212.5570  145.9220 C   0  0  0  0  0  1  0  0  0  0  0  0
  161.6520  212.5700  146.8210 C   0  0  0  0  0  0  0  0  0  0  0  0
  162.7020  213.1310  146.4110 O   0  0  0  0  0  0  0  0  0  0  0  0
  160.4940  209.3270  156.5530 C   0  0  0  0  0  0  0  0  0  0  0  0
  159.4510  209.7890  157.2580 C   0  0  0  0  0  3  0  0  0  0  0  0
  161.0450  207.9980  156.8720 C   0  0  0  0  0  0  0  0  0  0  0  0
  162.2860  207.7850  156.8160 O   0  0  0  0  0  0  0  0  0  0  0  0
  160.1970  206.9610  157.2430 O   0  0  0  0  0  1  0  0  0  0  0  0
  157.8350  211.1370  155.9930 C   0  0  0  0  0  1  0  0  0  0  0  0
  158.8690  211.1540  157.0980 C   0  0  0  0  0  2  0  0  0  0  0  0
  161.7600  207.7060  151.8120 C   0  0  0  0  0  2  0  0  0  0  0  0
  161.0530  206.3620  151.7910 C   0  0  0  0  0  2  0  0  0  0  0  0
  161.5650  205.5130  150.6410 C   0  0  0  0  0  2  0  0  0  0  0  0
  160.4570  206.5750  148.5990 C   0  0  0  0  0  2  0  0  0  0  0  0
  160.4560  204.1260  148.8990 O   0  0  0  0  0  0  0  0  0  0  0  0
  161.7260  203.8550  148.3550 C   0  0  0  0  0  2  0  0  0  0  0  0
  161.2460  205.6400  146.6010 C   0  0  0  0  0  2  0  0  0  0  0  0
  161.5880  206.5590  147.6790 N   0  0  0  0  0  2  0  0  0  0  0  0
  161.7920  204.2380  146.8780 C   0  0  0  0  0  2  0  0  0  0  0  0
  160.4870  205.3810  149.5630 C   0  0  1  0  0  3  0  0  0  0  0  0
  2  7  1  0  0  0  0
  3  2  1  0  0  0  0
  3  5  1  0  0  0  0
  4  6  2  0  0  0  0
  5  1  1  1  0  0  0
  5  4  1  0  0  0  0
  6 18  1  0  0  0  0
  7  4  1  0  0  0  0
  8 13  1  0  0  0  0
  9 14  1  0  0  0  0
 10  8  2  0  0  0  0
 11  9  2  0  0  0  0
 11 10  1  0  0  0  0
 12 10  1  0  0  0  0
 13  3  1  0  0  0  0
 14 13  2  0  0  0  0
 15 16  1  0  0  0  0
 16 11  1  0  0  0  0
 17 16  2  0  0  0  0
 18 20  1  0  0  0  0
 18 19  2  0  0  0  0
 20 22  1  0  0  0  0
 21 20  2  0  0  0  0
 23 24  1  0  0  0  0
 24 19  1  0  0  0  0
 25  2  1  0  0  0  0
 26 25  1  0  0  0  0
 27 26  1  0  0  0  0
 28 34  1  0  0  0  0
 29 34  1  0  0  0  0
 30 29  1  0  0  0  0
 31 33  1  0  0  0  0
 31 32  1  0  0  0  0
 32 28  1  0  0  0  0
 33 30  1  0  0  0  0
 34 27  1  6  0  0  0
M  END
>  <MODEL>
8

>  <REMARK>
 VINA RESULT:      -5.1      2.024      8.039
  Name = 
  9 active torsions:
  status: ('A' for Active; 'I' for Inactive)
    1  A    between atoms: C_2  and  C_8
    2  A    between atoms: C_2  and  C_18
    3  A    between atoms: N_3  and  C_13
    4  A    between atoms: N_9  and  C_32
    5  A    between atoms: C_13  and  C_19
    6  A    between atoms: C_19  and  C_31
    7  A    between atoms: C_23  and  C_30
    8  A    between atoms: C_26  and  C_28
    9  A    between atoms: C_29  and  C_31
                            x       y       z     vdW  Elec       q    Type
                         _______ _______ _______ _____ _____    ______ ____

>  <TORSDO>
F 9

$$$$
=
 OpenBabel11042422093D

 34 36  0  0  1  0  0  0  0  0999 V2000
  163.3790  209.0730  148.2420 C   0  0  0  0  0  1  0  0  0  0  0  0
  161.3360  209.8340  150.8610 N   0  0  0  0  0  0  0  0  0  0  0  0
  161.6680  208.8050  149.9530 N   0  0  0  0  0  0  0  0  0  0  0  0
  161.5630  210.6740  148.6610 C   0  0  0  0  0  0  0  0  0  0  0  0
  161.9080  209.2470  148.5900 C   0  0  1  0  0  3  0  0  0  0  0  0
  161.5780  211.4970  147.6080 C   0  0  0  0  0  3  0  0  0  0  0  0
  161.2150  211.0510  150.0560 C   0  0  0  0  0  2  0  0  0  0  0  0
  161.6430  206.9530  151.5880 C   0  0  0  0  0  3  0  0  0  0  0  0
  160.8760  205.1600  149.5980 C   0  0  0  0  0  3  0  0  0  0  0  0
  161.4480  205.6070  151.9100 C   0  0  0  0  0  0  0  0  0  0  0  0
  161.0580  204.6890  150.9080 C   0  0  0  0  0  0  0  0  0  0  0  0
  161.6450  205.2020  153.2250 O   0  0  0  0  0  1  0  0  0  0  0  0
  161.4570  207.4170  150.2790 C   0  0  0  0  0  0  0  0  0  0  0  0
  161.0740  206.5060  149.2870 C   0  0  0  0  0  3  0  0  0  0  0  0
  160.7420  202.2540  150.0870 C   0  0  0  0  0  1  0  0  0  0  0  0
  160.8370  203.2500  151.1940 C   0  0  0  0  0  0  0  0  0  0  0  0
  160.7250  202.8350  152.3790 O   0  0  0  0  0  0  0  0  0  0  0  0
  161.1890  212.9230  147.6520 C   0  0  0  0  0  0  0  0  0  0  0  0
  160.1270  213.4000  146.9890 C   0  0  0  0  0  3  0  0  0  0  0  0
  162.0620  213.8600  148.3820 C   0  0  0  0  0  0  0  0  0  0  0  0
  163.2100  214.1450  147.9460 O   0  0  0  0  0  0  0  0  0  0  0  0
  161.6230  214.4460  149.5630 O   0  0  0  0  0  1  0  0  0  0  0  0
  157.8220  212.6040  146.6940 C   0  0  0  0  0  1  0  0  0  0  0  0
  159.2280  212.5680  146.1340 C   0  0  0  0  0  2  0  0  0  0  0  0
  162.4840  210.0370  151.7390 C   0  0  0  0  0  2  0  0  0  0  0  0
  162.0470  210.0440  153.1940 C   0  0  0  0  0  2  0  0  0  0  0  0
  160.5540  210.2960  153.2960 C   0  0  0  0  0  2  0  0  0  0  0  0
  159.5550  212.5960  152.8120 C   0  0  0  0  0  2  0  0  0  0  0  0
  159.7370  211.7670  155.1280 O   0  0  0  0  0  0  0  0  0  0  0  0
  158.5520  211.0060  155.1650 C   0  0  0  0  0  2  0  0  0  0  0  0
  157.4450  212.8490  153.7980 C   0  0  0  0  0  2  0  0  0  0  0  0
  158.1510  212.2250  152.6870 N   0  0  0  0  0  2  0  0  0  0  0  0
  157.3190  211.8880  154.9810 C   0  0  0  0  0  2  0  0  0  0  0  0
  160.2930  211.7090  153.8230 C   0  0  1  0  0  3  0  0  0  0  0  0
  2 25  1  0  0  0  0
  3 13  1  0  0  0  0
  3  2  1  0  0  0  0
  4  7  1  0  0  0  0
  5  1  1  1  0  0  0
  5  4  1  0  0  0  0
  5  3  1  0  0  0  0
  6 18  1  0  0  0  0
  6  4  2  0  0  0  0
  7  2  1  0  0  0  0
  8 10  1  0  0  0  0
  9 11  1  0  0  0  0
 10 12  1  0  0  0  0
 11 16  1  0  0  0  0
 11 10  2  0  0  0  0
 13  8  2  0  0  0  0
 14  9  2  0  0  0  0
 14 13  1  0  0  0  0
 15 16  1  0  0  0  0
 16 17  2  0  0  0  0
 18 20  1  0  0  0  0
 19 18  2  0  0  0  0
 20 22  1  0  0  0  0
 21 20  2  0  0  0  0
 24 23  1  0  0  0  0
 24 19  1  0  0  0  0
 25 26  1  0  0  0  0
 26 27  1  0  0  0  0
 28 34  1  0  0  0  0
 29 30  1  0  0  0  0
 31 33  1  0  0  0  0
 32 28  1  0  0  0  0
 32 31  1  0  0  0  0
 33 30  1  0  0  0  0
 34 27  1  6  0  0  0
 34 29  1  0  0  0  0
M  END
>  <MODEL>
9

>  <REMARK>
 VINA RESULT:      -5.0      2.356      7.063
  Name = 
  9 active torsions:
  status: ('A' for Active; 'I' for Inactive)
    1  A    between atoms: C_2  and  C_8
    2  A    between atoms: C_2  and  C_18
    3  A    between atoms: N_3  and  C_13
    4  A    between atoms: N_9  and  C_32
    5  A    between atoms: C_13  and  C_19
    6  A    between atoms: C_19  and  C_31
    7  A    between atoms: C_23  and  C_30
    8  A    between atoms: C_26  and  C_28
    9  A    between atoms: C_29  and  C_31
                            x       y       z     vdW  Elec       q    Type
                         _______ _______ _______ _____ _____    ______ ____

>  <TORSDO>
F 9

$$$$
