=
 OpenBabel11052412163D

 41 45  0  0  1  0  0  0  0  0999 V2000
  161.1840  208.1300  154.9470 C   0  0  1  0  0  3  0  0  0  0  0  0
  160.8070  209.8710  151.8320 C   0  0  0  0  0  0  0  0  0  0  0  0
  160.3360  210.5540  154.9270 N   0  0  0  0  0  2  0  0  0  0  0  0
  160.2800  211.8880  152.8690 C   0  0  2  0  0  3  0  0  0  0  0  0
  160.6580  209.2240  154.3990 C   0  0  2  0  0  0  0  0  0  0  0  0
  160.8720  211.1770  151.6730 C   0  0  0  0  0  0  0  0  0  0  0  0
  161.8600  209.4880  149.5960 C   0  0  0  0  0  0  0  0  0  0  0  0
  161.8520  210.9210  149.4190 N   0  0  0  0  0  0  0  0  0  0  0  0
  159.6730  210.7340  153.7040 C   0  0  1  0  0  0  0  0  0  0  0  0
  162.2280  208.7410  148.6490 O   0  0  0  0  0  0  0  0  0  0  0  0
  161.5960  208.1490  156.3770 C   0  0  0  0  0  1  0  0  0  0  0  0
  161.4280  207.6520  151.1860 N   0  0  0  0  0  0  0  0  0  0  0  0
  161.6290  211.8340  150.5550 C   0  0  0  0  0  2  0  0  0  0  0  0
  161.3760  208.9150  150.8800 C   0  0  0  0  0  0  0  0  0  0  0  0
  160.1730  209.6000  153.0580 N   0  0  0  0  0  0  0  0  0  0  0  0
  159.2620  212.7450  152.4500 O   0  0  0  0  0  1  0  0  0  0  0  0
  161.2860  205.8600  153.6000 C   0  0  0  0  0  3  0  0  0  0  0  0
  161.2400  206.8860  154.2310 C   0  0  0  0  0  0  0  0  0  0  0  0
  162.2350  211.4760  148.1230 C   0  0  2  0  0  3  0  0  0  0  0  0
  163.5120  212.2930  148.2470 C   0  0  0  0  0  1  0  0  0  0  0  0
  161.1080  212.3170  147.5410 C   0  0  0  0  0  2  0  0  0  0  0  0
  161.6520  213.3410  146.6680 N   0  0  0  0  0  2  0  0  0  0  0  0
  160.9860  213.6790  145.4840 N   0  0  0  0  0  0  0  0  0  0  0  0
  163.0060  213.2170  144.2170 C   0  0  0  0  0  1  0  0  0  0  0  0
  161.5720  213.6410  144.3280 C   0  0  0  0  0  0  0  0  0  0  0  0
  160.8340  214.0010  143.1960 O   0  0  0  0  0  0  0  0  0  0  0  0
  160.3270  211.3020  142.7040 O   0  0  0  0  0  1  0  0  0  0  0  0
  158.6240  213.2240  141.6960 O   0  0  0  0  0  1  0  0  0  0  0  0
  160.2350  212.8610  142.0540 P   0  0  0  0  0  0  0  0  0  0  0  0
  161.0560  212.9290  140.7860 O   0  0  0  0  0  0  0  0  0  0  0  0
  162.0080  206.5870  150.3730 C   0  0  0  0  0  2  0  0  0  0  0  0
  160.9320  204.3470  147.7470 N   0  0  0  0  0  0  0  0  0  0  0  0
  160.9770  204.3430  150.1450 C   0  0  0  0  0  2  0  0  0  0  0  0
  161.1480  205.7230  148.1860 C   0  0  0  0  0  2  0  0  0  0  0  0
  160.9170  205.7770  149.6830 C   0  0  2  0  0  3  0  0  0  0  0  0
  161.3080  203.5430  148.9050 C   0  0  0  0  0  2  0  0  0  0  0  0
  161.2100  203.0890  145.6480 C   0  0  0  0  0  1  0  0  0  0  0  0
  161.8520  204.0540  146.6390 C   0  0  1  0  0  3  0  0  0  0  0  0
  162.2120  205.3360  145.8860 C   0  0  0  0  0  2  0  0  0  0  0  0
  161.3730  205.4950  144.6290 C   0  0  0  0  0  2  0  0  0  0  0  0
  160.2250  206.2350  144.9100 O   0  0  0  0  0  1  0  0  0  0  0  0
  1 11  1  1  0  0  0
  2 15  1  0  0  0  0
  4 16  1  6  0  0  0
  4  9  1  0  0  0  0
  5  3  1  0  0  0  0
  5  1  1  1  0  0  0
  6  2  2  0  0  0  0
  6  4  1  0  0  0  0
  7 14  1  0  0  0  0
  8  7  1  0  0  0  0
  8 13  1  0  0  0  0
  9  5  1  0  0  0  0
  9  3  1  1  0  0  0
 10  7  2  0  0  0  0
 13  6  1  0  0  0  0
 14 12  2  0  0  0  0
 14  2  1  0  0  0  0
 15  9  1  0  0  0  0
 15  5  1  0  0  0  0
 17 18  3  0  0  0  0
 18  1  1  0  0  0  0
 19 20  1  1  0  0  0
 19  8  1  0  0  0  0
 21 19  1  0  0  0  0
 22 21  1  0  0  0  0
 23 22  1  0  0  0  0
 24 25  1  0  0  0  0
 25 23  2  0  0  0  0
 26 25  1  0  0  0  0
 28 29  1  0  0  0  0
 29 27  1  0  0  0  0
 29 26  1  0  0  0  0
 30 29  2  0  0  0  0
 31 12  1  0  0  0  0
 32 34  1  0  0  0  0
 32 36  1  0  0  0  0
 34 35  1  0  0  0  0
 35 33  1  0  0  0  0
 35 31  1  1  0  0  0
 36 33  1  0  0  0  0
 38 37  1  6  0  0  0
 38 32  1  0  0  0  0
 39 38  1  0  0  0  0
 40 41  1  0  0  0  0
 40 39  1  0  0  0  0
M  END
>  <MODEL>
1

>  <REMARK>
 VINA RESULT:      -7.6      0.000      0.000
  Name = 
  12 active torsions:
  status: ('A' for Active; 'I' for Inactive)
    1  A    between atoms: N_1  and  C_31
    2  A    between atoms: C_3  and  C_8
    3  A    between atoms: C_6  and  N_32
    4  A    between atoms: C_6  and  C_38
    5  A    between atoms: N_7  and  N_21
    6  A    between atoms: C_10  and  N_17
    7  A    between atoms: C_10  and  C_39
    8  A    between atoms: C_12  and  C_24
    9  A    between atoms: C_12  and  C_31
   10  A    between atoms: O_18  and  P_19
   11  A    between atoms: O_18  and  C_23
   12  A    between atoms: N_21  and  C_39
                            x       y       z     vdW  Elec       q    Type
                         _______ _______ _______ _____ _____    ______ ____

>  <TORSDO>
F 12

$$$$
=
 OpenBabel11052412163D

 41 45  0  0  1  0  0  0  0  0999 V2000
  160.0500  211.8020  155.5390 C   0  0  1  0  0  3  0  0  0  0  0  0
  160.0620  211.8550  151.9520 C   0  0  0  0  0  0  0  0  0  0  0  0
  158.9620  213.7600  154.2820 N   0  0  0  0  0  2  0  0  0  0  0  0
  159.1380  213.9900  151.8460 C   0  0  2  0  0  3  0  0  0  0  0  0
  159.5170  212.4170  154.4850 C   0  0  2  0  0  0  0  0  0  0  0  0
  160.0130  212.9380  151.2020 C   0  0  0  0  0  0  0  0  0  0  0  0
  161.5420  210.7050  150.2960 C   0  0  0  0  0  0  0  0  0  0  0  0
  161.4110  211.8770  149.4620 N   0  0  0  0  0  0  0  0  0  0  0  0
  158.5180  213.2470  153.0530 C   0  0  1  0  0  0  0  0  0  0  0  0
  162.1560  209.6930  149.8610 O   0  0  0  0  0  0  0  0  0  0  0  0
  160.1890  212.5380  156.8260 C   0  0  0  0  0  1  0  0  0  0  0  0
  161.0280  209.7360  152.5050 N   0  0  0  0  0  0  0  0  0  0  0  0
  160.8860  213.1460  149.9980 C   0  0  0  0  0  2  0  0  0  0  0  0
  160.8960  210.6940  151.6340 C   0  0  0  0  0  0  0  0  0  0  0  0
  159.2480  212.0550  153.0810 N   0  0  0  0  0  0  0  0  0  0  0  0
  158.1280  214.3660  150.9610 O   0  0  0  0  0  1  0  0  0  0  0  0
  160.6520  209.2310  155.5130 C   0  0  0  0  0  3  0  0  0  0  0  0
  160.3710  210.4030  155.5080 C   0  0  0  0  0  0  0  0  0  0  0  0
  161.9620  211.8490  148.1090 C   0  0  2  0  0  3  0  0  0  0  0  0
  163.2300  212.6880  148.0300 C   0  0  0  0  0  1  0  0  0  0  0  0
  160.9320  212.3270  147.0960 C   0  0  0  0  0  2  0  0  0  0  0  0
  161.5330  213.2930  146.1950 N   0  0  0  0  0  2  0  0  0  0  0  0
  161.0670  213.4090  144.8800 N   0  0  0  0  0  0  0  0  0  0  0  0
  163.3580  213.4830  144.0760 C   0  0  0  0  0  1  0  0  0  0  0  0
  161.8730  213.5040  143.8680 C   0  0  0  0  0  0  0  0  0  0  0  0
  161.3230  213.6230  142.5880 O   0  0  0  0  0  0  0  0  0  0  0  0
  160.3410  212.8090  140.1070 O   0  0  0  0  0  0  0  0  0  0  0  0
  162.6090  211.6260  141.1390 O   0  0  0  0  0  1  0  0  0  0  0  0
  161.1020  212.2870  141.5240 P   0  0  0  0  0  0  0  0  0  0  0  0
  160.2520  211.2340  142.1970 O   0  0  0  0  0  1  0  0  0  0  0  0
  161.8590  208.5450  152.3620 C   0  0  0  0  0  2  0  0  0  0  0  0
  160.8490  205.3510  151.0020 N   0  0  0  0  0  0  0  0  0  0  0  0
  161.8120  206.1610  153.0440 C   0  0  0  0  0  2  0  0  0  0  0  0
  160.6480  206.7970  151.0410 C   0  0  0  0  0  2  0  0  0  0  0  0
  161.0100  207.2810  152.4310 C   0  0  2  0  0  3  0  0  0  0  0  0
  161.9300  205.1190  151.9550 C   0  0  0  0  0  2  0  0  0  0  0  0
  160.8950  203.5410  149.3330 C   0  0  0  0  0  1  0  0  0  0  0  0
  161.3060  204.9740  149.6570 C   0  0  1  0  0  3  0  0  0  0  0  0
  160.6890  205.8940  148.6020 C   0  0  0  0  0  2  0  0  0  0  0  0
  161.6460  206.1350  147.4470 C   0  0  0  0  0  2  0  0  0  0  0  0
  162.4820  207.2140  147.7360 O   0  0  0  0  0  1  0  0  0  0  0  0
  1 11  1  1  0  0  0
  2 15  1  0  0  0  0
  3  5  1  0  0  0  0
  4 16  1  6  0  0  0
  4  9  1  0  0  0  0
  5  1  1  1  0  0  0
  6  4  1  0  0  0  0
  6  2  2  0  0  0  0
  7 14  1  0  0  0  0
  8 13  1  0  0  0  0
  8  7  1  0  0  0  0
  9 15  1  0  0  0  0
  9  3  1  1  0  0  0
  9  5  1  0  0  0  0
 10  7  2  0  0  0  0
 13  6  1  0  0  0  0
 14  2  1  0  0  0  0
 14 12  2  0  0  0  0
 15  5  1  0  0  0  0
 18 17  3  0  0  0  0
 18  1  1  0  0  0  0
 19 20  1  1  0  0  0
 19  8  1  0  0  0  0
 21 19  1  0  0  0  0
 22 21  1  0  0  0  0
 23 22  1  0  0  0  0
 25 24  1  0  0  0  0
 25 23  2  0  0  0  0
 26 25  1  0  0  0  0
 27 29  2  0  0  0  0
 28 29  1  0  0  0  0
 29 30  1  0  0  0  0
 29 26  1  0  0  0  0
 31 12  1  0  0  0  0
 32 34  1  0  0  0  0
 32 36  1  0  0  0  0
 34 35  1  0  0  0  0
 35 31  1  6  0  0  0
 35 33  1  0  0  0  0
 36 33  1  0  0  0  0
 38 37  1  6  0  0  0
 38 32  1  0  0  0  0
 39 38  1  0  0  0  0
 40 41  1  0  0  0  0
 40 39  1  0  0  0  0
M  END
>  <MODEL>
2

>  <REMARK>
 VINA RESULT:      -6.8      1.668      2.718
  Name = 
  12 active torsions:
  status: ('A' for Active; 'I' for Inactive)
    1  A    between atoms: N_1  and  C_31
    2  A    between atoms: C_3  and  C_8
    3  A    between atoms: C_6  and  N_32
    4  A    between atoms: C_6  and  C_38
    5  A    between atoms: N_7  and  N_21
    6  A    between atoms: C_10  and  N_17
    7  A    between atoms: C_10  and  C_39
    8  A    between atoms: C_12  and  C_24
    9  A    between atoms: C_12  and  C_31
   10  A    between atoms: O_18  and  P_19
   11  A    between atoms: O_18  and  C_23
   12  A    between atoms: N_21  and  C_39
                            x       y       z     vdW  Elec       q    Type
                         _______ _______ _______ _____ _____    ______ ____

>  <TORSDO>
F 12

$$$$
=
 OpenBabel11052412163D

 41 45  0  0  1  0  0  0  0  0999 V2000
  160.6120  208.3680  154.9520 C   0  0  1  0  0  3  0  0  0  0  0  0
  161.7290  207.2350  151.7350 C   0  0  0  0  0  0  0  0  0  0  0  0
  160.7180  205.8520  154.4440 N   0  0  0  0  0  2  0  0  0  0  0  0
  161.2390  205.0070  152.2010 C   0  0  2  0  0  3  0  0  0  0  0  0
  161.0020  207.2830  154.2850 C   0  0  2  0  0  0  0  0  0  0  0  0
  161.3880  206.0980  151.1640 C   0  0  0  0  0  0  0  0  0  0  0  0
  161.8040  208.3930  149.5200 C   0  0  0  0  0  0  0  0  0  0  0  0
  161.5000  207.1170  148.9160 N   0  0  0  0  0  0  0  0  0  0  0  0
  161.7430  205.6790  153.5000 C   0  0  1  0  0  0  0  0  0  0  0  0
  162.0600  209.3880  148.7880 O   0  0  0  0  0  0  0  0  0  0  0  0
  159.6720  208.2280  156.0980 C   0  0  0  0  0  1  0  0  0  0  0  0
  162.0340  209.6080  151.6550 N   0  0  0  0  0  0  0  0  0  0  0  0
  160.9990  205.9870  149.7180 C   0  0  0  0  0  2  0  0  0  0  0  0
  161.8660  208.4950  151.0020 C   0  0  0  0  0  0  0  0  0  0  0  0
  161.8640  207.0180  153.1190 N   0  0  0  0  0  0  0  0  0  0  0  0
  162.0710  203.9350  151.8780 O   0  0  0  0  0  1  0  0  0  0  0  0
  161.6890  210.7300  154.4650 C   0  0  0  0  0  3  0  0  0  0  0  0
  161.1810  209.6590  154.6810 C   0  0  0  0  0  0  0  0  0  0  0  0
  161.5370  206.9960  147.4600 C   0  0  2  0  0  3  0  0  0  0  0  0
  160.2090  206.4750  146.9330 C   0  0  0  0  0  1  0  0  0  0  0  0
  162.6850  206.0980  147.0210 C   0  0  0  0  0  2  0  0  0  0  0  0
  162.1630  204.8760  146.4370 N   0  0  0  0  0  2  0  0  0  0  0  0
  161.9840  203.7400  147.2360 N   0  0  0  0  0  0  0  0  0  0  0  0
  160.7420  202.6760  145.4390 C   0  0  0  0  0  1  0  0  0  0  0  0
  161.3300  202.7000  146.8190 C   0  0  0  0  0  0  0  0  0  0  0  0
  161.1920  201.6100  147.6830 O   0  0  0  0  0  0  0  0  0  0  0  0
  158.8560  200.9380  149.0510 O   0  0  0  0  0  0  0  0  0  0  0  0
  161.2770  200.9080  150.3740 O   0  0  0  0  0  1  0  0  0  0  0  0
  160.3630  201.6940  149.1890 P   0  0  0  0  0  0  0  0  0  0  0  0
  160.1690  203.1390  149.5850 O   0  0  0  0  0  1  0  0  0  0  0  0
  162.1340  210.9450  151.0760 C   0  0  0  0  0  2  0  0  0  0  0  0
  159.1030  212.8440  151.6020 N   0  0  0  0  0  0  0  0  0  0  0  0
  160.9010  212.8150  150.0140 C   0  0  0  0  0  2  0  0  0  0  0  0
  159.8090  211.5750  151.7590 C   0  0  0  0  0  2  0  0  0  0  0  0
  160.7720  211.4310  150.5960 C   0  0  2  0  0  3  0  0  0  0  0  0
  160.0620  213.6990  150.9100 C   0  0  0  0  0  2  0  0  0  0  0  0
  157.7320  214.4530  152.8640 C   0  0  0  0  0  1  0  0  0  0  0  0
  158.8350  213.4020  152.9350 C   0  0  1  0  0  3  0  0  0  0  0  0
  158.3820  212.3030  153.8970 C   0  0  0  0  0  2  0  0  0  0  0  0
  158.8720  212.5670  155.3110 C   0  0  0  0  0  2  0  0  0  0  0  0
  158.7970  211.3980  156.0690 O   0  0  0  0  0  1  0  0  0  0  0  0
  1 11  1  1  0  0  0
  2 15  1  0  0  0  0
  4 16  1  6  0  0  0
  4  9  1  0  0  0  0
  5  3  1  0  0  0  0
  5  1  1  1  0  0  0
  6  2  2  0  0  0  0
  6  4  1  0  0  0  0
  7 14  1  0  0  0  0
  8  7  1  0  0  0  0
  8 13  1  0  0  0  0
  9  5  1  0  0  0  0
  9  3  1  1  0  0  0
 10  7  2  0  0  0  0
 13  6  1  0  0  0  0
 14 12  2  0  0  0  0
 14  2  1  0  0  0  0
 15  9  1  0  0  0  0
 15  5  1  0  0  0  0
 17 18  3  0  0  0  0
 18  1  1  0  0  0  0
 19 20  1  1  0  0  0
 19  8  1  0  0  0  0
 21 19  1  0  0  0  0
 22 21  1  0  0  0  0
 22 23  1  0  0  0  0
 24 25  1  0  0  0  0
 25 23  2  0  0  0  0
 25 26  1  0  0  0  0
 26 29  1  0  0  0  0
 27 29  2  0  0  0  0
 29 30  1  0  0  0  0
 29 28  1  0  0  0  0
 31 12  1  0  0  0  0
 32 34  1  0  0  0  0
 32 38  1  0  0  0  0
 33 35  1  0  0  0  0
 33 36  1  0  0  0  0
 35 31  1  1  0  0  0
 35 34  1  0  0  0  0
 36 32  1  0  0  0  0
 38 37  1  6  0  0  0
 38 39  1  0  0  0  0
 39 40  1  0  0  0  0
 40 41  1  0  0  0  0
M  END
>  <MODEL>
3

>  <REMARK>
 VINA RESULT:      -5.6      4.173      8.432
  Name = 
  12 active torsions:
  status: ('A' for Active; 'I' for Inactive)
    1  A    between atoms: N_1  and  C_31
    2  A    between atoms: C_3  and  C_8
    3  A    between atoms: C_6  and  N_32
    4  A    between atoms: C_6  and  C_38
    5  A    between atoms: N_7  and  N_21
    6  A    between atoms: C_10  and  N_17
    7  A    between atoms: C_10  and  C_39
    8  A    between atoms: C_12  and  C_24
    9  A    between atoms: C_12  and  C_31
   10  A    between atoms: O_18  and  P_19
   11  A    between atoms: O_18  and  C_23
   12  A    between atoms: N_21  and  C_39
                            x       y       z     vdW  Elec       q    Type
                         _______ _______ _______ _____ _____    ______ ____

>  <TORSDO>
F 12

$$$$
=
 OpenBabel11052412163D

 41 45  0  0  1  0  0  0  0  0999 V2000
  158.1630  213.2510  155.3210 C   0  0  1  0  0  3  0  0  0  0  0  0
  159.2760  212.1840  152.0810 C   0  0  0  0  0  0  0  0  0  0  0  0
  157.3180  214.4530  153.2140 N   0  0  0  0  0  2  0  0  0  0  0  0
  158.2130  213.9430  150.9880 C   0  0  2  0  0  3  0  0  0  0  0  0
  157.9210  213.3840  154.0180 C   0  0  2  0  0  0  0  0  0  0  0  0
  159.3480  212.9450  151.0080 C   0  0  0  0  0  0  0  0  0  0  0  0
  161.3060  210.9030  151.3800 C   0  0  0  0  0  0  0  0  0  0  0  0
  161.3180  211.7040  150.1790 N   0  0  0  0  0  0  0  0  0  0  0  0
  157.3300  213.5030  152.1810 C   0  0  1  0  0  0  0  0  0  0  0  0
  162.1270  209.9530  151.5070 O   0  0  0  0  0  0  0  0  0  0  0  0
  157.8200  214.3620  156.2490 C   0  0  0  0  0  1  0  0  0  0  0  0
  160.2400  210.5880  153.5820 N   0  0  0  0  0  0  0  0  0  0  0  0
  160.5230  212.9420  150.0730 C   0  0  0  0  0  2  0  0  0  0  0  0
  160.2840  211.1780  152.4230 C   0  0  0  0  0  0  0  0  0  0  0  0
  158.1370  212.5560  152.8180 N   0  0  0  0  0  0  0  0  0  0  0  0
  157.4910  213.8100  149.8010 O   0  0  0  0  0  1  0  0  0  0  0  0
  159.0090  210.9790  156.3700 C   0  0  0  0  0  3  0  0  0  0  0  0
  158.6220  212.0080  155.8750 C   0  0  0  0  0  0  0  0  0  0  0  0
  162.2600  211.3690  149.1120 C   0  0  2  0  0  3  0  0  0  0  0  0
  162.5380  212.5860  148.2430 C   0  0  0  0  0  1  0  0  0  0  0  0
  161.7360  210.2120  148.2740 C   0  0  0  0  0  2  0  0  0  0  0  0
  162.0430  208.9500  148.9220 N   0  0  0  0  0  2  0  0  0  0  0  0
  162.6320  207.9120  148.1910 N   0  0  0  0  0  0  0  0  0  0  0  0
  160.5420  206.6770  148.2630 C   0  0  0  0  0  1  0  0  0  0  0  0
  161.9790  206.8390  147.8660 C   0  0  0  0  0  0  0  0  0  0  0  0
  162.6460  205.8480  147.1410 O   0  0  0  0  0  0  0  0  0  0  0  0
  162.9010  204.0800  144.9980 O   0  0  0  0  0  0  0  0  0  0  0  0
  161.3080  203.4090  147.1470 O   0  0  0  0  0  1  0  0  0  0  0  0
  161.8380  204.6800  146.1680 P   0  0  0  0  0  0  0  0  0  0  0  0
  160.6470  205.3170  145.4900 O   0  0  0  0  0  1  0  0  0  0  0  0
  161.1940  209.6070  154.0910 C   0  0  0  0  0  2  0  0  0  0  0  0
  160.9210  206.2250  152.8420 N   0  0  0  0  0  0  0  0  0  0  0  0
  161.4590  207.2870  154.9250 C   0  0  0  0  0  2  0  0  0  0  0  0
  160.4770  207.6140  152.7560 C   0  0  0  0  0  2  0  0  0  0  0  0
  160.5680  208.2190  154.1430 C   0  0  2  0  0  3  0  0  0  0  0  0
  161.8910  206.2310  153.9320 C   0  0  0  0  0  2  0  0  0  0  0  0
  162.9600  206.5690  151.5030 C   0  0  0  0  0  1  0  0  0  0  0  0
  161.6060  205.8710  151.5910 C   0  0  1  0  0  3  0  0  0  0  0  0
  161.8460  204.3620  151.5180 C   0  0  0  0  0  2  0  0  0  0  0  0
  160.9070  203.6980  150.5240 C   0  0  0  0  0  2  0  0  0  0  0  0
  160.3360  202.5590  151.0930 O   0  0  0  0  0  1  0  0  0  0  0  0
  1 18  1  0  0  0  0
  1 11  1  1  0  0  0
  2 14  1  0  0  0  0
  2 15  1  0  0  0  0
  3  5  1  0  0  0  0
  4 16  1  6  0  0  0
  4  6  1  0  0  0  0
  4  9  1  0  0  0  0
  5  1  1  1  0  0  0
  6  2  2  0  0  0  0
  7 10  2  0  0  0  0
  7 14  1  0  0  0  0
  8  7  1  0  0  0  0
  9 15  1  0  0  0  0
  9  3  1  6  0  0  0
  9  5  1  0  0  0  0
 12 31  1  0  0  0  0
 13  8  1  0  0  0  0
 13  6  1  0  0  0  0
 14 12  2  0  0  0  0
 15  5  1  0  0  0  0
 18 17  3  0  0  0  0
 19 20  1  6  0  0  0
 19  8  1  0  0  0  0
 21 22  1  0  0  0  0
 21 19  1  0  0  0  0
 23 22  1  0  0  0  0
 25 23  2  0  0  0  0
 25 24  1  0  0  0  0
 26 25  1  0  0  0  0
 27 29  2  0  0  0  0
 29 26  1  0  0  0  0
 29 28  1  0  0  0  0
 30 29  1  0  0  0  0
 32 36  1  0  0  0  0
 34 32  1  0  0  0  0
 34 35  1  0  0  0  0
 35 31  1  6  0  0  0
 35 33  1  0  0  0  0
 36 33  1  0  0  0  0
 38 37  1  1  0  0  0
 38 32  1  0  0  0  0
 39 38  1  0  0  0  0
 40 41  1  0  0  0  0
 40 39  1  0  0  0  0
M  END
>  <MODEL>
4

>  <REMARK>
 VINA RESULT:      -5.6      3.616      5.721
  Name = 
  12 active torsions:
  status: ('A' for Active; 'I' for Inactive)
    1  A    between atoms: N_1  and  C_31
    2  A    between atoms: C_3  and  C_8
    3  A    between atoms: C_6  and  N_32
    4  A    between atoms: C_6  and  C_38
    5  A    between atoms: N_7  and  N_21
    6  A    between atoms: C_10  and  N_17
    7  A    between atoms: C_10  and  C_39
    8  A    between atoms: C_12  and  C_24
    9  A    between atoms: C_12  and  C_31
   10  A    between atoms: O_18  and  P_19
   11  A    between atoms: O_18  and  C_23
   12  A    between atoms: N_21  and  C_39
                            x       y       z     vdW  Elec       q    Type
                         _______ _______ _______ _____ _____    ______ ____

>  <TORSDO>
F 12

$$$$
=
 OpenBabel11052412163D

 41 45  0  0  1  0  0  0  0  0999 V2000
  161.3970  206.5450  147.4730 C   0  0  1  0  0  3  0  0  0  0  0  0
  161.8980  207.4220  150.9160 C   0  0  0  0  0  0  0  0  0  0  0  0
  161.4930  209.0160  148.1660 N   0  0  0  0  0  2  0  0  0  0  0  0
  161.5910  209.6960  150.5210 C   0  0  2  0  0  3  0  0  0  0  0  0
  161.6870  207.5660  148.2770 C   0  0  2  0  0  0  0  0  0  0  0  0
  161.4930  208.5370  151.4890 C   0  0  0  0  0  0  0  0  0  0  0  0
  161.4920  206.1280  153.0180 C   0  0  0  0  0  0  0  0  0  0  0  0
  161.1220  207.3780  153.6390 N   0  0  0  0  0  0  0  0  0  0  0  0
  162.3170  209.0800  149.3010 C   0  0  1  0  0  0  0  0  0  0  0  0
  161.5630  205.0790  153.7140 O   0  0  0  0  0  0  0  0  0  0  0  0
  160.7080  206.8010  146.1790 C   0  0  0  0  0  1  0  0  0  0  0  0
  162.0940  205.0360  150.8890 N   0  0  0  0  0  0  0  0  0  0  0  0
  160.8300  208.5790  152.8350 C   0  0  0  0  0  2  0  0  0  0  0  0
  161.8420  206.1150  151.5730 C   0  0  0  0  0  0  0  0  0  0  0  0
  162.3120  207.7160  149.6040 N   0  0  0  0  0  0  0  0  0  0  0  0
  162.3820  210.7030  151.0740 O   0  0  0  0  0  1  0  0  0  0  0  0
  162.2590  204.0980  147.9710 C   0  0  0  0  0  3  0  0  0  0  0  0
  161.8540  205.2130  147.7580 C   0  0  0  0  0  0  0  0  0  0  0  0
  160.8750  207.4080  155.0790 C   0  0  2  0  0  3  0  0  0  0  0  0
  159.3810  207.4340  155.3650 C   0  0  0  0  0  1  0  0  0  0  0  0
  161.5710  208.5990  155.7230 C   0  0  0  0  0  2  0  0  0  0  0  0
  160.5920  209.6000  156.1030 N   0  0  0  0  0  2  0  0  0  0  0  0
  160.4950  210.7950  155.3800 N   0  0  0  0  0  0  0  0  0  0  0  0
  158.2070  211.0730  156.1490 C   0  0  0  0  0  1  0  0  0  0  0  0
  159.4120  211.5080  155.3670 C   0  0  0  0  0  0  0  0  0  0  0  0
  159.3990  212.6860  154.6130 O   0  0  0  0  0  0  0  0  0  0  0  0
  156.9940  213.3380  153.3590 O   0  0  0  0  0  1  0  0  0  0  0  0
  159.3890  213.9760  152.1490 O   0  0  0  0  0  0  0  0  0  0  0  0
  158.5880  212.8340  153.1020 P   0  0  0  0  0  0  0  0  0  0  0  0
  158.5880  211.5010  152.3900 O   0  0  0  0  0  1  0  0  0  0  0  0
  162.0300  203.6630  151.3820 C   0  0  0  0  0  2  0  0  0  0  0  0
  160.1330  201.7590  148.9640 N   0  0  0  0  0  0  0  0  0  0  0  0
  160.7930  201.5180  151.2570 C   0  0  0  0  0  2  0  0  0  0  0  0
  160.5680  203.0700  149.4370 C   0  0  0  0  0  2  0  0  0  0  0  0
  160.7350  202.9910  150.9420 C   0  0  2  0  0  3  0  0  0  0  0  0
  160.7260  200.8250  149.9150 C   0  0  0  0  0  2  0  0  0  0  0  0
  161.5790  200.2680  147.6400 C   0  0  0  0  0  1  0  0  0  0  0  0
  160.7100  201.5220  147.6330 C   0  0  1  0  0  3  0  0  0  0  0  0
  159.6040  201.3270  146.5950 C   0  0  0  0  0  2  0  0  0  0  0  0
  160.0800  201.6990  145.2010 C   0  0  0  0  0  2  0  0  0  0  0  0
  160.8260  202.8770  145.2480 O   0  0  0  0  0  1  0  0  0  0  0  0
  1 11  1  6  0  0  0
  1 18  1  0  0  0  0
  2  6  2  0  0  0  0
  2 14  1  0  0  0  0
  3  5  1  0  0  0  0
  4 16  1  1  0  0  0
  4  6  1  0  0  0  0
  5  1  1  6  0  0  0
  5  9  1  0  0  0  0
  5 15  1  0  0  0  0
  6 13  1  0  0  0  0
  7  8  1  0  0  0  0
  7 10  2  0  0  0  0
  8 19  1  0  0  0  0
  9  3  1  6  0  0  0
  9 15  1  0  0  0  0
  9  4  1  0  0  0  0
 12 31  1  0  0  0  0
 12 14  2  0  0  0  0
 13  8  1  0  0  0  0
 14  7  1  0  0  0  0
 15  2  1  0  0  0  0
 18 17  3  0  0  0  0
 19 20  1  6  0  0  0
 19 21  1  0  0  0  0
 21 22  1  0  0  0  0
 23 22  1  0  0  0  0
 25 23  2  0  0  0  0
 25 24  1  0  0  0  0
 26 25  1  0  0  0  0
 28 29  2  0  0  0  0
 29 27  1  0  0  0  0
 29 26  1  0  0  0  0
 30 29  1  0  0  0  0
 32 34  1  0  0  0  0
 32 36  1  0  0  0  0
 34 35  1  0  0  0  0
 35 33  1  0  0  0  0
 35 31  1  6  0  0  0
 36 33  1  0  0  0  0
 38 37  1  1  0  0  0
 38 32  1  0  0  0  0
 39 38  1  0  0  0  0
 40 41  1  0  0  0  0
 40 39  1  0  0  0  0
M  END
>  <MODEL>
5

>  <REMARK>
 VINA RESULT:      -5.0      4.331      7.112
  Name = 
  12 active torsions:
  status: ('A' for Active; 'I' for Inactive)
    1  A    between atoms: N_1  and  C_31
    2  A    between atoms: C_3  and  C_8
    3  A    between atoms: C_6  and  N_32
    4  A    between atoms: C_6  and  C_38
    5  A    between atoms: N_7  and  N_21
    6  A    between atoms: C_10  and  N_17
    7  A    between atoms: C_10  and  C_39
    8  A    between atoms: C_12  and  C_24
    9  A    between atoms: C_12  and  C_31
   10  A    between atoms: O_18  and  P_19
   11  A    between atoms: O_18  and  C_23
   12  A    between atoms: N_21  and  C_39
                            x       y       z     vdW  Elec       q    Type
                         _______ _______ _______ _____ _____    ______ ____

>  <TORSDO>
F 12

$$$$
