=
 OpenBabel11052410513D

 28 30  0  0  1  0  0  0  0  0999 V2000
  161.1290  208.1890  151.8640 C   0  0  2  0  0  3  0  0  0  0  0  0
  161.6030  210.2930  150.8190 O   0  0  0  0  0  0  0  0  0  0  0  0
  162.3110  207.7060  148.2930 N   0  0  0  0  0  1  0  0  0  0  0  0
  161.5270  207.4430  150.5810 C   0  0  2  0  0  3  0  0  0  0  0  0
  161.5830  208.3710  149.3620 C   0  0  1  0  0  3  0  0  0  0  0  0
  161.8940  209.5070  151.9440 C   0  0  0  0  0  2  0  0  0  0  0  0
  162.2720  209.6990  149.7340 C   0  0  1  0  0  3  0  0  0  0  0  0
  162.2990  210.6890  148.5720 C   0  0  0  0  0  3  0  0  0  0  0  0
  162.5930  211.9670  149.0140 F   0  0  0  0  0  0  0  0  0  0  0  0
  161.0950  210.6860  147.8910 F   0  0  0  0  0  0  0  0  0  0  0  0
  160.6000  206.3920  150.3320 O   0  0  0  0  0  0  0  0  0  0  0  0
  161.6250  204.7830  148.2970 O   0  0  0  0  0  0  0  0  0  0  0  0
  161.4640  202.7270  149.5160 C   0  0  1  0  0  3  0  0  0  0  0  0
  160.7730  204.4730  151.7440 C   0  0  0  0  0  3  0  0  0  0  0  0
  161.3540  204.2270  149.3960 C   0  0  0  0  0  0  0  0  0  0  0  0
  161.4400  202.2530  150.9480 C   0  0  0  0  0  3  0  0  0  0  0  0
  160.8970  205.0400  150.5370 C   0  0  0  0  0  0  0  0  0  0  0  0
  161.1000  203.0520  151.9630 C   0  0  0  0  0  3  0  0  0  0  0  0
  160.3810  202.0580  148.7300 C   0  0  0  0  0  0  0  0  0  0  0  0
  159.3250  201.6290  149.3370 N   0  0  0  0  0  1  0  0  0  0  0  0
  160.5630  201.7690  147.3460 N   0  0  0  0  0  2  0  0  0  0  0  0
  161.4620  207.3630  153.1020 C   0  0  0  0  0  2  0  0  0  0  0  0
  160.6940  207.8230  154.3360 C   0  0  1  0  0  3  0  0  0  0  0  0
  160.1200  206.6100  155.0340 C   0  0  0  0  0  1  0  0  0  0  0  0
  161.6040  208.5630  155.3020 C   0  0  0  0  0  2  0  0  0  0  0  0
  162.4680  210.6870  155.7820 C   0  0  0  0  0  2  0  0  0  0  0  0
  161.3930  210.4120  156.7240 C   0  0  0  0  0  2  0  0  0  0  0  0
  161.2650  209.9750  155.3270 N   0  0  0  0  0  0  0  0  0  0  0  0
  1  6  1  0  0  0  0
  1 22  1  1  0  0  0
  2  6  1  0  0  0  0
  4 11  1  6  0  0  0
  4  1  1  0  0  0  0
  5  3  1  6  0  0  0
  5  7  1  0  0  0  0
  5  4  1  0  0  0  0
  7  8  1  6  0  0  0
  7  2  1  0  0  0  0
  8  9  1  0  0  0  0
 10  8  1  0  0  0  0
 11 17  1  0  0  0  0
 12 15  2  0  0  0  0
 13 19  1  6  0  0  0
 13 16  1  0  0  0  0
 14 18  1  0  0  0  0
 15 13  1  0  0  0  0
 15 17  1  0  0  0  0
 16 18  2  0  0  0  0
 17 14  2  0  0  0  0
 19 20  1  0  0  0  0
 21 19  2  0  0  0  0
 22 23  1  0  0  0  0
 23 24  1  1  0  0  0
 23 25  1  0  0  0  0
 25 28  1  0  0  0  0
 26 27  1  0  0  0  0
 28 26  1  0  0  0  0
 28 27  1  0  0  0  0
M  END
>  <MODEL>
1

>  <REMARK>
 VINA RESULT:      -7.2      0.000      0.000
  Name = 
  8 active torsions:
  status: ('A' for Active; 'I' for Inactive)
    1  A    between atoms: C_1  and  C_26
    2  A    between atoms: C_3  and  C_7
    3  A    between atoms: C_5  and  C_12
    4  A    between atoms: O_11  and  C_15
    5  A    between atoms: O_11  and  C_20
    6  A    between atoms: C_12  and  C_14
    7  A    between atoms: C_14  and  C_25
    8  A    between atoms: N_17  and  C_25
                            x       y       z     vdW  Elec       q    Type
                         _______ _______ _______ _____ _____    ______ ____

>  <TORSDO>
F 8

$$$$
=
 OpenBabel11052410513D

 28 30  0  0  1  0  0  0  0  0999 V2000
  161.3330  205.7940  150.8050 C   0  0  2  0  0  3  0  0  0  0  0  0
  161.2550  207.6670  152.2990 O   0  0  0  0  0  0  0  0  0  0  0  0
  162.1130  209.0270  148.9830 N   0  0  0  0  0  1  0  0  0  0  0  0
  161.6980  206.7200  149.6350 C   0  0  2  0  0  3  0  0  0  0  0  0
  161.4160  208.1940  149.9510 C   0  0  1  0  0  3  0  0  0  0  0  0
  161.8350  206.4030  152.1120 C   0  0  0  0  0  2  0  0  0  0  0  0
  161.8790  208.5310  151.3820 C   0  0  1  0  0  3  0  0  0  0  0  0
  161.5640  209.9730  151.7730 C   0  0  0  0  0  3  0  0  0  0  0  0
  162.4430  210.4300  152.7400 F   0  0  0  0  0  0  0  0  0  0  0  0
  160.2610  210.0920  152.2210 F   0  0  0  0  0  0  0  0  0  0  0  0
  160.9650  206.3370  148.4760 O   0  0  0  0  0  0  0  0  0  0  0  0
  159.6460  206.1940  146.0230 O   0  0  0  0  0  0  0  0  0  0  0  0
  161.2850  204.8140  144.9520 C   0  0  1  0  0  3  0  0  0  0  0  0
  162.8210  205.3050  147.3790 C   0  0  0  0  0  3  0  0  0  0  0  0
  160.7730  205.6350  146.1090 C   0  0  0  0  0  0  0  0  0  0  0  0
  162.7570  204.5000  145.0660 C   0  0  0  0  0  3  0  0  0  0  0  0
  161.5590  205.7550  147.3500 C   0  0  0  0  0  0  0  0  0  0  0  0
  163.4490  204.7060  146.1890 C   0  0  0  0  0  3  0  0  0  0  0  0
  160.4940  203.5520  144.8130 C   0  0  0  0  0  0  0  0  0  0  0  0
  159.3990  203.5590  144.1290 N   0  0  0  0  0  2  0  0  0  0  0  0
  160.8630  202.3830  145.5400 N   0  0  0  0  0  1  0  0  0  0  0  0
  161.9760  204.4210  150.6370 C   0  0  0  0  0  2  0  0  0  0  0  0
  161.4360  203.3950  151.6270 C   0  0  1  0  0  3  0  0  0  0  0  0
  160.2230  203.9760  152.3200 C   0  0  0  0  0  1  0  0  0  0  0  0
  161.0330  202.1120  150.9190 C   0  0  0  0  0  2  0  0  0  0  0  0
  159.7620  201.5320  149.0390 C   0  0  0  0  0  2  0  0  0  0  0  0
  161.1220  201.0540  148.8320 C   0  0  0  0  0  2  0  0  0  0  0  0
  160.8980  202.3480  149.4930 N   0  0  0  0  0  0  0  0  0  0  0  0
  1 22  1  6  0  0  0
  1  6  1  0  0  0  0
  4 11  1  6  0  0  0
  4  5  1  0  0  0  0
  4  1  1  0  0  0  0
  5  3  1  6  0  0  0
  5  7  1  0  0  0  0
  6  2  1  0  0  0  0
  7  8  1  1  0  0  0
  7  2  1  0  0  0  0
  8 10  1  0  0  0  0
  8  9  1  0  0  0  0
 12 15  2  0  0  0  0
 13 19  1  1  0  0  0
 13 16  1  0  0  0  0
 13 15  1  0  0  0  0
 15 17  1  0  0  0  0
 16 18  2  0  0  0  0
 17 14  2  0  0  0  0
 17 11  1  0  0  0  0
 18 14  1  0  0  0  0
 19 21  1  0  0  0  0
 20 19  2  0  0  0  0
 22 23  1  0  0  0  0
 23 24  1  6  0  0  0
 25 23  1  0  0  0  0
 26 28  1  0  0  0  0
 27 26  1  0  0  0  0
 27 28  1  0  0  0  0
 28 25  1  0  0  0  0
M  END
>  <MODEL>
2

>  <REMARK>
 VINA RESULT:      -7.1      2.693      5.350
  Name = 
  8 active torsions:
  status: ('A' for Active; 'I' for Inactive)
    1  A    between atoms: C_1  and  C_26
    2  A    between atoms: C_3  and  C_7
    3  A    between atoms: C_5  and  C_12
    4  A    between atoms: O_11  and  C_15
    5  A    between atoms: O_11  and  C_20
    6  A    between atoms: C_12  and  C_14
    7  A    between atoms: C_14  and  C_25
    8  A    between atoms: N_17  and  C_25
                            x       y       z     vdW  Elec       q    Type
                         _______ _______ _______ _____ _____    ______ ____

>  <TORSDO>
F 8

$$$$
=
 OpenBabel11052410513D

 28 30  0  0  1  0  0  0  0  0999 V2000
  161.4600  207.9790  151.1780 C   0  0  2  0  0  3  0  0  0  0  0  0
  161.7550  210.3480  150.9640 O   0  0  0  0  0  0  0  0  0  0  0  0
  161.9900  208.9670  147.5550 N   0  0  0  0  0  1  0  0  0  0  0  0
  161.6210  207.8040  149.6600 C   0  0  2  0  0  3  0  0  0  0  0  0
  161.4670  209.1280  148.9030 C   0  0  1  0  0  3  0  0  0  0  0  0
  162.2360  209.2120  151.6330 C   0  0  0  0  0  2  0  0  0  0  0  0
  162.2180  210.2550  149.6390 C   0  0  1  0  0  3  0  0  0  0  0  0
  162.0460  211.6120  148.9620 C   0  0  0  0  0  3  0  0  0  0  0  0
  163.2730  212.1950  148.6940 F   0  0  0  0  0  0  0  0  0  0  0  0
  161.2760  212.4600  149.7390 F   0  0  0  0  0  0  0  0  0  0  0  0
  160.6580  206.8720  149.1820 O   0  0  0  0  0  0  0  0  0  0  0  0
  162.3470  206.2480  147.0520 O   0  0  0  0  0  0  0  0  0  0  0  0
  161.9650  203.8840  147.1310 C   0  0  1  0  0  3  0  0  0  0  0  0
  160.5280  204.5200  149.5840 C   0  0  0  0  0  3  0  0  0  0  0  0
  161.7980  205.2870  147.6580 C   0  0  0  0  0  0  0  0  0  0  0  0
  161.5470  202.8320  148.1290 C   0  0  0  0  0  3  0  0  0  0  0  0
  160.9690  205.5490  148.8480 C   0  0  0  0  0  0  0  0  0  0  0  0
  160.8680  203.1280  149.2400 C   0  0  0  0  0  3  0  0  0  0  0  0
  161.2130  203.7120  145.8500 C   0  0  0  0  0  0  0  0  0  0  0  0
  160.8520  202.5300  145.4760 N   0  0  0  0  0  1  0  0  0  0  0  0
  161.0120  204.8190  144.9740 N   0  0  0  0  0  2  0  0  0  0  0  0
  162.0010  206.7670  151.9290 C   0  0  0  0  0  2  0  0  0  0  0  0
  161.0340  206.2530  152.9890 C   0  0  1  0  0  3  0  0  0  0  0  0
  161.0860  204.7420  153.0080 C   0  0  0  0  0  1  0  0  0  0  0  0
  161.4030  206.7780  154.3660 C   0  0  0  0  0  2  0  0  0  0  0  0
  160.9570  208.3510  156.0430 C   0  0  0  0  0  2  0  0  0  0  0  0
  159.9450  207.3070  156.1210 C   0  0  0  0  0  2  0  0  0  0  0  0
  160.4260  207.7570  154.8070 N   0  0  0  0  0  0  0  0  0  0  0  0
  1  6  1  0  0  0  0
  1 22  1  1  0  0  0
  2  6  1  0  0  0  0
  4 11  1  6  0  0  0
  4  1  1  0  0  0  0
  5  3  1  6  0  0  0
  5  7  1  0  0  0  0
  5  4  1  0  0  0  0
  7  8  1  6  0  0  0
  7  2  1  0  0  0  0
  8 10  1  0  0  0  0
  9  8  1  0  0  0  0
 12 15  2  0  0  0  0
 13 19  1  6  0  0  0
 13 15  1  0  0  0  0
 13 16  1  0  0  0  0
 15 17  1  0  0  0  0
 16 18  2  0  0  0  0
 17 11  1  0  0  0  0
 17 14  2  0  0  0  0
 18 14  1  0  0  0  0
 20 19  1  0  0  0  0
 21 19  2  0  0  0  0
 22 23  1  0  0  0  0
 23 24  1  1  0  0  0
 23 25  1  0  0  0  0
 25 28  1  0  0  0  0
 26 27  1  0  0  0  0
 28 26  1  0  0  0  0
 28 27  1  0  0  0  0
M  END
>  <MODEL>
3

>  <REMARK>
 VINA RESULT:      -6.8      1.682      2.271
  Name = 
  8 active torsions:
  status: ('A' for Active; 'I' for Inactive)
    1  A    between atoms: C_1  and  C_26
    2  A    between atoms: C_3  and  C_7
    3  A    between atoms: C_5  and  C_12
    4  A    between atoms: O_11  and  C_15
    5  A    between atoms: O_11  and  C_20
    6  A    between atoms: C_12  and  C_14
    7  A    between atoms: C_14  and  C_25
    8  A    between atoms: N_17  and  C_25
                            x       y       z     vdW  Elec       q    Type
                         _______ _______ _______ _____ _____    ______ ____

>  <TORSDO>
F 8

$$$$
=
 OpenBabel11052410513D

 28 30  0  0  1  0  0  0  0  0999 V2000
  161.2560  209.3150  152.7260 C   0  0  2  0  0  3  0  0  0  0  0  0
  160.7230  210.7510  154.5700 O   0  0  0  0  0  0  0  0  0  0  0  0
  160.2070  207.3030  155.7650 N   0  0  0  0  0  1  0  0  0  0  0  0
  160.9300  208.0760  153.5740 C   0  0  2  0  0  3  0  0  0  0  0  0
  160.8710  208.3970  155.0730 C   0  0  1  0  0  3  0  0  0  0  0  0
  160.4310  210.5010  153.2200 C   0  0  0  0  0  2  0  0  0  0  0  0
  160.1140  209.7190  155.3060 C   0  0  1  0  0  3  0  0  0  0  0  0
  160.0800  210.1200  156.7780 C   0  0  0  0  0  3  0  0  0  0  0  0
  158.9060  210.7870  157.0860 F   0  0  0  0  0  0  0  0  0  0  0  0
  161.1720  210.9050  157.1040 F   0  0  0  0  0  0  0  0  0  0  0  0
  161.9100  207.0690  153.3450 O   0  0  0  0  0  0  0  0  0  0  0  0
  163.1700  206.4850  150.9270 O   0  0  0  0  0  0  0  0  0  0  0  0
  161.8530  204.5440  150.4350 C   0  0  1  0  0  3  0  0  0  0  0  0
  160.8310  204.9470  153.1340 C   0  0  0  0  0  3  0  0  0  0  0  0
  162.2820  205.6830  151.3270 C   0  0  0  0  0  0  0  0  0  0  0  0
  161.0520  203.4980  151.1700 C   0  0  0  0  0  3  0  0  0  0  0  0
  161.6470  205.8890  152.6410 C   0  0  0  0  0  0  0  0  0  0  0  0
  160.5660  203.6980  152.3990 C   0  0  0  0  0  3  0  0  0  0  0  0
  161.0820  205.0590  149.2620 C   0  0  0  0  0  0  0  0  0  0  0  0
  160.0820  205.8530  149.4560 N   0  0  0  0  0  1  0  0  0  0  0  0
  161.3530  204.5760  147.9490 N   0  0  0  0  0  2  0  0  0  0  0  0
  160.9210  209.0760  151.2570 C   0  0  0  0  0  2  0  0  0  0  0  0
  162.0500  209.4940  150.3230 C   0  0  1  0  0  3  0  0  0  0  0  0
  161.9560  208.6840  149.0490 C   0  0  0  0  0  1  0  0  0  0  0  0
  161.9560  210.9710  149.9780 C   0  0  0  0  0  2  0  0  0  0  0  0
  162.7380  212.3600  148.2610 C   0  0  0  0  0  2  0  0  0  0  0  0
  161.2830  212.4320  148.2760 C   0  0  0  0  0  2  0  0  0  0  0  0
  161.9510  211.1490  148.5370 N   0  0  0  0  0  0  0  0  0  0  0  0
  1 22  1  6  0  0  0
  1  6  1  0  0  0  0
  1  4  1  0  0  0  0
  2  7  1  0  0  0  0
  4 11  1  1  0  0  0
  4  5  1  0  0  0  0
  5  7  1  0  0  0  0
  5  3  1  1  0  0  0
  6  2  1  0  0  0  0
  7  8  1  1  0  0  0
  8  9  1  0  0  0  0
  8 10  1  0  0  0  0
 12 15  2  0  0  0  0
 13 19  1  6  0  0  0
 13 16  1  0  0  0  0
 13 15  1  0  0  0  0
 15 17  1  0  0  0  0
 16 18  2  0  0  0  0
 17 14  2  0  0  0  0
 17 11  1  0  0  0  0
 18 14  1  0  0  0  0
 19 20  1  0  0  0  0
 21 19  2  0  0  0  0
 23 24  1  6  0  0  0
 23 22  1  0  0  0  0
 25 23  1  0  0  0  0
 26 27  1  0  0  0  0
 26 28  1  0  0  0  0
 27 28  1  0  0  0  0
 28 25  1  0  0  0  0
M  END
>  <MODEL>
4

>  <REMARK>
 VINA RESULT:      -6.3      3.108      5.239
  Name = 
  8 active torsions:
  status: ('A' for Active; 'I' for Inactive)
    1  A    between atoms: C_1  and  C_26
    2  A    between atoms: C_3  and  C_7
    3  A    between atoms: C_5  and  C_12
    4  A    between atoms: O_11  and  C_15
    5  A    between atoms: O_11  and  C_20
    6  A    between atoms: C_12  and  C_14
    7  A    between atoms: C_14  and  C_25
    8  A    between atoms: N_17  and  C_25
                            x       y       z     vdW  Elec       q    Type
                         _______ _______ _______ _____ _____    ______ ____

>  <TORSDO>
F 8

$$$$
=
 OpenBabel11052410513D

 28 30  0  0  1  0  0  0  0  0999 V2000
  161.2750  208.9180  152.7560 C   0  0  2  0  0  3  0  0  0  0  0  0
  160.1780  207.2980  154.1400 O   0  0  0  0  0  0  0  0  0  0  0  0
  161.7960  209.6860  156.4330 N   0  0  0  0  0  1  0  0  0  0  0  0
  161.7860  209.6610  154.0000 C   0  0  2  0  0  3  0  0  0  0  0  0
  161.0370  209.2460  155.2720 C   0  0  1  0  0  3  0  0  0  0  0  0
  161.0930  207.4390  153.0850 C   0  0  0  0  0  2  0  0  0  0  0  0
  160.8450  207.7170  155.3040 C   0  0  1  0  0  3  0  0  0  0  0  0
  160.0490  207.2530  156.5210 C   0  0  0  0  0  3  0  0  0  0  0  0
  160.7640  206.3270  157.2610 F   0  0  0  0  0  0  0  0  0  0  0  0
  158.8300  206.7200  156.1410 F   0  0  0  0  0  0  0  0  0  0  0  0
  161.6500  211.0640  153.8090 O   0  0  0  0  0  0  0  0  0  0  0  0
  160.3800  212.5810  155.7750 O   0  0  0  0  0  0  0  0  0  0  0  0
  158.3420  212.8940  154.5560 C   0  0  1  0  0  3  0  0  0  0  0  0
  159.8280  211.6540  152.3780 C   0  0  0  0  0  3  0  0  0  0  0  0
  159.7630  212.4050  154.6900 C   0  0  0  0  0  0  0  0  0  0  0  0
  157.8650  212.9160  153.1240 C   0  0  0  0  0  3  0  0  0  0  0  0
  160.4190  211.6920  153.5800 C   0  0  0  0  0  0  0  0  0  0  0  0
  158.5400  212.3260  152.1340 C   0  0  0  0  0  3  0  0  0  0  0  0
  157.4210  212.0660  155.3960 C   0  0  0  0  0  0  0  0  0  0  0  0
  157.5750  210.7840  155.4350 N   0  0  0  0  0  2  0  0  0  0  0  0
  156.2980  212.6600  156.0400 N   0  0  0  0  0  1  0  0  0  0  0  0
  162.2680  209.0360  151.6030 C   0  0  0  0  0  2  0  0  0  0  0  0
  161.6000  208.9080  150.2390 C   0  0  1  0  0  3  0  0  0  0  0  0
  162.0990  210.0200  149.3440 C   0  0  0  0  0  1  0  0  0  0  0  0
  161.9240  207.5710  149.5940 C   0  0  0  0  0  2  0  0  0  0  0  0
  161.1320  205.4040  149.1900 C   0  0  0  0  0  2  0  0  0  0  0  0
  160.7700  206.2390  148.0520 C   0  0  0  0  0  2  0  0  0  0  0  0
  160.7100  206.7950  149.4120 N   0  0  0  0  0  0  0  0  0  0  0  0
  1 22  1  6  0  0  0
  1  6  1  0  0  0  0
  1  4  1  0  0  0  0
  2  7  1  0  0  0  0
  4 11  1  6  0  0  0
  4  5  1  0  0  0  0
  5  7  1  0  0  0  0
  5  3  1  1  0  0  0
  6  2  1  0  0  0  0
  7  8  1  1  0  0  0
  8  9  1  0  0  0  0
 10  8  1  0  0  0  0
 13 15  1  0  0  0  0
 13 19  1  1  0  0  0
 14 17  2  0  0  0  0
 15 12  2  0  0  0  0
 16 13  1  0  0  0  0
 17 11  1  0  0  0  0
 17 15  1  0  0  0  0
 18 14  1  0  0  0  0
 18 16  2  0  0  0  0
 19 20  2  0  0  0  0
 19 21  1  0  0  0  0
 23 24  1  6  0  0  0
 23 22  1  0  0  0  0
 25 23  1  0  0  0  0
 26 28  1  0  0  0  0
 27 26  1  0  0  0  0
 27 28  1  0  0  0  0
 28 25  1  0  0  0  0
M  END
>  <MODEL>
5

>  <REMARK>
 VINA RESULT:      -6.2      3.959      8.428
  Name = 
  8 active torsions:
  status: ('A' for Active; 'I' for Inactive)
    1  A    between atoms: C_1  and  C_26
    2  A    between atoms: C_3  and  C_7
    3  A    between atoms: C_5  and  C_12
    4  A    between atoms: O_11  and  C_15
    5  A    between atoms: O_11  and  C_20
    6  A    between atoms: C_12  and  C_14
    7  A    between atoms: C_14  and  C_25
    8  A    between atoms: N_17  and  C_25
                            x       y       z     vdW  Elec       q    Type
                         _______ _______ _______ _____ _____    ______ ____

>  <TORSDO>
F 8

$$$$
=
 OpenBabel11052410513D

 28 30  0  0  1  0  0  0  0  0999 V2000
  161.5870  206.4420  150.7930 C   0  0  2  0  0  3  0  0  0  0  0  0
  162.0900  204.2990  151.7420 O   0  0  0  0  0  0  0  0  0  0  0  0
  160.2440  203.6380  148.6210 N   0  0  0  0  0  1  0  0  0  0  0  0
  160.8700  205.7710  149.6120 C   0  0  2  0  0  3  0  0  0  0  0  0
  161.2140  204.2810  149.4940 C   0  0  1  0  0  3  0  0  0  0  0  0
  161.4980  205.5410  152.0210 C   0  0  0  0  0  2  0  0  0  0  0  0
  161.2040  203.6200  150.8870 C   0  0  1  0  0  3  0  0  0  0  0  0
  161.6020  202.1470  150.8370 C   0  0  0  0  0  3  0  0  0  0  0  0
  160.4900  201.3350  150.7020 F   0  0  0  0  0  0  0  0  0  0  0  0
  162.3190  201.7890  151.9660 F   0  0  0  0  0  0  0  0  0  0  0  0
  161.2210  206.4330  148.4010 O   0  0  0  0  0  0  0  0  0  0  0  0
  159.8250  206.2150  145.9970 O   0  0  0  0  0  0  0  0  0  0  0  0
  161.3770  204.7160  144.9550 C   0  0  1  0  0  3  0  0  0  0  0  0
  163.0010  205.2710  147.3100 C   0  0  0  0  0  3  0  0  0  0  0  0
  160.9310  205.6160  146.0810 C   0  0  0  0  0  0  0  0  0  0  0  0
  162.8370  204.3490  145.0450 C   0  0  0  0  0  3  0  0  0  0  0  0
  161.7580  205.7690  147.2920 C   0  0  0  0  0  0  0  0  0  0  0  0
  163.5710  204.5850  146.1370 C   0  0  0  0  0  3  0  0  0  0  0  0
  160.5330  203.4820  144.9060 C   0  0  0  0  0  0  0  0  0  0  0  0
  160.9360  202.4100  145.5020 N   0  0  0  0  0  1  0  0  0  0  0  0
  159.3610  203.4380  144.0960 N   0  0  0  0  0  2  0  0  0  0  0  0
  160.9420  207.7820  151.1330 C   0  0  0  0  0  2  0  0  0  0  0  0
  161.7210  208.5560  152.1900 C   0  0  1  0  0  3  0  0  0  0  0  0
  162.1420  209.8890  151.6100 C   0  0  0  0  0  1  0  0  0  0  0  0
  160.8710  208.8010  153.4260 C   0  0  0  0  0  2  0  0  0  0  0  0
  160.2080  207.8960  155.4820 C   0  0  0  0  0  2  0  0  0  0  0  0
  161.3330  208.7890  155.7220 C   0  0  0  0  0  2  0  0  0  0  0  0
  161.3150  207.9490  154.5150 N   0  0  0  0  0  0  0  0  0  0  0  0
  1 22  1  1  0  0  0
  1  6  1  0  0  0  0
  2  6  1  0  0  0  0
  4 11  1  6  0  0  0
  4  1  1  0  0  0  0
  5  3  1  6  0  0  0
  5  4  1  0  0  0  0
  5  7  1  0  0  0  0
  7  8  1  6  0  0  0
  7  2  1  0  0  0  0
  8 10  1  0  0  0  0
  9  8  1  0  0  0  0
 12 15  2  0  0  0  0
 13 19  1  1  0  0  0
 13 16  1  0  0  0  0
 13 15  1  0  0  0  0
 15 17  1  0  0  0  0
 16 18  2  0  0  0  0
 17 14  2  0  0  0  0
 17 11  1  0  0  0  0
 18 14  1  0  0  0  0
 19 20  1  0  0  0  0
 21 19  2  0  0  0  0
 22 23  1  0  0  0  0
 23 24  1  6  0  0  0
 23 25  1  0  0  0  0
 25 28  1  0  0  0  0
 26 27  1  0  0  0  0
 28 26  1  0  0  0  0
 28 27  1  0  0  0  0
M  END
>  <MODEL>
6

>  <REMARK>
 VINA RESULT:      -6.1      3.568      5.071
  Name = 
  8 active torsions:
  status: ('A' for Active; 'I' for Inactive)
    1  A    between atoms: C_1  and  C_26
    2  A    between atoms: C_3  and  C_7
    3  A    between atoms: C_5  and  C_12
    4  A    between atoms: O_11  and  C_15
    5  A    between atoms: O_11  and  C_20
    6  A    between atoms: C_12  and  C_14
    7  A    between atoms: C_14  and  C_25
    8  A    between atoms: N_17  and  C_25
                            x       y       z     vdW  Elec       q    Type
                         _______ _______ _______ _____ _____    ______ ____

>  <TORSDO>
F 8

$$$$
=
 OpenBabel11052410513D

 28 30  0  0  1  0  0  0  0  0999 V2000
  161.8610  208.3870  150.8570 C   0  0  2  0  0  3  0  0  0  0  0  0
  162.4500  209.2110  148.6850 O   0  0  0  0  0  0  0  0  0  0  0  0
  161.2030  212.1120  150.5850 N   0  0  0  0  0  1  0  0  0  0  0  0
  161.4190  209.7930  151.2900 C   0  0  2  0  0  3  0  0  0  0  0  0
  161.9450  210.8830  150.3480 C   0  0  1  0  0  3  0  0  0  0  0  0
  161.6840  208.2400  149.3480 C   0  0  0  0  0  2  0  0  0  0  0  0
  161.7930  210.4380  148.8800 C   0  0  1  0  0  3  0  0  0  0  0  0
  162.3580  211.4600  147.8980 C   0  0  0  0  0  3  0  0  0  0  0  0
  163.3650  212.2100  148.4830 F   0  0  0  0  0  0  0  0  0  0  0  0
  161.3620  212.2930  147.4200 F   0  0  0  0  0  0  0  0  0  0  0  0
  161.8780  210.0520  152.6130 O   0  0  0  0  0  0  0  0  0  0  0  0
  160.1180  212.1480  153.1490 O   0  0  0  0  0  0  0  0  0  0  0  0
  159.4530  211.3540  155.3100 C   0  0  1  0  0  3  0  0  0  0  0  0
  160.9850  208.9920  154.5600 C   0  0  0  0  0  3  0  0  0  0  0  0
  160.1950  211.2230  154.0020 C   0  0  0  0  0  0  0  0  0  0  0  0
  159.3680  210.0510  156.0650 C   0  0  0  0  0  3  0  0  0  0  0  0
  161.0370  210.0440  153.7320 C   0  0  0  0  0  0  0  0  0  0  0  0
  160.0900  208.9780  155.7300 C   0  0  0  0  0  3  0  0  0  0  0  0
  160.0810  212.4090  156.1650 C   0  0  0  0  0  0  0  0  0  0  0  0
  161.0370  212.0890  156.9720 N   0  0  0  0  0  1  0  0  0  0  0  0
  159.5450  213.7290  156.1960 N   0  0  0  0  0  2  0  0  0  0  0  0
  161.0240  207.3140  151.5460 C   0  0  0  0  0  2  0  0  0  0  0  0
  161.8760  206.2260  152.1880 C   0  0  1  0  0  3  0  0  0  0  0  0
  161.2110  205.7760  153.4690 C   0  0  0  0  0  1  0  0  0  0  0  0
  162.0260  205.0310  151.2620 C   0  0  0  0  0  2  0  0  0  0  0  0
  160.8270  203.4290  150.0450 C   0  0  0  0  0  2  0  0  0  0  0  0
  161.2050  204.5000  149.1340 C   0  0  0  0  0  2  0  0  0  0  0  0
  160.8010  204.8230  150.5100 N   0  0  0  0  0  0  0  0  0  0  0  0
  1  4  1  0  0  0  0
  1 22  1  1  0  0  0
  2  7  1  0  0  0  0
  2  6  1  0  0  0  0
  4 11  1  1  0  0  0
  5  3  1  6  0  0  0
  5  4  1  0  0  0  0
  6  1  1  0  0  0  0
  7  8  1  6  0  0  0
  7  5  1  0  0  0  0
  8  9  1  0  0  0  0
 10  8  1  0  0  0  0
 11 17  1  0  0  0  0
 12 15  2  0  0  0  0
 13 16  1  0  0  0  0
 13 19  1  1  0  0  0
 14 18  1  0  0  0  0
 15 13  1  0  0  0  0
 17 15  1  0  0  0  0
 17 14  2  0  0  0  0
 18 16  2  0  0  0  0
 19 21  2  0  0  0  0
 19 20  1  0  0  0  0
 22 23  1  0  0  0  0
 23 24  1  1  0  0  0
 25 23  1  0  0  0  0
 26 28  1  0  0  0  0
 27 26  1  0  0  0  0
 27 28  1  0  0  0  0
 28 25  1  0  0  0  0
M  END
>  <MODEL>
7

>  <REMARK>
 VINA RESULT:      -6.1      2.222      7.026
  Name = 
  8 active torsions:
  status: ('A' for Active; 'I' for Inactive)
    1  A    between atoms: C_1  and  C_26
    2  A    between atoms: C_3  and  C_7
    3  A    between atoms: C_5  and  C_12
    4  A    between atoms: O_11  and  C_15
    5  A    between atoms: O_11  and  C_20
    6  A    between atoms: C_12  and  C_14
    7  A    between atoms: C_14  and  C_25
    8  A    between atoms: N_17  and  C_25
                            x       y       z     vdW  Elec       q    Type
                         _______ _______ _______ _____ _____    ______ ____

>  <TORSDO>
F 8

$$$$
=
 OpenBabel11052410513D

 28 30  0  0  1  0  0  0  0  0999 V2000
  161.3780  205.7820  149.4050 C   0  0  2  0  0  3  0  0  0  0  0  0
  161.0970  203.5440  148.5960 O   0  0  0  0  0  0  0  0  0  0  0  0
  160.6510  203.3830  152.2510 N   0  0  0  0  0  1  0  0  0  0  0  0
  161.1400  205.3100  150.8480 C   0  0  2  0  0  3  0  0  0  0  0  0
  160.5050  203.9150  150.9050 C   0  0  1  0  0  3  0  0  0  0  0  0
  161.9730  204.6400  148.5870 C   0  0  0  0  0  2  0  0  0  0  0  0
  161.1790  202.9800  149.8810 C   0  0  1  0  0  3  0  0  0  0  0  0
  160.5420  201.5930  149.8510 C   0  0  0  0  0  3  0  0  0  0  0  0
  161.3620  200.6830  149.2050 F   0  0  0  0  0  0  0  0  0  0  0  0
  159.3010  201.6300  149.2410 F   0  0  0  0  0  0  0  0  0  0  0  0
  160.2990  206.2390  151.5220 O   0  0  0  0  0  0  0  0  0  0  0  0
  161.1540  205.6320  154.1070 O   0  0  0  0  0  0  0  0  0  0  0  0
  161.4410  207.9070  154.8030 C   0  0  1  0  0  3  0  0  0  0  0  0
  160.9300  208.4950  151.9950 C   0  0  0  0  0  3  0  0  0  0  0  0
  161.1380  206.8480  153.7720 C   0  0  0  0  0  0  0  0  0  0  0  0
  161.7120  209.2580  154.1880 C   0  0  0  0  0  3  0  0  0  0  0  0
  160.7840  207.2230  152.3910 C   0  0  0  0  0  0  0  0  0  0  0  0
  161.4540  209.5280  152.9060 C   0  0  0  0  0  3  0  0  0  0  0  0
  160.3290  208.0030  155.7980 C   0  0  0  0  0  0  0  0  0  0  0  0
  159.6070  209.0720  155.8450 N   0  0  0  0  0  2  0  0  0  0  0  0
  160.1490  206.9880  156.7830 N   0  0  0  0  0  1  0  0  0  0  0  0
  162.3500  206.9570  149.3690 C   0  0  0  0  0  2  0  0  0  0  0  0
  162.0910  207.8970  148.1970 C   0  0  1  0  0  3  0  0  0  0  0  0
  161.1240  207.2320  147.2420 C   0  0  0  0  0  1  0  0  0  0  0  0
  161.4920  209.2110  148.6700 C   0  0  0  0  0  2  0  0  0  0  0  0
  162.0490  211.3170  149.5290 C   0  0  0  0  0  2  0  0  0  0  0  0
  161.7840  211.4640  148.1050 C   0  0  0  0  0  2  0  0  0  0  0  0
  162.4840  210.2680  148.5950 N   0  0  0  0  0  0  0  0  0  0  0  0
  1 22  1  1  0  0  0
  1  4  1  0  0  0  0
  2  7  1  0  0  0  0
  4  5  1  0  0  0  0
  4 11  1  6  0  0  0
  5  3  1  1  0  0  0
  6  2  1  0  0  0  0
  6  1  1  0  0  0  0
  7  8  1  6  0  0  0
  7  5  1  0  0  0  0
  9  8  1  0  0  0  0
 10  8  1  0  0  0  0
 11 17  1  0  0  0  0
 13 19  1  1  0  0  0
 14 17  2  0  0  0  0
 14 18  1  0  0  0  0
 15 12  2  0  0  0  0
 15 13  1  0  0  0  0
 16 13  1  0  0  0  0
 17 15  1  0  0  0  0
 18 16  2  0  0  0  0
 19 20  2  0  0  0  0
 19 21  1  0  0  0  0
 23 24  1  6  0  0  0
 23 25  1  0  0  0  0
 23 22  1  0  0  0  0
 27 28  1  0  0  0  0
 27 26  1  0  0  0  0
 28 25  1  0  0  0  0
 28 26  1  0  0  0  0
M  END
>  <MODEL>
8

>  <REMARK>
 VINA RESULT:      -5.9      3.335      7.019
  Name = 
  8 active torsions:
  status: ('A' for Active; 'I' for Inactive)
    1  A    between atoms: C_1  and  C_26
    2  A    between atoms: C_3  and  C_7
    3  A    between atoms: C_5  and  C_12
    4  A    between atoms: O_11  and  C_15
    5  A    between atoms: O_11  and  C_20
    6  A    between atoms: C_12  and  C_14
    7  A    between atoms: C_14  and  C_25
    8  A    between atoms: N_17  and  C_25
                            x       y       z     vdW  Elec       q    Type
                         _______ _______ _______ _____ _____    ______ ____

>  <TORSDO>
F 8

$$$$
=
 OpenBabel11052410513D

 28 30  0  0  1  0  0  0  0  0999 V2000
  160.9920  207.5290  152.2000 C   0  0  2  0  0  3  0  0  0  0  0  0
  160.8930  207.0230  154.5400 O   0  0  0  0  0  0  0  0  0  0  0  0
  161.5900  210.6330  154.2950 N   0  0  0  0  0  1  0  0  0  0  0  0
  161.2830  209.0040  152.5130 C   0  0  2  0  0  3  0  0  0  0  0  0
  160.9570  209.3650  153.9680 C   0  0  1  0  0  3  0  0  0  0  0  0
  161.5130  206.6550  153.3370 C   0  0  0  0  0  2  0  0  0  0  0  0
  161.4530  208.2560  154.9160 C   0  0  1  0  0  3  0  0  0  0  0  0
  161.0990  208.5330  156.3750 C   0  0  0  0  0  3  0  0  0  0  0  0
  162.2350  208.5800  157.1640 F   0  0  0  0  0  0  0  0  0  0  0  0
  160.2210  207.5800  156.8610 F   0  0  0  0  0  0  0  0  0  0  0  0
  160.5270  209.8370  151.6400 O   0  0  0  0  0  0  0  0  0  0  0  0
  160.0930  212.5910  151.5670 O   0  0  0  0  0  0  0  0  0  0  0  0
  161.1840  212.9480  149.4630 C   0  0  1  0  0  3  0  0  0  0  0  0
  161.9630  210.1550  149.7560 C   0  0  0  0  0  3  0  0  0  0  0  0
  160.7680  212.0850  150.6290 C   0  0  0  0  0  0  0  0  0  0  0  0
  162.2490  212.3030  148.6110 C   0  0  0  0  0  3  0  0  0  0  0  0
  161.1090  210.6510  150.6620 C   0  0  0  0  0  0  0  0  0  0  0  0
  162.5850  211.0160  148.7350 C   0  0  0  0  0  3  0  0  0  0  0  0
  159.9970  213.3060  148.6270 C   0  0  0  0  0  0  0  0  0  0  0  0
  159.8210  212.7250  147.4880 N   0  0  0  0  0  2  0  0  0  0  0  0
  159.1380  214.3770  149.0110 N   0  0  0  0  0  1  0  0  0  0  0  0
  161.6790  207.0980  150.9080 C   0  0  0  0  0  2  0  0  0  0  0  0
  160.8070  206.1850  150.0560 C   0  0  1  0  0  3  0  0  0  0  0  0
  160.8230  206.6850  148.6280 C   0  0  0  0  0  1  0  0  0  0  0  0
  161.3210  204.7550  150.0840 C   0  0  0  0  0  2  0  0  0  0  0  0
  161.1930  203.1960  151.8270 C   0  0  0  0  0  2  0  0  0  0  0  0
  160.8340  202.5200  150.5880 C   0  0  0  0  0  2  0  0  0  0  0  0
  160.3970  203.9050  150.8140 N   0  0  0  0  0  0  0  0  0  0  0  0
  1 22  1  6  0  0  0
  1  4  1  0  0  0  0
  1  6  1  0  0  0  0
  2  7  1  0  0  0  0
  4 11  1  6  0  0  0
  4  5  1  0  0  0  0
  5  3  1  1  0  0  0
  5  7  1  0  0  0  0
  6  2  1  0  0  0  0
  7  8  1  1  0  0  0
  8 10  1  0  0  0  0
  8  9  1  0  0  0  0
 13 19  1  6  0  0  0
 13 15  1  0  0  0  0
 14 17  2  0  0  0  0
 15 17  1  0  0  0  0
 15 12  2  0  0  0  0
 16 18  2  0  0  0  0
 16 13  1  0  0  0  0
 17 11  1  0  0  0  0
 18 14  1  0  0  0  0
 19 21  1  0  0  0  0
 20 19  2  0  0  0  0
 23 24  1  6  0  0  0
 23 25  1  0  0  0  0
 23 22  1  0  0  0  0
 25 28  1  0  0  0  0
 27 28  1  0  0  0  0
 27 26  1  0  0  0  0
 28 26  1  0  0  0  0
M  END
>  <MODEL>
9

>  <REMARK>
 VINA RESULT:      -5.9      3.471      7.657
  Name = 
  8 active torsions:
  status: ('A' for Active; 'I' for Inactive)
    1  A    between atoms: C_1  and  C_26
    2  A    between atoms: C_3  and  C_7
    3  A    between atoms: C_5  and  C_12
    4  A    between atoms: O_11  and  C_15
    5  A    between atoms: O_11  and  C_20
    6  A    between atoms: C_12  and  C_14
    7  A    between atoms: C_14  and  C_25
    8  A    between atoms: N_17  and  C_25
                            x       y       z     vdW  Elec       q    Type
                         _______ _______ _______ _____ _____    ______ ____

>  <TORSDO>
F 8

$$$$
