=
 OpenBabel11052411363D

 43 49  0  0  1  0  0  0  0  0999 V2000
  161.1390  204.1470  148.5390 C   0  0  0  0  0  0  0  0  0  0  0  0
  162.2490  209.0270  151.0800 C   0  0  0  0  0  0  0  0  0  0  0  0
  160.6320  211.5220  151.6790 C   0  0  0  0  0  0  0  0  0  0  0  0
  161.7530  205.4680  150.6230 C   0  0  0  0  0  3  0  0  0  0  0  0
  161.2300  206.5420  147.7200 C   0  0  0  0  0  3  0  0  0  0  0  0
  161.8260  206.7500  150.2770 C   0  0  0  0  0  0  0  0  0  0  0  0
  162.1580  207.6490  151.2990 O   0  0  0  0  0  0  0  0  0  0  0  0
  161.5820  207.3000  148.9210 C   0  0  0  0  0  0  0  0  0  0  0  0
  161.0470  205.2350  147.5630 C   0  0  0  0  0  3  0  0  0  0  0  0
  161.3500  210.6830  152.5550 O   0  0  0  0  0  0  0  0  0  0  0  0
  162.0380  209.5350  149.8600 C   0  0  0  0  0  0  0  0  0  0  0  0
  162.5240  209.9400  152.2290 C   0  0  0  0  0  2  0  0  0  0  0  0
  161.4400  204.2760  149.8300 C   0  0  0  0  0  3  0  0  0  0  0  0
  160.8860  202.8330  148.0590 N   0  0  0  0  0  1  0  0  0  0  0  0
  161.6850  208.6220  148.7550 C   0  0  0  0  0  3  0  0  0  0  0  0
  160.9450  211.6950  150.3840 C   0  0  0  0  0  3  0  0  0  0  0  0
  162.0840  211.0310  149.6670 C   0  0  2  0  0  3  0  0  0  0  0  0
  158.7360  213.0240  151.3740 N   0  0  0  0  0  0  0  0  0  0  0  0
  157.6890  213.7530  151.8300 C   0  0  0  0  0  3  0  0  0  0  0  0
  159.0640  212.1360  153.5670 C   0  0  0  0  0  0  0  0  0  0  0  0
  159.4480  212.2200  152.2080 C   0  0  0  0  0  0  0  0  0  0  0  0
  158.0170  212.9000  153.9810 N   0  0  0  0  0  0  0  0  0  0  0  0
  157.3470  213.6870  153.1410 N   0  0  0  0  0  0  0  0  0  0  0  0
  160.9240  209.4170  156.3160 C   0  0  0  0  0  0  0  0  0  0  0  0
  161.5710  208.4670  157.2610 C   0  0  0  0  0  1  0  0  0  0  0  0
  159.7200  209.0740  155.6920 C   0  0  0  0  0  3  0  0  0  0  0  0
  159.6980  211.2170  154.5410 C   0  0  0  0  0  0  0  0  0  0  0  0
  161.5280  210.6480  156.0430 C   0  0  0  0  0  3  0  0  0  0  0  0
  160.9200  211.5400  155.1550 C   0  0  0  0  0  3  0  0  0  0  0  0
  159.1130  209.9680  154.8040 C   0  0  0  0  0  3  0  0  0  0  0  0
  162.0580  211.3880  148.2570 N   0  0  0  0  0  2  0  0  0  0  0  0
  163.1400  212.2490  148.0310 N   0  0  0  0  0  2  0  0  0  0  0  0
  162.5950  213.4690  147.4620 C   0  0  0  0  0  2  0  0  0  0  0  0
  162.6840  213.3590  144.7030 C   0  0  0  0  0  0  0  0  0  0  0  0
  162.3080  213.2670  146.0530 N   0  0  0  0  0  0  0  0  0  0  0  0
  161.4150  212.9330  145.0220 C   0  0  0  0  0  0  0  0  0  0  0  0
  159.9720  212.3440  141.6670 C   0  0  0  0  0  1  0  0  0  0  0  0
  162.2440  213.1470  142.4660 C   0  0  0  0  0  3  0  0  0  0  0  0
  160.8900  212.6910  142.7870 C   0  0  0  0  0  0  0  0  0  0  0  0
  163.2230  213.5120  143.4580 C   0  0  0  0  0  3  0  0  0  0  0  0
  160.4300  212.5750  144.1460 C   0  0  0  0  0  0  0  0  0  0  0  0
  159.1470  212.1540  144.5030 O   0  0  0  0  0  0  0  0  0  0  0  0
  158.4250  212.7570  145.5670 C   0  0  0  0  0  1  0  0  0  0  0  0
  1 13  2  0  0  0  0
  2  7  1  0  0  0  0
  2 12  1  0  0  0  0
  3 21  1  0  0  0  0
  3 10  1  0  0  0  0
  5  8  1  0  0  0  0
  6  4  2  0  0  0  0
  6  7  1  0  0  0  0
  8  6  1  0  0  0  0
  9  5  2  0  0  0  0
  9  1  1  0  0  0  0
 11  2  2  0  0  0  0
 12 10  1  0  0  0  0
 13  4  1  0  0  0  0
 14  1  1  0  0  0  0
 15  8  2  0  0  0  0
 15 11  1  0  0  0  0
 16  3  2  0  0  0  0
 17 31  1  6  0  0  0
 17 11  1  0  0  0  0
 17 16  1  0  0  0  0
 18 19  2  0  0  0  0
 18 21  1  0  0  0  0
 19 23  1  0  0  0  0
 20 22  1  0  0  0  0
 20 27  1  0  0  0  0
 21 20  2  0  0  0  0
 23 22  2  0  0  0  0
 24 25  1  0  0  0  0
 26 24  2  0  0  0  0
 27 30  2  0  0  0  0
 27 29  1  0  0  0  0
 28 24  1  0  0  0  0
 29 28  2  0  0  0  0
 30 26  1  0  0  0  0
 32 31  1  0  0  0  0
 33 32  1  0  0  0  0
 34 36  1  0  0  0  0
 34 35  1  0  0  0  0
 35 33  1  0  0  0  0
 36 35  1  0  0  0  0
 37 39  1  0  0  0  0
 38 39  2  0  0  0  0
 38 40  1  0  0  0  0
 39 41  1  0  0  0  0
 40 34  2  0  0  0  0
 41 42  1  0  0  0  0
 41 36  2  0  0  0  0
 42 43  1  0  0  0  0
M  END
>  <MODEL>
1

>  <REMARK>
 VINA RESULT:      -8.4      0.000      0.000
  Name = 
  7 active torsions:
  status: ('A' for Active; 'I' for Inactive)
    1  A    between atoms: N_4  and  N_32
    2  A    between atoms: N_4  and  C_42
    3  A    between atoms: C_6  and  C_21
    4  A    between atoms: C_7  and  C_15
    5  A    between atoms: N_10  and  C_29
    6  A    between atoms: O_26  and  C_43
    7  A    between atoms: C_29  and  N_32
                            x       y       z     vdW  Elec       q    Type
                         _______ _______ _______ _____ _____    ______ ____

>  <TORSDO>
F 7

$$$$
=
 OpenBabel11052411363D

 43 49  0  0  1  0  0  0  0  0999 V2000
  161.0760  203.6360  150.3110 C   0  0  0  0  0  0  0  0  0  0  0  0
  162.2910  208.8720  151.9240 C   0  0  0  0  0  0  0  0  0  0  0  0
  160.6620  211.3970  152.3340 C   0  0  0  0  0  0  0  0  0  0  0  0
  161.8840  205.2770  152.0780 C   0  0  0  0  0  3  0  0  0  0  0  0
  160.9740  205.8760  149.1330 C   0  0  0  0  0  3  0  0  0  0  0  0
  161.8640  206.4900  151.5340 C   0  0  0  0  0  0  0  0  0  0  0  0
  162.2810  207.5440  152.3590 O   0  0  0  0  0  0  0  0  0  0  0  0
  161.4380  206.8180  150.1520 C   0  0  0  0  0  0  0  0  0  0  0  0
  160.8250  204.5570  149.2000 C   0  0  0  0  0  3  0  0  0  0  0  0
  161.5120  210.7180  153.2320 O   0  0  0  0  0  0  0  0  0  0  0  0
  161.9160  209.1800  150.6770 C   0  0  0  0  0  0  0  0  0  0  0  0
  162.6660  209.9580  152.8780 C   0  0  0  0  0  2  0  0  0  0  0  0
  161.5240  203.9700  151.5190 C   0  0  0  0  0  3  0  0  0  0  0  0
  160.8190  202.2590  150.0700 N   0  0  0  0  0  1  0  0  0  0  0  0
  161.4680  208.0990  149.7760 C   0  0  0  0  0  3  0  0  0  0  0  0
  160.8100  211.3730  150.9990 C   0  0  0  0  0  3  0  0  0  0  0  0
  161.8800  210.6290  150.2560 C   0  0  2  0  0  3  0  0  0  0  0  0
  159.0130  213.1870  152.1860 N   0  0  0  0  0  0  0  0  0  0  0  0
  158.0220  213.9590  152.6930 C   0  0  0  0  0  3  0  0  0  0  0  0
  158.9850  211.8600  154.1720 C   0  0  0  0  0  0  0  0  0  0  0  0
  159.5240  212.1450  152.8950 C   0  0  0  0  0  0  0  0  0  0  0  0
  158.0020  212.6730  154.6450 N   0  0  0  0  0  0  0  0  0  0  0  0
  157.5330  213.6950  153.9300 N   0  0  0  0  0  0  0  0  0  0  0  0
  160.2220  208.4550  156.4710 C   0  0  0  0  0  0  0  0  0  0  0  0
  160.6580  207.2720  157.2600 C   0  0  0  0  0  1  0  0  0  0  0  0
  159.5890  208.2790  155.2360 C   0  0  0  0  0  3  0  0  0  0  0  0
  159.3880  210.6900  154.9870 C   0  0  0  0  0  0  0  0  0  0  0  0
  160.4560  209.7430  156.9590 C   0  0  0  0  0  3  0  0  0  0  0  0
  160.0470  210.8550  156.2170 C   0  0  0  0  0  3  0  0  0  0  0  0
  159.1790  209.3920  154.4950 C   0  0  0  0  0  3  0  0  0  0  0  0
  161.6720  210.7620  148.8220 N   0  0  0  0  0  2  0  0  0  0  0  0
  162.7480  211.5030  148.3170 N   0  0  0  0  0  2  0  0  0  0  0  0
  162.2700  212.8600  148.1210 C   0  0  0  0  0  2  0  0  0  0  0  0
  160.0160  212.7430  146.5290 C   0  0  0  0  0  0  0  0  0  0  0  0
  161.3220  212.8920  147.0220 N   0  0  0  0  0  0  0  0  0  0  0  0
  161.0440  212.9920  145.6480 C   0  0  0  0  0  0  0  0  0  0  0  0
  159.2460  213.0570  142.4160 C   0  0  0  0  0  1  0  0  0  0  0  0
  158.4990  212.6890  144.8140 C   0  0  0  0  0  3  0  0  0  0  0  0
  159.5810  212.9550  143.8640 C   0  0  0  0  0  0  0  0  0  0  0  0
  158.6940  212.5680  146.2370 C   0  0  0  0  0  3  0  0  0  0  0  0
  160.9450  213.1160  144.2920 C   0  0  0  0  0  0  0  0  0  0  0  0
  162.0130  213.3620  143.4250 O   0  0  0  0  0  0  0  0  0  0  0  0
  163.3560  213.4130  143.8800 C   0  0  0  0  0  1  0  0  0  0  0  0
  1 13  2  0  0  0  0
  2  7  1  0  0  0  0
  2 12  1  0  0  0  0
  3 21  1  0  0  0  0
  3 10  1  0  0  0  0
  5  9  2  0  0  0  0
  5  8  1  0  0  0  0
  6  4  2  0  0  0  0
  6  7  1  0  0  0  0
  8  6  1  0  0  0  0
  9  1  1  0  0  0  0
 11  2  2  0  0  0  0
 12 10  1  0  0  0  0
 13  4  1  0  0  0  0
 14  1  1  0  0  0  0
 15  8  2  0  0  0  0
 15 11  1  0  0  0  0
 16  3  2  0  0  0  0
 17 31  1  6  0  0  0
 17 11  1  0  0  0  0
 17 16  1  0  0  0  0
 18 19  2  0  0  0  0
 18 21  1  0  0  0  0
 19 23  1  0  0  0  0
 20 22  1  0  0  0  0
 20 27  1  0  0  0  0
 21 20  2  0  0  0  0
 23 22  2  0  0  0  0
 24 28  1  0  0  0  0
 24 25  1  0  0  0  0
 26 24  2  0  0  0  0
 27 29  1  0  0  0  0
 29 28  2  0  0  0  0
 30 27  2  0  0  0  0
 30 26  1  0  0  0  0
 32 31  1  0  0  0  0
 33 32  1  0  0  0  0
 34 35  1  0  0  0  0
 35 33  1  0  0  0  0
 36 34  2  0  0  0  0
 36 35  1  0  0  0  0
 37 39  1  0  0  0  0
 38 40  2  0  0  0  0
 39 41  2  0  0  0  0
 39 38  1  0  0  0  0
 40 34  1  0  0  0  0
 41 36  1  0  0  0  0
 42 43  1  0  0  0  0
 42 41  1  0  0  0  0
M  END
>  <MODEL>
2

>  <REMARK>
 VINA RESULT:      -7.8      1.175      1.876
  Name = 
  7 active torsions:
  status: ('A' for Active; 'I' for Inactive)
    1  A    between atoms: N_4  and  N_32
    2  A    between atoms: N_4  and  C_42
    3  A    between atoms: C_6  and  C_21
    4  A    between atoms: C_7  and  C_15
    5  A    between atoms: N_10  and  C_29
    6  A    between atoms: O_26  and  C_43
    7  A    between atoms: C_29  and  N_32
                            x       y       z     vdW  Elec       q    Type
                         _______ _______ _______ _____ _____    ______ ____

>  <TORSDO>
F 7

$$$$
=
 OpenBabel11052411363D

 43 49  0  0  1  0  0  0  0  0999 V2000
  160.9610  204.3620  147.3090 C   0  0  0  0  0  0  0  0  0  0  0  0
  162.1810  208.6580  150.7070 C   0  0  0  0  0  0  0  0  0  0  0  0
  160.6800  211.1280  151.6270 C   0  0  0  0  0  0  0  0  0  0  0  0
  161.5050  205.2700  149.6210 C   0  0  0  0  0  3  0  0  0  0  0  0
  161.2540  206.8470  146.9180 C   0  0  0  0  0  3  0  0  0  0  0  0
  161.6790  206.5840  149.5030 C   0  0  0  0  0  0  0  0  0  0  0  0
  161.9920  207.2740  150.6820 O   0  0  0  0  0  0  0  0  0  0  0  0
  161.5660  207.3680  148.2490 C   0  0  0  0  0  0  0  0  0  0  0  0
  161.0050  205.6010  146.5290 C   0  0  0  0  0  3  0  0  0  0  0  0
  161.2820  210.1050  152.3880 O   0  0  0  0  0  0  0  0  0  0  0  0
  162.0890  209.3760  149.5820 C   0  0  0  0  0  0  0  0  0  0  0  0
  162.4280  209.3460  152.0100 C   0  0  0  0  0  2  0  0  0  0  0  0
  161.1770  204.2530  148.6180 C   0  0  0  0  0  3  0  0  0  0  0  0
  160.6640  203.1680  146.5960 N   0  0  0  0  0  1  0  0  0  0  0  0
  161.7590  208.6880  148.3180 C   0  0  0  0  0  3  0  0  0  0  0  0
  161.0930  211.4910  150.4010 C   0  0  0  0  0  3  0  0  0  0  0  0
  162.2380  210.8760  149.6510 C   0  0  2  0  0  3  0  0  0  0  0  0
  158.7210  212.5580  151.3730 N   0  0  0  0  0  0  0  0  0  0  0  0
  157.6780  213.2730  151.8600 C   0  0  0  0  0  3  0  0  0  0  0  0
  159.2020  211.7720  153.5770 C   0  0  0  0  0  0  0  0  0  0  0  0
  159.5060  211.8110  152.1960 C   0  0  0  0  0  0  0  0  0  0  0  0
  158.1550  212.5190  154.0210 N   0  0  0  0  0  0  0  0  0  0  0  0
  157.4140  213.2510  153.1900 N   0  0  0  0  0  0  0  0  0  0  0  0
  161.3180  209.2370  156.3160 C   0  0  0  0  0  0  0  0  0  0  0  0
  162.0550  208.3520  157.2580 C   0  0  0  0  0  1  0  0  0  0  0  0
  160.2250  208.7400  155.5980 C   0  0  0  0  0  3  0  0  0  0  0  0
  159.9200  210.9130  154.5480 C   0  0  0  0  0  0  0  0  0  0  0  0
  161.7270  210.5620  156.1420 C   0  0  0  0  0  3  0  0  0  0  0  0
  161.0340  211.3930  155.2560 C   0  0  0  0  0  3  0  0  0  0  0  0
  159.5330  209.5740  154.7130 C   0  0  0  0  0  3  0  0  0  0  0  0
  162.3340  211.4640  148.3230 N   0  0  0  0  0  2  0  0  0  0  0  0
  161.9770  212.8140  148.4450 N   0  0  0  0  0  2  0  0  0  0  0  0
  161.7010  213.2980  147.1040 C   0  0  0  0  0  2  0  0  0  0  0  0
  159.0260  213.8210  147.5530 C   0  0  0  0  0  0  0  0  0  0  0  0
  160.2890  213.6100  146.9760 N   0  0  0  0  0  0  0  0  0  0  0  0
  159.1500  213.8220  146.1820 C   0  0  0  0  0  0  0  0  0  0  0  0
  155.6600  214.4520  145.1290 C   0  0  0  0  0  1  0  0  0  0  0  0
  156.7760  214.2150  147.3970 C   0  0  0  0  0  3  0  0  0  0  0  0
  156.8900  214.2220  145.9370 C   0  0  0  0  0  0  0  0  0  0  0  0
  157.8900  214.0030  148.2870 C   0  0  0  0  0  3  0  0  0  0  0  0
  158.1480  214.0090  145.2730 C   0  0  0  0  0  0  0  0  0  0  0  0
  158.3070  213.9970  143.8840 O   0  0  0  0  0  0  0  0  0  0  0  0
  159.3610  213.2850  143.2530 C   0  0  0  0  0  1  0  0  0  0  0  0
  1 13  2  0  0  0  0
  2 12  1  0  0  0  0
  3 21  1  0  0  0  0
  3 10  1  0  0  0  0
  5  8  1  0  0  0  0
  6  4  2  0  0  0  0
  6  7  1  0  0  0  0
  7  2  1  0  0  0  0
  8 15  2  0  0  0  0
  8  6  1  0  0  0  0
  9  5  2  0  0  0  0
  9  1  1  0  0  0  0
 11 17  1  0  0  0  0
 11  2  2  0  0  0  0
 12 10  1  0  0  0  0
 13  4  1  0  0  0  0
 14  1  1  0  0  0  0
 15 11  1  0  0  0  0
 16  3  2  0  0  0  0
 17 31  1  6  0  0  0
 17 16  1  0  0  0  0
 18 19  2  0  0  0  0
 18 21  1  0  0  0  0
 19 23  1  0  0  0  0
 20 22  1  0  0  0  0
 20 27  1  0  0  0  0
 21 20  2  0  0  0  0
 23 22  2  0  0  0  0
 24 25  1  0  0  0  0
 26 24  2  0  0  0  0
 27 30  2  0  0  0  0
 27 29  1  0  0  0  0
 28 24  1  0  0  0  0
 29 28  2  0  0  0  0
 30 26  1  0  0  0  0
 31 32  1  0  0  0  0
 33 32  1  0  0  0  0
 34 40  1  0  0  0  0
 35 33  1  0  0  0  0
 35 34  1  0  0  0  0
 36 35  1  0  0  0  0
 36 34  2  0  0  0  0
 37 39  1  0  0  0  0
 38 40  2  0  0  0  0
 39 38  1  0  0  0  0
 41 39  2  0  0  0  0
 41 36  1  0  0  0  0
 42 41  1  0  0  0  0
 43 42  1  0  0  0  0
M  END
>  <MODEL>
3

>  <REMARK>
 VINA RESULT:      -6.9      1.275      2.369
  Name = 
  7 active torsions:
  status: ('A' for Active; 'I' for Inactive)
    1  A    between atoms: N_4  and  N_32
    2  A    between atoms: N_4  and  C_42
    3  A    between atoms: C_6  and  C_21
    4  A    between atoms: C_7  and  C_15
    5  A    between atoms: N_10  and  C_29
    6  A    between atoms: O_26  and  C_43
    7  A    between atoms: C_29  and  N_32
                            x       y       z     vdW  Elec       q    Type
                         _______ _______ _______ _____ _____    ______ ____

>  <TORSDO>
F 7

$$$$
=
 OpenBabel11052411363D

 43 49  0  0  1  0  0  0  0  0999 V2000
  160.4730  208.1660  155.3400 C   0  0  0  0  0  0  0  0  0  0  0  0
  162.3610  210.7280  150.7170 C   0  0  0  0  0  0  0  0  0  0  0  0
  161.1200  211.4860  148.0560 C   0  0  0  0  0  0  0  0  0  0  0  0
  161.3850  210.2310  154.1690 C   0  0  0  0  0  3  0  0  0  0  0  0
  160.8180  207.3930  152.9530 C   0  0  0  0  0  3  0  0  0  0  0  0
  161.5990  209.9070  152.8970 C   0  0  0  0  0  0  0  0  0  0  0  0
  162.1090  210.9230  152.0780 O   0  0  0  0  0  0  0  0  0  0  0  0
  161.3410  208.5830  152.2810 C   0  0  0  0  0  0  0  0  0  0  0  0
  160.4590  207.2210  154.2210 C   0  0  0  0  0  3  0  0  0  0  0  0
  161.7790  212.2950  149.0050 O   0  0  0  0  0  0  0  0  0  0  0  0
  162.1400  209.5360  150.1510 C   0  0  0  0  0  0  0  0  0  0  0  0
  162.8240  211.8740  149.8800 C   0  0  0  0  0  2  0  0  0  0  0  0
  160.8700  209.4360  155.2880 C   0  0  0  0  0  3  0  0  0  0  0  0
  160.0240  207.6760  156.5960 N   0  0  0  0  0  1  0  0  0  0  0  0
  161.6020  208.4380  150.9790 C   0  0  0  0  0  3  0  0  0  0  0  0
  161.3690  210.1770  147.8860 C   0  0  0  0  0  3  0  0  0  0  0  0
  162.3650  209.3720  148.6680 C   0  0  2  0  0  3  0  0  0  0  0  0
  160.0360  211.8290  145.8990 N   0  0  0  0  0  0  0  0  0  0  0  0
  159.1460  212.4380  145.0800 C   0  0  0  0  0  3  0  0  0  0  0  0
  159.1430  213.0370  147.7560 C   0  0  0  0  0  0  0  0  0  0  0  0
  160.0720  212.1090  147.2300 C   0  0  0  0  0  0  0  0  0  0  0  0
  158.2790  213.6350  146.8920 N   0  0  0  0  0  0  0  0  0  0  0  0
  158.2790  213.3480  145.5910 N   0  0  0  0  0  0  0  0  0  0  0  0
  158.7670  214.0030  151.9200 C   0  0  0  0  0  0  0  0  0  0  0  0
  158.6360  214.3480  153.3610 C   0  0  0  0  0  1  0  0  0  0  0  0
  159.8720  214.4530  151.1890 C   0  0  0  0  0  3  0  0  0  0  0  0
  159.0200  213.3400  149.2020 C   0  0  0  0  0  0  0  0  0  0  0  0
  157.7790  213.2380  151.2940 C   0  0  0  0  0  3  0  0  0  0  0  0
  157.9030  212.9140  149.9390 C   0  0  0  0  0  3  0  0  0  0  0  0
  159.9940  214.1280  149.8340 C   0  0  0  0  0  3  0  0  0  0  0  0
  162.2950  207.9740  148.2690 N   0  0  0  0  0  2  0  0  0  0  0  0
  161.1220  207.8190  147.5180 N   0  0  0  0  0  2  0  0  0  0  0  0
  161.2160  206.5330  146.8510 C   0  0  0  0  0  2  0  0  0  0  0  0
  161.0010  205.0220  149.1540 C   0  0  0  0  0  0  0  0  0  0  0  0
  161.0670  205.4640  147.8220 N   0  0  0  0  0  0  0  0  0  0  0  0
  160.9870  204.0970  148.1350 C   0  0  0  0  0  0  0  0  0  0  0  0
  160.7600  200.9250  150.0240 C   0  0  0  0  0  1  0  0  0  0  0  0
  160.8660  203.3630  150.7260 C   0  0  0  0  0  3  0  0  0  0  0  0
  160.8480  202.3650  149.6540 C   0  0  0  0  0  0  0  0  0  0  0  0
  160.9480  204.7840  150.4970 C   0  0  0  0  0  3  0  0  0  0  0  0
  160.9170  202.7400  148.2660 C   0  0  0  0  0  0  0  0  0  0  0  0
  160.9120  201.8260  147.2090 O   0  0  0  0  0  0  0  0  0  0  0  0
  160.8210  202.2420  145.8550 C   0  0  0  0  0  1  0  0  0  0  0  0
  1 14  1  0  0  0  0
  2  7  1  0  0  0  0
  3 10  1  0  0  0  0
  4 13  1  0  0  0  0
  5  9  2  0  0  0  0
  6  4  2  0  0  0  0
  7  6  1  0  0  0  0
  8  6  1  0  0  0  0
  8  5  1  0  0  0  0
  9  1  1  0  0  0  0
 10 12  1  0  0  0  0
 11  2  2  0  0  0  0
 11 15  1  0  0  0  0
 12  2  1  0  0  0  0
 13  1  2  0  0  0  0
 15  8  2  0  0  0  0
 16  3  2  0  0  0  0
 16 17  1  0  0  0  0
 17 31  1  6  0  0  0
 17 11  1  0  0  0  0
 18 21  1  0  0  0  0
 19 23  1  0  0  0  0
 19 18  2  0  0  0  0
 20 27  1  0  0  0  0
 21 20  2  0  0  0  0
 21  3  1  0  0  0  0
 22 20  1  0  0  0  0
 23 22  2  0  0  0  0
 24 25  1  0  0  0  0
 26 24  2  0  0  0  0
 27 30  2  0  0  0  0
 27 29  1  0  0  0  0
 28 24  1  0  0  0  0
 29 28  2  0  0  0  0
 30 26  1  0  0  0  0
 32 31  1  0  0  0  0
 33 32  1  0  0  0  0
 33 35  1  0  0  0  0
 34 40  1  0  0  0  0
 35 36  1  0  0  0  0
 35 34  1  0  0  0  0
 36 41  1  0  0  0  0
 36 34  2  0  0  0  0
 39 37  1  0  0  0  0
 39 38  1  0  0  0  0
 40 38  2  0  0  0  0
 41 39  2  0  0  0  0
 42 41  1  0  0  0  0
 43 42  1  0  0  0  0
M  END
>  <MODEL>
4

>  <REMARK>
 VINA RESULT:      -6.8      2.721      7.347
  Name = 
  7 active torsions:
  status: ('A' for Active; 'I' for Inactive)
    1  A    between atoms: N_4  and  N_32
    2  A    between atoms: N_4  and  C_42
    3  A    between atoms: C_6  and  C_21
    4  A    between atoms: C_7  and  C_15
    5  A    between atoms: N_10  and  C_29
    6  A    between atoms: O_26  and  C_43
    7  A    between atoms: C_29  and  N_32
                            x       y       z     vdW  Elec       q    Type
                         _______ _______ _______ _____ _____    ______ ____

>  <TORSDO>
F 7

$$$$
=
 OpenBabel11052411363D

 43 49  0  0  1  0  0  0  0  0999 V2000
  157.3320  211.4680  155.1310 C   0  0  0  0  0  0  0  0  0  0  0  0
  160.4710  213.4400  150.9180 C   0  0  0  0  0  0  0  0  0  0  0  0
  160.6710  212.8260  147.9550 C   0  0  0  0  0  0  0  0  0  0  0  0
  158.0230  213.3650  153.5860 C   0  0  0  0  0  3  0  0  0  0  0  0
  159.1150  210.4230  153.6680 C   0  0  0  0  0  3  0  0  0  0  0  0
  158.9700  212.8970  152.7770 C   0  0  0  0  0  0  0  0  0  0  0  0
  159.4870  213.8030  151.8420 O   0  0  0  0  0  0  0  0  0  0  0  0
  159.5100  211.5160  152.7780 C   0  0  0  0  0  0  0  0  0  0  0  0
  158.2130  210.4040  154.6430 C   0  0  0  0  0  3  0  0  0  0  0  0
  160.4310  214.0530  148.6050 O   0  0  0  0  0  0  0  0  0  0  0  0
  160.9720  212.2000  150.9130 C   0  0  0  0  0  0  0  0  0  0  0  0
  160.9200  214.4280  149.8910 C   0  0  0  0  0  2  0  0  0  0  0  0
  157.2730  212.7130  154.6640 C   0  0  0  0  0  3  0  0  0  0  0  0
  156.4650  211.1350  156.2070 N   0  0  0  0  0  1  0  0  0  0  0  0
  160.4530  211.2130  151.8820 C   0  0  0  0  0  3  0  0  0  0  0  0
  161.3680  211.8140  148.4980 C   0  0  0  0  0  3  0  0  0  0  0  0
  161.9890  211.8200  149.8650 C   0  0  2  0  0  3  0  0  0  0  0  0
  160.8930  212.1790  145.6150 N   0  0  0  0  0  0  0  0  0  0  0  0
  160.4310  212.0600  144.3460 C   0  0  0  0  0  3  0  0  0  0  0  0
  158.7460  212.9560  146.3170 C   0  0  0  0  0  0  0  0  0  0  0  0
  160.0910  212.6300  146.6150 C   0  0  0  0  0  0  0  0  0  0  0  0
  158.3330  212.8370  145.0260 N   0  0  0  0  0  0  0  0  0  0  0  0
  159.1490  212.4040  144.0660 N   0  0  0  0  0  0  0  0  0  0  0  0
  155.8150  214.0520  149.2520 C   0  0  0  0  0  0  0  0  0  0  0  0
  154.7910  214.4270  150.2640 C   0  0  0  0  0  1  0  0  0  0  0  0
  155.6620  214.4530  147.9200 C   0  0  0  0  0  3  0  0  0  0  0  0
  157.7550  213.3560  147.3430 C   0  0  0  0  0  0  0  0  0  0  0  0
  156.9240  213.2910  149.6300 C   0  0  0  0  0  3  0  0  0  0  0  0
  157.8860  212.9390  148.6780 C   0  0  0  0  0  3  0  0  0  0  0  0
  156.6250  214.1000  146.9690 C   0  0  0  0  0  3  0  0  0  0  0  0
  162.5850  210.5220  150.1440 N   0  0  0  0  0  2  0  0  0  0  0  0
  161.6180  209.5530  149.8440 N   0  0  0  0  0  2  0  0  0  0  0  0
  161.9090  208.3980  150.6740 C   0  0  0  0  0  2  0  0  0  0  0  0
  161.6170  206.5300  148.6600 C   0  0  0  0  0  0  0  0  0  0  0  0
  161.7480  207.1830  149.8960 N   0  0  0  0  0  0  0  0  0  0  0  0
  161.5060  205.8010  149.8210 C   0  0  0  0  0  0  0  0  0  0  0  0
  160.8980  202.4000  148.4990 C   0  0  0  0  0  1  0  0  0  0  0  0
  161.2710  204.6540  147.3930 C   0  0  0  0  0  3  0  0  0  0  0  0
  161.1520  203.8630  148.6190 C   0  0  0  0  0  0  0  0  0  0  0  0
  161.5160  206.0750  147.3770 C   0  0  0  0  0  3  0  0  0  0  0  0
  161.2710  204.4600  149.9230 C   0  0  0  0  0  0  0  0  0  0  0  0
  161.1570  203.7490  151.1210 O   0  0  0  0  0  0  0  0  0  0  0  0
  160.9090  204.3970  152.3600 C   0  0  0  0  0  1  0  0  0  0  0  0
  1 14  1  0  0  0  0
  2  7  1  0  0  0  0
  3 16  2  0  0  0  0
  3 10  1  0  0  0  0
  4 13  1  0  0  0  0
  5  9  2  0  0  0  0
  6  8  1  0  0  0  0
  6  4  2  0  0  0  0
  7  6  1  0  0  0  0
  8  5  1  0  0  0  0
  9  1  1  0  0  0  0
 10 12  1  0  0  0  0
 11  2  2  0  0  0  0
 11 15  1  0  0  0  0
 12  2  1  0  0  0  0
 13  1  2  0  0  0  0
 15  8  2  0  0  0  0
 16 17  1  0  0  0  0
 17 31  1  1  0  0  0
 17 11  1  0  0  0  0
 18 21  1  0  0  0  0
 19 18  2  0  0  0  0
 20 21  2  0  0  0  0
 20 27  1  0  0  0  0
 21  3  1  0  0  0  0
 22 20  1  0  0  0  0
 23 19  1  0  0  0  0
 23 22  2  0  0  0  0
 24 28  1  0  0  0  0
 24 25  1  0  0  0  0
 26 24  2  0  0  0  0
 27 29  1  0  0  0  0
 29 28  2  0  0  0  0
 30 27  2  0  0  0  0
 30 26  1  0  0  0  0
 32 31  1  0  0  0  0
 32 33  1  0  0  0  0
 34 36  1  0  0  0  0
 34 35  1  0  0  0  0
 35 33  1  0  0  0  0
 36 35  1  0  0  0  0
 36 41  2  0  0  0  0
 37 39  1  0  0  0  0
 38 39  2  0  0  0  0
 39 41  1  0  0  0  0
 40 38  1  0  0  0  0
 40 34  2  0  0  0  0
 41 42  1  0  0  0  0
 42 43  1  0  0  0  0
M  END
>  <MODEL>
5

>  <REMARK>
 VINA RESULT:      -6.2      2.484      8.121
  Name = 
  7 active torsions:
  status: ('A' for Active; 'I' for Inactive)
    1  A    between atoms: N_4  and  N_32
    2  A    between atoms: N_4  and  C_42
    3  A    between atoms: C_6  and  C_21
    4  A    between atoms: C_7  and  C_15
    5  A    between atoms: N_10  and  C_29
    6  A    between atoms: O_26  and  C_43
    7  A    between atoms: C_29  and  N_32
                            x       y       z     vdW  Elec       q    Type
                         _______ _______ _______ _____ _____    ______ ____

>  <TORSDO>
F 7

$$$$
=
 OpenBabel11052411363D

 43 49  0  0  1  0  0  0  0  0999 V2000
  160.2490  203.8160  144.7150 C   0  0  0  0  0  0  0  0  0  0  0  0
  162.9440  206.7400  148.6750 C   0  0  0  0  0  0  0  0  0  0  0  0
  162.1120  208.0420  151.2850 C   0  0  0  0  0  0  0  0  0  0  0  0
  161.9930  203.9590  146.5600 C   0  0  0  0  0  3  0  0  0  0  0  0
  160.0800  206.2150  145.5090 C   0  0  0  0  0  3  0  0  0  0  0  0
  161.9720  205.2010  147.0350 C   0  0  0  0  0  0  0  0  0  0  0  0
  162.8740  205.4830  148.0700 O   0  0  0  0  0  0  0  0  0  0  0  0
  161.0830  206.2940  146.5720 C   0  0  0  0  0  0  0  0  0  0  0  0
  159.7360  205.1880  144.7400 C   0  0  0  0  0  3  0  0  0  0  0  0
  163.1180  207.0850  151.0370 O   0  0  0  0  0  0  0  0  0  0  0  0
  162.1530  207.7380  148.2620 C   0  0  0  0  0  0  0  0  0  0  0  0
  163.8670  206.9530  149.8300 C   0  0  0  0  0  2  0  0  0  0  0  0
  161.2060  203.3240  145.4990 C   0  0  0  0  0  3  0  0  0  0  0  0
  159.6720  202.9340  143.7610 N   0  0  0  0  0  1  0  0  0  0  0  0
  161.1870  207.4820  147.1740 C   0  0  0  0  0  3  0  0  0  0  0  0
  161.6920  208.9400  150.3780 C   0  0  0  0  0  3  0  0  0  0  0  0
  162.2090  209.0660  148.9740 C   0  0  2  0  0  3  0  0  0  0  0  0
  161.4070  209.1860  153.3190 N   0  0  0  0  0  0  0  0  0  0  0  0
  160.8930  209.2120  154.5720 C   0  0  0  0  0  3  0  0  0  0  0  0
  160.9460  206.8460  153.1860 C   0  0  0  0  0  0  0  0  0  0  0  0
  161.4600  208.0300  152.6050 C   0  0  0  0  0  0  0  0  0  0  0  0
  160.4560  206.9180  154.4530 N   0  0  0  0  0  0  0  0  0  0  0  0
  160.4290  208.0660  155.1300 N   0  0  0  0  0  0  0  0  0  0  0  0
  160.7610  203.1300  151.0480 C   0  0  0  0  0  0  0  0  0  0  0  0
  160.7040  201.8450  150.3010 C   0  0  0  0  0  1  0  0  0  0  0  0
  160.4330  204.3290  150.4070 C   0  0  0  0  0  3  0  0  0  0  0  0
  160.8560  205.5550  152.4640 C   0  0  0  0  0  0  0  0  0  0  0  0
  161.1530  203.1400  152.3900 C   0  0  0  0  0  3  0  0  0  0  0  0
  161.2060  204.3480  153.0920 C   0  0  0  0  0  3  0  0  0  0  0  0
  160.4860  205.5370  151.1100 C   0  0  0  0  0  3  0  0  0  0  0  0
  161.4580  210.0870  148.2600 N   0  0  0  0  0  2  0  0  0  0  0  0
  161.6180  211.2860  148.9670 N   0  0  0  0  0  2  0  0  0  0  0  0
  162.1690  212.2540  148.0360 C   0  0  0  0  0  2  0  0  0  0  0  0
  159.8660  212.7380  146.5890 C   0  0  0  0  0  0  0  0  0  0  0  0
  161.1950  212.5460  146.9990 N   0  0  0  0  0  0  0  0  0  0  0  0
  160.8700  212.7450  145.6470 C   0  0  0  0  0  0  0  0  0  0  0  0
  158.9560  213.3310  142.5360 C   0  0  0  0  0  1  0  0  0  0  0  0
  158.2840  213.1010  144.9730 C   0  0  0  0  0  3  0  0  0  0  0  0
  159.3400  213.1150  143.9590 C   0  0  0  0  0  0  0  0  0  0  0  0
  158.5270  212.9020  146.3800 C   0  0  0  0  0  3  0  0  0  0  0  0
  160.7240  212.9220  144.3010 C   0  0  0  0  0  0  0  0  0  0  0  0
  161.7660  212.9170  143.3700 O   0  0  0  0  0  0  0  0  0  0  0  0
  163.0820  213.3300  143.7090 C   0  0  0  0  0  1  0  0  0  0  0  0
  1  9  1  0  0  0  0
  1 13  2  0  0  0  0
  2 12  1  0  0  0  0
  3 21  1  0  0  0  0
  4  6  2  0  0  0  0
  5  8  1  0  0  0  0
  6  7  1  0  0  0  0
  7  2  1  0  0  0  0
  8  6  1  0  0  0  0
  8 15  2  0  0  0  0
  9  5  2  0  0  0  0
 10  3  1  0  0  0  0
 11  2  2  0  0  0  0
 11 17  1  0  0  0  0
 12 10  1  0  0  0  0
 13  4  1  0  0  0  0
 14  1  1  0  0  0  0
 15 11  1  0  0  0  0
 16  3  2  0  0  0  0
 17 31  1  6  0  0  0
 17 16  1  0  0  0  0
 18 19  1  0  0  0  0
 19 23  2  0  0  0  0
 20 22  2  0  0  0  0
 21 20  1  0  0  0  0
 21 18  2  0  0  0  0
 22 23  1  0  0  0  0
 24 28  1  0  0  0  0
 25 24  1  0  0  0  0
 26 24  2  0  0  0  0
 26 30  1  0  0  0  0
 27 29  1  0  0  0  0
 27 20  1  0  0  0  0
 28 29  2  0  0  0  0
 30 27  2  0  0  0  0
 31 32  1  0  0  0  0
 33 32  1  0  0  0  0
 34 35  1  0  0  0  0
 35 33  1  0  0  0  0
 36 34  2  0  0  0  0
 36 35  1  0  0  0  0
 37 39  1  0  0  0  0
 38 40  2  0  0  0  0
 39 41  2  0  0  0  0
 39 38  1  0  0  0  0
 40 34  1  0  0  0  0
 41 36  1  0  0  0  0
 42 43  1  0  0  0  0
 42 41  1  0  0  0  0
M  END
>  <MODEL>
6

>  <REMARK>
 VINA RESULT:      -6.2      2.565      4.677
  Name = 
  7 active torsions:
  status: ('A' for Active; 'I' for Inactive)
    1  A    between atoms: N_4  and  N_32
    2  A    between atoms: N_4  and  C_42
    3  A    between atoms: C_6  and  C_21
    4  A    between atoms: C_7  and  C_15
    5  A    between atoms: N_10  and  C_29
    6  A    between atoms: O_26  and  C_43
    7  A    between atoms: C_29  and  N_32
                            x       y       z     vdW  Elec       q    Type
                         _______ _______ _______ _____ _____    ______ ____

>  <TORSDO>
F 7

$$$$
=
 OpenBabel11052411363D

 43 49  0  0  1  0  0  0  0  0999 V2000
  160.2350  203.7990  144.7290 C   0  0  0  0  0  0  0  0  0  0  0  0
  162.9210  206.7400  148.6820 C   0  0  0  0  0  0  0  0  0  0  0  0
  162.0800  208.0710  151.2740 C   0  0  0  0  0  0  0  0  0  0  0  0
  161.9660  203.9460  146.5850 C   0  0  0  0  0  3  0  0  0  0  0  0
  160.0760  206.2060  145.5000 C   0  0  0  0  0  3  0  0  0  0  0  0
  161.9500  205.1930  147.0480 C   0  0  0  0  0  0  0  0  0  0  0  0
  162.8460  205.4780  148.0870 O   0  0  0  0  0  0  0  0  0  0  0  0
  161.0720  206.2880  146.5690 C   0  0  0  0  0  0  0  0  0  0  0  0
  159.7300  205.1740  144.7380 C   0  0  0  0  0  3  0  0  0  0  0  0
  163.0810  207.1050  151.0420 O   0  0  0  0  0  0  0  0  0  0  0  0
  162.1400  207.7390  148.2540 C   0  0  0  0  0  0  0  0  0  0  0  0
  163.8370  206.9570  149.8410 C   0  0  0  0  0  2  0  0  0  0  0  0
  161.1830  203.3070  145.5240 C   0  0  0  0  0  3  0  0  0  0  0  0
  159.6580  202.9130  143.7780 N   0  0  0  0  0  1  0  0  0  0  0  0
  161.1800  207.4800  147.1620 C   0  0  0  0  0  3  0  0  0  0  0  0
  161.6720  208.9630  150.3560 C   0  0  0  0  0  3  0  0  0  0  0  0
  162.2000  209.0730  148.9550 C   0  0  2  0  0  3  0  0  0  0  0  0
  161.3520  209.2420  153.2850 N   0  0  0  0  0  0  0  0  0  0  0  0
  160.8290  209.2840  154.5340 C   0  0  0  0  0  3  0  0  0  0  0  0
  160.9090  206.8960  153.1850 C   0  0  0  0  0  0  0  0  0  0  0  0
  161.4190  208.0750  152.5900 C   0  0  0  0  0  0  0  0  0  0  0  0
  160.4090  206.9850  154.4470 N   0  0  0  0  0  0  0  0  0  0  0  0
  160.3690  208.1430  155.1060 N   0  0  0  0  0  0  0  0  0  0  0  0
  160.7650  203.1460  151.1060 C   0  0  0  0  0  0  0  0  0  0  0  0
  160.7230  201.8500  150.3780 C   0  0  0  0  0  1  0  0  0  0  0  0
  160.4160  204.3310  150.4480 C   0  0  0  0  0  3  0  0  0  0  0  0
  160.8330  205.5930  152.4840 C   0  0  0  0  0  0  0  0  0  0  0  0
  161.1640  203.1820  152.4450 C   0  0  0  0  0  3  0  0  0  0  0  0
  161.2040  204.4010  153.1280 C   0  0  0  0  0  3  0  0  0  0  0  0
  160.4570  205.5500  151.1330 C   0  0  0  0  0  3  0  0  0  0  0  0
  161.4610  210.0930  148.2260 N   0  0  0  0  0  2  0  0  0  0  0  0
  161.9100  211.3370  148.6900 N   0  0  0  0  0  2  0  0  0  0  0  0
  161.6440  212.3000  147.6360 C   0  0  0  0  0  2  0  0  0  0  0  0
  159.1190  213.3060  147.1430 C   0  0  0  0  0  0  0  0  0  0  0  0
  160.2740  212.7700  147.7350 N   0  0  0  0  0  0  0  0  0  0  0  0
  159.1550  213.1230  148.5070 C   0  0  0  0  0  0  0  0  0  0  0  0
  155.8050  214.3380  149.5000 C   0  0  0  0  0  1  0  0  0  0  0  0
  156.9920  214.1450  147.2640 C   0  0  0  0  0  3  0  0  0  0  0  0
  157.0120  213.9540  148.7160 C   0  0  0  0  0  0  0  0  0  0  0  0
  158.0950  213.8130  146.3970 C   0  0  0  0  0  3  0  0  0  0  0  0
  158.1600  213.4140  149.3960 C   0  0  0  0  0  0  0  0  0  0  0  0
  158.2310  213.2220  150.7780 O   0  0  0  0  0  0  0  0  0  0  0  0
  159.4640  213.2600  151.4810 C   0  0  0  0  0  1  0  0  0  0  0  0
  1  9  1  0  0  0  0
  1 13  2  0  0  0  0
  2 12  1  0  0  0  0
  3 21  1  0  0  0  0
  4  6  2  0  0  0  0
  5  8  1  0  0  0  0
  6  7  1  0  0  0  0
  7  2  1  0  0  0  0
  8  6  1  0  0  0  0
  8 15  2  0  0  0  0
  9  5  2  0  0  0  0
 10  3  1  0  0  0  0
 11  2  2  0  0  0  0
 11 17  1  0  0  0  0
 12 10  1  0  0  0  0
 13  4  1  0  0  0  0
 14  1  1  0  0  0  0
 15 11  1  0  0  0  0
 16  3  2  0  0  0  0
 17 31  1  6  0  0  0
 17 16  1  0  0  0  0
 18 19  1  0  0  0  0
 19 23  2  0  0  0  0
 20 22  2  0  0  0  0
 21 20  1  0  0  0  0
 21 18  2  0  0  0  0
 22 23  1  0  0  0  0
 24 28  1  0  0  0  0
 25 24  1  0  0  0  0
 26 24  2  0  0  0  0
 26 30  1  0  0  0  0
 27 29  1  0  0  0  0
 27 20  1  0  0  0  0
 28 29  2  0  0  0  0
 30 27  2  0  0  0  0
 31 32  1  0  0  0  0
 33 35  1  0  0  0  0
 33 32  1  0  0  0  0
 34 35  1  0  0  0  0
 34 36  1  0  0  0  0
 35 36  1  0  0  0  0
 36 41  2  0  0  0  0
 38 39  2  0  0  0  0
 39 41  1  0  0  0  0
 39 37  1  0  0  0  0
 40 34  2  0  0  0  0
 40 38  1  0  0  0  0
 41 42  1  0  0  0  0
 42 43  1  0  0  0  0
M  END
>  <MODEL>
7

>  <REMARK>
 VINA RESULT:      -5.9      2.968      5.268
  Name = 
  7 active torsions:
  status: ('A' for Active; 'I' for Inactive)
    1  A    between atoms: N_4  and  N_32
    2  A    between atoms: N_4  and  C_42
    3  A    between atoms: C_6  and  C_21
    4  A    between atoms: C_7  and  C_15
    5  A    between atoms: N_10  and  C_29
    6  A    between atoms: O_26  and  C_43
    7  A    between atoms: C_29  and  N_32
                            x       y       z     vdW  Elec       q    Type
                         _______ _______ _______ _____ _____    ______ ____

>  <TORSDO>
F 7

$$$$
=
 OpenBabel11052411363D

 43 49  0  0  1  0  0  0  0  0999 V2000
  160.0340  208.9830  155.2750 C   0  0  0  0  0  0  0  0  0  0  0  0
  160.9750  212.5230  151.0230 C   0  0  0  0  0  0  0  0  0  0  0  0
  159.9960  212.7050  148.1590 C   0  0  0  0  0  0  0  0  0  0  0  0
  159.8570  211.3000  154.2430 C   0  0  0  0  0  3  0  0  0  0  0  0
  161.1440  208.7140  153.0140 C   0  0  0  0  0  3  0  0  0  0  0  0
  160.4260  211.2470  153.0420 C   0  0  0  0  0  0  0  0  0  0  0  0
  160.4300  212.4400  152.3070 O   0  0  0  0  0  0  0  0  0  0  0  0
  161.0400  210.0480  152.4220 C   0  0  0  0  0  0  0  0  0  0  0  0
  160.7280  208.2740  154.1970 C   0  0  0  0  0  3  0  0  0  0  0  0
  159.9350  213.6610  149.1930 O   0  0  0  0  0  0  0  0  0  0  0  0
  161.5390  211.4500  150.4550 C   0  0  0  0  0  0  0  0  0  0  0  0
  160.8730  213.8010  150.2580 C   0  0  0  0  0  2  0  0  0  0  0  0
  159.6770  210.2660  155.2660 C   0  0  0  0  0  3  0  0  0  0  0  0
  159.7180  208.2280  156.4370 N   0  0  0  0  0  1  0  0  0  0  0  0
  161.5540  210.1720  151.1960 C   0  0  0  0  0  3  0  0  0  0  0  0
  160.9420  211.7550  148.0710 C   0  0  0  0  0  3  0  0  0  0  0  0
  162.0660  211.5540  149.0450 C   0  0  2  0  0  3  0  0  0  0  0  0
  157.6520  212.4990  147.5180 N   0  0  0  0  0  0  0  0  0  0  0  0
  156.6520  212.4270  146.6070 C   0  0  0  0  0  3  0  0  0  0  0  0
  159.2150  212.9150  145.7600 C   0  0  0  0  0  0  0  0  0  0  0  0
  158.9370  212.7290  147.1350 C   0  0  0  0  0  0  0  0  0  0  0  0
  158.1810  212.8180  144.8820 N   0  0  0  0  0  0  0  0  0  0  0  0
  156.9350  212.5790  145.2890 N   0  0  0  0  0  0  0  0  0  0  0  0
  163.0550  214.0150  144.1920 C   0  0  0  0  0  0  0  0  0  0  0  0
  164.3810  214.4020  143.6410 C   0  0  0  0  0  1  0  0  0  0  0  0
  162.1790  213.2350  143.4290 C   0  0  0  0  0  3  0  0  0  0  0  0
  160.5550  213.2740  145.2390 C   0  0  0  0  0  0  0  0  0  0  0  0
  162.6790  214.4410  145.4690 C   0  0  0  0  0  3  0  0  0  0  0  0
  161.4320  214.0770  145.9870 C   0  0  0  0  0  3  0  0  0  0  0  0
  160.9320  212.8720  143.9490 C   0  0  0  0  0  3  0  0  0  0  0  0
  162.8370  210.3770  148.6750 N   0  0  0  0  0  2  0  0  0  0  0  0
  161.9240  209.4050  148.2450 N   0  0  0  0  0  2  0  0  0  0  0  0
  161.8860  208.3790  149.2720 C   0  0  0  0  0  2  0  0  0  0  0  0
  161.8810  206.2480  147.5140 C   0  0  0  0  0  0  0  0  0  0  0  0
  161.8140  207.0680  148.6520 N   0  0  0  0  0  0  0  0  0  0  0  0
  161.5270  205.6950  148.7240 C   0  0  0  0  0  0  0  0  0  0  0  0
  161.0150  202.1520  147.7920 C   0  0  0  0  0  1  0  0  0  0  0  0
  161.6870  204.2160  146.4760 C   0  0  0  0  0  3  0  0  0  0  0  0
  161.3100  203.6110  147.7550 C   0  0  0  0  0  0  0  0  0  0  0  0
  161.9950  205.6150  146.3110 C   0  0  0  0  0  3  0  0  0  0  0  0
  161.2160  204.3870  148.9630 C   0  0  0  0  0  0  0  0  0  0  0  0
  160.8530  203.8590  150.2050 O   0  0  0  0  0  0  0  0  0  0  0  0
  161.5520  204.1860  151.3970 C   0  0  0  0  0  1  0  0  0  0  0  0
  1 14  1  0  0  0  0
  2  7  1  0  0  0  0
  3 10  1  0  0  0  0
  4 13  1  0  0  0  0
  5  9  2  0  0  0  0
  6  4  2  0  0  0  0
  7  6  1  0  0  0  0
  8  5  1  0  0  0  0
  8  6  1  0  0  0  0
  9  1  1  0  0  0  0
 10 12  1  0  0  0  0
 11  2  2  0  0  0  0
 11 15  1  0  0  0  0
 12  2  1  0  0  0  0
 13  1  2  0  0  0  0
 15  8  2  0  0  0  0
 16  3  2  0  0  0  0
 16 17  1  0  0  0  0
 17 31  1  6  0  0  0
 17 11  1  0  0  0  0
 19 18  2  0  0  0  0
 20 21  2  0  0  0  0
 21 18  1  0  0  0  0
 21  3  1  0  0  0  0
 22 23  2  0  0  0  0
 22 20  1  0  0  0  0
 23 19  1  0  0  0  0
 24 28  1  0  0  0  0
 25 24  1  0  0  0  0
 26 30  1  0  0  0  0
 26 24  2  0  0  0  0
 27 20  1  0  0  0  0
 27 29  1  0  0  0  0
 28 29  2  0  0  0  0
 30 27  2  0  0  0  0
 32 31  1  0  0  0  0
 32 33  1  0  0  0  0
 34 35  1  0  0  0  0
 34 36  1  0  0  0  0
 35 36  1  0  0  0  0
 35 33  1  0  0  0  0
 36 41  2  0  0  0  0
 38 39  2  0  0  0  0
 39 37  1  0  0  0  0
 39 41  1  0  0  0  0
 40 38  1  0  0  0  0
 40 34  2  0  0  0  0
 41 42  1  0  0  0  0
 42 43  1  0  0  0  0
M  END
>  <MODEL>
8

>  <REMARK>
 VINA RESULT:      -5.5      2.338      8.040
  Name = 
  7 active torsions:
  status: ('A' for Active; 'I' for Inactive)
    1  A    between atoms: N_4  and  N_32
    2  A    between atoms: N_4  and  C_42
    3  A    between atoms: C_6  and  C_21
    4  A    between atoms: C_7  and  C_15
    5  A    between atoms: N_10  and  C_29
    6  A    between atoms: O_26  and  C_43
    7  A    between atoms: C_29  and  N_32
                            x       y       z     vdW  Elec       q    Type
                         _______ _______ _______ _____ _____    ______ ____

>  <TORSDO>
F 7

$$$$
