=
 OpenBabel11042423093D

 29 32  0  0  1  0  0  0  0  0999 V2000
  161.2390  205.6190  148.6110 C   0  0  2  0  0  0  0  0  0  0  0  0
  161.6550  206.6670  149.6470 C   0  0  1  0  0  3  0  0  0  0  0  0
  160.2080  206.5700  149.1900 C   0  0  0  0  0  2  0  0  0  0  0  0
  160.7300  202.4720  150.6840 C   0  0  0  0  0  3  0  0  0  0  0  0
  161.0830  204.1750  149.0090 C   0  0  0  0  0  0  0  0  0  0  0  0
  160.6930  201.5260  149.7070 N   0  0  0  0  0  0  0  0  0  0  0  0
  160.9200  203.8140  150.3520 C   0  0  0  0  0  3  0  0  0  0  0  0
  160.8340  201.8490  148.3930 C   0  0  0  0  0  0  0  0  0  0  0  0
  161.0210  203.1870  148.0220 C   0  0  0  0  0  3  0  0  0  0  0  0
  160.7730  200.7700  147.3620 C   0  0  2  0  0  3  0  0  0  0  0  0
  161.7150  199.7780  147.6450 O   0  0  0  0  0  1  0  0  0  0  0  0
  161.0120  201.3430  145.9740 C   0  0  0  0  0  2  0  0  0  0  0  0
  159.8350  201.0360  145.0680 C   0  0  0  0  0  1  0  0  0  0  0  0
  162.8770  205.7640  146.7860 C   0  0  0  0  0  2  0  0  0  0  0  0
  161.6150  205.9200  147.1900 C   0  0  0  0  0  0  0  0  0  0  0  0
  160.5550  206.2770  146.1980 C   0  0  0  0  0  2  0  0  0  0  0  0
  161.0090  205.9740  144.8510 N   0  0  0  0  0  2  0  0  0  0  0  0
  160.4600  204.6750  144.5080 C   0  0  0  0  0  1  0  0  0  0  0  0
  161.7820  206.0340  151.3530 S   0  0  0  0  0  0  0  0  0  0  0  0
  161.6030  209.9410  152.2760 C   0  0  0  0  0  3  0  0  0  0  0  0
  160.7250  209.9360  154.6420 C   0  0  0  0  0  3  0  0  0  0  0  0
  159.8930  206.8900  156.5490 N   0  0  0  0  0  1  0  0  0  0  0  0
  161.8790  208.8720  151.4100 C   0  0  0  0  0  3  0  0  0  0  0  0
  160.3250  207.7200  155.4770 C   0  0  0  0  0  0  0  0  0  0  0  0
  161.1470  209.3780  153.4480 C   0  0  0  0  0  0  0  0  0  0  0  0
  161.1420  207.9650  153.3080 C   0  0  0  0  0  0  0  0  0  0  0  0
  160.3230  209.0840  155.6320 N   0  0  0  0  0  0  0  0  0  0  0  0
  161.5910  207.6680  152.0520 C   0  0  0  0  0  0  0  0  0  0  0  0
  160.7370  207.1470  154.3050 N   0  0  0  0  0  2  0  0  0  0  0  0
  1 15  1  6  0  0  0
  1  5  1  0  0  0  0
  1  3  1  0  0  0  0
  1  2  1  0  0  0  0
  2 19  1  1  0  0  0
  3  2  1  0  0  0  0
  5  7  2  0  0  0  0
  6  4  2  0  0  0  0
  7  4  1  0  0  0  0
  8  6  1  0  0  0  0
  9  8  2  0  0  0  0
  9  5  1  0  0  0  0
 10 11  1  1  0  0  0
 10  8  1  0  0  0  0
 12 10  1  0  0  0  0
 13 12  1  0  0  0  0
 14 15  2  0  0  0  0
 16 15  1  0  0  0  0
 17 16  1  0  0  0  0
 18 17  1  0  0  0  0
 19 28  1  0  0  0  0
 20 25  1  0  0  0  0
 21 27  1  0  0  0  0
 23 28  1  0  0  0  0
 23 20  2  0  0  0  0
 24 27  2  0  0  0  0
 24 22  1  0  0  0  0
 25 21  2  0  0  0  0
 26 25  1  0  0  0  0
 26 29  1  0  0  0  0
 28 26  2  0  0  0  0
 29 24  1  0  0  0  0
M  END
>  <MODEL>
1

>  <REMARK>
 VINA RESULT:      -8.3      0.000      0.000
  Name = 
  8 active torsions:
  status: ('A' for Active; 'I' for Inactive)
    1  A    between atoms: C_1  and  C_17
    2  A    between atoms: C_1  and  C_26
    3  A    between atoms: N_2  and  C_28
    4  A    between atoms: C_4  and  C_9
    5  A    between atoms: C_4  and  C_25
    6  A    between atoms: C_6  and  S_16
    7  A    between atoms: S_16  and  C_20
    8  A    between atoms: C_25  and  C_28
                            x       y       z     vdW  Elec       q    Type
                         _______ _______ _______ _____ _____    ______ ____

>  <TORSDO>
F 8

$$$$
=
 OpenBabel11042423093D

 29 32  0  0  1  0  0  0  0  0999 V2000
  161.2610  204.9120  150.7190 C   0  0  2  0  0  0  0  0  0  0  0  0
  161.1880  205.9950  151.8000 C   0  0  1  0  0  3  0  0  0  0  0  0
  162.5250  205.3830  151.4160 C   0  0  0  0  0  2  0  0  0  0  0  0
  160.6350  206.8660  147.5190 C   0  0  0  0  0  3  0  0  0  0  0  0
  161.1490  205.2790  149.2630 C   0  0  0  0  0  0  0  0  0  0  0  0
  161.0500  205.9690  146.5860 N   0  0  0  0  0  0  0  0  0  0  0  0
  160.6820  206.5400  148.8750 C   0  0  0  0  0  3  0  0  0  0  0  0
  161.5220  204.7410  146.9340 C   0  0  0  0  0  0  0  0  0  0  0  0
  161.5890  204.3810  148.2860 C   0  0  0  0  0  3  0  0  0  0  0  0
  161.9760  203.7990  145.8680 C   0  0  2  0  0  3  0  0  0  0  0  0
  162.9610  204.4000  145.0810 O   0  0  0  0  0  1  0  0  0  0  0  0
  160.8020  203.3640  145.0040 C   0  0  0  0  0  2  0  0  0  0  0  0
  160.4150  201.9330  145.3250 C   0  0  0  0  0  1  0  0  0  0  0  0
  160.8230  203.1990  152.4250 C   0  0  0  0  0  2  0  0  0  0  0  0
  160.8100  203.5430  151.1360 C   0  0  0  0  0  0  0  0  0  0  0  0
  160.2330  202.6070  150.1220 C   0  0  0  0  0  2  0  0  0  0  0  0
  160.8870  201.3120  150.2090 N   0  0  0  0  0  2  0  0  0  0  0  0
  161.1570  200.8890  148.8480 C   0  0  0  0  0  1  0  0  0  0  0  0
  161.1100  207.7000  151.1540 S   0  0  0  0  0  0  0  0  0  0  0  0
  160.7670  208.5660  155.0630 C   0  0  0  0  0  3  0  0  0  0  0  0
  160.1940  211.0240  155.0620 C   0  0  0  0  0  3  0  0  0  0  0  0
  159.8240  213.0760  152.0190 N   0  0  0  0  0  1  0  0  0  0  0  0
  161.0090  207.6920  153.9930 C   0  0  0  0  0  3  0  0  0  0  0  0
  160.0590  211.9430  152.8470 C   0  0  0  0  0  0  0  0  0  0  0  0
  160.4990  209.7970  154.5020 C   0  0  0  0  0  0  0  0  0  0  0  0
  160.5740  209.6830  153.0890 C   0  0  0  0  0  0  0  0  0  0  0  0
  159.9810  212.0720  154.2120 N   0  0  0  0  0  0  0  0  0  0  0  0
  160.8900  208.3870  152.7900 C   0  0  0  0  0  0  0  0  0  0  0  0
  160.3590  210.7380  152.2730 N   0  0  0  0  0  2  0  0  0  0  0  0
  1 15  1  1  0  0  0
  1  3  1  0  0  0  0
  1  2  1  0  0  0  0
  2 19  1  6  0  0  0
  3  2  1  0  0  0  0
  4  7  1  0  0  0  0
  5  1  1  0  0  0  0
  6  8  1  0  0  0  0
  6  4  2  0  0  0  0
  7  5  2  0  0  0  0
  8  9  2  0  0  0  0
  9  5  1  0  0  0  0
 10 11  1  6  0  0  0
 10  8  1  0  0  0  0
 12 13  1  0  0  0  0
 12 10  1  0  0  0  0
 15 14  2  0  0  0  0
 16 17  1  0  0  0  0
 16 15  1  0  0  0  0
 18 17  1  0  0  0  0
 19 28  1  0  0  0  0
 22 24  1  0  0  0  0
 23 20  2  0  0  0  0
 24 27  2  0  0  0  0
 25 21  2  0  0  0  0
 25 20  1  0  0  0  0
 26 25  1  0  0  0  0
 27 21  1  0  0  0  0
 28 26  2  0  0  0  0
 28 23  1  0  0  0  0
 29 24  1  0  0  0  0
 29 26  1  0  0  0  0
M  END
>  <MODEL>
2

>  <REMARK>
 VINA RESULT:      -7.6      2.125      4.040
  Name = 
  8 active torsions:
  status: ('A' for Active; 'I' for Inactive)
    1  A    between atoms: C_1  and  C_17
    2  A    between atoms: C_1  and  C_26
    3  A    between atoms: N_2  and  C_28
    4  A    between atoms: C_4  and  C_9
    5  A    between atoms: C_4  and  C_25
    6  A    between atoms: C_6  and  S_16
    7  A    between atoms: S_16  and  C_20
    8  A    between atoms: C_25  and  C_28
                            x       y       z     vdW  Elec       q    Type
                         _______ _______ _______ _____ _____    ______ ____

>  <TORSDO>
F 8

$$$$
=
 OpenBabel11042423093D

 29 32  0  0  1  0  0  0  0  0999 V2000
  160.8750  209.0850  154.7080 C   0  0  2  0  0  0  0  0  0  0  0  0
  161.3540  207.9800  153.7630 C   0  0  1  0  0  3  0  0  0  0  0  0
  160.1110  207.7770  154.6150 C   0  0  0  0  0  2  0  0  0  0  0  0
  160.0490  212.1990  152.6900 C   0  0  0  0  0  3  0  0  0  0  0  0
  160.1570  210.2930  154.1680 C   0  0  0  0  0  0  0  0  0  0  0  0
  158.7800  212.4490  153.1120 N   0  0  0  0  0  0  0  0  0  0  0  0
  160.7590  211.1150  153.2060 C   0  0  0  0  0  3  0  0  0  0  0  0
  158.1650  211.6600  154.0340 C   0  0  0  0  0  0  0  0  0  0  0  0
  158.8450  210.5580  154.5700 C   0  0  0  0  0  3  0  0  0  0  0  0
  156.7660  211.9730  154.4520 C   0  0  2  0  0  3  0  0  0  0  0  0
  156.6690  213.3080  154.8490 O   0  0  0  0  0  1  0  0  0  0  0  0
  156.3260  211.0530  155.5800 C   0  0  0  0  0  2  0  0  0  0  0  0
  155.1940  210.1570  155.1170 C   0  0  0  0  0  1  0  0  0  0  0  0
  161.4870  208.3810  156.9810 C   0  0  0  0  0  2  0  0  0  0  0  0
  161.6600  209.2440  155.9780 C   0  0  0  0  0  0  0  0  0  0  0  0
  162.7200  210.2930  156.0730 C   0  0  0  0  0  2  0  0  0  0  0  0
  162.5130  211.1070  157.2590 N   0  0  0  0  0  2  0  0  0  0  0  0
  161.3620  211.9490  156.9910 C   0  0  0  0  0  1  0  0  0  0  0  0
  160.8490  208.2040  152.0240 S   0  0  0  0  0  0  0  0  0  0  0  0
  161.3200  204.2140  151.9540 C   0  0  0  0  0  3  0  0  0  0  0  0
  161.2190  203.6640  149.4930 C   0  0  0  0  0  2  0  0  0  0  0  0
  160.7410  206.1580  146.8180 N   0  0  0  0  0  1  0  0  0  0  0  0
  161.2170  205.4490  152.6110 C   0  0  0  0  0  2  0  0  0  0  0  0
  160.8950  205.6080  148.1210 C   0  0  0  0  0  0  0  0  0  0  0  0
  161.1990  204.4820  150.6070 C   0  0  0  0  0  0  0  0  0  0  0  0
  161.0220  205.8810  150.4330 C   0  0  0  0  0  0  0  0  0  0  0  0
  161.0650  204.2540  148.2700 N   0  0  0  0  0  0  0  0  0  0  0  0
  161.0330  206.4610  151.6690 C   0  0  0  0  0  0  0  0  0  0  0  0
  160.8710  206.4360  149.2090 N   0  0  0  0  0  2  0  0  0  0  0  0
  1 15  1  1  0  0  0
  2 19  1  6  0  0  0
  2  3  1  0  0  0  0
  2  1  1  0  0  0  0
  3  1  1  0  0  0  0
  4  6  2  0  0  0  0
  4  7  1  0  0  0  0
  5  9  1  0  0  0  0
  5  1  1  0  0  0  0
  6  8  1  0  0  0  0
  7  5  2  0  0  0  0
  8 10  1  0  0  0  0
  8  9  2  0  0  0  0
 10 11  1  1  0  0  0
 10 12  1  0  0  0  0
 13 12  1  0  0  0  0
 15 16  1  0  0  0  0
 15 14  2  0  0  0  0
 16 17  1  0  0  0  0
 18 17  1  0  0  0  0
 20 23  1  0  0  0  0
 21 25  1  0  0  0  0
 22 24  1  0  0  0  0
 24 27  2  0  0  0  0
 24 29  1  0  0  0  0
 25 20  2  0  0  0  0
 26 25  1  0  0  0  0
 26 28  2  0  0  0  0
 27 21  1  0  0  0  0
 28 19  1  0  0  0  0
 28 23  1  0  0  0  0
 29 26  1  0  0  0  0
M  END
>  <MODEL>
3

>  <REMARK>
 VINA RESULT:      -7.5      4.011      9.647
  Name = 
  8 active torsions:
  status: ('A' for Active; 'I' for Inactive)
    1  A    between atoms: C_1  and  C_17
    2  A    between atoms: C_1  and  C_26
    3  A    between atoms: N_2  and  C_28
    4  A    between atoms: C_4  and  C_9
    5  A    between atoms: C_4  and  C_25
    6  A    between atoms: C_6  and  S_16
    7  A    between atoms: S_16  and  C_20
    8  A    between atoms: C_25  and  C_28
                            x       y       z     vdW  Elec       q    Type
                         _______ _______ _______ _____ _____    ______ ____

>  <TORSDO>
F 8

$$$$
=
 OpenBabel11042423093D

 29 32  0  0  1  0  0  0  0  0999 V2000
  161.4900  205.4680  151.1370 C   0  0  2  0  0  0  0  0  0  0  0  0
  161.0330  206.0910  152.4590 C   0  0  1  0  0  3  0  0  0  0  0  0
  162.4960  205.7390  152.2410 C   0  0  0  0  0  2  0  0  0  0  0  0
  162.2170  208.4040  148.8340 C   0  0  0  0  0  3  0  0  0  0  0  0
  161.6370  206.3190  149.9040 C   0  0  0  0  0  0  0  0  0  0  0  0
  162.0020  207.8340  147.6180 N   0  0  0  0  0  0  0  0  0  0  0  0
  162.0440  207.6550  149.9990 C   0  0  0  0  0  3  0  0  0  0  0  0
  161.6210  206.5340  147.4940 C   0  0  0  0  0  0  0  0  0  0  0  0
  161.4430  205.7500  148.6420 C   0  0  0  0  0  3  0  0  0  0  0  0
  161.4110  205.9570  146.1330 C   0  0  2  0  0  3  0  0  0  0  0  0
  160.1150  206.2290  145.6880 O   0  0  0  0  0  1  0  0  0  0  0  0
  161.6600  204.4570  146.1440 C   0  0  0  0  0  2  0  0  0  0  0  0
  160.9490  203.7970  144.9780 C   0  0  0  0  0  1  0  0  0  0  0  0
  161.5460  203.1230  151.8700 C   0  0  0  0  0  2  0  0  0  0  0  0
  161.1630  204.0150  150.9540 C   0  0  0  0  0  0  0  0  0  0  0  0
  160.3060  203.5820  149.8070 C   0  0  0  0  0  2  0  0  0  0  0  0
  160.2280  202.1310  149.7620 N   0  0  0  0  0  2  0  0  0  0  0  0
  160.7170  201.7280  148.4570 C   0  0  0  0  0  1  0  0  0  0  0  0
  160.8480  207.9060  152.4130 S   0  0  0  0  0  0  0  0  0  0  0  0
  160.3870  207.3880  156.3720 C   0  0  0  0  0  3  0  0  0  0  0  0
  159.9920  209.7320  157.2180 C   0  0  0  0  0  3  0  0  0  0  0  0
  159.9120  212.7350  155.0780 N   0  0  0  0  0  1  0  0  0  0  0  0
  160.6160  206.9220  155.0680 C   0  0  0  0  0  3  0  0  0  0  0  0
  160.0260  211.3700  155.4620 C   0  0  0  0  0  0  0  0  0  0  0  0
  160.2340  208.7540  156.2710 C   0  0  0  0  0  0  0  0  0  0  0  0
  160.3670  209.1310  154.9090 C   0  0  0  0  0  0  0  0  0  0  0  0
  159.8940  211.0240  156.7840 N   0  0  0  0  0  0  0  0  0  0  0  0
  160.6030  207.9990  154.1820 C   0  0  0  0  0  0  0  0  0  0  0  0
  160.2660  210.4190  154.5090 N   0  0  0  0  0  2  0  0  0  0  0  0
  1 15  1  6  0  0  0
  1  3  1  0  0  0  0
  1  2  1  0  0  0  0
  2 19  1  6  0  0  0
  3  2  1  0  0  0  0
  4  7  1  0  0  0  0
  5  7  2  0  0  0  0
  5  1  1  0  0  0  0
  6  4  2  0  0  0  0
  8  6  1  0  0  0  0
  8  9  2  0  0  0  0
  9  5  1  0  0  0  0
 10 11  1  1  0  0  0
 10 12  1  0  0  0  0
 10  8  1  0  0  0  0
 13 12  1  0  0  0  0
 15 14  2  0  0  0  0
 16 15  1  0  0  0  0
 17 16  1  0  0  0  0
 18 17  1  0  0  0  0
 19 28  1  0  0  0  0
 22 24  1  0  0  0  0
 23 20  2  0  0  0  0
 24 27  2  0  0  0  0
 25 20  1  0  0  0  0
 25 21  2  0  0  0  0
 26 25  1  0  0  0  0
 27 21  1  0  0  0  0
 28 26  2  0  0  0  0
 28 23  1  0  0  0  0
 29 26  1  0  0  0  0
 29 24  1  0  0  0  0
M  END
>  <MODEL>
4

>  <REMARK>
 VINA RESULT:      -7.5      2.269      4.329
  Name = 
  8 active torsions:
  status: ('A' for Active; 'I' for Inactive)
    1  A    between atoms: C_1  and  C_17
    2  A    between atoms: C_1  and  C_26
    3  A    between atoms: N_2  and  C_28
    4  A    between atoms: C_4  and  C_9
    5  A    between atoms: C_4  and  C_25
    6  A    between atoms: C_6  and  S_16
    7  A    between atoms: S_16  and  C_20
    8  A    between atoms: C_25  and  C_28
                            x       y       z     vdW  Elec       q    Type
                         _______ _______ _______ _____ _____    ______ ____

>  <TORSDO>
F 8

$$$$
=
 OpenBabel11042423093D

 29 32  0  0  1  0  0  0  0  0999 V2000
  161.1430  205.2870  148.8800 C   0  0  2  0  0  0  0  0  0  0  0  0
  161.5690  206.0290  150.1500 C   0  0  1  0  0  3  0  0  0  0  0  0
  160.1050  205.9810  149.7430 C   0  0  0  0  0  2  0  0  0  0  0  0
  160.7030  201.6750  149.9800 C   0  0  0  0  0  3  0  0  0  0  0  0
  161.0710  203.7840  148.8630 C   0  0  0  0  0  0  0  0  0  0  0  0
  160.8390  201.0270  148.7920 N   0  0  0  0  0  0  0  0  0  0  0  0
  160.8110  203.0650  150.0360 C   0  0  0  0  0  3  0  0  0  0  0  0
  161.0780  201.7000  147.6340 C   0  0  0  0  0  0  0  0  0  0  0  0
  161.1870  203.0970  147.6510 C   0  0  0  0  0  3  0  0  0  0  0  0
  161.2070  200.9390  146.3550 C   0  0  2  0  0  3  0  0  0  0  0  0
  160.0880  201.1590  145.5490 O   0  0  0  0  0  1  0  0  0  0  0  0
  161.3740  199.4530  146.6320 C   0  0  0  0  0  2  0  0  0  0  0  0
  161.2070  198.6580  145.3520 C   0  0  0  0  0  1  0  0  0  0  0  0
  162.6810  206.3320  147.2730 C   0  0  0  0  0  2  0  0  0  0  0  0
  161.4290  205.9920  147.5860 C   0  0  0  0  0  0  0  0  0  0  0  0
  160.3300  206.2040  146.5940 C   0  0  0  0  0  2  0  0  0  0  0  0
  160.8670  206.1860  145.2430 N   0  0  0  0  0  2  0  0  0  0  0  0
  160.4810  204.9150  144.6580 C   0  0  0  0  0  1  0  0  0  0  0  0
  161.8140  204.9550  151.6040 S   0  0  0  0  0  0  0  0  0  0  0  0
  160.8280  207.4090  154.6300 C   0  0  0  0  0  3  0  0  0  0  0  0
  161.1780  209.7070  153.6460 C   0  0  0  0  0  2  0  0  0  0  0  0
  162.3330  210.3470  150.2030 N   0  0  0  0  0  1  0  0  0  0  0  0
  161.0070  206.1420  154.0560 C   0  0  0  0  0  2  0  0  0  0  0  0
  161.9360  209.6350  151.3690 C   0  0  0  0  0  0  0  0  0  0  0  0
  161.1600  208.3240  153.6540 C   0  0  0  0  0  0  0  0  0  0  0  0
  161.5430  207.6240  152.4800 C   0  0  0  0  0  0  0  0  0  0  0  0
  161.5680  210.3300  152.4950 N   0  0  0  0  0  0  0  0  0  0  0  0
  161.4470  206.2860  152.7410 C   0  0  0  0  0  0  0  0  0  0  0  0
  161.9270  208.2680  151.3550 N   0  0  0  0  0  2  0  0  0  0  0  0
  1 15  1  6  0  0  0
  1  3  1  0  0  0  0
  1  2  1  0  0  0  0
  2 19  1  1  0  0  0
  3  2  1  0  0  0  0
  4  7  1  0  0  0  0
  5  1  1  0  0  0  0
  5  7  2  0  0  0  0
  6  4  2  0  0  0  0
  8  9  2  0  0  0  0
  8  6  1  0  0  0  0
  9  5  1  0  0  0  0
 10 11  1  6  0  0  0
 10 12  1  0  0  0  0
 10  8  1  0  0  0  0
 13 12  1  0  0  0  0
 14 15  2  0  0  0  0
 16 15  1  0  0  0  0
 17 16  1  0  0  0  0
 18 17  1  0  0  0  0
 19 28  1  0  0  0  0
 21 25  1  0  0  0  0
 22 24  1  0  0  0  0
 23 20  1  0  0  0  0
 24 27  2  0  0  0  0
 25 20  2  0  0  0  0
 26 28  2  0  0  0  0
 26 25  1  0  0  0  0
 27 21  1  0  0  0  0
 28 23  1  0  0  0  0
 29 24  1  0  0  0  0
 29 26  1  0  0  0  0
M  END
>  <MODEL>
5

>  <REMARK>
 VINA RESULT:      -7.4      1.762      2.415
  Name = 
  8 active torsions:
  status: ('A' for Active; 'I' for Inactive)
    1  A    between atoms: C_1  and  C_17
    2  A    between atoms: C_1  and  C_26
    3  A    between atoms: N_2  and  C_28
    4  A    between atoms: C_4  and  C_9
    5  A    between atoms: C_4  and  C_25
    6  A    between atoms: C_6  and  S_16
    7  A    between atoms: S_16  and  C_20
    8  A    between atoms: C_25  and  C_28
                            x       y       z     vdW  Elec       q    Type
                         _______ _______ _______ _____ _____    ______ ____

>  <TORSDO>
F 8

$$$$
=
 OpenBabel11042423093D

 29 32  0  0  1  0  0  0  0  0999 V2000
  160.9640  209.1870  154.8690 C   0  0  2  0  0  0  0  0  0  0  0  0
  161.5750  208.2880  153.7900 C   0  0  1  0  0  3  0  0  0  0  0  0
  160.5420  207.7330  154.7580 C   0  0  0  0  0  2  0  0  0  0  0  0
  157.7380  211.1980  154.8630 C   0  0  0  0  0  3  0  0  0  0  0  0
  159.9060  210.1970  154.5110 C   0  0  0  0  0  0  0  0  0  0  0  0
  158.0160  212.1260  153.9090 N   0  0  0  0  0  0  0  0  0  0  0  0
  158.6790  210.2200  155.1850 C   0  0  0  0  0  3  0  0  0  0  0  0
  159.2050  212.1370  153.2480 C   0  0  0  0  0  0  0  0  0  0  0  0
  160.1770  211.1740  153.5490 C   0  0  0  0  0  3  0  0  0  0  0  0
  159.4630  213.1880  152.2180 C   0  0  2  0  0  3  0  0  0  0  0  0
  158.2730  213.8400  151.8860 O   0  0  0  0  0  1  0  0  0  0  0  0
  160.0930  212.5760  150.9760 C   0  0  0  0  0  2  0  0  0  0  0  0
  160.1250  213.5900  149.8490 C   0  0  0  0  0  1  0  0  0  0  0  0
  161.9290  208.5980  157.0500 C   0  0  0  0  0  2  0  0  0  0  0  0
  161.8420  209.4770  156.0500 C   0  0  0  0  0  0  0  0  0  0  0  0
  162.7120  210.6940  156.0520 C   0  0  0  0  0  2  0  0  0  0  0  0
  162.4830  211.4700  157.2590 N   0  0  0  0  0  2  0  0  0  0  0  0
  161.2040  212.1350  157.0920 C   0  0  0  0  0  1  0  0  0  0  0  0
  160.8090  208.4620  152.1430 S   0  0  0  0  0  0  0  0  0  0  0  0
  161.3120  204.4750  152.0710 C   0  0  0  0  0  3  0  0  0  0  0  0
  161.2080  203.9250  149.6100 C   0  0  0  0  0  2  0  0  0  0  0  0
  160.7020  206.4150  146.9370 N   0  0  0  0  0  1  0  0  0  0  0  0
  161.2020  205.7100  152.7280 C   0  0  0  0  0  2  0  0  0  0  0  0
  160.8650  205.8670  148.2400 C   0  0  0  0  0  0  0  0  0  0  0  0
  161.1850  204.7430  150.7240 C   0  0  0  0  0  0  0  0  0  0  0  0
  160.9960  206.1400  150.5510 C   0  0  0  0  0  0  0  0  0  0  0  0
  161.0460  204.5140  148.3880 N   0  0  0  0  0  0  0  0  0  0  0  0
  161.0070  206.7210  151.7870 C   0  0  0  0  0  0  0  0  0  0  0  0
  160.8380  206.6940  149.3280 N   0  0  0  0  0  2  0  0  0  0  0  0
  1 15  1  1  0  0  0
  2 19  1  6  0  0  0
  2  3  1  0  0  0  0
  2  1  1  0  0  0  0
  3  1  1  0  0  0  0
  4  7  1  0  0  0  0
  5  1  1  0  0  0  0
  5  7  2  0  0  0  0
  6  4  2  0  0  0  0
  8  9  2  0  0  0  0
  8  6  1  0  0  0  0
  9  5  1  0  0  0  0
 10 11  1  6  0  0  0
 10  8  1  0  0  0  0
 12 10  1  0  0  0  0
 13 12  1  0  0  0  0
 15 16  1  0  0  0  0
 15 14  2  0  0  0  0
 16 17  1  0  0  0  0
 18 17  1  0  0  0  0
 20 23  1  0  0  0  0
 21 25  1  0  0  0  0
 22 24  1  0  0  0  0
 24 27  2  0  0  0  0
 24 29  1  0  0  0  0
 25 20  2  0  0  0  0
 26 25  1  0  0  0  0
 26 28  2  0  0  0  0
 27 21  1  0  0  0  0
 28 19  1  0  0  0  0
 28 23  1  0  0  0  0
 29 26  1  0  0  0  0
M  END
>  <MODEL>
6

>  <REMARK>
 VINA RESULT:      -6.9      3.908      9.426
  Name = 
  8 active torsions:
  status: ('A' for Active; 'I' for Inactive)
    1  A    between atoms: C_1  and  C_17
    2  A    between atoms: C_1  and  C_26
    3  A    between atoms: N_2  and  C_28
    4  A    between atoms: C_4  and  C_9
    5  A    between atoms: C_4  and  C_25
    6  A    between atoms: C_6  and  S_16
    7  A    between atoms: S_16  and  C_20
    8  A    between atoms: C_25  and  C_28
                            x       y       z     vdW  Elec       q    Type
                         _______ _______ _______ _____ _____    ______ ____

>  <TORSDO>
F 8

$$$$
=
 OpenBabel11042423093D

 29 32  0  0  1  0  0  0  0  0999 V2000
  161.7870  208.4320  150.4980 C   0  0  2  0  0  0  0  0  0  0  0  0
  161.2470  207.6940  149.2700 C   0  0  1  0  0  3  0  0  0  0  0  0
  162.7220  207.6130  149.6270 C   0  0  0  0  0  2  0  0  0  0  0  0
  161.7970  206.1520  153.5390 C   0  0  0  0  0  3  0  0  0  0  0  0
  161.5480  207.8880  151.8810 C   0  0  0  0  0  0  0  0  0  0  0  0
  161.1900  206.9480  154.4590 N   0  0  0  0  0  0  0  0  0  0  0  0
  161.9920  206.6090  152.2360 C   0  0  0  0  0  3  0  0  0  0  0  0
  160.7610  208.2010  154.1470 C   0  0  0  0  0  0  0  0  0  0  0  0
  160.9450  208.6960  152.8500 C   0  0  0  0  0  3  0  0  0  0  0  0
  160.1110  209.0380  155.2000 C   0  0  2  0  0  3  0  0  0  0  0  0
  159.8130  210.3050  154.6940 O   0  0  0  0  0  1  0  0  0  0  0  0
  161.0110  209.1560  156.4210 C   0  0  0  0  0  2  0  0  0  0  0  0
  162.1590  210.1040  156.1360 C   0  0  0  0  0  1  0  0  0  0  0  0
  161.9050  210.7070  151.4180 C   0  0  0  0  0  2  0  0  0  0  0  0
  161.9560  209.9160  150.3450 C   0  0  0  0  0  0  0  0  0  0  0  0
  162.3010  210.4930  149.0100 C   0  0  0  0  0  2  0  0  0  0  0  0
  161.9580  211.9050  148.9730 N   0  0  0  0  0  2  0  0  0  0  0  0
  162.6980  212.4850  147.8670 C   0  0  0  0  0  1  0  0  0  0  0  0
  160.4590  206.0900  149.6410 S   0  0  0  0  0  0  0  0  0  0  0  0
  161.2120  205.3900  145.7560 C   0  0  0  0  0  3  0  0  0  0  0  0
  161.3520  202.8730  145.6400 C   0  0  0  0  0  2  0  0  0  0  0  0
  160.9210  200.6260  148.5330 N   0  0  0  0  0  1  0  0  0  0  0  0
  160.9690  206.2340  146.8500 C   0  0  0  0  0  2  0  0  0  0  0  0
  161.0050  201.8260  147.7730 C   0  0  0  0  0  0  0  0  0  0  0  0
  161.1790  204.1030  146.2480 C   0  0  0  0  0  0  0  0  0  0  0  0
  160.9170  204.1520  147.6430 C   0  0  0  0  0  0  0  0  0  0  0  0
  161.2590  201.7590  146.4260 N   0  0  0  0  0  0  0  0  0  0  0  0
  160.7920  205.4650  147.9990 C   0  0  0  0  0  0  0  0  0  0  0  0
  160.8310  203.0320  148.3950 N   0  0  0  0  0  2  0  0  0  0  0  0
  1 15  1  6  0  0  0
  1  5  1  0  0  0  0
  2  3  1  0  0  0  0
  2 19  1  1  0  0  0
  2  1  1  0  0  0  0
  3  1  1  0  0  0  0
  4  6  1  0  0  0  0
  5  7  1  0  0  0  0
  5  9  2  0  0  0  0
  7  4  2  0  0  0  0
  8  6  2  0  0  0  0
  8 10  1  0  0  0  0
  9  8  1  0  0  0  0
 10 11  1  6  0  0  0
 10 12  1  0  0  0  0
 13 12  1  0  0  0  0
 15 14  2  0  0  0  0
 16 15  1  0  0  0  0
 17 16  1  0  0  0  0
 18 17  1  0  0  0  0
 20 25  2  0  0  0  0
 20 23  1  0  0  0  0
 21 25  1  0  0  0  0
 21 27  1  0  0  0  0
 23 28  1  0  0  0  0
 24 29  1  0  0  0  0
 24 22  1  0  0  0  0
 25 26  1  0  0  0  0
 26 28  2  0  0  0  0
 26 29  1  0  0  0  0
 27 24  2  0  0  0  0
 28 19  1  0  0  0  0
M  END
>  <MODEL>
7

>  <REMARK>
 VINA RESULT:      -6.8      3.262      8.160
  Name = 
  8 active torsions:
  status: ('A' for Active; 'I' for Inactive)
    1  A    between atoms: C_1  and  C_17
    2  A    between atoms: C_1  and  C_26
    3  A    between atoms: N_2  and  C_28
    4  A    between atoms: C_4  and  C_9
    5  A    between atoms: C_4  and  C_25
    6  A    between atoms: C_6  and  S_16
    7  A    between atoms: S_16  and  C_20
    8  A    between atoms: C_25  and  C_28
                            x       y       z     vdW  Elec       q    Type
                         _______ _______ _______ _____ _____    ______ ____

>  <TORSDO>
F 8

$$$$
=
 OpenBabel11042423093D

 29 32  0  0  1  0  0  0  0  0999 V2000
  161.2320  206.3440  150.1340 C   0  0  2  0  0  0  0  0  0  0  0  0
  161.5950  205.5040  148.9060 C   0  0  1  0  0  3  0  0  0  0  0  0
  160.1520  205.9090  149.1600 C   0  0  0  0  0  2  0  0  0  0  0  0
  162.1910  209.8610  149.0550 C   0  0  0  0  0  3  0  0  0  0  0  0
  161.5230  207.8210  150.1600 C   0  0  0  0  0  0  0  0  0  0  0  0
  161.9540  210.5540  150.2010 N   0  0  0  0  0  0  0  0  0  0  0  0
  161.9750  208.4840  149.0120 C   0  0  0  0  0  3  0  0  0  0  0  0
  161.5010  209.9400  151.3270 C   0  0  0  0  0  0  0  0  0  0  0  0
  161.2670  208.5580  151.3190 C   0  0  0  0  0  3  0  0  0  0  0  0
  161.2450  210.7520  152.5550 C   0  0  2  0  0  3  0  0  0  0  0  0
  162.0430  210.2990  153.6080 O   0  0  0  0  0  1  0  0  0  0  0  0
  159.7760  210.6880  152.9410 C   0  0  0  0  0  2  0  0  0  0  0  0
  159.6210  210.8270  154.4440 C   0  0  0  0  0  1  0  0  0  0  0  0
  160.6510  204.3980  151.5170 C   0  0  0  0  0  2  0  0  0  0  0  0
  161.2040  205.6100  151.4420 C   0  0  0  0  0  0  0  0  0  0  0  0
  161.9030  206.1840  152.6340 C   0  0  0  0  0  2  0  0  0  0  0  0
  161.1720  205.8560  153.8470 N   0  0  0  0  0  2  0  0  0  0  0  0
  160.9110  207.1100  154.5280 C   0  0  0  0  0  1  0  0  0  0  0  0
  162.2420  206.4660  147.4980 S   0  0  0  0  0  0  0  0  0  0  0  0
  160.7180  204.4480  144.3740 C   0  0  0  0  0  3  0  0  0  0  0  0
  160.4910  202.0970  145.2610 C   0  0  0  0  0  3  0  0  0  0  0  0
  161.4240  201.0580  148.6750 N   0  0  0  0  0  1  0  0  0  0  0  0
  161.1940  205.6110  144.9990 C   0  0  0  0  0  3  0  0  0  0  0  0
  161.2230  201.8910  147.5390 C   0  0  0  0  0  0  0  0  0  0  0  0
  160.8100  203.4420  145.3110 C   0  0  0  0  0  0  0  0  0  0  0  0
  161.3400  203.9800  146.5130 C   0  0  0  0  0  0  0  0  0  0  0  0
  160.7080  201.3520  146.3860 N   0  0  0  0  0  0  0  0  0  0  0  0
  161.5740  205.3110  146.3080 C   0  0  0  0  0  0  0  0  0  0  0  0
  161.5450  203.2180  147.6100 N   0  0  0  0  0  2  0  0  0  0  0  0
  1  5  1  0  0  0  0
  1 15  1  1  0  0  0
  2 19  1  6  0  0  0
  2  3  1  0  0  0  0
  2  1  1  0  0  0  0
  3  1  1  0  0  0  0
  4  6  1  0  0  0  0
  5  9  2  0  0  0  0
  6  8  2  0  0  0  0
  7  4  2  0  0  0  0
  7  5  1  0  0  0  0
  8 10  1  0  0  0  0
  9  8  1  0  0  0  0
 10 12  1  0  0  0  0
 10 11  1  1  0  0  0
 12 13  1  0  0  0  0
 15 14  2  0  0  0  0
 15 16  1  0  0  0  0
 16 17  1  0  0  0  0
 17 18  1  0  0  0  0
 20 23  2  0  0  0  0
 20 25  1  0  0  0  0
 21 25  2  0  0  0  0
 21 27  1  0  0  0  0
 23 28  1  0  0  0  0
 24 29  1  0  0  0  0
 24 22  1  0  0  0  0
 25 26  1  0  0  0  0
 26 29  1  0  0  0  0
 27 24  2  0  0  0  0
 28 26  2  0  0  0  0
 28 19  1  0  0  0  0
M  END
>  <MODEL>
8

>  <REMARK>
 VINA RESULT:      -6.7      2.976      8.488
  Name = 
  8 active torsions:
  status: ('A' for Active; 'I' for Inactive)
    1  A    between atoms: C_1  and  C_17
    2  A    between atoms: C_1  and  C_26
    3  A    between atoms: N_2  and  C_28
    4  A    between atoms: C_4  and  C_9
    5  A    between atoms: C_4  and  C_25
    6  A    between atoms: C_6  and  S_16
    7  A    between atoms: S_16  and  C_20
    8  A    between atoms: C_25  and  C_28
                            x       y       z     vdW  Elec       q    Type
                         _______ _______ _______ _____ _____    ______ ____

>  <TORSDO>
F 8

$$$$
=
 OpenBabel11042423093D

 29 32  0  0  1  0  0  0  0  0999 V2000
  161.7810  207.7310  151.0220 C   0  0  2  0  0  0  0  0  0  0  0  0
  161.5860  206.2720  150.6010 C   0  0  1  0  0  3  0  0  0  0  0  0
  162.9360  206.7490  151.1120 C   0  0  0  0  0  2  0  0  0  0  0  0
  161.1140  208.0890  154.7470 C   0  0  0  0  0  3  0  0  0  0  0  0
  161.2460  208.2220  152.3410 C   0  0  0  0  0  0  0  0  0  0  0  0
  160.3330  209.2030  154.7620 N   0  0  0  0  0  0  0  0  0  0  0  0
  161.5880  207.5820  153.5380 C   0  0  0  0  0  3  0  0  0  0  0  0
  159.9960  209.8540  153.6160 C   0  0  0  0  0  0  0  0  0  0  0  0
  160.4590  209.3770  152.3830 C   0  0  0  0  0  3  0  0  0  0  0  0
  159.1460  211.0810  153.6910 C   0  0  2  0  0  3  0  0  0  0  0  0
  158.7790  211.4920  152.4080 O   0  0  0  0  0  1  0  0  0  0  0  0
  159.8820  212.1980  154.4140 C   0  0  0  0  0  2  0  0  0  0  0  0
  158.9100  213.2850  154.8290 C   0  0  0  0  0  1  0  0  0  0  0  0
  161.7420  208.3280  148.6390 C   0  0  0  0  0  2  0  0  0  0  0  0
  161.9100  208.7220  149.9030 C   0  0  0  0  0  0  0  0  0  0  0  0
  162.1070  210.1720  150.2100 C   0  0  0  0  0  2  0  0  0  0  0  0
  162.3420  210.9150  148.9830 N   0  0  0  0  0  2  0  0  0  0  0  0
  161.5810  212.1460  149.0880 C   0  0  0  0  0  1  0  0  0  0  0  0
  160.8100  205.2170  151.8720 S   0  0  0  0  0  0  0  0  0  0  0  0
  160.9010  201.5950  150.1330 C   0  0  0  0  0  3  0  0  0  0  0  0
  161.1290  202.1390  147.6790 C   0  0  0  0  0  2  0  0  0  0  0  0
  161.3120  205.5580  146.3100 N   0  0  0  0  0  1  0  0  0  0  0  0
  160.8170  202.4460  151.2460 C   0  0  0  0  0  2  0  0  0  0  0  0
  161.2090  204.5010  147.2570 C   0  0  0  0  0  0  0  0  0  0  0  0
  161.0150  202.4130  149.0300 C   0  0  0  0  0  0  0  0  0  0  0  0
  161.0030  203.7670  149.4590 C   0  0  0  0  0  0  0  0  0  0  0  0
  161.2230  203.1990  146.8230 N   0  0  0  0  0  0  0  0  0  0  0  0
  160.8790  203.7730  150.8200 C   0  0  0  0  0  0  0  0  0  0  0  0
  161.0970  204.7960  148.5880 N   0  0  0  0  0  2  0  0  0  0  0  0
  1 15  1  6  0  0  0
  1  3  1  0  0  0  0
  1  5  1  0  0  0  0
  2  1  1  0  0  0  0
  2  3  1  0  0  0  0
  2 19  1  1  0  0  0
  4  6  1  0  0  0  0
  5  9  2  0  0  0  0
  5  7  1  0  0  0  0
  7  4  2  0  0  0  0
  8 10  1  0  0  0  0
  8  6  2  0  0  0  0
  9  8  1  0  0  0  0
 10 11  1  6  0  0  0
 10 12  1  0  0  0  0
 12 13  1  0  0  0  0
 14 15  2  0  0  0  0
 15 16  1  0  0  0  0
 17 18  1  0  0  0  0
 17 16  1  0  0  0  0
 20 23  1  0  0  0  0
 21 25  1  0  0  0  0
 22 24  1  0  0  0  0
 24 29  1  0  0  0  0
 25 26  1  0  0  0  0
 25 20  2  0  0  0  0
 26 28  2  0  0  0  0
 27 24  2  0  0  0  0
 27 21  1  0  0  0  0
 28 23  1  0  0  0  0
 28 19  1  0  0  0  0
 29 26  1  0  0  0  0
M  END
>  <MODEL>
9

>  <REMARK>
 VINA RESULT:      -6.5      3.251      8.259
  Name = 
  8 active torsions:
  status: ('A' for Active; 'I' for Inactive)
    1  A    between atoms: C_1  and  C_17
    2  A    between atoms: C_1  and  C_26
    3  A    between atoms: N_2  and  C_28
    4  A    between atoms: C_4  and  C_9
    5  A    between atoms: C_4  and  C_25
    6  A    between atoms: C_6  and  S_16
    7  A    between atoms: S_16  and  C_20
    8  A    between atoms: C_25  and  C_28
                            x       y       z     vdW  Elec       q    Type
                         _______ _______ _______ _____ _____    ______ ____

>  <TORSDO>
F 8

$$$$
