=
 OpenBabel11042421233D

 33 36  0  0  1  0  0  0  0  0999 V2000
  161.1360  207.1190  151.4120 C   0  0  1  0  0  3  0  0  0  0  0  0
  161.1260  204.8630  150.2650 C   0  0  0  0  0  0  0  0  0  0  0  0
  160.9760  202.5150  151.4600 C   0  0  0  0  0  1  0  0  0  0  0  0
  161.2070  203.0060  149.0040 C   0  0  0  0  0  0  0  0  0  0  0  0
  161.0240  205.6670  151.4420 N   0  0  0  0  0  2  0  0  0  0  0  0
  161.3080  204.2240  148.2170 C   0  0  0  0  0  0  0  0  0  0  0  0
  161.1510  204.2890  146.9340 N   0  0  0  0  0  2  0  0  0  0  0  0
  161.1090  203.3990  150.2650 C   0  0  0  0  0  0  0  0  0  0  0  0
  161.2180  205.3600  149.0700 N   0  0  0  0  0  0  0  0  0  0  0  0
  161.2010  200.5620  148.1250 N   0  0  0  0  0  0  0  0  0  0  0  0
  161.2020  201.6500  148.5160 C   0  0  0  0  0  0  0  0  0  0  0  0
  160.7180  207.6950  152.7250 C   0  0  0  0  0  0  0  0  0  0  0  0
  160.3760  209.4740  155.2340 C   0  0  0  0  0  3  0  0  0  0  0  0
  162.1300  208.6510  156.8790 C   0  0  0  0  0  1  0  0  0  0  0  0
  161.3070  208.4070  155.6640 C   0  0  0  0  0  0  0  0  0  0  0  0
  161.4140  207.2230  155.0610 C   0  0  0  0  0  3  0  0  0  0  0  0
  160.5570  206.7970  153.9140 C   0  0  0  0  0  2  0  0  0  0  0  0
  160.3800  208.9850  152.7680 C   0  0  0  0  0  3  0  0  0  0  0  0
  159.9770  209.7250  153.9810 C   0  0  0  0  0  3  0  0  0  0  0  0
  162.5090  207.5140  151.1140 N   0  0  0  0  0  2  0  0  0  0  0  0
  161.6760  211.7400  149.9420 C   0  0  0  0  0  2  0  0  0  0  0  0
  162.2300  209.4760  149.6300 C   0  0  0  0  0  0  0  0  0  0  0  0
  162.5230  208.0930  149.8360 N   0  0  0  0  0  2  0  0  0  0  0  0
  162.1160  209.9770  148.4530 N   0  0  0  0  0  0  0  0  0  0  0  0
  163.1540  210.6450  151.4650 O   0  0  0  0  0  1  0  0  0  0  0  0
  161.9850  210.4640  150.7260 C   0  0  1  0  0  3  0  0  0  0  0  0
  161.7900  211.3270  148.5530 N   0  0  0  0  0  0  0  0  0  0  0  0
  162.5390  212.9140  146.8290 C   0  0  0  0  0  3  0  0  0  0  0  0
  160.9790  213.7780  145.1880 C   0  0  0  0  0  3  0  0  0  0  0  0
  161.5140  212.1600  147.4190 C   0  0  0  0  0  0  0  0  0  0  0  0
  162.2720  213.7200  145.7180 C   0  0  0  0  0  3  0  0  0  0  0  0
  160.2180  212.2260  146.8830 C   0  0  0  0  0  3  0  0  0  0  0  0
  159.9510  213.0300  145.7710 C   0  0  0  0  0  3  0  0  0  0  0  0
  1 20  1  1  0  0  0
  1  5  1  0  0  0  0
  1 12  1  0  0  0  0
  2  8  1  0  0  0  0
  2  5  1  0  0  0  0
  4  8  2  0  0  0  0
  6  4  1  0  0  0  0
  6  9  1  0  0  0  0
  7  6  2  0  0  0  0
  8  3  1  0  0  0  0
  9  2  2  0  0  0  0
 10 11  3  0  0  0  0
 11  4  1  0  0  0  0
 12 18  2  0  0  0  0
 12 17  1  0  0  0  0
 13 15  1  0  0  0  0
 15 14  1  0  0  0  0
 16 15  2  0  0  0  0
 17 16  1  0  0  0  0
 18 19  1  0  0  0  0
 19 13  2  0  0  0  0
 21 26  1  0  0  0  0
 22 23  1  0  0  0  0
 22 26  1  0  0  0  0
 23 20  1  0  0  0  0
 24 27  1  0  0  0  0
 24 22  2  0  0  0  0
 26 25  1  1  0  0  0
 27 21  1  0  0  0  0
 28 30  1  0  0  0  0
 29 31  1  0  0  0  0
 29 33  2  0  0  0  0
 30 27  1  0  0  0  0
 31 28  2  0  0  0  0
 32 30  2  0  0  0  0
 33 32  1  0  0  0  0
M  END
>  <MODEL>
1

>  <REMARK>
 VINA RESULT:      -7.6      0.000      0.000
  Name = 
  6 active torsions:
  status: ('A' for Active; 'I' for Inactive)
    1  A    between atoms: C_3  and  C_33
    2  A    between atoms: C_8  and  C_27
    3  A    between atoms: N_11  and  C_33
    4  A    between atoms: C_12  and  N_31
    5  A    between atoms: N_13  and  N_32
    6  A    between atoms: N_32  and  C_33
                            x       y       z     vdW  Elec       q    Type
                         _______ _______ _______ _____ _____    ______ ____

>  <TORSDO>
F 6

$$$$
=
 OpenBabel11042421233D

 33 36  0  0  1  0  0  0  0  0999 V2000
  161.2230  207.2210  151.6630 C   0  0  1  0  0  3  0  0  0  0  0  0
  161.1130  205.0800  150.3170 C   0  0  0  0  0  0  0  0  0  0  0  0
  160.8570  202.6430  151.2960 C   0  0  0  0  0  1  0  0  0  0  0  0
  161.1120  203.3440  148.8930 C   0  0  0  0  0  0  0  0  0  0  0  0
  161.0470  205.7790  151.5620 N   0  0  0  0  0  2  0  0  0  0  0  0
  161.2680  204.6220  148.2190 C   0  0  0  0  0  0  0  0  0  0  0  0
  161.1170  204.8100  146.9480 N   0  0  0  0  0  2  0  0  0  0  0  0
  161.0300  203.6250  150.1850 C   0  0  0  0  0  0  0  0  0  0  0  0
  161.2290  205.6790  149.1720 N   0  0  0  0  0  0  0  0  0  0  0  0
  160.9900  200.9930  147.7940 N   0  0  0  0  0  0  0  0  0  0  0  0
  161.0460  202.0390  148.2840 C   0  0  0  0  0  0  0  0  0  0  0  0
  161.0300  207.6660  153.0750 C   0  0  0  0  0  0  0  0  0  0  0  0
  159.9140  208.2160  155.9090 C   0  0  0  0  0  3  0  0  0  0  0  0
  158.6710  210.4240  155.7200 C   0  0  0  0  0  1  0  0  0  0  0  0
  159.6760  209.4750  155.1700 C   0  0  0  0  0  0  0  0  0  0  0  0
  160.3440  209.8340  154.0720 C   0  0  0  0  0  3  0  0  0  0  0  0
  161.4670  209.0390  153.4890 C   0  0  0  0  0  2  0  0  0  0  0  0
  160.5840  206.7740  153.9610 C   0  0  0  0  0  3  0  0  0  0  0  0
  160.3050  207.0470  155.3860 C   0  0  0  0  0  3  0  0  0  0  0  0
  162.5570  207.6000  151.2040 N   0  0  0  0  0  2  0  0  0  0  0  0
  161.7240  211.7810  149.8810 C   0  0  0  0  0  2  0  0  0  0  0  0
  162.1640  209.4830  149.6450 C   0  0  0  0  0  0  0  0  0  0  0  0
  162.4350  208.1030  149.9000 N   0  0  0  0  0  2  0  0  0  0  0  0
  161.9250  209.9200  148.4610 N   0  0  0  0  0  0  0  0  0  0  0  0
  163.3380  210.7190  151.2840 O   0  0  0  0  0  1  0  0  0  0  0  0
  162.0830  210.5410  150.7000 C   0  0  1  0  0  3  0  0  0  0  0  0
  161.6570  211.2850  148.5160 N   0  0  0  0  0  0  0  0  0  0  0  0
  159.9700  211.9780  146.8660 C   0  0  0  0  0  3  0  0  0  0  0  0
  160.5190  213.5990  145.1490 C   0  0  0  0  0  3  0  0  0  0  0  0
  161.2750  212.0630  147.3740 C   0  0  0  0  0  0  0  0  0  0  0  0
  159.5940  212.7430  145.7570 C   0  0  0  0  0  3  0  0  0  0  0  0
  162.1970  212.9220  146.7570 C   0  0  0  0  0  3  0  0  0  0  0  0
  161.8210  213.6890  145.6490 C   0  0  0  0  0  3  0  0  0  0  0  0
  1 20  1  1  0  0  0
  1 12  1  0  0  0  0
  2  5  1  0  0  0  0
  4  8  2  0  0  0  0
  5  1  1  0  0  0  0
  6  4  1  0  0  0  0
  6  9  1  0  0  0  0
  7  6  2  0  0  0  0
  8  2  1  0  0  0  0
  8  3  1  0  0  0  0
  9  2  2  0  0  0  0
 10 11  3  0  0  0  0
 11  4  1  0  0  0  0
 12 17  1  0  0  0  0
 12 18  2  0  0  0  0
 15 14  1  0  0  0  0
 15 13  1  0  0  0  0
 16 15  2  0  0  0  0
 17 16  1  0  0  0  0
 18 19  1  0  0  0  0
 19 13  2  0  0  0  0
 21 26  1  0  0  0  0
 22 23  1  0  0  0  0
 22 26  1  0  0  0  0
 23 20  1  0  0  0  0
 24 27  1  0  0  0  0
 24 22  2  0  0  0  0
 26 25  1  6  0  0  0
 27 21  1  0  0  0  0
 28 30  1  0  0  0  0
 29 33  2  0  0  0  0
 29 31  1  0  0  0  0
 30 27  1  0  0  0  0
 31 28  2  0  0  0  0
 32 30  2  0  0  0  0
 33 32  1  0  0  0  0
M  END
>  <MODEL>
2

>  <REMARK>
 VINA RESULT:      -7.3      0.668      1.553
  Name = 
  6 active torsions:
  status: ('A' for Active; 'I' for Inactive)
    1  A    between atoms: C_3  and  C_33
    2  A    between atoms: C_8  and  C_27
    3  A    between atoms: N_11  and  C_33
    4  A    between atoms: C_12  and  N_31
    5  A    between atoms: N_13  and  N_32
    6  A    between atoms: N_32  and  C_33
                            x       y       z     vdW  Elec       q    Type
                         _______ _______ _______ _____ _____    ______ ____

>  <TORSDO>
F 6

$$$$
=
 OpenBabel11042421233D

 33 36  0  0  1  0  0  0  0  0999 V2000
  161.1900  210.4360  151.2500 C   0  0  1  0  0  3  0  0  0  0  0  0
  159.9610  211.2460  153.3100 C   0  0  0  0  0  0  0  0  0  0  0  0
  161.0270  211.6670  155.6870 C   0  0  0  0  0  1  0  0  0  0  0  0
  158.6220  211.9020  154.9890 C   0  0  0  0  0  0  0  0  0  0  0  0
  161.1680  210.8780  152.6390 N   0  0  0  0  0  2  0  0  0  0  0  0
  157.9010  211.7000  153.7430 C   0  0  0  0  0  0  0  0  0  0  0  0
  156.7050  212.1290  153.5040 N   0  0  0  0  0  2  0  0  0  0  0  0
  159.8870  211.6090  154.7260 C   0  0  0  0  0  0  0  0  0  0  0  0
  158.8100  211.3170  152.7160 N   0  0  0  0  0  0  0  0  0  0  0  0
  157.6440  212.6970  157.2610 N   0  0  0  0  0  0  0  0  0  0  0  0
  158.0780  212.3420  156.2490 C   0  0  0  0  0  0  0  0  0  0  0  0
  161.2740  211.6130  150.3360 C   0  0  0  0  0  0  0  0  0  0  0  0
  160.6390  214.0130  148.4880 C   0  0  0  0  0  3  0  0  0  0  0  0
  160.4420  213.0260  146.1560 C   0  0  0  0  0  1  0  0  0  0  0  0
  160.9210  212.8980  147.5580 C   0  0  0  0  0  0  0  0  0  0  0  0
  161.6220  211.8120  147.8860 C   0  0  0  0  0  3  0  0  0  0  0  0
  162.2710  211.6160  149.2170 C   0  0  0  0  0  2  0  0  0  0  0  0
  160.5360  212.6870  150.6220 C   0  0  0  0  0  3  0  0  0  0  0  0
  160.4700  213.9210  149.8140 C   0  0  0  0  0  3  0  0  0  0  0  0
  162.3270  209.5500  151.0210 N   0  0  0  0  0  2  0  0  0  0  0  0
  161.5930  205.2460  151.9480 C   0  0  0  0  0  2  0  0  0  0  0  0
  161.7170  207.1840  150.6220 C   0  0  0  0  0  0  0  0  0  0  0  0
  161.9060  208.5230  150.1620 N   0  0  0  0  0  2  0  0  0  0  0  0
  161.4580  206.2190  149.8140 N   0  0  0  0  0  0  0  0  0  0  0  0
  160.8240  207.3370  152.8060 O   0  0  0  0  0  1  0  0  0  0  0  0
  161.8390  206.7510  152.0490 C   0  0  1  0  0  3  0  0  0  0  0  0
  161.3640  205.0290  150.5290 N   0  0  0  0  0  0  0  0  0  0  0  0
  161.2050  203.6230  148.5170 C   0  0  0  0  0  3  0  0  0  0  0  0
  160.7810  201.2440  148.7050 C   0  0  0  0  0  3  0  0  0  0  0  0
  161.1610  203.7500  149.9120 C   0  0  0  0  0  0  0  0  0  0  0  0
  161.0160  202.3740  147.9150 C   0  0  0  0  0  3  0  0  0  0  0  0
  160.9220  202.6110  150.6980 C   0  0  0  0  0  3  0  0  0  0  0  0
  160.7350  201.3620  150.0970 C   0  0  0  0  0  3  0  0  0  0  0  0
  1 20  1  1  0  0  0
  1  5  1  0  0  0  0
  2  8  1  0  0  0  0
  4 11  1  0  0  0  0
  5  2  1  0  0  0  0
  6  4  1  0  0  0  0
  7  6  2  0  0  0  0
  8  4  2  0  0  0  0
  8  3  1  0  0  0  0
  9  2  2  0  0  0  0
  9  6  1  0  0  0  0
 11 10  3  0  0  0  0
 12 18  2  0  0  0  0
 12  1  1  0  0  0  0
 13 19  2  0  0  0  0
 14 15  1  0  0  0  0
 15 16  2  0  0  0  0
 15 13  1  0  0  0  0
 16 17  1  0  0  0  0
 17 12  1  0  0  0  0
 19 18  1  0  0  0  0
 21 26  1  0  0  0  0
 22 26  1  0  0  0  0
 23 22  1  0  0  0  0
 23 20  1  0  0  0  0
 24 27  1  0  0  0  0
 24 22  2  0  0  0  0
 26 25  1  1  0  0  0
 27 21  1  0  0  0  0
 28 30  1  0  0  0  0
 29 33  2  0  0  0  0
 30 27  1  0  0  0  0
 30 32  2  0  0  0  0
 31 28  2  0  0  0  0
 31 29  1  0  0  0  0
 33 32  1  0  0  0  0
M  END
>  <MODEL>
3

>  <REMARK>
 VINA RESULT:      -7.0      2.900      8.668
  Name = 
  6 active torsions:
  status: ('A' for Active; 'I' for Inactive)
    1  A    between atoms: C_3  and  C_33
    2  A    between atoms: C_8  and  C_27
    3  A    between atoms: N_11  and  C_33
    4  A    between atoms: C_12  and  N_31
    5  A    between atoms: N_13  and  N_32
    6  A    between atoms: N_32  and  C_33
                            x       y       z     vdW  Elec       q    Type
                         _______ _______ _______ _____ _____    ______ ____

>  <TORSDO>
F 6

$$$$
=
 OpenBabel11042421233D

 33 36  0  0  1  0  0  0  0  0999 V2000
  160.4510  212.0190  154.0280 C   0  0  1  0  0  3  0  0  0  0  0  0
  158.4010  212.8910  152.8260 C   0  0  0  0  0  0  0  0  0  0  0  0
  156.0220  213.2800  153.8980 C   0  0  0  0  0  1  0  0  0  0  0  0
  156.7320  213.6110  151.5070 C   0  0  0  0  0  0  0  0  0  0  0  0
  159.0660  212.4690  154.0190 N   0  0  0  0  0  2  0  0  0  0  0  0
  157.9810  213.4330  150.7840 C   0  0  0  0  0  0  0  0  0  0  0  0
  158.2270  213.9100  149.6080 N   0  0  0  0  0  2  0  0  0  0  0  0
  156.9870  213.2640  152.7600 C   0  0  0  0  0  0  0  0  0  0  0  0
  159.0010  213.0070  151.6810 N   0  0  0  0  0  0  0  0  0  0  0  0
  154.4680  214.4530  150.5530 N   0  0  0  0  0  0  0  0  0  0  0  0
  155.4770  214.0800  150.9760 C   0  0  0  0  0  0  0  0  0  0  0  0
  160.6930  211.1210  155.1960 C   0  0  0  0  0  0  0  0  0  0  0  0
  161.6930  208.8890  157.0920 C   0  0  0  0  0  3  0  0  0  0  0  0
  160.0820  206.9540  156.7550 C   0  0  0  0  0  1  0  0  0  0  0  0
  160.3790  208.4050  156.6170 C   0  0  0  0  0  0  0  0  0  0  0  0
  159.4260  209.1970  156.1220 C   0  0  0  0  0  3  0  0  0  0  0  0
  159.5410  210.6850  156.0500 C   0  0  0  0  0  2  0  0  0  0  0  0
  161.9550  210.8310  155.5170 C   0  0  0  0  0  3  0  0  0  0  0  0
  162.3760  209.9370  156.6150 C   0  0  0  0  0  3  0  0  0  0  0  0
  160.7590  211.3110  152.7890 N   0  0  0  0  0  2  0  0  0  0  0  0
  161.9660  207.8720  150.2110 C   0  0  0  0  0  2  0  0  0  0  0  0
  161.0680  208.9540  152.0960 C   0  0  0  0  0  0  0  0  0  0  0  0
  160.6260  209.9360  153.0350 N   0  0  0  0  0  2  0  0  0  0  0  0
  160.8310  207.7020  152.2610 N   0  0  0  0  0  0  0  0  0  0  0  0
  163.0540  209.7920  151.1230 O   0  0  0  0  0  1  0  0  0  0  0  0
  161.7980  209.2610  150.8270 C   0  0  1  0  0  3  0  0  0  0  0  0
  161.3390  206.9880  151.1790 N   0  0  0  0  0  0  0  0  0  0  0  0
  161.1210  204.7340  152.1390 C   0  0  0  0  0  3  0  0  0  0  0  0
  160.8250  202.8050  150.7010 C   0  0  0  0  0  3  0  0  0  0  0  0
  161.1720  205.5730  151.0170 C   0  0  0  0  0  0  0  0  0  0  0  0
  160.9490  203.3540  151.9820 C   0  0  0  0  0  3  0  0  0  0  0  0
  161.0490  205.0140  149.7350 C   0  0  0  0  0  3  0  0  0  0  0  0
  160.8740  203.6350  149.5770 C   0  0  0  0  0  3  0  0  0  0  0  0
  1 20  1  6  0  0  0
  1 12  1  0  0  0  0
  2  5  1  0  0  0  0
  4  8  2  0  0  0  0
  5  1  1  0  0  0  0
  6  4  1  0  0  0  0
  6  9  1  0  0  0  0
  7  6  2  0  0  0  0
  8  2  1  0  0  0  0
  8  3  1  0  0  0  0
  9  2  2  0  0  0  0
 10 11  3  0  0  0  0
 11  4  1  0  0  0  0
 12 18  2  0  0  0  0
 12 17  1  0  0  0  0
 15 14  1  0  0  0  0
 15 13  1  0  0  0  0
 16 15  2  0  0  0  0
 17 16  1  0  0  0  0
 18 19  1  0  0  0  0
 19 13  2  0  0  0  0
 20 23  1  0  0  0  0
 21 26  1  0  0  0  0
 21 27  1  0  0  0  0
 22 24  2  0  0  0  0
 22 23  1  0  0  0  0
 26 25  1  1  0  0  0
 26 22  1  0  0  0  0
 27 24  1  0  0  0  0
 29 31  2  0  0  0  0
 30 27  1  0  0  0  0
 30 28  2  0  0  0  0
 31 28  1  0  0  0  0
 32 30  1  0  0  0  0
 33 32  2  0  0  0  0
 33 29  1  0  0  0  0
M  END
>  <MODEL>
4

>  <REMARK>
 VINA RESULT:      -6.9      3.390      7.988
  Name = 
  6 active torsions:
  status: ('A' for Active; 'I' for Inactive)
    1  A    between atoms: C_3  and  C_33
    2  A    between atoms: C_8  and  C_27
    3  A    between atoms: N_11  and  C_33
    4  A    between atoms: C_12  and  N_31
    5  A    between atoms: N_13  and  N_32
    6  A    between atoms: N_32  and  C_33
                            x       y       z     vdW  Elec       q    Type
                         _______ _______ _______ _____ _____    ______ ____

>  <TORSDO>
F 6

$$$$
=
 OpenBabel11042421233D

 33 36  0  0  1  0  0  0  0  0999 V2000
  161.1410  206.9560  152.4000 C   0  0  1  0  0  3  0  0  0  0  0  0
  161.1310  204.7680  151.1270 C   0  0  0  0  0  0  0  0  0  0  0  0
  161.2290  202.3540  152.1890 C   0  0  0  0  0  1  0  0  0  0  0  0
  161.1790  202.9900  149.7560 C   0  0  0  0  0  0  0  0  0  0  0  0
  161.1100  205.5000  152.3550 N   0  0  0  0  0  2  0  0  0  0  0  0
  161.1340  204.2530  149.0370 C   0  0  0  0  0  0  0  0  0  0  0  0
  160.8430  204.3780  147.7820 N   0  0  0  0  0  2  0  0  0  0  0  0
  161.1910  203.3080  151.0420 C   0  0  0  0  0  0  0  0  0  0  0  0
  161.0740  205.3330  149.9610 N   0  0  0  0  0  0  0  0  0  0  0  0
  161.2060  200.6000  148.7400 N   0  0  0  0  0  0  0  0  0  0  0  0
  161.1950  201.6650  149.1900 C   0  0  0  0  0  0  0  0  0  0  0  0
  160.9640  207.4310  153.8050 C   0  0  0  0  0  0  0  0  0  0  0  0
  159.8390  208.1480  156.5970 C   0  0  0  0  0  3  0  0  0  0  0  0
  158.9300  210.5100  156.3640 C   0  0  0  0  0  1  0  0  0  0  0  0
  159.8080  209.4250  155.8500 C   0  0  0  0  0  0  0  0  0  0  0  0
  160.5580  209.6790  154.7770 C   0  0  0  0  0  3  0  0  0  0  0  0
  161.5760  208.7300  154.2340 C   0  0  0  0  0  2  0  0  0  0  0  0
  160.3650  206.6160  154.6740 C   0  0  0  0  0  3  0  0  0  0  0  0
  160.0770  206.9330  156.0880 C   0  0  0  0  0  3  0  0  0  0  0  0
  162.4070  207.4500  151.8680 N   0  0  0  0  0  2  0  0  0  0  0  0
  161.8860  209.3910  147.8820 C   0  0  0  0  0  2  0  0  0  0  0  0
  162.0880  209.2720  150.2220 C   0  0  0  0  0  0  0  0  0  0  0  0
  162.2450  208.8110  151.5660 N   0  0  0  0  0  2  0  0  0  0  0  0
  162.0690  210.5240  149.9330 N   0  0  0  0  0  0  0  0  0  0  0  0
  160.7930  207.6480  149.0930 O   0  0  0  0  0  1  0  0  0  0  0  0
  161.9780  208.3810  149.0260 C   0  0  1  0  0  3  0  0  0  0  0  0
  161.9460  210.6790  148.5550 N   0  0  0  0  0  0  0  0  0  0  0  0
  161.0570  212.2400  146.8750 C   0  0  0  0  0  3  0  0  0  0  0  0
  162.0120  214.4530  146.6210 C   0  0  0  0  0  3  0  0  0  0  0  0
  161.9730  211.9530  147.8970 C   0  0  0  0  0  0  0  0  0  0  0  0
  161.0770  213.4860  146.2380 C   0  0  0  0  0  3  0  0  0  0  0  0
  162.9100  212.9280  148.2740 C   0  0  0  0  0  3  0  0  0  0  0  0
  162.9290  214.1750  147.6390 C   0  0  0  0  0  3  0  0  0  0  0  0
  1 20  1  1  0  0  0
  1 12  1  0  0  0  0
  2  5  1  0  0  0  0
  4  8  2  0  0  0  0
  5  1  1  0  0  0  0
  6  4  1  0  0  0  0
  6  9  1  0  0  0  0
  7  6  2  0  0  0  0
  8  2  1  0  0  0  0
  8  3  1  0  0  0  0
  9  2  2  0  0  0  0
 10 11  3  0  0  0  0
 11  4  1  0  0  0  0
 12 17  1  0  0  0  0
 12 18  2  0  0  0  0
 15 14  1  0  0  0  0
 15 13  1  0  0  0  0
 16 15  2  0  0  0  0
 17 16  1  0  0  0  0
 18 19  1  0  0  0  0
 19 13  2  0  0  0  0
 21 27  1  0  0  0  0
 21 26  1  0  0  0  0
 22 23  1  0  0  0  0
 23 20  1  0  0  0  0
 24 22  2  0  0  0  0
 26 25  1  1  0  0  0
 26 22  1  0  0  0  0
 27 24  1  0  0  0  0
 28 30  1  0  0  0  0
 29 33  2  0  0  0  0
 30 32  2  0  0  0  0
 30 27  1  0  0  0  0
 31 29  1  0  0  0  0
 31 28  2  0  0  0  0
 33 32  1  0  0  0  0
M  END
>  <MODEL>
5

>  <REMARK>
 VINA RESULT:      -6.6      1.378      2.058
  Name = 
  6 active torsions:
  status: ('A' for Active; 'I' for Inactive)
    1  A    between atoms: C_3  and  C_33
    2  A    between atoms: C_8  and  C_27
    3  A    between atoms: N_11  and  C_33
    4  A    between atoms: C_12  and  N_31
    5  A    between atoms: N_13  and  N_32
    6  A    between atoms: N_32  and  C_33
                            x       y       z     vdW  Elec       q    Type
                         _______ _______ _______ _____ _____    ______ ____

>  <TORSDO>
F 6

$$$$
=
 OpenBabel11042421233D

 33 36  0  0  1  0  0  0  0  0999 V2000
  162.3300  209.4500  151.2370 C   0  0  1  0  0  3  0  0  0  0  0  0
  160.7320  210.1310  153.0790 C   0  0  0  0  0  0  0  0  0  0  0  0
  158.4690  211.4510  152.7620 C   0  0  0  0  0  1  0  0  0  0  0  0
  159.5350  210.6690  154.9020 C   0  0  0  0  0  0  0  0  0  0  0  0
  161.0760  210.0350  151.6950 N   0  0  0  0  0  2  0  0  0  0  0  0
  160.7590  209.9530  155.2250 C   0  0  0  0  0  0  0  0  0  0  0  0
  161.0120  209.4020  156.3670 N   0  0  0  0  0  2  0  0  0  0  0  0
  159.5260  210.7910  153.5830 C   0  0  0  0  0  0  0  0  0  0  0  0
  161.4510  209.6160  154.0280 N   0  0  0  0  0  0  0  0  0  0  0  0
  157.7240  211.5160  156.5590 N   0  0  0  0  0  0  0  0  0  0  0  0
  158.5320  211.1400  155.8230 C   0  0  0  0  0  0  0  0  0  0  0  0
  162.1060  208.0450  150.7830 C   0  0  0  0  0  0  0  0  0  0  0  0
  160.8650  205.3300  149.9700 C   0  0  0  0  0  3  0  0  0  0  0  0
  160.7660  203.9720  152.1150 C   0  0  0  0  0  1  0  0  0  0  0  0
  161.3350  205.1180  151.3560 C   0  0  0  0  0  0  0  0  0  0  0  0
  162.2720  205.8590  151.9480 C   0  0  0  0  0  3  0  0  0  0  0  0
  163.0190  206.9560  151.2590 C   0  0  0  0  0  2  0  0  0  0  0  0
  161.1680  207.8230  149.8610 C   0  0  0  0  0  3  0  0  0  0  0  0
  160.7910  206.5000  149.3230 C   0  0  0  0  0  3  0  0  0  0  0  0
  162.8840  210.2410  150.1420 N   0  0  0  0  0  2  0  0  0  0  0  0
  162.2530  213.5510  147.2150 C   0  0  0  0  0  2  0  0  0  0  0  0
  161.8280  211.5050  148.2940 C   0  0  0  0  0  0  0  0  0  0  0  0
  161.8900  210.3700  149.1590 N   0  0  0  0  0  2  0  0  0  0  0  0
  160.8480  211.6870  147.4830 N   0  0  0  0  0  0  0  0  0  0  0  0
  164.0610  212.1070  147.8020 O   0  0  0  0  0  1  0  0  0  0  0  0
  162.8410  212.6050  148.2610 C   0  0  1  0  0  3  0  0  0  0  0  0
  161.0290  212.8850  146.7990 N   0  0  0  0  0  0  0  0  0  0  0  0
  160.4670  213.7900  144.5810 C   0  0  0  0  0  3  0  0  0  0  0  0
  158.1950  214.4530  144.0600 C   0  0  0  0  0  3  0  0  0  0  0  0
  160.0720  213.4210  145.8750 C   0  0  0  0  0  0  0  0  0  0  0  0
  159.5320  214.3050  143.6770 C   0  0  0  0  0  3  0  0  0  0  0  0
  158.7280  213.5750  146.2520 C   0  0  0  0  0  3  0  0  0  0  0  0
  157.7920  214.0870  145.3480 C   0  0  0  0  0  3  0  0  0  0  0  0
  1 20  1  6  0  0  0
  1  5  1  0  0  0  0
  2  8  1  0  0  0  0
  2  9  2  0  0  0  0
  3  8  1  0  0  0  0
  4  6  1  0  0  0  0
  4 11  1  0  0  0  0
  5  2  1  0  0  0  0
  6  7  2  0  0  0  0
  8  4  2  0  0  0  0
  9  6  1  0  0  0  0
 11 10  3  0  0  0  0
 12  1  1  0  0  0  0
 12 17  1  0  0  0  0
 13 15  1  0  0  0  0
 15 16  2  0  0  0  0
 15 14  1  0  0  0  0
 17 16  1  0  0  0  0
 18 12  2  0  0  0  0
 19 18  1  0  0  0  0
 19 13  2  0  0  0  0
 21 26  1  0  0  0  0
 22 23  1  0  0  0  0
 23 20  1  0  0  0  0
 24 22  2  0  0  0  0
 26 25  1  6  0  0  0
 26 22  1  0  0  0  0
 27 21  1  0  0  0  0
 27 24  1  0  0  0  0
 28 30  1  0  0  0  0
 29 33  2  0  0  0  0
 30 32  2  0  0  0  0
 30 27  1  0  0  0  0
 31 29  1  0  0  0  0
 31 28  2  0  0  0  0
 33 32  1  0  0  0  0
M  END
>  <MODEL>
6

>  <REMARK>
 VINA RESULT:      -6.5      3.019      6.087
  Name = 
  6 active torsions:
  status: ('A' for Active; 'I' for Inactive)
    1  A    between atoms: C_3  and  C_33
    2  A    between atoms: C_8  and  C_27
    3  A    between atoms: N_11  and  C_33
    4  A    between atoms: C_12  and  N_31
    5  A    between atoms: N_13  and  N_32
    6  A    between atoms: N_32  and  C_33
                            x       y       z     vdW  Elec       q    Type
                         _______ _______ _______ _____ _____    ______ ____

>  <TORSDO>
F 6

$$$$
=
 OpenBabel11042421233D

 33 36  0  0  1  0  0  0  0  0999 V2000
  161.5920  209.5380  150.5430 C   0  0  1  0  0  3  0  0  0  0  0  0
  161.9420  211.2120  148.6760 C   0  0  0  0  0  0  0  0  0  0  0  0
  164.2610  212.1930  147.8870 C   0  0  0  0  0  1  0  0  0  0  0  0
  161.9600  212.7410  147.0320 C   0  0  0  0  0  0  0  0  0  0  0  0
  162.4560  210.3260  149.6730 N   0  0  0  0  0  2  0  0  0  0  0  0
  160.6170  212.2950  147.3690 C   0  0  0  0  0  0  0  0  0  0  0  0
  159.5690  212.4900  146.6380 N   0  0  0  0  0  2  0  0  0  0  0  0
  162.7730  212.0850  147.8450 C   0  0  0  0  0  0  0  0  0  0  0  0
  160.6800  211.3070  148.3920 N   0  0  0  0  0  0  0  0  0  0  0  0
  162.6340  214.4530  145.1980 N   0  0  0  0  0  0  0  0  0  0  0  0
  162.3320  213.6920  146.0150 C   0  0  0  0  0  0  0  0  0  0  0  0
  161.7540  208.0830  150.2480 C   0  0  0  0  0  0  0  0  0  0  0  0
  161.2840  205.1090  149.5360 C   0  0  0  0  0  3  0  0  0  0  0  0
  160.8400  203.9530  151.7550 C   0  0  0  0  0  1  0  0  0  0  0  0
  161.3840  205.1210  151.0120 C   0  0  0  0  0  0  0  0  0  0  0  0
  161.9770  206.0900  151.7110 C   0  0  0  0  0  3  0  0  0  0  0  0
  162.6780  207.2530  151.0860 C   0  0  0  0  0  2  0  0  0  0  0  0
  161.1590  207.5910  149.1600 C   0  0  0  0  0  3  0  0  0  0  0  0
  161.1840  206.1770  148.7350 C   0  0  0  0  0  3  0  0  0  0  0  0
  161.9150  209.7970  151.9430 N   0  0  0  0  0  2  0  0  0  0  0  0
  159.3110  210.0410  155.5610 C   0  0  0  0  0  2  0  0  0  0  0  0
  160.3300  210.7770  153.5730 C   0  0  0  0  0  0  0  0  0  0  0  0
  161.1110  210.8610  152.3800 N   0  0  0  0  0  2  0  0  0  0  0  0
  159.4970  211.6970  153.9050 N   0  0  0  0  0  0  0  0  0  0  0  0
  161.6070  209.5440  155.1350 O   0  0  0  0  0  1  0  0  0  0  0  0
  160.3550  209.6230  154.5250 C   0  0  1  0  0  3  0  0  0  0  0  0
  158.8510  211.3350  155.0840 N   0  0  0  0  0  0  0  0  0  0  0  0
  156.7070  211.4730  156.2810 C   0  0  0  0  0  3  0  0  0  0  0  0
  155.7600  213.6250  156.8690 C   0  0  0  0  0  3  0  0  0  0  0  0
  157.8030  212.1100  155.6820 C   0  0  0  0  0  0  0  0  0  0  0  0
  155.6890  212.2280  156.8720 C   0  0  0  0  0  3  0  0  0  0  0  0
  157.8660  213.5120  155.6800 C   0  0  0  0  0  3  0  0  0  0  0  0
  156.8490  214.2680  156.2730 C   0  0  0  0  0  3  0  0  0  0  0  0
  1  5  1  6  0  0  0
  1 20  1  0  0  0  0
  2  5  1  0  0  0  0
  4  6  1  0  0  0  0
  4  8  2  0  0  0  0
  6  9  1  0  0  0  0
  7  6  2  0  0  0  0
  8  3  1  0  0  0  0
  8  2  1  0  0  0  0
  9  2  2  0  0  0  0
 10 11  3  0  0  0  0
 11  4  1  0  0  0  0
 12  1  1  0  0  0  0
 12 17  1  0  0  0  0
 13 15  1  0  0  0  0
 15 16  2  0  0  0  0
 15 14  1  0  0  0  0
 17 16  1  0  0  0  0
 18 12  2  0  0  0  0
 19 18  1  0  0  0  0
 19 13  2  0  0  0  0
 20 23  1  0  0  0  0
 22 24  2  0  0  0  0
 22 26  1  0  0  0  0
 23 22  1  0  0  0  0
 24 27  1  0  0  0  0
 26 25  1  1  0  0  0
 26 21  1  0  0  0  0
 27 21  1  0  0  0  0
 27 30  1  0  0  0  0
 28 31  1  0  0  0  0
 29 31  2  0  0  0  0
 30 28  2  0  0  0  0
 32 30  1  0  0  0  0
 32 33  2  0  0  0  0
 33 29  1  0  0  0  0
M  END
>  <MODEL>
7

>  <REMARK>
 VINA RESULT:      -6.4      3.239      7.953
  Name = 
  6 active torsions:
  status: ('A' for Active; 'I' for Inactive)
    1  A    between atoms: C_3  and  C_33
    2  A    between atoms: C_8  and  C_27
    3  A    between atoms: N_11  and  C_33
    4  A    between atoms: C_12  and  N_31
    5  A    between atoms: N_13  and  N_32
    6  A    between atoms: N_32  and  C_33
                            x       y       z     vdW  Elec       q    Type
                         _______ _______ _______ _____ _____    ______ ____

>  <TORSDO>
F 6

$$$$
=
 OpenBabel11042421233D

 33 36  0  0  1  0  0  0  0  0999 V2000
  162.3050  209.4490  151.2610 C   0  0  1  0  0  3  0  0  0  0  0  0
  160.8430  210.1720  153.1970 C   0  0  0  0  0  0  0  0  0  0  0  0
  161.1570  209.4770  155.7230 C   0  0  0  0  0  1  0  0  0  0  0  0
  159.3530  210.9060  154.7080 C   0  0  0  0  0  0  0  0  0  0  0  0
  161.9920  209.4940  152.6830 N   0  0  0  0  0  2  0  0  0  0  0  0
  159.0540  211.3580  153.3590 C   0  0  0  0  0  0  0  0  0  0  0  0
  158.2310  212.3120  153.0660 N   0  0  0  0  0  2  0  0  0  0  0  0
  160.4460  210.1660  154.6060 C   0  0  0  0  0  0  0  0  0  0  0  0
  160.0500  210.8860  152.4590 N   0  0  0  0  0  0  0  0  0  0  0  0
  158.0310  211.4560  156.8750 N   0  0  0  0  0  0  0  0  0  0  0  0
  158.6210  211.2100  155.9120 C   0  0  0  0  0  0  0  0  0  0  0  0
  162.0810  208.0720  150.7280 C   0  0  0  0  0  0  0  0  0  0  0  0
  160.8360  205.4300  149.7050 C   0  0  0  0  0  3  0  0  0  0  0  0
  160.5490  203.9830  151.7740 C   0  0  0  0  0  1  0  0  0  0  0  0
  161.1990  205.1450  151.1110 C   0  0  0  0  0  0  0  0  0  0  0  0
  162.1090  205.8330  151.8010 C   0  0  0  0  0  3  0  0  0  0  0  0
  162.9300  206.9370  151.2170 C   0  0  0  0  0  2  0  0  0  0  0  0
  161.2060  207.9170  149.7330 C   0  0  0  0  0  3  0  0  0  0  0  0
  160.8370  206.6290  149.1100 C   0  0  0  0  0  3  0  0  0  0  0  0
  161.4750  210.4020  150.5310 N   0  0  0  0  0  2  0  0  0  0  0  0
  160.3490  213.4240  147.4450 C   0  0  0  0  0  2  0  0  0  0  0  0
  161.6660  211.7720  148.4780 C   0  0  0  0  0  0  0  0  0  0  0  0
  162.1700  210.7770  149.3710 N   0  0  0  0  0  2  0  0  0  0  0  0
  162.2340  212.0240  147.3530 N   0  0  0  0  0  0  0  0  0  0  0  0
  160.6260  213.4210  149.8160 O   0  0  0  0  0  1  0  0  0  0  0  0
  160.4320  212.5820  148.7180 C   0  0  1  0  0  3  0  0  0  0  0  0
  161.5100  213.0030  146.6780 N   0  0  0  0  0  0  0  0  0  0  0  0
  163.1410  213.3280  144.8660 C   0  0  0  0  0  3  0  0  0  0  0  0
  162.4640  214.3230  142.7620 C   0  0  0  0  0  3  0  0  0  0  0  0
  161.8340  213.4550  145.3560 C   0  0  0  0  0  0  0  0  0  0  0  0
  163.4560  213.7610  143.5730 C   0  0  0  0  0  3  0  0  0  0  0  0
  160.8450  214.0220  144.5360 C   0  0  0  0  0  3  0  0  0  0  0  0
  161.1580  214.4530  143.2430 C   0  0  0  0  0  3  0  0  0  0  0  0
  1 20  1  6  0  0  0
  1  5  1  0  0  0  0
  2  8  1  0  0  0  0
  4 11  1  0  0  0  0
  5  2  1  0  0  0  0
  6  4  1  0  0  0  0
  7  6  2  0  0  0  0
  8  4  2  0  0  0  0
  8  3  1  0  0  0  0
  9  2  2  0  0  0  0
  9  6  1  0  0  0  0
 11 10  3  0  0  0  0
 12 17  1  0  0  0  0
 12  1  1  0  0  0  0
 13 15  1  0  0  0  0
 15 14  1  0  0  0  0
 15 16  2  0  0  0  0
 17 16  1  0  0  0  0
 18 12  2  0  0  0  0
 19 13  2  0  0  0  0
 19 18  1  0  0  0  0
 21 26  1  0  0  0  0
 22 26  1  0  0  0  0
 22 23  1  0  0  0  0
 23 20  1  0  0  0  0
 24 22  2  0  0  0  0
 26 25  1  1  0  0  0
 27 24  1  0  0  0  0
 27 21  1  0  0  0  0
 28 30  1  0  0  0  0
 29 33  2  0  0  0  0
 29 31  1  0  0  0  0
 30 27  1  0  0  0  0
 31 28  2  0  0  0  0
 32 30  2  0  0  0  0
 33 32  1  0  0  0  0
M  END
>  <MODEL>
8

>  <REMARK>
 VINA RESULT:      -6.4      3.044      6.054
  Name = 
  6 active torsions:
  status: ('A' for Active; 'I' for Inactive)
    1  A    between atoms: C_3  and  C_33
    2  A    between atoms: C_8  and  C_27
    3  A    between atoms: N_11  and  C_33
    4  A    between atoms: C_12  and  N_31
    5  A    between atoms: N_13  and  N_32
    6  A    between atoms: N_32  and  C_33
                            x       y       z     vdW  Elec       q    Type
                         _______ _______ _______ _____ _____    ______ ____

>  <TORSDO>
F 6

$$$$
=
 OpenBabel11042421233D

 33 36  0  0  1  0  0  0  0  0999 V2000
  160.9280  209.3970  151.6460 C   0  0  1  0  0  3  0  0  0  0  0  0
  161.0380  207.1200  150.5440 C   0  0  0  0  0  0  0  0  0  0  0  0
  161.5570  204.8340  151.7540 C   0  0  0  0  0  1  0  0  0  0  0  0
  161.1420  205.2480  149.3080 C   0  0  0  0  0  0  0  0  0  0  0  0
  161.0720  207.9480  151.7090 N   0  0  0  0  0  2  0  0  0  0  0  0
  160.8570  206.4310  148.5120 C   0  0  0  0  0  0  0  0  0  0  0  0
  160.4060  206.4150  147.3000 N   0  0  0  0  0  2  0  0  0  0  0  0
  161.2670  205.6750  150.5560 C   0  0  0  0  0  0  0  0  0  0  0  0
  160.7730  207.5740  149.3580 N   0  0  0  0  0  0  0  0  0  0  0  0
  161.3390  202.8000  148.4650 N   0  0  0  0  0  0  0  0  0  0  0  0
  161.2530  203.8900  148.8410 C   0  0  0  0  0  0  0  0  0  0  0  0
  160.2390  209.8990  152.8720 C   0  0  0  0  0  0  0  0  0  0  0  0
  158.9790  211.6630  155.0800 C   0  0  0  0  0  3  0  0  0  0  0  0
  160.8560  212.1050  156.7340 C   0  0  0  0  0  1  0  0  0  0  0  0
  160.3030  211.2870  155.6220 C   0  0  0  0  0  0  0  0  0  0  0  0
  161.0050  210.2300  155.2110 C   0  0  0  0  0  3  0  0  0  0  0  0
  160.5090  209.2510  154.1960 C   0  0  0  0  0  2  0  0  0  0  0  0
  159.3030  210.8380  152.7280 C   0  0  0  0  0  3  0  0  0  0  0  0
  158.5470  211.4710  153.8280 C   0  0  0  0  0  3  0  0  0  0  0  0
  162.2390  210.0280  151.5240 N   0  0  0  0  0  2  0  0  0  0  0  0
  160.2480  212.8560  148.7010 C   0  0  0  0  0  2  0  0  0  0  0  0
  161.7560  211.1880  149.3900 C   0  0  0  0  0  0  0  0  0  0  0  0
  162.4910  210.2340  150.1580 N   0  0  0  0  0  2  0  0  0  0  0  0
  161.8950  211.2860  148.1170 N   0  0  0  0  0  0  0  0  0  0  0  0
  161.3560  213.0370  150.8090 O   0  0  0  0  0  1  0  0  0  0  0  0
  160.7360  212.1260  149.9530 C   0  0  1  0  0  3  0  0  0  0  0  0
  161.0320  212.2640  147.6300 N   0  0  0  0  0  0  0  0  0  0  0  0
  161.9190  213.2020  145.5360 C   0  0  0  0  0  3  0  0  0  0  0  0
  160.6020  213.1390  143.5020 C   0  0  0  0  0  3  0  0  0  0  0  0
  160.8840  212.5650  146.2360 C   0  0  0  0  0  0  0  0  0  0  0  0
  161.7780  213.4880  144.1740 C   0  0  0  0  0  3  0  0  0  0  0  0
  159.7060  212.2200  145.5550 C   0  0  0  0  0  3  0  0  0  0  0  0
  159.5660  212.5040  144.1930 C   0  0  0  0  0  3  0  0  0  0  0  0
  1 20  1  1  0  0  0
  1  5  1  0  0  0  0
  1 12  1  0  0  0  0
  2  8  1  0  0  0  0
  2  5  1  0  0  0  0
  4  8  2  0  0  0  0
  6  4  1  0  0  0  0
  6  9  1  0  0  0  0
  7  6  2  0  0  0  0
  8  3  1  0  0  0  0
  9  2  2  0  0  0  0
 10 11  3  0  0  0  0
 11  4  1  0  0  0  0
 12 17  1  0  0  0  0
 13 15  1  0  0  0  0
 15 14  1  0  0  0  0
 16 15  2  0  0  0  0
 17 16  1  0  0  0  0
 18 12  2  0  0  0  0
 18 19  1  0  0  0  0
 19 13  2  0  0  0  0
 21 26  1  0  0  0  0
 22 26  1  0  0  0  0
 22 23  1  0  0  0  0
 23 20  1  0  0  0  0
 24 22  2  0  0  0  0
 26 25  1  1  0  0  0
 27 24  1  0  0  0  0
 27 21  1  0  0  0  0
 28 30  1  0  0  0  0
 29 31  1  0  0  0  0
 29 33  2  0  0  0  0
 30 27  1  0  0  0  0
 31 28  2  0  0  0  0
 32 30  2  0  0  0  0
 33 32  1  0  0  0  0
M  END
>  <MODEL>
9

>  <REMARK>
 VINA RESULT:      -6.3      1.703      2.273
  Name = 
  6 active torsions:
  status: ('A' for Active; 'I' for Inactive)
    1  A    between atoms: C_3  and  C_33
    2  A    between atoms: C_8  and  C_27
    3  A    between atoms: N_11  and  C_33
    4  A    between atoms: C_12  and  N_31
    5  A    between atoms: N_13  and  N_32
    6  A    between atoms: N_32  and  C_33
                            x       y       z     vdW  Elec       q    Type
                         _______ _______ _______ _____ _____    ______ ____

>  <TORSDO>
F 6

$$$$
