=
 OpenBabel11042420033D

 42 48  0  0  1  0  0  0  0  0999 V2000
  161.2040  206.0620  150.5740 C   0  0  0  0  0  0  0  0  0  0  0  0
  161.5670  206.2260  149.2300 C   0  0  0  0  0  0  0  0  0  0  0  0
  160.8320  203.6910  150.0650 C   0  0  0  0  0  3  0  0  0  0  0  0
  162.1680  207.0810  147.1490 N   0  0  0  0  0  0  0  0  0  0  0  0
  161.9410  207.3910  148.5100 N   0  0  0  0  0  0  0  0  0  0  0  0
  161.1970  203.9070  148.7240 C   0  0  0  0  0  0  0  0  0  0  0  0
  161.5590  205.2000  148.3510 C   0  0  0  0  0  0  0  0  0  0  0  0
  161.9250  205.6880  147.0710 N   0  0  0  0  0  0  0  0  0  0  0  0
  161.1850  202.7870  147.7440 C   0  0  0  0  0  1  0  0  0  0  0  0
  160.8330  204.7620  150.9850 C   0  0  0  0  0  3  0  0  0  0  0  0
  161.2130  207.1990  151.5050 C   0  0  0  0  0  3  0  0  0  0  0  0
  160.8310  207.1120  152.7740 C   0  0  0  0  0  3  0  0  0  0  0  0
  160.8900  208.3260  153.6320 C   0  0  2  0  0  3  0  0  0  0  0  0
  161.9420  209.1540  153.2070 O   0  0  0  0  0  0  0  0  0  0  0  0
  159.8650  211.7490  157.2610 C   0  0  0  0  0  2  0  0  0  0  0  0
  158.7710  212.3910  155.0070 C   0  0  0  0  0  2  0  0  0  0  0  0
  160.7360  210.8050  151.8660 C   0  0  0  0  0  1  0  0  0  0  0  0
  161.1410  207.9300  155.0760 C   0  0  0  0  0  2  0  0  0  0  0  0
  161.3950  210.3870  155.7300 C   0  0  1  0  0  3  0  0  0  0  0  0
  159.3320  211.0950  154.4240 C   0  0  0  0  0  2  0  0  0  0  0  0
  160.7170  209.0410  156.0300 C   0  0  0  0  0  2  0  0  0  0  0  0
  160.8630  211.0640  154.4490 C   0  0  2  0  0  3  0  0  0  0  0  0
  161.2950  211.3150  156.9430 C   0  0  0  0  0  2  0  0  0  0  0  0
  159.4350  212.8670  156.3100 C   0  0  1  0  0  3  0  0  0  0  0  0
  161.4910  210.4910  153.1540 C   0  0  1  0  0  3  0  0  0  0  0  0
  158.6210  213.8770  156.9900 N   0  0  0  0  0  2  0  0  0  0  0  0
  157.2460  213.8350  156.5080 C   0  0  0  0  0  1  0  0  0  0  0  0
  161.9830  209.7900  148.2800 C   0  0  0  0  0  3  0  0  0  0  0  0
  162.0230  208.7110  149.0520 C   0  0  0  0  0  3  0  0  0  0  0  0
  162.0660  211.1510  148.8840 C   0  0  0  0  0  2  0  0  0  0  0  0
  162.3670  212.8290  145.5270 O   0  0  0  0  0  0  0  0  0  0  0  0
  160.7820  213.1930  147.5350 N   0  0  0  0  0  0  0  0  0  0  0  0
  161.6560  212.1570  147.9180 N   0  0  0  0  0  0  0  0  0  0  0  0
  161.7870  212.7530  146.6410 C   0  0  0  0  0  0  0  0  0  0  0  0
  158.1640  213.5210  149.2310 C   0  0  0  0  0  0  0  0  0  0  0  0
  159.4560  214.1010  149.3230 C   0  0  0  0  0  0  0  0  0  0  0  0
  160.0420  214.4530  150.5250 C   0  0  0  0  0  3  0  0  0  0  0  0
  159.6870  214.0930  147.8560 C   0  0  2  0  0  3  0  0  0  0  0  0
  158.1760  213.3660  147.4330 S   0  0  0  0  0  0  0  0  0  0  0  0
  157.3790  213.2560  150.3370 C   0  0  0  0  0  3  0  0  0  0  0  0
  159.2550  214.1910  151.6720 C   0  0  0  0  0  3  0  0  0  0  0  0
  157.9560  213.6070  151.5810 C   0  0  0  0  0  3  0  0  0  0  0  0
  1 10  1  0  0  0  0
  1 11  1  0  0  0  0
  2  1  2  0  0  0  0
  3 10  2  0  0  0  0
  4  5  1  0  0  0  0
  5 29  1  0  0  0  0
  5  2  1  0  0  0  0
  6  3  1  0  0  0  0
  7  6  2  0  0  0  0
  7  2  1  0  0  0  0
  8  4  2  0  0  0  0
  8  7  1  0  0  0  0
  9  6  1  0  0  0  0
 11 12  2  0  0  0  0
 13 12  1  6  0  0  0
 13 18  1  0  0  0  0
 14 13  1  0  0  0  0
 16 24  1  0  0  0  0
 18 21  1  0  0  0  0
 19 21  1  1  0  0  0
 19 23  1  0  0  0  0
 20 16  1  0  0  0  0
 22 20  1  6  0  0  0
 22 19  1  0  0  0  0
 23 15  1  0  0  0  0
 24 26  1  1  0  0  0
 24 15  1  0  0  0  0
 25 17  1  6  0  0  0
 25 14  1  0  0  0  0
 25 22  1  0  0  0  0
 27 26  1  0  0  0  0
 28 30  1  0  0  0  0
 28 29  2  0  0  0  0
 31 34  2  0  0  0  0
 32 33  1  0  0  0  0
 33 30  1  0  0  0  0
 34 32  1  0  0  0  0
 34 33  1  0  0  0  0
 35 36  2  0  0  0  0
 35 40  1  0  0  0  0
 36 37  1  0  0  0  0
 37 41  2  0  0  0  0
 38 32  1  1  0  0  0
 38 36  1  0  0  0  0
 39 38  1  0  0  0  0
 39 35  1  0  0  0  0
 40 42  2  0  0  0  0
 42 41  1  0  0  0  0
M  END
>  <MODEL>
1

>  <REMARK>
 VINA RESULT:      -9.1      0.000      0.000
  Name = 
  7 active torsions:
  status: ('A' for Active; 'I' for Inactive)
    1  A    between atoms: C_1  and  C_3
    2  A    between atoms: C_2  and  C_40
    3  A    between atoms: N_12  and  C_33
    4  A    between atoms: C_17  and  N_19
    5  A    between atoms: C_22  and  C_29
    6  A    between atoms: N_27  and  C_36
    7  A    between atoms: C_29  and  N_38
                            x       y       z     vdW  Elec       q    Type
                         _______ _______ _______ _____ _____    ______ ____

>  <TORSDO>
F 7

$$$$
=
 OpenBabel11042420033D

 42 48  0  0  1  0  0  0  0  0999 V2000
  159.9460  211.1330  153.8090 C   0  0  0  0  0  0  0  0  0  0  0  0
  159.4430  212.3950  153.4590 C   0  0  0  0  0  0  0  0  0  0  0  0
  159.3580  211.6680  156.1300 C   0  0  0  0  0  3  0  0  0  0  0  0
  158.8440  214.3500  152.3450 N   0  0  0  0  0  0  0  0  0  0  0  0
  159.3920  213.0540  152.2040 N   0  0  0  0  0  0  0  0  0  0  0  0
  158.8740  212.9270  155.7320 C   0  0  0  0  0  0  0  0  0  0  0  0
  158.9370  213.2480  154.3770 C   0  0  0  0  0  0  0  0  0  0  0  0
  158.5590  214.4500  153.7280 N   0  0  0  0  0  0  0  0  0  0  0  0
  158.3200  213.8780  156.7340 C   0  0  0  0  0  1  0  0  0  0  0  0
  159.8930  210.7770  155.1740 C   0  0  0  0  0  3  0  0  0  0  0  0
  160.4990  210.2310  152.7900 C   0  0  0  0  0  3  0  0  0  0  0  0
  160.4700  208.9070  152.8870 C   0  0  0  0  0  3  0  0  0  0  0  0
  161.0510  208.0880  151.7900 C   0  0  2  0  0  3  0  0  0  0  0  0
  162.2970  207.5790  152.1900 O   0  0  0  0  0  0  0  0  0  0  0  0
  161.6900  205.7240  147.3240 C   0  0  0  0  0  2  0  0  0  0  0  0
  160.7320  204.1290  149.1200 C   0  0  0  0  0  2  0  0  0  0  0  0
  161.6900  205.3050  152.8540 C   0  0  0  0  0  1  0  0  0  0  0  0
  161.2550  208.9450  150.5530 C   0  0  0  0  0  2  0  0  0  0  0  0
  162.4650  207.0180  149.3890 C   0  0  1  0  0  3  0  0  0  0  0  0
  160.7160  205.3110  150.0880 C   0  0  0  0  0  2  0  0  0  0  0  0
  161.3600  208.0820  149.3000 C   0  0  0  0  0  2  0  0  0  0  0  0
  162.1200  205.8620  150.3520 C   0  0  2  0  0  3  0  0  0  0  0  0
  162.8210  206.5030  147.9920 C   0  0  0  0  0  2  0  0  0  0  0  0
  161.6320  204.3020  147.8850 C   0  0  1  0  0  3  0  0  0  0  0  0
  162.3770  206.2130  151.8390 C   0  0  1  0  0  3  0  0  0  0  0  0
  161.3160  203.3190  146.8470 N   0  0  0  0  0  2  0  0  0  0  0  0
  160.9230  202.0500  147.4470 C   0  0  0  0  0  1  0  0  0  0  0  0
  160.6050  213.2530  150.1300 C   0  0  0  0  0  3  0  0  0  0  0  0
  159.8790  212.5240  150.9680 C   0  0  0  0  0  3  0  0  0  0  0  0
  161.0980  212.6620  148.8530 C   0  0  0  0  0  2  0  0  0  0  0  0
  157.6610  212.6540  147.3130 O   0  0  0  0  0  0  0  0  0  0  0  0
  159.9370  213.5860  146.5210 N   0  0  0  0  0  0  0  0  0  0  0  0
  160.1840  212.9760  147.7660 N   0  0  0  0  0  0  0  0  0  0  0  0
  158.8760  212.9700  147.2260 C   0  0  0  0  0  0  0  0  0  0  0  0
  161.8300  213.3640  144.0300 C   0  0  0  0  0  0  0  0  0  0  0  0
  160.4180  213.3720  144.1750 C   0  0  0  0  0  0  0  0  0  0  0  0
  159.5690  212.6640  143.3450 C   0  0  0  0  0  3  0  0  0  0  0  0
  160.4310  214.2850  145.3460 C   0  0  2  0  0  3  0  0  0  0  0  0
  162.1500  214.4520  145.4340 S   0  0  0  0  0  0  0  0  0  0  0  0
  162.4790  212.6450  143.0440 C   0  0  0  0  0  3  0  0  0  0  0  0
  160.2130  211.9200  142.3270 C   0  0  0  0  0  3  0  0  0  0  0  0
  161.6330  211.9100  142.1800 C   0  0  0  0  0  3  0  0  0  0  0  0
  1 10  1  0  0  0  0
  2  1  2  0  0  0  0
  2  7  1  0  0  0  0
  4  8  2  0  0  0  0
  5  4  1  0  0  0  0
  5  2  1  0  0  0  0
  6  3  1  0  0  0  0
  6  9  1  0  0  0  0
  7  6  2  0  0  0  0
  8  7  1  0  0  0  0
 10  3  2  0  0  0  0
 11 12  2  0  0  0  0
 11  1  1  0  0  0  0
 13 14  1  0  0  0  0
 13 12  1  1  0  0  0
 15 24  1  0  0  0  0
 15 23  1  0  0  0  0
 16 20  1  0  0  0  0
 18 13  1  0  0  0  0
 19 23  1  6  0  0  0
 19 22  1  0  0  0  0
 21 19  1  0  0  0  0
 21 18  1  0  0  0  0
 22 20  1  1  0  0  0
 22 25  1  0  0  0  0
 24 26  1  6  0  0  0
 24 16  1  0  0  0  0
 25 14  1  0  0  0  0
 25 17  1  1  0  0  0
 26 27  1  0  0  0  0
 28 29  2  0  0  0  0
 29  5  1  0  0  0  0
 30 28  1  0  0  0  0
 32 34  1  0  0  0  0
 32 33  1  0  0  0  0
 33 30  1  0  0  0  0
 34 31  2  0  0  0  0
 34 33  1  0  0  0  0
 35 36  1  0  0  0  0
 35 39  1  0  0  0  0
 36 38  1  0  0  0  0
 37 36  2  0  0  0  0
 38 39  1  0  0  0  0
 38 32  1  1  0  0  0
 40 35  2  0  0  0  0
 41 37  1  0  0  0  0
 42 41  2  0  0  0  0
 42 40  1  0  0  0  0
M  END
>  <MODEL>
2

>  <REMARK>
 VINA RESULT:      -7.4      2.447      8.091
  Name = 
  7 active torsions:
  status: ('A' for Active; 'I' for Inactive)
    1  A    between atoms: C_1  and  C_3
    2  A    between atoms: C_2  and  C_40
    3  A    between atoms: N_12  and  C_33
    4  A    between atoms: C_17  and  N_19
    5  A    between atoms: C_22  and  C_29
    6  A    between atoms: N_27  and  C_36
    7  A    between atoms: C_29  and  N_38
                            x       y       z     vdW  Elec       q    Type
                         _______ _______ _______ _____ _____    ______ ____

>  <TORSDO>
F 7

$$$$
=
 OpenBabel11042420033D

 42 48  0  0  1  0  0  0  0  0999 V2000
  161.1250  205.4180  150.2370 C   0  0  0  0  0  0  0  0  0  0  0  0
  161.4640  205.6910  148.9040 C   0  0  0  0  0  0  0  0  0  0  0  0
  160.7690  203.0890  149.5510 C   0  0  0  0  0  3  0  0  0  0  0  0
  162.0220  206.7110  146.8870 N   0  0  0  0  0  0  0  0  0  0  0  0
  161.8140  206.9120  148.2720 N   0  0  0  0  0  0  0  0  0  0  0  0
  161.1100  203.4140  148.2260 C   0  0  0  0  0  0  0  0  0  0  0  0
  161.4530  204.7360  147.9490 C   0  0  0  0  0  0  0  0  0  0  0  0
  161.7930  205.3260  146.7050 N   0  0  0  0  0  0  0  0  0  0  0  0
  161.0950  202.3720  147.1620 C   0  0  0  0  0  1  0  0  0  0  0  0
  160.7740  204.0870  150.5510 C   0  0  0  0  0  3  0  0  0  0  0  0
  161.1360  206.4800  151.2530 C   0  0  0  0  0  3  0  0  0  0  0  0
  160.7960  206.2860  152.5220 C   0  0  0  0  0  3  0  0  0  0  0  0
  160.8540  207.4310  153.4700 C   0  0  2  0  0  3  0  0  0  0  0  0
  161.9780  208.2230  153.1850 O   0  0  0  0  0  0  0  0  0  0  0  0
  159.7380  210.6450  157.2600 C   0  0  0  0  0  2  0  0  0  0  0  0
  158.8560  211.5070  154.9870 C   0  0  0  0  0  2  0  0  0  0  0  0
  160.9680  210.0320  151.8870 C   0  0  0  0  0  1  0  0  0  0  0  0
  160.9720  206.9200  154.8950 C   0  0  0  0  0  2  0  0  0  0  0  0
  161.3060  209.3060  155.7460 C   0  0  1  0  0  3  0  0  0  0  0  0
  159.3900  210.2240  154.3510 C   0  0  0  0  0  2  0  0  0  0  0  0
  160.5360  207.9850  155.8960 C   0  0  0  0  0  2  0  0  0  0  0  0
  160.9110  210.1020  154.4840 C   0  0  2  0  0  3  0  0  0  0  0  0
  161.1630  210.1510  157.0150 C   0  0  0  0  0  2  0  0  0  0  0  0
  159.4420  211.8510  156.3660 C   0  0  1  0  0  3  0  0  0  0  0  0
  161.6040  209.5850  153.1990 C   0  0  1  0  0  3  0  0  0  0  0  0
  158.6350  212.8570  157.0580 N   0  0  0  0  0  2  0  0  0  0  0  0
  157.2190  212.5150  156.9830 C   0  0  0  0  0  1  0  0  0  0  0  0
  161.6600  209.3170  148.2560 C   0  0  0  0  0  3  0  0  0  0  0  0
  161.8900  208.1870  148.9130 C   0  0  0  0  0  3  0  0  0  0  0  0
  161.7450  210.6280  148.9630 C   0  0  0  0  0  2  0  0  0  0  0  0
  164.2450  212.0840  146.5520 O   0  0  0  0  0  0  0  0  0  0  0  0
  161.9120  212.8630  147.3460 N   0  0  0  0  0  0  0  0  0  0  0  0
  162.1770  211.6690  148.0440 N   0  0  0  0  0  0  0  0  0  0  0  0
  163.1320  212.1770  147.1320 C   0  0  0  0  0  0  0  0  0  0  0  0
  159.3860  213.8290  145.7570 C   0  0  0  0  0  0  0  0  0  0  0  0
  159.6230  213.5640  147.1310 C   0  0  0  0  0  0  0  0  0  0  0  0
  158.6530  213.0690  147.9830 C   0  0  0  0  0  3  0  0  0  0  0  0
  161.0420  213.9980  147.0860 C   0  0  2  0  0  3  0  0  0  0  0  0
  161.0640  214.3910  145.4020 S   0  0  0  0  0  0  0  0  0  0  0  0
  158.1630  213.6130  145.1500 C   0  0  0  0  0  3  0  0  0  0  0  0
  157.3910  212.8410  147.3830 C   0  0  0  0  0  3  0  0  0  0  0  0
  157.1520  213.1060  146.0010 C   0  0  0  0  0  3  0  0  0  0  0  0
  1 10  1  0  0  0  0
  1 11  1  0  0  0  0
  2  1  2  0  0  0  0
  3 10  2  0  0  0  0
  4  5  1  0  0  0  0
  5  2  1  0  0  0  0
  5 29  1  0  0  0  0
  6  3  1  0  0  0  0
  7  6  2  0  0  0  0
  7  2  1  0  0  0  0
  8  4  2  0  0  0  0
  8  7  1  0  0  0  0
  9  6  1  0  0  0  0
 11 12  2  0  0  0  0
 13 12  1  6  0  0  0
 13 18  1  0  0  0  0
 14 25  1  0  0  0  0
 14 13  1  0  0  0  0
 16 24  1  0  0  0  0
 18 21  1  0  0  0  0
 19 21  1  1  0  0  0
 19 23  1  0  0  0  0
 20 16  1  0  0  0  0
 22 20  1  6  0  0  0
 22 19  1  0  0  0  0
 23 15  1  0  0  0  0
 24 26  1  1  0  0  0
 24 15  1  0  0  0  0
 25 17  1  6  0  0  0
 25 22  1  0  0  0  0
 27 26  1  0  0  0  0
 28 29  2  0  0  0  0
 28 30  1  0  0  0  0
 31 34  2  0  0  0  0
 32 33  1  0  0  0  0
 33 30  1  0  0  0  0
 34 32  1  0  0  0  0
 34 33  1  0  0  0  0
 35 36  1  0  0  0  0
 36 37  2  0  0  0  0
 38 36  1  0  0  0  0
 38 32  1  6  0  0  0
 39 35  1  0  0  0  0
 39 38  1  0  0  0  0
 40 35  2  0  0  0  0
 40 42  1  0  0  0  0
 41 37  1  0  0  0  0
 42 41  2  0  0  0  0
M  END
>  <MODEL>
3

>  <REMARK>
 VINA RESULT:      -7.3      1.518      1.954
  Name = 
  7 active torsions:
  status: ('A' for Active; 'I' for Inactive)
    1  A    between atoms: C_1  and  C_3
    2  A    between atoms: C_2  and  C_40
    3  A    between atoms: N_12  and  C_33
    4  A    between atoms: C_17  and  N_19
    5  A    between atoms: C_22  and  C_29
    6  A    between atoms: N_27  and  C_36
    7  A    between atoms: C_29  and  N_38
                            x       y       z     vdW  Elec       q    Type
                         _______ _______ _______ _____ _____    ______ ____

>  <TORSDO>
F 7

$$$$
=
 OpenBabel11042420033D

 42 48  0  0  1  0  0  0  0  0999 V2000
  160.3700  210.8800  153.2220 C   0  0  0  0  0  0  0  0  0  0  0  0
  160.8430  209.5740  153.4190 C   0  0  0  0  0  0  0  0  0  0  0  0
  160.4190  211.1450  155.6610 C   0  0  0  0  0  3  0  0  0  0  0  0
  161.5210  207.3620  153.1580 N   0  0  0  0  0  0  0  0  0  0  0  0
  161.1080  208.5380  152.4880 N   0  0  0  0  0  0  0  0  0  0  0  0
  160.8850  209.8260  155.8080 C   0  0  0  0  0  0  0  0  0  0  0  0
  161.0830  209.0740  154.6510 C   0  0  0  0  0  0  0  0  0  0  0  0
  161.5020  207.7260  154.5260 N   0  0  0  0  0  0  0  0  0  0  0  0
  161.1470  209.2610  157.1600 C   0  0  0  0  0  1  0  0  0  0  0  0
  160.1610  211.6680  154.3750 C   0  0  0  0  0  3  0  0  0  0  0  0
  160.1080  211.3930  151.8700 C   0  0  0  0  0  3  0  0  0  0  0  0
  160.1830  212.6780  151.5450 C   0  0  0  0  0  3  0  0  0  0  0  0
  159.9070  213.0870  150.1420 C   0  0  2  0  0  3  0  0  0  0  0  0
  160.6260  214.2550  149.8400 O   0  0  0  0  0  0  0  0  0  0  0  0
  158.0450  213.1920  145.4020 C   0  0  0  0  0  2  0  0  0  0  0  0
  160.3730  212.0710  145.4880 C   0  0  0  0  0  2  0  0  0  0  0  0
  162.5470  213.3350  148.6390 C   0  0  0  0  0  1  0  0  0  0  0  0
  158.4260  213.3730  149.9640 C   0  0  0  0  0  2  0  0  0  0  0  0
  158.8520  214.2310  147.5960 C   0  0  1  0  0  3  0  0  0  0  0  0
  160.3570  212.2710  147.0020 C   0  0  0  0  0  2  0  0  0  0  0  0
  158.0260  213.2980  148.4950 C   0  0  0  0  0  2  0  0  0  0  0  0
  160.3040  213.7510  147.3910 C   0  0  2  0  0  3  0  0  0  0  0  0
  158.1360  214.4530  146.2610 C   0  0  0  0  0  2  0  0  0  0  0  0
  159.3800  212.9400  144.7000 C   0  0  1  0  0  3  0  0  0  0  0  0
  161.2360  214.1130  148.5740 C   0  0  1  0  0  3  0  0  0  0  0  0
  159.1910  212.4400  143.3360 N   0  0  0  0  0  2  0  0  0  0  0  0
  160.4760  212.2990  142.6620 C   0  0  0  0  0  1  0  0  0  0  0  0
  161.9610  208.6630  150.2370 C   0  0  0  0  0  3  0  0  0  0  0  0
  160.9310  208.6280  151.0720 C   0  0  0  0  0  3  0  0  0  0  0  0
  161.7340  208.7520  148.7660 C   0  0  0  0  0  2  0  0  0  0  0  0
  160.2280  206.5250  146.1280 O   0  0  0  0  0  0  0  0  0  0  0  0
  161.5780  206.0360  148.2760 N   0  0  0  0  0  0  0  0  0  0  0  0
  161.4380  207.4360  148.2210 N   0  0  0  0  0  0  0  0  0  0  0  0
  160.8740  206.6320  147.2030 C   0  0  0  0  0  0  0  0  0  0  0  0
  160.7380  203.2250  149.3850 C   0  0  0  0  0  0  0  0  0  0  0  0
  161.5410  203.6320  148.2870 C   0  0  0  0  0  0  0  0  0  0  0  0
  161.6190  202.9220  147.1040 C   0  0  0  0  0  3  0  0  0  0  0  0
  162.0520  204.8490  148.9680 C   0  0  2  0  0  3  0  0  0  0  0  0
  161.1680  204.6260  150.4380 S   0  0  0  0  0  0  0  0  0  0  0  0
  159.9630  202.0810  149.3650 C   0  0  0  0  0  3  0  0  0  0  0  0
  160.8330  201.7450  147.0610 C   0  0  0  0  0  3  0  0  0  0  0  0
  160.0250  201.3350  148.1630 C   0  0  0  0  0  3  0  0  0  0  0  0
  1  2  2  0  0  0  0
  1 10  1  0  0  0  0
  2  7  1  0  0  0  0
  3  6  1  0  0  0  0
  4  8  2  0  0  0  0
  5  4  1  0  0  0  0
  5  2  1  0  0  0  0
  6  9  1  0  0  0  0
  7  6  2  0  0  0  0
  8  7  1  0  0  0  0
 10  3  2  0  0  0  0
 11  1  1  0  0  0  0
 12 11  2  0  0  0  0
 13 12  1  1  0  0  0
 14 13  1  0  0  0  0
 15 23  1  0  0  0  0
 16 20  1  0  0  0  0
 18 13  1  0  0  0  0
 19 23  1  6  0  0  0
 19 21  1  0  0  0  0
 21 18  1  0  0  0  0
 22 20  1  1  0  0  0
 22 19  1  0  0  0  0
 22 25  1  0  0  0  0
 24 26  1  6  0  0  0
 24 15  1  0  0  0  0
 24 16  1  0  0  0  0
 25 17  1  1  0  0  0
 25 14  1  0  0  0  0
 27 26  1  0  0  0  0
 28 29  2  0  0  0  0
 29  5  1  0  0  0  0
 30 28  1  0  0  0  0
 31 34  2  0  0  0  0
 33 32  1  0  0  0  0
 33 30  1  0  0  0  0
 34 33  1  0  0  0  0
 34 32  1  0  0  0  0
 35 39  1  0  0  0  0
 36 38  1  0  0  0  0
 36 35  2  0  0  0  0
 37 36  1  0  0  0  0
 38 32  1  6  0  0  0
 38 39  1  0  0  0  0
 40 35  1  0  0  0  0
 41 37  2  0  0  0  0
 41 42  1  0  0  0  0
 42 40  2  0  0  0  0
M  END
>  <MODEL>
4

>  <REMARK>
 VINA RESULT:      -7.2      2.904      8.777
  Name = 
  7 active torsions:
  status: ('A' for Active; 'I' for Inactive)
    1  A    between atoms: C_1  and  C_3
    2  A    between atoms: C_2  and  C_40
    3  A    between atoms: N_12  and  C_33
    4  A    between atoms: C_17  and  N_19
    5  A    between atoms: C_22  and  C_29
    6  A    between atoms: N_27  and  C_36
    7  A    between atoms: C_29  and  N_38
                            x       y       z     vdW  Elec       q    Type
                         _______ _______ _______ _____ _____    ______ ____

>  <TORSDO>
F 7

$$$$
=
 OpenBabel11042420033D

 42 48  0  0  1  0  0  0  0  0999 V2000
  160.9150  208.3260  153.9350 C   0  0  0  0  0  0  0  0  0  0  0  0
  160.6920  209.7010  153.7730 C   0  0  0  0  0  0  0  0  0  0  0  0
  160.5030  208.6550  156.3310 C   0  0  0  0  0  3  0  0  0  0  0  0
  160.5110  211.8700  152.9470 N   0  0  0  0  0  0  0  0  0  0  0  0
  160.7610  210.5180  152.6160 N   0  0  0  0  0  0  0  0  0  0  0  0
  160.2960  210.0300  156.1200 C   0  0  0  0  0  0  0  0  0  0  0  0
  160.4020  210.5100  154.8160 C   0  0  0  0  0  0  0  0  0  0  0  0
  160.2810  211.8420  154.3440 N   0  0  0  0  0  0  0  0  0  0  0  0
  159.9830  210.9340  157.2610 C   0  0  0  0  0  1  0  0  0  0  0  0
  160.8130  207.8080  155.2450 C   0  0  0  0  0  3  0  0  0  0  0  0
  161.2390  207.4710  152.7840 C   0  0  0  0  0  3  0  0  0  0  0  0
  160.4310  206.5260  152.3200 C   0  0  0  0  0  3  0  0  0  0  0  0
  160.8550  205.7260  151.1400 C   0  0  2  0  0  3  0  0  0  0  0  0
  162.1250  205.1740  151.3750 O   0  0  0  0  0  0  0  0  0  0  0  0
  160.8950  203.4810  146.5680 C   0  0  0  0  0  2  0  0  0  0  0  0
  160.1130  201.8570  148.4220 C   0  0  0  0  0  2  0  0  0  0  0  0
  161.5390  202.8970  152.0460 C   0  0  0  0  0  1  0  0  0  0  0  0
  160.9350  206.6140  149.9110 C   0  0  0  0  0  2  0  0  0  0  0  0
  161.9450  204.6940  148.5600 C   0  0  1  0  0  3  0  0  0  0  0  0
  160.2440  203.0090  149.4160 C   0  0  0  0  0  2  0  0  0  0  0  0
  160.8660  205.7860  148.6320 C   0  0  0  0  0  2  0  0  0  0  0  0
  161.6850  203.5180  149.5260 C   0  0  2  0  0  3  0  0  0  0  0  0
  162.1190  204.2130  147.1180 C   0  0  0  0  0  2  0  0  0  0  0  0
  160.8650  202.0450  147.0940 C   0  0  1  0  0  3  0  0  0  0  0  0
  162.1250  203.8180  150.9800 C   0  0  1  0  0  3  0  0  0  0  0  0
  160.4010  201.1020  146.0750 N   0  0  0  0  0  2  0  0  0  0  0  0
  160.0530  201.8070  144.8470 C   0  0  0  0  0  1  0  0  0  0  0  0
  161.6130  210.8840  150.3910 C   0  0  0  0  0  3  0  0  0  0  0  0
  161.0960  210.0680  151.3010 C   0  0  0  0  0  3  0  0  0  0  0  0
  161.9540  210.3750  149.0310 C   0  0  0  0  0  2  0  0  0  0  0  0
  164.1620  212.2770  146.6460 O   0  0  0  0  0  0  0  0  0  0  0  0
  161.7250  212.6180  147.4330 N   0  0  0  0  0  0  0  0  0  0  0  0
  162.1970  211.4840  148.1230 N   0  0  0  0  0  0  0  0  0  0  0  0
  163.0480  212.1640  147.2200 C   0  0  0  0  0  0  0  0  0  0  0  0
  158.6200  213.0620  147.4620 C   0  0  0  0  0  0  0  0  0  0  0  0
  159.6750  213.5430  148.2820 C   0  0  0  0  0  0  0  0  0  0  0  0
  159.5250  213.7990  149.6320 C   0  0  0  0  0  3  0  0  0  0  0  0
  160.6660  213.5810  147.1780 C   0  0  2  0  0  3  0  0  0  0  0  0
  159.6030  212.9850  145.9510 S   0  0  0  0  0  0  0  0  0  0  0  0
  157.3500  212.8080  147.9440 C   0  0  0  0  0  3  0  0  0  0  0  0
  158.2310  213.5460  150.1480 C   0  0  0  0  0  3  0  0  0  0  0  0
  157.1700  213.0620  149.3250 C   0  0  0  0  0  3  0  0  0  0  0  0
  1 10  1  0  0  0  0
  2  1  2  0  0  0  0
  2  7  1  0  0  0  0
  4  8  2  0  0  0  0
  5  4  1  0  0  0  0
  5  2  1  0  0  0  0
  6  3  1  0  0  0  0
  6  9  1  0  0  0  0
  7  6  2  0  0  0  0
  8  7  1  0  0  0  0
 10  3  2  0  0  0  0
 11  1  1  0  0  0  0
 12 11  2  0  0  0  0
 13 14  1  0  0  0  0
 13 12  1  1  0  0  0
 15 24  1  0  0  0  0
 15 23  1  0  0  0  0
 16 20  1  0  0  0  0
 18 13  1  0  0  0  0
 19 23  1  6  0  0  0
 19 21  1  0  0  0  0
 19 22  1  0  0  0  0
 21 18  1  0  0  0  0
 22 20  1  1  0  0  0
 22 25  1  0  0  0  0
 24 26  1  6  0  0  0
 24 16  1  0  0  0  0
 25 14  1  0  0  0  0
 25 17  1  1  0  0  0
 27 26  1  0  0  0  0
 28 29  2  0  0  0  0
 29  5  1  0  0  0  0
 30 28  1  0  0  0  0
 31 34  2  0  0  0  0
 32 33  1  0  0  0  0
 33 30  1  0  0  0  0
 34 32  1  0  0  0  0
 34 33  1  0  0  0  0
 35 40  2  0  0  0  0
 35 36  1  0  0  0  0
 36 37  2  0  0  0  0
 37 41  1  0  0  0  0
 38 32  1  1  0  0  0
 38 36  1  0  0  0  0
 39 38  1  0  0  0  0
 39 35  1  0  0  0  0
 40 42  1  0  0  0  0
 42 41  2  0  0  0  0
M  END
>  <MODEL>
5

>  <REMARK>
 VINA RESULT:      -6.8      2.015      7.654
  Name = 
  7 active torsions:
  status: ('A' for Active; 'I' for Inactive)
    1  A    between atoms: C_1  and  C_3
    2  A    between atoms: C_2  and  C_40
    3  A    between atoms: N_12  and  C_33
    4  A    between atoms: C_17  and  N_19
    5  A    between atoms: C_22  and  C_29
    6  A    between atoms: N_27  and  C_36
    7  A    between atoms: C_29  and  N_38
                            x       y       z     vdW  Elec       q    Type
                         _______ _______ _______ _____ _____    ______ ____

>  <TORSDO>
F 7

$$$$
=
 OpenBabel11042420033D

 42 48  0  0  1  0  0  0  0  0999 V2000
  160.1590  211.4110  153.1800 C   0  0  0  0  0  0  0  0  0  0  0  0
  160.7480  210.1600  153.4100 C   0  0  0  0  0  0  0  0  0  0  0  0
  159.9280  211.6240  155.6130 C   0  0  0  0  0  3  0  0  0  0  0  0
  161.6860  208.0390  153.1960 N   0  0  0  0  0  0  0  0  0  0  0  0
  161.2190  209.1790  152.5000 N   0  0  0  0  0  0  0  0  0  0  0  0
  160.5170  210.3600  155.7930 C   0  0  0  0  0  0  0  0  0  0  0  0
  160.9140  209.6610  154.6550 C   0  0  0  0  0  0  0  0  0  0  0  0
  161.4880  208.3680  154.5590 N   0  0  0  0  0  0  0  0  0  0  0  0
  160.6990  209.7960  157.1590 C   0  0  0  0  0  1  0  0  0  0  0  0
  159.7480  212.1460  154.3130 C   0  0  0  0  0  3  0  0  0  0  0  0
  159.9820  211.9240  151.8140 C   0  0  0  0  0  3  0  0  0  0  0  0
  158.8830  212.5420  151.3980 C   0  0  0  0  0  3  0  0  0  0  0  0
  158.8150  213.0320  149.9950 C   0  0  2  0  0  3  0  0  0  0  0  0
  159.3400  214.3320  149.9220 O   0  0  0  0  0  0  0  0  0  0  0  0
  157.9350  213.2710  144.9840 C   0  0  0  0  0  2  0  0  0  0  0  0
  160.3730  212.5750  145.4930 C   0  0  0  0  0  2  0  0  0  0  0  0
  161.6000  213.8880  149.1010 C   0  0  0  0  0  1  0  0  0  0  0  0
  157.3710  213.0670  149.5260 C   0  0  0  0  0  2  0  0  0  0  0  0
  158.0800  214.2160  147.3560 C   0  0  1  0  0  3  0  0  0  0  0  0
  160.0220  212.6200  146.9790 C   0  0  0  0  0  2  0  0  0  0  0  0
  157.2900  213.0680  148.0030 C   0  0  0  0  0  2  0  0  0  0  0  0
  159.6090  214.0220  147.4350 C   0  0  2  0  0  3  0  0  0  0  0  0
  157.6120  214.4380  145.9160 C   0  0  0  0  0  2  0  0  0  0  0  0
  159.4050  213.3290  144.5660 C   0  0  1  0  0  3  0  0  0  0  0  0
  160.2030  214.4250  148.8080 C   0  0  1  0  0  3  0  0  0  0  0  0
  159.5890  212.9400  143.1660 N   0  0  0  0  0  2  0  0  0  0  0  0
  160.4570  211.7720  143.0700 C   0  0  0  0  0  1  0  0  0  0  0  0
  161.8650  208.4580  150.2920 C   0  0  0  0  0  3  0  0  0  0  0  0
  161.1780  209.2820  151.0740 C   0  0  0  0  0  3  0  0  0  0  0  0
  161.7920  208.5950  148.8090 C   0  0  0  0  0  2  0  0  0  0  0  0
  163.0920  206.1510  146.2560 O   0  0  0  0  0  0  0  0  0  0  0  0
  161.3390  205.9510  148.1440 N   0  0  0  0  0  0  0  0  0  0  0  0
  161.7940  207.2830  148.1810 N   0  0  0  0  0  0  0  0  0  0  0  0
  162.3180  206.3870  147.2200 C   0  0  0  0  0  0  0  0  0  0  0  0
  161.1730  203.4390  150.0140 C   0  0  0  0  0  0  0  0  0  0  0  0
  160.6540  204.7570  150.1140 C   0  0  0  0  0  0  0  0  0  0  0  0
  160.4980  205.4170  151.3180 C   0  0  0  0  0  3  0  0  0  0  0  0
  160.4590  204.9110  148.6500 C   0  0  2  0  0  3  0  0  0  0  0  0
  161.0680  203.3520  148.2150 S   0  0  0  0  0  0  0  0  0  0  0  0
  161.5680  202.7020  151.1150 C   0  0  0  0  0  3  0  0  0  0  0  0
  160.8950  204.6810  152.4600 C   0  0  0  0  0  3  0  0  0  0  0  0
  161.4180  203.3560  152.3610 C   0  0  0  0  0  3  0  0  0  0  0  0
  1  2  2  0  0  0  0
  1 10  1  0  0  0  0
  2  7  1  0  0  0  0
  3  6  1  0  0  0  0
  4  8  2  0  0  0  0
  5  4  1  0  0  0  0
  5  2  1  0  0  0  0
  6  9  1  0  0  0  0
  7  6  2  0  0  0  0
  8  7  1  0  0  0  0
 10  3  2  0  0  0  0
 11  1  1  0  0  0  0
 12 11  2  0  0  0  0
 13 12  1  1  0  0  0
 14 13  1  0  0  0  0
 15 23  1  0  0  0  0
 16 20  1  0  0  0  0
 18 13  1  0  0  0  0
 19 23  1  6  0  0  0
 19 22  1  0  0  0  0
 19 21  1  0  0  0  0
 21 18  1  0  0  0  0
 22 20  1  1  0  0  0
 22 25  1  0  0  0  0
 24 26  1  6  0  0  0
 24 15  1  0  0  0  0
 24 16  1  0  0  0  0
 25 17  1  1  0  0  0
 25 14  1  0  0  0  0
 27 26  1  0  0  0  0
 28 29  2  0  0  0  0
 29  5  1  0  0  0  0
 30 28  1  0  0  0  0
 31 34  2  0  0  0  0
 32 33  1  0  0  0  0
 33 30  1  0  0  0  0
 34 32  1  0  0  0  0
 34 33  1  0  0  0  0
 35 36  2  0  0  0  0
 35 40  1  0  0  0  0
 36 37  1  0  0  0  0
 37 41  2  0  0  0  0
 38 32  1  6  0  0  0
 38 36  1  0  0  0  0
 39 38  1  0  0  0  0
 39 35  1  0  0  0  0
 40 42  2  0  0  0  0
 42 41  1  0  0  0  0
M  END
>  <MODEL>
6

>  <REMARK>
 VINA RESULT:      -6.5      3.040      8.644
  Name = 
  7 active torsions:
  status: ('A' for Active; 'I' for Inactive)
    1  A    between atoms: C_1  and  C_3
    2  A    between atoms: C_2  and  C_40
    3  A    between atoms: N_12  and  C_33
    4  A    between atoms: C_17  and  N_19
    5  A    between atoms: C_22  and  C_29
    6  A    between atoms: N_27  and  C_36
    7  A    between atoms: C_29  and  N_38
                            x       y       z     vdW  Elec       q    Type
                         _______ _______ _______ _____ _____    ______ ____

>  <TORSDO>
F 7

$$$$
=
 OpenBabel11042420033D

 42 48  0  0  1  0  0  0  0  0999 V2000
  158.2050  213.2610  148.0720 C   0  0  0  0  0  0  0  0  0  0  0  0
  158.9600  213.0940  146.9020 C   0  0  0  0  0  0  0  0  0  0  0  0
  156.4410  214.2190  146.6630 C   0  0  0  0  0  3  0  0  0  0  0  0
  160.6420  212.6670  145.3500 N   0  0  0  0  0  0  0  0  0  0  0  0
  160.2750  212.5970  146.7140 N   0  0  0  0  0  0  0  0  0  0  0  0
  157.2370  214.0390  145.5180 C   0  0  0  0  0  0  0  0  0  0  0  0
  158.4980  213.4680  145.6890 C   0  0  0  0  0  0  0  0  0  0  0  0
  159.5010  213.2180  144.7180 N   0  0  0  0  0  0  0  0  0  0  0  0
  156.7440  214.4530  144.1770 C   0  0  0  0  0  1  0  0  0  0  0  0
  156.9220  213.8350  147.9330 C   0  0  0  0  0  3  0  0  0  0  0  0
  158.7380  212.8530  149.3800 C   0  0  0  0  0  3  0  0  0  0  0  0
  158.2800  213.3180  150.5360 C   0  0  0  0  0  3  0  0  0  0  0  0
  158.8860  212.8280  151.8040 C   0  0  2  0  0  3  0  0  0  0  0  0
  158.9850  213.8880  152.7200 O   0  0  0  0  0  0  0  0  0  0  0  0
  160.9780  209.7940  155.3180 C   0  0  0  0  0  2  0  0  0  0  0  0
  158.4290  210.0460  155.6720 C   0  0  0  0  0  2  0  0  0  0  0  0
  157.0210  213.4910  154.1220 C   0  0  0  0  0  1  0  0  0  0  0  0
  160.2800  212.2870  151.5390 C   0  0  0  0  0  2  0  0  0  0  0  0
  160.6660  211.9910  154.0470 C   0  0  1  0  0  3  0  0  0  0  0  0
  158.3930  210.9150  154.4150 C   0  0  0  0  0  2  0  0  0  0  0  0
  160.7230  211.3460  152.6540 C   0  0  0  0  0  2  0  0  0  0  0  0
  159.2270  212.1900  154.5680 C   0  0  2  0  0  3  0  0  0  0  0  0
  161.5200  211.1940  155.0370 C   0  0  0  0  0  2  0  0  0  0  0  0
  159.8170  209.8730  156.3110 C   0  0  1  0  0  3  0  0  0  0  0  0
  158.5400  213.4510  153.9870 C   0  0  1  0  0  3  0  0  0  0  0  0
  159.8360  208.7580  157.2600 N   0  0  0  0  0  2  0  0  0  0  0  0
  160.1880  207.5160  156.5830 C   0  0  0  0  0  1  0  0  0  0  0  0
  161.3760  210.8510  147.9600 C   0  0  0  0  0  3  0  0  0  0  0  0
  161.1470  212.1420  147.7520 C   0  0  0  0  0  3  0  0  0  0  0  0
  162.2970  210.4180  149.0500 C   0  0  0  0  0  2  0  0  0  0  0  0
  162.4070  207.5940  151.5390 O   0  0  0  0  0  0  0  0  0  0  0  0
  161.3900  207.8100  149.1730 N   0  0  0  0  0  0  0  0  0  0  0  0
  162.0040  209.0490  149.4420 N   0  0  0  0  0  0  0  0  0  0  0  0
  162.0490  208.0160  150.4090 C   0  0  0  0  0  0  0  0  0  0  0  0
  161.4300  205.0280  147.7250 C   0  0  0  0  0  0  0  0  0  0  0  0
  160.6530  205.5540  148.7900 C   0  0  0  0  0  0  0  0  0  0  0  0
  160.1830  204.7810  149.8350 C   0  0  0  0  0  3  0  0  0  0  0  0
  160.6630  206.9420  148.2620 C   0  0  2  0  0  3  0  0  0  0  0  0
  161.6280  206.6030  146.8670 S   0  0  0  0  0  0  0  0  0  0  0  0
  161.7840  203.6950  147.6410 C   0  0  0  0  0  3  0  0  0  0  0  0
  160.5330  203.4110  149.7700 C   0  0  0  0  0  3  0  0  0  0  0  0
  161.3150  202.8810  148.6990 C   0  0  0  0  0  3  0  0  0  0  0  0
  1 11  1  0  0  0  0
  2  1  2  0  0  0  0
  3 10  2  0  0  0  0
  4  5  1  0  0  0  0
  5  2  1  0  0  0  0
  5 29  1  0  0  0  0
  6  7  2  0  0  0  0
  6  3  1  0  0  0  0
  7  2  1  0  0  0  0
  8  4  2  0  0  0  0
  8  7  1  0  0  0  0
  9  6  1  0  0  0  0
 10  1  1  0  0  0  0
 11 12  2  0  0  0  0
 13 12  1  6  0  0  0
 13 14  1  0  0  0  0
 14 25  1  0  0  0  0
 15 24  1  0  0  0  0
 16 24  1  0  0  0  0
 18 13  1  0  0  0  0
 18 21  1  0  0  0  0
 19 21  1  6  0  0  0
 19 22  1  0  0  0  0
 19 23  1  0  0  0  0
 20 16  1  0  0  0  0
 22 20  1  6  0  0  0
 23 15  1  0  0  0  0
 24 26  1  6  0  0  0
 25 17  1  6  0  0  0
 25 22  1  0  0  0  0
 27 26  1  0  0  0  0
 28 30  1  0  0  0  0
 29 28  2  0  0  0  0
 30 33  1  0  0  0  0
 32 33  1  0  0  0  0
 32 34  1  0  0  0  0
 33 34  1  0  0  0  0
 34 31  2  0  0  0  0
 35 36  1  0  0  0  0
 36 37  2  0  0  0  0
 38 36  1  0  0  0  0
 38 32  1  1  0  0  0
 39 35  1  0  0  0  0
 39 38  1  0  0  0  0
 40 35  2  0  0  0  0
 40 42  1  0  0  0  0
 41 37  1  0  0  0  0
 42 41  2  0  0  0  0
M  END
>  <MODEL>
7

>  <REMARK>
 VINA RESULT:      -6.2      2.424      7.161
  Name = 
  7 active torsions:
  status: ('A' for Active; 'I' for Inactive)
    1  A    between atoms: C_1  and  C_3
    2  A    between atoms: C_2  and  C_40
    3  A    between atoms: N_12  and  C_33
    4  A    between atoms: C_17  and  N_19
    5  A    between atoms: C_22  and  C_29
    6  A    between atoms: N_27  and  C_36
    7  A    between atoms: C_29  and  N_38
                            x       y       z     vdW  Elec       q    Type
                         _______ _______ _______ _____ _____    ______ ____

>  <TORSDO>
F 7

$$$$
=
 OpenBabel11042420033D

 42 48  0  0  1  0  0  0  0  0999 V2000
  161.2850  204.9290  151.0320 C   0  0  0  0  0  0  0  0  0  0  0  0
  161.2160  205.0920  149.6400 C   0  0  0  0  0  0  0  0  0  0  0  0
  161.3670  202.5100  150.6300 C   0  0  0  0  0  3  0  0  0  0  0  0
  161.0000  205.9350  147.4800 N   0  0  0  0  0  0  0  0  0  0  0  0
  161.0880  206.2650  148.8530 N   0  0  0  0  0  0  0  0  0  0  0  0
  161.2870  202.7230  149.2430 C   0  0  0  0  0  0  0  0  0  0  0  0
  161.2130  204.0400  148.7920 C   0  0  0  0  0  0  0  0  0  0  0  0
  161.0850  204.5210  147.4640 N   0  0  0  0  0  0  0  0  0  0  0  0
  161.2760  201.5730  148.2970 C   0  0  0  0  0  1  0  0  0  0  0  0
  161.3640  203.6060  151.5200 C   0  0  0  0  0  3  0  0  0  0  0  0
  161.2760  206.0910  151.9310 C   0  0  0  0  0  3  0  0  0  0  0  0
  160.5600  206.1500  153.0470 C   0  0  0  0  0  3  0  0  0  0  0  0
  160.6340  207.3730  153.8900 C   0  0  2  0  0  3  0  0  0  0  0  0
  161.9420  207.8850  153.8670 O   0  0  0  0  0  0  0  0  0  0  0  0
  159.3540  211.2060  156.9910 C   0  0  0  0  0  2  0  0  0  0  0  0
  159.2860  211.9240  154.5080 C   0  0  0  0  0  2  0  0  0  0  0  0
  161.7220  209.6750  152.2150 C   0  0  0  0  0  1  0  0  0  0  0  0
  160.2730  207.0380  155.3270 C   0  0  0  0  0  2  0  0  0  0  0  0
  160.9100  209.4010  156.0630 C   0  0  1  0  0  3  0  0  0  0  0  0
  159.6610  210.4910  154.1360 C   0  0  0  0  0  2  0  0  0  0  0  0
  159.8510  208.2880  156.0920 C   0  0  0  0  0  2  0  0  0  0  0  0
  161.0320  210.0890  154.6870 C   0  0  2  0  0  3  0  0  0  0  0  0
  160.6460  210.4130  157.1800 C   0  0  0  0  0  2  0  0  0  0  0  0
  159.5700  212.3210  155.9660 C   0  0  1  0  0  3  0  0  0  0  0  0
  161.8910  209.2840  153.6800 C   0  0  1  0  0  3  0  0  0  0  0  0
  158.8610  213.5470  156.3380 N   0  0  0  0  0  2  0  0  0  0  0  0
  157.6480  213.2300  157.0840 C   0  0  0  0  0  1  0  0  0  0  0  0
  161.8670  208.5400  149.0180 C   0  0  0  0  0  3  0  0  0  0  0  0
  160.9960  207.5990  149.3600 C   0  0  0  0  0  3  0  0  0  0  0  0
  161.7330  209.9210  149.5640 C   0  0  0  0  0  2  0  0  0  0  0  0
  164.5300  211.0690  147.3180 O   0  0  0  0  0  0  0  0  0  0  0  0
  162.2150  212.0660  147.8880 N   0  0  0  0  0  0  0  0  0  0  0  0
  162.3230  210.8850  148.6480 N   0  0  0  0  0  0  0  0  0  0  0  0
  163.3860  211.2760  147.8000 C   0  0  0  0  0  0  0  0  0  0  0  0
  159.3450  213.3160  147.6970 C   0  0  0  0  0  0  0  0  0  0  0  0
  160.4490  213.5530  148.5580 C   0  0  0  0  0  0  0  0  0  0  0  0
  160.3080  213.9280  149.8810 C   0  0  0  0  0  3  0  0  0  0  0  0
  161.4660  213.2560  147.5180 C   0  0  2  0  0  3  0  0  0  0  0  0
  160.3430  212.8820  146.2580 S   0  0  0  0  0  0  0  0  0  0  0  0
  158.0310  213.4390  148.1100 C   0  0  0  0  0  3  0  0  0  0  0  0
  158.9700  214.0610  150.3250 C   0  0  0  0  0  3  0  0  0  0  0  0
  157.8600  213.8210  149.4610 C   0  0  0  0  0  3  0  0  0  0  0  0
  1 10  1  0  0  0  0
  1 11  1  0  0  0  0
  2  1  2  0  0  0  0
  3 10  2  0  0  0  0
  4  5  1  0  0  0  0
  5 29  1  0  0  0  0
  5  2  1  0  0  0  0
  6  3  1  0  0  0  0
  7  6  2  0  0  0  0
  7  2  1  0  0  0  0
  8  4  2  0  0  0  0
  8  7  1  0  0  0  0
  9  6  1  0  0  0  0
 11 12  2  0  0  0  0
 13 12  1  6  0  0  0
 13 18  1  0  0  0  0
 14 13  1  0  0  0  0
 15 23  1  0  0  0  0
 16 24  1  0  0  0  0
 18 21  1  0  0  0  0
 19 21  1  6  0  0  0
 19 23  1  0  0  0  0
 20 16  1  0  0  0  0
 22 20  1  6  0  0  0
 22 19  1  0  0  0  0
 24 26  1  1  0  0  0
 24 15  1  0  0  0  0
 25 17  1  6  0  0  0
 25 14  1  0  0  0  0
 25 22  1  0  0  0  0
 26 27  1  0  0  0  0
 28 29  2  0  0  0  0
 28 30  1  0  0  0  0
 31 34  2  0  0  0  0
 32 33  1  0  0  0  0
 33 30  1  0  0  0  0
 34 32  1  0  0  0  0
 34 33  1  0  0  0  0
 35 40  2  0  0  0  0
 35 36  1  0  0  0  0
 36 37  2  0  0  0  0
 37 41  1  0  0  0  0
 38 32  1  1  0  0  0
 38 36  1  0  0  0  0
 39 38  1  0  0  0  0
 39 35  1  0  0  0  0
 40 42  1  0  0  0  0
 42 41  2  0  0  0  0
M  END
>  <MODEL>
8

>  <REMARK>
 VINA RESULT:      -6.2      1.275      1.526
  Name = 
  7 active torsions:
  status: ('A' for Active; 'I' for Inactive)
    1  A    between atoms: C_1  and  C_3
    2  A    between atoms: C_2  and  C_40
    3  A    between atoms: N_12  and  C_33
    4  A    between atoms: C_17  and  N_19
    5  A    between atoms: C_22  and  C_29
    6  A    between atoms: N_27  and  C_36
    7  A    between atoms: C_29  and  N_38
                            x       y       z     vdW  Elec       q    Type
                         _______ _______ _______ _____ _____    ______ ____

>  <TORSDO>
F 7

$$$$
