=
 OpenBabel11052411463D

 40 45  0  0  1  0  0  0  0  0999 V2000
  161.6340  208.9260  150.7060 C   0  0  0  0  0  0  0  0  0  0  0  0
  161.4150  210.2740  150.7930 C   0  0  0  0  0  0  0  0  0  0  0  0
  162.1460  208.5800  149.4730 O   0  0  0  0  0  0  0  0  0  0  0  0
  160.6200  210.0110  153.0700 C   0  0  0  0  0  0  0  0  0  0  0  0
  160.8470  208.6220  152.9490 C   0  0  0  0  0  3  0  0  0  0  0  0
  162.3050  209.7340  148.6560 C   0  0  0  0  0  3  0  0  0  0  0  0
  160.9100  210.8620  151.9700 C   0  0  0  0  0  0  0  0  0  0  0  0
  161.8340  210.9210  149.5170 C   0  0  0  0  0  3  0  0  0  0  0  0
  161.3580  208.0590  151.7690 C   0  0  0  0  0  0  0  0  0  0  0  0
  160.8820  211.4090  156.6160 C   0  0  0  0  0  3  0  0  0  0  0  0
  157.9320  211.1280  155.5750 C   0  0  0  0  0  3  0  0  0  0  0  0
  158.3010  211.5610  156.7730 C   0  0  0  0  0  3  0  0  0  0  0  0
  159.6370  211.6750  157.2600 N   0  0  0  0  0  2  0  0  0  0  0  0
  158.7580  210.6540  154.4620 C   0  0  0  0  0  3  0  0  0  0  0  0
  161.0610  210.9350  155.3850 C   0  0  0  0  0  3  0  0  0  0  0  0
  160.0860  210.5440  154.3500 C   0  0  0  0  0  0  0  0  0  0  0  0
  161.5870  206.6020  151.6880 C   0  0  0  0  0  0  0  0  0  0  0  0
  162.7090  206.1260  152.0170 O   0  0  0  0  0  0  0  0  0  0  0  0
  160.5610  205.7250  151.2180 N   0  0  0  0  0  2  0  0  0  0  0  0
  161.5040  200.3270  148.3740 N   0  0  0  0  0  1  0  0  0  0  0  0
  161.3450  202.2160  149.9100 C   0  0  0  0  0  2  0  0  0  0  0  0
  160.7740  204.3410  151.1510 N   0  0  0  0  0  2  0  0  0  0  0  0
  160.8550  202.4670  147.3740 C   0  0  0  0  0  2  0  0  0  0  0  0
  161.1080  203.6970  149.9240 C   0  0  0  0  0  0  0  0  0  0  0  0
  161.2620  204.3880  148.8350 N   0  0  0  0  0  0  0  0  0  0  0  0
  160.7990  201.5710  148.6260 C   0  0  1  0  0  3  0  0  0  0  0  0
  161.6720  203.7400  147.5920 C   0  0  0  0  0  2  0  0  0  0  0  0
  160.7080  212.2430  152.1050 O   0  0  0  0  0  0  0  0  0  0  0  0
  159.4440  212.8950  152.0260 C   0  0  0  0  0  2  0  0  0  0  0  0
  158.3900  213.9230  147.6430 C   0  0  0  0  0  2  0  0  0  0  0  0
  160.6960  213.6600  149.9850 C   0  0  0  0  0  2  0  0  0  0  0  0
  158.2780  213.1610  149.8390 C   0  0  1  0  0  3  0  0  0  0  0  0
  161.7610  213.0140  146.5050 O   0  0  0  0  0  0  0  0  0  0  0  0
  159.3530  213.7180  150.7480 C   0  0  1  0  0  3  0  0  0  0  0  0
  159.7010  212.3370  145.5470 C   0  0  0  0  0  1  0  0  0  0  0  0
  160.7010  214.4530  148.6590 C   0  0  0  0  0  2  0  0  0  0  0  0
  156.8620  213.6840  149.8130 C   0  0  0  0  0  2  0  0  0  0  0  0
  159.8650  213.8210  147.6160 N   0  0  0  0  0  0  0  0  0  0  0  0
  160.5030  213.0700  146.5710 C   0  0  0  0  0  0  0  0  0  0  0  0
  157.9350  214.3870  149.0120 C   0  0  2  0  0  3  0  0  0  0  0  0
  1  2  2  0  0  0  0
  1  9  1  0  0  0  0
  2  7  1  0  0  0  0
  3  1  1  0  0  0  0
  4 16  1  0  0  0  0
  5  4  1  0  0  0  0
  6  3  1  0  0  0  0
  6  8  2  0  0  0  0
  7 28  1  0  0  0  0
  7  4  2  0  0  0  0
  8  2  1  0  0  0  0
  9  5  2  0  0  0  0
 10 13  1  0  0  0  0
 11 12  2  0  0  0  0
 12 13  1  0  0  0  0
 14 11  1  0  0  0  0
 15 10  2  0  0  0  0
 16 14  2  0  0  0  0
 16 15  1  0  0  0  0
 17  9  1  0  0  0  0
 17 18  2  0  0  0  0
 19 17  1  0  0  0  0
 21 24  1  0  0  0  0
 22 19  1  0  0  0  0
 23 27  1  0  0  0  0
 23 26  1  0  0  0  0
 24 22  1  0  0  0  0
 25 24  2  0  0  0  0
 26 20  1  6  0  0  0
 26 21  1  0  0  0  0
 27 25  1  0  0  0  0
 29 28  1  0  0  0  0
 31 34  1  0  0  0  0
 32 37  1  1  0  0  0
 32 34  1  0  0  0  0
 33 39  2  0  0  0  0
 34 29  1  1  0  0  0
 35 39  1  0  0  0  0
 36 31  1  0  0  0  0
 38 30  1  0  0  0  0
 38 36  1  0  0  0  0
 39 38  1  0  0  0  0
 40 30  1  6  0  0  0
 40 37  1  0  0  0  0
 40 32  1  0  0  0  0
M  END
>  <MODEL>
1

>  <REMARK>
 VINA RESULT:      -8.1      0.000      0.000
  Name = 
  6 active torsions:
  status: ('A' for Active; 'I' for Inactive)
    1  A    between atoms: C_8  and  C_34
    2  A    between atoms: C_9  and  O_18
    3  A    between atoms: C_9  and  C_21
    4  A    between atoms: N_10  and  N_39
    5  A    between atoms: C_16  and  C_37
    6  A    between atoms: O_18  and  C_29
                            x       y       z     vdW  Elec       q    Type
                         _______ _______ _______ _____ _____    ______ ____

>  <TORSDO>
F 6

$$$$
=
 OpenBabel11052411463D

 40 45  0  0  1  0  0  0  0  0999 V2000
  161.7000  207.1040  150.1370 C   0  0  0  0  0  0  0  0  0  0  0  0
  161.6360  208.4230  150.4930 C   0  0  0  0  0  0  0  0  0  0  0  0
  161.9580  206.9600  148.7900 O   0  0  0  0  0  0  0  0  0  0  0  0
  161.2180  207.7950  152.7980 C   0  0  0  0  0  0  0  0  0  0  0  0
  161.2790  206.4410  152.4010 C   0  0  0  0  0  3  0  0  0  0  0  0
  162.0910  208.2330  148.1680 C   0  0  0  0  0  3  0  0  0  0  0  0
  161.4000  208.8140  151.8270 C   0  0  0  0  0  0  0  0  0  0  0  0
  161.8950  209.2670  149.2920 C   0  0  0  0  0  3  0  0  0  0  0  0
  161.5230  206.0740  151.0680 C   0  0  0  0  0  0  0  0  0  0  0  0
  161.6060  209.8210  156.0140 C   0  0  0  0  0  3  0  0  0  0  0  0
  159.6980  207.3420  156.2970 C   0  0  0  0  0  3  0  0  0  0  0  0
  160.0240  208.1940  157.2610 C   0  0  0  0  0  3  0  0  0  0  0  0
  160.9030  209.3110  157.1450 N   0  0  0  0  0  2  0  0  0  0  0  0
  160.1390  207.3060  154.9000 C   0  0  0  0  0  3  0  0  0  0  0  0
  161.6230  209.3110  154.7850 C   0  0  0  0  0  3  0  0  0  0  0  0
  160.9650  208.1140  154.2280 C   0  0  0  0  0  0  0  0  0  0  0  0
  161.5880  204.6460  150.6970 C   0  0  0  0  0  0  0  0  0  0  0  0
  162.1950  203.8320  151.4470 O   0  0  0  0  0  0  0  0  0  0  0  0
  160.9910  204.1770  149.4860 N   0  0  0  0  0  2  0  0  0  0  0  0
  160.8860  199.3740  145.6080 N   0  0  0  0  0  1  0  0  0  0  0  0
  161.1780  200.9380  147.4580 C   0  0  0  0  0  2  0  0  0  0  0  0
  161.0420  202.8210  149.1380 N   0  0  0  0  0  2  0  0  0  0  0  0
  160.3150  201.7080  145.1350 C   0  0  0  0  0  2  0  0  0  0  0  0
  161.1040  202.4020  147.7760 C   0  0  0  0  0  0  0  0  0  0  0  0
  161.1530  203.2760  146.8180 N   0  0  0  0  0  0  0  0  0  0  0  0
  160.3670  200.5940  146.1990 C   0  0  1  0  0  3  0  0  0  0  0  0
  161.2870  202.8520  145.4270 C   0  0  0  0  0  2  0  0  0  0  0  0
  161.3640  210.1560  152.2310 O   0  0  0  0  0  0  0  0  0  0  0  0
  160.8930  211.2370  151.4340 C   0  0  0  0  0  2  0  0  0  0  0  0
  158.0810  214.1280  153.6950 C   0  0  0  0  0  2  0  0  0  0  0  0
  159.2500  211.0670  153.3290 C   0  0  0  0  0  2  0  0  0  0  0  0
  159.7390  213.2670  152.3090 C   0  0  1  0  0  3  0  0  0  0  0  0
  158.2440  212.0790  156.7380 O   0  0  0  0  0  0  0  0  0  0  0  0
  159.5940  211.7900  152.0060 C   0  0  1  0  0  3  0  0  0  0  0  0
  158.5180  214.4290  156.5840 C   0  0  0  0  0  1  0  0  0  0  0  0
  157.9530  211.5700  154.0020 C   0  0  0  0  0  2  0  0  0  0  0  0
  159.3210  214.3540  151.3480 C   0  0  0  0  0  2  0  0  0  0  0  0
  158.0960  212.9300  154.5630 N   0  0  0  0  0  0  0  0  0  0  0  0
  158.2780  213.0850  155.9790 C   0  0  0  0  0  0  0  0  0  0  0  0
  158.2900  213.7160  152.2530 C   0  0  2  0  0  3  0  0  0  0  0  0
  1  2  2  0  0  0  0
  1  9  1  0  0  0  0
  2  7  1  0  0  0  0
  3  1  1  0  0  0  0
  4 16  1  0  0  0  0
  5  4  1  0  0  0  0
  6  3  1  0  0  0  0
  6  8  2  0  0  0  0
  7 28  1  0  0  0  0
  7  4  2  0  0  0  0
  8  2  1  0  0  0  0
  9  5  2  0  0  0  0
 10 13  1  0  0  0  0
 11 12  2  0  0  0  0
 13 12  1  0  0  0  0
 14 11  1  0  0  0  0
 15 10  2  0  0  0  0
 16 15  1  0  0  0  0
 16 14  2  0  0  0  0
 17  9  1  0  0  0  0
 17 18  2  0  0  0  0
 19 17  1  0  0  0  0
 21 24  1  0  0  0  0
 22 19  1  0  0  0  0
 23 27  1  0  0  0  0
 23 26  1  0  0  0  0
 24 22  1  0  0  0  0
 25 24  2  0  0  0  0
 26 20  1  6  0  0  0
 26 21  1  0  0  0  0
 27 25  1  0  0  0  0
 29 28  1  0  0  0  0
 30 38  1  0  0  0  0
 31 36  1  0  0  0  0
 32 37  1  6  0  0  0
 34 29  1  1  0  0  0
 34 32  1  0  0  0  0
 34 31  1  0  0  0  0
 36 38  1  0  0  0  0
 38 39  1  0  0  0  0
 39 35  1  0  0  0  0
 39 33  2  0  0  0  0
 40 37  1  6  0  0  0
 40 32  1  0  0  0  0
 40 30  1  0  0  0  0
M  END
>  <MODEL>
2

>  <REMARK>
 VINA RESULT:      -8.0      2.587      4.204
  Name = 
  6 active torsions:
  status: ('A' for Active; 'I' for Inactive)
    1  A    between atoms: C_8  and  C_34
    2  A    between atoms: C_9  and  O_18
    3  A    between atoms: C_9  and  C_21
    4  A    between atoms: N_10  and  N_39
    5  A    between atoms: C_16  and  C_37
    6  A    between atoms: O_18  and  C_29
                            x       y       z     vdW  Elec       q    Type
                         _______ _______ _______ _____ _____    ______ ____

>  <TORSDO>
F 6

$$$$
=
 OpenBabel11052411463D

 40 45  0  0  1  0  0  0  0  0999 V2000
  161.4970  207.1330  150.5900 C   0  0  0  0  0  0  0  0  0  0  0  0
  161.4730  208.1050  151.5530 C   0  0  0  0  0  0  0  0  0  0  0  0
  161.3820  205.8750  151.1440 O   0  0  0  0  0  0  0  0  0  0  0  0
  161.6820  209.8180  149.8480 C   0  0  0  0  0  0  0  0  0  0  0  0
  161.7130  208.7930  148.8760 C   0  0  0  0  0  3  0  0  0  0  0  0
  161.2630  205.9620  152.5600 C   0  0  0  0  0  3  0  0  0  0  0  0
  161.5590  209.4720  151.2200 C   0  0  0  0  0  0  0  0  0  0  0  0
  161.3040  207.4660  152.8880 C   0  0  0  0  0  3  0  0  0  0  0  0
  161.6200  207.4380  149.2300 C   0  0  0  0  0  0  0  0  0  0  0  0
  160.6650  213.5000  149.7800 C   0  0  0  0  0  3  0  0  0  0  0  0
  163.0750  212.8120  147.8860 C   0  0  0  0  0  3  0  0  0  0  0  0
  162.5100  214.0040  148.0340 C   0  0  0  0  0  3  0  0  0  0  0  0
  161.4040  214.3210  148.8780 N   0  0  0  0  0  0  0  0  0  0  0  0
  162.7290  211.5350  148.5160 C   0  0  0  0  0  3  0  0  0  0  0  0
  160.8320  212.1980  149.9980 C   0  0  0  0  0  2  0  0  0  0  0  0
  161.7770  211.2340  149.4050 C   0  0  0  0  0  0  0  0  0  0  0  0
  161.6480  206.3990  148.1800 C   0  0  0  0  0  0  0  0  0  0  0  0
  162.3390  206.5810  147.1390 O   0  0  0  0  0  0  0  0  0  0  0  0
  160.8830  205.2000  148.3180 N   0  0  0  0  0  2  0  0  0  0  0  0
  161.1960  199.4160  146.1810 N   0  0  0  0  0  1  0  0  0  0  0  0
  160.8580  201.8030  146.5580 C   0  0  0  0  0  2  0  0  0  0  0  0
  160.9170  204.2090  147.3280 N   0  0  0  0  0  2  0  0  0  0  0  0
  161.5810  200.2030  148.4680 C   0  0  0  0  0  2  0  0  0  0  0  0
  160.8370  202.8240  147.6560 C   0  0  0  0  0  0  0  0  0  0  0  0
  160.6930  202.4440  148.8890 N   0  0  0  0  0  0  0  0  0  0  0  0
  161.6470  200.5500  146.9680 C   0  0  1  0  0  3  0  0  0  0  0  0
  160.5410  201.0300  149.2230 C   0  0  0  0  0  2  0  0  0  0  0  0
  161.5020  210.4940  152.1780 O   0  0  0  0  0  0  0  0  0  0  0  0
  162.0350  210.4080  153.4950 C   0  0  0  0  0  2  0  0  0  0  0  0
  158.4060  210.9000  156.3180 C   0  0  0  0  0  2  0  0  0  0  0  0
  160.1310  212.0310  153.7470 C   0  0  0  0  0  2  0  0  0  0  0  0
  160.2590  210.0390  155.2070 C   0  0  1  0  0  3  0  0  0  0  0  0
  156.4880  212.6550  153.7250 O   0  0  0  0  0  0  0  0  0  0  0  0
  161.0950  211.0780  154.4900 C   0  0  1  0  0  3  0  0  0  0  0  0
  155.7400  210.8630  155.0850 C   0  0  0  0  0  1  0  0  0  0  0  0
  159.1210  212.7500  154.6680 C   0  0  0  0  0  2  0  0  0  0  0  0
  160.6340  209.4580  156.5490 C   0  0  0  0  0  2  0  0  0  0  0  0
  158.0970  211.8320  155.2120 N   0  0  0  0  0  0  0  0  0  0  0  0
  156.7820  211.8320  154.6340 C   0  0  0  0  0  0  0  0  0  0  0  0
  159.9070  210.7820  156.4830 C   0  0  2  0  0  3  0  0  0  0  0  0
  1  3  1  0  0  0  0
  1  2  1  0  0  0  0
  2  8  1  0  0  0  0
  3  6  1  0  0  0  0
  4  7  1  0  0  0  0
  5  9  1  0  0  0  0
  5  4  2  0  0  0  0
  6  8  2  0  0  0  0
  7  2  2  0  0  0  0
  7 28  1  0  0  0  0
  9  1  2  0  0  0  0
 10 15  1  0  0  0  0
 11 12  2  0  0  0  0
 11 14  1  0  0  0  0
 12 13  1  0  0  0  0
 13 10  2  0  0  0  0
 14 16  2  0  0  0  0
 16  4  1  0  0  0  0
 16 15  1  0  0  0  0
 17 19  1  0  0  0  0
 17  9  1  0  0  0  0
 18 17  2  0  0  0  0
 21 26  1  0  0  0  0
 21 24  1  0  0  0  0
 22 24  1  0  0  0  0
 22 19  1  0  0  0  0
 23 27  1  0  0  0  0
 24 25  2  0  0  0  0
 25 27  1  0  0  0  0
 26 20  1  6  0  0  0
 26 23  1  0  0  0  0
 28 29  1  0  0  0  0
 31 34  1  0  0  0  0
 31 36  1  0  0  0  0
 32 40  1  0  0  0  0
 32 37  1  1  0  0  0
 33 39  2  0  0  0  0
 34 29  1  6  0  0  0
 34 32  1  0  0  0  0
 36 38  1  0  0  0  0
 38 30  1  0  0  0  0
 39 35  1  0  0  0  0
 39 38  1  0  0  0  0
 40 30  1  1  0  0  0
 40 37  1  0  0  0  0
M  END
>  <MODEL>
3

>  <REMARK>
 VINA RESULT:      -8.0      2.185      5.842
  Name = 
  6 active torsions:
  status: ('A' for Active; 'I' for Inactive)
    1  A    between atoms: C_8  and  C_34
    2  A    between atoms: C_9  and  O_18
    3  A    between atoms: C_9  and  C_21
    4  A    between atoms: N_10  and  N_39
    5  A    between atoms: C_16  and  C_37
    6  A    between atoms: O_18  and  C_29
                            x       y       z     vdW  Elec       q    Type
                         _______ _______ _______ _____ _____    ______ ____

>  <TORSDO>
F 6

$$$$
=
 OpenBabel11052411463D

 40 45  0  0  1  0  0  0  0  0999 V2000
  161.6750  207.1360  150.1260 C   0  0  0  0  0  0  0  0  0  0  0  0
  161.6190  208.4590  150.4690 C   0  0  0  0  0  0  0  0  0  0  0  0
  161.8950  206.9770  148.7740 O   0  0  0  0  0  0  0  0  0  0  0  0
  161.2670  207.8560  152.7920 C   0  0  0  0  0  0  0  0  0  0  0  0
  161.3200  206.4980  152.4090 C   0  0  0  0  0  3  0  0  0  0  0  0
  162.0080  208.2430  148.1340 C   0  0  0  0  0  3  0  0  0  0  0  0
  161.4190  208.8650  151.8040 C   0  0  0  0  0  0  0  0  0  0  0  0
  161.8420  209.2900  149.2520 C   0  0  0  0  0  3  0  0  0  0  0  0
  161.5270  206.1170  151.0740 C   0  0  0  0  0  0  0  0  0  0  0  0
  161.8830  209.8050  156.0200 C   0  0  0  0  0  3  0  0  0  0  0  0
  159.7130  207.5500  156.2920 C   0  0  0  0  0  3  0  0  0  0  0  0
  160.1330  208.3530  157.2610 C   0  0  0  0  0  3  0  0  0  0  0  0
  161.1300  209.3670  157.1500 N   0  0  0  0  0  2  0  0  0  0  0  0
  160.1450  207.4740  154.8940 C   0  0  0  0  0  3  0  0  0  0  0  0
  161.8410  209.3050  154.7880 C   0  0  0  0  0  3  0  0  0  0  0  0
  161.0540  208.1920  154.2250 C   0  0  0  0  0  0  0  0  0  0  0  0
  161.5840  204.6840  150.7170 C   0  0  0  0  0  0  0  0  0  0  0  0
  161.9840  203.8430  151.5700 O   0  0  0  0  0  0  0  0  0  0  0  0
  161.2150  204.2400  149.4100 N   0  0  0  0  0  0  0  0  0  0  0  0
  160.8990  199.3920  145.6010 N   0  0  0  0  0  1  0  0  0  0  0  0
  161.3000  200.9810  147.4090 C   0  0  0  0  0  2  0  0  0  0  0  0
  161.2590  202.8810  149.0740 N   0  0  0  0  0  0  0  0  0  0  0  0
  160.2670  201.7140  145.1450 C   0  0  0  0  0  2  0  0  0  0  0  0
  161.2310  202.4470  147.7160 C   0  0  0  0  0  0  0  0  0  0  0  0
  161.2000  203.3110  146.7470 N   0  0  0  0  0  0  0  0  0  0  0  0
  160.4070  200.6130  146.2130 C   0  0  1  0  0  3  0  0  0  0  0  0
  161.2420  202.8720  145.3540 C   0  0  0  0  0  2  0  0  0  0  0  0
  161.3910  210.2110  152.1940 O   0  0  0  0  0  0  0  0  0  0  0  0
  160.2540  210.8850  152.7230 C   0  0  0  0  0  2  0  0  0  0  0  0
  158.0630  214.2630  150.4490 C   0  0  0  0  0  2  0  0  0  0  0  0
  160.5790  212.1360  150.5670 C   0  0  0  0  0  2  0  0  0  0  0  0
  158.5860  212.5760  151.9630 C   0  0  1  0  0  3  0  0  0  0  0  0
  159.3070  213.0430  147.2170 O   0  0  0  0  0  0  0  0  0  0  0  0
  160.0570  212.2220  152.0190 C   0  0  1  0  0  3  0  0  0  0  0  0
  157.0760  213.6370  147.7550 C   0  0  0  0  0  1  0  0  0  0  0  0
  160.4090  213.4410  149.7580 C   0  0  0  0  0  2  0  0  0  0  0  0
  157.9070  213.4580  152.9840 C   0  0  0  0  0  2  0  0  0  0  0  0
  158.9950  213.7270  149.4330 N   0  0  0  0  0  0  0  0  0  0  0  0
  158.5150  213.4530  148.1080 C   0  0  0  0  0  0  0  0  0  0  0  0
  158.6580  214.0860  151.8310 C   0  0  2  0  0  3  0  0  0  0  0  0
  1  2  2  0  0  0  0
  1  9  1  0  0  0  0
  2  7  1  0  0  0  0
  3  1  1  0  0  0  0
  4 16  1  0  0  0  0
  5  4  1  0  0  0  0
  6  3  1  0  0  0  0
  6  8  2  0  0  0  0
  7 28  1  0  0  0  0
  7  4  2  0  0  0  0
  8  2  1  0  0  0  0
  9  5  2  0  0  0  0
 10 13  1  0  0  0  0
 11 12  2  0  0  0  0
 13 12  1  0  0  0  0
 14 11  1  0  0  0  0
 15 10  2  0  0  0  0
 16 15  1  0  0  0  0
 16 14  2  0  0  0  0
 17  9  1  0  0  0  0
 17 18  2  0  0  0  0
 19 17  1  0  0  0  0
 21 24  1  0  0  0  0
 22 19  2  0  0  0  0
 23 27  1  0  0  0  0
 23 26  1  0  0  0  0
 24 22  1  0  0  0  0
 25 24  2  0  0  0  0
 26 20  1  6  0  0  0
 26 21  1  0  0  0  0
 27 25  1  0  0  0  0
 28 29  1  0  0  0  0
 31 34  1  0  0  0  0
 32 34  1  0  0  0  0
 32 37  1  1  0  0  0
 33 39  2  0  0  0  0
 34 29  1  6  0  0  0
 35 39  1  0  0  0  0
 36 31  1  0  0  0  0
 38 36  1  0  0  0  0
 38 30  1  0  0  0  0
 39 38  1  0  0  0  0
 40 30  1  6  0  0  0
 40 32  1  0  0  0  0
 40 37  1  0  0  0  0
M  END
>  <MODEL>
4

>  <REMARK>
 VINA RESULT:      -7.9      1.853      2.507
  Name = 
  6 active torsions:
  status: ('A' for Active; 'I' for Inactive)
    1  A    between atoms: C_8  and  C_34
    2  A    between atoms: C_9  and  O_18
    3  A    between atoms: C_9  and  C_21
    4  A    between atoms: N_10  and  N_39
    5  A    between atoms: C_16  and  C_37
    6  A    between atoms: O_18  and  C_29
                            x       y       z     vdW  Elec       q    Type
                         _______ _______ _______ _____ _____    ______ ____

>  <TORSDO>
F 6

$$$$
=
 OpenBabel11052411463D

 40 45  0  0  1  0  0  0  0  0999 V2000
  161.7430  207.4500  150.1630 C   0  0  0  0  0  0  0  0  0  0  0  0
  161.6380  208.5410  150.9820 C   0  0  0  0  0  0  0  0  0  0  0  0
  161.6930  206.2750  150.8840 O   0  0  0  0  0  0  0  0  0  0  0  0
  161.7800  210.0130  149.0590 C   0  0  0  0  0  0  0  0  0  0  0  0
  161.8970  208.8690  148.2390 C   0  0  0  0  0  3  0  0  0  0  0  0
  161.5360  206.5480  152.2730 C   0  0  0  0  0  3  0  0  0  0  0  0
  161.6470  209.8520  150.4640 C   0  0  0  0  0  0  0  0  0  0  0  0
  161.4780  208.0820  152.3900 C   0  0  0  0  0  3  0  0  0  0  0  0
  161.8790  207.5720  148.7760 C   0  0  0  0  0  0  0  0  0  0  0  0
  160.2580  212.9880  147.2070 C   0  0  0  0  0  3  0  0  0  0  0  0
  163.2980  213.3500  147.9110 C   0  0  0  0  0  3  0  0  0  0  0  0
  162.5380  214.2160  147.2530 C   0  0  0  0  0  3  0  0  0  0  0  0
  161.1630  214.0520  146.9130 N   0  0  0  0  0  0  0  0  0  0  0  0
  162.9540  212.0290  148.4450 C   0  0  0  0  0  3  0  0  0  0  0  0
  160.5350  211.8560  147.8490 C   0  0  0  0  0  2  0  0  0  0  0  0
  161.7980  211.3580  148.4250 C   0  0  0  0  0  0  0  0  0  0  0  0
  161.9950  206.4030  147.8810 C   0  0  0  0  0  0  0  0  0  0  0  0
  163.0120  206.2780  147.1430 O   0  0  0  0  0  0  0  0  0  0  0  0
  160.9570  205.4220  147.8210 N   0  0  0  0  0  2  0  0  0  0  0  0
  161.2920  199.3980  146.5090 N   0  0  0  0  0  1  0  0  0  0  0  0
  161.0080  201.8220  146.5280 C   0  0  0  0  0  2  0  0  0  0  0  0
  161.0710  204.3070  146.9800 N   0  0  0  0  0  2  0  0  0  0  0  0
  161.4280  200.4750  148.7050 C   0  0  0  0  0  2  0  0  0  0  0  0
  160.8950  202.9800  147.4730 C   0  0  0  0  0  0  0  0  0  0  0  0
  160.5870  202.7730  148.7170 N   0  0  0  0  0  0  0  0  0  0  0  0
  161.6890  200.6160  147.1930 C   0  0  1  0  0  3  0  0  0  0  0  0
  160.3380  201.4210  149.2090 C   0  0  0  0  0  2  0  0  0  0  0  0
  161.5060  210.9900  151.2700 O   0  0  0  0  0  0  0  0  0  0  0  0
  160.6490  211.0870  152.4030 C   0  0  0  0  0  2  0  0  0  0  0  0
  157.0990  214.0500  152.4040 C   0  0  0  0  0  2  0  0  0  0  0  0
  159.8760  213.0020  150.9690 C   0  0  0  0  0  2  0  0  0  0  0  0
  158.4950  212.2510  152.8780 C   0  0  1  0  0  3  0  0  0  0  0  0
  157.2930  214.4530  148.7590 O   0  0  0  0  0  0  0  0  0  0  0  0
  159.9220  212.4260  152.4030 C   0  0  1  0  0  3  0  0  0  0  0  0
  155.3470  214.0360  150.0470 C   0  0  0  0  0  1  0  0  0  0  0  0
  159.1420  214.3570  150.8580 C   0  0  0  0  0  2  0  0  0  0  0  0
  158.0690  212.4620  154.3110 C   0  0  0  0  0  2  0  0  0  0  0  0
  157.6820  214.2280  151.0560 N   0  0  0  0  0  0  0  0  0  0  0  0
  156.8180  214.2530  149.9090 C   0  0  0  0  0  0  0  0  0  0  0  0
  158.1850  213.6490  153.3810 C   0  0  2  0  0  3  0  0  0  0  0  0
  1  3  1  0  0  0  0
  1  2  1  0  0  0  0
  2  8  1  0  0  0  0
  3  6  1  0  0  0  0
  4  7  1  0  0  0  0
  5  9  1  0  0  0  0
  5  4  2  0  0  0  0
  6  8  2  0  0  0  0
  7  2  2  0  0  0  0
  7 28  1  0  0  0  0
  9  1  2  0  0  0  0
 10 15  1  0  0  0  0
 11 14  1  0  0  0  0
 12 11  2  0  0  0  0
 13 10  2  0  0  0  0
 13 12  1  0  0  0  0
 15 16  1  0  0  0  0
 16 14  2  0  0  0  0
 16  4  1  0  0  0  0
 17  9  1  0  0  0  0
 18 17  2  0  0  0  0
 19 17  1  0  0  0  0
 21 26  1  0  0  0  0
 21 24  1  0  0  0  0
 22 24  1  0  0  0  0
 22 19  1  0  0  0  0
 23 27  1  0  0  0  0
 24 25  2  0  0  0  0
 25 27  1  0  0  0  0
 26 20  1  6  0  0  0
 26 23  1  0  0  0  0
 28 29  1  0  0  0  0
 31 34  1  0  0  0  0
 32 40  1  0  0  0  0
 32 37  1  1  0  0  0
 33 39  2  0  0  0  0
 34 29  1  6  0  0  0
 34 32  1  0  0  0  0
 36 31  1  0  0  0  0
 36 38  1  0  0  0  0
 38 30  1  0  0  0  0
 39 35  1  0  0  0  0
 39 38  1  0  0  0  0
 40 30  1  6  0  0  0
 40 37  1  0  0  0  0
M  END
>  <MODEL>
5

>  <REMARK>
 VINA RESULT:      -7.8      2.221      4.997
  Name = 
  6 active torsions:
  status: ('A' for Active; 'I' for Inactive)
    1  A    between atoms: C_8  and  C_34
    2  A    between atoms: C_9  and  O_18
    3  A    between atoms: C_9  and  C_21
    4  A    between atoms: N_10  and  N_39
    5  A    between atoms: C_16  and  C_37
    6  A    between atoms: O_18  and  C_29
                            x       y       z     vdW  Elec       q    Type
                         _______ _______ _______ _____ _____    ______ ____

>  <TORSDO>
F 6

$$$$
=
 OpenBabel11052411463D

 40 45  0  0  1  0  0  0  0  0999 V2000
  161.5620  209.0760  151.1930 C   0  0  0  0  0  0  0  0  0  0  0  0
  161.8780  208.4560  150.0160 C   0  0  0  0  0  0  0  0  0  0  0  0
  161.7510  210.4400  151.1090 O   0  0  0  0  0  0  0  0  0  0  0  0
  161.2830  206.3070  150.9720 C   0  0  0  0  0  0  0  0  0  0  0  0
  160.9730  206.9730  152.1790 C   0  0  0  0  0  3  0  0  0  0  0  0
  162.2120  210.8000  149.8110 C   0  0  0  0  0  3  0  0  0  0  0  0
  161.7460  207.0610  149.8610 C   0  0  0  0  0  0  0  0  0  0  0  0
  162.3010  209.4820  149.0210 C   0  0  0  0  0  3  0  0  0  0  0  0
  161.1050  208.3640  152.3080 C   0  0  0  0  0  0  0  0  0  0  0  0
  161.1910  202.7580  152.3830 C   0  0  0  0  0  3  0  0  0  0  0  0
  160.5870  202.9180  149.3040 C   0  0  0  0  0  3  0  0  0  0  0  0
  160.6420  201.8120  150.0350 C   0  0  0  0  0  3  0  0  0  0  0  0
  160.9330  201.7290  151.4290 N   0  0  0  0  0  0  0  0  0  0  0  0
  160.8100  204.3090  149.7050 C   0  0  0  0  0  3  0  0  0  0  0  0
  161.2600  204.0660  152.1500 C   0  0  0  0  0  2  0  0  0  0  0  0
  161.1110  204.8320  150.8980 C   0  0  0  0  0  0  0  0  0  0  0  0
  160.7620  209.0200  153.5860 C   0  0  0  0  0  0  0  0  0  0  0  0
  161.2600  208.5910  154.6640 O   0  0  0  0  0  0  0  0  0  0  0  0
  159.8520  210.1220  153.6210 N   0  0  0  0  0  0  0  0  0  0  0  0
  156.9820  214.2430  157.2120 N   0  0  0  0  0  1  0  0  0  0  0  0
  158.1710  212.3470  156.2400 C   0  0  0  0  0  2  0  0  0  0  0  0
  159.5340  210.7530  154.8310 N   0  0  0  0  0  0  0  0  0  0  0  0
  157.0740  214.1780  154.7660 C   0  0  0  0  0  2  0  0  0  0  0  0
  158.4850  211.7150  154.9170 C   0  0  0  0  0  0  0  0  0  0  0  0
  157.7690  212.0070  153.8740 N   0  0  0  0  0  0  0  0  0  0  0  0
  157.7940  213.8280  156.0820 C   0  0  1  0  0  3  0  0  0  0  0  0
  156.6500  212.9400  153.9740 C   0  0  0  0  0  2  0  0  0  0  0  0
  162.0270  206.3990  148.6570 O   0  0  0  0  0  0  0  0  0  0  0  0
  162.2890  207.0410  147.4140 C   0  0  0  0  0  2  0  0  0  0  0  0
  160.4280  203.9580  144.5130 C   0  0  0  0  0  2  0  0  0  0  0  0
  162.7480  204.6610  146.7470 C   0  0  0  0  0  2  0  0  0  0  0  0
  160.7830  205.8460  145.8250 C   0  0  1  0  0  3  0  0  0  0  0  0
  161.6000  201.1520  146.5700 O   0  0  0  0  0  0  0  0  0  0  0  0
  162.2170  206.0330  146.2740 C   0  0  1  0  0  3  0  0  0  0  0  0
  159.4220  201.4600  145.6850 C   0  0  0  0  0  1  0  0  0  0  0  0
  162.7010  203.5600  145.6650 C   0  0  0  0  0  2  0  0  0  0  0  0
  160.1710  206.6060  144.6720 C   0  0  0  0  0  2  0  0  0  0  0  0
  161.3220  203.1300  145.3510 N   0  0  0  0  0  0  0  0  0  0  0  0
  160.8350  201.8930  145.8960 C   0  0  0  0  0  0  0  0  0  0  0  0
  160.9870  205.3610  144.4010 C   0  0  2  0  0  3  0  0  0  0  0  0
  1  9  1  0  0  0  0
  2  1  2  0  0  0  0
  3  1  1  0  0  0  0
  4  5  1  0  0  0  0
  5  9  2  0  0  0  0
  6  3  1  0  0  0  0
  7  2  1  0  0  0  0
  7  4  2  0  0  0  0
  8  6  2  0  0  0  0
  8  2  1  0  0  0  0
  9 17  1  0  0  0  0
 11 14  1  0  0  0  0
 11 12  2  0  0  0  0
 12 13  1  0  0  0  0
 13 10  2  0  0  0  0
 14 16  2  0  0  0  0
 15 10  1  0  0  0  0
 16  4  1  0  0  0  0
 16 15  1  0  0  0  0
 17 19  1  0  0  0  0
 17 18  2  0  0  0  0
 19 22  2  0  0  0  0
 22 24  1  0  0  0  0
 23 26  1  0  0  0  0
 24 21  1  0  0  0  0
 25 27  1  0  0  0  0
 25 24  2  0  0  0  0
 26 21  1  0  0  0  0
 26 20  1  1  0  0  0
 27 23  1  0  0  0  0
 28  7  1  0  0  0  0
 29 28  1  0  0  0  0
 30 38  1  0  0  0  0
 32 37  1  6  0  0  0
 32 34  1  0  0  0  0
 34 31  1  0  0  0  0
 34 29  1  1  0  0  0
 35 39  1  0  0  0  0
 36 31  1  0  0  0  0
 38 36  1  0  0  0  0
 38 39  1  0  0  0  0
 39 33  2  0  0  0  0
 40 30  1  1  0  0  0
 40 37  1  0  0  0  0
 40 32  1  0  0  0  0
M  END
>  <MODEL>
6

>  <REMARK>
 VINA RESULT:      -7.7      3.118      9.154
  Name = 
  6 active torsions:
  status: ('A' for Active; 'I' for Inactive)
    1  A    between atoms: C_8  and  C_34
    2  A    between atoms: C_9  and  O_18
    3  A    between atoms: C_9  and  C_21
    4  A    between atoms: N_10  and  N_39
    5  A    between atoms: C_16  and  C_37
    6  A    between atoms: O_18  and  C_29
                            x       y       z     vdW  Elec       q    Type
                         _______ _______ _______ _____ _____    ______ ____

>  <TORSDO>
F 6

$$$$
=
 OpenBabel11052411463D

 40 45  0  0  1  0  0  0  0  0999 V2000
  160.8970  207.2590  153.5150 C   0  0  0  0  0  0  0  0  0  0  0  0
  160.7280  208.5450  153.9500 C   0  0  0  0  0  0  0  0  0  0  0  0
  160.7180  206.3550  154.5420 O   0  0  0  0  0  0  0  0  0  0  0  0
  161.1570  209.3710  151.7100 C   0  0  0  0  0  0  0  0  0  0  0  0
  161.3350  208.0340  151.2910 C   0  0  0  0  0  3  0  0  0  0  0  0
  160.4000  207.0320  155.7530 C   0  0  0  0  0  3  0  0  0  0  0  0
  160.8460  209.6400  153.0690 C   0  0  0  0  0  0  0  0  0  0  0  0
  160.3790  208.5300  155.3980 C   0  0  0  0  0  3  0  0  0  0  0  0
  161.2070  206.9590  152.1840 C   0  0  0  0  0  0  0  0  0  0  0  0
  160.5760  212.8770  150.3070 C   0  0  0  0  0  3  0  0  0  0  0  0
  162.3530  211.0520  148.4690 C   0  0  0  0  0  3  0  0  0  0  0  0
  161.9800  212.2980  148.2090 C   0  0  0  0  0  3  0  0  0  0  0  0
  161.1590  213.1270  149.0290 N   0  0  0  0  0  0  0  0  0  0  0  0
  162.0320  210.2070  149.6220 C   0  0  0  0  0  3  0  0  0  0  0  0
  160.6440  211.7500  151.0110 C   0  0  0  0  0  2  0  0  0  0  0  0
  161.2990  210.4630  150.7110 C   0  0  0  0  0  0  0  0  0  0  0  0
  161.3930  205.5750  151.7020 C   0  0  0  0  0  0  0  0  0  0  0  0
  162.4960  204.9910  151.8880 O   0  0  0  0  0  0  0  0  0  0  0  0
  160.3460  204.8970  151.0040 N   0  0  0  0  0  2  0  0  0  0  0  0
  161.5080  200.5020  146.8260 N   0  0  0  0  0  1  0  0  0  0  0  0
  161.1900  201.8700  148.8220 C   0  0  0  0  0  2  0  0  0  0  0  0
  160.5170  203.5810  150.5550 N   0  0  0  0  0  2  0  0  0  0  0  0
  161.0910  202.8840  146.4360 C   0  0  0  0  0  2  0  0  0  0  0  0
  161.0070  203.2960  149.2470 C   0  0  0  0  0  0  0  0  0  0  0  0
  161.3440  204.2590  148.4440 N   0  0  0  0  0  0  0  0  0  0  0  0
  160.8180  201.6700  147.3450 C   0  0  1  0  0  3  0  0  0  0  0  0
  161.9110  203.9710  147.1290 C   0  0  0  0  0  2  0  0  0  0  0  0
  160.6450  210.9660  153.4740 O   0  0  0  0  0  0  0  0  0  0  0  0
  160.7890  211.4450  154.8070 C   0  0  0  0  0  2  0  0  0  0  0  0
  156.6350  213.3520  155.5000 C   0  0  0  0  0  2  0  0  0  0  0  0
  159.4610  213.3290  153.8040 C   0  0  0  0  0  2  0  0  0  0  0  0
  158.4610  211.9130  155.5670 C   0  0  1  0  0  3  0  0  0  0  0  0
  156.4350  214.4530  152.0030 O   0  0  0  0  0  0  0  0  0  0  0  0
  159.7600  212.5300  155.0930 C   0  0  1  0  0  3  0  0  0  0  0  0
  154.7580  213.3240  153.2410 C   0  0  0  0  0  1  0  0  0  0  0  0
  158.4120  214.4480  153.9850 C   0  0  0  0  0  2  0  0  0  0  0  0
  158.1110  211.7420  157.0260 C   0  0  0  0  0  2  0  0  0  0  0  0
  157.0480  213.9170  154.1970 N   0  0  0  0  0  0  0  0  0  0  0  0
  156.1160  213.9300  153.1050 C   0  0  0  0  0  0  0  0  0  0  0  0
  157.8590  213.0690  156.3460 C   0  0  2  0  0  3  0  0  0  0  0  0
  1  2  1  0  0  0  0
  1  3  1  0  0  0  0
  2  8  1  0  0  0  0
  3  6  1  0  0  0  0
  4  7  1  0  0  0  0
  5  4  2  0  0  0  0
  5  9  1  0  0  0  0
  7 28  1  0  0  0  0
  7  2  2  0  0  0  0
  8  6  2  0  0  0  0
  9  1  2  0  0  0  0
 10 15  1  0  0  0  0
 11 14  1  0  0  0  0
 12 11  2  0  0  0  0
 12 13  1  0  0  0  0
 13 10  2  0  0  0  0
 14 16  2  0  0  0  0
 16 15  1  0  0  0  0
 16  4  1  0  0  0  0
 17 18  2  0  0  0  0
 17  9  1  0  0  0  0
 19 17  1  0  0  0  0
 21 24  1  0  0  0  0
 22 19  1  0  0  0  0
 23 27  1  0  0  0  0
 23 26  1  0  0  0  0
 24 22  1  0  0  0  0
 25 24  2  0  0  0  0
 26 20  1  6  0  0  0
 26 21  1  0  0  0  0
 27 25  1  0  0  0  0
 28 29  1  0  0  0  0
 31 36  1  0  0  0  0
 31 34  1  0  0  0  0
 32 40  1  0  0  0  0
 32 37  1  1  0  0  0
 33 39  2  0  0  0  0
 34 29  1  6  0  0  0
 34 32  1  0  0  0  0
 36 38  1  0  0  0  0
 38 30  1  0  0  0  0
 39 35  1  0  0  0  0
 39 38  1  0  0  0  0
 40 30  1  6  0  0  0
 40 37  1  0  0  0  0
M  END
>  <MODEL>
7

>  <REMARK>
 VINA RESULT:      -7.3      2.217      5.198
  Name = 
  6 active torsions:
  status: ('A' for Active; 'I' for Inactive)
    1  A    between atoms: C_8  and  C_34
    2  A    between atoms: C_9  and  O_18
    3  A    between atoms: C_9  and  C_21
    4  A    between atoms: N_10  and  N_39
    5  A    between atoms: C_16  and  C_37
    6  A    between atoms: O_18  and  C_29
                            x       y       z     vdW  Elec       q    Type
                         _______ _______ _______ _____ _____    ______ ____

>  <TORSDO>
F 6

$$$$
=
 OpenBabel11052411463D

 40 45  0  0  1  0  0  0  0  0999 V2000
  161.7810  209.4440  149.8450 C   0  0  0  0  0  0  0  0  0  0  0  0
  161.5680  210.4680  150.7260 C   0  0  0  0  0  0  0  0  0  0  0  0
  161.9690  209.9170  148.5630 O   0  0  0  0  0  0  0  0  0  0  0  0
  161.3830  208.8790  152.5490 C   0  0  0  0  0  0  0  0  0  0  0  0
  161.5960  207.8410  151.6150 C   0  0  0  0  0  3  0  0  0  0  0  0
  161.8950  211.3380  148.5380 C   0  0  0  0  0  3  0  0  0  0  0  0
  161.3680  210.2260  152.1010 C   0  0  0  0  0  0  0  0  0  0  0  0
  161.6370  211.7650  149.9950 C   0  0  0  0  0  3  0  0  0  0  0  0
  161.8000  208.1060  150.2520 C   0  0  0  0  0  0  0  0  0  0  0  0
  161.9500  209.2310  156.3110 C   0  0  0  0  0  3  0  0  0  0  0  0
  159.9310  206.9520  155.5380 C   0  0  0  0  0  3  0  0  0  0  0  0
  160.3220  207.2680  156.7660 C   0  0  0  0  0  3  0  0  0  0  0  0
  161.2520  208.2890  157.1240 N   0  0  0  0  0  2  0  0  0  0  0  0
  160.3350  207.5330  154.2550 C   0  0  0  0  0  3  0  0  0  0  0  0
  161.9110  209.3270  154.9840 C   0  0  0  0  0  3  0  0  0  0  0  0
  161.1820  208.5300  153.9800 C   0  0  0  0  0  0  0  0  0  0  0  0
  162.0270  206.9900  149.3110 C   0  0  0  0  0  0  0  0  0  0  0  0
  163.0870  206.9550  148.6270 O   0  0  0  0  0  0  0  0  0  0  0  0
  161.0490  205.9600  149.1480 N   0  0  0  0  0  2  0  0  0  0  0  0
  161.4120  200.0210  147.5020 N   0  0  0  0  0  1  0  0  0  0  0  0
  161.2050  202.4480  147.6390 C   0  0  0  0  0  2  0  0  0  0  0  0
  161.2680  204.8960  148.2640 N   0  0  0  0  0  2  0  0  0  0  0  0
  161.2100  200.9530  149.7590 C   0  0  0  0  0  2  0  0  0  0  0  0
  160.9710  203.5500  148.6290 C   0  0  0  0  0  0  0  0  0  0  0  0
  160.4510  203.2790  149.7870 N   0  0  0  0  0  0  0  0  0  0  0  0
  161.7270  201.1760  148.3240 C   0  0  1  0  0  3  0  0  0  0  0  0
  160.0810  201.9100  150.1380 C   0  0  0  0  0  2  0  0  0  0  0  0
  161.1820  211.2540  153.0350 O   0  0  0  0  0  0  0  0  0  0  0  0
  160.0190  211.4290  153.8370 C   0  0  0  0  0  2  0  0  0  0  0  0
  156.6350  214.4300  152.8740 C   0  0  0  0  0  2  0  0  0  0  0  0
  159.5330  213.1060  152.0280 C   0  0  0  0  0  2  0  0  0  0  0  0
  157.8730  212.7000  153.8160 C   0  0  1  0  0  3  0  0  0  0  0  0
  157.3420  214.2400  149.2760 O   0  0  0  0  0  0  0  0  0  0  0  0
  159.3580  212.7660  153.5260 C   0  0  1  0  0  3  0  0  0  0  0  0
  155.2220  214.0760  150.3240 C   0  0  0  0  0  1  0  0  0  0  0  0
  158.8810  214.4410  151.6050 C   0  0  0  0  0  2  0  0  0  0  0  0
  157.2650  213.1470  155.1230 C   0  0  0  0  0  2  0  0  0  0  0  0
  157.4040  214.3770  151.6110 N   0  0  0  0  0  0  0  0  0  0  0  0
  156.7060  214.2360  150.3640 C   0  0  0  0  0  0  0  0  0  0  0  0
  157.5590  214.1670  154.0450 C   0  0  2  0  0  3  0  0  0  0  0  0
  1  9  2  0  0  0  0
  1  2  1  0  0  0  0
  2  7  2  0  0  0  0
  3  1  1  0  0  0  0
  4 16  1  0  0  0  0
  5  4  2  0  0  0  0
  6  3  1  0  0  0  0
  6  8  2  0  0  0  0
  7  4  1  0  0  0  0
  7 28  1  0  0  0  0
  8  2  1  0  0  0  0
  9  5  1  0  0  0  0
 10 13  1  0  0  0  0
 11 12  2  0  0  0  0
 12 13  1  0  0  0  0
 14 11  1  0  0  0  0
 15 10  2  0  0  0  0
 16 14  2  0  0  0  0
 16 15  1  0  0  0  0
 17  9  1  0  0  0  0
 18 17  2  0  0  0  0
 19 17  1  0  0  0  0
 21 26  1  0  0  0  0
 21 24  1  0  0  0  0
 22 24  1  0  0  0  0
 22 19  1  0  0  0  0
 23 27  1  0  0  0  0
 24 25  2  0  0  0  0
 25 27  1  0  0  0  0
 26 20  1  6  0  0  0
 26 23  1  0  0  0  0
 28 29  1  0  0  0  0
 31 34  1  0  0  0  0
 32 40  1  0  0  0  0
 32 37  1  1  0  0  0
 33 39  2  0  0  0  0
 34 32  1  0  0  0  0
 34 29  1  6  0  0  0
 35 39  1  0  0  0  0
 36 38  1  0  0  0  0
 36 31  1  0  0  0  0
 38 30  1  0  0  0  0
 39 38  1  0  0  0  0
 40 30  1  6  0  0  0
 40 37  1  0  0  0  0
M  END
>  <MODEL>
8

>  <REMARK>
 VINA RESULT:      -7.3      2.077      3.268
  Name = 
  6 active torsions:
  status: ('A' for Active; 'I' for Inactive)
    1  A    between atoms: C_8  and  C_34
    2  A    between atoms: C_9  and  O_18
    3  A    between atoms: C_9  and  C_21
    4  A    between atoms: N_10  and  N_39
    5  A    between atoms: C_16  and  C_37
    6  A    between atoms: O_18  and  C_29
                            x       y       z     vdW  Elec       q    Type
                         _______ _______ _______ _____ _____    ______ ____

>  <TORSDO>
F 6

$$$$
=
 OpenBabel11052411463D

 40 45  0  0  1  0  0  0  0  0999 V2000
  161.7160  209.4400  150.1050 C   0  0  0  0  0  0  0  0  0  0  0  0
  161.4490  210.4200  151.0220 C   0  0  0  0  0  0  0  0  0  0  0  0
  161.9440  209.9730  148.8540 O   0  0  0  0  0  0  0  0  0  0  0  0
  161.2240  208.7460  152.7640 C   0  0  0  0  0  0  0  0  0  0  0  0
  161.4930  207.7550  151.7940 C   0  0  0  0  0  3  0  0  0  0  0  0
  161.8430  211.3920  148.8900 C   0  0  0  0  0  3  0  0  0  0  0  0
  161.2010  210.1120  152.3750 C   0  0  0  0  0  0  0  0  0  0  0  0
  161.5220  211.7490  150.3530 C   0  0  0  0  0  3  0  0  0  0  0  0
  161.7440  208.0850  150.4530 C   0  0  0  0  0  0  0  0  0  0  0  0
  162.0570  208.4250  156.4790 C   0  0  0  0  0  3  0  0  0  0  0  0
  159.3010  207.1460  155.6790 C   0  0  0  0  0  3  0  0  0  0  0  0
  159.8390  207.1520  156.8920 C   0  0  0  0  0  3  0  0  0  0  0  0
  161.0970  207.7140  157.2600 N   0  0  0  0  0  2  0  0  0  0  0  0
  159.8320  207.6850  154.4240 C   0  0  0  0  0  3  0  0  0  0  0  0
  161.9940  208.6830  155.1750 C   0  0  0  0  0  3  0  0  0  0  0  0
  160.9750  208.3300  154.1690 C   0  0  0  0  0  0  0  0  0  0  0  0
  162.0290  207.0170  149.4730 C   0  0  0  0  0  0  0  0  0  0  0  0
  163.0770  207.0740  148.7730 O   0  0  0  0  0  0  0  0  0  0  0  0
  161.1180  205.9300  149.2910 N   0  0  0  0  0  2  0  0  0  0  0  0
  161.5330  200.0820  147.3570 N   0  0  0  0  0  1  0  0  0  0  0  0
  161.3470  202.5020  147.6090 C   0  0  0  0  0  2  0  0  0  0  0  0
  161.3920  204.9110  148.3690 N   0  0  0  0  0  2  0  0  0  0  0  0
  161.1670  200.8950  149.6380 C   0  0  0  0  0  2  0  0  0  0  0  0
  161.0500  203.5520  148.6360 C   0  0  0  0  0  0  0  0  0  0  0  0
  160.4380  203.2290  149.7350 N   0  0  0  0  0  0  0  0  0  0  0  0
  161.7970  201.1860  148.2620 C   0  0  1  0  0  3  0  0  0  0  0  0
  160.0240  201.8500  149.9810 C   0  0  0  0  0  2  0  0  0  0  0  0
  160.9590  211.0930  153.3470 O   0  0  0  0  0  0  0  0  0  0  0  0
  160.0780  212.2000  153.1880 C   0  0  0  0  0  2  0  0  0  0  0  0
  157.8820  212.2380  157.2570 C   0  0  0  0  0  2  0  0  0  0  0  0
  158.4690  213.7250  154.3740 C   0  0  0  0  0  2  0  0  0  0  0  0
  159.1210  211.5730  155.4040 C   0  0  1  0  0  3  0  0  0  0  0  0
  155.1320  214.2430  155.8770 O   0  0  0  0  0  0  0  0  0  0  0  0
  159.6270  212.7160  154.5490 C   0  0  1  0  0  3  0  0  0  0  0  0
  154.9450  212.2770  157.1890 C   0  0  0  0  0  1  0  0  0  0  0  0
  157.9250  214.2960  155.7020 C   0  0  0  0  0  2  0  0  0  0  0  0
  159.9850  210.8420  156.4030 C   0  0  0  0  0  2  0  0  0  0  0  0
  157.1800  213.2900  156.4890 N   0  0  0  0  0  0  0  0  0  0  0  0
  155.7440  213.3230  156.4850 C   0  0  0  0  0  0  0  0  0  0  0  0
  159.3210  212.1440  156.7960 C   0  0  2  0  0  3  0  0  0  0  0  0
  1  9  2  0  0  0  0
  1  2  1  0  0  0  0
  2  7  2  0  0  0  0
  3  6  1  0  0  0  0
  3  1  1  0  0  0  0
  4 16  1  0  0  0  0
  5  4  2  0  0  0  0
  6  8  2  0  0  0  0
  7  4  1  0  0  0  0
  7 28  1  0  0  0  0
  8  2  1  0  0  0  0
  9  5  1  0  0  0  0
 10 13  1  0  0  0  0
 11 12  2  0  0  0  0
 12 13  1  0  0  0  0
 14 11  1  0  0  0  0
 15 10  2  0  0  0  0
 16 14  2  0  0  0  0
 16 15  1  0  0  0  0
 17  9  1  0  0  0  0
 18 17  2  0  0  0  0
 19 17  1  0  0  0  0
 21 26  1  0  0  0  0
 21 24  1  0  0  0  0
 22 24  1  0  0  0  0
 22 19  1  0  0  0  0
 23 27  1  0  0  0  0
 24 25  2  0  0  0  0
 25 27  1  0  0  0  0
 26 20  1  6  0  0  0
 26 23  1  0  0  0  0
 29 28  1  0  0  0  0
 31 34  1  0  0  0  0
 31 36  1  0  0  0  0
 32 37  1  1  0  0  0
 32 40  1  0  0  0  0
 33 39  2  0  0  0  0
 34 29  1  6  0  0  0
 34 32  1  0  0  0  0
 36 38  1  0  0  0  0
 38 30  1  0  0  0  0
 39 38  1  0  0  0  0
 39 35  1  0  0  0  0
 40 37  1  1  0  0  0
 40 30  1  0  0  0  0
M  END
>  <MODEL>
9

>  <REMARK>
 VINA RESULT:      -6.4      2.606      5.062
  Name = 
  6 active torsions:
  status: ('A' for Active; 'I' for Inactive)
    1  A    between atoms: C_8  and  C_34
    2  A    between atoms: C_9  and  O_18
    3  A    between atoms: C_9  and  C_21
    4  A    between atoms: N_10  and  N_39
    5  A    between atoms: C_16  and  C_37
    6  A    between atoms: O_18  and  C_29
                            x       y       z     vdW  Elec       q    Type
                         _______ _______ _______ _____ _____    ______ ____

>  <TORSDO>
F 6

$$$$
