=
 OpenBabel11052411023D

 37 41  0  0  1  0  0  0  0  0999 V2000
  161.4870  208.6410  152.5950 C   0  0  0  0  0  0  0  0  0  0  0  0
  160.8920  204.8530  149.6710 C   0  0  2  0  0  3  0  0  0  0  0  0
  161.7820  207.7570  150.3970 C   0  0  1  0  0  0  0  0  0  0  0  0
  161.2160  208.0460  149.0070 C   0  0  2  0  0  3  0  0  0  0  0  0
  161.1470  206.8350  148.0550 C   0  0  1  0  0  3  0  0  0  0  0  0
  160.5310  206.7810  153.7900 C   0  0  0  0  0  2  0  0  0  0  0  0
  162.0320  209.1790  148.3800 C   0  0  0  0  0  2  0  0  0  0  0  0
  160.8820  206.8140  151.2170 C   0  0  2  0  0  3  0  0  0  0  0  0
  160.1590  206.9620  156.2560 C   0  0  0  0  0  1  0  0  0  0  0  0
  163.0820  207.2730  150.3100 F   0  0  0  0  0  0  0  0  0  0  0  0
  160.6240  207.5390  154.9680 C   0  0  0  0  0  0  0  0  0  0  0  0
  161.8170  208.9980  151.2280 C   0  0  0  0  0  0  0  0  0  0  0  0
  160.9980  207.3540  152.6090 C   0  0  0  0  0  0  0  0  0  0  0  0
  161.9900  210.5670  153.7760 O   0  0  0  0  0  0  0  0  0  0  0  0
  161.7290  205.5040  148.5620 C   0  0  0  0  0  2  0  0  0  0  0  0
  161.1230  208.8120  154.9350 N   0  0  0  0  0  0  0  0  0  0  0  0
  161.2830  205.3540  151.0630 C   0  0  0  0  0  2  0  0  0  0  0  0
  161.5490  209.3870  153.7740 C   0  0  0  0  0  0  0  0  0  0  0  0
  161.9270  210.2280  150.7250 C   0  0  0  0  0  3  0  0  0  0  0  0
  161.9750  210.4670  149.2330 C   0  0  1  0  0  3  0  0  0  0  0  0
  159.8410  206.6580  147.5980 O   0  0  0  0  0  1  0  0  0  0  0  0
  161.1300  202.7450  148.3560 C   0  0  0  0  0  3  0  0  0  0  0  0
  161.0840  201.1870  150.6790 C   0  0  0  0  0  3  0  0  0  0  0  0
  161.0030  203.3640  149.6040 C   0  0  0  0  0  0  0  0  0  0  0  0
  161.2360  201.3540  148.2680 C   0  0  0  0  0  3  0  0  0  0  0  0
  160.9800  202.5790  150.7690 C   0  0  0  0  0  3  0  0  0  0  0  0
  161.2120  200.5760  149.4280 C   0  0  0  0  0  3  0  0  0  0  0  0
  163.1330  211.3940  148.8930 C   0  0  0  0  0  2  0  0  0  0  0  0
  162.7950  212.2870  147.7460 C   0  0  0  0  0  3  0  0  0  0  0  0
  161.5580  212.3400  147.2660 C   0  0  0  0  0  3  0  0  0  0  0  0
  161.2000  213.2070  146.1380 C   0  0  0  0  0  0  0  0  0  0  0  0
  161.3780  214.4530  146.2050 O   0  0  0  0  0  0  0  0  0  0  0  0
  160.6480  212.6170  144.9620 N   0  0  0  0  0  2  0  0  0  0  0  0
  159.7160  212.4610  142.2660 C   0  0  0  0  0  1  0  0  0  0  0  0
  161.3650  214.3860  143.1240 O   0  0  0  0  0  0  0  0  0  0  0  0
  160.1970  213.5560  143.5790 S   0  0  0  0  0  0  0  0  0  0  0  0
  159.0390  214.4490  143.9250 O   0  0  0  0  0  0  0  0  0  0  0  0
  1 13  2  0  0  0  0
  1 18  1  0  0  0  0
  2 24  1  1  0  0  0
  2 17  1  0  0  0  0
  3 10  1  6  0  0  0
  3  8  1  0  0  0  0
  3 12  1  0  0  0  0
  4  7  1  6  0  0  0
  4  3  1  0  0  0  0
  5 21  1  1  0  0  0
  5 15  1  0  0  0  0
  5  4  1  0  0  0  0
  6 11  1  0  0  0  0
  7 20  1  0  0  0  0
  8 17  1  1  0  0  0
  8 13  1  0  0  0  0
 11  9  1  0  0  0  0
 12  1  1  0  0  0  0
 13  6  1  0  0  0  0
 15  2  1  0  0  0  0
 16 11  2  0  0  0  0
 18 14  2  0  0  0  0
 18 16  1  0  0  0  0
 19 12  2  0  0  0  0
 20 28  1  1  0  0  0
 20 19  1  0  0  0  0
 22 24  1  0  0  0  0
 23 26  1  0  0  0  0
 24 26  2  0  0  0  0
 25 22  2  0  0  0  0
 25 27  1  0  0  0  0
 27 23  2  0  0  0  0
 29 28  1  0  0  0  0
 30 29  2  0  0  0  0
 31 32  2  0  0  0  0
 31 30  1  0  0  0  0
 33 31  1  0  0  0  0
 34 36  1  0  0  0  0
 35 36  2  0  0  0  0
 36 37  2  0  0  0  0
 36 33  1  0  0  0  0
M  END
>  <MODEL>
1

>  <REMARK>
 VINA RESULT:      -9.8      0.000      0.000
  Name = 
  5 active torsions:
  status: ('A' for Active; 'I' for Inactive)
    1  A    between atoms: C_3  and  C_20
    2  A    between atoms: C_6  and  C_22
    3  A    between atoms: C_8  and  C_26
    4  A    between atoms: C_26  and  C_34
    5  A    between atoms: S_30  and  N_32
                            x       y       z     vdW  Elec       q    Type
                         _______ _______ _______ _____ _____    ______ ____

>  <TORSDO>
F 5

$$$$
=
 OpenBabel11052411023D

 37 41  0  0  1  0  0  0  0  0999 V2000
  161.4980  208.9280  151.2540 C   0  0  0  0  0  0  0  0  0  0  0  0
  161.6620  204.5770  149.1830 C   0  0  2  0  0  3  0  0  0  0  0  0
  161.0840  206.5900  151.5000 C   0  0  1  0  0  0  0  0  0  0  0  0
  161.6580  205.4500  152.3420 C   0  0  2  0  0  3  0  0  0  0  0  0
  161.5890  204.0510  151.6980 C   0  0  1  0  0  3  0  0  0  0  0  0
  162.2740  209.0930  148.9800 C   0  0  0  0  0  2  0  0  0  0  0  0
  160.9540  205.4530  153.7020 C   0  0  0  0  0  2  0  0  0  0  0  0
  161.8930  206.8390  150.2130 C   0  0  2  0  0  3  0  0  0  0  0  0
  162.6960  211.3460  147.9840 C   0  0  0  0  0  1  0  0  0  0  0  0
  159.7400  206.3690  151.2210 F   0  0  0  0  0  0  0  0  0  0  0  0
  162.2750  210.4900  149.1220 C   0  0  0  0  0  0  0  0  0  0  0  0
  161.1880  207.8930  152.2220 C   0  0  0  0  0  0  0  0  0  0  0  0
  161.8530  208.3290  150.0670 C   0  0  0  0  0  0  0  0  0  0  0  0
  161.2110  210.8800  152.4640 O   0  0  0  0  0  0  0  0  0  0  0  0
  160.8810  203.9340  150.3370 C   0  0  0  0  0  2  0  0  0  0  0  0
  161.9090  211.0660  150.3080 N   0  0  0  0  0  0  0  0  0  0  0  0
  161.3430  206.0650  149.0250 C   0  0  0  0  0  2  0  0  0  0  0  0
  161.5290  210.3190  151.3830 C   0  0  0  0  0  0  0  0  0  0  0  0
  161.1980  208.0080  153.5520 C   0  0  0  0  0  3  0  0  0  0  0  0
  161.1540  206.7920  154.4470 C   0  0  1  0  0  3  0  0  0  0  0  0
  162.8640  203.4880  151.6390 O   0  0  0  0  0  1  0  0  0  0  0  0
  161.0360  202.4990  147.9500 C   0  0  0  0  0  3  0  0  0  0  0  0
  161.2570  203.7930  145.4800 C   0  0  0  0  0  3  0  0  0  0  0  0
  161.3980  203.8490  147.9040 C   0  0  0  0  0  0  0  0  0  0  0  0
  160.7840  201.7980  146.7670 C   0  0  0  0  0  3  0  0  0  0  0  0
  161.5090  204.4960  146.6620 C   0  0  0  0  0  3  0  0  0  0  0  0
  160.8950  202.4440  145.5330 C   0  0  0  0  0  3  0  0  0  0  0  0
  160.0930  206.9780  155.5220 C   0  0  0  0  0  2  0  0  0  0  0  0
  159.5410  208.3640  155.5080 C   0  0  0  0  0  3  0  0  0  0  0  0
  160.0660  209.3140  156.2750 C   0  0  0  0  0  3  0  0  0  0  0  0
  159.5410  210.6830  156.2810 C   0  0  0  0  0  0  0  0  0  0  0  0
  159.7540  211.4480  157.2610 O   0  0  0  0  0  0  0  0  0  0  0  0
  158.7870  211.1390  155.1590 N   0  0  0  0  0  2  0  0  0  0  0  0
  156.8840  212.9220  156.3260 C   0  0  0  0  0  1  0  0  0  0  0  0
  157.5060  212.9600  153.7230 O   0  0  0  0  0  0  0  0  0  0  0  0
  158.1290  212.7390  155.0730 S   0  0  0  0  0  0  0  0  0  0  0  0
  159.2150  213.7490  155.3070 O   0  0  0  0  0  0  0  0  0  0  0  0
  1 18  1  0  0  0  0
  1 12  1  0  0  0  0
  2 24  1  6  0  0  0
  2 15  1  0  0  0  0
  3 10  1  6  0  0  0
  3 12  1  0  0  0  0
  3  4  1  0  0  0  0
  4  7  1  1  0  0  0
  5 21  1  6  0  0  0
  5  4  1  0  0  0  0
  6 11  1  0  0  0  0
  6 13  1  0  0  0  0
  7 20  1  0  0  0  0
  8 17  1  6  0  0  0
  8  3  1  0  0  0  0
  9 11  1  0  0  0  0
 11 16  2  0  0  0  0
 12 19  2  0  0  0  0
 13  8  1  0  0  0  0
 13  1  2  0  0  0  0
 15  5  1  0  0  0  0
 16 18  1  0  0  0  0
 17  2  1  0  0  0  0
 18 14  2  0  0  0  0
 19 20  1  0  0  0  0
 20 28  1  1  0  0  0
 23 27  2  0  0  0  0
 23 26  1  0  0  0  0
 24 22  1  0  0  0  0
 25 22  2  0  0  0  0
 26 24  2  0  0  0  0
 27 25  1  0  0  0  0
 29 28  1  0  0  0  0
 29 30  2  0  0  0  0
 30 31  1  0  0  0  0
 31 32  2  0  0  0  0
 33 31  1  0  0  0  0
 35 36  2  0  0  0  0
 36 33  1  0  0  0  0
 36 37  2  0  0  0  0
 36 34  1  0  0  0  0
M  END
>  <MODEL>
2

>  <REMARK>
 VINA RESULT:      -8.9      3.898      6.802
  Name = 
  5 active torsions:
  status: ('A' for Active; 'I' for Inactive)
    1  A    between atoms: C_3  and  C_20
    2  A    between atoms: C_6  and  C_22
    3  A    between atoms: C_8  and  C_26
    4  A    between atoms: C_26  and  C_34
    5  A    between atoms: S_30  and  N_32
                            x       y       z     vdW  Elec       q    Type
                         _______ _______ _______ _____ _____    ______ ____

>  <TORSDO>
F 5

$$$$
=
 OpenBabel11052411023D

 37 41  0  0  1  0  0  0  0  0999 V2000
  161.1720  208.1110  154.1870 C   0  0  0  0  0  0  0  0  0  0  0  0
  162.1340  210.2340  149.9670 C   0  0  2  0  0  3  0  0  0  0  0  0
  161.2970  207.8620  151.8160 C   0  0  1  0  0  0  0  0  0  0  0  0
  162.1640  207.0740  150.8340 C   0  0  2  0  0  3  0  0  0  0  0  0
  162.3570  207.7260  149.4510 C   0  0  1  0  0  3  0  0  0  0  0  0
  161.7290  210.4320  154.5060 C   0  0  0  0  0  2  0  0  0  0  0  0
  161.5760  205.6680  150.6900 C   0  0  0  0  0  2  0  0  0  0  0  0
  161.9390  209.1990  152.2300 C   0  0  2  0  0  3  0  0  0  0  0  0
  161.5760  211.4320  156.7930 C   0  0  0  0  0  1  0  0  0  0  0  0
  160.0180  208.0470  151.3060 F   0  0  0  0  0  0  0  0  0  0  0  0
  161.4350  210.2760  155.8700 C   0  0  0  0  0  0  0  0  0  0  0  0
  161.1650  207.1340  153.1140 C   0  0  0  0  0  0  0  0  0  0  0  0
  161.5630  209.3260  153.6740 C   0  0  0  0  0  0  0  0  0  0  0  0
  160.5520  206.8630  156.0350 O   0  0  0  0  0  0  0  0  0  0  0  0
  161.5970  209.0350  149.1750 C   0  0  0  0  0  2  0  0  0  0  0  0
  161.0370  209.0610  156.3590 N   0  0  0  0  0  0  0  0  0  0  0  0
  161.4880  210.3540  151.3480 C   0  0  0  0  0  2  0  0  0  0  0  0
  160.9070  207.9700  155.5520 C   0  0  0  0  0  0  0  0  0  0  0  0
  161.2440  205.8080  153.2360 C   0  0  0  0  0  3  0  0  0  0  0  0
  161.5320  204.9240  152.0440 C   0  0  1  0  0  3  0  0  0  0  0  0
  163.7170  207.8810  149.1790 O   0  0  0  0  0  1  0  0  0  0  0  0
  160.9460  212.3960  149.5850 C   0  0  0  0  0  3  0  0  0  0  0  0
  162.5530  212.9900  147.3750 C   0  0  0  0  0  3  0  0  0  0  0  0
  161.9450  211.4990  149.1930 C   0  0  0  0  0  0  0  0  0  0  0  0
  160.7510  213.5860  148.8780 C   0  0  0  0  0  3  0  0  0  0  0  0
  162.7510  211.8000  148.0820 C   0  0  0  0  0  3  0  0  0  0  0  0
  161.5540  213.8820  147.7730 C   0  0  0  0  0  3  0  0  0  0  0  0
  160.5350  203.7750  151.9990 C   0  0  0  0  0  2  0  0  0  0  0  0
  160.4240  203.2050  150.6240 C   0  0  0  0  0  3  0  0  0  0  0  0
  161.0870  202.1040  150.2880 C   0  0  0  0  0  3  0  0  0  0  0  0
  160.9980  201.5250  148.9440 C   0  0  0  0  0  0  0  0  0  0  0  0
  161.2300  200.3000  148.7550 O   0  0  0  0  0  0  0  0  0  0  0  0
  160.6430  202.3690  147.8500 N   0  0  0  0  0  2  0  0  0  0  0  0
  161.1330  203.0100  145.1090 C   0  0  0  0  0  1  0  0  0  0  0  0
  159.0680  201.5030  145.9030 O   0  0  0  0  0  0  0  0  0  0  0  0
  160.5100  201.7780  146.2270 S   0  0  0  0  0  0  0  0  0  0  0  0
  161.3180  200.5210  146.0760 O   0  0  0  0  0  0  0  0  0  0  0  0
  1 18  1  0  0  0  0
  2 24  1  6  0  0  0
  2 17  1  0  0  0  0
  3 10  1  6  0  0  0
  3  8  1  0  0  0  0
  3 12  1  0  0  0  0
  4  7  1  6  0  0  0
  4  3  1  0  0  0  0
  5 21  1  1  0  0  0
  5  4  1  0  0  0  0
  6 11  1  0  0  0  0
  7 20  1  0  0  0  0
  8 17  1  6  0  0  0
  8 13  1  0  0  0  0
 11 16  2  0  0  0  0
 11  9  1  0  0  0  0
 12 19  2  0  0  0  0
 12  1  1  0  0  0  0
 13  1  2  0  0  0  0
 13  6  1  0  0  0  0
 15  5  1  0  0  0  0
 15  2  1  0  0  0  0
 18 14  2  0  0  0  0
 18 16  1  0  0  0  0
 20 28  1  6  0  0  0
 20 19  1  0  0  0  0
 23 27  2  0  0  0  0
 23 26  1  0  0  0  0
 24 22  1  0  0  0  0
 25 22  2  0  0  0  0
 26 24  2  0  0  0  0
 27 25  1  0  0  0  0
 29 28  1  0  0  0  0
 30 29  2  0  0  0  0
 31 30  1  0  0  0  0
 32 31  2  0  0  0  0
 33 31  1  0  0  0  0
 34 36  1  0  0  0  0
 35 36  2  0  0  0  0
 36 33  1  0  0  0  0
 37 36  2  0  0  0  0
M  END
>  <MODEL>
3

>  <REMARK>
 VINA RESULT:      -7.3      4.081      8.069
  Name = 
  5 active torsions:
  status: ('A' for Active; 'I' for Inactive)
    1  A    between atoms: C_3  and  C_20
    2  A    between atoms: C_6  and  C_22
    3  A    between atoms: C_8  and  C_26
    4  A    between atoms: C_26  and  C_34
    5  A    between atoms: S_30  and  N_32
                            x       y       z     vdW  Elec       q    Type
                         _______ _______ _______ _____ _____    ______ ____

>  <TORSDO>
F 5

$$$$
