=
 OpenBabel11052410473D

 37 40  0  0  1  0  0  0  0  0999 V2000
  161.1140  203.6440  148.0940 C   0  0  0  0  0  3  0  0  0  0  0  0
  161.0880  203.2890  150.8310 C   0  0  0  0  0  0  0  0  0  0  0  0
  161.3260  206.1580  148.3760 C   0  0  0  0  0  0  0  0  0  0  0  0
  161.1820  207.2080  149.2000 C   0  0  0  0  0  3  0  0  0  0  0  0
  160.7230  208.0880  151.3760 C   0  0  0  0  0  0  0  0  0  0  0  0
  161.2380  204.7760  148.9440 C   0  0  0  0  0  0  0  0  0  0  0  0
  160.8630  201.2570  147.6710 C   0  0  0  0  0  1  0  0  0  0  0  0
  160.9710  202.1990  149.9300 C   0  0  0  0  0  0  0  0  0  0  0  0
  161.0090  207.0450  150.6490 C   0  0  0  0  0  0  0  0  0  0  0  0
  161.3640  205.7460  151.3100 C   0  0  1  0  0  3  0  0  0  0  0  0
  160.8590  201.0360  150.5880 N   0  0  0  0  0  0  0  0  0  0  0  0
  161.0480  202.7580  152.0990 C   0  0  0  0  0  3  0  0  0  0  0  0
  160.9870  202.3770  148.5870 N   0  0  0  0  0  0  0  0  0  0  0  0
  161.2160  204.5910  150.3560 C   0  0  0  0  0  0  0  0  0  0  0  0
  160.9060  201.3780  151.9020 C   0  0  0  0  0  3  0  0  0  0  0  0
  160.4340  209.1360  152.0940 C   0  0  0  0  0  3  0  0  0  0  0  0
  160.5530  206.1860  146.0390 C   0  0  0  0  0  3  0  0  0  0  0  0
  162.7520  206.8940  146.4530 O   0  0  0  0  0  1  0  0  0  0  0  0
  161.5330  206.4110  146.9180 C   0  0  0  0  0  0  0  0  0  0  0  0
  160.7090  206.4230  144.5720 C   0  0  0  0  0  2  0  0  0  0  0  0
  160.6150  204.2240  144.5650 C   0  0  0  0  0  1  0  0  0  0  0  0
  161.2620  205.2980  143.9620 O   0  0  0  0  0  0  0  0  0  0  0  0
  162.6790  205.8030  151.7790 O   0  0  0  0  0  0  0  0  0  0  0  0
  162.5610  205.9350  153.1200 N   0  0  0  0  0  1  0  0  0  0  0  0
  161.5130  209.8830  152.7920 C   0  0  0  0  0  2  0  0  0  0  0  0
  160.9510  210.5980  153.9760 C   0  0  0  0  0  0  0  0  0  0  0  0
  160.4790  211.0690  156.0610 N   0  0  0  0  0  0  0  0  0  0  0  0
  160.1050  212.6420  152.8760 O   0  0  0  0  0  1  0  0  0  0  0  0
  160.3490  211.8340  153.9780 C   0  0  0  0  0  0  0  0  0  0  0  0
  161.0240  210.1710  155.2510 N   0  0  0  0  0  0  0  0  0  0  0  0
  160.0550  212.1020  155.3030 C   0  0  0  0  0  0  0  0  0  0  0  0
  159.4010  213.3010  155.8490 C   0  0  0  0  0  0  0  0  0  0  0  0
  158.2520  213.6230  155.4470 O   0  0  0  0  0  0  0  0  0  0  0  0
  160.0700  214.1490  156.8750 C   0  0  0  0  0  1  0  0  0  0  0  0
  161.6080  208.9160  155.7110 C   0  0  0  0  0  2  0  0  0  0  0  0
  160.1730  207.3100  156.9740 C   0  0  0  0  0  1  0  0  0  0  0  0
  160.6040  207.7810  155.5990 C   0  0  0  0  0  2  0  0  0  0  0  0
  1 13  1  0  0  0  0
  1  6  2  0  0  0  0
  2 12  1  0  0  0  0
  3  6  1  0  0  0  0
  3  4  2  0  0  0  0
  4  9  1  0  0  0  0
  5 16  2  0  0  0  0
  6 14  1  0  0  0  0
  7 13  1  0  0  0  0
  8 11  2  0  0  0  0
  8  2  1  0  0  0  0
  9 10  1  0  0  0  0
  9  5  2  0  0  0  0
 10 23  1  6  0  0  0
 11 15  1  0  0  0  0
 13  8  1  0  0  0  0
 14  2  2  0  0  0  0
 14 10  1  0  0  0  0
 15 12  2  0  0  0  0
 16 25  1  0  0  0  0
 17 19  2  0  0  0  0
 18 19  1  0  0  0  0
 19  3  1  0  0  0  0
 20 17  1  0  0  0  0
 22 21  1  0  0  0  0
 22 20  1  0  0  0  0
 23 24  1  0  0  0  0
 25 26  1  0  0  0  0
 26 29  2  0  0  0  0
 26 30  1  0  0  0  0
 28 29  1  0  0  0  0
 29 31  1  0  0  0  0
 30 35  1  0  0  0  0
 30 27  1  0  0  0  0
 31 32  1  0  0  0  0
 31 27  2  0  0  0  0
 32 34  1  0  0  0  0
 33 32  2  0  0  0  0
 37 35  1  0  0  0  0
 37 36  1  0  0  0  0
M  END
>  <MODEL>
1

>  <REMARK>
 VINA RESULT:      -6.7      0.000      0.000
  Name = 
  9 active torsions:
  status: ('A' for Active; 'I' for Inactive)
    1  A    between atoms: C_3  and  C_27
    2  A    between atoms: C_4  and  C_13
    3  A    between atoms: C_4  and  C_37
    4  A    between atoms: C_5  and  N_25
    5  A    between atoms: C_5  and  C_33
    6  A    between atoms: C_6  and  C_18
    7  A    between atoms: O_7  and  C_29
    8  A    between atoms: C_12  and  C_26
    9  A    between atoms: O_21  and  C_27
                            x       y       z     vdW  Elec       q    Type
                         _______ _______ _______ _____ _____    ______ ____

>  <TORSDO>
F 9

$$$$
=
 OpenBabel11052410473D

 37 40  0  0  1  0  0  0  0  0999 V2000
  161.6120  205.9070  149.5490 C   0  0  0  0  0  3  0  0  0  0  0  0
  161.8380  208.5990  150.1190 C   0  0  0  0  0  0  0  0  0  0  0  0
  161.0220  205.3980  151.9650 C   0  0  0  0  0  0  0  0  0  0  0  0
  161.0430  205.8290  153.2360 C   0  0  0  0  0  3  0  0  0  0  0  0
  161.4720  207.5550  154.8350 C   0  0  0  0  0  0  0  0  0  0  0  0
  161.3560  206.3630  150.8700 C   0  0  0  0  0  0  0  0  0  0  0  0
  162.2120  206.2390  147.2100 C   0  0  0  0  0  1  0  0  0  0  0  0
  162.0770  208.0820  148.8180 C   0  0  0  0  0  0  0  0  0  0  0  0
  161.3160  207.2290  153.5820 C   0  0  0  0  0  0  0  0  0  0  0  0
  161.2050  208.3000  152.5380 C   0  0  1  0  0  3  0  0  0  0  0  0
  162.4040  209.0600  147.9610 N   0  0  0  0  0  0  0  0  0  0  0  0
  162.0280  209.9580  150.0440 C   0  0  0  0  0  3  0  0  0  0  0  0
  161.9610  206.7620  148.5420 N   0  0  0  0  0  0  0  0  0  0  0  0
  161.4810  207.7510  151.1630 C   0  0  0  0  0  0  0  0  0  0  0  0
  162.3750  210.1960  148.7070 C   0  0  0  0  0  3  0  0  0  0  0  0
  161.6300  207.8710  156.0880 C   0  0  0  0  0  3  0  0  0  0  0  0
  160.6810  203.4920  150.4460 C   0  0  0  0  0  3  0  0  0  0  0  0
  160.4250  203.0960  152.7450 O   0  0  0  0  0  1  0  0  0  0  0  0
  160.7010  203.9650  151.6950 C   0  0  0  0  0  0  0  0  0  0  0  0
  160.3670  202.0670  150.1240 C   0  0  0  0  0  2  0  0  0  0  0  0
  160.8300  201.9660  147.9750 C   0  0  0  0  0  1  0  0  0  0  0  0
  161.3010  201.5630  149.2210 O   0  0  0  0  0  0  0  0  0  0  0  0
  159.9240  208.8580  152.5720 O   0  0  0  0  0  0  0  0  0  0  0  0
  160.1290  210.1790  152.7740 N   0  0  0  0  0  1  0  0  0  0  0  0
  160.4860  208.4020  156.8740 C   0  0  0  0  0  2  0  0  0  0  0  0
  160.3480  209.8700  156.6410 C   0  0  0  0  0  0  0  0  0  0  0  0
  160.8890  211.9820  156.4450 N   0  0  0  0  0  0  0  0  0  0  0  0
  158.0120  209.9540  155.8380 O   0  0  0  0  0  1  0  0  0  0  0  0
  159.2370  210.5230  156.1610 C   0  0  0  0  0  0  0  0  0  0  0  0
  161.3300  210.7800  156.7910 N   0  0  0  0  0  0  0  0  0  0  0  0
  159.6040  211.8520  156.0540 C   0  0  0  0  0  0  0  0  0  0  0  0
  158.7750  212.9750  155.5890 C   0  0  0  0  0  0  0  0  0  0  0  0
  158.0420  213.5910  156.4080 O   0  0  0  0  0  0  0  0  0  0  0  0
  158.7830  213.4050  154.1630 C   0  0  0  0  0  1  0  0  0  0  0  0
  162.6860  210.5180  157.2570 C   0  0  0  0  0  2  0  0  0  0  0  0
  164.8960  211.6800  157.2570 C   0  0  0  0  0  1  0  0  0  0  0  0
  163.7010  211.2740  156.4170 C   0  0  0  0  0  2  0  0  0  0  0  0
  1  6  2  0  0  0  0
  2 14  2  0  0  0  0
  3  4  2  0  0  0  0
  4  9  1  0  0  0  0
  5 16  2  0  0  0  0
  6 14  1  0  0  0  0
  6  3  1  0  0  0  0
  7 13  1  0  0  0  0
  8  2  1  0  0  0  0
  9  5  2  0  0  0  0
 10 23  1  6  0  0  0
 10  9  1  0  0  0  0
 11 15  1  0  0  0  0
 11  8  2  0  0  0  0
 12  2  1  0  0  0  0
 13  8  1  0  0  0  0
 13  1  1  0  0  0  0
 14 10  1  0  0  0  0
 15 12  2  0  0  0  0
 16 25  1  0  0  0  0
 17 19  2  0  0  0  0
 19  3  1  0  0  0  0
 19 18  1  0  0  0  0
 20 17  1  0  0  0  0
 21 22  1  0  0  0  0
 22 20  1  0  0  0  0
 23 24  1  0  0  0  0
 26 30  1  0  0  0  0
 26 25  1  0  0  0  0
 27 30  1  0  0  0  0
 28 29  1  0  0  0  0
 29 26  2  0  0  0  0
 30 35  1  0  0  0  0
 31 29  1  0  0  0  0
 31 27  2  0  0  0  0
 32 31  1  0  0  0  0
 32 33  2  0  0  0  0
 34 32  1  0  0  0  0
 37 35  1  0  0  0  0
 37 36  1  0  0  0  0
M  END
>  <MODEL>
2

>  <REMARK>
 VINA RESULT:      -6.1      2.677      4.783
  Name = 
  9 active torsions:
  status: ('A' for Active; 'I' for Inactive)
    1  A    between atoms: C_3  and  C_27
    2  A    between atoms: C_4  and  C_13
    3  A    between atoms: C_4  and  C_37
    4  A    between atoms: C_5  and  N_25
    5  A    between atoms: C_5  and  C_33
    6  A    between atoms: C_6  and  C_18
    7  A    between atoms: O_7  and  C_29
    8  A    between atoms: C_12  and  C_26
    9  A    between atoms: O_21  and  C_27
                            x       y       z     vdW  Elec       q    Type
                         _______ _______ _______ _____ _____    ______ ____

>  <TORSDO>
F 9

$$$$
=
 OpenBabel11052410473D

 37 40  0  0  1  0  0  0  0  0999 V2000
  161.7840  210.3370  152.2670 C   0  0  0  0  0  3  0  0  0  0  0  0
  161.2650  207.6700  152.7570 C   0  0  0  0  0  0  0  0  0  0  0  0
  161.8540  209.9110  149.7660 C   0  0  0  0  0  0  0  0  0  0  0  0
  161.9810  208.9990  148.7890 C   0  0  0  0  0  3  0  0  0  0  0  0
  162.1470  206.7180  148.0910 C   0  0  0  0  0  0  0  0  0  0  0  0
  161.6560  209.4400  151.1730 C   0  0  0  0  0  0  0  0  0  0  0  0
  161.7950  210.8850  154.6420 C   0  0  0  0  0  1  0  0  0  0  0  0
  161.4010  208.6160  153.8080 C   0  0  0  0  0  0  0  0  0  0  0  0
  161.8650  207.5590  149.0460 C   0  0  0  0  0  0  0  0  0  0  0  0
  161.2300  207.0660  150.3130 C   0  0  1  0  0  3  0  0  0  0  0  0
  161.2380  208.0360  155.0050 N   0  0  0  0  0  0  0  0  0  0  0  0
  161.0040  206.4580  153.3500 C   0  0  0  0  0  3  0  0  0  0  0  0
  161.6520  209.9240  153.5630 N   0  0  0  0  0  0  0  0  0  0  0  0
  161.3960  208.0630  151.4290 C   0  0  0  0  0  0  0  0  0  0  0  0
  160.9980  206.7280  154.7250 C   0  0  0  0  0  3  0  0  0  0  0  0
  162.4350  205.8850  147.1310 C   0  0  0  0  0  3  0  0  0  0  0  0
  162.7560  211.7730  148.4330 C   0  0  0  0  0  3  0  0  0  0  0  0
  161.1940  212.3020  150.1020 O   0  0  0  0  0  1  0  0  0  0  0  0
  161.9510  211.3600  149.4150 C   0  0  0  0  0  0  0  0  0  0  0  0
  162.8880  213.2100  148.0430 C   0  0  0  0  0  2  0  0  0  0  0  0
  162.3290  213.3280  145.9180 C   0  0  0  0  0  1  0  0  0  0  0  0
  161.8420  213.5740  147.1980 O   0  0  0  0  0  0  0  0  0  0  0  0
  159.8700  206.8300  150.0940 O   0  0  0  0  0  0  0  0  0  0  0  0
  159.8060  206.3190  148.8430 N   0  0  0  0  0  1  0  0  0  0  0  0
  161.3540  205.3310  146.2740 C   0  0  0  0  0  2  0  0  0  0  0  0
  161.2630  203.8540  146.4630 C   0  0  0  0  0  0  0  0  0  0  0  0
  161.1930  201.9080  147.4650 N   0  0  0  0  0  0  0  0  0  0  0  0
  160.7210  203.1620  144.1540 O   0  0  0  0  0  1  0  0  0  0  0  0
  160.9600  202.9210  145.4990 C   0  0  0  0  0  0  0  0  0  0  0  0
  161.3860  203.2090  147.6390 N   0  0  0  0  0  0  0  0  0  0  0  0
  160.9300  201.7040  146.1570 C   0  0  0  0  0  0  0  0  0  0  0  0
  160.6530  200.3810  145.5770 C   0  0  0  0  0  0  0  0  0  0  0  0
  159.8030  200.2690  144.6540 O   0  0  0  0  0  0  0  0  0  0  0  0
  161.3590  199.1610  146.0590 C   0  0  0  0  0  1  0  0  0  0  0  0
  161.6830  203.8160  148.9310 C   0  0  0  0  0  2  0  0  0  0  0  0
  161.4150  203.4700  151.3890 C   0  0  0  0  0  1  0  0  0  0  0  0
  160.8110  203.2180  150.0220 C   0  0  0  0  0  2  0  0  0  0  0  0
  1 13  1  0  0  0  0
  2 12  1  0  0  0  0
  2  8  1  0  0  0  0
  3  6  1  0  0  0  0
  4  9  1  0  0  0  0
  4  3  2  0  0  0  0
  5  9  2  0  0  0  0
  6 14  1  0  0  0  0
  6  1  2  0  0  0  0
  8 11  2  0  0  0  0
  9 10  1  0  0  0  0
 10 23  1  6  0  0  0
 10 14  1  0  0  0  0
 12 15  2  0  0  0  0
 13  8  1  0  0  0  0
 13  7  1  0  0  0  0
 14  2  2  0  0  0  0
 15 11  1  0  0  0  0
 16  5  2  0  0  0  0
 17 19  2  0  0  0  0
 19  3  1  0  0  0  0
 19 18  1  0  0  0  0
 20 17  1  0  0  0  0
 21 22  1  0  0  0  0
 22 20  1  0  0  0  0
 24 23  1  0  0  0  0
 25 26  1  0  0  0  0
 25 16  1  0  0  0  0
 26 30  1  0  0  0  0
 27 30  1  0  0  0  0
 28 29  1  0  0  0  0
 29 31  1  0  0  0  0
 29 26  2  0  0  0  0
 30 35  1  0  0  0  0
 31 27  2  0  0  0  0
 32 34  1  0  0  0  0
 32 31  1  0  0  0  0
 33 32  2  0  0  0  0
 35 37  1  0  0  0  0
 37 36  1  0  0  0  0
M  END
>  <MODEL>
3

>  <REMARK>
 VINA RESULT:      -4.7      2.825      9.034
  Name = 
  9 active torsions:
  status: ('A' for Active; 'I' for Inactive)
    1  A    between atoms: C_3  and  C_27
    2  A    between atoms: C_4  and  C_13
    3  A    between atoms: C_4  and  C_37
    4  A    between atoms: C_5  and  N_25
    5  A    between atoms: C_5  and  C_33
    6  A    between atoms: C_6  and  C_18
    7  A    between atoms: O_7  and  C_29
    8  A    between atoms: C_12  and  C_26
    9  A    between atoms: O_21  and  C_27
                            x       y       z     vdW  Elec       q    Type
                         _______ _______ _______ _____ _____    ______ ____

>  <TORSDO>
F 9

$$$$
=
 OpenBabel11052410473D

 37 40  0  0  1  0  0  0  0  0999 V2000
  160.0250  212.4890  154.7310 C   0  0  0  0  0  3  0  0  0  0  0  0
  161.7520  210.4570  155.4460 C   0  0  0  0  0  0  0  0  0  0  0  0
  159.2660  211.1870  152.6880 C   0  0  0  0  0  0  0  0  0  0  0  0
  159.5380  210.1880  151.8340 C   0  0  0  0  0  3  0  0  0  0  0  0
  160.8870  208.3220  151.1850 C   0  0  0  0  0  0  0  0  0  0  0  0
  160.0850  211.3130  153.9360 C   0  0  0  0  0  0  0  0  0  0  0  0
  160.6920  213.8720  156.6240 C   0  0  0  0  0  1  0  0  0  0  0  0
  161.6440  211.6550  156.2020 C   0  0  0  0  0  0  0  0  0  0  0  0
  160.5640  209.1770  152.1150 C   0  0  0  0  0  0  0  0  0  0  0  0
  161.0780  208.9910  153.5120 C   0  0  1  0  0  3  0  0  0  0  0  0
  162.4660  211.6340  157.2610 N   0  0  0  0  0  0  0  0  0  0  0  0
  162.6840  209.6720  156.0830 C   0  0  0  0  0  3  0  0  0  0  0  0
  160.7940  212.6480  155.8490 N   0  0  0  0  0  0  0  0  0  0  0  0
  160.9820  210.2700  154.3020 C   0  0  0  0  0  0  0  0  0  0  0  0
  163.0950  210.4320  157.1860 C   0  0  0  0  0  3  0  0  0  0  0  0
  161.2060  207.4760  150.2480 C   0  0  0  0  0  3  0  0  0  0  0  0
  158.2500  212.8880  151.2280 C   0  0  0  0  0  3  0  0  0  0  0  0
  157.0780  212.3010  153.1750 O   0  0  0  0  0  1  0  0  0  0  0  0
  158.1830  212.1550  152.3430 C   0  0  0  0  0  0  0  0  0  0  0  0
  157.1930  213.8690  150.8380 C   0  0  0  0  0  2  0  0  0  0  0  0
  158.6380  213.8050  149.1790 C   0  0  0  0  0  1  0  0  0  0  0  0
  157.3620  214.2520  149.5090 O   0  0  0  0  0  0  0  0  0  0  0  0
  160.3450  207.9890  154.1530 O   0  0  0  0  0  0  0  0  0  0  0  0
  161.1700  206.9170  154.1710 N   0  0  0  0  0  1  0  0  0  0  0  0
  160.5750  206.1300  150.2120 C   0  0  0  0  0  2  0  0  0  0  0  0
  161.0800  205.3640  149.0350 C   0  0  0  0  0  0  0  0  0  0  0  0
  161.6670  203.6660  147.7830 N   0  0  0  0  0  0  0  0  0  0  0  0
  161.2620  207.1930  147.3830 O   0  0  0  0  0  1  0  0  0  0  0  0
  161.3570  205.8680  147.7860 C   0  0  0  0  0  0  0  0  0  0  0  0
  161.2670  204.0310  148.9940 N   0  0  0  0  0  0  0  0  0  0  0  0
  161.7310  204.7780  147.0200 C   0  0  0  0  0  0  0  0  0  0  0  0
  162.1310  204.7740  145.6050 C   0  0  0  0  0  0  0  0  0  0  0  0
  161.2820  205.0450  144.7150 O   0  0  0  0  0  0  0  0  0  0  0  0
  163.5280  204.4570  145.1960 C   0  0  0  0  0  1  0  0  0  0  0  0
  161.0680  203.0960  150.0960 C   0  0  0  0  0  2  0  0  0  0  0  0
  160.9600  200.6470  149.6220 C   0  0  0  0  0  1  0  0  0  0  0  0
  160.1750  201.9430  149.6690 C   0  0  0  0  0  2  0  0  0  0  0  0
  1 13  1  0  0  0  0
  2 12  1  0  0  0  0
  2  8  1  0  0  0  0
  3  6  1  0  0  0  0
  4  9  1  0  0  0  0
  4  3  2  0  0  0  0
  5  9  2  0  0  0  0
  6 14  1  0  0  0  0
  6  1  2  0  0  0  0
  8 11  2  0  0  0  0
  9 10  1  0  0  0  0
 10 23  1  1  0  0  0
 10 14  1  0  0  0  0
 12 15  2  0  0  0  0
 13  8  1  0  0  0  0
 13  7  1  0  0  0  0
 14  2  2  0  0  0  0
 15 11  1  0  0  0  0
 16  5  2  0  0  0  0
 17 19  2  0  0  0  0
 19  3  1  0  0  0  0
 19 18  1  0  0  0  0
 20 17  1  0  0  0  0
 21 22  1  0  0  0  0
 22 20  1  0  0  0  0
 23 24  1  0  0  0  0
 25 16  1  0  0  0  0
 26 25  1  0  0  0  0
 27 30  1  0  0  0  0
 28 29  1  0  0  0  0
 29 26  2  0  0  0  0
 30 26  1  0  0  0  0
 30 35  1  0  0  0  0
 31 27  2  0  0  0  0
 31 29  1  0  0  0  0
 32 31  1  0  0  0  0
 33 32  2  0  0  0  0
 34 32  1  0  0  0  0
 36 37  1  0  0  0  0
 37 35  1  0  0  0  0
M  END
>  <MODEL>
4

>  <REMARK>
 VINA RESULT:      -4.5      2.245      9.444
  Name = 
  9 active torsions:
  status: ('A' for Active; 'I' for Inactive)
    1  A    between atoms: C_3  and  C_27
    2  A    between atoms: C_4  and  C_13
    3  A    between atoms: C_4  and  C_37
    4  A    between atoms: C_5  and  N_25
    5  A    between atoms: C_5  and  C_33
    6  A    between atoms: C_6  and  C_18
    7  A    between atoms: O_7  and  C_29
    8  A    between atoms: C_12  and  C_26
    9  A    between atoms: O_21  and  C_27
                            x       y       z     vdW  Elec       q    Type
                         _______ _______ _______ _____ _____    ______ ____

>  <TORSDO>
F 9

$$$$
=
 OpenBabel11052410473D

 37 40  0  0  1  0  0  0  0  0999 V2000
  161.7140  210.3120  152.1500 C   0  0  0  0  0  3  0  0  0  0  0  0
  161.3150  207.6080  152.5360 C   0  0  0  0  0  0  0  0  0  0  0  0
  161.8730  209.9770  149.6380 C   0  0  0  0  0  0  0  0  0  0  0  0
  162.0720  209.1060  148.6360 C   0  0  0  0  0  3  0  0  0  0  0  0
  162.3700  206.8610  147.8680 C   0  0  0  0  0  0  0  0  0  0  0  0
  161.6600  209.4480  151.0230 C   0  0  0  0  0  0  0  0  0  0  0  0
  161.6330  210.7780  154.5410 C   0  0  0  0  0  1  0  0  0  0  0  0
  161.3750  208.5230  153.6210 C   0  0  0  0  0  0  0  0  0  0  0  0
  162.0200  207.6530  148.8420 C   0  0  0  0  0  0  0  0  0  0  0  0
  161.3760  207.0870  150.0730 C   0  0  1  0  0  3  0  0  0  0  0  0
  161.2090  207.8950  154.7930 N   0  0  0  0  0  0  0  0  0  0  0  0
  161.0980  206.3650  153.0810 C   0  0  0  0  0  3  0  0  0  0  0  0
  161.5680  209.8490  153.4270 N   0  0  0  0  0  0  0  0  0  0  0  0
  161.4620  208.0530  151.2250 C   0  0  0  0  0  0  0  0  0  0  0  0
  161.0420  206.5870  154.4640 C   0  0  0  0  0  3  0  0  0  0  0  0
  162.7240  206.0770  146.8910 C   0  0  0  0  0  3  0  0  0  0  0  0
  162.7060  211.9230  148.3830 C   0  0  0  0  0  3  0  0  0  0  0  0
  161.0980  212.3220  150.0450 O   0  0  0  0  0  1  0  0  0  0  0  0
  161.9070  211.4390  149.3380 C   0  0  0  0  0  0  0  0  0  0  0  0
  162.7760  213.3770  148.0450 C   0  0  0  0  0  2  0  0  0  0  0  0
  161.3520  213.4250  146.3670 C   0  0  0  0  0  1  0  0  0  0  0  0
  162.7050  213.5500  146.6640 O   0  0  0  0  0  0  0  0  0  0  0  0
  160.0360  206.7930  149.8070 O   0  0  0  0  0  0  0  0  0  0  0  0
  159.9430  205.4510  149.9510 N   0  0  0  0  0  1  0  0  0  0  0  0
  161.6960  205.5000  145.9850 C   0  0  0  0  0  2  0  0  0  0  0  0
  161.3370  204.1230  146.4350 C   0  0  0  0  0  0  0  0  0  0  0  0
  160.6180  202.0570  146.3620 N   0  0  0  0  0  0  0  0  0  0  0  0
  162.2700  204.1670  148.7230 O   0  0  0  0  0  1  0  0  0  0  0  0
  161.6260  203.5580  147.6550 C   0  0  0  0  0  0  0  0  0  0  0  0
  160.7390  203.1850  145.6760 N   0  0  0  0  0  0  0  0  0  0  0  0
  161.1560  202.2590  147.5830 C   0  0  0  0  0  0  0  0  0  0  0  0
  161.2150  201.2270  148.6290 C   0  0  0  0  0  0  0  0  0  0  0  0
  161.8710  200.1710  148.4290 O   0  0  0  0  0  0  0  0  0  0  0  0
  160.5130  201.4030  149.9320 C   0  0  0  0  0  1  0  0  0  0  0  0
  160.2810  203.3500  144.3010 C   0  0  0  0  0  2  0  0  0  0  0  0
  157.8640  203.9530  144.1360 C   0  0  0  0  0  1  0  0  0  0  0  0
  158.8680  202.8170  144.1350 C   0  0  0  0  0  2  0  0  0  0  0  0
  1 13  1  0  0  0  0
  2 12  1  0  0  0  0
  2  8  1  0  0  0  0
  3  6  1  0  0  0  0
  4  9  1  0  0  0  0
  4  3  2  0  0  0  0
  5  9  2  0  0  0  0
  6 14  1  0  0  0  0
  6  1  2  0  0  0  0
  8 11  2  0  0  0  0
  9 10  1  0  0  0  0
 10 23  1  6  0  0  0
 10 14  1  0  0  0  0
 12 15  2  0  0  0  0
 13  8  1  0  0  0  0
 13  7  1  0  0  0  0
 14  2  2  0  0  0  0
 15 11  1  0  0  0  0
 16  5  2  0  0  0  0
 17 19  2  0  0  0  0
 19  3  1  0  0  0  0
 19 18  1  0  0  0  0
 20 17  1  0  0  0  0
 21 22  1  0  0  0  0
 22 20  1  0  0  0  0
 23 24  1  0  0  0  0
 25 26  1  0  0  0  0
 25 16  1  0  0  0  0
 26 29  2  0  0  0  0
 27 31  2  0  0  0  0
 29 28  1  0  0  0  0
 30 27  1  0  0  0  0
 30 26  1  0  0  0  0
 31 29  1  0  0  0  0
 31 32  1  0  0  0  0
 32 34  1  0  0  0  0
 33 32  2  0  0  0  0
 35 30  1  0  0  0  0
 37 36  1  0  0  0  0
 37 35  1  0  0  0  0
M  END
>  <MODEL>
5

>  <REMARK>
 VINA RESULT:      -4.3      3.009      8.965
  Name = 
  9 active torsions:
  status: ('A' for Active; 'I' for Inactive)
    1  A    between atoms: C_3  and  C_27
    2  A    between atoms: C_4  and  C_13
    3  A    between atoms: C_4  and  C_37
    4  A    between atoms: C_5  and  N_25
    5  A    between atoms: C_5  and  C_33
    6  A    between atoms: C_6  and  C_18
    7  A    between atoms: O_7  and  C_29
    8  A    between atoms: C_12  and  C_26
    9  A    between atoms: O_21  and  C_27
                            x       y       z     vdW  Elec       q    Type
                         _______ _______ _______ _____ _____    ______ ____

>  <TORSDO>
F 9

$$$$
=
 OpenBabel11052410473D

 37 40  0  0  1  0  0  0  0  0999 V2000
  161.0030  203.0870  150.4170 C   0  0  0  0  0  3  0  0  0  0  0  0
  161.2060  203.6970  147.7330 C   0  0  0  0  0  0  0  0  0  0  0  0
  161.1640  205.5440  151.0350 C   0  0  0  0  0  0  0  0  0  0  0  0
  161.5200  206.7760  150.6390 C   0  0  0  0  0  3  0  0  0  0  0  0
  162.2750  208.2670  148.9290 C   0  0  0  0  0  0  0  0  0  0  0  0
  161.1070  204.4460  150.0180 C   0  0  0  0  0  0  0  0  0  0  0  0
  160.8850  200.6920  149.9770 C   0  0  0  0  0  1  0  0  0  0  0  0
  161.0950  202.3590  148.1940 C   0  0  0  0  0  0  0  0  0  0  0  0
  161.7890  207.0970  149.2320 C   0  0  0  0  0  0  0  0  0  0  0  0
  161.3140  206.1790  148.1440 C   0  0  1  0  0  3  0  0  0  0  0  0
  161.0990  201.4920  147.1710 N   0  0  0  0  0  0  0  0  0  0  0  0
  161.2770  203.6360  146.3610 C   0  0  0  0  0  3  0  0  0  0  0  0
  160.9930  202.0640  149.5120 N   0  0  0  0  0  0  0  0  0  0  0  0
  161.2200  204.7580  148.6330 C   0  0  0  0  0  0  0  0  0  0  0  0
  161.2100  202.2690  146.0620 C   0  0  0  0  0  3  0  0  0  0  0  0
  162.7650  209.4380  148.6360 C   0  0  0  0  0  3  0  0  0  0  0  0
  160.8310  206.3260  153.3450 C   0  0  0  0  0  3  0  0  0  0  0  0
  160.6350  204.0210  152.9510 O   0  0  0  0  0  1  0  0  0  0  0  0
  160.8740  205.3080  152.4810 C   0  0  0  0  0  0  0  0  0  0  0  0
  160.5440  206.1430  154.8000 C   0  0  0  0  0  2  0  0  0  0  0  0
  160.3750  207.1550  156.7470 C   0  0  0  0  0  1  0  0  0  0  0  0
  160.2190  207.3670  155.3810 O   0  0  0  0  0  0  0  0  0  0  0  0
  160.0620  206.6020  147.6880 O   0  0  0  0  0  0  0  0  0  0  0  0
  160.1620  206.5790  146.3390 N   0  0  0  0  0  1  0  0  0  0  0  0
  161.8620  210.5410  148.2150 C   0  0  0  0  0  2  0  0  0  0  0  0
  161.3750  211.2840  149.4150 C   0  0  0  0  0  0  0  0  0  0  0  0
  160.4540  212.8580  150.6270 N   0  0  0  0  0  0  0  0  0  0  0  0
  161.7430  209.5690  151.1550 O   0  0  0  0  0  1  0  0  0  0  0  0
  161.3200  210.8120  150.7050 C   0  0  0  0  0  0  0  0  0  0  0  0
  160.8340  212.5180  149.4020 N   0  0  0  0  0  0  0  0  0  0  0  0
  160.7420  211.8260  151.4480 C   0  0  0  0  0  0  0  0  0  0  0  0
  160.4580  211.8280  152.8910 C   0  0  0  0  0  0  0  0  0  0  0  0
  161.1890  211.1640  153.6720 O   0  0  0  0  0  0  0  0  0  0  0  0
  159.3170  212.6040  153.4550 C   0  0  0  0  0  1  0  0  0  0  0  0
  160.6720  213.3780  148.2360 C   0  0  0  0  0  2  0  0  0  0  0  0
  162.3330  213.8450  146.4310 C   0  0  0  0  0  1  0  0  0  0  0  0
  161.9800  214.0680  147.8880 C   0  0  0  0  0  2  0  0  0  0  0  0
  2  8  1  0  0  0  0
  2 14  2  0  0  0  0
  3 19  1  0  0  0  0
  4  3  2  0  0  0  0
  5  9  2  0  0  0  0
  6  1  2  0  0  0  0
  6  3  1  0  0  0  0
  8 13  1  0  0  0  0
  9  4  1  0  0  0  0
 10 23  1  1  0  0  0
 10 14  1  0  0  0  0
 10  9  1  0  0  0  0
 11  8  2  0  0  0  0
 12  2  1  0  0  0  0
 13  7  1  0  0  0  0
 13  1  1  0  0  0  0
 14  6  1  0  0  0  0
 15 12  2  0  0  0  0
 15 11  1  0  0  0  0
 16  5  2  0  0  0  0
 17 20  1  0  0  0  0
 19 18  1  0  0  0  0
 19 17  2  0  0  0  0
 20 22  1  0  0  0  0
 22 21  1  0  0  0  0
 24 23  1  0  0  0  0
 25 16  1  0  0  0  0
 25 26  1  0  0  0  0
 26 29  2  0  0  0  0
 27 31  2  0  0  0  0
 29 28  1  0  0  0  0
 29 31  1  0  0  0  0
 30 26  1  0  0  0  0
 30 27  1  0  0  0  0
 31 32  1  0  0  0  0
 32 34  1  0  0  0  0
 32 33  2  0  0  0  0
 35 30  1  0  0  0  0
 36 37  1  0  0  0  0
 37 35  1  0  0  0  0
M  END
>  <MODEL>
6

>  <REMARK>
 VINA RESULT:      -4.2      3.092      5.957
  Name = 
  9 active torsions:
  status: ('A' for Active; 'I' for Inactive)
    1  A    between atoms: C_3  and  C_27
    2  A    between atoms: C_4  and  C_13
    3  A    between atoms: C_4  and  C_37
    4  A    between atoms: C_5  and  N_25
    5  A    between atoms: C_5  and  C_33
    6  A    between atoms: C_6  and  C_18
    7  A    between atoms: O_7  and  C_29
    8  A    between atoms: C_12  and  C_26
    9  A    between atoms: O_21  and  C_27
                            x       y       z     vdW  Elec       q    Type
                         _______ _______ _______ _____ _____    ______ ____

>  <TORSDO>
F 9

$$$$
=
 OpenBabel11052410473D

 37 40  0  0  1  0  0  0  0  0999 V2000
  161.2540  203.6710  148.0060 C   0  0  0  0  0  3  0  0  0  0  0  0
  160.9570  203.2420  150.7160 C   0  0  0  0  0  0  0  0  0  0  0  0
  161.5540  206.1630  148.3870 C   0  0  0  0  0  0  0  0  0  0  0  0
  161.3810  207.1950  149.2280 C   0  0  0  0  0  3  0  0  0  0  0  0
  160.7630  208.0360  151.3790 C   0  0  0  0  0  0  0  0  0  0  0  0
  161.3500  204.7710  148.9000 C   0  0  0  0  0  0  0  0  0  0  0  0
  160.9350  201.3120  147.4850 C   0  0  0  0  0  1  0  0  0  0  0  0
  160.8750  202.1840  149.7740 C   0  0  0  0  0  0  0  0  0  0  0  0
  161.0670  207.0010  150.6480 C   0  0  0  0  0  0  0  0  0  0  0  0
  161.2990  205.6690  151.2980 C   0  0  1  0  0  3  0  0  0  0  0  0
  160.6500  201.0100  150.3810 N   0  0  0  0  0  0  0  0  0  0  0  0
  160.7760  202.6790  151.9580 C   0  0  0  0  0  3  0  0  0  0  0  0
  161.0250  202.3980  148.4450 N   0  0  0  0  0  0  0  0  0  0  0  0
  161.1890  204.5490  150.2970 C   0  0  0  0  0  0  0  0  0  0  0  0
  160.5890  201.3130  151.7040 C   0  0  0  0  0  3  0  0  0  0  0  0
  160.4560  209.0760  152.1010 C   0  0  0  0  0  3  0  0  0  0  0  0
  162.0420  205.4510  146.0820 C   0  0  0  0  0  3  0  0  0  0  0  0
  162.0910  207.7540  146.5300 O   0  0  0  0  0  1  0  0  0  0  0  0
  161.9070  206.4460  146.9630 C   0  0  0  0  0  0  0  0  0  0  0  0
  162.3930  205.6810  144.6480 C   0  0  0  0  0  2  0  0  0  0  0  0
  160.3770  204.7990  144.6780 C   0  0  0  0  0  1  0  0  0  0  0  0
  161.4290  205.1070  143.8220 O   0  0  0  0  0  0  0  0  0  0  0  0
  162.5660  205.6480  151.8870 O   0  0  0  0  0  0  0  0  0  0  0  0
  162.3370  205.8470  153.2050 N   0  0  0  0  0  1  0  0  0  0  0  0
  161.4980  209.7510  152.9190 C   0  0  0  0  0  2  0  0  0  0  0  0
  160.8870  210.8660  153.7010 C   0  0  0  0  0  0  0  0  0  0  0  0
  159.7670  212.6940  154.1460 N   0  0  0  0  0  0  0  0  0  0  0  0
  161.3230  210.0640  155.9970 O   0  0  0  0  0  1  0  0  0  0  0  0
  160.8110  210.9620  155.0700 C   0  0  0  0  0  0  0  0  0  0  0  0
  160.2370  211.9220  153.1750 N   0  0  0  0  0  0  0  0  0  0  0  0
  160.1060  212.1260  155.3220 C   0  0  0  0  0  0  0  0  0  0  0  0
  159.7520  212.6900  156.6340 C   0  0  0  0  0  0  0  0  0  0  0  0
  158.7540  212.2420  157.2570 O   0  0  0  0  0  0  0  0  0  0  0  0
  160.5520  213.7870  157.2470 C   0  0  0  0  0  1  0  0  0  0  0  0
  160.0550  212.2060  151.7560 C   0  0  0  0  0  2  0  0  0  0  0  0
  158.1750  213.7570  152.3000 C   0  0  0  0  0  1  0  0  0  0  0  0
  158.6100  212.5720  151.4600 C   0  0  0  0  0  2  0  0  0  0  0  0
  1 13  1  0  0  0  0
  1  6  2  0  0  0  0
  2 12  1  0  0  0  0
  3  6  1  0  0  0  0
  3  4  2  0  0  0  0
  4  9  1  0  0  0  0
  5 16  2  0  0  0  0
  6 14  1  0  0  0  0
  7 13  1  0  0  0  0
  8 11  2  0  0  0  0
  8  2  1  0  0  0  0
  9 10  1  0  0  0  0
  9  5  2  0  0  0  0
 10 23  1  6  0  0  0
 11 15  1  0  0  0  0
 13  8  1  0  0  0  0
 14  2  2  0  0  0  0
 14 10  1  0  0  0  0
 15 12  2  0  0  0  0
 16 25  1  0  0  0  0
 17 19  2  0  0  0  0
 18 19  1  0  0  0  0
 19  3  1  0  0  0  0
 20 17  1  0  0  0  0
 22 20  1  0  0  0  0
 22 21  1  0  0  0  0
 23 24  1  0  0  0  0
 25 26  1  0  0  0  0
 26 29  2  0  0  0  0
 27 31  2  0  0  0  0
 29 31  1  0  0  0  0
 29 28  1  0  0  0  0
 30 26  1  0  0  0  0
 30 27  1  0  0  0  0
 31 32  1  0  0  0  0
 32 34  1  0  0  0  0
 32 33  2  0  0  0  0
 35 30  1  0  0  0  0
 37 35  1  0  0  0  0
 37 36  1  0  0  0  0
M  END
>  <MODEL>
7

>  <REMARK>
 VINA RESULT:      -4.0      1.492      2.273
  Name = 
  9 active torsions:
  status: ('A' for Active; 'I' for Inactive)
    1  A    between atoms: C_3  and  C_27
    2  A    between atoms: C_4  and  C_13
    3  A    between atoms: C_4  and  C_37
    4  A    between atoms: C_5  and  N_25
    5  A    between atoms: C_5  and  C_33
    6  A    between atoms: C_6  and  C_18
    7  A    between atoms: O_7  and  C_29
    8  A    between atoms: C_12  and  C_26
    9  A    between atoms: O_21  and  C_27
                            x       y       z     vdW  Elec       q    Type
                         _______ _______ _______ _____ _____    ______ ____

>  <TORSDO>
F 9

$$$$
=
 OpenBabel11052410473D

 37 40  0  0  1  0  0  0  0  0999 V2000
  161.5390  210.4700  152.1970 C   0  0  0  0  0  3  0  0  0  0  0  0
  161.1990  207.8090  152.8460 C   0  0  0  0  0  0  0  0  0  0  0  0
  161.8320  209.8820  149.7450 C   0  0  0  0  0  0  0  0  0  0  0  0
  162.1060  208.9190  148.8500 C   0  0  0  0  0  3  0  0  0  0  0  0
  162.5060  206.6180  148.3370 C   0  0  0  0  0  0  0  0  0  0  0  0
  161.5660  209.4930  151.1660 C   0  0  0  0  0  0  0  0  0  0  0  0
  161.3250  211.1790  154.5190 C   0  0  0  0  0  1  0  0  0  0  0  0
  161.1780  208.8320  153.8300 C   0  0  0  0  0  0  0  0  0  0  0  0
  162.0860  207.4950  149.2050 C   0  0  0  0  0  0  0  0  0  0  0  0
  161.3980  207.0380  150.4570 C   0  0  1  0  0  3  0  0  0  0  0  0
  160.9720  208.3240  155.0530 N   0  0  0  0  0  0  0  0  0  0  0  0
  160.9910  206.6220  153.5080 C   0  0  0  0  0  3  0  0  0  0  0  0
  161.3420  210.1370  153.5070 N   0  0  0  0  0  0  0  0  0  0  0  0
  161.3990  208.1200  151.5040 C   0  0  0  0  0  0  0  0  0  0  0  0
  160.8590  206.9840  154.8550 C   0  0  0  0  0  3  0  0  0  0  0  0
  162.9320  205.7490  147.4650 C   0  0  0  0  0  3  0  0  0  0  0  0
  162.5880  211.6920  148.2580 C   0  0  0  0  0  3  0  0  0  0  0  0
  161.0560  212.2540  149.9450 O   0  0  0  0  0  1  0  0  0  0  0  0
  161.8390  211.3060  149.2950 C   0  0  0  0  0  0  0  0  0  0  0  0
  162.6290  213.1030  147.7690 C   0  0  0  0  0  2  0  0  0  0  0  0
  162.0970  213.2810  145.6400 C   0  0  0  0  0  1  0  0  0  0  0  0
  161.5520  213.3460  146.9190 O   0  0  0  0  0  0  0  0  0  0  0  0
  160.0810  206.6720  150.1620 O   0  0  0  0  0  0  0  0  0  0  0  0
  159.9810  205.3870  150.5700 N   0  0  0  0  0  1  0  0  0  0  0  0
  161.9660  205.0480  146.5780 C   0  0  0  0  0  2  0  0  0  0  0  0
  161.4750  203.8060  147.2440 C   0  0  0  0  0  0  0  0  0  0  0  0
  160.7110  201.7690  147.4920 N   0  0  0  0  0  0  0  0  0  0  0  0
  161.9320  204.3790  149.6030 O   0  0  0  0  0  1  0  0  0  0  0  0
  161.4930  203.5360  148.5920 C   0  0  0  0  0  0  0  0  0  0  0  0
  161.0080  202.7130  146.6090 N   0  0  0  0  0  0  0  0  0  0  0  0
  161.0010  202.2490  148.7200 C   0  0  0  0  0  0  0  0  0  0  0  0
  160.8120  201.4830  149.9610 C   0  0  0  0  0  0  0  0  0  0  0  0
  159.8530  200.6720  150.0550 O   0  0  0  0  0  0  0  0  0  0  0  0
  161.7360  201.6450  151.1190 C   0  0  0  0  0  1  0  0  0  0  0  0
  160.8410  202.5560  145.1690 C   0  0  0  0  0  2  0  0  0  0  0  0
  160.1000  200.2130  144.7230 C   0  0  0  0  0  1  0  0  0  0  0  0
  159.6570  201.6560  144.8580 C   0  0  0  0  0  2  0  0  0  0  0  0
  1 13  1  0  0  0  0
  2 12  1  0  0  0  0
  2  8  1  0  0  0  0
  3  6  1  0  0  0  0
  4  9  1  0  0  0  0
  4  3  2  0  0  0  0
  5  9  2  0  0  0  0
  6 14  1  0  0  0  0
  6  1  2  0  0  0  0
  8 11  2  0  0  0  0
  9 10  1  0  0  0  0
 10 23  1  6  0  0  0
 10 14  1  0  0  0  0
 12 15  2  0  0  0  0
 13  8  1  0  0  0  0
 13  7  1  0  0  0  0
 14  2  2  0  0  0  0
 15 11  1  0  0  0  0
 16  5  2  0  0  0  0
 17 19  2  0  0  0  0
 19  3  1  0  0  0  0
 19 18  1  0  0  0  0
 20 17  1  0  0  0  0
 21 22  1  0  0  0  0
 22 20  1  0  0  0  0
 23 24  1  0  0  0  0
 25 26  1  0  0  0  0
 25 16  1  0  0  0  0
 26 29  2  0  0  0  0
 27 31  2  0  0  0  0
 29 31  1  0  0  0  0
 29 28  1  0  0  0  0
 30 26  1  0  0  0  0
 30 27  1  0  0  0  0
 31 32  1  0  0  0  0
 32 33  2  0  0  0  0
 32 34  1  0  0  0  0
 35 30  1  0  0  0  0
 36 37  1  0  0  0  0
 37 35  1  0  0  0  0
M  END
>  <MODEL>
8

>  <REMARK>
 VINA RESULT:      -3.9      2.903      8.736
  Name = 
  9 active torsions:
  status: ('A' for Active; 'I' for Inactive)
    1  A    between atoms: C_3  and  C_27
    2  A    between atoms: C_4  and  C_13
    3  A    between atoms: C_4  and  C_37
    4  A    between atoms: C_5  and  N_25
    5  A    between atoms: C_5  and  C_33
    6  A    between atoms: C_6  and  C_18
    7  A    between atoms: O_7  and  C_29
    8  A    between atoms: C_12  and  C_26
    9  A    between atoms: O_21  and  C_27
                            x       y       z     vdW  Elec       q    Type
                         _______ _______ _______ _____ _____    ______ ____

>  <TORSDO>
F 9

$$$$
