=
 OpenBabel11042420483D

 48 52  0  0  1  0  0  0  0  0999 V2000
  160.5170  212.4410  151.8960 C   0  0  1  0  0  3  0  0  0  0  0  0
  161.3390  210.0390  151.5630 C   0  0  0  0  0  0  0  0  0  0  0  0
  160.7750  207.8340  153.1200 C   0  0  0  0  0  0  0  0  0  0  0  0
  161.4350  207.6730  151.9330 C   0  0  0  0  0  0  0  0  0  0  0  0
  160.3730  209.0810  153.5960 C   0  0  0  0  0  3  0  0  0  0  0  0
  161.7670  208.7640  151.1110 C   0  0  0  0  0  0  0  0  0  0  0  0
  160.6050  206.6630  153.6700 O   0  0  0  0  0  0  0  0  0  0  0  0
  161.1460  205.7950  152.8300 C   0  0  0  0  0  0  0  0  0  0  0  0
  160.6700  210.1870  152.7810 C   0  0  0  0  0  0  0  0  0  0  0  0
  161.6860  206.3680  151.7230 N   0  0  0  0  0  0  0  0  0  0  0  0
  160.2800  211.5680  153.1300 C   0  0  0  0  0  2  0  0  0  0  0  0
  161.5450  211.5590  150.6550 S   0  0  0  0  0  0  0  0  0  0  0  0
  159.2150  212.8890  151.3040 C   0  0  0  0  0  0  0  0  0  0  0  0
  159.2010  213.6440  150.0940 N   0  0  0  0  0  2  0  0  0  0  0  0
  158.1100  212.7140  151.9530 N   0  0  0  0  0  2  0  0  0  0  0  0
  160.3820  213.9130  149.3920 N   0  0  0  0  0  2  0  0  0  0  0  0
  158.6230  214.4510  147.8250 C   0  0  0  0  0  1  0  0  0  0  0  0
  160.0430  213.9520  147.9810 C   0  0  2  0  0  3  0  0  0  0  0  0
  160.1490  212.6110  147.4140 N   0  0  0  0  0  2  0  0  0  0  0  0
  162.0490  213.4360  146.1410 N   0  0  0  0  0  0  0  0  0  0  0  0
  162.7160  213.3580  144.8410 C   0  0  0  0  0  2  0  0  0  0  0  0
  161.8400  213.9630  143.7530 C   0  0  1  0  0  3  0  0  0  0  0  0
  162.5620  213.8860  142.4250 C   0  0  0  0  0  1  0  0  0  0  0  0
  159.8470  213.1770  145.0250 C   0  0  0  0  0  2  0  0  0  0  0  0
  160.5380  213.1810  143.6680 C   0  0  0  0  0  2  0  0  0  0  0  0
  162.8810  212.8260  147.0210 O   0  0  0  0  0  1  0  0  0  0  0  0
  160.8050  212.6500  146.0980 C   0  0  2  0  0  3  0  0  0  0  0  0
  161.8070  209.4030  148.7010 C   0  0  0  0  0  2  0  0  0  0  0  0
  162.4680  208.5750  149.7900 C   0  0  2  0  0  3  0  0  0  0  0  0
  161.5370  207.9220  148.7800 C   0  0  2  0  0  3  0  0  0  0  0  0
  162.3670  207.2210  147.7240 C   0  0  0  0  0  2  0  0  0  0  0  0
  160.4570  205.3520  148.0570 O   0  0  0  0  0  0  0  0  0  0  0  0
  162.4530  204.6950  146.7910 O   0  0  0  0  0  0  0  0  0  0  0  0
  161.4900  205.8160  147.0680 S   0  0  0  0  0  0  0  0  0  0  0  0
  160.6880  206.2850  145.5540 C   0  0  0  0  0  1  0  0  0  0  0  0
  161.1730  204.3280  153.0790 C   0  0  0  0  0  2  0  0  0  0  0  0
  162.4860  203.0070  151.6430 O   0  0  0  0  0  0  0  0  0  0  0  0
  161.4220  203.5820  151.8090 C   0  0  0  0  0  0  0  0  0  0  0  0
  160.3580  203.5190  150.7570 C   0  0  0  0  0  2  0  0  0  0  0  0
  160.8740  202.8310  149.5010 C   0  0  0  0  0  2  0  0  0  0  0  0
  159.0530  201.2990  149.6350 O   0  0  0  0  0  1  0  0  0  0  0  0
  160.4370  201.3700  149.4530 C   0  0  1  0  0  3  0  0  0  0  0  0
  162.1590  200.3220  148.1570 O   0  0  0  0  0  1  0  0  0  0  0  0
  160.8240  200.7430  148.1180 C   0  0  2  0  0  3  0  0  0  0  0  0
  160.5610  201.1940  145.9280 O   0  0  0  0  0  0  0  0  0  0  0  0
  160.6450  201.7390  147.0120 C   0  0  0  0  0  2  0  0  0  0  0  0
  160.5130  201.6870  145.4570 C   0  0  0  0  0  2  0  0  0  0  0  0
  160.5400  203.0440  144.8280 O   0  0  0  0  0  1  0  0  0  0  0  0
  1 13  1  6  0  0  0
  1 11  1  0  0  0  0
  2  9  1  0  0  0  0
  3  5  1  0  0  0  0
  3  7  1  0  0  0  0
  4  3  2  0  0  0  0
  6  2  2  0  0  0  0
  6  4  1  0  0  0  0
  8 36  1  0  0  0  0
  8  7  1  0  0  0  0
  9 11  1  0  0  0  0
  9  5  2  0  0  0  0
 10  4  1  0  0  0  0
 10  8  2  0  0  0  0
 12  2  1  0  0  0  0
 12  1  1  0  0  0  0
 13 15  2  0  0  0  0
 14 13  1  0  0  0  0
 16 14  1  0  0  0  0
 18 17  1  1  0  0  0
 18 16  1  0  0  0  0
 19 18  1  0  0  0  0
 20 26  1  0  0  0  0
 21 20  1  0  0  0  0
 22 23  1  6  0  0  0
 22 21  1  0  0  0  0
 24 27  1  0  0  0  0
 25 22  1  0  0  0  0
 25 24  1  0  0  0  0
 27 20  1  0  0  0  0
 27 19  1  1  0  0  0
 28 30  1  0  0  0  0
 28 29  1  0  0  0  0
 29  6  1  1  0  0  0
 30 31  1  6  0  0  0
 30 29  1  0  0  0  0
 33 34  2  0  0  0  0
 34 31  1  0  0  0  0
 34 32  2  0  0  0  0
 35 34  1  0  0  0  0
 37 38  2  0  0  0  0
 38 36  1  0  0  0  0
 39 38  1  0  0  0  0
 40 39  1  0  0  0  0
 42 40  1  0  0  0  0
 42 41  1  6  0  0  0
 44 43  1  1  0  0  0
 44 42  1  0  0  0  0
 45 46  1  0  0  0  0
 46 44  1  0  0  0  0
 47 45  1  0  0  0  0
 48 47  1  0  0  0  0
M  END
>  <MODEL>
1

>  <REMARK>
 VINA RESULT:      -7.0      0.000      0.000
  Name = 
  16 active torsions:
  status: ('A' for Active; 'I' for Inactive)
    1  A    between atoms: C_3  and  C_24
    2  A    between atoms: C_10  and  C_19
    3  A    between atoms: C_10  and  C_46
    4  A    between atoms: C_13  and  C_34
    5  A    between atoms: C_14  and  C_43
    6  A    between atoms: C_18  and  C_34
    7  A    between atoms: C_18  and  C_44
    8  A    between atoms: S_22  and  C_28
    9  A    between atoms: C_28  and  C_47
   10  A    between atoms: N_29  and  N_30
   11  A    between atoms: N_29  and  C_33
   12  A    between atoms: C_33  and  N_45
   13  A    between atoms: C_36  and  C_37
   14  A    between atoms: C_36  and  C_46
   15  A    between atoms: C_37  and  C_44
   16  A    between atoms: C_42  and  N_45
                            x       y       z     vdW  Elec       q    Type
                         _______ _______ _______ _____ _____    ______ ____

>  <TORSDO>
F 16

$$$$
=
 OpenBabel11042420483D

 48 52  0  0  1  0  0  0  0  0999 V2000
  160.8860  209.6420  154.6210 C   0  0  1  0  0  3  0  0  0  0  0  0
  161.0490  207.9850  152.6760 C   0  0  0  0  0  0  0  0  0  0  0  0
  161.1870  205.2340  152.8140 C   0  0  0  0  0  0  0  0  0  0  0  0
  161.0270  205.8440  151.6000 C   0  0  0  0  0  0  0  0  0  0  0  0
  161.2950  205.9470  154.0060 C   0  0  0  0  0  3  0  0  0  0  0  0
  160.9730  207.2420  151.4700 C   0  0  0  0  0  0  0  0  0  0  0  0
  161.2080  203.9410  152.6360 O   0  0  0  0  0  0  0  0  0  0  0  0
  161.0560  203.7600  151.3340 C   0  0  0  0  0  0  0  0  0  0  0  0
  161.2180  207.3470  153.9080 C   0  0  0  0  0  0  0  0  0  0  0  0
  160.9400  204.9150  150.6300 N   0  0  0  0  0  0  0  0  0  0  0  0
  161.2800  208.2370  155.0850 C   0  0  0  0  0  2  0  0  0  0  0  0
  160.9010  209.7580  152.7890 S   0  0  0  0  0  0  0  0  0  0  0  0
  159.5510  210.0300  155.1820 C   0  0  0  0  0  0  0  0  0  0  0  0
  159.3530  211.3370  155.7190 N   0  0  0  0  0  2  0  0  0  0  0  0
  158.6150  209.1470  155.3040 N   0  0  0  0  0  2  0  0  0  0  0  0
  160.3640  212.3050  155.6660 N   0  0  0  0  0  2  0  0  0  0  0  0
  159.9210  214.4500  156.6870 C   0  0  0  0  0  1  0  0  0  0  0  0
  159.7160  213.5880  155.4610 C   0  0  2  0  0  3  0  0  0  0  0  0
  158.2860  213.3860  155.2450 N   0  0  0  0  0  2  0  0  0  0  0  0
  156.5330  213.4630  153.5620 N   0  0  0  0  0  0  0  0  0  0  0  0
  156.1220  214.1200  152.3210 C   0  0  0  0  0  2  0  0  0  0  0  0
  157.0700  213.7590  151.1860 C   0  0  1  0  0  3  0  0  0  0  0  0
  156.6110  214.4360  149.9130 C   0  0  0  0  0  1  0  0  0  0  0  0
  158.9080  213.6290  152.8630 C   0  0  0  0  0  2  0  0  0  0  0  0
  158.4720  214.2360  151.5360 C   0  0  0  0  0  2  0  0  0  0  0  0
  155.6640  213.8900  154.5120 O   0  0  0  0  0  1  0  0  0  0  0  0
  157.8710  213.9390  153.9460 C   0  0  2  0  0  3  0  0  0  0  0  0
  161.6620  207.2850  149.0740 C   0  0  0  0  0  2  0  0  0  0  0  0
  160.7660  207.9060  150.1320 C   0  0  2  0  0  3  0  0  0  0  0  0
  162.0370  208.6110  149.6840 C   0  0  2  0  0  3  0  0  0  0  0  0
  161.6720  209.7130  148.7090 C   0  0  0  0  0  2  0  0  0  0  0  0
  163.0900  211.1060  150.5270 O   0  0  0  0  0  0  0  0  0  0  0  0
  161.0120  212.1250  149.7120 O   0  0  0  0  0  0  0  0  0  0  0  0
  162.2060  211.2970  149.3250 S   0  0  0  0  0  0  0  0  0  0  0  0
  163.1150  212.1390  148.0530 C   0  0  0  0  0  1  0  0  0  0  0  0
  161.0270  202.4150  150.6970 C   0  0  0  0  0  2  0  0  0  0  0  0
  161.5790  203.4670  148.6670 O   0  0  0  0  0  0  0  0  0  0  0  0
  161.0030  202.5370  149.2080 C   0  0  0  0  0  0  0  0  0  0  0  0
  160.2950  201.5050  148.3860 C   0  0  0  0  0  2  0  0  0  0  0  0
  161.2820  200.5050  147.7990 C   0  0  0  0  0  2  0  0  0  0  0  0
  160.8960  199.4130  145.7160 O   0  0  0  0  0  1  0  0  0  0  0  0
  161.3400  200.6140  146.2780 C   0  0  1  0  0  3  0  0  0  0  0  0
  159.6650  201.3510  144.7310 O   0  0  0  0  0  1  0  0  0  0  0  0
  160.4730  201.7720  145.7950 C   0  0  2  0  0  3  0  0  0  0  0  0
  160.7430  203.9680  145.3810 O   0  0  0  0  0  0  0  0  0  0  0  0
  161.3400  202.9090  145.3460 C   0  0  0  0  0  2  0  0  0  0  0  0
  161.1660  204.4470  145.1390 C   0  0  0  0  0  2  0  0  0  0  0  0
  162.3860  205.2240  145.5200 O   0  0  0  0  0  1  0  0  0  0  0  0
  1 11  1  0  0  0  0
  1 13  1  6  0  0  0
  2 12  1  0  0  0  0
  2  9  1  0  0  0  0
  3  5  1  0  0  0  0
  4  3  2  0  0  0  0
  6  4  1  0  0  0  0
  6  2  2  0  0  0  0
  7  3  1  0  0  0  0
  8  7  1  0  0  0  0
  9  5  2  0  0  0  0
  9 11  1  0  0  0  0
 10  8  2  0  0  0  0
 10  4  1  0  0  0  0
 12  1  1  0  0  0  0
 13 15  2  0  0  0  0
 13 14  1  0  0  0  0
 16 14  1  0  0  0  0
 18 16  1  0  0  0  0
 18 17  1  1  0  0  0
 19 18  1  0  0  0  0
 20 27  1  0  0  0  0
 20 26  1  0  0  0  0
 21 20  1  0  0  0  0
 22 23  1  6  0  0  0
 22 25  1  0  0  0  0
 22 21  1  0  0  0  0
 24 27  1  0  0  0  0
 25 24  1  0  0  0  0
 27 19  1  1  0  0  0
 28 30  1  0  0  0  0
 28 29  1  0  0  0  0
 29  6  1  1  0  0  0
 30 31  1  6  0  0  0
 30 29  1  0  0  0  0
 31 34  1  0  0  0  0
 34 33  2  0  0  0  0
 34 32  2  0  0  0  0
 35 34  1  0  0  0  0
 36  8  1  0  0  0  0
 37 38  2  0  0  0  0
 38 36  1  0  0  0  0
 39 38  1  0  0  0  0
 40 39  1  0  0  0  0
 42 41  1  6  0  0  0
 42 40  1  0  0  0  0
 44 43  1  6  0  0  0
 44 42  1  0  0  0  0
 46 45  1  0  0  0  0
 46 44  1  0  0  0  0
 47 45  1  0  0  0  0
 47 48  1  0  0  0  0
M  END
>  <MODEL>
2

>  <REMARK>
 VINA RESULT:      -6.7      3.161      5.474
  Name = 
  16 active torsions:
  status: ('A' for Active; 'I' for Inactive)
    1  A    between atoms: C_3  and  C_24
    2  A    between atoms: C_10  and  C_19
    3  A    between atoms: C_10  and  C_46
    4  A    between atoms: C_13  and  C_34
    5  A    between atoms: C_14  and  C_43
    6  A    between atoms: C_18  and  C_34
    7  A    between atoms: C_18  and  C_44
    8  A    between atoms: S_22  and  C_28
    9  A    between atoms: C_28  and  C_47
   10  A    between atoms: N_29  and  N_30
   11  A    between atoms: N_29  and  C_33
   12  A    between atoms: C_33  and  N_45
   13  A    between atoms: C_36  and  C_37
   14  A    between atoms: C_36  and  C_46
   15  A    between atoms: C_37  and  C_44
   16  A    between atoms: C_42  and  N_45
                            x       y       z     vdW  Elec       q    Type
                         _______ _______ _______ _____ _____    ______ ____

>  <TORSDO>
F 16

$$$$
=
 OpenBabel11042420483D

 48 52  0  0  1  0  0  0  0  0999 V2000
  158.7750  214.1330  152.5560 C   0  0  1  0  0  3  0  0  0  0  0  0
  160.3320  212.7750  151.0430 C   0  0  0  0  0  0  0  0  0  0  0  0
  161.0240  210.1170  151.2910 C   0  0  0  0  0  0  0  0  0  0  0  0
  161.3920  210.8110  150.1710 C   0  0  0  0  0  0  0  0  0  0  0  0
  160.3100  210.6990  152.3370 C   0  0  0  0  0  3  0  0  0  0  0  0
  161.0850  212.1720  150.0030 C   0  0  0  0  0  0  0  0  0  0  0  0
  161.4410  208.8850  151.1800 O   0  0  0  0  0  0  0  0  0  0  0  0
  162.0500  208.8220  150.0070 C   0  0  0  0  0  0  0  0  0  0  0  0
  159.9670  212.0530  152.1830 C   0  0  0  0  0  0  0  0  0  0  0  0
  162.0550  209.9990  149.3280 N   0  0  0  0  0  0  0  0  0  0  0  0
  159.1840  212.8010  153.1880 C   0  0  0  0  0  2  0  0  0  0  0  0
  159.7310  214.4530  151.0200 S   0  0  0  0  0  0  0  0  0  0  0  0
  157.2990  214.1670  152.2960 C   0  0  0  0  0  0  0  0  0  0  0  0
  156.3800  214.1250  153.3860 N   0  0  0  0  0  2  0  0  0  0  0  0
  156.8490  214.1000  151.0860 N   0  0  0  0  0  2  0  0  0  0  0  0
  156.8250  214.1300  154.7130 N   0  0  0  0  0  2  0  0  0  0  0  0
  155.4360  212.1690  154.9640 C   0  0  0  0  0  1  0  0  0  0  0  0
  156.8160  212.7540  155.1730 C   0  0  2  0  0  3  0  0  0  0  0  0
  157.1490  212.7090  156.5950 N   0  0  0  0  0  2  0  0  0  0  0  0
  159.5580  212.9970  156.4470 N   0  0  0  0  0  0  0  0  0  0  0  0
  160.8390  212.3680  156.7710 C   0  0  0  0  0  2  0  0  0  0  0  0
  161.0320  211.0960  155.9570 C   0  0  1  0  0  3  0  0  0  0  0  0
  162.3710  210.4790  156.2970 C   0  0  0  0  0  1  0  0  0  0  0  0
  158.5650  210.7590  156.0380 C   0  0  0  0  0  2  0  0  0  0  0  0
  159.9210  210.1140  156.2940 C   0  0  0  0  0  2  0  0  0  0  0  0
  159.4620  214.0790  157.2590 O   0  0  0  0  0  1  0  0  0  0  0  0
  158.4620  212.0820  156.8040 C   0  0  2  0  0  3  0  0  0  0  0  0
  160.3760  213.8950  148.3470 C   0  0  0  0  0  2  0  0  0  0  0  0
  161.4690  212.9220  148.7530 C   0  0  2  0  0  3  0  0  0  0  0  0
  160.5170  212.5850  147.6160 C   0  0  2  0  0  3  0  0  0  0  0  0
  161.2160  212.8400  146.2950 C   0  0  0  0  0  2  0  0  0  0  0  0
  158.8270  213.8260  145.5370 O   0  0  0  0  0  0  0  0  0  0  0  0
  159.5890  211.7730  144.4300 O   0  0  0  0  0  0  0  0  0  0  0  0
  160.0250  213.0970  144.9950 S   0  0  0  0  0  0  0  0  0  0  0  0
  160.7710  214.0650  143.7070 C   0  0  0  0  0  1  0  0  0  0  0  0
  162.6830  207.5810  149.4840 C   0  0  0  0  0  2  0  0  0  0  0  0
  161.6830  205.9240  150.8210 O   0  0  0  0  0  0  0  0  0  0  0  0
  161.7920  206.4020  149.7030 C   0  0  0  0  0  0  0  0  0  0  0  0
  161.0190  205.8270  148.5570 C   0  0  0  0  0  2  0  0  0  0  0  0
  161.1640  206.6920  147.3130 C   0  0  0  0  0  2  0  0  0  0  0  0
  162.8910  205.0810  146.9910 O   0  0  0  0  0  1  0  0  0  0  0  0
  162.1860  206.1020  146.3460 C   0  0  1  0  0  3  0  0  0  0  0  0
  160.1120  205.7980  145.1830 O   0  0  0  0  0  1  0  0  0  0  0  0
  161.4890  205.5560  145.1040 C   0  0  2  0  0  3  0  0  0  0  0  0
  160.7920  203.4380  145.4100 O   0  0  0  0  0  0  0  0  0  0  0  0
  161.7330  204.0820  144.9860 C   0  0  0  0  0  2  0  0  0  0  0  0
  160.9620  202.7770  145.3650 C   0  0  0  0  0  2  0  0  0  0  0  0
  160.9100  202.5440  146.8420 O   0  0  0  0  0  1  0  0  0  0  0  0
  1 13  1  6  0  0  0
  1 11  1  0  0  0  0
  2  9  1  0  0  0  0
  3  5  1  0  0  0  0
  4  3  2  0  0  0  0
  6  4  1  0  0  0  0
  6  2  2  0  0  0  0
  7  3  1  0  0  0  0
  8  7  1  0  0  0  0
  9  5  2  0  0  0  0
  9 11  1  0  0  0  0
 10  8  2  0  0  0  0
 10  4  1  0  0  0  0
 12  2  1  0  0  0  0
 12  1  1  0  0  0  0
 13 14  1  0  0  0  0
 14 16  1  0  0  0  0
 15 13  2  0  0  0  0
 16 18  1  0  0  0  0
 18 17  1  1  0  0  0
 18 19  1  0  0  0  0
 20 21  1  0  0  0  0
 20 27  1  0  0  0  0
 20 26  1  0  0  0  0
 22 25  1  0  0  0  0
 22 23  1  1  0  0  0
 22 21  1  0  0  0  0
 24 25  1  0  0  0  0
 24 27  1  0  0  0  0
 27 19  1  6  0  0  0
 28 29  1  0  0  0  0
 29  6  1  1  0  0  0
 30 31  1  6  0  0  0
 30 28  1  0  0  0  0
 30 29  1  0  0  0  0
 33 34  2  0  0  0  0
 34 32  2  0  0  0  0
 34 31  1  0  0  0  0
 35 34  1  0  0  0  0
 36 38  1  0  0  0  0
 36  8  1  0  0  0  0
 38 37  2  0  0  0  0
 39 38  1  0  0  0  0
 40 39  1  0  0  0  0
 42 41  1  1  0  0  0
 42 40  1  0  0  0  0
 44 43  1  1  0  0  0
 44 42  1  0  0  0  0
 46 44  1  0  0  0  0
 46 45  1  0  0  0  0
 47 45  1  0  0  0  0
 47 48  1  0  0  0  0
M  END
>  <MODEL>
3

>  <REMARK>
 VINA RESULT:      -6.0      3.029      6.757
  Name = 
  16 active torsions:
  status: ('A' for Active; 'I' for Inactive)
    1  A    between atoms: C_3  and  C_24
    2  A    between atoms: C_10  and  C_19
    3  A    between atoms: C_10  and  C_46
    4  A    between atoms: C_13  and  C_34
    5  A    between atoms: C_14  and  C_43
    6  A    between atoms: C_18  and  C_34
    7  A    between atoms: C_18  and  C_44
    8  A    between atoms: S_22  and  C_28
    9  A    between atoms: C_28  and  C_47
   10  A    between atoms: N_29  and  N_30
   11  A    between atoms: N_29  and  C_33
   12  A    between atoms: C_33  and  N_45
   13  A    between atoms: C_36  and  C_37
   14  A    between atoms: C_36  and  C_46
   15  A    between atoms: C_37  and  C_44
   16  A    between atoms: C_42  and  N_45
                            x       y       z     vdW  Elec       q    Type
                         _______ _______ _______ _____ _____    ______ ____

>  <TORSDO>
F 16

$$$$
=
 OpenBabel11042420483D

 48 52  0  0  1  0  0  0  0  0999 V2000
  160.3060  203.2550  151.0280 C   0  0  1  0  0  3  0  0  0  0  0  0
  160.7110  205.7830  151.0310 C   0  0  0  0  0  0  0  0  0  0  0  0
  161.2930  207.3930  153.1930 C   0  0  0  0  0  0  0  0  0  0  0  0
  161.3650  207.9070  151.9270 C   0  0  0  0  0  0  0  0  0  0  0  0
  160.9250  206.0740  153.4500 C   0  0  0  0  0  3  0  0  0  0  0  0
  161.0580  207.1380  150.7920 C   0  0  0  0  0  0  0  0  0  0  0  0
  161.6240  208.3240  154.0450 O   0  0  0  0  0  0  0  0  0  0  0  0
  161.9030  209.3910  153.3140 C   0  0  0  0  0  0  0  0  0  0  0  0
  160.6370  205.2740  152.3310 C   0  0  0  0  0  0  0  0  0  0  0  0
  161.7560  209.1940  151.9780 N   0  0  0  0  0  0  0  0  0  0  0  0
  160.2660  203.8490  152.4380 C   0  0  0  0  0  2  0  0  0  0  0  0
  160.3810  204.5790  149.7580 S   0  0  0  0  0  0  0  0  0  0  0  0
  161.4530  202.3000  150.8870 C   0  0  0  0  0  0  0  0  0  0  0  0
  161.4010  201.2570  149.9140 N   0  0  0  0  0  2  0  0  0  0  0  0
  162.4330  202.3290  151.7300 N   0  0  0  0  0  2  0  0  0  0  0  0
  160.3260  201.1480  149.0230 N   0  0  0  0  0  2  0  0  0  0  0  0
  161.6030  200.2210  147.1920 C   0  0  0  0  0  1  0  0  0  0  0  0
  160.8420  201.4280  147.6950 C   0  0  2  0  0  3  0  0  0  0  0  0
  161.7410  202.5780  147.7510 N   0  0  0  0  0  2  0  0  0  0  0  0
  162.2980  204.6330  146.5770 N   0  0  0  0  0  0  0  0  0  0  0  0
  162.4490  205.2230  145.2470 C   0  0  0  0  0  2  0  0  0  0  0  0
  161.1040  205.2880  144.5360 C   0  0  1  0  0  3  0  0  0  0  0  0
  161.2870  205.9200  143.1730 C   0  0  0  0  0  1  0  0  0  0  0  0
  160.4540  203.2020  145.7320 C   0  0  0  0  0  2  0  0  0  0  0  0
  160.5570  203.8790  144.3720 C   0  0  0  0  0  2  0  0  0  0  0  0
  163.5490  204.5710  147.0980 O   0  0  0  0  0  1  0  0  0  0  0  0
  161.8100  203.2510  146.4450 C   0  0  2  0  0  3  0  0  0  0  0  0
  162.6020  207.6370  148.8990 C   0  0  0  0  0  2  0  0  0  0  0  0
  161.1690  207.7030  149.3980 C   0  0  2  0  0  3  0  0  0  0  0  0
  162.0440  208.9470  149.3950 C   0  0  2  0  0  3  0  0  0  0  0  0
  161.6810  209.8030  148.1990 C   0  0  0  0  0  2  0  0  0  0  0  0
  163.3740  211.8970  148.2620 O   0  0  0  0  0  0  0  0  0  0  0  0
  161.6520  211.8000  150.0080 O   0  0  0  0  0  0  0  0  0  0  0  0
  161.9460  211.5280  148.5590 S   0  0  0  0  0  0  0  0  0  0  0  0
  160.8620  212.5060  147.5480 C   0  0  0  0  0  1  0  0  0  0  0  0
  162.3260  210.6920  153.8990 C   0  0  0  0  0  2  0  0  0  0  0  0
  162.8490  210.5850  156.1900 O   0  0  0  0  0  0  0  0  0  0  0  0
  161.9790  210.7550  155.3510 C   0  0  0  0  0  0  0  0  0  0  0  0
  160.5720  211.0510  155.7710 C   0  0  0  0  0  2  0  0  0  0  0  0
  160.0530  212.3080  155.0870 C   0  0  0  0  0  2  0  0  0  0  0  0
  157.8610  213.2370  155.2060 O   0  0  0  0  0  1  0  0  0  0  0  0
  158.5870  212.1570  154.6940 C   0  0  1  0  0  3  0  0  0  0  0  0
  158.8170  210.8370  152.7070 O   0  0  0  0  0  1  0  0  0  0  0  0
  158.4470  212.1040  153.1760 C   0  0  2  0  0  3  0  0  0  0  0  0
  158.6570  214.0030  151.9870 O   0  0  0  0  0  0  0  0  0  0  0  0
  159.3170  213.1460  152.5430 C   0  0  0  0  0  2  0  0  0  0  0  0
  159.0950  214.4350  151.6890 C   0  0  0  0  0  2  0  0  0  0  0  0
  159.4730  214.2500  150.2530 O   0  0  0  0  0  1  0  0  0  0  0  0
  1 13  1  1  0  0  0
  1 11  1  0  0  0  0
  2  9  1  0  0  0  0
  3  5  1  0  0  0  0
  3  7  1  0  0  0  0
  4 10  1  0  0  0  0
  4  3  2  0  0  0  0
  6  2  2  0  0  0  0
  6  4  1  0  0  0  0
  8 36  1  0  0  0  0
  8  7  1  0  0  0  0
  9 11  1  0  0  0  0
  9  5  2  0  0  0  0
 10  8  2  0  0  0  0
 12  1  1  0  0  0  0
 12  2  1  0  0  0  0
 13 15  2  0  0  0  0
 14 13  1  0  0  0  0
 16 14  1  0  0  0  0
 18 17  1  1  0  0  0
 18 19  1  0  0  0  0
 18 16  1  0  0  0  0
 20 26  1  0  0  0  0
 21 20  1  0  0  0  0
 22 23  1  6  0  0  0
 22 21  1  0  0  0  0
 24 27  1  0  0  0  0
 25 22  1  0  0  0  0
 25 24  1  0  0  0  0
 27 20  1  0  0  0  0
 27 19  1  1  0  0  0
 28 30  1  0  0  0  0
 28 29  1  0  0  0  0
 29  6  1  1  0  0  0
 30 31  1  6  0  0  0
 30 29  1  0  0  0  0
 31 34  1  0  0  0  0
 32 34  2  0  0  0  0
 34 33  2  0  0  0  0
 35 34  1  0  0  0  0
 36 38  1  0  0  0  0
 38 39  1  0  0  0  0
 38 37  2  0  0  0  0
 40 39  1  0  0  0  0
 42 40  1  0  0  0  0
 42 41  1  6  0  0  0
 44 43  1  6  0  0  0
 44 42  1  0  0  0  0
 45 46  1  0  0  0  0
 46 44  1  0  0  0  0
 47 45  1  0  0  0  0
 48 47  1  0  0  0  0
M  END
>  <MODEL>
4

>  <REMARK>
 VINA RESULT:      -5.8      3.131      9.007
  Name = 
  16 active torsions:
  status: ('A' for Active; 'I' for Inactive)
    1  A    between atoms: C_3  and  C_24
    2  A    between atoms: C_10  and  C_19
    3  A    between atoms: C_10  and  C_46
    4  A    between atoms: C_13  and  C_34
    5  A    between atoms: C_14  and  C_43
    6  A    between atoms: C_18  and  C_34
    7  A    between atoms: C_18  and  C_44
    8  A    between atoms: S_22  and  C_28
    9  A    between atoms: C_28  and  C_47
   10  A    between atoms: N_29  and  N_30
   11  A    between atoms: N_29  and  C_33
   12  A    between atoms: C_33  and  N_45
   13  A    between atoms: C_36  and  C_37
   14  A    between atoms: C_36  and  C_46
   15  A    between atoms: C_37  and  C_44
   16  A    between atoms: C_42  and  N_45
                            x       y       z     vdW  Elec       q    Type
                         _______ _______ _______ _____ _____    ______ ____

>  <TORSDO>
F 16

$$$$
=
 OpenBabel11042420483D

 48 52  0  0  1  0  0  0  0  0999 V2000
  161.9720  207.0370  153.7140 C   0  0  1  0  0  3  0  0  0  0  0  0
  161.1140  209.4450  153.8610 C   0  0  0  0  0  0  0  0  0  0  0  0
  160.6550  211.1990  151.7840 C   0  0  0  0  0  0  0  0  0  0  0  0
  160.2550  211.5300  153.0500 C   0  0  0  0  0  0  0  0  0  0  0  0
  161.3020  210.0020  151.4870 C   0  0  0  0  0  3  0  0  0  0  0  0
  160.4840  210.6830  154.1480 C   0  0  0  0  0  0  0  0  0  0  0  0
  160.3200  212.1640  150.9710 O   0  0  0  0  0  0  0  0  0  0  0  0
  159.7180  213.0700  151.7260 C   0  0  0  0  0  0  0  0  0  0  0  0
  161.5200  209.1240  152.5630 C   0  0  0  0  0  0  0  0  0  0  0  0
  159.6490  212.7310  153.0390 N   0  0  0  0  0  0  0  0  0  0  0  0
  162.1620  207.8040  152.4030 C   0  0  0  0  0  2  0  0  0  0  0  0
  161.4200  208.1600  155.0580 S   0  0  0  0  0  0  0  0  0  0  0  0
  161.0160  205.8970  153.5280 C   0  0  0  0  0  0  0  0  0  0  0  0
  161.1380  205.0370  152.3970 N   0  0  0  0  0  2  0  0  0  0  0  0
  159.9980  205.7670  154.3140 N   0  0  0  0  0  2  0  0  0  0  0  0
  162.1900  205.1830  151.4830 N   0  0  0  0  0  2  0  0  0  0  0  0
  160.1740  205.9310  150.3800 C   0  0  0  0  0  1  0  0  0  0  0  0
  161.5950  205.4490  150.1860 C   0  0  2  0  0  3  0  0  0  0  0  0
  161.5850  204.2250  149.3910 N   0  0  0  0  0  2  0  0  0  0  0  0
  161.7800  203.5270  147.0700 N   0  0  0  0  0  0  0  0  0  0  0  0
  161.2850  203.7870  145.7190 C   0  0  0  0  0  2  0  0  0  0  0  0
  161.7210  205.1670  145.2450 C   0  0  1  0  0  3  0  0  0  0  0  0
  161.2110  205.4010  143.8400 C   0  0  0  0  0  1  0  0  0  0  0  0
  161.5760  205.9410  147.6090 C   0  0  0  0  0  2  0  0  0  0  0  0
  161.1410  206.2210  146.1760 C   0  0  0  0  0  2  0  0  0  0  0  0
  161.2940  202.3080  147.4140 O   0  0  0  0  0  1  0  0  0  0  0  0
  161.1990  204.5080  148.0000 C   0  0  2  0  0  3  0  0  0  0  0  0
  159.4200  209.8320  156.2360 C   0  0  0  0  0  2  0  0  0  0  0  0
  160.0140  211.0410  155.5350 C   0  0  2  0  0  3  0  0  0  0  0  0
  158.5070  210.8760  155.6470 C   0  0  2  0  0  3  0  0  0  0  0  0
  157.9960  211.7600  156.7680 C   0  0  0  0  0  2  0  0  0  0  0  0
  155.7990  213.2400  157.2570 O   0  0  0  0  0  0  0  0  0  0  0  0
  156.0160  212.2730  155.0130 O   0  0  0  0  0  0  0  0  0  0  0  0
  156.7660  212.8960  156.1580 S   0  0  0  0  0  0  0  0  0  0  0  0
  157.5700  214.3760  155.5950 C   0  0  0  0  0  1  0  0  0  0  0  0
  159.1780  214.3480  151.1880 C   0  0  0  0  0  2  0  0  0  0  0  0
  156.9250  213.7600  150.8500 O   0  0  0  0  0  0  0  0  0  0  0  0
  157.9790  214.0960  150.3330 C   0  0  0  0  0  0  0  0  0  0  0  0
  158.0670  214.2820  148.8500 C   0  0  0  0  0  2  0  0  0  0  0  0
  157.2870  213.1980  148.1170 C   0  0  0  0  0  2  0  0  0  0  0  0
  157.2290  213.2860  145.7360 O   0  0  0  0  0  1  0  0  0  0  0  0
  157.9770  212.8060  146.8150 C   0  0  1  0  0  3  0  0  0  0  0  0
  159.7050  213.7680  145.4610 O   0  0  0  0  0  1  0  0  0  0  0  0
  159.3910  213.3780  146.7690 C   0  0  2  0  0  3  0  0  0  0  0  0
  161.3610  212.8640  147.7280 O   0  0  0  0  0  0  0  0  0  0  0  0
  160.3760  212.3490  147.2350 C   0  0  0  0  0  2  0  0  0  0  0  0
  161.7910  212.3600  147.8940 C   0  0  0  0  0  2  0  0  0  0  0  0
  162.2900  210.9870  148.2190 O   0  0  0  0  0  1  0  0  0  0  0  0
  1 13  1  6  0  0  0
  1 12  1  0  0  0  0
  2  6  1  0  0  0  0
  2 12  1  0  0  0  0
  3  4  1  0  0  0  0
  4  6  2  0  0  0  0
  5  3  2  0  0  0  0
  5  9  1  0  0  0  0
  7  8  1  0  0  0  0
  7  3  1  0  0  0  0
  8 10  2  0  0  0  0
  9  2  2  0  0  0  0
 10  4  1  0  0  0  0
 11  9  1  0  0  0  0
 11  1  1  0  0  0  0
 13 15  2  0  0  0  0
 14 13  1  0  0  0  0
 16 14  1  0  0  0  0
 18 17  1  1  0  0  0
 18 16  1  0  0  0  0
 19 18  1  0  0  0  0
 20 26  1  0  0  0  0
 20 27  1  0  0  0  0
 21 20  1  0  0  0  0
 22 23  1  6  0  0  0
 22 21  1  0  0  0  0
 22 25  1  0  0  0  0
 24 27  1  0  0  0  0
 25 24  1  0  0  0  0
 27 19  1  1  0  0  0
 29  6  1  6  0  0  0
 29 30  1  0  0  0  0
 29 28  1  0  0  0  0
 30 28  1  0  0  0  0
 30 31  1  1  0  0  0
 33 34  2  0  0  0  0
 34 31  1  0  0  0  0
 34 32  2  0  0  0  0
 35 34  1  0  0  0  0
 36  8  1  0  0  0  0
 38 37  2  0  0  0  0
 38 36  1  0  0  0  0
 39 38  1  0  0  0  0
 40 39  1  0  0  0  0
 42 41  1  6  0  0  0
 42 40  1  0  0  0  0
 44 43  1  6  0  0  0
 44 42  1  0  0  0  0
 44 46  1  0  0  0  0
 45 47  1  0  0  0  0
 46 45  1  0  0  0  0
 47 48  1  0  0  0  0
M  END
>  <MODEL>
5

>  <REMARK>
 VINA RESULT:      -5.6      3.349      9.303
  Name = 
  16 active torsions:
  status: ('A' for Active; 'I' for Inactive)
    1  A    between atoms: C_3  and  C_24
    2  A    between atoms: C_10  and  C_19
    3  A    between atoms: C_10  and  C_46
    4  A    between atoms: C_13  and  C_34
    5  A    between atoms: C_14  and  C_43
    6  A    between atoms: C_18  and  C_34
    7  A    between atoms: C_18  and  C_44
    8  A    between atoms: S_22  and  C_28
    9  A    between atoms: C_28  and  C_47
   10  A    between atoms: N_29  and  N_30
   11  A    between atoms: N_29  and  C_33
   12  A    between atoms: C_33  and  N_45
   13  A    between atoms: C_36  and  C_37
   14  A    between atoms: C_36  and  C_46
   15  A    between atoms: C_37  and  C_44
   16  A    between atoms: C_42  and  N_45
                            x       y       z     vdW  Elec       q    Type
                         _______ _______ _______ _____ _____    ______ ____

>  <TORSDO>
F 16

$$$$
=
 OpenBabel11042420483D

 48 52  0  0  1  0  0  0  0  0999 V2000
  160.7650  207.0990  152.9590 C   0  0  1  0  0  3  0  0  0  0  0  0
  161.4030  208.1050  150.6920 C   0  0  0  0  0  0  0  0  0  0  0  0
  161.7260  210.7700  150.0630 C   0  0  0  0  0  0  0  0  0  0  0  0
  162.0800  209.8110  149.1530 C   0  0  0  0  0  0  0  0  0  0  0  0
  161.1920  210.4610  151.3120 C   0  0  0  0  0  3  0  0  0  0  0  0
  161.9160  208.4400  149.4130 C   0  0  0  0  0  0  0  0  0  0  0  0
  161.9820  211.9450  149.5570 O   0  0  0  0  0  0  0  0  0  0  0  0
  162.4920  211.7130  148.3580 C   0  0  0  0  0  0  0  0  0  0  0  0
  161.0410  209.0960  151.6090 C   0  0  0  0  0  0  0  0  0  0  0  0
  162.5760  210.3930  148.0460 N   0  0  0  0  0  0  0  0  0  0  0  0
  160.5220  208.6090  152.9030 C   0  0  0  0  0  2  0  0  0  0  0  0
  161.2000  206.4410  151.3010 S   0  0  0  0  0  0  0  0  0  0  0  0
  161.8210  206.7690  153.9700 C   0  0  0  0  0  0  0  0  0  0  0  0
  161.9750  207.5780  155.1350 N   0  0  0  0  0  2  0  0  0  0  0  0
  162.6830  205.8350  153.7310 N   0  0  0  0  0  2  0  0  0  0  0  0
  161.1040  208.6420  155.4010 N   0  0  0  0  0  2  0  0  0  0  0  0
  159.5780  207.1840  156.5770 C   0  0  0  0  0  1  0  0  0  0  0  0
  160.4940  208.3830  156.6910 C   0  0  2  0  0  3  0  0  0  0  0  0
  159.7160  209.5460  157.1090 N   0  0  0  0  0  2  0  0  0  0  0  0
  159.9610  211.8660  156.4240 N   0  0  0  0  0  0  0  0  0  0  0  0
  159.9100  212.7620  155.2690 C   0  0  0  0  0  2  0  0  0  0  0  0
  158.4930  212.8430  154.7160 C   0  0  1  0  0  3  0  0  0  0  0  0
  158.4660  213.7900  153.5360 C   0  0  0  0  0  1  0  0  0  0  0  0
  158.1610  210.4780  155.4250 C   0  0  0  0  0  2  0  0  0  0  0  0
  158.0530  211.4590  154.2650 C   0  0  0  0  0  2  0  0  0  0  0  0
  161.2630  211.8220  156.8010 O   0  0  0  0  0  1  0  0  0  0  0  0
  159.5800  210.5080  156.0040 C   0  0  2  0  0  3  0  0  0  0  0  0
  161.5750  207.5430  147.1120 C   0  0  0  0  0  2  0  0  0  0  0  0
  162.3370  207.3890  148.4170 C   0  0  2  0  0  3  0  0  0  0  0  0
  161.1720  206.4680  148.0890 C   0  0  2  0  0  3  0  0  0  0  0  0
  161.7160  205.1400  147.6000 C   0  0  0  0  0  2  0  0  0  0  0  0
  162.7000  205.4650  145.1140 O   0  0  0  0  0  0  0  0  0  0  0  0
  160.2850  205.7800  145.4080 O   0  0  0  0  0  0  0  0  0  0  0  0
  161.4790  204.9760  145.8420 S   0  0  0  0  0  0  0  0  0  0  0  0
  161.2050  203.2650  145.4500 C   0  0  0  0  0  1  0  0  0  0  0  0
  162.9210  212.7950  147.4320 C   0  0  0  0  0  2  0  0  0  0  0  0
  160.7130  212.9330  146.6320 O   0  0  0  0  0  0  0  0  0  0  0  0
  161.9010  213.0100  146.3620 C   0  0  0  0  0  0  0  0  0  0  0  0
  162.3380  213.3440  144.9690 C   0  0  0  0  0  2  0  0  0  0  0  0
  161.3930  212.7370  143.9410 C   0  0  0  0  0  2  0  0  0  0  0  0
  162.7960  213.5000  142.1720 O   0  0  0  0  0  1  0  0  0  0  0  0
  161.4700  213.4830  142.6130 C   0  0  1  0  0  3  0  0  0  0  0  0
  159.2540  212.7860  142.0210 O   0  0  0  0  0  1  0  0  0  0  0  0
  160.5800  212.8090  141.5720 C   0  0  2  0  0  3  0  0  0  0  0  0
  160.9150  211.0870  140.1620 O   0  0  0  0  0  0  0  0  0  0  0  0
  161.0500  211.4070  141.3270 C   0  0  0  0  0  2  0  0  0  0  0  0
  161.1110  210.4350  140.1060 C   0  0  0  0  0  2  0  0  0  0  0  0
  162.0010  209.2560  140.3480 O   0  0  0  0  0  1  0  0  0  0  0  0
  1 13  1  1  0  0  0
  2 12  1  0  0  0  0
  2  9  1  0  0  0  0
  3  5  1  0  0  0  0
  4  6  1  0  0  0  0
  4  3  2  0  0  0  0
  5  9  2  0  0  0  0
  6  2  2  0  0  0  0
  7  3  1  0  0  0  0
  8  7  1  0  0  0  0
  9 11  1  0  0  0  0
 10  8  2  0  0  0  0
 10  4  1  0  0  0  0
 11  1  1  0  0  0  0
 12  1  1  0  0  0  0
 13 14  1  0  0  0  0
 14 16  1  0  0  0  0
 15 13  2  0  0  0  0
 16 18  1  0  0  0  0
 18 17  1  6  0  0  0
 18 19  1  0  0  0  0
 20 26  1  0  0  0  0
 21 20  1  0  0  0  0
 22 23  1  6  0  0  0
 22 21  1  0  0  0  0
 24 27  1  0  0  0  0
 25 22  1  0  0  0  0
 25 24  1  0  0  0  0
 27 20  1  0  0  0  0
 27 19  1  1  0  0  0
 28 30  1  0  0  0  0
 28 29  1  0  0  0  0
 29  6  1  1  0  0  0
 30 31  1  6  0  0  0
 30 29  1  0  0  0  0
 32 34  2  0  0  0  0
 33 34  2  0  0  0  0
 34 31  1  0  0  0  0
 35 34  1  0  0  0  0
 36  8  1  0  0  0  0
 38 37  2  0  0  0  0
 38 36  1  0  0  0  0
 39 38  1  0  0  0  0
 40 39  1  0  0  0  0
 42 41  1  6  0  0  0
 42 40  1  0  0  0  0
 44 43  1  1  0  0  0
 44 42  1  0  0  0  0
 45 46  1  0  0  0  0
 46 44  1  0  0  0  0
 47 45  1  0  0  0  0
 47 48  1  0  0  0  0
M  END
>  <MODEL>
6

>  <REMARK>
 VINA RESULT:      -5.1      3.245      8.761
  Name = 
  16 active torsions:
  status: ('A' for Active; 'I' for Inactive)
    1  A    between atoms: C_3  and  C_24
    2  A    between atoms: C_10  and  C_19
    3  A    between atoms: C_10  and  C_46
    4  A    between atoms: C_13  and  C_34
    5  A    between atoms: C_14  and  C_43
    6  A    between atoms: C_18  and  C_34
    7  A    between atoms: C_18  and  C_44
    8  A    between atoms: S_22  and  C_28
    9  A    between atoms: C_28  and  C_47
   10  A    between atoms: N_29  and  N_30
   11  A    between atoms: N_29  and  C_33
   12  A    between atoms: C_33  and  N_45
   13  A    between atoms: C_36  and  C_37
   14  A    between atoms: C_36  and  C_46
   15  A    between atoms: C_37  and  C_44
   16  A    between atoms: C_42  and  N_45
                            x       y       z     vdW  Elec       q    Type
                         _______ _______ _______ _____ _____    ______ ____

>  <TORSDO>
F 16

$$$$
=
 OpenBabel11042420483D

 48 52  0  0  1  0  0  0  0  0999 V2000
  161.1420  205.5920  146.7610 C   0  0  1  0  0  3  0  0  0  0  0  0
  161.4780  206.7870  149.0010 C   0  0  0  0  0  0  0  0  0  0  0  0
  161.0080  205.7900  151.5280 C   0  0  0  0  0  0  0  0  0  0  0  0
  161.6380  206.9960  151.3820 C   0  0  0  0  0  0  0  0  0  0  0  0
  160.5760  205.0300  150.4440 C   0  0  0  0  0  3  0  0  0  0  0  0
  161.8820  207.5610  150.1190 C   0  0  0  0  0  0  0  0  0  0  0  0
  160.9120  205.5170  152.8010 O   0  0  0  0  0  0  0  0  0  0  0  0
  161.4790  206.5360  153.4260 C   0  0  0  0  0  0  0  0  0  0  0  0
  160.8320  205.5590  149.1670 C   0  0  0  0  0  0  0  0  0  0  0  0
  161.9520  207.4970  152.5910 N   0  0  0  0  0  0  0  0  0  0  0  0
  160.4660  204.8570  147.9200 C   0  0  0  0  0  2  0  0  0  0  0  0
  161.7680  207.2330  147.2990 S   0  0  0  0  0  0  0  0  0  0  0  0
  162.2390  204.7580  146.1710 C   0  0  0  0  0  0  0  0  0  0  0  0
  161.9270  203.5440  145.4880 N   0  0  0  0  0  2  0  0  0  0  0  0
  163.4770  205.0590  146.3900 N   0  0  0  0  0  2  0  0  0  0  0  0
  160.5990  203.1460  145.2850 N   0  0  0  0  0  2  0  0  0  0  0  0
  160.0820  200.9150  144.5120 C   0  0  0  0  0  1  0  0  0  0  0  0
  160.5020  201.7580  145.6970 C   0  0  2  0  0  3  0  0  0  0  0  0
  159.5060  201.6290  146.7570 N   0  0  0  0  0  2  0  0  0  0  0  0
  159.3380  201.7650  149.1790 N   0  0  0  0  0  0  0  0  0  0  0  0
  159.9630  201.3260  150.4270 C   0  0  0  0  0  2  0  0  0  0  0  0
  161.3460  201.9430  150.5790 C   0  0  1  0  0  3  0  0  0  0  0  0
  161.9590  201.4880  151.8850 C   0  0  0  0  0  1  0  0  0  0  0  0
  161.5710  201.8670  148.0990 C   0  0  0  0  0  2  0  0  0  0  0  0
  162.2250  201.4910  149.4220 C   0  0  0  0  0  2  0  0  0  0  0  0
  158.1460  201.1210  149.1150 O   0  0  0  0  0  1  0  0  0  0  0  0
  160.1470  201.3030  148.0400 C   0  0  2  0  0  3  0  0  0  0  0  0
  161.9570  209.9520  150.8200 C   0  0  0  0  0  2  0  0  0  0  0  0
  162.6040  208.8760  149.9650 C   0  0  2  0  0  3  0  0  0  0  0  0
  161.6890  209.9160  149.3370 C   0  0  2  0  0  3  0  0  0  0  0  0
  162.5380  210.9770  148.6650 C   0  0  0  0  0  2  0  0  0  0  0  0
  160.8100  212.9220  149.3640 O   0  0  0  0  0  0  0  0  0  0  0  0
  160.5280  211.9230  147.1400 O   0  0  0  0  0  0  0  0  0  0  0  0
  161.5320  212.3620  148.1700 S   0  0  0  0  0  0  0  0  0  0  0  0
  162.5760  213.6180  147.4710 C   0  0  0  0  0  1  0  0  0  0  0  0
  161.5810  206.6280  154.9080 C   0  0  0  0  0  2  0  0  0  0  0  0
  159.6660  207.9790  155.1150 O   0  0  0  0  0  0  0  0  0  0  0  0
  160.8390  207.8220  155.4150 C   0  0  0  0  0  0  0  0  0  0  0  0
  161.5290  208.8060  156.3080 C   0  0  0  0  0  2  0  0  0  0  0  0
  160.6790  210.0540  156.5020 C   0  0  0  0  0  2  0  0  0  0  0  0
  161.9650  210.7170  154.6090 O   0  0  0  0  0  1  0  0  0  0  0  0
  161.2120  211.2190  155.6740 C   0  0  1  0  0  3  0  0  0  0  0  0
  158.9690  211.9880  156.0230 O   0  0  0  0  0  1  0  0  0  0  0  0
  160.0600  212.0690  155.1480 C   0  0  2  0  0  3  0  0  0  0  0  0
  158.8400  212.3400  153.2760 O   0  0  0  0  0  0  0  0  0  0  0  0
  159.6480  211.5900  153.7890 C   0  0  0  0  0  2  0  0  0  0  0  0
  158.6610  212.0650  152.6770 C   0  0  0  0  0  2  0  0  0  0  0  0
  159.0620  213.3700  152.0640 O   0  0  0  0  0  1  0  0  0  0  0  0
  1 13  1  1  0  0  0
  1 12  1  0  0  0  0
  1 11  1  0  0  0  0
  2  9  2  0  0  0  0
  2  6  1  0  0  0  0
  3  7  1  0  0  0  0
  4  3  1  0  0  0  0
  4 10  1  0  0  0  0
  5  3  2  0  0  0  0
  6  4  2  0  0  0  0
  7  8  1  0  0  0  0
  8 36  1  0  0  0  0
  9  5  1  0  0  0  0
 10  8  2  0  0  0  0
 11  9  1  0  0  0  0
 12  2  1  0  0  0  0
 13 15  2  0  0  0  0
 14 13  1  0  0  0  0
 16 14  1  0  0  0  0
 16 18  1  0  0  0  0
 18 17  1  6  0  0  0
 18 19  1  0  0  0  0
 20 21  1  0  0  0  0
 21 22  1  0  0  0  0
 22 23  1  1  0  0  0
 24 25  1  0  0  0  0
 25 22  1  0  0  0  0
 26 20  1  0  0  0  0
 27 19  1  6  0  0  0
 27 24  1  0  0  0  0
 27 20  1  0  0  0  0
 29  6  1  1  0  0  0
 29 28  1  0  0  0  0
 30 31  1  6  0  0  0
 30 29  1  0  0  0  0
 30 28  1  0  0  0  0
 33 34  2  0  0  0  0
 34 31  1  0  0  0  0
 34 32  2  0  0  0  0
 35 34  1  0  0  0  0
 36 38  1  0  0  0  0
 37 38  2  0  0  0  0
 38 39  1  0  0  0  0
 39 40  1  0  0  0  0
 42 41  1  6  0  0  0
 42 40  1  0  0  0  0
 44 42  1  0  0  0  0
 44 43  1  1  0  0  0
 45 46  1  0  0  0  0
 46 44  1  0  0  0  0
 47 45  1  0  0  0  0
 48 47  1  0  0  0  0
M  END
>  <MODEL>
7

>  <REMARK>
 VINA RESULT:      -5.1      3.488      9.564
  Name = 
  16 active torsions:
  status: ('A' for Active; 'I' for Inactive)
    1  A    between atoms: C_3  and  C_24
    2  A    between atoms: C_10  and  C_19
    3  A    between atoms: C_10  and  C_46
    4  A    between atoms: C_13  and  C_34
    5  A    between atoms: C_14  and  C_43
    6  A    between atoms: C_18  and  C_34
    7  A    between atoms: C_18  and  C_44
    8  A    between atoms: S_22  and  C_28
    9  A    between atoms: C_28  and  C_47
   10  A    between atoms: N_29  and  N_30
   11  A    between atoms: N_29  and  C_33
   12  A    between atoms: C_33  and  N_45
   13  A    between atoms: C_36  and  C_37
   14  A    between atoms: C_36  and  C_46
   15  A    between atoms: C_37  and  C_44
   16  A    between atoms: C_42  and  N_45
                            x       y       z     vdW  Elec       q    Type
                         _______ _______ _______ _____ _____    ______ ____

>  <TORSDO>
F 16

$$$$
=
 OpenBabel11042420483D

 48 52  0  0  1  0  0  0  0  0999 V2000
  161.1460  205.6160  147.0100 C   0  0  1  0  0  3  0  0  0  0  0  0
  161.4580  207.1580  149.0300 C   0  0  0  0  0  0  0  0  0  0  0  0
  160.9630  206.5830  151.6810 C   0  0  0  0  0  0  0  0  0  0  0  0
  161.5940  207.7500  151.3480 C   0  0  0  0  0  0  0  0  0  0  0  0
  160.5430  205.6560  150.7290 C   0  0  0  0  0  3  0  0  0  0  0  0
  161.8510  208.1030  150.0120 C   0  0  0  0  0  0  0  0  0  0  0  0
  160.8540  206.5190  152.9800 O   0  0  0  0  0  0  0  0  0  0  0  0
  161.4140  207.6270  153.4380 C   0  0  0  0  0  0  0  0  0  0  0  0
  160.8110  205.9720  149.3860 C   0  0  0  0  0  0  0  0  0  0  0  0
  161.8950  208.4410  152.4620 N   0  0  0  0  0  0  0  0  0  0  0  0
  160.4580  205.0760  148.2660 C   0  0  0  0  0  2  0  0  0  0  0  0
  161.7650  207.3230  147.2820 S   0  0  0  0  0  0  0  0  0  0  0  0
  162.2490  204.6990  146.5740 C   0  0  0  0  0  0  0  0  0  0  0  0
  161.9470  203.3810  146.1190 N   0  0  0  0  0  2  0  0  0  0  0  0
  163.4850  205.0450  146.7320 N   0  0  0  0  0  2  0  0  0  0  0  0
  160.6230  202.9410  145.9950 N   0  0  0  0  0  2  0  0  0  0  0  0
  159.7130  201.2680  144.5070 C   0  0  0  0  0  1  0  0  0  0  0  0
  160.6710  201.5330  145.6480 C   0  0  2  0  0  3  0  0  0  0  0  0
  160.2790  200.7290  146.8030 N   0  0  0  0  0  2  0  0  0  0  0  0
  161.5900  200.6680  148.8500 N   0  0  0  0  0  0  0  0  0  0  0  0
  161.9610  201.4460  150.0320 C   0  0  0  0  0  2  0  0  0  0  0  0
  160.7480  201.6760  150.9230 C   0  0  1  0  0  3  0  0  0  0  0  0
  161.1640  202.4650  152.1460 C   0  0  0  0  0  1  0  0  0  0  0  0
  159.3390  201.7150  148.8690 C   0  0  0  0  0  2  0  0  0  0  0  0
  159.7000  202.4590  150.1480 C   0  0  0  0  0  2  0  0  0  0  0  0
  162.7180  200.5680  148.1050 O   0  0  0  0  0  1  0  0  0  0  0  0
  160.6070  201.4240  148.0580 C   0  0  2  0  0  3  0  0  0  0  0  0
  162.1410  210.5180  150.5600 C   0  0  0  0  0  2  0  0  0  0  0  0
  162.5730  209.3780  149.6550 C   0  0  2  0  0  3  0  0  0  0  0  0
  161.5900  210.4270  149.1600 C   0  0  2  0  0  3  0  0  0  0  0  0
  162.3290  211.4200  148.2840 C   0  0  0  0  0  2  0  0  0  0  0  0
  162.1830  214.0170  147.5820 O   0  0  0  0  0  0  0  0  0  0  0  0
  160.5260  213.2020  149.1970 O   0  0  0  0  0  0  0  0  0  0  0  0
  161.3150  212.8510  147.9670 S   0  0  0  0  0  0  0  0  0  0  0  0
  160.1940  212.4860  146.6380 C   0  0  0  0  0  1  0  0  0  0  0  0
  161.5000  207.9570  154.8860 C   0  0  0  0  0  2  0  0  0  0  0  0
  159.5030  208.8690  155.7300 O   0  0  0  0  0  0  0  0  0  0  0  0
  160.5900  209.0930  155.2230 C   0  0  0  0  0  0  0  0  0  0  0  0
  161.0240  210.5020  154.9600 C   0  0  0  0  0  2  0  0  0  0  0  0
  159.9320  211.4900  155.3480 C   0  0  0  0  0  2  0  0  0  0  0  0
  160.1400  211.8500  153.0010 O   0  0  0  0  0  1  0  0  0  0  0  0
  159.4510  212.2840  154.1380 C   0  0  1  0  0  3  0  0  0  0  0  0
  157.4430  213.1220  153.1320 O   0  0  0  0  0  1  0  0  0  0  0  0
  157.9490  212.0990  153.9440 C   0  0  2  0  0  3  0  0  0  0  0  0
  156.2890  211.3810  155.2830 O   0  0  0  0  0  0  0  0  0  0  0  0
  157.2530  212.1220  155.2710 C   0  0  0  0  0  2  0  0  0  0  0  0
  155.9890  211.4500  155.8930 C   0  0  0  0  0  2  0  0  0  0  0  0
  155.4780  210.3060  155.0740 O   0  0  0  0  0  1  0  0  0  0  0  0
  1 13  1  1  0  0  0
  1 12  1  0  0  0  0
  1 11  1  0  0  0  0
  2  9  2  0  0  0  0
  2  6  1  0  0  0  0
  3  7  1  0  0  0  0
  4  3  1  0  0  0  0
  4 10  1  0  0  0  0
  5  3  2  0  0  0  0
  6  4  2  0  0  0  0
  7  8  1  0  0  0  0
  8 36  1  0  0  0  0
  9  5  1  0  0  0  0
 10  8  2  0  0  0  0
 11  9  1  0  0  0  0
 12  2  1  0  0  0  0
 13 15  2  0  0  0  0
 14 13  1  0  0  0  0
 16 14  1  0  0  0  0
 18 17  1  6  0  0  0
 18 16  1  0  0  0  0
 18 19  1  0  0  0  0
 20 21  1  0  0  0  0
 21 22  1  0  0  0  0
 22 23  1  1  0  0  0
 24 25  1  0  0  0  0
 25 22  1  0  0  0  0
 26 20  1  0  0  0  0
 27 19  1  6  0  0  0
 27 20  1  0  0  0  0
 27 24  1  0  0  0  0
 29  6  1  1  0  0  0
 29 28  1  0  0  0  0
 30 31  1  6  0  0  0
 30 29  1  0  0  0  0
 30 28  1  0  0  0  0
 32 34  2  0  0  0  0
 34 31  1  0  0  0  0
 34 33  2  0  0  0  0
 35 34  1  0  0  0  0
 36 38  1  0  0  0  0
 38 37  2  0  0  0  0
 39 38  1  0  0  0  0
 39 40  1  0  0  0  0
 42 41  1  6  0  0  0
 42 40  1  0  0  0  0
 44 43  1  6  0  0  0
 44 42  1  0  0  0  0
 44 46  1  0  0  0  0
 45 47  1  0  0  0  0
 46 45  1  0  0  0  0
 48 47  1  0  0  0  0
M  END
>  <MODEL>
8

>  <REMARK>
 VINA RESULT:      -5.0      3.335      9.781
  Name = 
  16 active torsions:
  status: ('A' for Active; 'I' for Inactive)
    1  A    between atoms: C_3  and  C_24
    2  A    between atoms: C_10  and  C_19
    3  A    between atoms: C_10  and  C_46
    4  A    between atoms: C_13  and  C_34
    5  A    between atoms: C_14  and  C_43
    6  A    between atoms: C_18  and  C_34
    7  A    between atoms: C_18  and  C_44
    8  A    between atoms: S_22  and  C_28
    9  A    between atoms: C_28  and  C_47
   10  A    between atoms: N_29  and  N_30
   11  A    between atoms: N_29  and  C_33
   12  A    between atoms: C_33  and  N_45
   13  A    between atoms: C_36  and  C_37
   14  A    between atoms: C_36  and  C_46
   15  A    between atoms: C_37  and  C_44
   16  A    between atoms: C_42  and  N_45
                            x       y       z     vdW  Elec       q    Type
                         _______ _______ _______ _____ _____    ______ ____

>  <TORSDO>
F 16

$$$$
=
 OpenBabel11042420483D

 48 52  0  0  1  0  0  0  0  0999 V2000
  161.2470  206.3970  147.4180 C   0  0  1  0  0  3  0  0  0  0  0  0
  161.4920  208.0920  149.3210 C   0  0  0  0  0  0  0  0  0  0  0  0
  161.0870  207.6710  152.0160 C   0  0  0  0  0  0  0  0  0  0  0  0
  161.6310  208.8510  151.5900 C   0  0  0  0  0  0  0  0  0  0  0  0
  160.7120  206.6540  151.1390 C   0  0  0  0  0  3  0  0  0  0  0  0
  161.8380  209.1270  150.2270 C   0  0  0  0  0  0  0  0  0  0  0  0
  161.0060  207.6900  153.3180 O   0  0  0  0  0  0  0  0  0  0  0  0
  161.4990  208.8610  153.6870 C   0  0  0  0  0  0  0  0  0  0  0  0
  160.9330  206.8940  149.7720 C   0  0  0  0  0  0  0  0  0  0  0  0
  161.9050  209.6360  152.6480 N   0  0  0  0  0  0  0  0  0  0  0  0
  160.6210  205.9010  148.7240 C   0  0  0  0  0  2  0  0  0  0  0  0
  161.7550  208.1560  147.5590 S   0  0  0  0  0  0  0  0  0  0  0  0
  162.4010  205.5270  147.0190 C   0  0  0  0  0  0  0  0  0  0  0  0
  162.1810  204.3720  146.2110 N   0  0  0  0  0  2  0  0  0  0  0  0
  163.5770  205.7390  147.5120 N   0  0  0  0  0  2  0  0  0  0  0  0
  160.9090  204.0680  145.7090 N   0  0  0  0  0  2  0  0  0  0  0  0
  160.0470  202.1560  144.5090 C   0  0  0  0  0  1  0  0  0  0  0  0
  160.7650  202.6250  145.7550 C   0  0  2  0  0  3  0  0  0  0  0  0
  159.9870  202.2470  146.9320 N   0  0  0  0  0  2  0  0  0  0  0  0
  160.9850  200.8480  148.6530 N   0  0  0  0  0  0  0  0  0  0  0  0
  161.9180  200.8570  149.7790 C   0  0  0  0  0  2  0  0  0  0  0  0
  161.3770  201.7130  150.9160 C   0  0  1  0  0  3  0  0  0  0  0  0
  162.3530  201.6870  152.0730 C   0  0  0  0  0  1  0  0  0  0  0  0
  160.2970  203.1680  149.2070 C   0  0  0  0  0  2  0  0  0  0  0  0
  161.2080  203.1430  150.4280 C   0  0  0  0  0  2  0  0  0  0  0  0
  161.5810  200.1110  147.6830 O   0  0  0  0  0  1  0  0  0  0  0  0
  160.8360  202.2170  148.1330 C   0  0  2  0  0  3  0  0  0  0  0  0
  161.5930  211.6070  150.1330 C   0  0  0  0  0  2  0  0  0  0  0  0
  162.4670  210.4190  149.7680 C   0  0  2  0  0  3  0  0  0  0  0  0
  161.5970  211.0910  148.7170 C   0  0  2  0  0  3  0  0  0  0  0  0
  162.4620  212.0040  147.8710 C   0  0  0  0  0  2  0  0  0  0  0  0
  160.4270  212.2060  146.1190 O   0  0  0  0  0  0  0  0  0  0  0  0
  162.3110  213.7500  145.8250 O   0  0  0  0  0  0  0  0  0  0  0  0
  161.4510  213.0420  146.8350 S   0  0  0  0  0  0  0  0  0  0  0  0
  160.6260  214.2460  147.8470 C   0  0  0  0  0  1  0  0  0  0  0  0
  161.5890  209.2960  155.1070 C   0  0  0  0  0  2  0  0  0  0  0  0
  159.6790  208.2600  156.0060 O   0  0  0  0  0  0  0  0  0  0  0  0
  160.2370  209.3120  155.7410 C   0  0  0  0  0  0  0  0  0  0  0  0
  159.5820  210.6180  156.0720 C   0  0  0  0  0  2  0  0  0  0  0  0
  158.2860  210.7910  155.2920 C   0  0  0  0  0  2  0  0  0  0  0  0
  159.2150  212.9850  155.2230 O   0  0  0  0  0  1  0  0  0  0  0  0
  158.1590  212.2060  154.7390 C   0  0  1  0  0  3  0  0  0  0  0  0
  158.7580  210.9920  152.7610 O   0  0  0  0  0  1  0  0  0  0  0  0
  158.1790  212.1850  153.2130 C   0  0  2  0  0  3  0  0  0  0  0  0
  158.6100  213.6670  151.5750 O   0  0  0  0  0  0  0  0  0  0  0  0
  158.9650  213.3510  152.6940 C   0  0  0  0  0  2  0  0  0  0  0  0
  159.0150  214.1780  151.3710 C   0  0  0  0  0  2  0  0  0  0  0  0
  158.2550  213.5320  150.2550 O   0  0  0  0  0  1  0  0  0  0  0  0
  1 13  1  1  0  0  0
  1 12  1  0  0  0  0
  1 11  1  0  0  0  0
  2  9  2  0  0  0  0
  2  6  1  0  0  0  0
  3  7  1  0  0  0  0
  4  3  1  0  0  0  0
  4 10  1  0  0  0  0
  5  3  2  0  0  0  0
  6  4  2  0  0  0  0
  7  8  1  0  0  0  0
  8 36  1  0  0  0  0
  9  5  1  0  0  0  0
 10  8  2  0  0  0  0
 11  9  1  0  0  0  0
 12  2  1  0  0  0  0
 13 15  2  0  0  0  0
 14 13  1  0  0  0  0
 16 18  1  0  0  0  0
 16 14  1  0  0  0  0
 18 17  1  6  0  0  0
 18 19  1  0  0  0  0
 20 21  1  0  0  0  0
 21 22  1  0  0  0  0
 22 23  1  1  0  0  0
 24 25  1  0  0  0  0
 25 22  1  0  0  0  0
 26 20  1  0  0  0  0
 27 19  1  6  0  0  0
 27 20  1  0  0  0  0
 27 24  1  0  0  0  0
 29 28  1  0  0  0  0
 29  6  1  1  0  0  0
 30 31  1  6  0  0  0
 30 29  1  0  0  0  0
 30 28  1  0  0  0  0
 32 34  2  0  0  0  0
 33 34  2  0  0  0  0
 34 35  1  0  0  0  0
 34 31  1  0  0  0  0
 36 38  1  0  0  0  0
 38 37  2  0  0  0  0
 38 39  1  0  0  0  0
 40 39  1  0  0  0  0
 42 41  1  1  0  0  0
 42 40  1  0  0  0  0
 44 43  1  1  0  0  0
 44 42  1  0  0  0  0
 45 46  1  0  0  0  0
 46 44  1  0  0  0  0
 47 45  1  0  0  0  0
 48 47  1  0  0  0  0
M  END
>  <MODEL>
9

>  <REMARK>
 VINA RESULT:      -4.8      3.172      9.442
  Name = 
  16 active torsions:
  status: ('A' for Active; 'I' for Inactive)
    1  A    between atoms: C_3  and  C_24
    2  A    between atoms: C_10  and  C_19
    3  A    between atoms: C_10  and  C_46
    4  A    between atoms: C_13  and  C_34
    5  A    between atoms: C_14  and  C_43
    6  A    between atoms: C_18  and  C_34
    7  A    between atoms: C_18  and  C_44
    8  A    between atoms: S_22  and  C_28
    9  A    between atoms: C_28  and  C_47
   10  A    between atoms: N_29  and  N_30
   11  A    between atoms: N_29  and  C_33
   12  A    between atoms: C_33  and  N_45
   13  A    between atoms: C_36  and  C_37
   14  A    between atoms: C_36  and  C_46
   15  A    between atoms: C_37  and  C_44
   16  A    between atoms: C_42  and  N_45
                            x       y       z     vdW  Elec       q    Type
                         _______ _______ _______ _____ _____    ______ ____

>  <TORSDO>
F 16

$$$$
