=
 OpenBabel11052409423D

 49 53  0  0  1  0  0  0  0  0999 V2000
  160.9930  211.5220  150.7620 C   0  0  0  0  0  0  0  0  0  0  0  0
  161.0710  212.0500  149.4640 C   0  0  0  0  0  3  0  0  0  0  0  0
  159.5950  213.8600  150.0810 C   0  0  0  0  0  3  0  0  0  0  0  0
  159.5120  213.3470  151.3770 C   0  0  0  0  0  3  0  0  0  0  0  0
  160.3760  213.2110  149.1230 C   0  0  0  0  0  0  0  0  0  0  0  0
  160.2060  212.1800  151.7350 C   0  0  0  0  0  0  0  0  0  0  0  0
  158.8560  213.3530  154.3550 C   0  0  0  0  0  1  0  0  0  0  0  0
  158.8790  211.9140  153.8700 C   0  0  2  0  0  3  0  0  0  0  0  0
  159.7790  209.4770  156.7340 C   0  0  0  0  0  1  0  0  0  0  0  0
  157.4280  210.8270  155.6920 C   0  0  0  0  0  1  0  0  0  0  0  0
  159.8540  210.3420  155.5170 C   0  0  0  0  0  0  0  0  0  0  0  0
  158.7650  210.9750  155.0390 C   0  0  0  0  0  0  0  0  0  0  0  0
  161.1170  210.4620  154.8470 N   0  0  0  0  0  0  0  0  0  0  0  0
  160.0920  211.6720  153.0790 N   0  0  0  0  0  0  0  0  0  0  0  0
  161.2380  211.0710  153.7090 C   0  0  0  0  0  3  0  0  0  0  0  0
  160.4970  213.7730  147.7490 C   0  0  0  0  0  2  0  0  0  0  0  0
  161.6930  213.1860  147.0230 C   0  0  2  0  0  3  0  0  0  0  0  0
  162.8170  214.1330  147.0780 N   0  0  0  0  0  2  0  0  0  0  0  0
  161.9880  214.0230  145.8670 C   0  0  1  0  0  3  0  0  0  0  0  0
  162.7270  213.2150  144.8120 C   0  0  0  0  0  2  0  0  0  0  0  0
  160.5880  213.1760  143.7510 O   0  0  0  0  0  0  0  0  0  0  0  0
  162.3160  212.1710  142.5540 N   0  0  0  0  0  2  0  0  0  0  0  0
  161.8040  212.8580  143.6940 C   0  0  0  0  0  0  0  0  0  0  0  0
  161.4680  211.7610  141.4420 C   0  0  0  0  0  2  0  0  0  0  0  0
  162.2730  211.4940  140.1650 C   0  0  2  0  0  0  0  0  0  0  0  0
  163.1830  210.4750  140.3930 F   0  0  0  0  0  0  0  0  0  0  0  0
  163.0640  212.7640  139.8770 C   0  0  0  0  0  1  0  0  0  0  0  0
  160.9240  209.7830  139.1350 O   0  0  0  0  0  1  0  0  0  0  0  0
  160.1090  211.9940  138.9180 C   0  0  0  0  0  1  0  0  0  0  0  0
  161.3500  211.1060  138.9750 C   0  0  1  0  0  0  0  0  0  0  0  0
  162.0880  211.1780  137.6330 C   0  0  0  0  0  2  0  0  0  0  0  0
  162.4270  209.9090  137.1570 O   0  0  0  0  0  1  0  0  0  0  0  0
  161.7890  210.3830  151.1170 N   0  0  0  0  0  2  0  0  0  0  0  0
  161.2340  207.7610  152.3640 C   0  0  0  0  0  1  0  0  0  0  0  0
  162.3690  208.0950  148.2380 C   0  0  0  0  0  3  0  0  0  0  0  0
  162.2650  209.2520  149.0140 C   0  0  0  0  0  3  0  0  0  0  0  0
  161.7140  206.7580  150.1460 C   0  0  0  0  0  3  0  0  0  0  0  0
  162.0950  206.8420  148.8030 C   0  0  0  0  0  0  0  0  0  0  0  0
  161.5940  207.9120  150.9250 C   0  0  0  0  0  0  0  0  0  0  0  0
  161.8640  209.1760  150.3510 C   0  0  0  0  0  0  0  0  0  0  0  0
  161.1090  203.3720  147.5240 C   0  0  0  0  0  3  0  0  0  0  0  0
  161.0600  204.6220  148.3430 C   0  0  0  0  0  2  0  0  0  0  0  0
  160.5480  204.5840  145.5070 N   0  0  0  0  0  0  0  0  0  0  0  0
  162.2020  205.5870  147.9990 C   0  0  1  0  0  3  0  0  0  0  0  0
  160.7980  202.1320  145.5230 N   0  0  0  0  0  1  0  0  0  0  0  0
  160.8650  203.3750  146.2120 C   0  0  0  0  0  0  0  0  0  0  0  0
  161.1730  205.7200  145.6470 C   0  0  0  0  0  3  0  0  0  0  0  0
  162.4000  205.8890  146.5040 C   0  0  2  0  0  3  0  0  0  0  0  0
  163.4520  205.1220  146.0000 O   0  0  0  0  0  1  0  0  0  0  0  0
  1 33  1  0  0  0  0
  1  6  1  0  0  0  0
  2  1  2  0  0  0  0
  3  4  1  0  0  0  0
  4  6  2  0  0  0  0
  5  2  1  0  0  0  0
  5  3  2  0  0  0  0
  6 14  1  0  0  0  0
  8  7  1  1  0  0  0
  8 12  1  0  0  0  0
 11  9  1  0  0  0  0
 12 11  2  0  0  0  0
 12 10  1  0  0  0  0
 13 11  1  0  0  0  0
 14 15  1  0  0  0  0
 14  8  1  0  0  0  0
 15 13  2  0  0  0  0
 16  5  1  0  0  0  0
 17 18  1  0  0  0  0
 17 16  1  1  0  0  0
 19 20  1  6  0  0  0
 19 17  1  0  0  0  0
 19 18  1  0  0  0  0
 22 23  1  0  0  0  0
 23 21  2  0  0  0  0
 23 20  1  0  0  0  0
 24 22  1  0  0  0  0
 25 27  1  6  0  0  0
 25 26  1  0  0  0  0
 25 24  1  0  0  0  0
 30 29  1  6  0  0  0
 30 28  1  0  0  0  0
 30 25  1  0  0  0  0
 31 30  1  0  0  0  0
 32 31  1  0  0  0  0
 35 38  2  0  0  0  0
 35 36  1  0  0  0  0
 36 40  2  0  0  0  0
 37 39  2  0  0  0  0
 38 37  1  0  0  0  0
 39 34  1  0  0  0  0
 40 39  1  0  0  0  0
 40 33  1  0  0  0  0
 41 42  1  0  0  0  0
 43 47  2  0  0  0  0
 43 46  1  0  0  0  0
 44 42  1  0  0  0  0
 44 38  1  1  0  0  0
 45 46  1  0  0  0  0
 46 41  2  0  0  0  0
 47 48  1  0  0  0  0
 48 49  1  6  0  0  0
 48 44  1  0  0  0  0
M  END
>  <MODEL>
1

>  <REMARK>
 VINA RESULT:      -7.5      0.000      0.000
  Name = 
  12 active torsions:
  status: ('A' for Active; 'I' for Inactive)
    1  A    between atoms: C_2  and  C_8
    2  A    between atoms: N_3  and  C_38
    3  A    between atoms: C_8  and  C_41
    4  A    between atoms: C_9  and  C_38
    5  A    between atoms: C_9  and  C_49
    6  A    between atoms: C_15  and  N_27
    7  A    between atoms: C_18  and  C_33
    8  A    between atoms: N_27  and  C_40
    9  A    between atoms: C_28  and  C_49
   10  A    between atoms: C_36  and  C_47
   11  A    between atoms: C_39  and  C_47
   12  A    between atoms: C_43  and  N_44
                            x       y       z     vdW  Elec       q    Type
                         _______ _______ _______ _____ _____    ______ ____

>  <TORSDO>
F 12

$$$$
=
 OpenBabel11052409423D

 49 53  0  0  1  0  0  0  0  0999 V2000
  161.3400  209.1180  152.9880 C   0  0  0  0  0  0  0  0  0  0  0  0
  161.7590  208.1360  152.0770 C   0  0  0  0  0  3  0  0  0  0  0  0
  160.5020  206.4530  153.2710 C   0  0  0  0  0  3  0  0  0  0  0  0
  160.0750  207.4220  154.1810 C   0  0  0  0  0  3  0  0  0  0  0  0
  161.3440  206.8110  152.2160 C   0  0  0  0  0  0  0  0  0  0  0  0
  160.4830  208.7590  154.0540 C   0  0  0  0  0  0  0  0  0  0  0  0
  161.3070  209.3280  157.0640 C   0  0  0  0  0  1  0  0  0  0  0  0
  160.9720  210.3300  155.9730 C   0  0  2  0  0  3  0  0  0  0  0  0
  158.5480  213.0560  157.2600 C   0  0  0  0  0  1  0  0  0  0  0  0
  161.4030  212.5170  157.2540 C   0  0  0  0  0  1  0  0  0  0  0  0
  159.1110  211.8490  156.5780 C   0  0  0  0  0  0  0  0  0  0  0  0
  160.4340  211.5960  156.5830 C   0  0  0  0  0  0  0  0  0  0  0  0
  158.2060  210.9760  155.8880 N   0  0  0  0  0  0  0  0  0  0  0  0
  160.0320  209.7330  155.0170 N   0  0  0  0  0  0  0  0  0  0  0  0
  158.6230  209.9940  155.1530 C   0  0  0  0  0  3  0  0  0  0  0  0
  161.7740  205.7890  151.2210 C   0  0  0  0  0  2  0  0  0  0  0  0
  160.8700  204.5720  151.2650 C   0  0  2  0  0  3  0  0  0  0  0  0
  161.4210  203.5820  152.2020 N   0  0  0  0  0  2  0  0  0  0  0  0
  161.6120  203.4270  150.7510 C   0  0  1  0  0  3  0  0  0  0  0  0
  160.6500  202.3780  150.2170 C   0  0  0  0  0  2  0  0  0  0  0  0
  160.8190  200.9810  148.2880 O   0  0  0  0  0  0  0  0  0  0  0  0
  161.1960  203.2510  147.9140 N   0  0  0  0  0  2  0  0  0  0  0  0
  160.8950  202.1440  148.7620 C   0  0  0  0  0  0  0  0  0  0  0  0
  161.4800  203.0910  146.4940 C   0  0  0  0  0  2  0  0  0  0  0  0
  162.1120  204.3480  145.8840 C   0  0  2  0  0  0  0  0  0  0  0  0
  163.3440  204.0300  145.3350 F   0  0  0  0  0  0  0  0  0  0  0  0
  162.3560  205.3150  147.0360 C   0  0  0  0  0  1  0  0  0  0  0  0
  160.2750  204.0190  144.3610 O   0  0  0  0  0  1  0  0  0  0  0  0
  160.4300  206.1750  145.3230 C   0  0  0  0  0  1  0  0  0  0  0  0
  161.2050  204.9730  144.7870 C   0  0  1  0  0  0  0  0  0  0  0  0
  162.0090  205.3970  143.5530 C   0  0  0  0  0  2  0  0  0  0  0  0
  161.2610  206.2120  142.6990 O   0  0  0  0  0  1  0  0  0  0  0  0
  161.7000  210.4900  152.7720 N   0  0  0  0  0  2  0  0  0  0  0  0
  159.6500  212.6180  152.6840 C   0  0  0  0  0  1  0  0  0  0  0  0
  161.9090  211.5260  149.2020 C   0  0  0  0  0  3  0  0  0  0  0  0
  162.1430  210.8560  150.4060 C   0  0  0  0  0  3  0  0  0  0  0  0
  160.2390  212.8970  150.2900 C   0  0  0  0  0  3  0  0  0  0  0  0
  160.9540  212.5480  149.1400 C   0  0  0  0  0  0  0  0  0  0  0  0
  160.4760  212.2420  151.5010 C   0  0  0  0  0  0  0  0  0  0  0  0
  161.4450  211.2140  151.5630 C   0  0  0  0  0  0  0  0  0  0  0  0
  161.6890  214.0240  145.6850 C   0  0  0  0  0  3  0  0  0  0  0  0
  161.9390  213.3380  146.9910 C   0  0  0  0  0  2  0  0  0  0  0  0
  160.2720  212.2180  144.9230 N   0  0  0  0  0  0  0  0  0  0  0  0
  160.6800  213.2800  147.8660 C   0  0  1  0  0  3  0  0  0  0  0  0
  160.8320  214.1310  143.4740 N   0  0  0  0  0  1  0  0  0  0  0  0
  160.9160  213.4870  144.7380 C   0  0  0  0  0  0  0  0  0  0  0  0
  159.6390  211.8470  146.0010 C   0  0  0  0  0  3  0  0  0  0  0  0
  159.4060  212.7580  147.1780 C   0  0  2  0  0  3  0  0  0  0  0  0
  158.5940  213.8310  146.8070 O   0  0  0  0  0  1  0  0  0  0  0  0
  1  6  1  0  0  0  0
  2  5  1  0  0  0  0
  2  1  2  0  0  0  0
  3  4  1  0  0  0  0
  5  3  2  0  0  0  0
  6  4  2  0  0  0  0
  6 14  1  0  0  0  0
  8 12  1  0  0  0  0
  8  7  1  1  0  0  0
 11 12  2  0  0  0  0
 11  9  1  0  0  0  0
 12 10  1  0  0  0  0
 13 11  1  0  0  0  0
 14 15  1  0  0  0  0
 14  8  1  0  0  0  0
 15 13  2  0  0  0  0
 16  5  1  0  0  0  0
 17 16  1  1  0  0  0
 17 18  1  0  0  0  0
 19 20  1  6  0  0  0
 19 17  1  0  0  0  0
 19 18  1  0  0  0  0
 21 23  2  0  0  0  0
 22 23  1  0  0  0  0
 23 20  1  0  0  0  0
 24 22  1  0  0  0  0
 25 24  1  0  0  0  0
 25 27  1  1  0  0  0
 26 25  1  0  0  0  0
 28 30  1  0  0  0  0
 30 29  1  1  0  0  0
 30 25  1  0  0  0  0
 31 30  1  0  0  0  0
 32 31  1  0  0  0  0
 33  1  1  0  0  0  0
 35 36  1  0  0  0  0
 36 40  2  0  0  0  0
 37 39  2  0  0  0  0
 38 35  2  0  0  0  0
 38 37  1  0  0  0  0
 39 40  1  0  0  0  0
 39 34  1  0  0  0  0
 40 33  1  0  0  0  0
 41 42  1  0  0  0  0
 42 44  1  0  0  0  0
 43 47  2  0  0  0  0
 44 38  1  1  0  0  0
 45 46  1  0  0  0  0
 46 43  1  0  0  0  0
 46 41  2  0  0  0  0
 47 48  1  0  0  0  0
 48 49  1  6  0  0  0
 48 44  1  0  0  0  0
M  END
>  <MODEL>
2

>  <REMARK>
 VINA RESULT:      -7.3      3.118      7.737
  Name = 
  12 active torsions:
  status: ('A' for Active; 'I' for Inactive)
    1  A    between atoms: C_2  and  C_8
    2  A    between atoms: N_3  and  C_38
    3  A    between atoms: C_8  and  C_41
    4  A    between atoms: C_9  and  C_38
    5  A    between atoms: C_9  and  C_49
    6  A    between atoms: C_15  and  N_27
    7  A    between atoms: C_18  and  C_33
    8  A    between atoms: N_27  and  C_40
    9  A    between atoms: C_28  and  C_49
   10  A    between atoms: C_36  and  C_47
   11  A    between atoms: C_39  and  C_47
   12  A    between atoms: C_43  and  N_44
                            x       y       z     vdW  Elec       q    Type
                         _______ _______ _______ _____ _____    ______ ____

>  <TORSDO>
F 12

$$$$
=
 OpenBabel11052409423D

 49 53  0  0  1  0  0  0  0  0999 V2000
  161.4250  210.6510  151.4950 C   0  0  0  0  0  0  0  0  0  0  0  0
  161.2600  211.3830  150.3090 C   0  0  0  0  0  3  0  0  0  0  0  0
  159.9450  213.0370  151.4800 C   0  0  0  0  0  3  0  0  0  0  0  0
  160.1050  212.3200  152.6670 C   0  0  0  0  0  3  0  0  0  0  0  0
  160.5240  212.5690  150.2990 C   0  0  0  0  0  0  0  0  0  0  0  0
  160.8430  211.1260  152.6940 C   0  0  0  0  0  0  0  0  0  0  0  0
  158.7600  210.3430  154.9540 C   0  0  0  0  0  1  0  0  0  0  0  0
  159.9130  209.5190  154.4070 C   0  0  2  0  0  3  0  0  0  0  0  0
  161.9680  207.9070  157.2600 C   0  0  0  0  0  1  0  0  0  0  0  0
  159.5560  207.3500  155.7410 C   0  0  0  0  0  1  0  0  0  0  0  0
  161.5200  208.8070  156.1530 C   0  0  0  0  0  0  0  0  0  0  0  0
  160.3970  208.5530  155.4550 C   0  0  0  0  0  0  0  0  0  0  0  0
  162.3360  209.9420  155.8300 N   0  0  0  0  0  0  0  0  0  0  0  0
  160.9820  210.4060  153.9340 N   0  0  0  0  0  0  0  0  0  0  0  0
  162.1000  210.6870  154.7960 C   0  0  0  0  0  3  0  0  0  0  0  0
  160.3860  213.3470  149.0370 C   0  0  0  0  0  2  0  0  0  0  0  0
  161.5290  213.0480  148.0850 C   0  0  2  0  0  3  0  0  0  0  0  0
  162.3990  214.2290  147.9720 N   0  0  0  0  0  2  0  0  0  0  0  0
  161.4080  213.9260  146.9270 C   0  0  1  0  0  3  0  0  0  0  0  0
  162.1030  213.3050  145.7270 C   0  0  0  0  0  2  0  0  0  0  0  0
  159.9490  213.0780  144.7200 O   0  0  0  0  0  0  0  0  0  0  0  0
  161.7030  213.4950  143.2440 N   0  0  0  0  0  2  0  0  0  0  0  0
  161.1800  213.2770  144.5520 C   0  0  0  0  0  0  0  0  0  0  0  0
  160.8680  213.4470  142.0510 C   0  0  0  0  0  2  0  0  0  0  0  0
  160.8510  212.0540  141.4090 C   0  0  2  0  0  0  0  0  0  0  0  0
  160.3510  211.1320  142.3140 F   0  0  0  0  0  0  0  0  0  0  0  0
  162.3030  211.6880  141.1310 C   0  0  0  0  0  1  0  0  0  0  0  0
  160.5570  212.8870  139.1670 O   0  0  0  0  0  1  0  0  0  0  0  0
  159.9390  210.6280  139.5070 C   0  0  0  0  0  1  0  0  0  0  0  0
  159.9900  212.0280  140.1150 C   0  0  1  0  0  0  0  0  0  0  0  0
  158.5620  212.5230  140.3690 C   0  0  0  0  0  2  0  0  0  0  0  0
  158.1700  213.4850  139.4340 O   0  0  0  0  0  1  0  0  0  0  0  0
  162.2630  209.4870  151.5040 N   0  0  0  0  0  2  0  0  0  0  0  0
  162.2890  208.9850  148.5910 C   0  0  0  0  0  1  0  0  0  0  0  0
  161.0440  205.9710  151.3820 C   0  0  0  0  0  3  0  0  0  0  0  0
  161.4420  207.2230  151.8600 C   0  0  0  0  0  3  0  0  0  0  0  0
  161.4850  206.6970  149.1160 C   0  0  0  0  0  3  0  0  0  0  0  0
  161.0630  205.7050  150.0070 C   0  0  0  0  0  0  0  0  0  0  0  0
  161.8970  207.9470  149.5870 C   0  0  0  0  0  0  0  0  0  0  0  0
  161.8840  208.2110  150.9760 C   0  0  0  0  0  0  0  0  0  0  0  0
  161.1990  202.5880  147.7890 C   0  0  0  0  0  3  0  0  0  0  0  0
  161.5660  203.9350  148.3250 C   0  0  0  0  0  2  0  0  0  0  0  0
  161.8870  201.5040  149.8400 N   0  0  0  0  0  0  0  0  0  0  0  0
  160.6400  204.3770  149.4660 C   0  0  1  0  0  3  0  0  0  0  0  0
  161.1150  200.2170  147.8850 N   0  0  0  0  0  1  0  0  0  0  0  0
  161.3590  201.4730  148.5060 C   0  0  0  0  0  0  0  0  0  0  0  0
  161.5310  202.3480  150.7680 C   0  0  0  0  0  3  0  0  0  0  0  0
  160.4230  203.3520  150.5920 C   0  0  2  0  0  3  0  0  0  0  0  0
  159.2020  202.7000  150.4120 O   0  0  0  0  0  1  0  0  0  0  0  0
  1 33  1  0  0  0  0
  1  6  1  0  0  0  0
  2  1  2  0  0  0  0
  3  4  1  0  0  0  0
  4  6  2  0  0  0  0
  5  2  1  0  0  0  0
  5  3  2  0  0  0  0
  6 14  1  0  0  0  0
  8  7  1  1  0  0  0
  8 12  1  0  0  0  0
 11  9  1  0  0  0  0
 12 10  1  0  0  0  0
 12 11  2  0  0  0  0
 13 11  1  0  0  0  0
 14  8  1  0  0  0  0
 14 15  1  0  0  0  0
 15 13  2  0  0  0  0
 16  5  1  0  0  0  0
 17 16  1  1  0  0  0
 18 17  1  0  0  0  0
 19 20  1  6  0  0  0
 19 18  1  0  0  0  0
 19 17  1  0  0  0  0
 22 23  1  0  0  0  0
 23 21  2  0  0  0  0
 23 20  1  0  0  0  0
 24 22  1  0  0  0  0
 25 27  1  6  0  0  0
 25 24  1  0  0  0  0
 25 26  1  0  0  0  0
 28 30  1  0  0  0  0
 30 29  1  6  0  0  0
 30 31  1  0  0  0  0
 30 25  1  0  0  0  0
 32 31  1  0  0  0  0
 34 39  1  0  0  0  0
 35 36  1  0  0  0  0
 37 39  2  0  0  0  0
 37 38  1  0  0  0  0
 38 35  2  0  0  0  0
 39 40  1  0  0  0  0
 40 33  1  0  0  0  0
 40 36  2  0  0  0  0
 41 42  1  0  0  0  0
 41 46  2  0  0  0  0
 42 44  1  0  0  0  0
 43 47  2  0  0  0  0
 44 38  1  1  0  0  0
 44 48  1  0  0  0  0
 45 46  1  0  0  0  0
 46 43  1  0  0  0  0
 48 49  1  6  0  0  0
 48 47  1  0  0  0  0
M  END
>  <MODEL>
3

>  <REMARK>
 VINA RESULT:      -7.3      2.050      2.870
  Name = 
  12 active torsions:
  status: ('A' for Active; 'I' for Inactive)
    1  A    between atoms: C_2  and  C_8
    2  A    between atoms: N_3  and  C_38
    3  A    between atoms: C_8  and  C_41
    4  A    between atoms: C_9  and  C_38
    5  A    between atoms: C_9  and  C_49
    6  A    between atoms: C_15  and  N_27
    7  A    between atoms: C_18  and  C_33
    8  A    between atoms: N_27  and  C_40
    9  A    between atoms: C_28  and  C_49
   10  A    between atoms: C_36  and  C_47
   11  A    between atoms: C_39  and  C_47
   12  A    between atoms: C_43  and  N_44
                            x       y       z     vdW  Elec       q    Type
                         _______ _______ _______ _____ _____    ______ ____

>  <TORSDO>
F 12

$$$$
=
 OpenBabel11052409423D

 49 53  0  0  1  0  0  0  0  0999 V2000
  160.0280  212.3430  152.2340 C   0  0  0  0  0  0  0  0  0  0  0  0
  160.6410  212.7080  151.0250 C   0  0  0  0  0  3  0  0  0  0  0  0
  159.0050  214.4530  150.6900 C   0  0  0  0  0  3  0  0  0  0  0  0
  158.3880  214.1030  151.8920 C   0  0  0  0  0  3  0  0  0  0  0  0
  160.1340  213.7560  150.2560 C   0  0  0  0  0  0  0  0  0  0  0  0
  158.8870  213.0510  152.6780 C   0  0  0  0  0  0  0  0  0  0  0  0
  159.7510  213.3160  155.7180 C   0  0  0  0  0  1  0  0  0  0  0  0
  158.3810  213.5460  155.1040 C   0  0  2  0  0  3  0  0  0  0  0  0
  155.6040  211.8230  157.1710 C   0  0  0  0  0  1  0  0  0  0  0  0
  157.0990  214.3130  157.1950 C   0  0  0  0  0  1  0  0  0  0  0  0
  156.6090  212.1380  156.1090 C   0  0  0  0  0  0  0  0  0  0  0  0
  157.3080  213.2890  156.1260 C   0  0  0  0  0  0  0  0  0  0  0  0
  156.7940  211.1900  155.0480 N   0  0  0  0  0  0  0  0  0  0  0  0
  158.2220  212.7080  153.9090 N   0  0  0  0  0  0  0  0  0  0  0  0
  157.5340  211.4480  154.0160 C   0  0  0  0  0  3  0  0  0  0  0  0
  160.8170  214.1480  148.9920 C   0  0  0  0  0  2  0  0  0  0  0  0
  160.2210  213.4210  147.8020 C   0  0  2  0  0  3  0  0  0  0  0  0
  160.8990  212.1270  147.6240 N   0  0  0  0  0  2  0  0  0  0  0  0
  161.2540  213.2810  146.7820 C   0  0  1  0  0  3  0  0  0  0  0  0
  160.6160  213.1290  145.4100 C   0  0  0  0  0  2  0  0  0  0  0  0
  162.8140  213.4990  144.5540 O   0  0  0  0  0  0  0  0  0  0  0  0
  161.3760  212.3290  143.1430 N   0  0  0  0  0  2  0  0  0  0  0  0
  161.6700  213.0120  144.3590 C   0  0  0  0  0  0  0  0  0  0  0  0
  162.3440  212.2070  142.0610 C   0  0  0  0  0  2  0  0  0  0  0  0
  161.9370  213.0160  140.8240 C   0  0  2  0  0  0  0  0  0  0  0  0
  162.4330  214.3060  140.9280 F   0  0  0  0  0  0  0  0  0  0  0  0
  160.4170  213.1030  140.8420 C   0  0  0  0  0  1  0  0  0  0  0  0
  163.7310  212.8820  139.2200 O   0  0  0  0  0  1  0  0  0  0  0  0
  162.5960  210.8520  139.6560 C   0  0  0  0  0  1  0  0  0  0  0  0
  162.4630  212.3660  139.5130 C   0  0  1  0  0  0  0  0  0  0  0  0
  161.5630  212.6860  138.3140 C   0  0  0  0  0  2  0  0  0  0  0  0
  161.4890  211.6160  137.4190 O   0  0  0  0  0  1  0  0  0  0  0  0
  160.6200  211.3270  153.0540 N   0  0  0  0  0  2  0  0  0  0  0  0
  160.3910  209.0500  154.9250 C   0  0  0  0  0  1  0  0  0  0  0  0
  161.6210  208.4970  150.8500 C   0  0  0  0  0  3  0  0  0  0  0  0
  161.3270  209.7850  151.3070 C   0  0  0  0  0  3  0  0  0  0  0  0
  161.0890  207.6020  153.0340 C   0  0  0  0  0  3  0  0  0  0  0  0
  161.5040  207.4010  151.7150 C   0  0  0  0  0  0  0  0  0  0  0  0
  160.7800  208.8850  153.4950 C   0  0  0  0  0  0  0  0  0  0  0  0
  160.8920  209.9890  152.6200 C   0  0  0  0  0  0  0  0  0  0  0  0
  161.6480  203.5790  151.8670 C   0  0  0  0  0  3  0  0  0  0  0  0
  161.3920  204.9840  152.3120 C   0  0  0  0  0  2  0  0  0  0  0  0
  159.9330  203.7280  150.1660 N   0  0  0  0  0  0  0  0  0  0  0  0
  161.8160  206.0130  151.2560 C   0  0  1  0  0  3  0  0  0  0  0  0
  161.1620  201.6350  150.5930 N   0  0  0  0  0  1  0  0  0  0  0  0
  160.9580  203.0140  150.8730 C   0  0  0  0  0  0  0  0  0  0  0  0
  160.0340  204.9540  149.7340 C   0  0  0  0  0  3  0  0  0  0  0  0
  161.3020  205.7620  149.8280 C   0  0  2  0  0  3  0  0  0  0  0  0
  162.3080  205.1760  149.0570 O   0  0  0  0  0  1  0  0  0  0  0  0
  1  6  1  0  0  0  0
  1 33  1  0  0  0  0
  2  1  2  0  0  0  0
  3  4  1  0  0  0  0
  4  6  2  0  0  0  0
  5  3  2  0  0  0  0
  5  2  1  0  0  0  0
  6 14  1  0  0  0  0
  8  7  1  1  0  0  0
  8 12  1  0  0  0  0
 11 12  2  0  0  0  0
 11  9  1  0  0  0  0
 12 10  1  0  0  0  0
 13 11  1  0  0  0  0
 14 15  1  0  0  0  0
 14  8  1  0  0  0  0
 15 13  2  0  0  0  0
 16  5  1  0  0  0  0
 17 16  1  1  0  0  0
 18 17  1  0  0  0  0
 19 20  1  6  0  0  0
 19 18  1  0  0  0  0
 19 17  1  0  0  0  0
 22 23  1  0  0  0  0
 23 21  2  0  0  0  0
 23 20  1  0  0  0  0
 24 22  1  0  0  0  0
 25 27  1  6  0  0  0
 25 26  1  0  0  0  0
 25 24  1  0  0  0  0
 28 30  1  0  0  0  0
 30 29  1  1  0  0  0
 30 25  1  0  0  0  0
 31 30  1  0  0  0  0
 32 31  1  0  0  0  0
 35 36  2  0  0  0  0
 35 38  1  0  0  0  0
 36 40  1  0  0  0  0
 37 39  1  0  0  0  0
 38 37  2  0  0  0  0
 39 34  1  0  0  0  0
 40 33  1  0  0  0  0
 40 39  2  0  0  0  0
 41 42  1  0  0  0  0
 43 46  1  0  0  0  0
 44 38  1  1  0  0  0
 44 42  1  0  0  0  0
 45 46  1  0  0  0  0
 46 41  2  0  0  0  0
 47 48  1  0  0  0  0
 47 43  2  0  0  0  0
 48 49  1  6  0  0  0
 48 44  1  0  0  0  0
M  END
>  <MODEL>
4

>  <REMARK>
 VINA RESULT:      -7.2      2.172      2.969
  Name = 
  12 active torsions:
  status: ('A' for Active; 'I' for Inactive)
    1  A    between atoms: C_2  and  C_8
    2  A    between atoms: N_3  and  C_38
    3  A    between atoms: C_8  and  C_41
    4  A    between atoms: C_9  and  C_38
    5  A    between atoms: C_9  and  C_49
    6  A    between atoms: C_15  and  N_27
    7  A    between atoms: C_18  and  C_33
    8  A    between atoms: N_27  and  C_40
    9  A    between atoms: C_28  and  C_49
   10  A    between atoms: C_36  and  C_47
   11  A    between atoms: C_39  and  C_47
   12  A    between atoms: C_43  and  N_44
                            x       y       z     vdW  Elec       q    Type
                         _______ _______ _______ _____ _____    ______ ____

>  <TORSDO>
F 12

$$$$
=
 OpenBabel11052409423D

 49 53  0  0  1  0  0  0  0  0999 V2000
  161.4360  212.1820  149.3220 C   0  0  0  0  0  0  0  0  0  0  0  0
  160.9660  212.3020  150.6390 C   0  0  0  0  0  3  0  0  0  0  0  0
  159.7810  214.3270  150.0610 C   0  0  0  0  0  3  0  0  0  0  0  0
  160.2390  214.2170  148.7470 C   0  0  0  0  0  3  0  0  0  0  0  0
  160.1440  213.3680  151.0090 C   0  0  0  0  0  0  0  0  0  0  0  0
  161.0660  213.1500  148.3590 C   0  0  0  0  0  0  0  0  0  0  0  0
  159.8670  211.7570  145.7730 C   0  0  0  0  0  1  0  0  0  0  0  0
  160.5760  213.0960  145.8810 C   0  0  2  0  0  3  0  0  0  0  0  0
  163.2330  213.5100  143.1000 C   0  0  0  0  0  1  0  0  0  0  0  0
  160.3720  213.8820  143.4410 C   0  0  0  0  0  1  0  0  0  0  0  0
  162.5680  213.2690  144.4180 C   0  0  0  0  0  0  0  0  0  0  0  0
  161.2400  213.4330  144.5730 C   0  0  0  0  0  0  0  0  0  0  0  0
  163.3880  212.8820  145.5300 N   0  0  0  0  0  0  0  0  0  0  0  0
  161.5290  213.0710  146.9960 N   0  0  0  0  0  0  0  0  0  0  0  0
  162.9170  212.7950  146.7350 C   0  0  0  0  0  3  0  0  0  0  0  0
  159.6300  213.4600  152.4030 C   0  0  0  0  0  2  0  0  0  0  0  0
  158.2930  212.7570  152.5380 C   0  0  2  0  0  3  0  0  0  0  0  0
  157.2040  213.7350  152.3960 N   0  0  0  0  0  2  0  0  0  0  0  0
  157.6210  213.2660  153.7280 C   0  0  1  0  0  3  0  0  0  0  0  0
  156.6250  212.2410  154.2450 C   0  0  0  0  0  2  0  0  0  0  0  0
  156.6250  211.4990  156.5150 O   0  0  0  0  0  0  0  0  0  0  0  0
  158.4120  210.7520  155.2190 N   0  0  0  0  0  2  0  0  0  0  0  0
  157.2060  211.4910  155.3980 C   0  0  0  0  0  0  0  0  0  0  0  0
  159.0530  210.0270  156.3080 C   0  0  0  0  0  2  0  0  0  0  0  0
  160.5620  209.8640  156.0880 C   0  0  2  0  0  0  0  0  0  0  0  0
  161.2520  210.4690  157.1260 F   0  0  0  0  0  0  0  0  0  0  0  0
  160.8980  210.6180  154.8080 C   0  0  0  0  0  1  0  0  0  0  0  0
  162.1650  208.1740  156.7060 O   0  0  0  0  0  1  0  0  0  0  0  0
  159.9100  207.4610  156.6200 C   0  0  0  0  0  1  0  0  0  0  0  0
  160.9720  208.3660  156.0010 C   0  0  1  0  0  0  0  0  0  0  0  0
  161.2320  207.9280  154.5550 C   0  0  0  0  0  2  0  0  0  0  0  0
  160.6130  206.7110  154.2610 O   0  0  0  0  0  1  0  0  0  0  0  0
  162.2000  211.0300  148.9400 N   0  0  0  0  0  2  0  0  0  0  0  0
  162.3100  209.8320  151.6400 C   0  0  0  0  0  1  0  0  0  0  0  0
  161.0020  207.5770  148.2310 C   0  0  0  0  0  3  0  0  0  0  0  0
  161.3910  208.9080  148.0610 C   0  0  0  0  0  3  0  0  0  0  0  0
  161.4480  207.7490  150.6020 C   0  0  0  0  0  3  0  0  0  0  0  0
  161.0310  206.9920  149.5030 C   0  0  0  0  0  0  0  0  0  0  0  0
  161.8250  209.0850  150.4430 C   0  0  0  0  0  0  0  0  0  0  0  0
  161.7890  209.6750  149.1590 C   0  0  0  0  0  0  0  0  0  0  0  0
  160.9790  203.2090  148.9210 C   0  0  0  0  0  3  0  0  0  0  0  0
  161.3280  204.6480  148.7100 C   0  0  0  0  0  2  0  0  0  0  0  0
  162.1720  203.1530  151.0250 N   0  0  0  0  0  0  0  0  0  0  0  0
  160.6240  205.5690  149.7150 C   0  0  1  0  0  3  0  0  0  0  0  0
  161.1280  201.1360  150.0690 N   0  0  0  0  0  1  0  0  0  0  0  0
  161.3840  202.5330  149.9990 C   0  0  0  0  0  0  0  0  0  0  0  0
  161.9440  204.3290  151.5390 C   0  0  0  0  0  3  0  0  0  0  0  0
  160.7390  205.1630  151.1940 C   0  0  2  0  0  3  0  0  0  0  0  0
  159.5700  204.5170  151.6010 O   0  0  0  0  0  1  0  0  0  0  0  0
  1  2  1  0  0  0  0
  2  5  2  0  0  0  0
  3  5  1  0  0  0  0
  4  3  2  0  0  0  0
  5 16  1  0  0  0  0
  6  4  1  0  0  0  0
  6  1  2  0  0  0  0
  8  7  1  6  0  0  0
  8 14  1  0  0  0  0
  9 11  1  0  0  0  0
 10 12  1  0  0  0  0
 11 12  2  0  0  0  0
 11 13  1  0  0  0  0
 12  8  1  0  0  0  0
 13 15  2  0  0  0  0
 14  6  1  0  0  0  0
 15 14  1  0  0  0  0
 17 16  1  1  0  0  0
 17 19  1  0  0  0  0
 18 17  1  0  0  0  0
 18 19  1  0  0  0  0
 19 20  1  6  0  0  0
 20 23  1  0  0  0  0
 22 23  1  0  0  0  0
 22 24  1  0  0  0  0
 23 21  2  0  0  0  0
 25 27  1  6  0  0  0
 25 24  1  0  0  0  0
 25 26  1  0  0  0  0
 30 25  1  0  0  0  0
 30 29  1  1  0  0  0
 30 28  1  0  0  0  0
 31 30  1  0  0  0  0
 32 31  1  0  0  0  0
 33 40  1  0  0  0  0
 33  1  1  0  0  0  0
 35 38  1  0  0  0  0
 36 35  2  0  0  0  0
 36 40  1  0  0  0  0
 38 37  2  0  0  0  0
 39 37  1  0  0  0  0
 39 34  1  0  0  0  0
 40 39  2  0  0  0  0
 41 46  2  0  0  0  0
 42 41  1  0  0  0  0
 42 44  1  0  0  0  0
 43 47  2  0  0  0  0
 44 38  1  1  0  0  0
 44 48  1  0  0  0  0
 46 45  1  0  0  0  0
 46 43  1  0  0  0  0
 48 47  1  0  0  0  0
 48 49  1  6  0  0  0
M  END
>  <MODEL>
5

>  <REMARK>
 VINA RESULT:      -6.6      4.884      9.717
  Name = 
  12 active torsions:
  status: ('A' for Active; 'I' for Inactive)
    1  A    between atoms: C_2  and  C_8
    2  A    between atoms: N_3  and  C_38
    3  A    between atoms: C_8  and  C_41
    4  A    between atoms: C_9  and  C_38
    5  A    between atoms: C_9  and  C_49
    6  A    between atoms: C_15  and  N_27
    7  A    between atoms: C_18  and  C_33
    8  A    between atoms: N_27  and  C_40
    9  A    between atoms: C_28  and  C_49
   10  A    between atoms: C_36  and  C_47
   11  A    between atoms: C_39  and  C_47
   12  A    between atoms: C_43  and  N_44
                            x       y       z     vdW  Elec       q    Type
                         _______ _______ _______ _____ _____    ______ ____

>  <TORSDO>
F 12

$$$$
=
 OpenBabel11052409423D

 49 53  0  0  1  0  0  0  0  0999 V2000
  160.8410  211.4730  151.9500 C   0  0  0  0  0  0  0  0  0  0  0  0
  160.5220  212.3760  150.9240 C   0  0  0  0  0  3  0  0  0  0  0  0
  159.1330  213.6480  152.4370 C   0  0  0  0  0  3  0  0  0  0  0  0
  159.4460  212.7590  153.4680 C   0  0  0  0  0  3  0  0  0  0  0  0
  159.6720  213.4570  151.1640 C   0  0  0  0  0  0  0  0  0  0  0  0
  160.3000  211.6670  153.2420 C   0  0  0  0  0  0  0  0  0  0  0  0
  158.5010  210.4280  155.5430 C   0  0  0  0  0  1  0  0  0  0  0  0
  159.6130  209.7610  154.7520 C   0  0  2  0  0  3  0  0  0  0  0  0
  162.0170  207.8120  157.0720 C   0  0  0  0  0  1  0  0  0  0  0  0
  159.4720  207.3900  155.7370 C   0  0  0  0  0  1  0  0  0  0  0  0
  161.4230  208.8560  156.1810 C   0  0  0  0  0  0  0  0  0  0  0  0
  160.2390  208.6630  155.5690 C   0  0  0  0  0  0  0  0  0  0  0  0
  162.1630  210.0670  155.9680 N   0  0  0  0  0  0  0  0  0  0  0  0
  160.5960  210.7630  154.3250 N   0  0  0  0  0  0  0  0  0  0  0  0
  161.7920  210.9560  155.1020 C   0  0  0  0  0  3  0  0  0  0  0  0
  159.3700  214.4210  150.0700 C   0  0  0  0  0  2  0  0  0  0  0  0
  158.9850  213.6960  148.7950 C   0  0  2  0  0  3  0  0  0  0  0  0
  160.1880  213.1310  148.1650 N   0  0  0  0  0  2  0  0  0  0  0  0
  159.6000  214.3850  147.6670 C   0  0  1  0  0  3  0  0  0  0  0  0
  158.8130  214.1120  146.3960 C   0  0  0  0  0  2  0  0  0  0  0  0
  160.9330  214.4530  145.3490 O   0  0  0  0  0  0  0  0  0  0  0  0
  159.1510  214.0680  143.8970 N   0  0  0  0  0  2  0  0  0  0  0  0
  159.7030  214.2290  145.2010 C   0  0  0  0  0  0  0  0  0  0  0  0
  159.9530  214.2030  142.6870 C   0  0  0  0  0  2  0  0  0  0  0  0
  159.9090  212.9410  141.8180 C   0  0  2  0  0  0  0  0  0  0  0  0
  158.6620  212.8260  141.2260 F   0  0  0  0  0  0  0  0  0  0  0  0
  160.0840  211.7580  142.7610 C   0  0  0  0  0  1  0  0  0  0  0  0
  161.6500  214.2070  140.7350 O   0  0  0  0  0  1  0  0  0  0  0  0
  162.0560  211.8860  140.9450 C   0  0  0  0  0  1  0  0  0  0  0  0
  161.0030  212.9670  140.7130 C   0  0  1  0  0  0  0  0  0  0  0  0
  160.4050  212.8000  139.3120 C   0  0  0  0  0  2  0  0  0  0  0  0
  160.3410  214.0150  138.6250 O   0  0  0  0  0  1  0  0  0  0  0  0
  161.7900  210.4260  151.7080 N   0  0  0  0  0  2  0  0  0  0  0  0
  162.3820  210.6750  148.8220 C   0  0  0  0  0  1  0  0  0  0  0  0
  160.7730  207.0590  150.4830 C   0  0  0  0  0  3  0  0  0  0  0  0
  161.0180  208.1480  151.3240 C   0  0  0  0  0  3  0  0  0  0  0  0
  161.5960  208.3320  148.5980 C   0  0  0  0  0  3  0  0  0  0  0  0
  161.0600  207.1490  149.1150 C   0  0  0  0  0  0  0  0  0  0  0  0
  161.8570  209.4200  149.4350 C   0  0  0  0  0  0  0  0  0  0  0  0
  161.5730  209.3260  150.8160 C   0  0  0  0  0  0  0  0  0  0  0  0
  160.2750  205.3830  145.8110 C   0  0  0  0  0  3  0  0  0  0  0  0
  160.4920  206.5060  146.7750 C   0  0  0  0  0  2  0  0  0  0  0  0
  162.6020  204.7340  145.9300 N   0  0  0  0  0  0  0  0  0  0  0  0
  160.8040  206.0030  148.1910 C   0  0  1  0  0  3  0  0  0  0  0  0
  161.0170  203.6160  144.4100 N   0  0  0  0  0  1  0  0  0  0  0  0
  161.2670  204.5760  145.4290 C   0  0  0  0  0  0  0  0  0  0  0  0
  162.9150  204.9410  147.1780 C   0  0  0  0  0  3  0  0  0  0  0  0
  161.9060  204.9350  148.2970 C   0  0  2  0  0  3  0  0  0  0  0  0
  161.3310  203.6700  148.4240 O   0  0  0  0  0  1  0  0  0  0  0  0
  1  6  1  0  0  0  0
  2  5  1  0  0  0  0
  2  1  2  0  0  0  0
  3  4  1  0  0  0  0
  5  3  2  0  0  0  0
  6  4  2  0  0  0  0
  6 14  1  0  0  0  0
  8  7  1  1  0  0  0
  8 12  1  0  0  0  0
 11  9  1  0  0  0  0
 12 10  1  0  0  0  0
 12 11  2  0  0  0  0
 13 11  1  0  0  0  0
 14  8  1  0  0  0  0
 14 15  1  0  0  0  0
 15 13  2  0  0  0  0
 16  5  1  0  0  0  0
 17 16  1  1  0  0  0
 18 17  1  0  0  0  0
 19 20  1  6  0  0  0
 19 18  1  0  0  0  0
 19 17  1  0  0  0  0
 22 23  1  0  0  0  0
 23 21  2  0  0  0  0
 23 20  1  0  0  0  0
 24 22  1  0  0  0  0
 25 24  1  0  0  0  0
 25 27  1  1  0  0  0
 26 25  1  0  0  0  0
 30 28  1  0  0  0  0
 30 29  1  1  0  0  0
 30 25  1  0  0  0  0
 31 30  1  0  0  0  0
 32 31  1  0  0  0  0
 33  1  1  0  0  0  0
 34 39  1  0  0  0  0
 35 36  1  0  0  0  0
 37 38  1  0  0  0  0
 37 39  2  0  0  0  0
 38 35  2  0  0  0  0
 39 40  1  0  0  0  0
 40 36  2  0  0  0  0
 40 33  1  0  0  0  0
 41 42  1  0  0  0  0
 42 44  1  0  0  0  0
 43 47  2  0  0  0  0
 44 48  1  0  0  0  0
 44 38  1  1  0  0  0
 45 46  1  0  0  0  0
 46 41  2  0  0  0  0
 46 43  1  0  0  0  0
 47 48  1  0  0  0  0
 48 49  1  6  0  0  0
M  END
>  <MODEL>
6

>  <REMARK>
 VINA RESULT:      -6.3      2.005      2.852
  Name = 
  12 active torsions:
  status: ('A' for Active; 'I' for Inactive)
    1  A    between atoms: C_2  and  C_8
    2  A    between atoms: N_3  and  C_38
    3  A    between atoms: C_8  and  C_41
    4  A    between atoms: C_9  and  C_38
    5  A    between atoms: C_9  and  C_49
    6  A    between atoms: C_15  and  N_27
    7  A    between atoms: C_18  and  C_33
    8  A    between atoms: N_27  and  C_40
    9  A    between atoms: C_28  and  C_49
   10  A    between atoms: C_36  and  C_47
   11  A    between atoms: C_39  and  C_47
   12  A    between atoms: C_43  and  N_44
                            x       y       z     vdW  Elec       q    Type
                         _______ _______ _______ _____ _____    ______ ____

>  <TORSDO>
F 12

$$$$
=
 OpenBabel11052409423D

 49 53  0  0  1  0  0  0  0  0999 V2000
  159.0840  213.2840  150.9630 C   0  0  0  0  0  0  0  0  0  0  0  0
  159.1970  213.3870  149.5670 C   0  0  0  0  0  3  0  0  0  0  0  0
  157.0000  214.3850  149.4360 C   0  0  0  0  0  3  0  0  0  0  0  0
  156.8770  214.2910  150.8230 C   0  0  0  0  0  3  0  0  0  0  0  0
  158.1620  213.9330  148.8060 C   0  0  0  0  0  0  0  0  0  0  0  0
  157.9100  213.7450  151.6030 C   0  0  0  0  0  0  0  0  0  0  0  0
  155.3400  213.6740  153.4610 C   0  0  0  0  0  1  0  0  0  0  0  0
  156.6340  212.8940  153.6110 C   0  0  2  0  0  3  0  0  0  0  0  0
  157.9300  213.0070  157.2540 C   0  0  0  0  0  1  0  0  0  0  0  0
  156.0390  211.4730  155.6700 C   0  0  0  0  0  1  0  0  0  0  0  0
  157.7510  213.2640  155.7910 C   0  0  0  0  0  0  0  0  0  0  0  0
  156.8680  212.5580  155.0590 C   0  0  0  0  0  0  0  0  0  0  0  0
  158.5690  214.2690  155.1740 N   0  0  0  0  0  0  0  0  0  0  0  0
  157.7480  213.6550  153.0320 N   0  0  0  0  0  0  0  0  0  0  0  0
  158.5820  214.4530  153.8910 C   0  0  0  0  0  3  0  0  0  0  0  0
  158.3130  214.0630  147.3310 C   0  0  0  0  0  2  0  0  0  0  0  0
  159.3560  213.0960  146.8030 C   0  0  2  0  0  3  0  0  0  0  0  0
  160.5750  213.8360  146.4380 N   0  0  0  0  0  2  0  0  0  0  0  0
  159.6160  213.4150  145.4040 C   0  0  1  0  0  3  0  0  0  0  0  0
  160.1490  212.1890  144.6800 C   0  0  0  0  0  2  0  0  0  0  0  0
  161.4760  213.6450  143.3290 O   0  0  0  0  0  0  0  0  0  0  0  0
  160.6460  211.7550  142.2450 N   0  0  0  0  0  2  0  0  0  0  0  0
  160.7940  212.5890  143.3930 C   0  0  0  0  0  0  0  0  0  0  0  0
  161.2180  212.1000  140.9510 C   0  0  0  0  0  2  0  0  0  0  0  0
  160.9350  211.0320  139.8880 C   0  0  2  0  0  0  0  0  0  0  0  0
  159.6910  210.4660  140.1170 F   0  0  0  0  0  0  0  0  0  0  0  0
  161.9810  209.9420  140.0780 C   0  0  0  0  0  1  0  0  0  0  0  0
  161.6410  210.7350  137.6030 O   0  0  0  0  0  1  0  0  0  0  0  0
  159.5680  211.8370  137.8960 C   0  0  0  0  0  1  0  0  0  0  0  0
  160.9750  211.6260  138.4510 C   0  0  1  0  0  0  0  0  0  0  0  0
  161.7440  212.9510  138.4010 C   0  0  0  0  0  2  0  0  0  0  0  0
  163.0540  212.7750  137.9460 O   0  0  0  0  0  1  0  0  0  0  0  0
  160.1950  212.8080  151.7340 N   0  0  0  0  0  2  0  0  0  0  0  0
  161.9590  211.6830  149.6460 C   0  0  0  0  0  1  0  0  0  0  0  0
  160.5050  209.2840  152.8940 C   0  0  0  0  0  3  0  0  0  0  0  0
  160.1320  210.6280  152.8170 C   0  0  0  0  0  3  0  0  0  0  0  0
  161.8260  209.5360  150.8830 C   0  0  0  0  0  3  0  0  0  0  0  0
  161.3530  208.7330  151.9250 C   0  0  0  0  0  0  0  0  0  0  0  0
  161.4680  210.8850  150.8060 C   0  0  0  0  0  0  0  0  0  0  0  0
  160.6180  211.4410  151.7890 C   0  0  0  0  0  0  0  0  0  0  0  0
  161.1560  205.0340  152.8930 C   0  0  0  0  0  3  0  0  0  0  0  0
  160.7990  206.4860  152.8520 C   0  0  0  0  0  2  0  0  0  0  0  0
  160.5600  204.7480  150.5660 N   0  0  0  0  0  0  0  0  0  0  0  0
  161.7660  207.2970  151.9790 C   0  0  1  0  0  3  0  0  0  0  0  0
  161.2650  202.8490  151.9700 N   0  0  0  0  0  1  0  0  0  0  0  0
  161.0340  204.2440  151.8230 C   0  0  0  0  0  0  0  0  0  0  0  0
  160.9440  205.8620  150.0100 C   0  0  0  0  0  3  0  0  0  0  0  0
  162.0360  206.7340  150.5740 C   0  0  2  0  0  3  0  0  0  0  0  0
  163.2540  206.0530  150.5610 O   0  0  0  0  0  1  0  0  0  0  0  0
  1  6  1  0  0  0  0
  1 33  1  0  0  0  0
  2  1  2  0  0  0  0
  3  4  1  0  0  0  0
  4  6  2  0  0  0  0
  5  3  2  0  0  0  0
  5  2  1  0  0  0  0
  6 14  1  0  0  0  0
  8  7  1  1  0  0  0
  8 12  1  0  0  0  0
 11  9  1  0  0  0  0
 12 10  1  0  0  0  0
 12 11  2  0  0  0  0
 13 11  1  0  0  0  0
 14  8  1  0  0  0  0
 14 15  1  0  0  0  0
 15 13  2  0  0  0  0
 16  5  1  0  0  0  0
 17 16  1  1  0  0  0
 18 17  1  0  0  0  0
 19 20  1  6  0  0  0
 19 18  1  0  0  0  0
 19 17  1  0  0  0  0
 21 23  2  0  0  0  0
 22 23  1  0  0  0  0
 23 20  1  0  0  0  0
 24 22  1  0  0  0  0
 25 27  1  1  0  0  0
 25 26  1  0  0  0  0
 25 24  1  0  0  0  0
 28 30  1  0  0  0  0
 30 29  1  6  0  0  0
 30 25  1  0  0  0  0
 31 30  1  0  0  0  0
 32 31  1  0  0  0  0
 33 40  1  0  0  0  0
 34 39  1  0  0  0  0
 36 35  1  0  0  0  0
 37 38  1  0  0  0  0
 38 35  2  0  0  0  0
 39 37  2  0  0  0  0
 39 40  1  0  0  0  0
 40 36  2  0  0  0  0
 42 41  1  0  0  0  0
 43 46  1  0  0  0  0
 44 38  1  6  0  0  0
 44 42  1  0  0  0  0
 46 45  1  0  0  0  0
 46 41  2  0  0  0  0
 47 43  2  0  0  0  0
 47 48  1  0  0  0  0
 48 49  1  1  0  0  0
 48 44  1  0  0  0  0
M  END
>  <MODEL>
7

>  <REMARK>
 VINA RESULT:      -6.3      2.495      3.433
  Name = 
  12 active torsions:
  status: ('A' for Active; 'I' for Inactive)
    1  A    between atoms: C_2  and  C_8
    2  A    between atoms: N_3  and  C_38
    3  A    between atoms: C_8  and  C_41
    4  A    between atoms: C_9  and  C_38
    5  A    between atoms: C_9  and  C_49
    6  A    between atoms: C_15  and  N_27
    7  A    between atoms: C_18  and  C_33
    8  A    between atoms: N_27  and  C_40
    9  A    between atoms: C_28  and  C_49
   10  A    between atoms: C_36  and  C_47
   11  A    between atoms: C_39  and  C_47
   12  A    between atoms: C_43  and  N_44
                            x       y       z     vdW  Elec       q    Type
                         _______ _______ _______ _____ _____    ______ ____

>  <TORSDO>
F 12

$$$$
=
 OpenBabel11052409423D

 49 53  0  0  1  0  0  0  0  0999 V2000
  161.4600  209.7450  151.4380 C   0  0  0  0  0  0  0  0  0  0  0  0
  161.7840  208.7970  150.4550 C   0  0  0  0  0  3  0  0  0  0  0  0
  160.9880  207.0110  151.8740 C   0  0  0  0  0  3  0  0  0  0  0  0
  160.6580  207.9440  152.8580 C   0  0  0  0  0  3  0  0  0  0  0  0
  161.5510  207.4380  150.6690 C   0  0  0  0  0  0  0  0  0  0  0  0
  160.8850  209.3150  152.6560 C   0  0  0  0  0  0  0  0  0  0  0  0
  158.7870  211.6920  152.7830 C   0  0  0  0  0  1  0  0  0  0  0  0
  159.1540  210.6980  153.8720 C   0  0  2  0  0  3  0  0  0  0  0  0
  159.7330  212.4710  157.2600 C   0  0  0  0  0  1  0  0  0  0  0  0
  157.5080  211.4440  155.7010 C   0  0  0  0  0  1  0  0  0  0  0  0
  159.9530  211.7770  155.9530 C   0  0  0  0  0  0  0  0  0  0  0  0
  158.9200  211.3090  155.2270 C   0  0  0  0  0  0  0  0  0  0  0  0
  161.3020  211.5960  155.5010 N   0  0  0  0  0  0  0  0  0  0  0  0
  160.5410  210.2520  153.6970 N   0  0  0  0  0  0  0  0  0  0  0  0
  161.5880  210.8810  154.4580 C   0  0  0  0  0  3  0  0  0  0  0  0
  161.8730  206.4510  149.6020 C   0  0  0  0  0  2  0  0  0  0  0  0
  160.8140  205.3670  149.5250 C   0  0  2  0  0  3  0  0  0  0  0  0
  160.2220  205.1600  150.8550 N   0  0  0  0  0  2  0  0  0  0  0  0
  161.2480  204.2390  150.3400 C   0  0  1  0  0  3  0  0  0  0  0  0
  160.5880  202.9590  149.8540 C   0  0  0  0  0  2  0  0  0  0  0  0
  161.5240  201.3610  148.3460 O   0  0  0  0  0  0  0  0  0  0  0  0
  161.2740  203.5140  147.4910 N   0  0  0  0  0  2  0  0  0  0  0  0
  161.1600  202.5500  148.5360 C   0  0  0  0  0  0  0  0  0  0  0  0
  161.8540  203.1950  146.1930 C   0  0  0  0  0  2  0  0  0  0  0  0
  162.2950  204.4490  145.4290 C   0  0  2  0  0  0  0  0  0  0  0  0
  163.3290  204.1280  144.5640 F   0  0  0  0  0  0  0  0  0  0  0  0
  162.8460  205.4180  146.4680 C   0  0  0  0  0  1  0  0  0  0  0  0
  161.5790  205.4320  143.3490 O   0  0  0  0  0  1  0  0  0  0  0  0
  159.9760  204.0800  144.4450 C   0  0  0  0  0  1  0  0  0  0  0  0
  161.1220  205.0730  144.6220 C   0  0  1  0  0  0  0  0  0  0  0  0
  160.5890  206.3500  145.2820 C   0  0  0  0  0  2  0  0  0  0  0  0
  159.3380  206.1490  145.8700 O   0  0  0  0  0  1  0  0  0  0  0  0
  161.6190  211.1430  151.1600 N   0  0  0  0  0  2  0  0  0  0  0  0
  160.2010  213.7140  150.8220 C   0  0  0  0  0  1  0  0  0  0  0  0
  161.8100  211.5760  147.4660 C   0  0  0  0  0  3  0  0  0  0  0  0
  161.9530  211.0420  148.7500 C   0  0  0  0  0  3  0  0  0  0  0  0
  160.6510  213.4870  148.3920 C   0  0  0  0  0  3  0  0  0  0  0  0
  161.1550  212.8010  147.2840 C   0  0  0  0  0  0  0  0  0  0  0  0
  160.8030  212.9670  149.6800 C   0  0  0  0  0  0  0  0  0  0  0  0
  161.4690  211.7340  149.8630 C   0  0  0  0  0  0  0  0  0  0  0  0
  162.1040  213.7550  143.7000 C   0  0  0  0  0  3  0  0  0  0  0  0
  162.2560  213.2120  145.0850 C   0  0  0  0  0  2  0  0  0  0  0  0
  160.5130  212.0270  143.1190 N   0  0  0  0  0  0  0  0  0  0  0  0
  160.9830  213.3940  145.9230 C   0  0  1  0  0  3  0  0  0  0  0  0
  161.3000  213.6790  141.4670 N   0  0  0  0  0  1  0  0  0  0  0  0
  161.2940  213.1890  142.8020 C   0  0  0  0  0  0  0  0  0  0  0  0
  159.8270  211.8610  144.2140 C   0  0  0  0  0  3  0  0  0  0  0  0
  159.6730  212.9290  145.2650 C   0  0  2  0  0  3  0  0  0  0  0  0
  158.9870  214.0260  144.7430 O   0  0  0  0  0  1  0  0  0  0  0  0
  1  6  1  0  0  0  0
  2  5  1  0  0  0  0
  2  1  2  0  0  0  0
  3  4  1  0  0  0  0
  5  3  2  0  0  0  0
  6  4  2  0  0  0  0
  6 14  1  0  0  0  0
  8  7  1  6  0  0  0
  8 12  1  0  0  0  0
 11  9  1  0  0  0  0
 12 10  1  0  0  0  0
 12 11  2  0  0  0  0
 13 11  1  0  0  0  0
 14  8  1  0  0  0  0
 14 15  1  0  0  0  0
 15 13  2  0  0  0  0
 16  5  1  0  0  0  0
 17 16  1  1  0  0  0
 17 19  1  0  0  0  0
 17 18  1  0  0  0  0
 19 20  1  6  0  0  0
 19 18  1  0  0  0  0
 21 23  2  0  0  0  0
 22 23  1  0  0  0  0
 23 20  1  0  0  0  0
 24 22  1  0  0  0  0
 25 24  1  0  0  0  0
 25 27  1  1  0  0  0
 26 25  1  0  0  0  0
 28 30  1  0  0  0  0
 30 29  1  6  0  0  0
 30 31  1  0  0  0  0
 30 25  1  0  0  0  0
 31 32  1  0  0  0  0
 33  1  1  0  0  0  0
 35 36  1  0  0  0  0
 36 40  2  0  0  0  0
 37 39  2  0  0  0  0
 38 35  2  0  0  0  0
 38 37  1  0  0  0  0
 39 40  1  0  0  0  0
 39 34  1  0  0  0  0
 40 33  1  0  0  0  0
 41 42  1  0  0  0  0
 42 44  1  0  0  0  0
 43 47  2  0  0  0  0
 44 38  1  1  0  0  0
 45 46  1  0  0  0  0
 46 43  1  0  0  0  0
 46 41  2  0  0  0  0
 47 48  1  0  0  0  0
 48 49  1  6  0  0  0
 48 44  1  0  0  0  0
M  END
>  <MODEL>
8

>  <REMARK>
 VINA RESULT:      -6.1      2.686      7.463
  Name = 
  12 active torsions:
  status: ('A' for Active; 'I' for Inactive)
    1  A    between atoms: C_2  and  C_8
    2  A    between atoms: N_3  and  C_38
    3  A    between atoms: C_8  and  C_41
    4  A    between atoms: C_9  and  C_38
    5  A    between atoms: C_9  and  C_49
    6  A    between atoms: C_15  and  N_27
    7  A    between atoms: C_18  and  C_33
    8  A    between atoms: N_27  and  C_40
    9  A    between atoms: C_28  and  C_49
   10  A    between atoms: C_36  and  C_47
   11  A    between atoms: C_39  and  C_47
   12  A    between atoms: C_43  and  N_44
                            x       y       z     vdW  Elec       q    Type
                         _______ _______ _______ _____ _____    ______ ____

>  <TORSDO>
F 12

$$$$
=
 OpenBabel11052409423D

 49 53  0  0  1  0  0  0  0  0999 V2000
  161.3470  210.6650  151.2380 C   0  0  0  0  0  0  0  0  0  0  0  0
  161.2840  211.6020  150.1960 C   0  0  0  0  0  3  0  0  0  0  0  0
  159.5520  212.8200  151.3580 C   0  0  0  0  0  3  0  0  0  0  0  0
  159.6080  211.8970  152.4040 C   0  0  0  0  0  3  0  0  0  0  0  0
  160.3920  212.6740  150.2530 C   0  0  0  0  0  0  0  0  0  0  0  0
  160.5000  210.8130  152.3610 C   0  0  0  0  0  0  0  0  0  0  0  0
  162.1860  210.7020  155.0460 C   0  0  0  0  0  1  0  0  0  0  0  0
  160.7280  210.3320  154.8310 C   0  0  2  0  0  3  0  0  0  0  0  0
  159.8720  206.9530  156.5060 C   0  0  0  0  0  1  0  0  0  0  0  0
  160.0750  209.7540  157.2500 C   0  0  0  0  0  1  0  0  0  0  0  0
  160.2010  208.0050  155.4950 C   0  0  0  0  0  0  0  0  0  0  0  0
  160.3040  209.3020  155.8430 C   0  0  0  0  0  0  0  0  0  0  0  0
  160.3800  207.6010  154.1300 N   0  0  0  0  0  0  0  0  0  0  0  0
  160.5260  209.8720  153.4530 N   0  0  0  0  0  0  0  0  0  0  0  0
  160.5230  208.4610  153.1710 C   0  0  0  0  0  3  0  0  0  0  0  0
  160.3630  213.6760  149.1520 C   0  0  0  0  0  2  0  0  0  0  0  0
  159.5950  213.1470  147.9550 C   0  0  2  0  0  3  0  0  0  0  0  0
  160.4140  212.1550  147.2420 N   0  0  0  0  0  2  0  0  0  0  0  0
  160.3050  213.5350  146.7420 C   0  0  1  0  0  3  0  0  0  0  0  0
  159.3440  213.5790  145.5660 C   0  0  0  0  0  2  0  0  0  0  0  0
  161.1670  214.4530  144.2940 O   0  0  0  0  0  0  0  0  0  0  0  0
  159.5960  213.2320  143.0800 N   0  0  0  0  0  2  0  0  0  0  0  0
  160.0950  213.7940  144.2920 C   0  0  0  0  0  0  0  0  0  0  0  0
  160.2580  213.4310  141.7970 C   0  0  0  0  0  2  0  0  0  0  0  0
  161.4600  212.4960  141.6130 C   0  0  2  0  0  0  0  0  0  0  0  0
  161.5920  211.6830  142.7270 F   0  0  0  0  0  0  0  0  0  0  0  0
  162.6940  213.3850  141.5420 C   0  0  0  0  0  1  0  0  0  0  0  0
  161.3470  210.2630  140.7150 O   0  0  0  0  0  1  0  0  0  0  0  0
  159.9800  211.8670  139.6390 C   0  0  0  0  0  1  0  0  0  0  0  0
  161.3100  211.6120  140.3430 C   0  0  1  0  0  0  0  0  0  0  0  0
  162.4600  211.8330  139.3530 C   0  0  0  0  0  2  0  0  0  0  0  0
  162.0870  211.5210  138.0440 O   0  0  0  0  0  1  0  0  0  0  0  0
  162.3360  209.6260  151.2040 N   0  0  0  0  0  2  0  0  0  0  0  0
  162.3520  210.1260  148.2900 C   0  0  0  0  0  1  0  0  0  0  0  0
  162.2460  206.1440  149.8880 C   0  0  0  0  0  3  0  0  0  0  0  0
  162.2680  207.2320  150.7650 C   0  0  0  0  0  3  0  0  0  0  0  0
  162.3170  207.6610  148.0050 C   0  0  0  0  0  3  0  0  0  0  0  0
  162.2690  206.3560  148.5030 C   0  0  0  0  0  0  0  0  0  0  0  0
  162.3530  208.7540  148.8750 C   0  0  0  0  0  0  0  0  0  0  0  0
  162.3360  208.5380  150.2720 C   0  0  0  0  0  0  0  0  0  0  0  0
  161.0940  203.0470  146.9810 C   0  0  0  0  0  3  0  0  0  0  0  0
  161.1800  204.1840  147.9480 C   0  0  0  0  0  2  0  0  0  0  0  0
  160.1940  204.4840  145.2560 N   0  0  0  0  0  0  0  0  0  0  0  0
  162.2430  205.2130  147.5410 C   0  0  1  0  0  3  0  0  0  0  0  0
  160.4530  202.0560  144.9200 N   0  0  0  0  0  1  0  0  0  0  0  0
  160.6310  203.2050  145.7390 C   0  0  0  0  0  0  0  0  0  0  0  0
  160.8290  205.6090  145.4310 C   0  0  0  0  0  3  0  0  0  0  0  0
  162.1830  205.7020  146.0840 C   0  0  2  0  0  3  0  0  0  0  0  0
  163.1370  205.0310  145.3180 O   0  0  0  0  0  1  0  0  0  0  0  0
  1  6  1  0  0  0  0
  2  5  1  0  0  0  0
  2  1  2  0  0  0  0
  3  4  1  0  0  0  0
  5  3  2  0  0  0  0
  6  4  2  0  0  0  0
  6 14  1  0  0  0  0
  8  7  1  6  0  0  0
  8 12  1  0  0  0  0
 11 12  2  0  0  0  0
 11  9  1  0  0  0  0
 12 10  1  0  0  0  0
 13 11  1  0  0  0  0
 14  8  1  0  0  0  0
 15 14  1  0  0  0  0
 15 13  2  0  0  0  0
 16  5  1  0  0  0  0
 17 16  1  1  0  0  0
 18 17  1  0  0  0  0
 19 20  1  6  0  0  0
 19 18  1  0  0  0  0
 19 17  1  0  0  0  0
 22 23  1  0  0  0  0
 23 21  2  0  0  0  0
 23 20  1  0  0  0  0
 24 22  1  0  0  0  0
 25 27  1  6  0  0  0
 25 24  1  0  0  0  0
 25 26  1  0  0  0  0
 30 29  1  6  0  0  0
 30 28  1  0  0  0  0
 30 25  1  0  0  0  0
 31 30  1  0  0  0  0
 32 31  1  0  0  0  0
 33  1  1  0  0  0  0
 34 39  1  0  0  0  0
 35 36  1  0  0  0  0
 37 38  1  0  0  0  0
 37 39  2  0  0  0  0
 38 35  2  0  0  0  0
 39 40  1  0  0  0  0
 40 36  2  0  0  0  0
 40 33  1  0  0  0  0
 41 42  1  0  0  0  0
 43 47  2  0  0  0  0
 43 46  1  0  0  0  0
 44 42  1  0  0  0  0
 44 38  1  1  0  0  0
 45 46  1  0  0  0  0
 46 41  2  0  0  0  0
 47 48  1  0  0  0  0
 48 49  1  6  0  0  0
 48 44  1  0  0  0  0
M  END
>  <MODEL>
9

>  <REMARK>
 VINA RESULT:      -5.6      1.506      2.124
  Name = 
  12 active torsions:
  status: ('A' for Active; 'I' for Inactive)
    1  A    between atoms: C_2  and  C_8
    2  A    between atoms: N_3  and  C_38
    3  A    between atoms: C_8  and  C_41
    4  A    between atoms: C_9  and  C_38
    5  A    between atoms: C_9  and  C_49
    6  A    between atoms: C_15  and  N_27
    7  A    between atoms: C_18  and  C_33
    8  A    between atoms: N_27  and  C_40
    9  A    between atoms: C_28  and  C_49
   10  A    between atoms: C_36  and  C_47
   11  A    between atoms: C_39  and  C_47
   12  A    between atoms: C_43  and  N_44
                            x       y       z     vdW  Elec       q    Type
                         _______ _______ _______ _____ _____    ______ ____

>  <TORSDO>
F 12

$$$$
