=
 OpenBabel11052411013D

 37 39  0  0  1  0  0  0  0  0999 V2000
  162.2980  208.3920  149.9660 C   0  0  0  0  0  0  0  0  0  0  0  0
  160.8350  207.5250  153.8460 C   0  0  1  0  0  3  0  0  0  0  0  0
  163.1020  207.6210  149.3710 O   0  0  0  0  0  0  0  0  0  0  0  0
  160.5570  208.8040  153.0560 C   0  0  0  0  0  2  0  0  0  0  0  0
  162.1930  206.9730  153.4150 C   0  0  0  0  0  2  0  0  0  0  0  0
  161.7150  207.9730  151.2130 N   0  0  0  0  0  0  0  0  0  0  0  0
  160.4750  208.4980  151.6300 N   0  0  0  0  0  2  0  0  0  0  0  0
  162.2590  206.7940  151.8980 C   0  0  2  0  0  3  0  0  0  0  0  0
  160.6120  202.9400  150.0050 C   0  0  0  0  0  0  0  0  0  0  0  0
  161.3990  205.3130  150.1300 C   0  0  0  0  0  3  0  0  0  0  0  0
  160.7130  204.1690  149.4960 C   0  0  0  0  0  3  0  0  0  0  0  0
  161.6090  205.5170  151.4420 C   0  0  0  0  0  0  0  0  0  0  0  0
  159.7250  201.7280  149.1080 Cl  0  0  0  0  0  0  0  0  0  0  0  0
  160.8900  203.3320  152.4240 C   0  0  0  0  0  3  0  0  0  0  0  0
  161.3290  202.5290  151.2470 C   0  0  0  0  0  2  0  0  0  0  0  0
  161.0550  204.6520  152.5060 C   0  0  0  0  0  3  0  0  0  0  0  0
  161.6200  209.7900  148.0100 C   0  0  0  0  0  3  0  0  0  0  0  0
  161.8450  212.1280  149.4790 C   0  0  0  0  0  3  0  0  0  0  0  0
  161.4670  212.1560  148.1360 C   0  0  0  0  0  3  0  0  0  0  0  0
  161.3630  210.9960  147.4350 N   0  0  0  0  0  0  0  0  0  0  0  0
  161.9950  209.7100  149.3580 C   0  0  0  0  0  0  0  0  0  0  0  0
  162.1120  210.9000  150.0860 C   0  0  0  0  0  3  0  0  0  0  0  0
  160.7920  207.7950  155.3550 C   0  0  2  0  0  3  0  0  0  0  0  0
  160.5360  206.6660  157.2560 C   0  0  0  0  0  1  0  0  0  0  0  0
  159.9700  206.8530  155.9940 O   0  0  0  0  0  0  0  0  0  0  0  0
  158.9570  209.2050  156.2400 N   0  0  0  0  0  1  0  0  0  0  0  0
  160.2720  209.2160  155.6180 C   0  0  1  0  0  3  0  0  0  0  0  0
  161.2490  210.1070  156.3890 C   0  0  0  0  0  2  0  0  0  0  0  0
  161.0370  212.3220  157.2590 O   0  0  0  0  0  0  0  0  0  0  0  0
  160.9790  211.5770  156.2460 C   0  0  0  0  0  0  0  0  0  0  0  0
  160.6340  212.1340  155.0120 O   0  0  0  0  0  0  0  0  0  0  0  0
  159.4050  212.8150  154.7870 C   0  0  2  0  0  3  0  0  0  0  0  0
  158.3570  212.1290  155.3780 F   0  0  0  0  0  0  0  0  0  0  0  0
  159.1590  212.9450  153.3180 C   0  0  0  0  0  0  0  0  0  0  0  0
  159.8500  212.3300  152.5230 O   0  0  0  0  0  0  0  0  0  0  0  0
  158.0830  213.8470  152.8160 C   0  0  0  0  0  2  0  0  0  0  0  0
  157.9830  213.7430  151.4270 O   0  0  0  0  0  1  0  0  0  0  0  0
  1  6  1  0  0  0  0
  2 23  1  1  0  0  0
  3  1  2  0  0  0  0
  4  2  1  0  0  0  0
  5  2  1  0  0  0  0
  6  7  1  0  0  0  0
  6  8  1  0  0  0  0
  7  4  1  0  0  0  0
  8 12  1  1  0  0  0
  8  5  1  0  0  0  0
  9 15  1  0  0  0  0
 10 12  2  0  0  0  0
 11  9  2  0  0  0  0
 11 10  1  0  0  0  0
 12 16  1  0  0  0  0
 13  9  1  0  0  0  0
 14 16  2  0  0  0  0
 15 14  1  0  0  0  0
 17 21  1  0  0  0  0
 18 22  1  0  0  0  0
 19 18  2  0  0  0  0
 20 17  2  0  0  0  0
 20 19  1  0  0  0  0
 21  1  1  0  0  0  0
 21 22  2  0  0  0  0
 23 27  1  0  0  0  0
 23 25  1  1  0  0  0
 25 24  1  0  0  0  0
 27 26  1  1  0  0  0
 27 28  1  0  0  0  0
 30 28  1  0  0  0  0
 30 29  2  0  0  0  0
 31 30  1  0  0  0  0
 32 31  1  0  0  0  0
 32 33  1  1  0  0  0
 34 32  1  0  0  0  0
 35 34  2  0  0  0  0
 36 34  1  0  0  0  0
 37 36  1  0  0  0  0
M  END
>  <MODEL>
1

>  <REMARK>
 VINA RESULT:      -5.5      0.000      0.000
  Name = 
  11 active torsions:
  status: ('A' for Active; 'I' for Inactive)
    1  A    between atoms: C_5  and  C_30
    2  A    between atoms: C_8  and  C_31
    3  A    between atoms: C_8  and  C_36
    4  A    between atoms: O_10  and  C_32
    5  A    between atoms: C_11  and  O_13
    6  A    between atoms: C_11  and  C_30
    7  A    between atoms: C_12  and  C_14
    8  A    between atoms: O_13  and  C_31
    9  A    between atoms: C_16  and  C_35
   10  A    between atoms: C_18  and  C_32
   11  A    between atoms: C_32  and  C_36
                            x       y       z     vdW  Elec       q    Type
                         _______ _______ _______ _____ _____    ______ ____

>  <TORSDO>
F 11

$$$$
=
 OpenBabel11052411013D

 37 39  0  0  1  0  0  0  0  0999 V2000
  161.7710  210.9800  149.4200 C   0  0  0  0  0  0  0  0  0  0  0  0
  161.2160  210.4930  153.5920 C   0  0  1  0  0  3  0  0  0  0  0  0
  162.5600  210.2440  148.7650 O   0  0  0  0  0  0  0  0  0  0  0  0
  160.5970  211.5970  152.7360 C   0  0  0  0  0  2  0  0  0  0  0  0
  162.5390  210.0680  152.9560 C   0  0  0  0  0  2  0  0  0  0  0  0
  161.5050  210.6700  150.8010 N   0  0  0  0  0  0  0  0  0  0  0  0
  160.2980  211.0830  151.4020 N   0  0  0  0  0  2  0  0  0  0  0  0
  162.3470  209.6840  151.4890 C   0  0  2  0  0  3  0  0  0  0  0  0
  161.1420  205.3550  150.5090 C   0  0  0  0  0  0  0  0  0  0  0  0
  161.7280  207.7520  150.0930 C   0  0  0  0  0  3  0  0  0  0  0  0
  161.1800  206.4320  149.7230 C   0  0  0  0  0  3  0  0  0  0  0  0
  161.8320  208.2810  151.3250 C   0  0  0  0  0  0  0  0  0  0  0  0
  160.4170  203.8880  149.8930 Cl  0  0  0  0  0  0  0  0  0  0  0  0
  161.2220  206.3340  152.7730 C   0  0  0  0  0  3  0  0  0  0  0  0
  161.8020  205.3190  151.8470 C   0  0  0  0  0  2  0  0  0  0  0  0
  161.2770  207.6450  152.5390 C   0  0  0  0  0  3  0  0  0  0  0  0
  160.7900  212.0580  147.3910 C   0  0  0  0  0  3  0  0  0  0  0  0
  160.4040  214.4520  148.7300 C   0  0  0  0  0  3  0  0  0  0  0  0
  160.0490  214.3130  147.3880 C   0  0  0  0  0  3  0  0  0  0  0  0
  160.2480  213.1290  146.7510 N   0  0  0  0  0  0  0  0  0  0  0  0
  161.1560  212.1460  148.7420 C   0  0  0  0  0  0  0  0  0  0  0  0
  160.9620  213.3650  149.4030 C   0  0  0  0  0  3  0  0  0  0  0  0
  161.4140  210.9670  155.0370 C   0  0  2  0  0  3  0  0  0  0  0  0
  163.1640  210.7190  156.3890 C   0  0  0  0  0  1  0  0  0  0  0  0
  162.1340  210.0100  155.7680 O   0  0  0  0  0  0  0  0  0  0  0  0
  159.5700  210.0520  156.4160 N   0  0  0  0  0  1  0  0  0  0  0  0
  160.0500  211.2220  155.6950 C   0  0  1  0  0  3  0  0  0  0  0  0
  160.0020  212.4770  156.5700 C   0  0  0  0  0  2  0  0  0  0  0  0
  159.2380  214.4530  155.4660 O   0  0  0  0  0  0  0  0  0  0  0  0
  158.9360  213.4570  156.1740 C   0  0  0  0  0  0  0  0  0  0  0  0
  157.6140  213.3030  156.6000 O   0  0  0  0  0  0  0  0  0  0  0  0
  156.6210  212.6500  155.8190 C   0  0  2  0  0  3  0  0  0  0  0  0
  156.7950  211.2770  155.8650 F   0  0  0  0  0  0  0  0  0  0  0  0
  156.6990  213.1210  154.4020 C   0  0  0  0  0  0  0  0  0  0  0  0
  157.3190  212.4750  153.5730 O   0  0  0  0  0  0  0  0  0  0  0  0
  156.0410  214.3980  153.9990 C   0  0  0  0  0  2  0  0  0  0  0  0
  154.6950  214.1680  153.7080 O   0  0  0  0  0  1  0  0  0  0  0  0
  1  6  1  0  0  0  0
  2 23  1  1  0  0  0
  3  1  2  0  0  0  0
  4  2  1  0  0  0  0
  5  2  1  0  0  0  0
  6  7  1  0  0  0  0
  6  8  1  0  0  0  0
  7  4  1  0  0  0  0
  8 12  1  1  0  0  0
  8  5  1  0  0  0  0
  9 15  1  0  0  0  0
 10 12  2  0  0  0  0
 11 10  1  0  0  0  0
 11  9  2  0  0  0  0
 12 16  1  0  0  0  0
 13  9  1  0  0  0  0
 15 14  1  0  0  0  0
 16 14  2  0  0  0  0
 17 21  1  0  0  0  0
 18 22  1  0  0  0  0
 19 18  2  0  0  0  0
 20 19  1  0  0  0  0
 20 17  2  0  0  0  0
 21 22  2  0  0  0  0
 21  1  1  0  0  0  0
 23 27  1  0  0  0  0
 23 25  1  1  0  0  0
 25 24  1  0  0  0  0
 27 26  1  1  0  0  0
 27 28  1  0  0  0  0
 29 30  2  0  0  0  0
 30 28  1  0  0  0  0
 30 31  1  0  0  0  0
 32 33  1  6  0  0  0
 32 31  1  0  0  0  0
 34 32  1  0  0  0  0
 35 34  2  0  0  0  0
 36 34  1  0  0  0  0
 37 36  1  0  0  0  0
M  END
>  <MODEL>
2

>  <REMARK>
 VINA RESULT:      -5.4      2.154      2.883
  Name = 
  11 active torsions:
  status: ('A' for Active; 'I' for Inactive)
    1  A    between atoms: C_5  and  C_30
    2  A    between atoms: C_8  and  C_31
    3  A    between atoms: C_8  and  C_36
    4  A    between atoms: O_10  and  C_32
    5  A    between atoms: C_11  and  O_13
    6  A    between atoms: C_11  and  C_30
    7  A    between atoms: C_12  and  C_14
    8  A    between atoms: O_13  and  C_31
    9  A    between atoms: C_16  and  C_35
   10  A    between atoms: C_18  and  C_32
   11  A    between atoms: C_32  and  C_36
                            x       y       z     vdW  Elec       q    Type
                         _______ _______ _______ _____ _____    ______ ____

>  <TORSDO>
F 11

$$$$
=
 OpenBabel11052411013D

 37 39  0  0  1  0  0  0  0  0999 V2000
  160.5690  205.7140  150.0770 C   0  0  0  0  0  0  0  0  0  0  0  0
  161.5850  207.6500  153.7060 C   0  0  1  0  0  3  0  0  0  0  0  0
  159.8800  206.2880  149.1880 O   0  0  0  0  0  0  0  0  0  0  0  0
  161.8980  206.1950  153.3570 C   0  0  0  0  0  2  0  0  0  0  0  0
  160.3170  208.0670  152.9620 C   0  0  0  0  0  2  0  0  0  0  0  0
  161.0140  206.4700  151.2180 N   0  0  0  0  0  0  0  0  0  0  0  0
  162.1680  206.0750  151.9260 N   0  0  0  0  0  2  0  0  0  0  0  0
  160.4460  207.8020  151.4620 C   0  0  2  0  0  3  0  0  0  0  0  0
  162.5240  210.8990  148.7730 C   0  0  0  0  0  0  0  0  0  0  0  0
  161.6600  208.6670  149.5030 C   0  0  0  0  0  3  0  0  0  0  0  0
  162.4830  209.5700  148.6740 C   0  0  0  0  0  3  0  0  0  0  0  0
  161.2060  208.8860  150.7500 C   0  0  0  0  0  0  0  0  0  0  0  0
  163.5960  211.7900  147.7160 Cl  0  0  0  0  0  0  0  0  0  0  0  0
  161.7940  211.2920  151.0970 C   0  0  0  0  0  3  0  0  0  0  0  0
  161.6030  211.6630  149.6650 C   0  0  0  0  0  2  0  0  0  0  0  0
  161.5780  210.0620  151.5640 C   0  0  0  0  0  3  0  0  0  0  0  0
  161.1790  203.7600  148.6450 C   0  0  0  0  0  3  0  0  0  0  0  0
  161.1250  202.0320  150.8100 C   0  0  0  0  0  3  0  0  0  0  0  0
  161.4240  201.5700  149.5280 C   0  0  0  0  0  3  0  0  0  0  0  0
  161.4440  202.4350  148.4810 N   0  0  0  0  0  0  0  0  0  0  0  0
  160.8820  204.2740  149.9150 C   0  0  0  0  0  0  0  0  0  0  0  0
  160.8510  203.3870  150.9990 C   0  0  0  0  0  3  0  0  0  0  0  0
  161.4310  207.8280  155.2210 C   0  0  2  0  0  3  0  0  0  0  0  0
  160.4200  206.9600  157.0040 C   0  0  0  0  0  1  0  0  0  0  0  0
  160.2210  207.2660  155.6560 O   0  0  0  0  0  0  0  0  0  0  0  0
  162.4370  210.0430  154.7550 N   0  0  0  0  0  1  0  0  0  0  0  0
  161.4810  209.3200  155.5800 C   0  0  1  0  0  3  0  0  0  0  0  0
  160.1140  210.0090  155.5860 C   0  0  0  0  0  2  0  0  0  0  0  0
  160.5410  212.3130  156.0520 O   0  0  0  0  0  0  0  0  0  0  0  0
  160.1600  211.4610  155.2070 C   0  0  0  0  0  0  0  0  0  0  0  0
  159.7600  211.8930  153.9400 O   0  0  0  0  0  0  0  0  0  0  0  0
  158.4900  211.5790  153.3810 C   0  0  2  0  0  3  0  0  0  0  0  0
  158.5610  211.5650  151.9980 F   0  0  0  0  0  0  0  0  0  0  0  0
  157.4780  212.5860  153.8240 C   0  0  0  0  0  0  0  0  0  0  0  0
  157.5240  213.7300  153.4030 O   0  0  0  0  0  0  0  0  0  0  0  0
  156.4200  212.2040  154.8040 C   0  0  0  0  0  2  0  0  0  0  0  0
  156.6130  210.8850  155.2230 O   0  0  0  0  0  1  0  0  0  0  0  0
  1  6  1  0  0  0  0
  2 23  1  1  0  0  0
  3  1  2  0  0  0  0
  4  2  1  0  0  0  0
  5  2  1  0  0  0  0
  6  8  1  0  0  0  0
  6  7  1  0  0  0  0
  7  4  1  0  0  0  0
  8 12  1  1  0  0  0
  8  5  1  0  0  0  0
  9 15  1  0  0  0  0
 10 12  2  0  0  0  0
 11  9  2  0  0  0  0
 11 10  1  0  0  0  0
 12 16  1  0  0  0  0
 13  9  1  0  0  0  0
 14 16  2  0  0  0  0
 15 14  1  0  0  0  0
 17 21  1  0  0  0  0
 18 22  1  0  0  0  0
 19 18  2  0  0  0  0
 20 17  2  0  0  0  0
 20 19  1  0  0  0  0
 21  1  1  0  0  0  0
 21 22  2  0  0  0  0
 23 27  1  0  0  0  0
 23 25  1  6  0  0  0
 25 24  1  0  0  0  0
 27 26  1  6  0  0  0
 27 28  1  0  0  0  0
 30 28  1  0  0  0  0
 30 29  2  0  0  0  0
 31 30  1  0  0  0  0
 32 33  1  6  0  0  0
 32 34  1  0  0  0  0
 32 31  1  0  0  0  0
 34 36  1  0  0  0  0
 35 34  2  0  0  0  0
 36 37  1  0  0  0  0
M  END
>  <MODEL>
3

>  <REMARK>
 VINA RESULT:      -5.2      2.695      5.157
  Name = 
  11 active torsions:
  status: ('A' for Active; 'I' for Inactive)
    1  A    between atoms: C_5  and  C_30
    2  A    between atoms: C_8  and  C_31
    3  A    between atoms: C_8  and  C_36
    4  A    between atoms: O_10  and  C_32
    5  A    between atoms: C_11  and  O_13
    6  A    between atoms: C_11  and  C_30
    7  A    between atoms: C_12  and  C_14
    8  A    between atoms: O_13  and  C_31
    9  A    between atoms: C_16  and  C_35
   10  A    between atoms: C_18  and  C_32
   11  A    between atoms: C_32  and  C_36
                            x       y       z     vdW  Elec       q    Type
                         _______ _______ _______ _____ _____    ______ ____

>  <TORSDO>
F 11

$$$$
=
 OpenBabel11052411013D

 37 39  0  0  1  0  0  0  0  0999 V2000
  158.3930  213.4440  153.5020 C   0  0  0  0  0  0  0  0  0  0  0  0
  160.2790  209.6590  153.7660 C   0  0  1  0  0  3  0  0  0  0  0  0
  158.9900  214.4520  153.0320 O   0  0  0  0  0  0  0  0  0  0  0  0
  158.8880  209.9970  154.2990 C   0  0  0  0  0  2  0  0  0  0  0  0
  161.1330  210.9270  153.7930 C   0  0  0  0  0  2  0  0  0  0  0  0
  159.0270  212.1530  153.4250 N   0  0  0  0  0  0  0  0  0  0  0  0
  158.2470  210.9780  153.4260 N   0  0  0  0  0  2  0  0  0  0  0  0
  160.4440  212.0710  153.0500 C   0  0  2  0  0  3  0  0  0  0  0  0
  160.9830  212.4220  148.4970 C   0  0  0  0  0  0  0  0  0  0  0  0
  160.0280  212.8820  150.7630 C   0  0  0  0  0  3  0  0  0  0  0  0
  160.0320  212.9210  149.2870 C   0  0  0  0  0  3  0  0  0  0  0  0
  160.6370  211.9880  151.5610 C   0  0  0  0  0  0  0  0  0  0  0  0
  160.7850  212.5400  146.7620 Cl  0  0  0  0  0  0  0  0  0  0  0  0
  162.0290  210.7050  149.9270 C   0  0  0  0  0  3  0  0  0  0  0  0
  162.2640  211.8760  149.0340 C   0  0  0  0  0  2  0  0  0  0  0  0
  161.3340  210.7840  151.0610 C   0  0  0  0  0  3  0  0  0  0  0  0
  155.9440  213.9050  153.3330 C   0  0  0  0  0  3  0  0  0  0  0  0
  155.6340  213.7950  156.0840 C   0  0  0  0  0  3  0  0  0  0  0  0
  154.5480  214.0540  155.2470 C   0  0  0  0  0  3  0  0  0  0  0  0
  154.7240  214.1040  153.9010 N   0  0  0  0  0  0  0  0  0  0  0  0
  157.0640  213.6330  154.1310 C   0  0  0  0  0  0  0  0  0  0  0  0
  156.8940  213.5870  155.5210 C   0  0  0  0  0  3  0  0  0  0  0  0
  160.9200  208.5330  154.5860 C   0  0  2  0  0  3  0  0  0  0  0  0
  161.7160  208.7290  156.6550 C   0  0  0  0  0  1  0  0  0  0  0  0
  162.0080  209.0270  155.3230 O   0  0  0  0  0  0  0  0  0  0  0  0
  160.9940  206.0940  154.1540 N   0  0  0  0  0  1  0  0  0  0  0  0
  161.3820  207.4040  153.6520 C   0  0  1  0  0  3  0  0  0  0  0  0
  160.9650  207.5900  152.1920 C   0  0  0  0  0  2  0  0  0  0  0  0
  162.7590  207.5080  150.6160 O   0  0  0  0  0  0  0  0  0  0  0  0
  161.8470  206.8750  151.2090 C   0  0  0  0  0  0  0  0  0  0  0  0
  161.6580  205.5220  150.9150 O   0  0  0  0  0  0  0  0  0  0  0  0
  160.5960  205.0500  150.0940 C   0  0  2  0  0  3  0  0  0  0  0  0
  160.1500  203.8180  150.5430 F   0  0  0  0  0  0  0  0  0  0  0  0
  161.0630  204.9320  148.6780 C   0  0  0  0  0  0  0  0  0  0  0  0
  161.4840  203.8680  148.2570 O   0  0  0  0  0  0  0  0  0  0  0  0
  161.0410  206.1240  147.7810 C   0  0  0  0  0  2  0  0  0  0  0  0
  162.3360  206.4230  147.3550 O   0  0  0  0  0  1  0  0  0  0  0  0
  1 21  1  0  0  0  0
  2  5  1  0  0  0  0
  2  4  1  0  0  0  0
  2 23  1  1  0  0  0
  3  1  2  0  0  0  0
  6  7  1  0  0  0  0
  6  1  1  0  0  0  0
  7  4  1  0  0  0  0
  8 12  1  6  0  0  0
  8  6  1  0  0  0  0
  8  5  1  0  0  0  0
  9 15  1  0  0  0  0
  9 11  2  0  0  0  0
 10 12  2  0  0  0  0
 11 10  1  0  0  0  0
 13  9  1  0  0  0  0
 14 16  2  0  0  0  0
 15 14  1  0  0  0  0
 16 12  1  0  0  0  0
 17 20  2  0  0  0  0
 17 21  1  0  0  0  0
 19 18  2  0  0  0  0
 20 19  1  0  0  0  0
 21 22  2  0  0  0  0
 22 18  1  0  0  0  0
 23 25  1  6  0  0  0
 25 24  1  0  0  0  0
 27 26  1  1  0  0  0
 27 23  1  0  0  0  0
 28 27  1  0  0  0  0
 29 30  2  0  0  0  0
 30 28  1  0  0  0  0
 31 30  1  0  0  0  0
 32 33  1  1  0  0  0
 32 31  1  0  0  0  0
 34 32  1  0  0  0  0
 35 34  2  0  0  0  0
 36 34  1  0  0  0  0
 37 36  1  0  0  0  0
M  END
>  <MODEL>
4

>  <REMARK>
 VINA RESULT:      -5.1      3.496      7.537
  Name = 
  11 active torsions:
  status: ('A' for Active; 'I' for Inactive)
    1  A    between atoms: C_5  and  C_30
    2  A    between atoms: C_8  and  C_31
    3  A    between atoms: C_8  and  C_36
    4  A    between atoms: O_10  and  C_32
    5  A    between atoms: C_11  and  O_13
    6  A    between atoms: C_11  and  C_30
    7  A    between atoms: C_12  and  C_14
    8  A    between atoms: O_13  and  C_31
    9  A    between atoms: C_16  and  C_35
   10  A    between atoms: C_18  and  C_32
   11  A    between atoms: C_32  and  C_36
                            x       y       z     vdW  Elec       q    Type
                         _______ _______ _______ _____ _____    ______ ____

>  <TORSDO>
F 11

$$$$
=
 OpenBabel11052411013D

 37 39  0  0  1  0  0  0  0  0999 V2000
  161.8250  206.4530  151.7130 C   0  0  0  0  0  0  0  0  0  0  0  0
  161.6240  210.1140  149.5900 C   0  0  1  0  0  3  0  0  0  0  0  0
  162.2600  206.3950  152.8970 O   0  0  0  0  0  0  0  0  0  0  0  0
  161.2950  208.7350  149.0180 C   0  0  0  0  0  2  0  0  0  0  0  0
  162.6620  209.9460  150.6990 C   0  0  0  0  0  2  0  0  0  0  0  0
  161.6340  207.7400  151.0970 N   0  0  0  0  0  0  0  0  0  0  0  0
  160.6980  207.8970  150.0550 N   0  0  0  0  0  2  0  0  0  0  0  0
  162.1910  208.9340  151.7450 C   0  0  2  0  0  3  0  0  0  0  0  0
  159.6900  210.6190  155.2170 C   0  0  0  0  0  0  0  0  0  0  0  0
  161.1510  209.0110  153.9750 C   0  0  0  0  0  3  0  0  0  0  0  0
  160.2330  209.4110  155.0600 C   0  0  0  0  0  3  0  0  0  0  0  0
  161.2410  209.5390  152.7420 C   0  0  0  0  0  0  0  0  0  0  0  0
  158.5950  210.8830  156.5560 Cl  0  0  0  0  0  0  0  0  0  0  0  0
  159.7570  211.5430  152.9300 C   0  0  0  0  0  3  0  0  0  0  0  0
  160.0740  211.7840  154.3670 C   0  0  0  0  0  2  0  0  0  0  0  0
  160.3130  210.5630  152.2180 C   0  0  0  0  0  3  0  0  0  0  0  0
  161.4830  205.1720  149.5960 C   0  0  0  0  0  3  0  0  0  0  0  0
  160.9930  202.8240  150.9820 C   0  0  0  0  0  3  0  0  0  0  0  0
  160.9550  202.8580  149.5870 C   0  0  0  0  0  3  0  0  0  0  0  0
  161.1990  204.0210  148.9280 N   0  0  0  0  0  0  0  0  0  0  0  0
  161.5400  205.1870  150.9970 C   0  0  0  0  0  0  0  0  0  0  0  0
  161.2830  203.9940  151.6840 C   0  0  0  0  0  3  0  0  0  0  0  0
  162.1260  211.0570  148.4900 C   0  0  2  0  0  3  0  0  0  0  0  0
  163.9610  212.1080  147.7960 C   0  0  0  0  0  1  0  0  0  0  0  0
  163.2340  211.7880  148.9450 O   0  0  0  0  0  0  0  0  0  0  0  0
  160.8460  213.1170  148.9990 N   0  0  0  0  0  1  0  0  0  0  0  0
  161.0000  212.0110  148.0650 C   0  0  1  0  0  3  0  0  0  0  0  0
  161.1130  212.5090  146.6220 C   0  0  0  0  0  2  0  0  0  0  0  0
  158.7440  212.6550  146.3440 O   0  0  0  0  0  0  0  0  0  0  0  0
  159.8500  212.3570  145.8230 C   0  0  0  0  0  0  0  0  0  0  0  0
  159.8740  211.8640  144.5160 O   0  0  0  0  0  0  0  0  0  0  0  0
  160.0520  212.6980  143.3770 C   0  0  2  0  0  3  0  0  0  0  0  0
  158.8510  212.8650  142.7090 F   0  0  0  0  0  0  0  0  0  0  0  0
  161.0620  212.0910  142.4560 C   0  0  0  0  0  0  0  0  0  0  0  0
  160.7680  211.1220  141.7760 O   0  0  0  0  0  0  0  0  0  0  0  0
  162.4420  212.6520  142.3840 C   0  0  0  0  0  2  0  0  0  0  0  0
  162.9410  212.8550  143.6720 O   0  0  0  0  0  1  0  0  0  0  0  0
  1  3  2  0  0  0  0
  2 23  1  6  0  0  0
  2  5  1  0  0  0  0
  4  2  1  0  0  0  0
  4  7  1  0  0  0  0
  5  8  1  0  0  0  0
  6  1  1  0  0  0  0
  6  8  1  0  0  0  0
  7  6  1  0  0  0  0
  8 12  1  1  0  0  0
  9 13  1  0  0  0  0
 10 11  1  0  0  0  0
 11  9  2  0  0  0  0
 12 10  2  0  0  0  0
 14 15  1  0  0  0  0
 15  9  1  0  0  0  0
 16 12  1  0  0  0  0
 16 14  2  0  0  0  0
 17 21  1  0  0  0  0
 18 22  1  0  0  0  0
 19 18  2  0  0  0  0
 20 19  1  0  0  0  0
 20 17  2  0  0  0  0
 21 22  2  0  0  0  0
 21  1  1  0  0  0  0
 23 25  1  1  0  0  0
 24 25  1  0  0  0  0
 27 23  1  0  0  0  0
 27 26  1  1  0  0  0
 28 27  1  0  0  0  0
 30 29  2  0  0  0  0
 30 28  1  0  0  0  0
 31 30  1  0  0  0  0
 32 33  1  6  0  0  0
 32 31  1  0  0  0  0
 34 32  1  0  0  0  0
 35 34  2  0  0  0  0
 36 34  1  0  0  0  0
 36 37  1  0  0  0  0
M  END
>  <MODEL>
5

>  <REMARK>
 VINA RESULT:      -4.9      4.390      8.310
  Name = 
  11 active torsions:
  status: ('A' for Active; 'I' for Inactive)
    1  A    between atoms: C_5  and  C_30
    2  A    between atoms: C_8  and  C_31
    3  A    between atoms: C_8  and  C_36
    4  A    between atoms: O_10  and  C_32
    5  A    between atoms: C_11  and  O_13
    6  A    between atoms: C_11  and  C_30
    7  A    between atoms: C_12  and  C_14
    8  A    between atoms: O_13  and  C_31
    9  A    between atoms: C_16  and  C_35
   10  A    between atoms: C_18  and  C_32
   11  A    between atoms: C_32  and  C_36
                            x       y       z     vdW  Elec       q    Type
                         _______ _______ _______ _____ _____    ______ ____

>  <TORSDO>
F 11

$$$$
=
 OpenBabel11052411013D

 37 39  0  0  1  0  0  0  0  0999 V2000
  158.4390  213.3010  154.1750 C   0  0  0  0  0  0  0  0  0  0  0  0
  160.1070  209.8470  152.3770 C   0  0  1  0  0  3  0  0  0  0  0  0
  158.9110  214.4530  153.9650 O   0  0  0  0  0  0  0  0  0  0  0  0
  158.9740  209.8560  153.4020 C   0  0  0  0  0  2  0  0  0  0  0  0
  160.9930  211.0690  152.6190 C   0  0  0  0  0  2  0  0  0  0  0  0
  158.9460  212.1860  153.4190 N   0  0  0  0  0  0  0  0  0  0  0  0
  158.1450  211.0440  153.2150 N   0  0  0  0  0  2  0  0  0  0  0  0
  160.1670  212.3560  152.6220 C   0  0  2  0  0  3  0  0  0  0  0  0
  159.6190  213.4170  148.1820 C   0  0  0  0  0  0  0  0  0  0  0  0
  160.7980  212.6940  150.2670 C   0  0  0  0  0  3  0  0  0  0  0  0
  160.7340  213.1790  148.8730 C   0  0  0  0  0  3  0  0  0  0  0  0
  159.8780  212.8550  151.2340 C   0  0  0  0  0  0  0  0  0  0  0  0
  159.7560  214.0230  146.5460 Cl  0  0  0  0  0  0  0  0  0  0  0  0
  157.9550  213.8200  149.9580 C   0  0  0  0  0  3  0  0  0  0  0  0
  158.2640  213.0730  148.7050 C   0  0  0  0  0  2  0  0  0  0  0  0
  158.6620  213.6820  151.0800 C   0  0  0  0  0  3  0  0  0  0  0  0
  156.2740  213.9940  155.2120 C   0  0  0  0  0  3  0  0  0  0  0  0
  156.4940  212.0670  157.1910 C   0  0  0  0  0  3  0  0  0  0  0  0
  155.4010  212.9340  157.1480 C   0  0  0  0  0  3  0  0  0  0  0  0
  155.3140  213.8720  156.1680 N   0  0  0  0  0  0  0  0  0  0  0  0
  157.3870  213.1410  155.2070 C   0  0  0  0  0  0  0  0  0  0  0  0
  157.4880  212.1770  156.2180 C   0  0  0  0  0  3  0  0  0  0  0  0
  160.9120  208.5450  152.4630 C   0  0  2  0  0  3  0  0  0  0  0  0
  161.0180  207.1980  154.2320 C   0  0  0  0  0  1  0  0  0  0  0  0
  161.4910  208.4140  153.7350 O   0  0  0  0  0  0  0  0  0  0  0  0
  162.7260  207.2690  151.3570 N   0  0  0  0  0  1  0  0  0  0  0  0
  162.0030  208.5320  151.3810 C   0  0  1  0  0  3  0  0  0  0  0  0
  161.5050  208.9190  149.9870 C   0  0  0  0  0  2  0  0  0  0  0  0
  162.7880  208.1090  148.1410 O   0  0  0  0  0  0  0  0  0  0  0  0
  161.8220  207.9080  148.9230 C   0  0  0  0  0  0  0  0  0  0  0  0
  161.0480  206.7560  148.7620 O   0  0  0  0  0  0  0  0  0  0  0  0
  161.3120  205.7790  147.7620 C   0  0  2  0  0  3  0  0  0  0  0  0
  160.4490  205.9380  146.6910 F   0  0  0  0  0  0  0  0  0  0  0  0
  161.1540  204.4080  148.3380 C   0  0  0  0  0  0  0  0  0  0  0  0
  160.8700  204.2660  149.5160 O   0  0  0  0  0  0  0  0  0  0  0  0
  161.3680  203.2060  147.4810 C   0  0  0  0  0  2  0  0  0  0  0  0
  161.2330  202.0460  148.2460 O   0  0  0  0  0  1  0  0  0  0  0  0
  1 21  1  0  0  0  0
  2 23  1  1  0  0  0
  2  5  1  0  0  0  0
  2  4  1  0  0  0  0
  3  1  2  0  0  0  0
  5  8  1  0  0  0  0
  6  1  1  0  0  0  0
  7  4  1  0  0  0  0
  7  6  1  0  0  0  0
  8 12  1  6  0  0  0
  8  6  1  0  0  0  0
  9 15  1  0  0  0  0
  9 11  2  0  0  0  0
 10 12  2  0  0  0  0
 11 10  1  0  0  0  0
 13  9  1  0  0  0  0
 14 16  2  0  0  0  0
 15 14  1  0  0  0  0
 16 12  1  0  0  0  0
 17 20  1  0  0  0  0
 19 18  1  0  0  0  0
 20 19  2  0  0  0  0
 21 17  2  0  0  0  0
 21 22  1  0  0  0  0
 22 18  2  0  0  0  0
 23 25  1  1  0  0  0
 25 24  1  0  0  0  0
 27 26  1  6  0  0  0
 27 23  1  0  0  0  0
 28 27  1  0  0  0  0
 29 30  2  0  0  0  0
 30 28  1  0  0  0  0
 31 30  1  0  0  0  0
 32 33  1  6  0  0  0
 32 34  1  0  0  0  0
 32 31  1  0  0  0  0
 34 35  2  0  0  0  0
 36 37  1  0  0  0  0
 36 34  1  0  0  0  0
M  END
>  <MODEL>
6

>  <REMARK>
 VINA RESULT:      -4.8      3.836      8.534
  Name = 
  11 active torsions:
  status: ('A' for Active; 'I' for Inactive)
    1  A    between atoms: C_5  and  C_30
    2  A    between atoms: C_8  and  C_31
    3  A    between atoms: C_8  and  C_36
    4  A    between atoms: O_10  and  C_32
    5  A    between atoms: C_11  and  O_13
    6  A    between atoms: C_11  and  C_30
    7  A    between atoms: C_12  and  C_14
    8  A    between atoms: O_13  and  C_31
    9  A    between atoms: C_16  and  C_35
   10  A    between atoms: C_18  and  C_32
   11  A    between atoms: C_32  and  C_36
                            x       y       z     vdW  Elec       q    Type
                         _______ _______ _______ _____ _____    ______ ____

>  <TORSDO>
F 11

$$$$
=
 OpenBabel11052411013D

 37 39  0  0  1  0  0  0  0  0999 V2000
  160.1520  211.1680  154.6540 C   0  0  0  0  0  0  0  0  0  0  0  0
  158.7180  213.4050  151.3540 C   0  0  1  0  0  3  0  0  0  0  0  0
  160.3450  211.7000  155.7830 O   0  0  0  0  0  0  0  0  0  0  0  0
  159.1510  211.9400  151.3140 C   0  0  0  0  0  2  0  0  0  0  0  0
  159.5020  214.1140  152.4570 C   0  0  0  0  0  2  0  0  0  0  0  0
  159.5190  211.9380  153.6140 N   0  0  0  0  0  0  0  0  0  0  0  0
  158.8170  211.2890  152.5780 N   0  0  0  0  0  2  0  0  0  0  0  0
  159.3550  213.3850  153.7930 C   0  0  2  0  0  3  0  0  0  0  0  0
  155.1840  213.9910  155.6320 C   0  0  0  0  0  0  0  0  0  0  0  0
  156.9000  213.5570  153.8630 C   0  0  0  0  0  3  0  0  0  0  0  0
  155.5510  213.9060  154.3530 C   0  0  0  0  0  3  0  0  0  0  0  0
  158.0720  213.7320  154.4980 C   0  0  0  0  0  0  0  0  0  0  0  0
  153.5390  214.4530  156.0070 Cl  0  0  0  0  0  0  0  0  0  0  0  0
  157.3230  214.4190  156.7830 C   0  0  0  0  0  3  0  0  0  0  0  0
  156.0860  213.5880  156.7510 C   0  0  0  0  0  2  0  0  0  0  0  0
  158.2090  214.4410  155.7880 C   0  0  0  0  0  3  0  0  0  0  0  0
  161.0250  209.3590  153.1680 C   0  0  0  0  0  3  0  0  0  0  0  0
  160.9770  207.5090  155.2300 C   0  0  0  0  0  3  0  0  0  0  0  0
  161.4000  207.1500  153.9500 C   0  0  0  0  0  3  0  0  0  0  0  0
  161.4150  208.0740  152.9540 N   0  0  0  0  0  0  0  0  0  0  0  0
  160.5990  209.7720  154.4390 C   0  0  0  0  0  0  0  0  0  0  0  0
  160.5740  208.8230  155.4700 C   0  0  0  0  0  3  0  0  0  0  0  0
  158.9340  214.0760  149.9920 C   0  0  2  0  0  3  0  0  0  0  0  0
  156.7900  214.4040  150.4900 C   0  0  0  0  0  1  0  0  0  0  0  0
  157.7020  214.4510  149.4340 O   0  0  0  0  0  0  0  0  0  0  0  0
  159.0590  213.0760  147.7280 N   0  0  0  0  0  1  0  0  0  0  0  0
  159.6730  213.1160  149.0470 C   0  0  1  0  0  3  0  0  0  0  0  0
  161.1800  213.3660  148.9560 C   0  0  0  0  0  2  0  0  0  0  0  0
  163.1360  212.2940  148.0970 O   0  0  0  0  0  0  0  0  0  0  0  0
  161.9780  212.1530  148.5690 C   0  0  0  0  0  0  0  0  0  0  0  0
  161.4490  210.8660  148.6960 O   0  0  0  0  0  0  0  0  0  0  0  0
  161.8770  209.9490  149.6960 C   0  0  2  0  0  3  0  0  0  0  0  0
  163.0270  210.4100  150.3130 F   0  0  0  0  0  0  0  0  0  0  0  0
  162.1360  208.6120  149.0790 C   0  0  0  0  0  0  0  0  0  0  0  0
  162.6200  208.5340  147.9620 O   0  0  0  0  0  0  0  0  0  0  0  0
  161.7800  207.3650  149.8160 C   0  0  0  0  0  2  0  0  0  0  0  0
  160.9480  206.5670  149.0280 O   0  0  0  0  0  1  0  0  0  0  0  0
  1  3  2  0  0  0  0
  2 23  1  6  0  0  0
  2  5  1  0  0  0  0
  4  2  1  0  0  0  0
  4  7  1  0  0  0  0
  5  8  1  0  0  0  0
  6  8  1  0  0  0  0
  6  1  1  0  0  0  0
  7  6  1  0  0  0  0
  8 12  1  6  0  0  0
  9 13  1  0  0  0  0
  9 15  1  0  0  0  0
 10 11  1  0  0  0  0
 10 12  2  0  0  0  0
 11  9  2  0  0  0  0
 12 16  1  0  0  0  0
 15 14  1  0  0  0  0
 16 14  2  0  0  0  0
 17 21  1  0  0  0  0
 18 22  1  0  0  0  0
 19 18  2  0  0  0  0
 20 17  2  0  0  0  0
 20 19  1  0  0  0  0
 21  1  1  0  0  0  0
 21 22  2  0  0  0  0
 23 25  1  6  0  0  0
 25 24  1  0  0  0  0
 27 26  1  6  0  0  0
 27 23  1  0  0  0  0
 28 27  1  0  0  0  0
 29 30  2  0  0  0  0
 30 31  1  0  0  0  0
 30 28  1  0  0  0  0
 31 32  1  0  0  0  0
 32 33  1  6  0  0  0
 34 32  1  0  0  0  0
 34 36  1  0  0  0  0
 35 34  2  0  0  0  0
 37 36  1  0  0  0  0
M  END
>  <MODEL>
7

>  <REMARK>
 VINA RESULT:      -3.8      3.669      8.672
  Name = 
  11 active torsions:
  status: ('A' for Active; 'I' for Inactive)
    1  A    between atoms: C_5  and  C_30
    2  A    between atoms: C_8  and  C_31
    3  A    between atoms: C_8  and  C_36
    4  A    between atoms: O_10  and  C_32
    5  A    between atoms: C_11  and  O_13
    6  A    between atoms: C_11  and  C_30
    7  A    between atoms: C_12  and  C_14
    8  A    between atoms: O_13  and  C_31
    9  A    between atoms: C_16  and  C_35
   10  A    between atoms: C_18  and  C_32
   11  A    between atoms: C_32  and  C_36
                            x       y       z     vdW  Elec       q    Type
                         _______ _______ _______ _____ _____    ______ ____

>  <TORSDO>
F 11

$$$$
=
 OpenBabel11052411013D

 37 39  0  0  1  0  0  0  0  0999 V2000
  162.2160  207.3520  150.2450 C   0  0  0  0  0  0  0  0  0  0  0  0
  161.8290  211.4020  149.0630 C   0  0  1  0  0  3  0  0  0  0  0  0
  162.6450  207.0320  151.3880 O   0  0  0  0  0  0  0  0  0  0  0  0
  161.5800  210.1880  148.1700 C   0  0  0  0  0  2  0  0  0  0  0  0
  162.8670  211.0240  150.1200 C   0  0  0  0  0  2  0  0  0  0  0  0
  161.9590  208.7380  149.9540 N   0  0  0  0  0  0  0  0  0  0  0  0
  161.0230  209.0940  148.9620 N   0  0  0  0  0  2  0  0  0  0  0  0
  162.4460  209.7670  150.8810 C   0  0  2  0  0  3  0  0  0  0  0  0
  159.8390  210.4460  154.6080 C   0  0  0  0  0  0  0  0  0  0  0  0
  161.4090  209.2670  153.0580 C   0  0  0  0  0  3  0  0  0  0  0  0
  160.4680  209.3460  154.1930 C   0  0  0  0  0  3  0  0  0  0  0  0
  161.4570  210.0630  151.9750 C   0  0  0  0  0  0  0  0  0  0  0  0
  158.7320  210.3240  155.9570 Cl  0  0  0  0  0  0  0  0  0  0  0  0
  159.8330  211.8630  152.5890 C   0  0  0  0  0  3  0  0  0  0  0  0
  160.1360  211.7970  154.0480 C   0  0  0  0  0  2  0  0  0  0  0  0
  160.4560  211.1100  151.6830 C   0  0  0  0  0  3  0  0  0  0  0  0
  162.3630  206.5010  147.9010 C   0  0  0  0  0  3  0  0  0  0  0  0
  161.2060  204.0830  148.6030 C   0  0  0  0  0  3  0  0  0  0  0  0
  161.5870  204.3430  147.2860 C   0  0  0  0  0  3  0  0  0  0  0  0
  162.1530  205.5370  146.9640 N   0  0  0  0  0  0  0  0  0  0  0  0
  162.0050  206.2840  149.2390 C   0  0  0  0  0  0  0  0  0  0  0  0
  161.4150  205.0590  149.5770 C   0  0  0  0  0  3  0  0  0  0  0  0
  162.2870  212.6070  148.2330 C   0  0  2  0  0  3  0  0  0  0  0  0
  160.7020  213.6620  149.3850 C   0  0  0  0  0  1  0  0  0  0  0  0
  162.0090  213.8010  148.9160 O   0  0  0  0  0  0  0  0  0  0  0  0
  160.1390  212.4700  147.0060 N   0  0  0  0  0  1  0  0  0  0  0  0
  161.5820  212.6000  146.8690 C   0  0  1  0  0  3  0  0  0  0  0  0
  161.9540  213.7790  145.9660 C   0  0  0  0  0  2  0  0  0  0  0  0
  163.4600  213.0650  144.2550 O   0  0  0  0  0  0  0  0  0  0  0  0
  162.2810  213.3880  144.5540 C   0  0  0  0  0  0  0  0  0  0  0  0
  161.3060  213.4010  143.5530 O   0  0  0  0  0  0  0  0  0  0  0  0
  161.6120  213.2430  142.1720 C   0  0  2  0  0  3  0  0  0  0  0  0
  160.8390  214.0970  141.4050 F   0  0  0  0  0  0  0  0  0  0  0  0
  161.3640  211.8280  141.7570 C   0  0  0  0  0  0  0  0  0  0  0  0
  160.4530  211.1910  142.2600 O   0  0  0  0  0  0  0  0  0  0  0  0
  162.2460  211.1790  140.7440 C   0  0  0  0  0  2  0  0  0  0  0  0
  161.5890  210.0880  140.1700 O   0  0  0  0  0  1  0  0  0  0  0  0
  1  3  2  0  0  0  0
  2 23  1  6  0  0  0
  2  5  1  0  0  0  0
  4  7  1  0  0  0  0
  4  2  1  0  0  0  0
  5  8  1  0  0  0  0
  6  1  1  0  0  0  0
  6  8  1  0  0  0  0
  7  6  1  0  0  0  0
  8 12  1  1  0  0  0
  9 13  1  0  0  0  0
 10 11  1  0  0  0  0
 11  9  2  0  0  0  0
 12 10  2  0  0  0  0
 14 15  1  0  0  0  0
 15  9  1  0  0  0  0
 16 12  1  0  0  0  0
 16 14  2  0  0  0  0
 17 21  1  0  0  0  0
 18 22  1  0  0  0  0
 19 18  2  0  0  0  0
 20 19  1  0  0  0  0
 20 17  2  0  0  0  0
 21 22  2  0  0  0  0
 21  1  1  0  0  0  0
 23 25  1  1  0  0  0
 25 24  1  0  0  0  0
 27 26  1  1  0  0  0
 27 23  1  0  0  0  0
 28 27  1  0  0  0  0
 29 30  2  0  0  0  0
 30 28  1  0  0  0  0
 31 30  1  0  0  0  0
 32 33  1  6  0  0  0
 32 31  1  0  0  0  0
 34 32  1  0  0  0  0
 34 35  2  0  0  0  0
 36 34  1  0  0  0  0
 37 36  1  0  0  0  0
M  END
>  <MODEL>
8

>  <REMARK>
 VINA RESULT:      -3.8      4.874      8.747
  Name = 
  11 active torsions:
  status: ('A' for Active; 'I' for Inactive)
    1  A    between atoms: C_5  and  C_30
    2  A    between atoms: C_8  and  C_31
    3  A    between atoms: C_8  and  C_36
    4  A    between atoms: O_10  and  C_32
    5  A    between atoms: C_11  and  O_13
    6  A    between atoms: C_11  and  C_30
    7  A    between atoms: C_12  and  C_14
    8  A    between atoms: O_13  and  C_31
    9  A    between atoms: C_16  and  C_35
   10  A    between atoms: C_18  and  C_32
   11  A    between atoms: C_32  and  C_36
                            x       y       z     vdW  Elec       q    Type
                         _______ _______ _______ _____ _____    ______ ____

>  <TORSDO>
F 11

$$$$
=
 OpenBabel11052411013D

 37 39  0  0  1  0  0  0  0  0999 V2000
  161.7380  210.0080  153.6590 C   0  0  0  0  0  0  0  0  0  0  0  0
  161.3010  207.5650  150.2250 C   0  0  1  0  0  3  0  0  0  0  0  0
  162.5450  210.9780  153.6850 O   0  0  0  0  0  0  0  0  0  0  0  0
  160.6130  207.3380  151.5700 C   0  0  0  0  0  2  0  0  0  0  0  0
  162.6270  208.2840  150.4710 C   0  0  0  0  0  2  0  0  0  0  0  0
  161.5180  209.3100  152.4190 N   0  0  0  0  0  0  0  0  0  0  0  0
  160.3080  208.6230  152.1950 N   0  0  0  0  0  2  0  0  0  0  0  0
  162.4190  209.5600  151.2870 C   0  0  2  0  0  3  0  0  0  0  0  0
  161.0230  212.7000  148.2320 C   0  0  0  0  0  0  0  0  0  0  0  0
  162.3290  210.7720  149.1460 C   0  0  0  0  0  3  0  0  0  0  0  0
  162.0500  211.8520  148.1780 C   0  0  0  0  0  3  0  0  0  0  0  0
  161.9650  210.7160  150.4390 C   0  0  0  0  0  0  0  0  0  0  0  0
  160.8870  213.9370  147.0020 Cl  0  0  0  0  0  0  0  0  0  0  0  0
  160.4260  212.6780  150.6250 C   0  0  0  0  0  3  0  0  0  0  0  0
  159.9200  212.5580  149.2280 C   0  0  0  0  0  2  0  0  0  0  0  0
  161.3060  211.8290  151.1540 C   0  0  0  0  0  3  0  0  0  0  0  0
  161.4920  208.4890  155.6270 C   0  0  0  0  0  3  0  0  0  0  0  0
  159.3110  209.9100  156.5750 C   0  0  0  0  0  3  0  0  0  0  0  0
  159.7870  208.7870  157.2520 C   0  0  0  0  0  3  0  0  0  0  0  0
  160.8580  208.1050  156.7680 N   0  0  0  0  0  0  0  0  0  0  0  0
  161.0560  209.6150  154.9150 C   0  0  0  0  0  0  0  0  0  0  0  0
  159.9480  210.3200  155.4030 C   0  0  0  0  0  3  0  0  0  0  0  0
  161.5100  206.2380  149.4870 C   0  0  2  0  0  3  0  0  0  0  0  0
  161.9820  206.6280  147.3470 C   0  0  0  0  0  1  0  0  0  0  0  0
  160.9340  206.2960  148.2090 O   0  0  0  0  0  0  0  0  0  0  0  0
  159.4530  204.9970  150.0940 N   0  0  0  0  0  1  0  0  0  0  0  0
  160.8910  205.0870  150.2950 C   0  0  1  0  0  3  0  0  0  0  0  0
  161.5730  203.7340  150.0790 C   0  0  0  0  0  2  0  0  0  0  0  0
  160.0990  202.1600  149.0500 O   0  0  0  0  0  0  0  0  0  0  0  0
  161.0500  202.9690  148.8970 C   0  0  0  0  0  0  0  0  0  0  0  0
  161.6190  203.1160  147.6290 O   0  0  0  0  0  0  0  0  0  0  0  0
  160.8570  203.0660  146.4280 C   0  0  2  0  0  3  0  0  0  0  0  0
  160.7380  201.7590  145.9860 F   0  0  0  0  0  0  0  0  0  0  0  0
  161.5150  203.8980  145.3750 C   0  0  0  0  0  0  0  0  0  0  0  0
  162.7250  204.0540  145.3820 O   0  0  0  0  0  0  0  0  0  0  0  0
  160.6920  204.5630  144.3230 C   0  0  0  0  0  2  0  0  0  0  0  0
  160.1090  205.7230  144.8380 O   0  0  0  0  0  1  0  0  0  0  0  0
  1  3  2  0  0  0  0
  1 21  1  0  0  0  0
  2 23  1  1  0  0  0
  2  5  1  0  0  0  0
  2  4  1  0  0  0  0
  4  7  1  0  0  0  0
  5  8  1  0  0  0  0
  6  1  1  0  0  0  0
  7  6  1  0  0  0  0
  8 12  1  6  0  0  0
  8  6  1  0  0  0  0
  9 15  1  0  0  0  0
 10 12  2  0  0  0  0
 11  9  2  0  0  0  0
 11 10  1  0  0  0  0
 12 16  1  0  0  0  0
 13  9  1  0  0  0  0
 14 16  2  0  0  0  0
 15 14  1  0  0  0  0
 17 20  1  0  0  0  0
 18 19  1  0  0  0  0
 20 19  2  0  0  0  0
 21 22  1  0  0  0  0
 21 17  2  0  0  0  0
 22 18  2  0  0  0  0
 23 25  1  6  0  0  0
 23 27  1  0  0  0  0
 24 25  1  0  0  0  0
 27 26  1  6  0  0  0
 28 27  1  0  0  0  0
 30 29  2  0  0  0  0
 30 28  1  0  0  0  0
 31 30  1  0  0  0  0
 32 33  1  6  0  0  0
 32 31  1  0  0  0  0
 34 35  2  0  0  0  0
 34 32  1  0  0  0  0
 36 37  1  0  0  0  0
 36 34  1  0  0  0  0
M  END
>  <MODEL>
9

>  <REMARK>
 VINA RESULT:      -3.7      4.101      8.753
  Name = 
  11 active torsions:
  status: ('A' for Active; 'I' for Inactive)
    1  A    between atoms: C_5  and  C_30
    2  A    between atoms: C_8  and  C_31
    3  A    between atoms: C_8  and  C_36
    4  A    between atoms: O_10  and  C_32
    5  A    between atoms: C_11  and  O_13
    6  A    between atoms: C_11  and  C_30
    7  A    between atoms: C_12  and  C_14
    8  A    between atoms: O_13  and  C_31
    9  A    between atoms: C_16  and  C_35
   10  A    between atoms: C_18  and  C_32
   11  A    between atoms: C_32  and  C_36
                            x       y       z     vdW  Elec       q    Type
                         _______ _______ _______ _____ _____    ______ ____

>  <TORSDO>
F 11

$$$$
