=
 OpenBabel11042421073D

 36 40  0  0  1  0  0  0  0  0999 V2000
  162.2050  209.3140  156.8120 N   0  0  0  0  0  2  0  0  0  0  0  0
  162.5890  210.3980  155.9610 C   0  0  0  0  0  3  0  0  0  0  0  0
  161.7740  210.8440  155.0520 N   0  0  0  0  0  0  0  0  0  0  0  0
  160.3900  210.3610  154.9030 C   0  0  1  0  0  3  0  0  0  0  0  0
  160.6560  207.6320  157.2570 O   0  0  0  0  0  0  0  0  0  0  0  0
  161.0350  208.5610  156.4980 C   0  0  0  0  0  0  0  0  0  0  0  0
  160.2930  208.8530  155.2270 C   0  0  2  0  0  3  0  0  0  0  0  0
  158.1120  210.6470  155.5570 C   0  0  0  0  0  2  0  0  0  0  0  0
  159.4940  212.5360  155.2980 C   0  0  1  0  0  3  0  0  0  0  0  0
  157.0120  212.8180  156.0790 C   0  0  0  0  0  2  0  0  0  0  0  0
  157.2220  211.7490  155.0180 C   0  0  1  0  0  3  0  0  0  0  0  0
  159.4780  211.1440  155.7520 N   0  0  2  0  0  0  0  0  0  0  0  0
  158.0750  212.9800  155.0130 C   0  0  2  0  0  0  0  0  0  0  0  0
  160.1260  213.4210  156.3590 C   0  0  0  0  0  1  0  0  0  0  0  0
  157.7700  213.8750  153.8280 C   0  0  0  0  0  2  0  0  0  0  0  0
  157.7220  213.0800  152.6130 N   0  0  0  0  0  2  0  0  0  0  0  0
  158.3360  213.8810  151.5670 C   0  0  0  0  0  2  0  0  0  0  0  0
  159.5110  213.1360  150.9390 C   0  0  2  0  0  3  0  0  0  0  0  0
  160.4630  212.8800  151.9120 F   0  0  0  0  0  0  0  0  0  0  0  0
  160.1250  213.9090  149.7650 C   0  0  1  0  0  3  0  0  0  0  0  0
  162.1050  213.7670  148.2550 O   0  0  0  0  0  0  0  0  0  0  0  0
  161.2410  213.1330  149.1360 C   0  0  0  0  0  0  0  0  0  0  0  0
  161.4020  211.9100  149.3970 O   0  0  0  0  0  1  0  0  0  0  0  0
  159.1000  214.2300  148.7180 C   0  0  0  0  0  3  0  0  0  0  0  0
  158.6680  213.3230  147.9230 N   0  0  0  0  0  2  0  0  0  0  0  0
  161.2290  207.3140  152.1690 C   0  0  0  0  0  0  0  0  0  0  0  0
  161.4850  206.9130  154.2090 O   0  0  0  0  0  0  0  0  0  0  0  0
  161.7690  206.4370  153.0370 N   0  0  0  0  0  0  0  0  0  0  0  0
  160.8120  208.0310  154.0840 C   0  0  0  0  0  0  0  0  0  0  0  0
  160.6090  208.3400  152.7880 N   0  0  0  0  0  0  0  0  0  0  0  0
  161.3190  207.1770  150.7060 C   0  0  0  0  0  0  0  0  0  0  0  0
  160.7960  206.0430  150.0680 C   0  0  0  0  0  3  0  0  0  0  0  0
  161.9230  208.1810  149.9370 C   0  0  0  0  0  3  0  0  0  0  0  0
  160.8730  205.9180  148.6770 C   0  0  0  0  0  3  0  0  0  0  0  0
  161.4750  206.9230  147.9170 C   0  0  0  0  0  3  0  0  0  0  0  0
  162.0010  208.0550  148.5470 C   0  0  0  0  0  3  0  0  0  0  0  0
  2  1  1  0  0  0  0
  3  2  2  0  0  0  0
  4  3  1  1  0  0  0
  4  7  1  0  0  0  0
  4 12  1  0  0  0  0
  6  1  1  0  0  0  0
  6  5  2  0  0  0  0
  7 29  1  6  0  0  0
  7  6  1  0  0  0  0
  9 12  1  0  0  0  0
  9 14  1  1  0  0  0
 11  8  1  1  0  0  0
 11 10  1  0  0  0  0
 12  8  1  6  0  0  0
 13 15  1  6  0  0  0
 13 11  1  0  0  0  0
 13  9  1  0  0  0  0
 13 10  1  0  0  0  0
 16 15  1  0  0  0  0
 17 16  1  0  0  0  0
 18 17  1  0  0  0  0
 18 19  1  1  0  0  0
 20 24  1  6  0  0  0
 20 18  1  0  0  0  0
 21 22  2  0  0  0  0
 22 23  1  0  0  0  0
 22 20  1  0  0  0  0
 25 24  2  0  0  0  0
 26 30  1  0  0  0  0
 26 28  2  0  0  0  0
 28 27  1  0  0  0  0
 29 27  1  0  0  0  0
 30 29  2  0  0  0  0
 31 26  1  0  0  0  0
 32 31  1  0  0  0  0
 33 31  2  0  0  0  0
 34 32  2  0  0  0  0
 35 36  2  0  0  0  0
 35 34  1  0  0  0  0
 36 33  1  0  0  0  0
M  END
>  <MODEL>
1

>  <REMARK>
 VINA RESULT:      -6.8      0.000      0.000
  Name = 
  10 active torsions:
  status: ('A' for Active; 'I' for Inactive)
    1  A    between atoms: C_2  and  C_4
    2  A    between atoms: N_6  and  C_7
    3  A    between atoms: N_6  and  C_18
    4  A    between atoms: C_7  and  C_30
    5  A    between atoms: C_13  and  N_27
    6  A    between atoms: C_14  and  C_17
    7  A    between atoms: C_14  and  C_20
    8  A    between atoms: C_14  and  C_29
    9  A    between atoms: C_17  and  C_18
   10  A    between atoms: C_19  and  C_32
                            x       y       z     vdW  Elec       q    Type
                         _______ _______ _______ _____ _____    ______ ____

>  <TORSDO>
F 10

$$$$
=
 OpenBabel11042421073D

 36 40  0  0  1  0  0  0  0  0999 V2000
  161.7500  208.8750  156.1960 N   0  0  0  0  0  2  0  0  0  0  0  0
  160.7430  207.9360  155.8060 C   0  0  0  0  0  3  0  0  0  0  0  0
  160.2120  207.9930  154.6210 N   0  0  0  0  0  0  0  0  0  0  0  0
  160.6680  208.9270  153.5770 C   0  0  1  0  0  3  0  0  0  0  0  0
  162.8970  210.8370  155.6850 O   0  0  0  0  0  0  0  0  0  0  0  0
  161.9870  210.0230  155.3820 C   0  0  0  0  0  0  0  0  0  0  0  0
  161.1070  210.2740  154.1940 C   0  0  2  0  0  3  0  0  0  0  0  0
  162.1440  209.2660  151.7310 C   0  0  0  0  0  2  0  0  0  0  0  0
  161.2480  207.1240  152.1270 C   0  0  1  0  0  3  0  0  0  0  0  0
  162.9210  207.5060  150.1500 C   0  0  0  0  0  2  0  0  0  0  0  0
  161.9310  208.6400  150.3680 C   0  0  1  0  0  3  0  0  0  0  0  0
  161.7570  208.3260  152.7890 N   0  0  2  0  0  0  0  0  0  0  0  0
  161.5160  207.2270  150.6400 C   0  0  2  0  0  0  0  0  0  0  0  0
  161.9190  205.8890  152.7040 C   0  0  0  0  0  1  0  0  0  0  0  0
  160.4920  206.7340  149.6360 C   0  0  0  0  0  2  0  0  0  0  0  0
  160.9580  207.0060  148.2870 N   0  0  0  0  0  2  0  0  0  0  0  0
  160.5260  205.8880  147.4640 C   0  0  0  0  0  2  0  0  0  0  0  0
  161.6690  204.8980  147.2600 C   0  0  2  0  0  3  0  0  0  0  0  0
  162.8790  205.5600  147.3980 F   0  0  0  0  0  0  0  0  0  0  0  0
  161.5870  204.1920  145.9000 C   0  0  1  0  0  3  0  0  0  0  0  0
  160.4500  202.2020  144.9170 O   0  0  0  0  0  0  0  0  0  0  0  0
  160.9700  202.8340  146.0380 C   0  0  0  0  0  0  0  0  0  0  0  0
  160.9180  202.2600  147.1590 O   0  0  0  0  0  1  0  0  0  0  0  0
  160.7940  204.9920  144.9100 C   0  0  0  0  0  3  0  0  0  0  0  0
  161.3170  205.3680  143.8030 N   0  0  0  0  0  2  0  0  0  0  0  0
  158.1970  212.2900  154.4520 C   0  0  0  0  0  0  0  0  0  0  0  0
  159.5770  211.4400  155.7810 O   0  0  0  0  0  0  0  0  0  0  0  0
  158.5090  212.1760  155.7580 N   0  0  0  0  0  0  0  0  0  0  0  0
  159.9110  211.1040  154.5580 C   0  0  0  0  0  0  0  0  0  0  0  0
  159.0610  211.6280  153.6540 N   0  0  0  0  0  0  0  0  0  0  0  0
  157.0330  213.0390  153.9520 C   0  0  0  0  0  0  0  0  0  0  0  0
  157.0140  213.5190  152.6340 C   0  0  0  0  0  3  0  0  0  0  0  0
  155.9320  213.2760  154.7860 C   0  0  0  0  0  3  0  0  0  0  0  0
  155.9040  214.2230  152.1570 C   0  0  0  0  0  3  0  0  0  0  0  0
  154.8090  214.4530  152.9920 C   0  0  0  0  0  3  0  0  0  0  0  0
  154.8230  213.9810  154.3080 C   0  0  0  0  0  3  0  0  0  0  0  0
  2  1  1  0  0  0  0
  3  2  2  0  0  0  0
  4  7  1  0  0  0  0
  4  3  1  1  0  0  0
  6  5  2  0  0  0  0
  6  1  1  0  0  0  0
  7 29  1  1  0  0  0
  7  6  1  0  0  0  0
  9 14  1  1  0  0  0
  9 12  1  0  0  0  0
 10 13  1  0  0  0  0
 11 10  1  6  0  0  0
 11 13  1  0  0  0  0
 11  8  1  0  0  0  0
 12  8  1  6  0  0  0
 12  4  1  0  0  0  0
 13 15  1  6  0  0  0
 13  9  1  0  0  0  0
 16 15  1  0  0  0  0
 17 16  1  0  0  0  0
 18 19  1  6  0  0  0
 18 17  1  0  0  0  0
 20 24  1  6  0  0  0
 20 22  1  0  0  0  0
 20 18  1  0  0  0  0
 21 22  2  0  0  0  0
 22 23  1  0  0  0  0
 25 24  2  0  0  0  0
 26 28  2  0  0  0  0
 28 27  1  0  0  0  0
 29 27  1  0  0  0  0
 30 26  1  0  0  0  0
 30 29  2  0  0  0  0
 31 26  1  0  0  0  0
 31 33  1  0  0  0  0
 32 31  2  0  0  0  0
 34 32  1  0  0  0  0
 34 35  2  0  0  0  0
 35 36  1  0  0  0  0
 36 33  2  0  0  0  0
M  END
>  <MODEL>
2

>  <REMARK>
 VINA RESULT:      -6.5      3.769      7.840
  Name = 
  10 active torsions:
  status: ('A' for Active; 'I' for Inactive)
    1  A    between atoms: C_2  and  C_4
    2  A    between atoms: N_6  and  C_7
    3  A    between atoms: N_6  and  C_18
    4  A    between atoms: C_7  and  C_30
    5  A    between atoms: C_13  and  N_27
    6  A    between atoms: C_14  and  C_17
    7  A    between atoms: C_14  and  C_20
    8  A    between atoms: C_14  and  C_29
    9  A    between atoms: C_17  and  C_18
   10  A    between atoms: C_19  and  C_32
                            x       y       z     vdW  Elec       q    Type
                         _______ _______ _______ _____ _____    ______ ____

>  <TORSDO>
F 10

$$$$
=
 OpenBabel11042421073D

 36 40  0  0  1  0  0  0  0  0999 V2000
  161.3670  208.2970  156.3750 N   0  0  0  0  0  2  0  0  0  0  0  0
  160.2870  207.6080  155.7380 C   0  0  0  0  0  3  0  0  0  0  0  0
  159.9060  207.9430  154.5400 N   0  0  0  0  0  0  0  0  0  0  0  0
  160.6060  208.9490  153.7250 C   0  0  1  0  0  3  0  0  0  0  0  0
  162.8330  210.1060  156.3240 O   0  0  0  0  0  0  0  0  0  0  0  0
  161.8560  209.5090  155.8030 C   0  0  0  0  0  0  0  0  0  0  0  0
  161.1600  210.0900  154.6080 C   0  0  2  0  0  3  0  0  0  0  0  0
  162.0610  209.2280  151.8520 C   0  0  0  0  0  2  0  0  0  0  0  0
  161.1520  207.1050  152.3140 C   0  0  1  0  0  3  0  0  0  0  0  0
  162.8020  207.4210  150.3070 C   0  0  0  0  0  2  0  0  0  0  0  0
  161.8240  208.5690  150.5080 C   0  0  1  0  0  3  0  0  0  0  0  0
  161.6790  208.3190  152.9390 N   0  0  2  0  0  0  0  0  0  0  0  0
  161.4010  207.1670  150.8220 C   0  0  2  0  0  0  0  0  0  0  0  0
  161.8200  205.8790  152.9150 C   0  0  0  0  0  1  0  0  0  0  0  0
  160.3610  206.6580  149.8440 C   0  0  0  0  0  2  0  0  0  0  0  0
  160.9700  205.7090  148.9280 N   0  0  0  0  0  2  0  0  0  0  0  0
  160.6520  204.3820  149.4290 C   0  0  0  0  0  2  0  0  0  0  0  0
  161.3620  203.3120  148.6050 C   0  0  2  0  0  3  0  0  0  0  0  0
  161.9060  203.8930  147.4700 F   0  0  0  0  0  0  0  0  0  0  0  0
  160.4270  202.1550  148.2300 C   0  0  1  0  0  3  0  0  0  0  0  0
  161.5520  200.1740  147.2180 O   0  0  0  0  0  1  0  0  0  0  0  0
  160.9460  201.4090  147.0400 C   0  0  0  0  0  0  0  0  0  0  0  0
  160.8380  201.8910  145.8810 O   0  0  0  0  0  0  0  0  0  0  0  0
  160.2480  201.1970  149.3700 C   0  0  0  0  0  3  0  0  0  0  0  0
  161.1960  200.9910  150.2070 N   0  0  0  0  0  2  0  0  0  0  0  0
  158.4020  212.2930  154.9710 C   0  0  0  0  0  0  0  0  0  0  0  0
  159.9130  211.5380  156.2100 O   0  0  0  0  0  0  0  0  0  0  0  0
  158.8850  212.3270  156.2280 N   0  0  0  0  0  0  0  0  0  0  0  0
  160.0620  211.0290  155.0110 C   0  0  0  0  0  0  0  0  0  0  0  0
  159.1190  211.4840  154.1630 N   0  0  0  0  0  0  0  0  0  0  0  0
  157.2130  213.0410  154.5310 C   0  0  0  0  0  0  0  0  0  0  0  0
  157.1350  213.5390  153.2220 C   0  0  0  0  0  3  0  0  0  0  0  0
  156.1470  213.2580  155.4140 C   0  0  0  0  0  3  0  0  0  0  0  0
  156.0020  214.2420  152.8020 C   0  0  0  0  0  3  0  0  0  0  0  0
  154.9420  214.4530  153.6860 C   0  0  0  0  0  3  0  0  0  0  0  0
  155.0140  213.9620  154.9930 C   0  0  0  0  0  3  0  0  0  0  0  0
  2  1  1  0  0  0  0
  3  2  2  0  0  0  0
  4  3  1  1  0  0  0
  4  7  1  0  0  0  0
  6  5  2  0  0  0  0
  6  1  1  0  0  0  0
  7 29  1  1  0  0  0
  7  6  1  0  0  0  0
  9 14  1  1  0  0  0
  9 12  1  0  0  0  0
 10 13  1  0  0  0  0
 11 10  1  6  0  0  0
 11 13  1  0  0  0  0
 11  8  1  0  0  0  0
 12  8  1  6  0  0  0
 12  4  1  0  0  0  0
 13 15  1  6  0  0  0
 13  9  1  0  0  0  0
 16 17  1  0  0  0  0
 16 15  1  0  0  0  0
 18 19  1  6  0  0  0
 18 17  1  0  0  0  0
 20 18  1  0  0  0  0
 20 24  1  1  0  0  0
 22 21  1  0  0  0  0
 22 20  1  0  0  0  0
 23 22  2  0  0  0  0
 24 25  2  0  0  0  0
 26 28  2  0  0  0  0
 27 28  1  0  0  0  0
 29 27  1  0  0  0  0
 30 26  1  0  0  0  0
 30 29  2  0  0  0  0
 31 26  1  0  0  0  0
 31 33  1  0  0  0  0
 32 31  2  0  0  0  0
 34 32  1  0  0  0  0
 34 35  2  0  0  0  0
 35 36  1  0  0  0  0
 36 33  2  0  0  0  0
M  END
>  <MODEL>
3

>  <REMARK>
 VINA RESULT:      -6.2      3.717      8.414
  Name = 
  10 active torsions:
  status: ('A' for Active; 'I' for Inactive)
    1  A    between atoms: C_2  and  C_4
    2  A    between atoms: N_6  and  C_7
    3  A    between atoms: N_6  and  C_18
    4  A    between atoms: C_7  and  C_30
    5  A    between atoms: C_13  and  N_27
    6  A    between atoms: C_14  and  C_17
    7  A    between atoms: C_14  and  C_20
    8  A    between atoms: C_14  and  C_29
    9  A    between atoms: C_17  and  C_18
   10  A    between atoms: C_19  and  C_32
                            x       y       z     vdW  Elec       q    Type
                         _______ _______ _______ _____ _____    ______ ____

>  <TORSDO>
F 10

$$$$
=
 OpenBabel11042421073D

 36 40  0  0  1  0  0  0  0  0999 V2000
  161.5910  208.8840  155.3880 N   0  0  0  0  0  2  0  0  0  0  0  0
  160.5190  208.0670  154.9090 C   0  0  0  0  0  3  0  0  0  0  0  0
  160.0760  208.2070  153.6940 N   0  0  0  0  0  0  0  0  0  0  0  0
  160.6970  209.1080  152.7090 C   0  0  1  0  0  3  0  0  0  0  0  0
  162.9710  210.7210  155.0070 O   0  0  0  0  0  0  0  0  0  0  0  0
  162.0020  210.0160  154.6240 C   0  0  0  0  0  0  0  0  0  0  0  0
  161.2340  210.3870  153.3910 C   0  0  2  0  0  3  0  0  0  0  0  0
  162.1780  209.2460  150.8410 C   0  0  0  0  0  2  0  0  0  0  0  0
  161.2190  207.1730  151.4160 C   0  0  1  0  0  3  0  0  0  0  0  0
  162.8980  207.3370  149.4140 C   0  0  0  0  0  2  0  0  0  0  0  0
  161.9430  208.5150  149.5350 C   0  0  1  0  0  3  0  0  0  0  0  0
  161.7650  208.4110  151.9750 N   0  0  2  0  0  0  0  0  0  0  0  0
  161.4860  207.1420  149.9250 C   0  0  2  0  0  0  0  0  0  0  0  0
  161.8540  205.9720  152.0950 C   0  0  0  0  0  1  0  0  0  0  0  0
  160.4460  206.5980  148.9660 C   0  0  0  0  0  2  0  0  0  0  0  0
  161.0750  205.6860  148.0270 N   0  0  0  0  0  2  0  0  0  0  0  0
  161.1100  204.3830  148.6710 C   0  0  0  0  0  2  0  0  0  0  0  0
  161.7130  203.3380  147.7370 C   0  0  2  0  0  3  0  0  0  0  0  0
  161.2570  203.5580  146.4470 F   0  0  0  0  0  0  0  0  0  0  0  0
  161.3950  201.9060  148.1890 C   0  0  1  0  0  3  0  0  0  0  0  0
  159.1380  201.4560  149.1490 O   0  0  0  0  0  0  0  0  0  0  0  0
  160.4370  201.9070  149.3400 C   0  0  0  0  0  0  0  0  0  0  0  0
  160.7960  202.3140  150.4770 O   0  0  0  0  0  1  0  0  0  0  0  0
  160.8190  201.0890  147.0720 C   0  0  0  0  0  3  0  0  0  0  0  0
  161.3530  199.9750  146.7310 N   0  0  0  0  0  2  0  0  0  0  0  0
  158.4340  212.2240  154.5650 C   0  0  0  0  0  0  0  0  0  0  0  0
  159.8300  212.4130  153.0140 O   0  0  0  0  0  0  0  0  0  0  0  0
  158.7930  213.0010  153.5240 N   0  0  0  0  0  0  0  0  0  0  0  0
  160.1120  211.3330  153.7020 C   0  0  0  0  0  0  0  0  0  0  0  0
  159.2410  211.1530  154.7140 N   0  0  0  0  0  0  0  0  0  0  0  0
  157.2970  212.5200  155.4520 C   0  0  0  0  0  0  0  0  0  0  0  0
  156.7720  213.8190  155.5210 C   0  0  0  0  0  3  0  0  0  0  0  0
  156.7250  211.5050  156.2320 C   0  0  0  0  0  3  0  0  0  0  0  0
  155.6860  214.0970  156.3570 C   0  0  0  0  0  3  0  0  0  0  0  0
  155.1200  213.0800  157.1290 C   0  0  0  0  0  3  0  0  0  0  0  0
  155.6400  211.7840  157.0680 C   0  0  0  0  0  3  0  0  0  0  0  0
  2  1  1  0  0  0  0
  3  2  2  0  0  0  0
  4  7  1  0  0  0  0
  4  3  1  1  0  0  0
  6  5  2  0  0  0  0
  6  1  1  0  0  0  0
  7 29  1  1  0  0  0
  7  6  1  0  0  0  0
  9 12  1  0  0  0  0
  9 14  1  1  0  0  0
 10 13  1  0  0  0  0
 11 10  1  1  0  0  0
 11 13  1  0  0  0  0
 11  8  1  0  0  0  0
 12  8  1  6  0  0  0
 12  4  1  0  0  0  0
 13 15  1  6  0  0  0
 13  9  1  0  0  0  0
 16 17  1  0  0  0  0
 16 15  1  0  0  0  0
 18 19  1  6  0  0  0
 18 20  1  0  0  0  0
 18 17  1  0  0  0  0
 20 24  1  6  0  0  0
 20 22  1  0  0  0  0
 21 22  2  0  0  0  0
 22 23  1  0  0  0  0
 25 24  2  0  0  0  0
 26 30  1  0  0  0  0
 26 31  1  0  0  0  0
 27 28  1  0  0  0  0
 27 29  1  0  0  0  0
 28 26  2  0  0  0  0
 29 30  2  0  0  0  0
 31 32  2  0  0  0  0
 31 33  1  0  0  0  0
 32 34  1  0  0  0  0
 33 36  2  0  0  0  0
 34 35  2  0  0  0  0
 36 35  1  0  0  0  0
M  END
>  <MODEL>
4

>  <REMARK>
 VINA RESULT:      -5.8      3.614      8.729
  Name = 
  10 active torsions:
  status: ('A' for Active; 'I' for Inactive)
    1  A    between atoms: C_2  and  C_4
    2  A    between atoms: N_6  and  C_7
    3  A    between atoms: N_6  and  C_18
    4  A    between atoms: C_7  and  C_30
    5  A    between atoms: C_13  and  N_27
    6  A    between atoms: C_14  and  C_17
    7  A    between atoms: C_14  and  C_20
    8  A    between atoms: C_14  and  C_29
    9  A    between atoms: C_17  and  C_18
   10  A    between atoms: C_19  and  C_32
                            x       y       z     vdW  Elec       q    Type
                         _______ _______ _______ _____ _____    ______ ____

>  <TORSDO>
F 10

$$$$
=
 OpenBabel11042421073D

 36 40  0  0  1  0  0  0  0  0999 V2000
  161.2980  210.8070  152.1090 N   0  0  0  0  0  2  0  0  0  0  0  0
  160.0110  210.2290  152.3470 C   0  0  0  0  0  3  0  0  0  0  0  0
  159.8960  208.9610  152.6140 N   0  0  0  0  0  0  0  0  0  0  0  0
  161.0530  208.0690  152.7990 C   0  0  1  0  0  3  0  0  0  0  0  0
  163.5700  210.4400  151.7480 O   0  0  0  0  0  0  0  0  0  0  0  0
  162.4230  209.9510  151.9150 C   0  0  0  0  0  0  0  0  0  0  0  0
  162.2140  208.4660  151.8600 C   0  0  2  0  0  3  0  0  0  0  0  0
  160.8380  206.9540  154.8990 C   0  0  0  0  0  2  0  0  0  0  0  0
  161.0070  209.3020  154.8410 C   0  0  1  0  0  3  0  0  0  0  0  0
  160.8390  208.0520  157.1340 C   0  0  0  0  0  2  0  0  0  0  0  0
  159.9700  207.4670  156.0310 C   0  0  1  0  0  3  0  0  0  0  0  0
  161.4860  208.0730  154.2060 N   0  0  2  0  0  0  0  0  0  0  0  0
  160.2160  208.9440  156.0810 C   0  0  2  0  0  0  0  0  0  0  0  0
  162.1850  210.1940  155.2000 C   0  0  0  0  0  1  0  0  0  0  0  0
  158.9620  209.7140  156.4460 C   0  0  0  0  0  2  0  0  0  0  0  0
  159.3230  210.9560  157.1070 N   0  0  0  0  0  2  0  0  0  0  0  0
  158.3360  211.9440  156.7050 C   0  0  0  0  0  2  0  0  0  0  0  0
  157.8840  211.6990  155.2680 C   0  0  2  0  0  3  0  0  0  0  0  0
  158.6770  212.4390  154.4060 F   0  0  0  0  0  0  0  0  0  0  0  0
  156.4000  212.0320  155.0640 C   0  0  1  0  0  3  0  0  0  0  0  0
  155.0630  211.1430  156.9720 O   0  0  0  0  0  1  0  0  0  0  0  0
  155.5250  210.9800  155.6740 C   0  0  0  0  0  0  0  0  0  0  0  0
  155.2060  209.9510  155.0210 O   0  0  0  0  0  0  0  0  0  0  0  0
  156.0470  213.3650  155.6530 C   0  0  0  0  0  3  0  0  0  0  0  0
  155.4570  214.2580  154.9490 N   0  0  0  0  0  2  0  0  0  0  0  0
  161.6700  206.7980  148.7750 C   0  0  0  0  0  0  0  0  0  0  0  0
  161.7520  208.7860  149.4300 O   0  0  0  0  0  0  0  0  0  0  0  0
  161.5700  208.0760  148.3610 N   0  0  0  0  0  0  0  0  0  0  0  0
  161.9470  207.9980  150.4600 C   0  0  0  0  0  0  0  0  0  0  0  0
  161.9110  206.7000  150.1000 N   0  0  0  0  0  0  0  0  0  0  0  0
  161.5160  205.6360  147.8860 C   0  0  0  0  0  0  0  0  0  0  0  0
  161.4200  204.3430  148.4210 C   0  0  0  0  0  3  0  0  0  0  0  0
  161.4600  205.8100  146.4960 C   0  0  0  0  0  3  0  0  0  0  0  0
  161.2650  203.2390  147.5750 C   0  0  0  0  0  3  0  0  0  0  0  0
  161.2070  203.4210  146.1920 C   0  0  0  0  0  3  0  0  0  0  0  0
  161.3050  204.7070  145.6520 C   0  0  0  0  0  3  0  0  0  0  0  0
  1  2  1  0  0  0  0
  2  3  2  0  0  0  0
  4  3  1  1  0  0  0
  4 12  1  0  0  0  0
  5  6  2  0  0  0  0
  6  1  1  0  0  0  0
  7 29  1  6  0  0  0
  7  6  1  0  0  0  0
  7  4  1  0  0  0  0
  9 14  1  1  0  0  0
  9 13  1  0  0  0  0
 11  8  1  6  0  0  0
 11 13  1  0  0  0  0
 11 10  1  0  0  0  0
 12  9  1  0  0  0  0
 12  8  1  1  0  0  0
 13 15  1  1  0  0  0
 13 10  1  0  0  0  0
 15 16  1  0  0  0  0
 17 16  1  0  0  0  0
 18 19  1  6  0  0  0
 18 17  1  0  0  0  0
 20 18  1  0  0  0  0
 20 24  1  1  0  0  0
 20 22  1  0  0  0  0
 22 21  1  0  0  0  0
 23 22  2  0  0  0  0
 25 24  2  0  0  0  0
 26 30  1  0  0  0  0
 27 29  1  0  0  0  0
 28 26  2  0  0  0  0
 28 27  1  0  0  0  0
 30 29  2  0  0  0  0
 31 32  1  0  0  0  0
 31 26  1  0  0  0  0
 33 31  2  0  0  0  0
 34 32  2  0  0  0  0
 35 34  1  0  0  0  0
 36 35  2  0  0  0  0
 36 33  1  0  0  0  0
M  END
>  <MODEL>
5

>  <REMARK>
 VINA RESULT:      -5.1      2.918      5.380
  Name = 
  10 active torsions:
  status: ('A' for Active; 'I' for Inactive)
    1  A    between atoms: C_2  and  C_4
    2  A    between atoms: N_6  and  C_7
    3  A    between atoms: N_6  and  C_18
    4  A    between atoms: C_7  and  C_30
    5  A    between atoms: C_13  and  N_27
    6  A    between atoms: C_14  and  C_17
    7  A    between atoms: C_14  and  C_20
    8  A    between atoms: C_14  and  C_29
    9  A    between atoms: C_17  and  C_18
   10  A    between atoms: C_19  and  C_32
                            x       y       z     vdW  Elec       q    Type
                         _______ _______ _______ _____ _____    ______ ____

>  <TORSDO>
F 10

$$$$
=
 OpenBabel11042421073D

 36 40  0  0  1  0  0  0  0  0999 V2000
  161.3320  210.8470  152.1860 N   0  0  0  0  0  2  0  0  0  0  0  0
  160.0180  210.3170  152.3820 C   0  0  0  0  0  3  0  0  0  0  0  0
  159.8470  209.0520  152.6330 N   0  0  0  0  0  0  0  0  0  0  0  0
  160.9640  208.1140  152.8400 C   0  0  1  0  0  3  0  0  0  0  0  0
  163.5970  210.3960  151.8840 O   0  0  0  0  0  0  0  0  0  0  0  0
  162.4280  209.9500  152.0140 C   0  0  0  0  0  0  0  0  0  0  0  0
  162.1650  208.4760  151.9370 C   0  0  2  0  0  3  0  0  0  0  0  0
  160.6690  206.9710  154.9150 C   0  0  0  0  0  2  0  0  0  0  0  0
  160.8840  209.3160  154.8990 C   0  0  1  0  0  3  0  0  0  0  0  0
  160.6280  208.0340  157.1670 C   0  0  0  0  0  2  0  0  0  0  0  0
  159.7800  207.4830  156.0300 C   0  0  1  0  0  3  0  0  0  0  0  0
  161.3570  208.0880  154.2580 N   0  0  2  0  0  0  0  0  0  0  0  0
  160.0520  208.9540  156.1110 C   0  0  2  0  0  0  0  0  0  0  0  0
  162.0670  210.1790  155.3050 C   0  0  0  0  0  1  0  0  0  0  0  0
  158.8030  209.7420  156.4530 C   0  0  0  0  0  2  0  0  0  0  0  0
  159.1460  211.1370  156.6680 N   0  0  0  0  0  2  0  0  0  0  0  0
  158.1210  211.9260  156.0040 C   0  0  0  0  0  2  0  0  0  0  0  0
  158.7350  212.7810  154.8990 C   0  0  2  0  0  3  0  0  0  0  0  0
  159.6930  213.6190  155.4460 F   0  0  0  0  0  0  0  0  0  0  0  0
  157.6750  213.5890  154.1380 C   0  0  1  0  0  3  0  0  0  0  0  0
  159.3400  213.6990  152.2850 O   0  0  0  0  0  1  0  0  0  0  0  0
  158.0100  213.6770  152.6810 C   0  0  0  0  0  0  0  0  0  0  0  0
  157.0990  213.7320  151.8120 O   0  0  0  0  0  0  0  0  0  0  0  0
  156.3090  212.9890  154.2910 C   0  0  0  0  0  3  0  0  0  0  0  0
  155.2990  213.7230  154.5810 N   0  0  0  0  0  2  0  0  0  0  0  0
  161.6620  206.8600  148.8180 C   0  0  0  0  0  0  0  0  0  0  0  0
  161.7490  208.8370  149.5050 O   0  0  0  0  0  0  0  0  0  0  0  0
  161.5810  208.1450  148.4220 N   0  0  0  0  0  0  0  0  0  0  0  0
  161.9190  208.0310  150.5260 C   0  0  0  0  0  0  0  0  0  0  0  0
  161.8790  206.7390  150.1440 N   0  0  0  0  0  0  0  0  0  0  0  0
  161.5150  205.7130  147.9070 C   0  0  0  0  0  0  0  0  0  0  0  0
  161.3810  205.9180  146.5260 C   0  0  0  0  0  3  0  0  0  0  0  0
  161.5130  204.4050  148.4110 C   0  0  0  0  0  3  0  0  0  0  0  0
  161.2510  204.8270  145.6610 C   0  0  0  0  0  3  0  0  0  0  0  0
  161.2520  203.5270  146.1690 C   0  0  0  0  0  3  0  0  0  0  0  0
  161.3820  203.3150  147.5460 C   0  0  0  0  0  3  0  0  0  0  0  0
  1  2  1  0  0  0  0
  2  3  2  0  0  0  0
  4  3  1  1  0  0  0
  4 12  1  0  0  0  0
  5  6  2  0  0  0  0
  6  1  1  0  0  0  0
  7 29  1  6  0  0  0
  7  6  1  0  0  0  0
  7  4  1  0  0  0  0
  9 14  1  1  0  0  0
  9 13  1  0  0  0  0
 11  8  1  6  0  0  0
 11 13  1  0  0  0  0
 11 10  1  0  0  0  0
 12  9  1  0  0  0  0
 12  8  1  1  0  0  0
 13 15  1  1  0  0  0
 13 10  1  0  0  0  0
 15 16  1  0  0  0  0
 17 16  1  0  0  0  0
 18 19  1  1  0  0  0
 18 17  1  0  0  0  0
 20 24  1  6  0  0  0
 20 18  1  0  0  0  0
 21 22  1  0  0  0  0
 22 20  1  0  0  0  0
 23 22  2  0  0  0  0
 24 25  2  0  0  0  0
 26 30  1  0  0  0  0
 27 29  1  0  0  0  0
 28 26  2  0  0  0  0
 28 27  1  0  0  0  0
 30 29  2  0  0  0  0
 31 33  1  0  0  0  0
 31 26  1  0  0  0  0
 32 31  2  0  0  0  0
 34 35  2  0  0  0  0
 34 32  1  0  0  0  0
 35 36  1  0  0  0  0
 36 33  2  0  0  0  0
M  END
>  <MODEL>
6

>  <REMARK>
 VINA RESULT:      -4.8      2.700      4.625
  Name = 
  10 active torsions:
  status: ('A' for Active; 'I' for Inactive)
    1  A    between atoms: C_2  and  C_4
    2  A    between atoms: N_6  and  C_7
    3  A    between atoms: N_6  and  C_18
    4  A    between atoms: C_7  and  C_30
    5  A    between atoms: C_13  and  N_27
    6  A    between atoms: C_14  and  C_17
    7  A    between atoms: C_14  and  C_20
    8  A    between atoms: C_14  and  C_29
    9  A    between atoms: C_17  and  C_18
   10  A    between atoms: C_19  and  C_32
                            x       y       z     vdW  Elec       q    Type
                         _______ _______ _______ _____ _____    ______ ____

>  <TORSDO>
F 10

$$$$
=
 OpenBabel11042421073D

 36 40  0  0  1  0  0  0  0  0999 V2000
  162.6410  207.7700  150.8840 N   0  0  0  0  0  2  0  0  0  0  0  0
  161.2910  208.2410  150.9370 C   0  0  0  0  0  3  0  0  0  0  0  0
  160.4640  207.7740  151.8240 N   0  0  0  0  0  0  0  0  0  0  0  0
  160.8660  206.8350  152.8850 C   0  0  1  0  0  3  0  0  0  0  0  0
  164.1980  206.2080  151.6350 O   0  0  0  0  0  0  0  0  0  0  0  0
  163.0070  206.6120  151.6340 C   0  0  0  0  0  0  0  0  0  0  0  0
  161.9460  205.8540  152.3760 C   0  0  2  0  0  3  0  0  0  0  0  0
  160.8090  206.9080  155.2710 C   0  0  0  0  0  2  0  0  0  0  0  0
  160.7660  208.9170  154.0440 C   0  0  1  0  0  3  0  0  0  0  0  0
  160.7720  208.9740  156.6610 C   0  0  0  0  0  2  0  0  0  0  0  0
  159.9300  207.8610  156.0550 C   0  0  1  0  0  3  0  0  0  0  0  0
  161.3350  207.5690  154.0720 N   0  0  2  0  0  0  0  0  0  0  0  0
  160.0440  209.1780  155.3490 C   0  0  2  0  0  0  0  0  0  0  0  0
  161.8680  209.9420  153.8320 C   0  0  0  0  0  1  0  0  0  0  0  0
  158.7360  209.9450  155.3680 C   0  0  0  0  0  2  0  0  0  0  0  0
  158.7850  210.9730  156.3930 N   0  0  0  0  0  2  0  0  0  0  0  0
  158.2180  212.1750  155.8040 C   0  0  0  0  0  2  0  0  0  0  0  0
  159.2780  212.9370  155.0130 C   0  0  2  0  0  3  0  0  0  0  0  0
  159.7880  213.9600  155.7970 F   0  0  0  0  0  0  0  0  0  0  0  0
  158.7270  213.4870  153.6900 C   0  0  1  0  0  3  0  0  0  0  0  0
  158.7650  211.3630  152.3860 O   0  0  0  0  0  1  0  0  0  0  0  0
  159.2040  212.6710  152.5290 C   0  0  0  0  0  0  0  0  0  0  0  0
  160.0010  213.1590  151.6830 O   0  0  0  0  0  0  0  0  0  0  0  0
  157.2280  213.5160  153.6860 C   0  0  0  0  0  3  0  0  0  0  0  0
  156.5850  214.0700  152.7260 N   0  0  0  0  0  2  0  0  0  0  0  0
  160.8500  203.5460  149.9130 C   0  0  0  0  0  0  0  0  0  0  0  0
  160.3710  203.9790  151.9060 O   0  0  0  0  0  0  0  0  0  0  0  0
  160.0460  203.1870  150.9320 N   0  0  0  0  0  0  0  0  0  0  0  0
  161.3310  204.7850  151.5220 C   0  0  0  0  0  0  0  0  0  0  0  0
  161.6800  204.5580  150.2400 N   0  0  0  0  0  0  0  0  0  0  0  0
  160.8370  202.8960  148.5930 C   0  0  0  0  0  0  0  0  0  0  0  0
  161.2070  203.6140  147.4460 C   0  0  0  0  0  3  0  0  0  0  0  0
  160.4580  201.5520  148.4690 C   0  0  0  0  0  3  0  0  0  0  0  0
  161.2030  202.9930  146.1930 C   0  0  0  0  0  3  0  0  0  0  0  0
  160.8270  201.6540  146.0780 C   0  0  0  0  0  3  0  0  0  0  0  0
  160.4530  200.9320  147.2160 C   0  0  0  0  0  3  0  0  0  0  0  0
  1  2  1  0  0  0  0
  1  6  1  0  0  0  0
  2  3  2  0  0  0  0
  4  3  1  6  0  0  0
  4 12  1  0  0  0  0
  6  5  2  0  0  0  0
  6  7  1  0  0  0  0
  7 29  1  6  0  0  0
  7  4  1  0  0  0  0
  9 14  1  1  0  0  0
  9 12  1  0  0  0  0
  9 13  1  0  0  0  0
 11  8  1  6  0  0  0
 11 10  1  0  0  0  0
 12  8  1  1  0  0  0
 13 15  1  6  0  0  0
 13 11  1  0  0  0  0
 13 10  1  0  0  0  0
 15 16  1  0  0  0  0
 17 16  1  0  0  0  0
 18 19  1  1  0  0  0
 18 17  1  0  0  0  0
 20 24  1  1  0  0  0
 20 18  1  0  0  0  0
 21 22  1  0  0  0  0
 22 20  1  0  0  0  0
 23 22  2  0  0  0  0
 25 24  2  0  0  0  0
 26 30  1  0  0  0  0
 26 28  2  0  0  0  0
 28 27  1  0  0  0  0
 29 27  1  0  0  0  0
 30 29  2  0  0  0  0
 31 26  1  0  0  0  0
 32 31  2  0  0  0  0
 33 31  1  0  0  0  0
 34 32  1  0  0  0  0
 35 34  2  0  0  0  0
 35 36  1  0  0  0  0
 36 33  2  0  0  0  0
M  END
>  <MODEL>
7

>  <REMARK>
 VINA RESULT:      -4.7      2.650      4.881
  Name = 
  10 active torsions:
  status: ('A' for Active; 'I' for Inactive)
    1  A    between atoms: C_2  and  C_4
    2  A    between atoms: N_6  and  C_7
    3  A    between atoms: N_6  and  C_18
    4  A    between atoms: C_7  and  C_30
    5  A    between atoms: C_13  and  N_27
    6  A    between atoms: C_14  and  C_17
    7  A    between atoms: C_14  and  C_20
    8  A    between atoms: C_14  and  C_29
    9  A    between atoms: C_17  and  C_18
   10  A    between atoms: C_19  and  C_32
                            x       y       z     vdW  Elec       q    Type
                         _______ _______ _______ _____ _____    ______ ____

>  <TORSDO>
F 10

$$$$
=
 OpenBabel11042421073D

 36 40  0  0  1  0  0  0  0  0999 V2000
  162.6730  207.8050  150.9200 N   0  0  0  0  0  2  0  0  0  0  0  0
  161.3270  208.2880  150.9520 C   0  0  0  0  0  3  0  0  0  0  0  0
  160.4750  207.8090  151.8090 N   0  0  0  0  0  0  0  0  0  0  0  0
  160.8440  206.8420  152.8580 C   0  0  1  0  0  3  0  0  0  0  0  0
  164.1970  206.2100  151.6700 O   0  0  0  0  0  0  0  0  0  0  0  0
  163.0100  206.6260  151.6510 C   0  0  0  0  0  0  0  0  0  0  0  0
  161.9260  205.8620  152.3510 C   0  0  2  0  0  3  0  0  0  0  0  0
  160.6490  206.9260  155.2360 C   0  0  0  0  0  2  0  0  0  0  0  0
  160.8230  208.9300  154.0110 C   0  0  1  0  0  3  0  0  0  0  0  0
  160.6770  208.9930  156.6240 C   0  0  0  0  0  2  0  0  0  0  0  0
  159.7950  207.9420  155.9670 C   0  0  1  0  0  3  0  0  0  0  0  0
  161.2920  207.5440  154.0710 N   0  0  2  0  0  0  0  0  0  0  0  0
  160.0440  209.2450  155.2710 C   0  0  2  0  0  0  0  0  0  0  0  0
  162.0060  209.8730  153.8670 C   0  0  0  0  0  1  0  0  0  0  0  0
  158.7960  210.1030  155.2130 C   0  0  0  0  0  2  0  0  0  0  0  0
  158.9760  211.2870  156.0350 N   0  0  0  0  0  2  0  0  0  0  0  0
  159.4240  212.3470  155.1470 C   0  0  0  0  0  2  0  0  0  0  0  0
  158.3280  213.3930  154.9650 C   0  0  2  0  0  3  0  0  0  0  0  0
  157.5810  213.4820  156.1280 F   0  0  0  0  0  0  0  0  0  0  0  0
  157.4280  213.0830  153.7610 C   0  0  1  0  0  3  0  0  0  0  0  0
  155.6320  211.6450  154.7230 O   0  0  0  0  0  1  0  0  0  0  0  0
  156.0090  212.8700  154.1920 C   0  0  0  0  0  0  0  0  0  0  0  0
  155.1560  213.7910  154.0770 O   0  0  0  0  0  0  0  0  0  0  0  0
  157.4700  214.1830  152.7420 C   0  0  0  0  0  3  0  0  0  0  0  0
  157.4300  213.9180  151.4890 N   0  0  0  0  0  2  0  0  0  0  0  0
  160.8610  203.6260  149.8090 C   0  0  0  0  0  0  0  0  0  0  0  0
  160.3510  204.0080  151.8050 O   0  0  0  0  0  0  0  0  0  0  0  0
  160.0390  203.2440  150.8050 N   0  0  0  0  0  0  0  0  0  0  0  0
  161.3210  204.8200  151.4580 C   0  0  0  0  0  0  0  0  0  0  0  0
  161.6900  204.6250  150.1770 N   0  0  0  0  0  0  0  0  0  0  0  0
  160.8670  203.0110  148.4720 C   0  0  0  0  0  0  0  0  0  0  0  0
  161.2790  203.7520  147.3540 C   0  0  0  0  0  3  0  0  0  0  0  0
  160.4650  201.6790  148.3030 C   0  0  0  0  0  3  0  0  0  0  0  0
  161.2930  203.1650  146.0850 C   0  0  0  0  0  3  0  0  0  0  0  0
  160.8940  201.8370  145.9250 C   0  0  0  0  0  3  0  0  0  0  0  0
  160.4790  201.0930  147.0340 C   0  0  0  0  0  3  0  0  0  0  0  0
  1  2  1  0  0  0  0
  1  6  1  0  0  0  0
  2  3  2  0  0  0  0
  4  3  1  6  0  0  0
  4 12  1  0  0  0  0
  6  5  2  0  0  0  0
  6  7  1  0  0  0  0
  7 29  1  6  0  0  0
  7  4  1  0  0  0  0
  9 14  1  1  0  0  0
  9 12  1  0  0  0  0
  9 13  1  0  0  0  0
 11  8  1  6  0  0  0
 11 10  1  0  0  0  0
 12  8  1  1  0  0  0
 13 15  1  6  0  0  0
 13 11  1  0  0  0  0
 13 10  1  0  0  0  0
 15 16  1  0  0  0  0
 17 16  1  0  0  0  0
 18 17  1  0  0  0  0
 18 19  1  1  0  0  0
 20 24  1  6  0  0  0
 20 22  1  0  0  0  0
 20 18  1  0  0  0  0
 22 21  1  0  0  0  0
 23 22  2  0  0  0  0
 25 24  2  0  0  0  0
 26 30  1  0  0  0  0
 26 28  2  0  0  0  0
 28 27  1  0  0  0  0
 29 27  1  0  0  0  0
 30 29  2  0  0  0  0
 31 26  1  0  0  0  0
 32 31  2  0  0  0  0
 33 31  1  0  0  0  0
 34 32  1  0  0  0  0
 35 34  2  0  0  0  0
 35 36  1  0  0  0  0
 36 33  2  0  0  0  0
M  END
>  <MODEL>
8

>  <REMARK>
 VINA RESULT:      -4.5      3.189      5.216
  Name = 
  10 active torsions:
  status: ('A' for Active; 'I' for Inactive)
    1  A    between atoms: C_2  and  C_4
    2  A    between atoms: N_6  and  C_7
    3  A    between atoms: N_6  and  C_18
    4  A    between atoms: C_7  and  C_30
    5  A    between atoms: C_13  and  N_27
    6  A    between atoms: C_14  and  C_17
    7  A    between atoms: C_14  and  C_20
    8  A    between atoms: C_14  and  C_29
    9  A    between atoms: C_17  and  C_18
   10  A    between atoms: C_19  and  C_32
                            x       y       z     vdW  Elec       q    Type
                         _______ _______ _______ _____ _____    ______ ____

>  <TORSDO>
F 10

$$$$
=
 OpenBabel11042421073D

 36 40  0  0  1  0  0  0  0  0999 V2000
  162.1920  208.5080  155.0920 N   0  0  0  0  0  2  0  0  0  0  0  0
  162.7340  209.7980  154.7920 C   0  0  0  0  0  3  0  0  0  0  0  0
  162.0500  210.6540  154.0920 N   0  0  0  0  0  0  0  0  0  0  0  0
  160.6610  210.4160  153.6610 C   0  0  1  0  0  3  0  0  0  0  0  0
  160.4990  206.9580  154.6960 O   0  0  0  0  0  0  0  0  0  0  0  0
  161.0160  208.0700  154.4150 C   0  0  0  0  0  0  0  0  0  0  0  0
  160.4330  208.9240  153.3280 C   0  0  2  0  0  3  0  0  0  0  0  0
  158.3530  210.5690  154.2490 C   0  0  0  0  0  2  0  0  0  0  0  0
  159.8120  212.3360  154.7930 C   0  0  1  0  0  3  0  0  0  0  0  0
  157.2910  212.4510  155.4870 C   0  0  0  0  0  2  0  0  0  0  0  0
  157.5410  211.8420  154.1160 C   0  0  1  0  0  3  0  0  0  0  0  0
  159.7170  210.8780  154.6910 N   0  0  2  0  0  0  0  0  0  0  0  0
  158.4330  212.9360  154.6190 C   0  0  2  0  0  0  0  0  0  0  0  0
  160.3950  212.7250  156.1420 C   0  0  0  0  0  1  0  0  0  0  0  0
  158.2440  214.2230  153.8410 C   0  0  0  0  0  2  0  0  0  0  0  0
  157.5350  213.9490  152.6040 N   0  0  0  0  0  2  0  0  0  0  0  0
  158.3940  214.4020  151.5220 C   0  0  0  0  0  2  0  0  0  0  0  0
  157.8120  214.0000  150.1700 C   0  0  2  0  0  3  0  0  0  0  0  0
  157.1460  212.7920  150.2980 F   0  0  0  0  0  0  0  0  0  0  0  0
  158.8890  213.9150  149.0800 C   0  0  1  0  0  3  0  0  0  0  0  0
  160.0030  212.1830  150.4860 O   0  0  0  0  0  1  0  0  0  0  0  0
  160.1220  213.2400  149.5950 C   0  0  0  0  0  0  0  0  0  0  0  0
  161.2660  213.6220  149.2280 O   0  0  0  0  0  0  0  0  0  0  0  0
  158.3950  213.1760  147.8720 C   0  0  0  0  0  3  0  0  0  0  0  0
  157.2430  213.4320  147.3720 N   0  0  0  0  0  2  0  0  0  0  0  0
  161.5710  207.5700  150.2510 C   0  0  0  0  0  0  0  0  0  0  0  0
  161.7600  209.3910  151.2690 O   0  0  0  0  0  0  0  0  0  0  0  0
  162.1230  208.7960  150.1760 N   0  0  0  0  0  0  0  0  0  0  0  0
  161.0160  208.5860  151.9870 C   0  0  0  0  0  0  0  0  0  0  0  0
  160.8620  207.3900  151.3850 N   0  0  0  0  0  0  0  0  0  0  0  0
  161.7120  206.5440  149.2050 C   0  0  0  0  0  0  0  0  0  0  0  0
  162.3400  206.8540  147.9900 C   0  0  0  0  0  3  0  0  0  0  0  0
  161.2250  205.2470  149.4170 C   0  0  0  0  0  3  0  0  0  0  0  0
  162.4820  205.8760  147.0000 C   0  0  0  0  0  3  0  0  0  0  0  0
  161.9960  204.5850  147.2180 C   0  0  0  0  0  3  0  0  0  0  0  0
  161.3660  204.2700  148.4260 C   0  0  0  0  0  3  0  0  0  0  0  0
  2  1  1  0  0  0  0
  3  2  2  0  0  0  0
  4  3  1  1  0  0  0
  4 12  1  0  0  0  0
  6  5  2  0  0  0  0
  6  1  1  0  0  0  0
  7 29  1  6  0  0  0
  7  4  1  0  0  0  0
  7  6  1  0  0  0  0
  9 14  1  1  0  0  0
 11  8  1  1  0  0  0
 11 13  1  0  0  0  0
 11 10  1  0  0  0  0
 12  8  1  6  0  0  0
 12  9  1  0  0  0  0
 13 15  1  6  0  0  0
 13  9  1  0  0  0  0
 13 10  1  0  0  0  0
 16 15  1  0  0  0  0
 17 16  1  0  0  0  0
 18 19  1  1  0  0  0
 18 17  1  0  0  0  0
 20 24  1  6  0  0  0
 20 22  1  0  0  0  0
 20 18  1  0  0  0  0
 22 21  1  0  0  0  0
 23 22  2  0  0  0  0
 25 24  2  0  0  0  0
 26 30  1  0  0  0  0
 27 29  1  0  0  0  0
 28 26  2  0  0  0  0
 28 27  1  0  0  0  0
 30 29  2  0  0  0  0
 31 33  1  0  0  0  0
 31 26  1  0  0  0  0
 32 31  2  0  0  0  0
 34 35  2  0  0  0  0
 34 32  1  0  0  0  0
 35 36  1  0  0  0  0
 36 33  2  0  0  0  0
M  END
>  <MODEL>
9

>  <REMARK>
 VINA RESULT:      -4.4      1.519      2.092
  Name = 
  10 active torsions:
  status: ('A' for Active; 'I' for Inactive)
    1  A    between atoms: C_2  and  C_4
    2  A    between atoms: N_6  and  C_7
    3  A    between atoms: N_6  and  C_18
    4  A    between atoms: C_7  and  C_30
    5  A    between atoms: C_13  and  N_27
    6  A    between atoms: C_14  and  C_17
    7  A    between atoms: C_14  and  C_20
    8  A    between atoms: C_14  and  C_29
    9  A    between atoms: C_17  and  C_18
   10  A    between atoms: C_19  and  C_32
                            x       y       z     vdW  Elec       q    Type
                         _______ _______ _______ _____ _____    ______ ____

>  <TORSDO>
F 10

$$$$
