=
 OpenBabel11042422383D

 33 36  0  0  1  0  0  0  0  0999 V2000
  160.6890  203.7090  152.7150 C   0  0  0  0  0  3  0  0  0  0  0  0
  161.8370  205.2340  150.0340 C   0  0  0  0  0  2  0  0  0  0  0  0
  161.4130  206.5490  150.6930 C   0  0  1  0  0  3  0  0  0  0  0  0
  161.0070  204.9230  153.0530 C   0  0  0  0  0  0  0  0  0  0  0  0
  162.1300  206.7630  152.0270 C   0  0  0  0  0  2  0  0  0  0  0  0
  161.3590  206.1690  153.1700 C   0  0  0  0  0  0  0  0  0  0  0  0
  161.1720  203.1990  151.3940 C   0  0  0  0  0  2  0  0  0  0  0  0
  160.7930  204.1330  150.2380 C   0  0  0  0  0  2  0  0  0  0  0  0
  161.9390  208.8970  150.2020 N   0  0  0  0  0  0  0  0  0  0  0  0
  162.0830  209.7730  149.0430 C   0  0  0  0  0  3  0  0  0  0  0  0
  161.5880  207.6590  148.3380 C   0  0  0  0  0  0  0  0  0  0  0  0
  161.6660  207.7080  149.7850 C   0  0  2  0  0  3  0  0  0  0  0  0
  161.8370  208.8690  147.8710 C   0  0  0  0  0  3  0  0  0  0  0  0
  162.5840  205.7850  147.1060 C   0  0  0  0  0  3  0  0  0  0  0  0
  160.3540  204.6030  145.3580 C   0  0  0  0  0  3  0  0  0  0  0  0
  162.6190  204.6610  146.3950 C   0  0  0  0  0  3  0  0  0  0  0  0
  160.1200  206.0220  145.3830 N   0  0  0  0  0  0  0  0  0  0  0  0
  161.3110  206.4630  147.4840 C   0  0  2  0  0  3  0  0  0  0  0  0
  161.4370  203.9660  145.8290 C   0  0  0  0  0  0  0  0  0  0  0  0
  160.5420  206.8700  146.2710 C   0  0  0  0  0  3  0  0  0  0  0  0
  161.4900  202.5510  145.6340 N   0  0  0  0  0  2  0  0  0  0  0  0
  160.7440  201.6270  146.4240 C   0  0  0  0  0  3  0  0  0  0  0  0
  160.8680  201.6300  147.7410 C   0  0  0  0  0  2  0  0  0  0  0  0
  161.7180  206.9230  155.4070 O   0  0  0  0  0  1  0  0  0  0  0  0
  160.8470  206.9990  154.3150 C   0  0  1  0  0  3  0  0  0  0  0  0
  159.8180  209.1200  156.0100 O   0  0  0  0  0  0  0  0  0  0  0  0
  160.1780  209.4120  154.8380 C   0  0  0  0  0  0  0  0  0  0  0  0
  160.6260  208.3940  153.9350 N   0  0  0  0  0  2  0  0  0  0  0  0
  160.1890  210.8380  154.4110 C   0  0  0  0  0  2  0  0  0  0  0  0
  158.8050  212.8750  152.4040 C   0  0  0  0  0  2  0  0  0  0  0  0
  159.5610  210.9650  153.0320 C   0  0  0  0  0  3  0  0  0  0  0  0
  158.2290  211.6830  153.1400 C   0  0  0  0  0  2  0  0  0  0  0  0
  160.1390  212.1610  152.3050 C   0  0  0  0  0  2  0  0  0  0  0  0
  1  4  2  0  0  0  0
  2  8  1  0  0  0  0
  3  2  1  6  0  0  0
  3  5  1  0  0  0  0
  4  6  2  0  0  0  0
  5  6  1  0  0  0  0
  6 25  1  0  0  0  0
  7  1  1  0  0  0  0
  8  7  1  0  0  0  0
 10  9  2  0  0  0  0
 12 11  1  1  0  0  0
 12  9  1  0  0  0  0
 12  3  1  0  0  0  0
 13 11  2  0  0  0  0
 13 10  1  0  0  0  0
 14 18  1  0  0  0  0
 15 17  1  0  0  0  0
 15 19  2  0  0  0  0
 16 14  2  0  0  0  0
 17 20  2  0  0  0  0
 18 11  1  6  0  0  0
 19 16  1  0  0  0  0
 20 18  1  0  0  0  0
 21 19  1  0  0  0  0
 21 22  1  0  0  0  0
 22 23  2  0  0  0  0
 25 24  1  1  0  0  0
 27 26  2  0  0  0  0
 28 25  1  0  0  0  0
 28 27  1  0  0  0  0
 29 27  1  0  0  0  0
 30 32  1  0  0  0  0
 31 32  1  0  0  0  0
 31 29  1  0  0  0  0
 33 30  1  0  0  0  0
 33 31  1  0  0  0  0
M  END
>  <MODEL>
1

>  <REMARK>
 VINA RESULT:      -7.7      0.000      0.000
  Name = 
  8 active torsions:
  status: ('A' for Active; 'I' for Inactive)
    1  A    between atoms: C_7  and  C_18
    2  A    between atoms: N_8  and  C_16
    3  A    between atoms: N_8  and  C_26
    4  A    between atoms: C_12  and  C_27
    5  A    between atoms: C_14  and  C_31
    6  A    between atoms: C_19  and  N_23
    7  A    between atoms: C_19  and  C_24
    8  A    between atoms: C_21  and  C_31
                            x       y       z     vdW  Elec       q    Type
                         _______ _______ _______ _____ _____    ______ ____

>  <TORSDO>
F 8

$$$$
=
 OpenBabel11042422383D

 33 36  0  0  1  0  0  0  0  0999 V2000
  161.1520  204.2360  152.7000 C   0  0  0  0  0  3  0  0  0  0  0  0
  160.9320  207.5180  152.5700 C   0  0  0  0  0  2  0  0  0  0  0  0
  161.4790  207.4220  151.1440 C   0  0  1  0  0  3  0  0  0  0  0  0
  161.0350  204.5790  151.4520 C   0  0  0  0  0  0  0  0  0  0  0  0
  160.5620  206.5860  150.2480 C   0  0  0  0  0  2  0  0  0  0  0  0
  160.9380  205.1320  150.2800 C   0  0  0  0  0  0  0  0  0  0  0  0
  160.8560  205.2700  153.7420 C   0  0  0  0  0  2  0  0  0  0  0  0
  161.6540  206.5610  153.5220 C   0  0  0  0  0  2  0  0  0  0  0  0
  162.1890  208.9890  149.3900 N   0  0  0  0  0  0  0  0  0  0  0  0
  162.2530  210.4300  149.1630 C   0  0  0  0  0  3  0  0  0  0  0  0
  161.3470  210.0270  151.2190 C   0  0  0  0  0  0  0  0  0  0  0  0
  161.6690  208.7800  150.5520 C   0  0  2  0  0  3  0  0  0  0  0  0
  161.6780  211.0220  150.4150 C   0  0  0  0  0  3  0  0  0  0  0  0
  159.6160  211.2020  152.5020 C   0  0  0  0  0  3  0  0  0  0  0  0
  160.2130  210.6690  155.4670 C   0  0  0  0  0  3  0  0  0  0  0  0
  158.8540  211.5010  153.5510 C   0  0  0  0  0  3  0  0  0  0  0  0
  161.4940  210.7730  154.8230 N   0  0  0  0  0  0  0  0  0  0  0  0
  160.7190  210.2000  152.5650 C   0  0  2  0  0  3  0  0  0  0  0  0
  159.0200  210.9530  154.9180 C   0  0  0  0  0  0  0  0  0  0  0  0
  161.7530  210.6070  153.5620 C   0  0  0  0  0  3  0  0  0  0  0  0
  157.8760  210.8450  155.7690 N   0  0  0  0  0  2  0  0  0  0  0  0
  156.5860  211.3330  155.4040 C   0  0  0  0  0  3  0  0  0  0  0  0
  155.5900  210.4850  155.2040 C   0  0  0  0  0  2  0  0  0  0  0  0
  161.1000  203.0170  149.1840 O   0  0  0  0  0  1  0  0  0  0  0  0
  161.3650  204.3830  149.0480 C   0  0  1  0  0  3  0  0  0  0  0  0
  162.4760  206.3490  147.2220 O   0  0  0  0  0  0  0  0  0  0  0  0
  161.3650  205.8260  146.9350 C   0  0  0  0  0  0  0  0  0  0  0  0
  160.7370  204.9050  147.8340 N   0  0  0  0  0  2  0  0  0  0  0  0
  160.7310  206.1310  145.6240 C   0  0  0  0  0  2  0  0  0  0  0  0
  160.8860  203.0010  145.1000 C   0  0  0  0  0  2  0  0  0  0  0  0
  161.1300  205.0760  144.6030 C   0  0  0  0  0  3  0  0  0  0  0  0
  161.9930  204.0210  145.2680 C   0  0  0  0  0  2  0  0  0  0  0  0
  160.0200  204.0590  144.4430 C   0  0  0  0  0  2  0  0  0  0  0  0
  1  7  1  0  0  0  0
  2  8  1  0  0  0  0
  3  5  1  6  0  0  0
  3  2  1  0  0  0  0
  4  1  2  0  0  0  0
  5  6  1  0  0  0  0
  6  4  2  0  0  0  0
  8  7  1  0  0  0  0
 10  9  2  0  0  0  0
 10 13  1  0  0  0  0
 12  9  1  1  0  0  0
 12  3  1  0  0  0  0
 12 11  1  0  0  0  0
 13 11  2  0  0  0  0
 14 18  1  0  0  0  0
 14 16  2  0  0  0  0
 16 19  1  0  0  0  0
 17 15  1  0  0  0  0
 18 11  1  6  0  0  0
 18 20  1  0  0  0  0
 19 15  2  0  0  0  0
 19 21  1  0  0  0  0
 20 17  2  0  0  0  0
 22 21  1  0  0  0  0
 23 22  2  0  0  0  0
 25 24  1  1  0  0  0
 25  6  1  0  0  0  0
 27 26  2  0  0  0  0
 27 28  1  0  0  0  0
 28 25  1  0  0  0  0
 29 27  1  0  0  0  0
 30 32  1  0  0  0  0
 31 32  1  0  0  0  0
 31 29  1  0  0  0  0
 33 31  1  0  0  0  0
 33 30  1  0  0  0  0
M  END
>  <MODEL>
2

>  <REMARK>
 VINA RESULT:      -7.6      2.557      8.232
  Name = 
  8 active torsions:
  status: ('A' for Active; 'I' for Inactive)
    1  A    between atoms: C_7  and  C_18
    2  A    between atoms: N_8  and  C_16
    3  A    between atoms: N_8  and  C_26
    4  A    between atoms: C_12  and  C_27
    5  A    between atoms: C_14  and  C_31
    6  A    between atoms: C_19  and  N_23
    7  A    between atoms: C_19  and  C_24
    8  A    between atoms: C_21  and  C_31
                            x       y       z     vdW  Elec       q    Type
                         _______ _______ _______ _____ _____    ______ ____

>  <TORSDO>
F 8

$$$$
=
 OpenBabel11042422383D

 33 36  0  0  1  0  0  0  0  0999 V2000
  161.6260  207.5020  150.0610 C   0  0  0  0  0  3  0  0  0  0  0  0
  161.5540  208.9310  153.0250 C   0  0  0  0  0  2  0  0  0  0  0  0
  161.0070  207.6070  153.5660 C   0  0  1  0  0  3  0  0  0  0  0  0
  161.7040  206.5650  150.9570 C   0  0  0  0  0  0  0  0  0  0  0  0
  161.9880  206.4570  153.3250 C   0  0  0  0  0  2  0  0  0  0  0  0
  161.7430  205.7920  152.0020 C   0  0  0  0  0  0  0  0  0  0  0  0
  161.8360  208.9160  150.5050 C   0  0  0  0  0  2  0  0  0  0  0  0
  160.9260  209.2980  151.6780 C   0  0  0  0  0  2  0  0  0  0  0  0
  161.0200  206.8200  155.8920 N   0  0  0  0  0  0  0  0  0  0  0  0
  160.5170  207.2380  157.1970 C   0  0  0  0  0  2  0  0  0  0  0  0
  159.9430  208.7950  155.6310 C   0  0  0  0  0  0  0  0  0  0  0  0
  160.6930  207.7140  155.0220 C   0  0  0  0  0  0  0  0  0  0  0  0
  159.8290  208.5420  156.9220 C   0  0  0  0  0  3  0  0  0  0  0  0
  160.3290  211.1720  155.1560 C   0  0  0  0  0  3  0  0  0  0  0  0
  157.6920  212.2790  154.0360 C   0  0  0  0  0  3  0  0  0  0  0  0
  160.1150  212.3670  154.6120 C   0  0  0  0  0  3  0  0  0  0  0  0
  157.3180  211.3080  155.0300 N   0  0  0  0  0  0  0  0  0  0  0  0
  159.4060  210.0180  154.9570 C   0  0  2  0  0  3  0  0  0  0  0  0
  158.9300  212.7450  153.8040 C   0  0  0  0  0  0  0  0  0  0  0  0
  158.0420  210.3290  155.4800 C   0  0  0  0  0  3  0  0  0  0  0  0
  159.0610  213.7640  152.8110 N   0  0  0  0  0  2  0  0  0  0  0  0
  158.8900  213.5190  151.4160 C   0  0  0  0  0  3  0  0  0  0  0  0
  159.9410  213.2610  150.6550 C   0  0  0  0  0  2  0  0  0  0  0  0
  160.3570  204.0140  152.7880 O   0  0  0  0  0  1  0  0  0  0  0  0
  161.3750  204.3380  151.8860 C   0  0  1  0  0  3  0  0  0  0  0  0
  161.2380  201.6550  150.7860 O   0  0  0  0  0  0  0  0  0  0  0  0
  160.8740  202.6180  150.0600 C   0  0  0  0  0  0  0  0  0  0  0  0
  160.9880  203.9690  150.5250 N   0  0  0  0  0  2  0  0  0  0  0  0
  160.2700  202.3430  148.7280 C   0  0  0  0  0  2  0  0  0  0  0  0
  161.0390  202.9800  145.7130 C   0  0  0  0  0  2  0  0  0  0  0  0
  161.3680  202.1980  147.6860 C   0  0  0  0  0  3  0  0  0  0  0  0
  160.7820  201.6540  146.3970 C   0  0  0  0  0  2  0  0  0  0  0  0
  161.6160  203.5270  147.0030 C   0  0  0  0  0  2  0  0  0  0  0  0
  1  7  1  0  0  0  0
  1  4  2  0  0  0  0
  2  3  1  0  0  0  0
  3 12  1  1  0  0  0
  4  6  2  0  0  0  0
  5  3  1  0  0  0  0
  6  5  1  0  0  0  0
  7  8  1  0  0  0  0
  8  2  1  0  0  0  0
  9 10  1  0  0  0  0
 11 13  2  0  0  0  0
 12 11  1  0  0  0  0
 12  9  2  0  0  0  0
 13 10  1  0  0  0  0
 15 17  1  0  0  0  0
 16 14  2  0  0  0  0
 17 20  2  0  0  0  0
 18 14  1  0  0  0  0
 18 20  1  0  0  0  0
 18 11  1  1  0  0  0
 19 15  2  0  0  0  0
 19 16  1  0  0  0  0
 21 19  1  0  0  0  0
 22 21  1  0  0  0  0
 23 22  2  0  0  0  0
 25  6  1  0  0  0  0
 25 24  1  1  0  0  0
 27 28  1  0  0  0  0
 27 26  2  0  0  0  0
 28 25  1  0  0  0  0
 29 27  1  0  0  0  0
 30 32  1  0  0  0  0
 30 33  1  0  0  0  0
 31 29  1  0  0  0  0
 32 31  1  0  0  0  0
 33 31  1  0  0  0  0
M  END
>  <MODEL>
3

>  <REMARK>
 VINA RESULT:      -7.6      2.556      8.823
  Name = 
  8 active torsions:
  status: ('A' for Active; 'I' for Inactive)
    1  A    between atoms: C_7  and  C_18
    2  A    between atoms: N_8  and  C_16
    3  A    between atoms: N_8  and  C_26
    4  A    between atoms: C_12  and  C_27
    5  A    between atoms: C_14  and  C_31
    6  A    between atoms: C_19  and  N_23
    7  A    between atoms: C_19  and  C_24
    8  A    between atoms: C_21  and  C_31
                            x       y       z     vdW  Elec       q    Type
                         _______ _______ _______ _____ _____    ______ ____

>  <TORSDO>
F 8

$$$$
=
 OpenBabel11042422383D

 33 36  0  0  1  0  0  0  0  0999 V2000
  161.9490  210.3990  148.3640 C   0  0  0  0  0  3  0  0  0  0  0  0
  162.2820  209.9600  151.6090 C   0  0  0  0  0  2  0  0  0  0  0  0
  161.5640  208.6210  151.4250 C   0  0  1  0  0  3  0  0  0  0  0  0
  161.9290  209.1210  148.5980 C   0  0  0  0  0  0  0  0  0  0  0  0
  162.3330  207.7010  150.4740 C   0  0  0  0  0  2  0  0  0  0  0  0
  161.9070  207.9020  149.0490 C   0  0  0  0  0  0  0  0  0  0  0  0
  162.4080  211.3060  149.4630 C   0  0  0  0  0  2  0  0  0  0  0  0
  161.6410  211.0690  150.7690 C   0  0  0  0  0  2  0  0  0  0  0  0
  161.6440  206.7010  152.9560 N   0  0  0  0  0  0  0  0  0  0  0  0
  161.2740  206.3740  154.3290 C   0  0  0  0  0  2  0  0  0  0  0  0
  160.7690  208.5600  153.9100 C   0  0  0  0  0  0  0  0  0  0  0  0
  161.3580  207.9400  152.7380 C   0  0  0  0  0  0  0  0  0  0  0  0
  160.7130  207.6550  154.8710 C   0  0  0  0  0  3  0  0  0  0  0  0
  159.9130  210.2550  155.4640 C   0  0  0  0  0  3  0  0  0  0  0  0
  158.9660  212.6170  153.7450 C   0  0  0  0  0  3  0  0  0  0  0  0
  159.5270  211.4590  155.8790 C   0  0  0  0  0  3  0  0  0  0  0  0
  158.6590  211.4350  152.9870 N   0  0  0  0  0  0  0  0  0  0  0  0
  160.3230  209.9800  154.0570 C   0  0  2  0  0  3  0  0  0  0  0  0
  159.3850  212.6600  155.0200 C   0  0  0  0  0  0  0  0  0  0  0  0
  159.2030  210.2620  153.1100 C   0  0  0  0  0  3  0  0  0  0  0  0
  159.5610  213.9550  155.6000 N   0  0  0  0  0  2  0  0  0  0  0  0
  158.9580  214.3450  156.8320 C   0  0  0  0  0  3  0  0  0  0  0  0
  157.6420  214.4530  156.9200 C   0  0  0  0  0  2  0  0  0  0  0  0
  161.6380  206.9520  146.8750 O   0  0  0  0  0  1  0  0  0  0  0  0
  161.3070  206.7970  148.2240 C   0  0  1  0  0  3  0  0  0  0  0  0
  160.0600  205.2640  150.3520 O   0  0  0  0  0  0  0  0  0  0  0  0
  161.0050  204.7350  149.7080 C   0  0  0  0  0  0  0  0  0  0  0  0
  161.7040  205.4710  148.6970 N   0  0  0  0  0  2  0  0  0  0  0  0
  161.3600  203.3130  149.9670 C   0  0  0  0  0  2  0  0  0  0  0  0
  161.3180  200.7540  148.0850 C   0  0  0  0  0  2  0  0  0  0  0  0
  160.4520  202.4010  149.1560 C   0  0  0  0  0  3  0  0  0  0  0  0
  161.0300  202.2060  147.7680 C   0  0  0  0  0  2  0  0  0  0  0  0
  160.7490  200.9510  149.4770 C   0  0  0  0  0  2  0  0  0  0  0  0
  1  4  2  0  0  0  0
  1  7  1  0  0  0  0
  3  2  1  0  0  0  0
  3 12  1  1  0  0  0
  4  6  2  0  0  0  0
  5  3  1  0  0  0  0
  6  5  1  0  0  0  0
  7  8  1  0  0  0  0
  8  2  1  0  0  0  0
  9 10  1  0  0  0  0
 10 13  1  0  0  0  0
 11 13  2  0  0  0  0
 12  9  2  0  0  0  0
 12 11  1  0  0  0  0
 14 16  2  0  0  0  0
 15 19  2  0  0  0  0
 17 20  2  0  0  0  0
 17 15  1  0  0  0  0
 18 11  1  1  0  0  0
 18 14  1  0  0  0  0
 19 21  1  0  0  0  0
 19 16  1  0  0  0  0
 20 18  1  0  0  0  0
 21 22  1  0  0  0  0
 22 23  2  0  0  0  0
 25 24  1  6  0  0  0
 25 28  1  0  0  0  0
 25  6  1  0  0  0  0
 27 29  1  0  0  0  0
 27 26  2  0  0  0  0
 28 27  1  0  0  0  0
 30 33  1  0  0  0  0
 31 33  1  0  0  0  0
 31 29  1  0  0  0  0
 32 30  1  0  0  0  0
 32 31  1  0  0  0  0
M  END
>  <MODEL>
4

>  <REMARK>
 VINA RESULT:      -7.2      2.816      9.179
  Name = 
  8 active torsions:
  status: ('A' for Active; 'I' for Inactive)
    1  A    between atoms: C_7  and  C_18
    2  A    between atoms: N_8  and  C_16
    3  A    between atoms: N_8  and  C_26
    4  A    between atoms: C_12  and  C_27
    5  A    between atoms: C_14  and  C_31
    6  A    between atoms: C_19  and  N_23
    7  A    between atoms: C_19  and  C_24
    8  A    between atoms: C_21  and  C_31
                            x       y       z     vdW  Elec       q    Type
                         _______ _______ _______ _____ _____    ______ ____

>  <TORSDO>
F 8

$$$$
=
 OpenBabel11042422383D

 33 36  0  0  1  0  0  0  0  0999 V2000
  161.2400  204.0110  151.9210 C   0  0  0  0  0  3  0  0  0  0  0  0
  161.2770  207.2970  152.1060 C   0  0  0  0  0  2  0  0  0  0  0  0
  161.5790  207.3030  150.6060 C   0  0  1  0  0  3  0  0  0  0  0  0
  160.9530  204.4800  150.7440 C   0  0  0  0  0  0  0  0  0  0  0  0
  160.4640  206.6220  149.8090 C   0  0  0  0  0  2  0  0  0  0  0  0
  160.7170  205.1500  149.6550 C   0  0  0  0  0  0  0  0  0  0  0  0
  161.2020  204.9570  153.0810 C   0  0  0  0  0  2  0  0  0  0  0  0
  162.0600  206.2040  152.8400 C   0  0  0  0  0  2  0  0  0  0  0  0
  162.2260  208.9760  148.9280 N   0  0  0  0  0  0  0  0  0  0  0  0
  162.3370  210.4260  148.8080 C   0  0  0  0  0  3  0  0  0  0  0  0
  161.5710  209.8960  150.8910 C   0  0  0  0  0  0  0  0  0  0  0  0
  161.7860  208.6950  150.1070 C   0  0  2  0  0  3  0  0  0  0  0  0
  161.8840  210.9380  150.1430 C   0  0  0  0  0  3  0  0  0  0  0  0
  160.0050  211.0400  152.3950 C   0  0  0  0  0  3  0  0  0  0  0  0
  160.7890  210.2320  155.2520 C   0  0  0  0  0  3  0  0  0  0  0  0
  159.3390  211.2860  153.5210 C   0  0  0  0  0  3  0  0  0  0  0  0
  162.0230  210.3290  154.5210 N   0  0  0  0  0  0  0  0  0  0  0  0
  161.0540  209.9850  152.2910 C   0  0  2  0  0  3  0  0  0  0  0  0
  159.5760  210.6170  154.8230 C   0  0  0  0  0  0  0  0  0  0  0  0
  162.1790  210.2570  153.2340 C   0  0  0  0  0  3  0  0  0  0  0  0
  158.4940  210.4930  155.7480 N   0  0  0  0  0  2  0  0  0  0  0  0
  157.3760  211.3780  155.7630 C   0  0  0  0  0  3  0  0  0  0  0  0
  156.2830  211.0770  155.0790 C   0  0  0  0  0  2  0  0  0  0  0  0
  161.6870  205.2730  147.4770 O   0  0  0  0  0  1  0  0  0  0  0  0
  160.8770  204.4960  148.3100 C   0  0  1  0  0  3  0  0  0  0  0  0
  159.3630  202.0770  148.8460 O   0  0  0  0  0  0  0  0  0  0  0  0
  160.5970  201.9710  148.6120 C   0  0  0  0  0  0  0  0  0  0  0  0
  161.4060  203.1360  148.4120 N   0  0  0  0  0  2  0  0  0  0  0  0
  161.2040  200.6180  148.4890 C   0  0  0  0  0  2  0  0  0  0  0  0
  160.6140  199.5210  145.5660 C   0  0  0  0  0  2  0  0  0  0  0  0
  161.7990  200.4470  147.1000 C   0  0  0  0  0  3  0  0  0  0  0  0
  161.5810  199.0240  146.6210 C   0  0  0  0  0  2  0  0  0  0  0  0
  160.8260  200.9430  146.0510 C   0  0  0  0  0  2  0  0  0  0  0  0
  1  7  1  0  0  0  0
  2  8  1  0  0  0  0
  3  5  1  6  0  0  0
  3  2  1  0  0  0  0
  4  1  2  0  0  0  0
  6  5  1  0  0  0  0
  6  4  2  0  0  0  0
  8  7  1  0  0  0  0
 10  9  2  0  0  0  0
 10 13  1  0  0  0  0
 12  9  1  1  0  0  0
 12  3  1  0  0  0  0
 12 11  1  0  0  0  0
 13 11  2  0  0  0  0
 14 16  2  0  0  0  0
 16 19  1  0  0  0  0
 17 15  1  0  0  0  0
 18 11  1  6  0  0  0
 18 14  1  0  0  0  0
 18 20  1  0  0  0  0
 19 15  2  0  0  0  0
 19 21  1  0  0  0  0
 20 17  2  0  0  0  0
 21 22  1  0  0  0  0
 23 22  2  0  0  0  0
 25 24  1  6  0  0  0
 25 28  1  0  0  0  0
 25  6  1  0  0  0  0
 27 26  2  0  0  0  0
 28 27  1  0  0  0  0
 29 27  1  0  0  0  0
 30 33  1  0  0  0  0
 30 32  1  0  0  0  0
 31 29  1  0  0  0  0
 32 31  1  0  0  0  0
 33 31  1  0  0  0  0
M  END
>  <MODEL>
5

>  <REMARK>
 VINA RESULT:      -7.2      2.833      8.710
  Name = 
  8 active torsions:
  status: ('A' for Active; 'I' for Inactive)
    1  A    between atoms: C_7  and  C_18
    2  A    between atoms: N_8  and  C_16
    3  A    between atoms: N_8  and  C_26
    4  A    between atoms: C_12  and  C_27
    5  A    between atoms: C_14  and  C_31
    6  A    between atoms: C_19  and  N_23
    7  A    between atoms: C_19  and  C_24
    8  A    between atoms: C_21  and  C_31
                            x       y       z     vdW  Elec       q    Type
                         _______ _______ _______ _____ _____    ______ ____

>  <TORSDO>
F 8

$$$$
=
 OpenBabel11042422383D

 33 36  0  0  1  0  0  0  0  0999 V2000
  161.3810  204.1020  150.7070 C   0  0  0  0  0  3  0  0  0  0  0  0
  161.1880  207.2900  151.5020 C   0  0  0  0  0  2  0  0  0  0  0  0
  161.6790  207.5950  150.0840 C   0  0  1  0  0  3  0  0  0  0  0  0
  161.2190  204.7770  149.6090 C   0  0  0  0  0  0  0  0  0  0  0  0
  160.7200  207.0390  149.0290 C   0  0  0  0  0  2  0  0  0  0  0  0
  161.0820  205.6350  148.6410 C   0  0  0  0  0  0  0  0  0  0  0  0
  161.1360  204.8050  152.0050 C   0  0  0  0  0  2  0  0  0  0  0  0
  161.9370  206.1070  152.1210 C   0  0  0  0  0  2  0  0  0  0  0  0
  162.0970  209.6090  148.7410 N   0  0  0  0  0  0  0  0  0  0  0  0
  162.2540  211.0470  148.9350 C   0  0  0  0  0  3  0  0  0  0  0  0
  161.8440  210.0520  150.9480 C   0  0  0  0  0  0  0  0  0  0  0  0
  161.8600  209.0640  149.8860 C   0  0  2  0  0  3  0  0  0  0  0  0
  162.0690  211.2380  150.4110 C   0  0  0  0  0  3  0  0  0  0  0  0
  160.1980  210.2220  152.7600 C   0  0  0  0  0  3  0  0  0  0  0  0
  161.7330  209.7720  155.3810 C   0  0  0  0  0  3  0  0  0  0  0  0
  159.6920  210.0640  153.9810 C   0  0  0  0  0  3  0  0  0  0  0  0
  162.6340  210.4890  154.5190 N   0  0  0  0  0  0  0  0  0  0  0  0
  161.5870  209.8160  152.4020 C   0  0  2  0  0  3  0  0  0  0  0  0
  160.4300  209.5380  155.1540 C   0  0  0  0  0  0  0  0  0  0  0  0
  162.5890  210.5590  153.2230 C   0  0  0  0  0  3  0  0  0  0  0  0
  159.7060  208.8630  156.1860 N   0  0  0  0  0  2  0  0  0  0  0  0
  159.8670  207.4740  156.4680 C   0  0  0  0  0  3  0  0  0  0  0  0
  160.0800  206.6170  155.4830 C   0  0  0  0  0  2  0  0  0  0  0  0
  162.7060  205.7810  146.8970 O   0  0  0  0  0  1  0  0  0  0  0  0
  161.4540  205.2580  147.2330 C   0  0  1  0  0  3  0  0  0  0  0  0
  160.4620  203.8600  144.8890 O   0  0  0  0  0  0  0  0  0  0  0  0
  160.9910  203.1820  145.8110 C   0  0  0  0  0  0  0  0  0  0  0  0
  161.4320  203.8110  147.0200 N   0  0  0  0  0  2  0  0  0  0  0  0
  161.2060  201.7230  145.6140 C   0  0  0  0  0  2  0  0  0  0  0  0
  161.5780  200.5780  148.5540 C   0  0  0  0  0  2  0  0  0  0  0  0
  160.5150  200.9470  146.7240 C   0  0  0  0  0  3  0  0  0  0  0  0
  161.4340  199.8530  147.2320 C   0  0  0  0  0  2  0  0  0  0  0  0
  160.6670  201.6770  148.0430 C   0  0  0  0  0  2  0  0  0  0  0  0
  1  7  1  0  0  0  0
  2  8  1  0  0  0  0
  3  5  1  6  0  0  0
  3  2  1  0  0  0  0
  4  1  2  0  0  0  0
  6  5  1  0  0  0  0
  6  4  2  0  0  0  0
  7  8  1  0  0  0  0
  9 10  2  0  0  0  0
 10 13  1  0  0  0  0
 12  9  1  1  0  0  0
 12  3  1  0  0  0  0
 12 11  1  0  0  0  0
 13 11  2  0  0  0  0
 14 16  2  0  0  0  0
 16 19  1  0  0  0  0
 17 15  1  0  0  0  0
 18 11  1  6  0  0  0
 18 14  1  0  0  0  0
 18 20  1  0  0  0  0
 19 15  2  0  0  0  0
 19 21  1  0  0  0  0
 20 17  2  0  0  0  0
 21 22  1  0  0  0  0
 23 22  2  0  0  0  0
 25 24  1  1  0  0  0
 25  6  1  0  0  0  0
 26 27  2  0  0  0  0
 27 28  1  0  0  0  0
 28 25  1  0  0  0  0
 29 27  1  0  0  0  0
 29 31  1  0  0  0  0
 31 32  1  0  0  0  0
 31 33  1  0  0  0  0
 32 30  1  0  0  0  0
 33 30  1  0  0  0  0
M  END
>  <MODEL>
6

>  <REMARK>
 VINA RESULT:      -7.1      2.871      8.434
  Name = 
  8 active torsions:
  status: ('A' for Active; 'I' for Inactive)
    1  A    between atoms: C_7  and  C_18
    2  A    between atoms: N_8  and  C_16
    3  A    between atoms: N_8  and  C_26
    4  A    between atoms: C_12  and  C_27
    5  A    between atoms: C_14  and  C_31
    6  A    between atoms: C_19  and  N_23
    7  A    between atoms: C_19  and  C_24
    8  A    between atoms: C_21  and  C_31
                            x       y       z     vdW  Elec       q    Type
                         _______ _______ _______ _____ _____    ______ ____

>  <TORSDO>
F 8

$$$$
=
 OpenBabel11042422383D

 33 36  0  0  1  0  0  0  0  0999 V2000
  159.8500  212.9570  150.8020 C   0  0  0  0  0  3  0  0  0  0  0  0
  160.0110  210.6510  153.1440 C   0  0  0  0  0  2  0  0  0  0  0  0
  160.6340  209.7320  152.0900 C   0  0  1  0  0  3  0  0  0  0  0  0
  160.8050  212.1350  150.4870 C   0  0  0  0  0  0  0  0  0  0  0  0
  161.9370  210.3150  151.5400 C   0  0  0  0  0  2  0  0  0  0  0  0
  161.6880  211.1910  150.3460 C   0  0  0  0  0  0  0  0  0  0  0  0
  159.2960  212.8890  152.1910 C   0  0  0  0  0  2  0  0  0  0  0  0
  158.8530  211.4710  152.5700 C   0  0  0  0  0  2  0  0  0  0  0  0
  160.8880  208.1010  153.9100 N   0  0  0  0  0  0  0  0  0  0  0  0
  161.2010  206.6860  154.0830 C   0  0  0  0  0  2  0  0  0  0  0  0
  161.1940  207.1940  151.8580 C   0  0  0  0  0  0  0  0  0  0  0  0
  160.8810  208.3690  152.6480 C   0  0  0  0  0  0  0  0  0  0  0  0
  161.3820  206.1800  152.6820 C   0  0  0  0  0  3  0  0  0  0  0  0
  160.6990  205.7990  149.9000 C   0  0  0  0  0  3  0  0  0  0  0  0
  162.1680  207.0750  147.5240 C   0  0  0  0  0  3  0  0  0  0  0  0
  160.5910  205.4820  148.6120 C   0  0  0  0  0  3  0  0  0  0  0  0
  163.0250  207.2680  148.6620 N   0  0  0  0  0  0  0  0  0  0  0  0
  161.2660  207.0970  150.3670 C   0  0  2  0  0  3  0  0  0  0  0  0
  161.0620  206.3150  147.4790 C   0  0  0  0  0  0  0  0  0  0  0  0
  162.6800  207.2560  149.9140 C   0  0  0  0  0  3  0  0  0  0  0  0
  160.4010  206.2110  146.2160 N   0  0  0  0  0  2  0  0  0  0  0  0
  160.9800  205.5640  145.0850 C   0  0  0  0  0  3  0  0  0  0  0  0
  161.3380  204.2930  145.1590 C   0  0  0  0  0  2  0  0  0  0  0  0
  161.4350  210.0480  148.2640 O   0  0  0  0  0  1  0  0  0  0  0  0
  162.2760  210.8950  148.9930 C   0  0  1  0  0  3  0  0  0  0  0  0
  160.4220  212.3570  147.3020 O   0  0  0  0  0  0  0  0  0  0  0  0
  161.5800  212.8270  147.4670 C   0  0  0  0  0  0  0  0  0  0  0  0
  162.5580  212.1120  148.2320 N   0  0  0  0  0  2  0  0  0  0  0  0
  161.9130  214.1640  146.9040 C   0  0  0  0  0  2  0  0  0  0  0  0
  162.8010  213.0420  144.0680 C   0  0  0  0  0  2  0  0  0  0  0  0
  161.5890  214.1910  145.4180 C   0  0  0  0  0  3  0  0  0  0  0  0
  162.8550  214.4500  144.6230 C   0  0  0  0  0  2  0  0  0  0  0  0
  161.5410  212.7800  144.8700 C   0  0  0  0  0  2  0  0  0  0  0  0
  1  7  1  0  0  0  0
  3 12  1  1  0  0  0
  3  2  1  0  0  0  0
  4  1  2  0  0  0  0
  5  3  1  0  0  0  0
  6  4  2  0  0  0  0
  6  5  1  0  0  0  0
  7  8  1  0  0  0  0
  8  2  1  0  0  0  0
  9 10  1  0  0  0  0
 11 12  1  0  0  0  0
 11 13  2  0  0  0  0
 12  9  2  0  0  0  0
 13 10  1  0  0  0  0
 14 18  1  0  0  0  0
 15 17  1  0  0  0  0
 16 14  2  0  0  0  0
 17 20  2  0  0  0  0
 18 11  1  1  0  0  0
 19 15  2  0  0  0  0
 19 16  1  0  0  0  0
 20 18  1  0  0  0  0
 21 19  1  0  0  0  0
 22 23  2  0  0  0  0
 22 21  1  0  0  0  0
 25 24  1  6  0  0  0
 25  6  1  0  0  0  0
 26 27  2  0  0  0  0
 27 28  1  0  0  0  0
 28 25  1  0  0  0  0
 29 27  1  0  0  0  0
 30 32  1  0  0  0  0
 30 33  1  0  0  0  0
 31 29  1  0  0  0  0
 32 31  1  0  0  0  0
 33 31  1  0  0  0  0
M  END
>  <MODEL>
7

>  <REMARK>
 VINA RESULT:      -6.8      3.376      6.398
  Name = 
  8 active torsions:
  status: ('A' for Active; 'I' for Inactive)
    1  A    between atoms: C_7  and  C_18
    2  A    between atoms: N_8  and  C_16
    3  A    between atoms: N_8  and  C_26
    4  A    between atoms: C_12  and  C_27
    5  A    between atoms: C_14  and  C_31
    6  A    between atoms: C_19  and  N_23
    7  A    between atoms: C_19  and  C_24
    8  A    between atoms: C_21  and  C_31
                            x       y       z     vdW  Elec       q    Type
                         _______ _______ _______ _____ _____    ______ ____

>  <TORSDO>
F 8

$$$$
=
 OpenBabel11042422383D

 33 36  0  0  1  0  0  0  0  0999 V2000
  162.0070  208.9030  150.5290 C   0  0  0  0  0  3  0  0  0  0  0  0
  161.1200  206.3390  148.6650 C   0  0  0  0  0  2  0  0  0  0  0  0
  161.2580  205.4750  149.9210 C   0  0  1  0  0  3  0  0  0  0  0  0
  161.4830  208.0050  151.3090 C   0  0  0  0  0  0  0  0  0  0  0  0
  160.3120  205.9440  151.0280 C   0  0  0  0  0  2  0  0  0  0  0  0
  160.9580  206.9760  151.9060 C   0  0  0  0  0  0  0  0  0  0  0  0
  161.8150  208.7470  149.0530 C   0  0  0  0  0  2  0  0  0  0  0  0
  162.2510  207.3650  148.5540 C   0  0  0  0  0  2  0  0  0  0  0  0
  160.7010  203.1540  150.5000 N   0  0  0  0  0  0  0  0  0  0  0  0
  160.5710  201.8580  149.8420 C   0  0  0  0  0  2  0  0  0  0  0  0
  161.1260  203.4400  148.2930 C   0  0  0  0  0  0  0  0  0  0  0  0
  161.0080  204.0360  149.6100 C   0  0  0  0  0  0  0  0  0  0  0  0
  160.8660  202.1500  148.4000 C   0  0  0  0  0  3  0  0  0  0  0  0
  160.7590  203.4680  145.8670 C   0  0  0  0  0  3  0  0  0  0  0  0
  162.8310  205.4060  144.6920 C   0  0  0  0  0  3  0  0  0  0  0  0
  160.8310  203.9210  144.6180 C   0  0  0  0  0  3  0  0  0  0  0  0
  163.4890  204.7490  145.7890 N   0  0  0  0  0  0  0  0  0  0  0  0
  161.4480  204.1350  147.0090 C   0  0  2  0  0  3  0  0  0  0  0  0
  161.6370  205.0830  144.1700 C   0  0  0  0  0  0  0  0  0  0  0  0
  162.9260  204.1590  146.8000 C   0  0  0  0  0  3  0  0  0  0  0  0
  161.2060  205.8300  143.0300 N   0  0  0  0  0  2  0  0  0  0  0  0
  161.9120  205.8350  141.7900 C   0  0  0  0  0  3  0  0  0  0  0  0
  161.9560  206.9350  141.0570 C   0  0  0  0  0  2  0  0  0  0  0  0
  162.3300  206.0290  153.6150 O   0  0  0  0  0  1  0  0  0  0  0  0
  161.1650  206.7660  153.3810 C   0  0  1  0  0  3  0  0  0  0  0  0
  159.9230  207.3060  155.9490 O   0  0  0  0  0  0  0  0  0  0  0  0
  160.6230  208.2110  155.4210 C   0  0  0  0  0  0  0  0  0  0  0  0
  161.2000  208.0250  154.1230 N   0  0  0  0  0  2  0  0  0  0  0  0
  160.8960  209.4610  156.1810 C   0  0  0  0  0  2  0  0  0  0  0  0
  158.9480  211.9620  156.3840 C   0  0  0  0  0  2  0  0  0  0  0  0
  160.3520  210.6570  155.4150 C   0  0  0  0  0  3  0  0  0  0  0  0
  158.8420  210.7050  155.5470 C   0  0  0  0  0  2  0  0  0  0  0  0
  160.4590  211.9090  156.2600 C   0  0  0  0  0  2  0  0  0  0  0  0
  1  4  2  0  0  0  0
  2  3  1  0  0  0  0
  3 12  1  6  0  0  0
  3  5  1  0  0  0  0
  4  6  2  0  0  0  0
  5  6  1  0  0  0  0
  6 25  1  0  0  0  0
  7  1  1  0  0  0  0
  8  2  1  0  0  0  0
  8  7  1  0  0  0  0
 10  9  1  0  0  0  0
 11 13  2  0  0  0  0
 11 12  1  0  0  0  0
 12  9  2  0  0  0  0
 13 10  1  0  0  0  0
 14 18  1  0  0  0  0
 15 17  1  0  0  0  0
 16 14  2  0  0  0  0
 17 20  2  0  0  0  0
 18 11  1  1  0  0  0
 19 16  1  0  0  0  0
 19 15  2  0  0  0  0
 20 18  1  0  0  0  0
 21 19  1  0  0  0  0
 22 21  1  0  0  0  0
 23 22  2  0  0  0  0
 25 24  1  6  0  0  0
 25 28  1  0  0  0  0
 27 26  2  0  0  0  0
 27 29  1  0  0  0  0
 28 27  1  0  0  0  0
 31 32  1  0  0  0  0
 31 29  1  0  0  0  0
 31 33  1  0  0  0  0
 32 30  1  0  0  0  0
 33 30  1  0  0  0  0
M  END
>  <MODEL>
8

>  <REMARK>
 VINA RESULT:      -6.7      2.083      4.064
  Name = 
  8 active torsions:
  status: ('A' for Active; 'I' for Inactive)
    1  A    between atoms: C_7  and  C_18
    2  A    between atoms: N_8  and  C_16
    3  A    between atoms: N_8  and  C_26
    4  A    between atoms: C_12  and  C_27
    5  A    between atoms: C_14  and  C_31
    6  A    between atoms: C_19  and  N_23
    7  A    between atoms: C_19  and  C_24
    8  A    between atoms: C_21  and  C_31
                            x       y       z     vdW  Elec       q    Type
                         _______ _______ _______ _____ _____    ______ ____

>  <TORSDO>
F 8

$$$$
=
 OpenBabel11042422383D

 33 36  0  0  1  0  0  0  0  0999 V2000
  161.0360  203.2550  152.3850 C   0  0  0  0  0  3  0  0  0  0  0  0
  160.9690  206.5380  152.1620 C   0  0  0  0  0  2  0  0  0  0  0  0
  161.4900  206.3750  150.7310 C   0  0  1  0  0  3  0  0  0  0  0  0
  160.9160  203.5660  151.1300 C   0  0  0  0  0  0  0  0  0  0  0  0
  160.5210  205.5580  149.8730 C   0  0  0  0  0  2  0  0  0  0  0  0
  160.8280  204.0900  149.9430 C   0  0  0  0  0  0  0  0  0  0  0  0
  160.8050  204.3310  153.4000 C   0  0  0  0  0  2  0  0  0  0  0  0
  161.6590  205.5750  153.1310 C   0  0  0  0  0  2  0  0  0  0  0  0
  161.9260  207.8720  148.8330 N   0  0  0  0  0  0  0  0  0  0  0  0
  162.1720  209.2890  148.5840 C   0  0  0  0  0  3  0  0  0  0  0  0
  161.8440  208.9590  150.8180 C   0  0  0  0  0  0  0  0  0  0  0  0
  161.7360  207.7050  150.0980 C   0  0  2  0  0  3  0  0  0  0  0  0
  162.0960  209.9170  149.9440 C   0  0  0  0  0  3  0  0  0  0  0  0
  160.2680  209.5790  152.5950 C   0  0  0  0  0  3  0  0  0  0  0  0
  161.9480  210.0910  155.1130 C   0  0  0  0  0  3  0  0  0  0  0  0
  159.8310  209.7800  153.8350 C   0  0  0  0  0  3  0  0  0  0  0  0
  162.7440  210.5600  154.0110 N   0  0  0  0  0  0  0  0  0  0  0  0
  161.6710  209.1790  152.2870 C   0  0  2  0  0  3  0  0  0  0  0  0
  160.6620  209.7070  155.0610 C   0  0  0  0  0  0  0  0  0  0  0  0
  162.6370  210.2120  152.7650 C   0  0  0  0  0  3  0  0  0  0  0  0
  160.0460  209.3430  156.2990 N   0  0  0  0  0  2  0  0  0  0  0  0
  159.7000  208.0000  156.6320 C   0  0  0  0  0  3  0  0  0  0  0  0
  160.0970  207.0030  155.8590 C   0  0  0  0  0  2  0  0  0  0  0  0
  160.0570  202.8950  148.0250 O   0  0  0  0  0  1  0  0  0  0  0  0
  161.2010  203.2860  148.7270 C   0  0  1  0  0  3  0  0  0  0  0  0
  161.6000  202.8290  145.8880 O   0  0  0  0  0  0  0  0  0  0  0  0
  162.2230  203.7790  146.4340 C   0  0  0  0  0  0  0  0  0  0  0  0
  162.1190  204.0060  147.8450 N   0  0  0  0  0  2  0  0  0  0  0  0
  163.0290  204.7040  145.5920 C   0  0  0  0  0  2  0  0  0  0  0  0
  160.0790  205.8190  145.2070 C   0  0  0  0  0  2  0  0  0  0  0  0
  162.2210  205.9560  145.2870 C   0  0  0  0  0  3  0  0  0  0  0  0
  161.2030  205.6570  144.2040 C   0  0  0  0  0  2  0  0  0  0  0  0
  161.0980  206.1090  146.2920 C   0  0  0  0  0  2  0  0  0  0  0  0
  1  7  1  0  0  0  0
  2  8  1  0  0  0  0
  3  5  1  6  0  0  0
  3  2  1  0  0  0  0
  4  1  2  0  0  0  0
  5  6  1  0  0  0  0
  6  4  2  0  0  0  0
  8  7  1  0  0  0  0
 10  9  2  0  0  0  0
 10 13  1  0  0  0  0
 12  9  1  1  0  0  0
 12  3  1  0  0  0  0
 12 11  1  0  0  0  0
 13 11  2  0  0  0  0
 14 16  2  0  0  0  0
 16 19  1  0  0  0  0
 17 15  1  0  0  0  0
 18 11  1  6  0  0  0
 18 14  1  0  0  0  0
 18 20  1  0  0  0  0
 19 15  2  0  0  0  0
 19 21  1  0  0  0  0
 20 17  2  0  0  0  0
 21 22  1  0  0  0  0
 23 22  2  0  0  0  0
 25 24  1  6  0  0  0
 25  6  1  0  0  0  0
 26 27  2  0  0  0  0
 27 28  1  0  0  0  0
 28 25  1  0  0  0  0
 29 27  1  0  0  0  0
 30 33  1  0  0  0  0
 31 29  1  0  0  0  0
 31 33  1  0  0  0  0
 32 30  1  0  0  0  0
 32 31  1  0  0  0  0
M  END
>  <MODEL>
9

>  <REMARK>
 VINA RESULT:      -6.6      2.857      7.777
  Name = 
  8 active torsions:
  status: ('A' for Active; 'I' for Inactive)
    1  A    between atoms: C_7  and  C_18
    2  A    between atoms: N_8  and  C_16
    3  A    between atoms: N_8  and  C_26
    4  A    between atoms: C_12  and  C_27
    5  A    between atoms: C_14  and  C_31
    6  A    between atoms: C_19  and  N_23
    7  A    between atoms: C_19  and  C_24
    8  A    between atoms: C_21  and  C_31
                            x       y       z     vdW  Elec       q    Type
                         _______ _______ _______ _____ _____    ______ ____

>  <TORSDO>
F 8

$$$$
