=
 OpenBabel11042420253D

 31 34  0  0  0  0  0  0  0  0999 V2000
  161.2700  205.6170  149.3600 C   0  0  0  0  0  3  0  0  0  0  0  0
  160.1720  201.1380  145.2940 O   0  0  0  0  0  0  0  0  0  0  0  0
  160.7610  201.8970  148.6510 C   0  0  0  0  0  0  0  0  0  0  0  0
  161.5950  206.1130  148.0970 C   0  0  0  0  0  0  0  0  0  0  0  0
  160.9180  200.9350  147.5160 C   0  0  0  0  0  2  0  0  0  0  0  0
  161.0650  203.3540  148.4840 C   0  0  0  0  0  0  0  0  0  0  0  0
  161.0040  204.2660  149.5690 C   0  0  0  0  0  0  0  0  0  0  0  0
  161.5270  202.9260  146.0070 C   0  0  0  0  0  2  0  0  0  0  0  0
  161.6520  205.2280  147.0090 C   0  0  0  0  0  0  0  0  0  0  0  0
  160.7980  201.6400  146.2110 C   0  0  0  0  0  0  0  0  0  0  0  0
  160.3840  201.4310  149.7590 O   0  0  0  0  0  0  0  0  0  0  0  0
  161.3920  203.8520  147.1930 C   0  0  0  0  0  0  0  0  0  0  0  0
  162.0280  205.7550  145.6550 C   0  0  0  0  0  2  0  0  0  0  0  0
  160.8740  206.0520  144.9280 O   0  0  0  0  0  1  0  0  0  0  0  0
  161.8630  207.5120  147.8890 N   0  0  0  0  0  2  0  0  0  0  0  0
  162.1130  208.2120  150.2090 C   0  0  0  0  0  3  0  0  0  0  0  0
  162.2020  209.2010  151.1940 C   0  0  0  0  0  3  0  0  0  0  0  0
  162.1370  210.5510  150.8360 C   0  0  0  0  0  3  0  0  0  0  0  0
  161.8920  209.9200  148.5130 C   0  0  0  0  0  3  0  0  0  0  0  0
  161.9810  210.9100  149.4950 C   0  0  0  0  0  0  0  0  0  0  0  0
  161.9160  212.2170  149.1460 F   0  0  0  0  0  0  0  0  0  0  0  0
  161.9610  208.5620  148.8630 C   0  0  0  0  0  0  0  0  0  0  0  0
  160.7020  203.8500  150.9730 C   0  0  0  0  0  2  0  0  0  0  0  0
  161.7660  204.3810  151.9150 C   0  0  0  0  0  2  0  0  0  0  0  0
  161.1160  205.1370  153.0160 C   0  0  0  0  0  3  0  0  0  0  0  0
  161.5070  206.3740  153.2900 C   0  0  0  0  0  3  0  0  0  0  0  0
  160.9430  208.5140  154.5020 C   0  0  0  0  0  3  0  0  0  0  0  0
  160.2130  208.7440  155.6590 C   0  0  0  0  0  3  0  0  0  0  0  0
  159.7690  207.5670  156.1470 N   0  0  0  0  0  0  0  0  0  0  0  0
  160.1900  206.6320  155.3500 O   0  0  0  0  0  0  0  0  0  0  0  0
  160.8850  207.1440  154.3680 C   0  0  0  0  0  0  0  0  0  0  0  0
  1  7  1  0  0  0  0
  2 10  2  0  0  0  0
  3 11  2  0  0  0  0
  4  1  2  0  0  0  0
  5  3  1  0  0  0  0
  6  3  1  0  0  0  0
  6  7  2  0  0  0  0
  7 23  1  0  0  0  0
  8 10  1  0  0  0  0
  8 12  1  0  0  0  0
  9 12  2  0  0  0  0
  9  4  1  0  0  0  0
 10  5  1  0  0  0  0
 12  6  1  0  0  0  0
 13  9  1  0  0  0  0
 14 13  1  0  0  0  0
 15  4  1  0  0  0  0
 15 22  1  0  0  0  0
 16 17  1  0  0  0  0
 18 17  2  0  0  0  0
 19 22  1  0  0  0  0
 19 20  2  0  0  0  0
 20 18  1  0  0  0  0
 21 20  1  0  0  0  0
 22 16  2  0  0  0  0
 23 24  1  0  0  0  0
 24 25  1  0  0  0  0
 25 26  2  0  0  0  0
 26 31  1  0  0  0  0
 27 28  1  0  0  0  0
 28 29  2  0  0  0  0
 30 29  1  0  0  0  0
 31 27  2  0  0  0  0
 31 30  1  0  0  0  0
M  END
>  <MODEL>
1

>  <REMARK>
 VINA RESULT:     -10.6      0.000      0.000
  Name = 
  7 active torsions:
  status: ('A' for Active; 'I' for Inactive)
    1  A    between atoms: N_4  and  C_8
    2  A    between atoms: N_4  and  C_30
    3  A    between atoms: C_12  and  C_20
    4  A    between atoms: C_12  and  C_28
    5  A    between atoms: C_14  and  C_28
    6  A    between atoms: C_16  and  C_22
    7  A    between atoms: C_19  and  C_24
                            x       y       z     vdW  Elec       q    Type
                         _______ _______ _______ _____ _____    ______ ____

>  <TORSDO>
F 7

$$$$
=
 OpenBabel11042420253D

 31 34  0  0  0  0  0  0  0  0999 V2000
  161.9470  205.9990  150.0460 C   0  0  0  0  0  3  0  0  0  0  0  0
  161.5980  210.3350  154.3910 O   0  0  0  0  0  0  0  0  0  0  0  0
  161.0730  206.9660  153.6380 C   0  0  0  0  0  0  0  0  0  0  0  0
  161.9330  207.2360  149.4000 C   0  0  0  0  0  0  0  0  0  0  0  0
  160.6570  208.1790  154.4090 C   0  0  0  0  0  2  0  0  0  0  0  0
  161.3540  207.0360  152.1690 C   0  0  0  0  0  0  0  0  0  0  0  0
  161.6670  205.8820  151.4050 C   0  0  0  0  0  0  0  0  0  0  0  0
  160.9630  209.5600  152.2610 C   0  0  0  0  0  2  0  0  0  0  0  0
  161.6340  208.3910  150.1390 C   0  0  0  0  0  0  0  0  0  0  0  0
  161.1360  209.4170  153.7360 C   0  0  0  0  0  0  0  0  0  0  0  0
  161.1590  205.8790  154.2680 O   0  0  0  0  0  0  0  0  0  0  0  0
  161.3420  208.3000  151.5180 C   0  0  0  0  0  0  0  0  0  0  0  0
  161.5930  209.7190  149.4410 C   0  0  0  0  0  2  0  0  0  0  0  0
  162.6290  210.5280  149.9060 O   0  0  0  0  0  1  0  0  0  0  0  0
  162.2280  207.3500  147.9950 N   0  0  0  0  0  2  0  0  0  0  0  0
  160.6180  206.6100  146.3220 C   0  0  0  0  0  3  0  0  0  0  0  0
  160.2230  205.7590  145.2850 C   0  0  0  0  0  3  0  0  0  0  0  0
  161.0800  204.7450  144.8490 C   0  0  0  0  0  3  0  0  0  0  0  0
  162.7230  205.4340  146.4860 C   0  0  0  0  0  3  0  0  0  0  0  0
  162.3310  204.5830  145.4500 C   0  0  0  0  0  0  0  0  0  0  0  0
  163.1630  203.6000  145.0310 F   0  0  0  0  0  0  0  0  0  0  0  0
  161.8700  206.4580  146.9270 C   0  0  0  0  0  0  0  0  0  0  0  0
  161.6790  204.5000  151.9770 C   0  0  0  0  0  2  0  0  0  0  0  0
  160.4330  203.7480  151.5480 C   0  0  0  0  0  2  0  0  0  0  0  0
  160.8010  202.7170  150.5440 C   0  0  0  0  0  3  0  0  0  0  0  0
  160.4720  202.8850  149.2710 C   0  0  0  0  0  3  0  0  0  0  0  0
  161.3950  200.6610  148.5170 C   0  0  0  0  0  3  0  0  0  0  0  0
  161.5230  200.1060  147.2520 C   0  0  0  0  0  3  0  0  0  0  0  0
  161.0460  200.9730  146.3350 N   0  0  0  0  0  0  0  0  0  0  0  0
  160.6360  202.0270  146.9720 O   0  0  0  0  0  0  0  0  0  0  0  0
  160.8210  201.8870  148.2600 C   0  0  0  0  0  0  0  0  0  0  0  0
  1  7  1  0  0  0  0
  3 11  2  0  0  0  0
  3  5  1  0  0  0  0
  4  1  2  0  0  0  0
  4  9  1  0  0  0  0
  6  3  1  0  0  0  0
  7 23  1  0  0  0  0
  7  6  2  0  0  0  0
  8 10  1  0  0  0  0
  9 12  2  0  0  0  0
 10  2  2  0  0  0  0
 10  5  1  0  0  0  0
 12  6  1  0  0  0  0
 12  8  1  0  0  0  0
 13 14  1  0  0  0  0
 13  9  1  0  0  0  0
 15  4  1  0  0  0  0
 16 22  1  0  0  0  0
 17 16  2  0  0  0  0
 18 17  1  0  0  0  0
 18 20  2  0  0  0  0
 19 22  2  0  0  0  0
 20 19  1  0  0  0  0
 21 20  1  0  0  0  0
 22 15  1  0  0  0  0
 24 23  1  0  0  0  0
 25 24  1  0  0  0  0
 26 25  2  0  0  0  0
 28 27  1  0  0  0  0
 29 30  1  0  0  0  0
 29 28  2  0  0  0  0
 30 31  1  0  0  0  0
 31 27  2  0  0  0  0
 31 26  1  0  0  0  0
M  END
>  <MODEL>
2

>  <REMARK>
 VINA RESULT:      -9.4      2.805      7.292
  Name = 
  7 active torsions:
  status: ('A' for Active; 'I' for Inactive)
    1  A    between atoms: N_4  and  C_8
    2  A    between atoms: N_4  and  C_30
    3  A    between atoms: C_12  and  C_20
    4  A    between atoms: C_12  and  C_28
    5  A    between atoms: C_14  and  C_28
    6  A    between atoms: C_16  and  C_22
    7  A    between atoms: C_19  and  C_24
                            x       y       z     vdW  Elec       q    Type
                         _______ _______ _______ _____ _____    ______ ____

>  <TORSDO>
F 7

$$$$
=
 OpenBabel11042420253D

 31 34  0  0  0  0  0  0  0  0999 V2000
  161.2850  207.4400  151.7270 C   0  0  0  0  0  3  0  0  0  0  0  0
  158.7500  211.3790  155.7100 O   0  0  0  0  0  0  0  0  0  0  0  0
  160.5890  211.0540  152.7590 C   0  0  0  0  0  0  0  0  0  0  0  0
  161.0870  206.7520  152.9240 C   0  0  0  0  0  0  0  0  0  0  0  0
  160.3050  211.8350  154.0030 C   0  0  0  0  0  2  0  0  0  0  0  0
  160.7850  209.5690  152.8000 C   0  0  0  0  0  0  0  0  0  0  0  0
  161.1400  208.8240  151.6460 C   0  0  0  0  0  0  0  0  0  0  0  0
  160.2520  209.6140  155.2990 C   0  0  0  0  0  2  0  0  0  0  0  0
  160.7270  207.4700  154.0750 C   0  0  0  0  0  0  0  0  0  0  0  0
  159.6770  210.9650  155.0360 C   0  0  0  0  0  0  0  0  0  0  0  0
  160.6790  211.6950  151.6790 O   0  0  0  0  0  0  0  0  0  0  0  0
  160.5770  208.8740  154.0230 C   0  0  0  0  0  0  0  0  0  0  0  0
  160.5390  206.7350  155.3700 C   0  0  0  0  0  2  0  0  0  0  0  0
  159.2390  206.9290  155.8370 O   0  0  0  0  0  1  0  0  0  0  0  0
  161.2340  205.3210  152.9980 N   0  0  0  0  0  2  0  0  0  0  0  0
  161.1660  202.9940  152.2780 C   0  0  0  0  0  3  0  0  0  0  0  0
  161.0700  202.0150  151.2840 C   0  0  0  0  0  3  0  0  0  0  0  0
  160.9300  202.3910  149.9450 C   0  0  0  0  0  3  0  0  0  0  0  0
  160.9850  204.7210  150.5960 C   0  0  0  0  0  3  0  0  0  0  0  0
  160.8880  203.7440  149.6010 C   0  0  0  0  0  0  0  0  0  0  0  0
  160.7540  204.1110  148.3050 F   0  0  0  0  0  0  0  0  0  0  0  0
  161.1210  204.3520  151.9440 C   0  0  0  0  0  0  0  0  0  0  0  0
  161.4120  209.4520  150.3170 C   0  0  0  0  0  2  0  0  0  0  0  0
  162.4270  208.6260  149.5490 C   0  0  0  0  0  2  0  0  0  0  0  0
  161.7780  208.0370  148.3500 C   0  0  0  0  0  3  0  0  0  0  0  0
  162.3200  206.9870  147.7510 C   0  0  0  0  0  3  0  0  0  0  0  0
  162.3450  205.5700  145.6630 C   0  0  0  0  0  3  0  0  0  0  0  0
  161.3460  205.2720  144.7490 C   0  0  0  0  0  3  0  0  0  0  0  0
  160.2040  205.8850  145.1220 N   0  0  0  0  0  0  0  0  0  0  0  0
  160.4530  206.5420  146.2130 O   0  0  0  0  0  0  0  0  0  0  0  0
  161.7030  206.3850  146.5690 C   0  0  0  0  0  0  0  0  0  0  0  0
  1  4  1  0  0  0  0
  3  6  1  0  0  0  0
  3  5  1  0  0  0  0
  4 15  1  0  0  0  0
  4  9  2  0  0  0  0
  5 10  1  0  0  0  0
  6 12  2  0  0  0  0
  7  1  2  0  0  0  0
  7  6  1  0  0  0  0
  9 13  1  0  0  0  0
 10  8  1  0  0  0  0
 10  2  2  0  0  0  0
 11  3  2  0  0  0  0
 12  9  1  0  0  0  0
 12  8  1  0  0  0  0
 13 14  1  0  0  0  0
 17 16  2  0  0  0  0
 18 17  1  0  0  0  0
 19 22  2  0  0  0  0
 20 18  2  0  0  0  0
 20 19  1  0  0  0  0
 21 20  1  0  0  0  0
 22 16  1  0  0  0  0
 22 15  1  0  0  0  0
 23  7  1  0  0  0  0
 24 23  1  0  0  0  0
 25 24  1  0  0  0  0
 26 25  2  0  0  0  0
 27 31  2  0  0  0  0
 28 29  2  0  0  0  0
 28 27  1  0  0  0  0
 29 30  1  0  0  0  0
 30 31  1  0  0  0  0
 31 26  1  0  0  0  0
M  END
>  <MODEL>
3

>  <REMARK>
 VINA RESULT:      -8.6      2.730      8.660
  Name = 
  7 active torsions:
  status: ('A' for Active; 'I' for Inactive)
    1  A    between atoms: N_4  and  C_8
    2  A    between atoms: N_4  and  C_30
    3  A    between atoms: C_12  and  C_20
    4  A    between atoms: C_12  and  C_28
    5  A    between atoms: C_14  and  C_28
    6  A    between atoms: C_16  and  C_22
    7  A    between atoms: C_19  and  C_24
                            x       y       z     vdW  Elec       q    Type
                         _______ _______ _______ _____ _____    ______ ____

>  <TORSDO>
F 7

$$$$
=
 OpenBabel11042420253D

 31 34  0  0  0  0  0  0  0  0999 V2000
  161.5570  206.4050  150.3560 C   0  0  0  0  0  3  0  0  0  0  0  0
  161.5920  201.0060  147.4140 O   0  0  0  0  0  0  0  0  0  0  0  0
  161.3350  204.4710  147.0670 C   0  0  0  0  0  0  0  0  0  0  0  0
  161.2600  205.4170  151.2950 C   0  0  0  0  0  0  0  0  0  0  0  0
  160.9430  203.1100  146.5850 C   0  0  0  0  0  2  0  0  0  0  0  0
  161.2950  204.8230  148.5230 C   0  0  0  0  0  0  0  0  0  0  0  0
  161.5810  206.1310  148.9900 C   0  0  0  0  0  0  0  0  0  0  0  0
  160.6290  202.4100  149.0390 C   0  0  0  0  0  2  0  0  0  0  0  0
  160.9830  204.1140  150.8540 C   0  0  0  0  0  0  0  0  0  0  0  0
  161.1190  202.1010  147.6650 C   0  0  0  0  0  0  0  0  0  0  0  0
  161.6790  205.3170  146.2000 O   0  0  0  0  0  0  0  0  0  0  0  0
  160.9950  203.8090  149.4740 C   0  0  0  0  0  0  0  0  0  0  0  0
  160.6380  203.0560  151.8610 C   0  0  0  0  0  2  0  0  0  0  0  0
  161.7700  202.2960  152.1530 O   0  0  0  0  0  1  0  0  0  0  0  0
  161.2430  205.7070  152.7060 N   0  0  0  0  0  2  0  0  0  0  0  0
  161.0060  208.1300  152.6030 C   0  0  0  0  0  3  0  0  0  0  0  0
  160.7610  209.3700  153.2020 C   0  0  0  0  0  3  0  0  0  0  0  0
  160.4830  209.4410  154.5700 C   0  0  0  0  0  3  0  0  0  0  0  0
  160.6980  207.0370  154.7360 C   0  0  0  0  0  3  0  0  0  0  0  0
  160.4510  208.2750  155.3370 C   0  0  0  0  0  0  0  0  0  0  0  0
  160.1840  208.3410  156.6630 F   0  0  0  0  0  0  0  0  0  0  0  0
  160.9740  206.9560  153.3620 C   0  0  0  0  0  0  0  0  0  0  0  0
  161.8780  207.2790  148.0800 C   0  0  0  0  0  2  0  0  0  0  0  0
  162.3310  208.4810  148.8880 C   0  0  0  0  0  2  0  0  0  0  0  0
  161.7430  209.7160  148.3070 C   0  0  0  0  0  3  0  0  0  0  0  0
  162.1940  210.9040  148.6830 C   0  0  0  0  0  3  0  0  0  0  0  0
  162.1900  213.3910  148.2570 C   0  0  0  0  0  3  0  0  0  0  0  0
  161.2970  214.1990  147.5700 C   0  0  0  0  0  3  0  0  0  0  0  0
  160.2950  213.4400  147.0800 N   0  0  0  0  0  0  0  0  0  0  0  0
  160.5290  212.2130  147.4330 O   0  0  0  0  0  0  0  0  0  0  0  0
  161.6350  212.1370  148.1280 C   0  0  0  0  0  0  0  0  0  0  0  0
  1  4  1  0  0  0  0
  2 10  2  0  0  0  0
  3  6  1  0  0  0  0
  4 15  1  0  0  0  0
  5  3  1  0  0  0  0
  5 10  1  0  0  0  0
  6  7  1  0  0  0  0
  6 12  2  0  0  0  0
  7  1  2  0  0  0  0
  8 12  1  0  0  0  0
  9  4  2  0  0  0  0
  9 13  1  0  0  0  0
 10  8  1  0  0  0  0
 11  3  2  0  0  0  0
 12  9  1  0  0  0  0
 13 14  1  0  0  0  0
 15 22  1  0  0  0  0
 16 17  2  0  0  0  0
 16 22  1  0  0  0  0
 17 18  1  0  0  0  0
 18 20  2  0  0  0  0
 19 20  1  0  0  0  0
 20 21  1  0  0  0  0
 22 19  2  0  0  0  0
 23 24  1  0  0  0  0
 23  7  1  0  0  0  0
 25 26  2  0  0  0  0
 25 24  1  0  0  0  0
 28 27  1  0  0  0  0
 29 30  1  0  0  0  0
 29 28  2  0  0  0  0
 30 31  1  0  0  0  0
 31 27  2  0  0  0  0
 31 26  1  0  0  0  0
M  END
>  <MODEL>
4

>  <REMARK>
 VINA RESULT:      -8.6      2.778      5.784
  Name = 
  7 active torsions:
  status: ('A' for Active; 'I' for Inactive)
    1  A    between atoms: N_4  and  C_8
    2  A    between atoms: N_4  and  C_30
    3  A    between atoms: C_12  and  C_20
    4  A    between atoms: C_12  and  C_28
    5  A    between atoms: C_14  and  C_28
    6  A    between atoms: C_16  and  C_22
    7  A    between atoms: C_19  and  C_24
                            x       y       z     vdW  Elec       q    Type
                         _______ _______ _______ _____ _____    ______ ____

>  <TORSDO>
F 7

$$$$
=
 OpenBabel11042420253D

 31 34  0  0  0  0  0  0  0  0999 V2000
  161.3910  206.3730  150.1440 C   0  0  0  0  0  3  0  0  0  0  0  0
  160.1050  201.2240  147.0390 O   0  0  0  0  0  0  0  0  0  0  0  0
  160.8060  202.5960  150.1720 C   0  0  0  0  0  0  0  0  0  0  0  0
  161.6850  206.6120  148.8010 C   0  0  0  0  0  0  0  0  0  0  0  0
  160.9140  201.4330  149.2380 C   0  0  0  0  0  2  0  0  0  0  0  0
  161.1260  203.9890  149.7220 C   0  0  0  0  0  0  0  0  0  0  0  0
  161.1110  205.0910  150.6140 C   0  0  0  0  0  0  0  0  0  0  0  0
  161.5070  203.0870  147.3610 C   0  0  0  0  0  2  0  0  0  0  0  0
  161.6960  205.5360  147.9010 C   0  0  0  0  0  0  0  0  0  0  0  0
  160.7660  201.8790  147.8260 C   0  0  0  0  0  0  0  0  0  0  0  0
  160.4560  202.3580  151.3580 O   0  0  0  0  0  0  0  0  0  0  0  0
  161.4210  204.2250  148.3510 C   0  0  0  0  0  0  0  0  0  0  0  0
  162.0380  205.7870  146.4620 C   0  0  0  0  0  2  0  0  0  0  0  0
  160.8960  206.1890  145.7690 O   0  0  0  0  0  1  0  0  0  0  0  0
  161.9670  207.9410  148.3230 N   0  0  0  0  0  2  0  0  0  0  0  0
  161.9630  209.1310  150.4490 C   0  0  0  0  0  3  0  0  0  0  0  0
  161.9420  210.3120  151.1990 C   0  0  0  0  0  3  0  0  0  0  0  0
  161.9100  211.5500  150.5520 C   0  0  0  0  0  3  0  0  0  0  0  0
  161.9180  210.4260  148.4080 C   0  0  0  0  0  3  0  0  0  0  0  0
  161.8980  211.6070  149.1560 C   0  0  0  0  0  0  0  0  0  0  0  0
  161.8650  212.8060  148.5260 F   0  0  0  0  0  0  0  0  0  0  0  0
  161.9550  209.1790  149.0510 C   0  0  0  0  0  0  0  0  0  0  0  0
  160.8450  204.9560  152.0790 C   0  0  0  0  0  2  0  0  0  0  0  0
  161.9880  205.5580  152.8750 C   0  0  0  0  0  2  0  0  0  0  0  0
  161.4380  206.3690  153.9920 C   0  0  0  0  0  3  0  0  0  0  0  0
  161.2030  207.6620  153.8190 C   0  0  0  0  0  3  0  0  0  0  0  0
  160.7800  208.2110  156.2450 C   0  0  0  0  0  3  0  0  0  0  0  0
  160.1110  209.2700  156.8390 C   0  0  0  0  0  3  0  0  0  0  0  0
  159.6420  210.0940  155.8800 N   0  0  0  0  0  0  0  0  0  0  0  0
  159.9890  209.5950  154.7330 O   0  0  0  0  0  0  0  0  0  0  0  0
  160.6610  208.4850  154.9000 C   0  0  0  0  0  0  0  0  0  0  0  0
  1  7  1  0  0  0  0
  2 10  2  0  0  0  0
  3 11  2  0  0  0  0
  4  1  2  0  0  0  0
  5  3  1  0  0  0  0
  6  3  1  0  0  0  0
  6  7  2  0  0  0  0
  7 23  1  0  0  0  0
  8 10  1  0  0  0  0
  8 12  1  0  0  0  0
  9 12  2  0  0  0  0
  9  4  1  0  0  0  0
 10  5  1  0  0  0  0
 12  6  1  0  0  0  0
 13  9  1  0  0  0  0
 14 13  1  0  0  0  0
 15  4  1  0  0  0  0
 15 22  1  0  0  0  0
 16 17  1  0  0  0  0
 18 17  2  0  0  0  0
 19 22  1  0  0  0  0
 19 20  2  0  0  0  0
 20 18  1  0  0  0  0
 21 20  1  0  0  0  0
 22 16  2  0  0  0  0
 23 24  1  0  0  0  0
 24 25  1  0  0  0  0
 26 25  2  0  0  0  0
 26 31  1  0  0  0  0
 27 28  1  0  0  0  0
 29 28  2  0  0  0  0
 30 31  1  0  0  0  0
 30 29  1  0  0  0  0
 31 27  2  0  0  0  0
M  END
>  <MODEL>
5

>  <REMARK>
 VINA RESULT:      -8.4      1.191      1.440
  Name = 
  7 active torsions:
  status: ('A' for Active; 'I' for Inactive)
    1  A    between atoms: N_4  and  C_8
    2  A    between atoms: N_4  and  C_30
    3  A    between atoms: C_12  and  C_20
    4  A    between atoms: C_12  and  C_28
    5  A    between atoms: C_14  and  C_28
    6  A    between atoms: C_16  and  C_22
    7  A    between atoms: C_19  and  C_24
                            x       y       z     vdW  Elec       q    Type
                         _______ _______ _______ _____ _____    ______ ____

>  <TORSDO>
F 7

$$$$
=
 OpenBabel11042420253D

 31 34  0  0  0  0  0  0  0  0999 V2000
  161.9650  209.5480  149.6820 C   0  0  0  0  0  3  0  0  0  0  0  0
  161.4590  207.7880  155.5520 O   0  0  0  0  0  0  0  0  0  0  0  0
  161.6330  206.7210  152.2320 C   0  0  0  0  0  0  0  0  0  0  0  0
  161.5170  210.6510  150.4110 C   0  0  0  0  0  0  0  0  0  0  0  0
  161.0980  206.5060  153.6130 C   0  0  0  0  0  2  0  0  0  0  0  0
  161.5820  208.0670  151.5780 C   0  0  0  0  0  0  0  0  0  0  0  0
  162.0050  208.2720  150.2400 C   0  0  0  0  0  0  0  0  0  0  0  0
  160.6130  209.0280  153.7390 C   0  0  0  0  0  2  0  0  0  0  0  0
  161.1020  210.4720  151.7390 C   0  0  0  0  0  0  0  0  0  0  0  0
  161.1120  207.7790  154.3840 C   0  0  0  0  0  0  0  0  0  0  0  0
  162.1080  205.7210  151.6310 O   0  0  0  0  0  0  0  0  0  0  0  0
  161.1280  209.1870  152.3280 C   0  0  0  0  0  0  0  0  0  0  0  0
  160.5960  211.6520  152.5160 C   0  0  0  0  0  2  0  0  0  0  0  0
  159.2110  211.7490  152.3750 O   0  0  0  0  0  1  0  0  0  0  0  0
  161.4830  211.9680  149.8290 N   0  0  0  0  0  2  0  0  0  0  0  0
  162.6980  212.8180  147.8950 C   0  0  0  0  0  3  0  0  0  0  0  0
  162.7610  213.1980  146.5510 C   0  0  0  0  0  3  0  0  0  0  0  0
  161.6240  213.1020  145.7430 C   0  0  0  0  0  3  0  0  0  0  0  0
  160.3640  212.2480  147.6250 C   0  0  0  0  0  3  0  0  0  0  0  0
  160.4250  212.6270  146.2810 C   0  0  0  0  0  0  0  0  0  0  0  0
  159.3220  212.5340  145.5010 F   0  0  0  0  0  0  0  0  0  0  0  0
  161.5030  212.3370  148.4410 C   0  0  0  0  0  0  0  0  0  0  0  0
  162.4710  207.1650  149.3500 C   0  0  0  0  0  2  0  0  0  0  0  0
  161.4410  206.8960  148.2690 C   0  0  0  0  0  2  0  0  0  0  0  0
  161.3950  205.4390  147.9830 C   0  0  0  0  0  3  0  0  0  0  0  0
  161.0530  204.5870  148.9390 C   0  0  0  0  0  3  0  0  0  0  0  0
  160.7900  202.1780  149.6440 C   0  0  0  0  0  3  0  0  0  0  0  0
  160.8270  201.0020  148.9100 C   0  0  0  0  0  3  0  0  0  0  0  0
  161.0430  201.2940  147.6110 N   0  0  0  0  0  0  0  0  0  0  0  0
  161.1410  202.5850  147.5140 O   0  0  0  0  0  0  0  0  0  0  0  0
  160.9980  203.1470  148.6860 C   0  0  0  0  0  0  0  0  0  0  0  0
  1  7  2  0  0  0  0
  1  4  1  0  0  0  0
  3  5  1  0  0  0  0
  4  9  2  0  0  0  0
  5 10  1  0  0  0  0
  6  3  1  0  0  0  0
  6 12  2  0  0  0  0
  7  6  1  0  0  0  0
  8 10  1  0  0  0  0
  9 12  1  0  0  0  0
  9 13  1  0  0  0  0
 10  2  2  0  0  0  0
 11  3  2  0  0  0  0
 12  8  1  0  0  0  0
 14 13  1  0  0  0  0
 15  4  1  0  0  0  0
 16 22  1  0  0  0  0
 17 16  2  0  0  0  0
 18 20  2  0  0  0  0
 18 17  1  0  0  0  0
 19 22  2  0  0  0  0
 20 19  1  0  0  0  0
 21 20  1  0  0  0  0
 22 15  1  0  0  0  0
 23  7  1  0  0  0  0
 24 23  1  0  0  0  0
 25 24  1  0  0  0  0
 25 26  2  0  0  0  0
 28 27  1  0  0  0  0
 29 28  2  0  0  0  0
 30 29  1  0  0  0  0
 30 31  1  0  0  0  0
 31 26  1  0  0  0  0
 31 27  2  0  0  0  0
M  END
>  <MODEL>
6

>  <REMARK>
 VINA RESULT:      -8.3      2.757      7.025
  Name = 
  7 active torsions:
  status: ('A' for Active; 'I' for Inactive)
    1  A    between atoms: N_4  and  C_8
    2  A    between atoms: N_4  and  C_30
    3  A    between atoms: C_12  and  C_20
    4  A    between atoms: C_12  and  C_28
    5  A    between atoms: C_14  and  C_28
    6  A    between atoms: C_16  and  C_22
    7  A    between atoms: C_19  and  C_24
                            x       y       z     vdW  Elec       q    Type
                         _______ _______ _______ _____ _____    ______ ____

>  <TORSDO>
F 7

$$$$
=
 OpenBabel11042420253D

 31 34  0  0  0  0  0  0  0  0999 V2000
  161.5710  206.5860  149.9760 C   0  0  0  0  0  3  0  0  0  0  0  0
  159.5890  206.8650  155.7900 O   0  0  0  0  0  0  0  0  0  0  0  0
  161.3650  208.5080  153.2720 C   0  0  0  0  0  0  0  0  0  0  0  0
  161.2830  205.2820  150.3810 C   0  0  0  0  0  0  0  0  0  0  0  0
  161.1890  208.2270  154.7310 C   0  0  0  0  0  2  0  0  0  0  0  0
  161.3610  207.4040  152.2610 C   0  0  0  0  0  0  0  0  0  0  0  0
  161.6110  207.6410  150.8850 C   0  0  0  0  0  0  0  0  0  0  0  0
  160.8410  205.7490  154.1380 C   0  0  0  0  0  2  0  0  0  0  0  0
  161.0240  205.0280  151.7370 C   0  0  0  0  0  0  0  0  0  0  0  0
  160.4520  206.9500  154.9330 C   0  0  0  0  0  0  0  0  0  0  0  0
  161.5390  209.7070  152.9290 O   0  0  0  0  0  0  0  0  0  0  0  0
  161.0630  206.0780  152.6800 C   0  0  0  0  0  0  0  0  0  0  0  0
  160.7400  203.6220  152.1780 C   0  0  0  0  0  2  0  0  0  0  0  0
  161.8690  202.8280  151.9740 O   0  0  0  0  0  1  0  0  0  0  0  0
  161.2380  204.1980  149.4340 N   0  0  0  0  0  2  0  0  0  0  0  0
  161.5850  203.1240  147.2740 C   0  0  0  0  0  3  0  0  0  0  0  0
  161.5790  203.1410  145.8760 C   0  0  0  0  0  3  0  0  0  0  0  0
  161.1950  204.2990  145.1930 C   0  0  0  0  0  3  0  0  0  0  0  0
  160.8270  205.4190  147.3060 C   0  0  0  0  0  3  0  0  0  0  0  0
  160.8190  205.4380  145.9090 C   0  0  0  0  0  0  0  0  0  0  0  0
  160.4490  206.5620  145.2500 F   0  0  0  0  0  0  0  0  0  0  0  0
  161.2060  204.2590  148.0000 C   0  0  0  0  0  0  0  0  0  0  0  0
  161.9640  208.9860  150.3360 C   0  0  0  0  0  2  0  0  0  0  0  0
  162.0660  208.9230  148.8240 C   0  0  0  0  0  2  0  0  0  0  0  0
  162.3370  210.2820  148.2900 C   0  0  0  0  0  3  0  0  0  0  0  0
  161.3740  211.1920  148.2760 C   0  0  0  0  0  3  0  0  0  0  0  0
  160.8190  213.1890  146.8360 C   0  0  0  0  0  3  0  0  0  0  0  0
  161.4590  214.4090  146.6800 C   0  0  0  0  0  3  0  0  0  0  0  0
  162.5520  214.4430  147.4700 N   0  0  0  0  0  0  0  0  0  0  0  0
  162.6120  213.3090  148.1000 O   0  0  0  0  0  0  0  0  0  0  0  0
  161.6110  212.5400  147.7570 C   0  0  0  0  0  0  0  0  0  0  0  0
  1  4  2  0  0  0  0
  1  7  1  0  0  0  0
  3  5  1  0  0  0  0
  4  9  1  0  0  0  0
  5 10  1  0  0  0  0
  6 12  1  0  0  0  0
  6  3  1  0  0  0  0
  7  6  2  0  0  0  0
  8 10  1  0  0  0  0
  9 13  1  0  0  0  0
  9 12  2  0  0  0  0
 10  2  2  0  0  0  0
 11  3  2  0  0  0  0
 12  8  1  0  0  0  0
 14 13  1  0  0  0  0
 15  4  1  0  0  0  0
 16 22  1  0  0  0  0
 17 16  2  0  0  0  0
 18 17  1  0  0  0  0
 18 20  2  0  0  0  0
 19 22  2  0  0  0  0
 20 19  1  0  0  0  0
 21 20  1  0  0  0  0
 22 15  1  0  0  0  0
 23  7  1  0  0  0  0
 24 23  1  0  0  0  0
 25 24  1  0  0  0  0
 26 25  2  0  0  0  0
 27 31  2  0  0  0  0
 28 27  1  0  0  0  0
 28 29  2  0  0  0  0
 29 30  1  0  0  0  0
 31 30  1  0  0  0  0
 31 26  1  0  0  0  0
M  END
>  <MODEL>
7

>  <REMARK>
 VINA RESULT:      -7.9      2.992      7.563
  Name = 
  7 active torsions:
  status: ('A' for Active; 'I' for Inactive)
    1  A    between atoms: N_4  and  C_8
    2  A    between atoms: N_4  and  C_30
    3  A    between atoms: C_12  and  C_20
    4  A    between atoms: C_12  and  C_28
    5  A    between atoms: C_14  and  C_28
    6  A    between atoms: C_16  and  C_22
    7  A    between atoms: C_19  and  C_24
                            x       y       z     vdW  Elec       q    Type
                         _______ _______ _______ _____ _____    ______ ____

>  <TORSDO>
F 7

$$$$
=
 OpenBabel11042420253D

 31 34  0  0  0  0  0  0  0  0999 V2000
  161.2120  208.4960  152.3620 C   0  0  0  0  0  3  0  0  0  0  0  0
  158.1670  211.4870  156.7880 O   0  0  0  0  0  0  0  0  0  0  0  0
  160.0860  211.8140  153.8890 C   0  0  0  0  0  0  0  0  0  0  0  0
  161.0720  207.6180  153.4370 C   0  0  0  0  0  0  0  0  0  0  0  0
  159.6900  212.3630  155.2240 C   0  0  0  0  0  2  0  0  0  0  0  0
  160.4510  210.3710  153.7180 C   0  0  0  0  0  0  0  0  0  0  0  0
  160.9100  209.8510  152.4810 C   0  0  0  0  0  0  0  0  0  0  0  0
  159.8700  209.9810  156.1770 C   0  0  0  0  0  2  0  0  0  0  0  0
  160.6100  208.1110  154.6680 C   0  0  0  0  0  0  0  0  0  0  0  0
  159.1480  211.2840  156.0940 C   0  0  0  0  0  0  0  0  0  0  0  0
  160.1220  212.6160  152.9190 O   0  0  0  0  0  0  0  0  0  0  0  0
  160.3010  209.4810  154.8180 C   0  0  0  0  0  0  0  0  0  0  0  0
  160.4840  207.1730  155.8330 C   0  0  0  0  0  2  0  0  0  0  0  0
  159.1440  206.8360  156.0230 O   0  0  0  0  0  1  0  0  0  0  0  0
  161.3810  206.2180  153.3050 N   0  0  0  0  0  2  0  0  0  0  0  0
  161.1310  203.9780  152.3780 C   0  0  0  0  0  3  0  0  0  0  0  0
  160.9580  203.1040  151.3010 C   0  0  0  0  0  3  0  0  0  0  0  0
  160.8460  203.6100  150.0020 C   0  0  0  0  0  3  0  0  0  0  0  0
  161.0830  205.8600  150.8610 C   0  0  0  0  0  3  0  0  0  0  0  0
  160.9080  204.9880  149.7830 C   0  0  0  0  0  0  0  0  0  0  0  0
  160.8020  205.4800  148.5260 F   0  0  0  0  0  0  0  0  0  0  0  0
  161.1920  205.3600  152.1690 C   0  0  0  0  0  0  0  0  0  0  0  0
  161.1330  210.6980  151.2690 C   0  0  0  0  0  2  0  0  0  0  0  0
  162.1640  210.0500  150.3630 C   0  0  0  0  0  2  0  0  0  0  0  0
  162.0050  210.5730  148.9820 C   0  0  0  0  0  3  0  0  0  0  0  0
  161.9580  211.8810  148.7700 C   0  0  0  0  0  3  0  0  0  0  0  0
  160.6260  212.4520  146.7050 C   0  0  0  0  0  3  0  0  0  0  0  0
  161.0010  213.0530  145.5130 C   0  0  0  0  0  3  0  0  0  0  0  0
  162.3160  213.3480  145.5570 N   0  0  0  0  0  0  0  0  0  0  0  0
  162.7630  212.9580  146.7120 O   0  0  0  0  0  0  0  0  0  0  0  0
  161.8020  212.4240  147.4210 C   0  0  0  0  0  0  0  0  0  0  0  0
  1  7  2  0  0  0  0
  1  4  1  0  0  0  0
  3  5  1  0  0  0  0
  4  9  2  0  0  0  0
  5 10  1  0  0  0  0
  6  3  1  0  0  0  0
  6 12  2  0  0  0  0
  7  6  1  0  0  0  0
  9 12  1  0  0  0  0
  9 13  1  0  0  0  0
 10  8  1  0  0  0  0
 10  2  2  0  0  0  0
 11  3  2  0  0  0  0
 12  8  1  0  0  0  0
 13 14  1  0  0  0  0
 15  4  1  0  0  0  0
 17 16  2  0  0  0  0
 18 17  1  0  0  0  0
 19 22  2  0  0  0  0
 20 18  2  0  0  0  0
 20 19  1  0  0  0  0
 21 20  1  0  0  0  0
 22 16  1  0  0  0  0
 22 15  1  0  0  0  0
 23  7  1  0  0  0  0
 24 23  1  0  0  0  0
 25 24  1  0  0  0  0
 26 25  2  0  0  0  0
 27 31  2  0  0  0  0
 28 29  2  0  0  0  0
 28 27  1  0  0  0  0
 29 30  1  0  0  0  0
 30 31  1  0  0  0  0
 31 26  1  0  0  0  0
M  END
>  <MODEL>
8

>  <REMARK>
 VINA RESULT:      -7.8      3.932      9.166
  Name = 
  7 active torsions:
  status: ('A' for Active; 'I' for Inactive)
    1  A    between atoms: N_4  and  C_8
    2  A    between atoms: N_4  and  C_30
    3  A    between atoms: C_12  and  C_20
    4  A    between atoms: C_12  and  C_28
    5  A    between atoms: C_14  and  C_28
    6  A    between atoms: C_16  and  C_22
    7  A    between atoms: C_19  and  C_24
                            x       y       z     vdW  Elec       q    Type
                         _______ _______ _______ _____ _____    ______ ____

>  <TORSDO>
F 7

$$$$
=
 OpenBabel11042420253D

 31 34  0  0  0  0  0  0  0  0999 V2000
  161.2440  210.1700  151.5190 C   0  0  0  0  0  3  0  0  0  0  0  0
  160.9160  207.6030  157.0960 O   0  0  0  0  0  0  0  0  0  0  0  0
  161.3280  207.0180  153.6780 C   0  0  0  0  0  0  0  0  0  0  0  0
  160.6080  211.0830  152.3610 C   0  0  0  0  0  0  0  0  0  0  0  0
  160.8080  206.5430  154.9980 C   0  0  0  0  0  2  0  0  0  0  0  0
  161.0710  208.4130  153.1970 C   0  0  0  0  0  0  0  0  0  0  0  0
  161.4820  208.8550  151.9130 C   0  0  0  0  0  0  0  0  0  0  0  0
  159.9150  208.9170  155.4200 C   0  0  0  0  0  2  0  0  0  0  0  0
  160.2010  210.6680  153.6380 C   0  0  0  0  0  0  0  0  0  0  0  0
  160.5990  207.6910  155.9220 C   0  0  0  0  0  0  0  0  0  0  0  0
  161.9720  206.1940  152.9770 O   0  0  0  0  0  0  0  0  0  0  0  0
  160.4250  209.3390  154.0620 C   0  0  0  0  0  0  0  0  0  0  0  0
  159.4930  211.6410  154.5350 C   0  0  0  0  0  2  0  0  0  0  0  0
  160.4030  212.2060  155.4290 O   0  0  0  0  0  1  0  0  0  0  0  0
  160.3700  212.4420  151.9480 N   0  0  0  0  0  2  0  0  0  0  0  0
  160.3070  213.2820  149.6610 C   0  0  0  0  0  3  0  0  0  0  0  0
  159.6150  213.7610  148.5450 C   0  0  0  0  0  3  0  0  0  0  0  0
  158.2230  213.8840  148.5850 C   0  0  0  0  0  3  0  0  0  0  0  0
  158.2190  213.0500  150.8560 C   0  0  0  0  0  3  0  0  0  0  0  0
  157.5250  213.5280  149.7410 C   0  0  0  0  0  0  0  0  0  0  0  0
  156.1770  213.6470  149.7840 F   0  0  0  0  0  0  0  0  0  0  0  0
  159.6160  212.9190  150.8220 C   0  0  0  0  0  0  0  0  0  0  0  0
  162.1400  207.9620  150.9110 C   0  0  0  0  0  2  0  0  0  0  0  0
  161.3890  208.0140  149.5930 C   0  0  0  0  0  2  0  0  0  0  0  0
  161.3470  206.6560  148.9960 C   0  0  0  0  0  3  0  0  0  0  0  0
  161.0620  205.6070  149.7540 C   0  0  0  0  0  3  0  0  0  0  0  0
  161.4730  203.8950  147.9460 C   0  0  0  0  0  3  0  0  0  0  0  0
  161.2000  202.5370  147.8940 C   0  0  0  0  0  3  0  0  0  0  0  0
  160.6180  202.1550  149.0500 N   0  0  0  0  0  0  0  0  0  0  0  0
  160.5210  203.2080  149.8030 O   0  0  0  0  0  0  0  0  0  0  0  0
  161.0120  204.2560  149.1930 C   0  0  0  0  0  0  0  0  0  0  0  0
  1  7  2  0  0  0  0
  1  4  1  0  0  0  0
  3  5  1  0  0  0  0
  4  9  2  0  0  0  0
  5 10  1  0  0  0  0
  6  3  1  0  0  0  0
  6 12  2  0  0  0  0
  7  6  1  0  0  0  0
  8 10  1  0  0  0  0
  9 12  1  0  0  0  0
  9 13  1  0  0  0  0
 10  2  2  0  0  0  0
 11  3  2  0  0  0  0
 12  8  1  0  0  0  0
 13 14  1  0  0  0  0
 15  4  1  0  0  0  0
 16 22  1  0  0  0  0
 17 18  1  0  0  0  0
 17 16  2  0  0  0  0
 18 20  2  0  0  0  0
 20 21  1  0  0  0  0
 20 19  1  0  0  0  0
 22 19  2  0  0  0  0
 22 15  1  0  0  0  0
 23  7  1  0  0  0  0
 24 23  1  0  0  0  0
 25 24  1  0  0  0  0
 25 26  2  0  0  0  0
 27 31  2  0  0  0  0
 28 27  1  0  0  0  0
 28 29  2  0  0  0  0
 29 30  1  0  0  0  0
 31 26  1  0  0  0  0
 31 30  1  0  0  0  0
M  END
>  <MODEL>
9

>  <REMARK>
 VINA RESULT:      -7.8      3.091      7.683
  Name = 
  7 active torsions:
  status: ('A' for Active; 'I' for Inactive)
    1  A    between atoms: N_4  and  C_8
    2  A    between atoms: N_4  and  C_30
    3  A    between atoms: C_12  and  C_20
    4  A    between atoms: C_12  and  C_28
    5  A    between atoms: C_14  and  C_28
    6  A    between atoms: C_16  and  C_22
    7  A    between atoms: C_19  and  C_24
                            x       y       z     vdW  Elec       q    Type
                         _______ _______ _______ _____ _____    ______ ____

>  <TORSDO>
F 7

$$$$
