=
 OpenBabel11052410233D

 55 62  0  0  1  0  0  0  0  0999 V2000
  158.7940  212.1020  151.6220 C   0  0  0  0  0  3  0  0  0  0  0  0
  160.6620  211.8030  147.3690 C   0  0  0  0  0  2  0  0  0  0  0  0
  162.6910  209.5800  148.2060 O   0  0  0  0  0  1  0  0  0  0  0  0
  163.0080  207.6040  151.0930 C   0  0  0  0  0  3  0  0  0  0  0  0
  163.5420  206.4110  151.6000 C   0  0  0  0  0  3  0  0  0  0  0  0
  161.3380  207.6040  152.8500 C   0  0  0  0  0  0  0  0  0  0  0  0
  161.8650  206.4180  153.3510 C   0  0  0  0  0  3  0  0  0  0  0  0
  162.1550  210.2320  150.3750 N   0  0  0  0  0  2  0  0  0  0  0  0
  162.9650  205.8190  152.7270 C   0  0  0  0  0  3  0  0  0  0  0  0
  156.9460  213.7280  151.3800 C   0  0  0  0  0  3  0  0  0  0  0  0
  161.9090  208.2090  151.7200 C   0  0  0  0  0  0  0  0  0  0  0  0
  157.0000  213.5270  148.6070 C   0  0  0  0  0  0  0  0  0  0  0  0
  159.3400  210.9500  151.2350 C   0  0  0  0  0  3  0  0  0  0  0  0
  157.8860  212.7630  149.3760 C   0  0  0  0  0  3  0  0  0  0  0  0
  159.7260  209.3800  153.1930 C   0  0  0  0  0  0  0  0  0  0  0  0
  160.2560  213.2620  147.2140 C   0  0  0  0  0  2  0  0  0  0  0  0
  160.2290  208.2240  153.5100 N   0  0  0  0  0  0  0  0  0  0  0  0
  161.6490  211.6940  148.5130 C   0  0  0  0  0  2  0  0  0  0  0  0
  161.7380  210.2530  148.9800 C   0  0  1  0  0  3  0  0  0  0  0  0
  156.0820  214.4530  150.6170 N   0  0  0  0  0  0  0  0  0  0  0  0
  159.2900  213.4570  146.0550 C   0  0  1  0  0  3  0  0  0  0  0  0
  157.8590  212.8550  150.7790 C   0  0  0  0  0  0  0  0  0  0  0  0
  161.2080  209.3820  151.0880 C   0  0  1  0  0  3  0  0  0  0  0  0
  160.3590  210.2190  152.0710 C   0  0  1  0  0  3  0  0  0  0  0  0
  158.1330  214.3250  146.5570 C   0  0  0  0  0  2  0  0  0  0  0  0
  157.0160  213.4480  147.1170 C   0  0  0  0  0  2  0  0  0  0  0  0
  156.0920  214.3720  149.2560 C   0  0  0  0  0  3  0  0  0  0  0  0
  158.9840  210.0300  155.4840 C   0  0  0  0  0  3  0  0  0  0  0  0
  156.8200  211.0640  155.8920 C   0  0  0  0  0  0  0  0  0  0  0  0
  157.4860  210.4520  153.6290 C   0  0  0  0  0  3  0  0  0  0  0  0
  156.5550  211.0030  154.5130 C   0  0  0  0  0  3  0  0  0  0  0  0
  158.0480  210.5780  156.3660 C   0  0  0  0  0  3  0  0  0  0  0  0
  158.7000  209.9380  154.1080 C   0  0  0  0  0  0  0  0  0  0  0  0
  155.8490  211.6190  156.8030 N   0  0  0  0  0  0  0  0  0  0  0  0
  154.7210  210.8410  157.2550 C   0  0  0  0  0  1  0  0  0  0  0  0
  155.9470  212.9980  157.2580 C   0  0  0  0  0  1  0  0  0  0  0  0
  159.1050  214.4400  143.4210 S   0  0  0  0  0  0  0  0  0  0  0  0
  160.0730  214.1470  144.9390 C   0  0  2  0  0  3  0  0  0  0  0  0
  160.5330  213.3660  143.0700 C   0  0  2  0  0  0  0  0  0  0  0  0
  161.0230  213.2690  144.3890 O   0  0  0  0  0  0  0  0  0  0  0  0
  161.4570  214.0170  142.2660 F   0  0  0  0  0  0  0  0  0  0  0  0
  160.9460  210.1110  140.9570 O   0  0  0  0  0  0  0  0  0  0  0  0
  160.1230  211.9830  142.4980 C   0  0  1  0  0  0  0  0  0  0  0  0
  162.4990  211.8290  141.5580 O   0  0  0  0  0  1  0  0  0  0  0  0
  161.2340  211.2660  141.7240 C   0  0  1  0  0  0  0  0  0  0  0  0
  160.4130  211.3100  140.4560 C   0  0  2  0  0  0  0  0  0  0  0  0
  159.6370  211.1190  143.4900 O   0  0  0  0  0  1  0  0  0  0  0  0
  159.2350  211.9200  141.2330 C   0  0  2  0  0  3  0  0  0  0  0  0
  161.6600  213.2540  139.4060 N   0  0  0  0  0  2  0  0  0  0  0  0
  162.2150  213.8930  138.3580 O   0  0  0  0  0  1  0  0  0  0  0  0
  161.1420  211.9290  139.2820 C   0  0  0  0  0  0  0  0  0  0  0  0
  161.2460  211.3200  138.1880 O   0  0  0  0  0  0  0  0  0  0  0  0
  158.6330  213.1780  140.6320 C   0  0  0  0  0  0  0  0  0  0  0  0
  157.3860  213.2580  140.4190 O   0  0  0  0  0  1  0  0  0  0  0  0
  159.4780  214.1700  140.1090 O   0  0  0  0  0  0  0  0  0  0  0  0
  2 18  1  0  0  0  0
  4  5  2  0  0  0  0
  4 11  1  0  0  0  0
  5  9  1  0  0  0  0
  6  7  1  0  0  0  0
  6 17  1  0  0  0  0
  9  7  2  0  0  0  0
 11  6  2  0  0  0  0
 12 27  2  0  0  0  0
 12 14  1  0  0  0  0
 13  1  2  0  0  0  0
 14 22  2  0  0  0  0
 15 17  2  0  0  0  0
 15 33  1  0  0  0  0
 16  2  1  0  0  0  0
 18 19  1  0  0  0  0
 19  3  1  6  0  0  0
 19  8  1  0  0  0  0
 20 10  2  0  0  0  0
 21 25  1  1  0  0  0
 21 16  1  0  0  0  0
 22 10  1  0  0  0  0
 22  1  1  0  0  0  0
 23  8  1  1  0  0  0
 23 11  1  0  0  0  0
 23 24  1  0  0  0  0
 24 13  1  6  0  0  0
 24 15  1  0  0  0  0
 25 26  1  0  0  0  0
 26 12  1  0  0  0  0
 27 20  1  0  0  0  0
 28 32  1  0  0  0  0
 29 32  2  0  0  0  0
 29 34  1  0  0  0  0
 30 33  1  0  0  0  0
 30 31  2  0  0  0  0
 31 29  1  0  0  0  0
 33 28  2  0  0  0  0
 34 35  1  0  0  0  0
 34 36  1  0  0  0  0
 38 37  1  6  0  0  0
 38 21  1  0  0  0  0
 39 41  1  6  0  0  0
 39 37  1  0  0  0  0
 39 40  1  0  0  0  0
 40 38  1  0  0  0  0
 42 45  1  0  0  0  0
 43 39  1  0  0  0  0
 43 47  1  1  0  0  0
 45 44  1  1  0  0  0
 45 43  1  0  0  0  0
 46 51  1  6  0  0  0
 46 42  1  0  0  0  0
 46 48  1  0  0  0  0
 46 45  1  0  0  0  0
 48 53  1  6  0  0  0
 48 43  1  0  0  0  0
 50 49  1  0  0  0  0
 51 49  1  0  0  0  0
 52 51  2  0  0  0  0
 54 53  1  0  0  0  0
 55 53  2  0  0  0  0
M  END
>  <MODEL>
1

>  <REMARK>
 VINA RESULT:       1.1      0.000      0.000
  Name = 
  6 active torsions:
  status: ('A' for Active; 'I' for Inactive)
    1  A    between atoms: C_1  and  C_53
    2  A    between atoms: C_6  and  C_20
    3  A    between atoms: C_8  and  C_43
    4  A    between atoms: N_10  and  C_32
    5  A    between atoms: C_29  and  C_38
    6  A    between atoms: C_33  and  C_52
                            x       y       z     vdW  Elec       q    Type
                         _______ _______ _______ _____ _____    ______ ____

>  <TORSDO>
F 6

$$$$
=
 OpenBabel11052410233D

 55 62  0  0  1  0  0  0  0  0999 V2000
  160.9620  207.1980  148.3050 C   0  0  0  0  0  3  0  0  0  0  0  0
  161.3500  207.1430  152.9430 C   0  0  0  0  0  2  0  0  0  0  0  0
  160.9310  204.0530  153.1330 O   0  0  0  0  0  1  0  0  0  0  0  0
  160.8420  201.5040  150.7180 C   0  0  0  0  0  3  0  0  0  0  0  0
  160.9930  200.1250  150.5160 C   0  0  0  0  0  3  0  0  0  0  0  0
  161.3970  201.9060  148.3920 C   0  0  0  0  0  0  0  0  0  0  0  0
  161.5510  200.5370  148.1930 C   0  0  0  0  0  3  0  0  0  0  0  0
  160.1360  204.2600  150.9560 N   0  0  0  0  0  2  0  0  0  0  0  0
  161.3500  199.6460  149.2530 C   0  0  0  0  0  3  0  0  0  0  0  0
  161.3940  209.5500  147.6700 C   0  0  0  0  0  3  0  0  0  0  0  0
  161.0370  202.4000  149.6560 C   0  0  0  0  0  0  0  0  0  0  0  0
  162.4820  210.1270  150.1630 C   0  0  0  0  0  0  0  0  0  0  0  0
  161.4030  206.0930  148.9030 C   0  0  0  0  0  3  0  0  0  0  0  0
  162.0290  208.8320  149.8860 C   0  0  0  0  0  3  0  0  0  0  0  0
  161.3590  204.0900  147.3440 C   0  0  0  0  0  0  0  0  0  0  0  0
  160.8220  208.5690  152.8890 C   0  0  0  0  0  2  0  0  0  0  0  0
  161.5780  202.8090  147.2970 N   0  0  0  0  0  0  0  0  0  0  0  0
  160.2960  206.2150  152.3750 C   0  0  0  0  0  2  0  0  0  0  0  0
  160.9280  204.8840  152.0070 C   0  0  1  0  0  3  0  0  0  0  0  0
  161.8530  210.8010  147.9510 N   0  0  0  0  0  0  0  0  0  0  0  0
  161.8140  209.5600  153.4790 C   0  0  1  0  0  3  0  0  0  0  0  0
  161.4840  208.5320  148.6250 C   0  0  0  0  0  0  0  0  0  0  0  0
  161.0630  203.8860  149.8930 C   0  0  1  0  0  3  0  0  0  0  0  0
  160.8110  204.7350  148.6280 C   0  0  1  0  0  3  0  0  0  0  0  0
  161.9380  210.7310  152.5010 C   0  0  0  0  0  2  0  0  0  0  0  0
  163.0580  210.4680  151.4970 C   0  0  0  0  0  2  0  0  0  0  0  0
  162.3880  211.1070  149.1680 C   0  0  0  0  0  3  0  0  0  0  0  0
  162.5970  204.7520  145.2840 C   0  0  0  0  0  3  0  0  0  0  0  0
  161.5870  206.1460  143.5650 C   0  0  0  0  0  0  0  0  0  0  0  0
  160.3230  205.5340  145.5570 C   0  0  0  0  0  3  0  0  0  0  0  0
  160.4060  206.1900  144.3250 C   0  0  0  0  0  3  0  0  0  0  0  0
  162.6790  205.4130  144.0540 C   0  0  0  0  0  3  0  0  0  0  0  0
  161.4260  204.8290  146.0600 C   0  0  0  0  0  0  0  0  0  0  0  0
  161.6740  206.8380  142.3020 N   0  0  0  0  0  0  0  0  0  0  0  0
  161.1470  208.1720  142.1450 C   0  0  0  0  0  1  0  0  0  0  0  0
  162.2520  206.1960  141.1310 C   0  0  0  0  0  1  0  0  0  0  0  0
  159.5660  209.3830  155.1670 S   0  0  0  0  0  0  0  0  0  0  0  0
  161.2460  210.0050  154.8260 C   0  0  2  0  0  3  0  0  0  0  0  0
  159.5810  211.2040  155.1450 C   0  0  2  0  0  0  0  0  0  0  0  0
  160.9380  211.3760  154.8020 O   0  0  0  0  0  0  0  0  0  0  0  0
  159.3400  211.7180  156.4100 F   0  0  0  0  0  0  0  0  0  0  0  0
  157.4180  213.9650  153.4330 O   0  0  0  0  0  0  0  0  0  0  0  0
  158.6300  211.8030  154.0740 C   0  0  1  0  0  0  0  0  0  0  0  0
  159.0490  214.0720  155.1800 O   0  0  0  0  0  1  0  0  0  0  0  0
  158.4250  213.3170  154.1880 C   0  0  1  0  0  0  0  0  0  0  0  0
  156.9500  213.1220  154.4540 C   0  0  2  0  0  0  0  0  0  0  0  0
  159.0430  211.5020  152.7670 O   0  0  0  0  0  1  0  0  0  0  0  0
  157.1030  211.6100  154.2260 C   0  0  2  0  0  3  0  0  0  0  0  0
  155.0760  213.7600  156.0410 N   0  0  0  0  0  2  0  0  0  0  0  0
  154.5780  214.4440  157.0890 O   0  0  0  0  0  1  0  0  0  0  0  0
  156.4660  213.8040  155.7170 C   0  0  0  0  0  0  0  0  0  0  0  0
  157.2560  214.4530  156.4470 O   0  0  0  0  0  0  0  0  0  0  0  0
  156.5270  210.7200  155.3130 C   0  0  0  0  0  0  0  0  0  0  0  0
  155.4880  210.0260  155.0950 O   0  0  0  0  0  0  0  0  0  0  0  0
  157.0110  210.8280  156.6260 O   0  0  0  0  0  1  0  0  0  0  0  0
  1 22  1  0  0  0  0
  1 13  2  0  0  0  0
  5  4  1  0  0  0  0
  6 11  1  0  0  0  0
  7  6  2  0  0  0  0
  7  9  1  0  0  0  0
  8 19  1  0  0  0  0
  9  5  2  0  0  0  0
 10 20  2  0  0  0  0
 10 22  1  0  0  0  0
 11  4  2  0  0  0  0
 12 26  1  0  0  0  0
 14 12  1  0  0  0  0
 15 24  1  0  0  0  0
 16  2  1  0  0  0  0
 16 21  1  0  0  0  0
 17 15  2  0  0  0  0
 17  6  1  0  0  0  0
 18  2  1  0  0  0  0
 19 18  1  0  0  0  0
 19  3  1  1  0  0  0
 20 27  1  0  0  0  0
 21 25  1  6  0  0  0
 21 38  1  0  0  0  0
 22 14  2  0  0  0  0
 23 11  1  6  0  0  0
 23  8  1  0  0  0  0
 24 13  1  1  0  0  0
 24 23  1  0  0  0  0
 26 25  1  0  0  0  0
 27 12  2  0  0  0  0
 28 33  1  0  0  0  0
 29 32  1  0  0  0  0
 29 31  2  0  0  0  0
 30 33  2  0  0  0  0
 31 30  1  0  0  0  0
 32 28  2  0  0  0  0
 33 15  1  0  0  0  0
 34 29  1  0  0  0  0
 35 34  1  0  0  0  0
 36 34  1  0  0  0  0
 38 40  1  6  0  0  0
 38 37  1  0  0  0  0
 39 37  1  0  0  0  0
 39 41  1  1  0  0  0
 40 39  1  0  0  0  0
 42 45  1  0  0  0  0
 42 46  1  0  0  0  0
 43 47  1  6  0  0  0
 43 45  1  0  0  0  0
 43 48  1  0  0  0  0
 43 39  1  0  0  0  0
 45 46  1  0  0  0  0
 45 44  1  1  0  0  0
 46 51  1  1  0  0  0
 48 46  1  0  0  0  0
 48 53  1  1  0  0  0
 49 50  1  0  0  0  0
 51 49  1  0  0  0  0
 51 52  2  0  0  0  0
 53 55  1  0  0  0  0
 54 53  2  0  0  0  0
M  END
>  <MODEL>
2

>  <REMARK>
 VINA RESULT:       2.5      6.317     11.405
  Name = 
  6 active torsions:
  status: ('A' for Active; 'I' for Inactive)
    1  A    between atoms: C_1  and  C_53
    2  A    between atoms: C_6  and  C_20
    3  A    between atoms: C_8  and  C_43
    4  A    between atoms: N_10  and  C_32
    5  A    between atoms: C_29  and  C_38
    6  A    between atoms: C_33  and  C_52
                            x       y       z     vdW  Elec       q    Type
                         _______ _______ _______ _____ _____    ______ ____

>  <TORSDO>
F 6

$$$$
