=
 OpenBabel11042422203D

 52 56  0  0  1  0  0  0  0  0999 V2000
  161.3420  209.4260  152.0840 C   0  0  2  0  0  3  0  0  0  0  0  0
  162.1510  208.6810  151.2250 O   0  0  0  0  0  1  0  0  0  0  0  0
  161.5820  210.8110  151.8620 O   0  0  0  0  0  0  0  0  0  0  0  0
  162.3100  210.9620  149.5360 C   0  0  0  0  0  3  0  0  0  0  0  0
  162.2190  211.5530  148.2770 C   0  0  0  0  0  3  0  0  0  0  0  0
  161.5100  211.4130  150.5980 C   0  0  0  0  0  0  0  0  0  0  0  0
  160.6200  212.4830  150.3900 C   0  0  0  0  0  0  0  0  0  0  0  0
  159.6270  214.1020  148.8620 O   0  0  0  0  0  1  0  0  0  0  0  0
  161.3240  212.6020  148.0630 C   0  0  0  0  0  3  0  0  0  0  0  0
  160.5210  213.0660  149.1070 C   0  0  0  0  0  0  0  0  0  0  0  0
  159.7570  212.9400  151.5370 C   0  0  1  0  0  3  0  0  0  0  0  0
  159.6860  214.4530  151.6260 C   0  0  0  0  0  1  0  0  0  0  0  0
  158.3590  212.3330  151.4840 C   0  0  0  0  0  2  0  0  0  0  0  0
  154.8960  214.1270  153.5270 C   0  0  0  0  0  2  0  0  0  0  0  0
  155.1630  214.0390  155.0180 C   0  0  0  0  0  2  0  0  0  0  0  0
  156.6750  214.1200  155.1830 C   0  0  2  0  0  3  0  0  0  0  0  0
  155.4480  214.4400  150.7330 O   0  0  0  0  0  0  0  0  0  0  0  0
  157.4300  213.2370  150.8180 N   0  0  0  0  0  2  0  0  0  0  0  0
  156.1750  213.9110  152.8830 N   0  0  0  0  0  0  0  0  0  0  0  0
  157.2840  213.8670  153.8140 C   0  0  0  0  0  2  0  0  0  0  0  0
  156.3240  213.8890  151.4550 C   0  0  0  0  0  0  0  0  0  0  0  0
  157.1800  213.1180  156.2120 C   0  0  0  0  0  2  0  0  0  0  0  0
  158.5880  213.0590  156.2100 O   0  0  0  0  0  0  0  0  0  0  0  0
  160.4710  211.4900  156.0750 C   0  0  0  0  0  1  0  0  0  0  0  0
  158.9960  211.7180  156.3850 C   0  0  0  0  0  3  0  0  0  0  0  0
  158.0960  210.7180  155.6680 C   0  0  0  0  0  1  0  0  0  0  0  0
  161.6640  209.0920  153.4660 N   0  0  0  0  0  2  0  0  0  0  0  0
  160.2140  207.9050  155.1890 C   0  0  0  0  0  2  0  0  0  0  0  0
  161.5720  207.2330  155.0540 C   0  0  0  0  0  2  0  0  0  0  0  0
  160.9320  207.8920  153.8550 C   0  0  0  0  0  0  0  0  0  0  0  0
  160.5570  206.8790  152.7870 C   0  0  0  0  0  2  0  0  0  0  0  0
  161.5130  205.7050  152.7960 C   0  0  0  0  0  2  0  0  0  0  0  0
  160.7950  204.4930  153.3480 C   0  0  0  0  0  2  0  0  0  0  0  0
  160.5520  203.4920  152.2380 C   0  0  0  0  0  2  0  0  0  0  0  0
  161.6200  203.6400  151.1720 C   0  0  0  0  0  2  0  0  0  0  0  0
  161.3940  202.7060  148.8380 C   0  0  0  0  0  0  0  0  0  0  0  0
  161.9920  205.7580  145.8240 O   0  0  0  0  0  1  0  0  0  0  0  0
  160.8230  205.5600  146.5740 C   0  0  1  0  0  3  0  0  0  0  0  0
  160.8690  200.3750  148.5640 O   0  0  0  0  0  1  0  0  0  0  0  0
  160.3410  203.2080  144.7700 O   0  0  0  0  0  1  0  0  0  0  0  0
  160.7930  201.6890  146.5620 C   0  0  1  0  0  3  0  0  0  0  0  0
  161.4530  201.4790  147.9400 C   0  0  1  0  0  3  0  0  0  0  0  0
  161.5030  202.5370  150.1690 C   0  0  0  0  0  3  0  0  0  0  0  0
  161.0930  203.0570  145.9360 C   0  0  2  0  0  3  0  0  0  0  0  0
  161.5740  204.0410  148.1480 C   0  0  2  0  0  3  0  0  0  0  0  0
  161.1950  200.6720  145.6930 O   0  0  0  0  0  1  0  0  0  0  0  0
  161.3090  205.1870  148.9150 O   0  0  0  0  0  0  0  0  0  0  0  0
  160.6840  204.1160  146.9490 C   0  0  1  0  0  3  0  0  0  0  0  0
  160.9460  206.1810  147.9730 C   0  0  1  0  0  3  0  0  0  0  0  0
  161.4400  208.5150  147.7080 O   0  0  0  0  0  0  0  0  0  0  0  0
  161.8540  207.3730  148.0420 C   0  0  0  0  0  0  0  0  0  0  0  0
  163.1470  207.2240  148.5240 O   0  0  0  0  0  1  0  0  0  0  0  0
  1  2  1  6  0  0  0
  1 27  1  0  0  0  0
  3  1  1  0  0  0  0
  4  6  1  0  0  0  0
  5  4  2  0  0  0  0
  6  3  1  0  0  0  0
  7  6  2  0  0  0  0
  7 11  1  0  0  0  0
  8 10  1  0  0  0  0
  9  5  1  0  0  0  0
  9 10  2  0  0  0  0
 10  7  1  0  0  0  0
 11 12  1  6  0  0  0
 13 11  1  0  0  0  0
 14 15  1  0  0  0  0
 15 16  1  0  0  0  0
 16 22  1  1  0  0  0
 17 21  2  0  0  0  0
 18 21  1  0  0  0  0
 18 13  1  0  0  0  0
 19 14  1  0  0  0  0
 19 20  1  0  0  0  0
 20 16  1  0  0  0  0
 21 19  1  0  0  0  0
 23 22  1  0  0  0  0
 23 25  1  0  0  0  0
 24 25  1  0  0  0  0
 26 25  1  0  0  0  0
 27 30  1  0  0  0  0
 29 28  1  0  0  0  0
 30 29  1  0  0  0  0
 30 28  1  0  0  0  0
 31 32  1  0  0  0  0
 31 30  1  0  0  0  0
 32 33  1  0  0  0  0
 34 33  1  0  0  0  0
 35 34  1  0  0  0  0
 36 43  2  0  0  0  0
 38 37  1  6  0  0  0
 38 48  1  0  0  0  0
 38 49  1  0  0  0  0
 41 46  1  6  0  0  0
 41 42  1  0  0  0  0
 42 39  1  1  0  0  0
 42 36  1  0  0  0  0
 43 35  1  0  0  0  0
 44 40  1  6  0  0  0
 44 41  1  0  0  0  0
 44 48  1  0  0  0  0
 45 36  1  1  0  0  0
 45 47  1  0  0  0  0
 48 45  1  0  0  0  0
 49 51  1  0  0  0  0
 49 47  1  0  0  0  0
 50 51  2  0  0  0  0
 51 52  1  0  0  0  0
M  END
>  <MODEL>
1

>  <REMARK>
 VINA RESULT:      -5.5      0.000      0.000
  Name = 
  17 active torsions:
  status: ('A' for Active; 'I' for Inactive)
    1  A    between atoms: O_1  and  C_8
    2  A    between atoms: O_1  and  C_26
    3  A    between atoms: O_7  and  C_9
    4  A    between atoms: O_7  and  C_23
    5  A    between atoms: C_8  and  N_40
    6  A    between atoms: C_9  and  C_12
    7  A    between atoms: C_10  and  C_31
    8  A    between atoms: C_10  and  C_39
    9  A    between atoms: C_16  and  C_18
   10  A    between atoms: C_16  and  N_35
   11  A    between atoms: C_18  and  C_28
   12  A    between atoms: C_20  and  C_39
   13  A    between atoms: C_20  and  C_43
   14  A    between atoms: C_29  and  C_31
   15  A    between atoms: C_34  and  C_48
   16  A    between atoms: N_40  and  C_44
   17  A    between atoms: C_43  and  C_44
                            x       y       z     vdW  Elec       q    Type
                         _______ _______ _______ _____ _____    ______ ____

>  <TORSDO>
F 17

$$$$
=
 OpenBabel11042422203D

 52 56  0  0  1  0  0  0  0  0999 V2000
  160.8420  208.6650  154.9940 C   0  0  2  0  0  3  0  0  0  0  0  0
  161.8890  208.3410  155.8580 O   0  0  0  0  0  1  0  0  0  0  0  0
  160.9330  207.8530  153.8290 O   0  0  0  0  0  0  0  0  0  0  0  0
  160.9800  209.7090  152.2430 C   0  0  0  0  0  3  0  0  0  0  0  0
  161.2870  210.2120  150.9800 C   0  0  0  0  0  3  0  0  0  0  0  0
  161.2210  208.3620  152.5550 C   0  0  0  0  0  0  0  0  0  0  0  0
  161.7640  207.5090  151.5750 C   0  0  0  0  0  0  0  0  0  0  0  0
  162.6570  207.2210  149.3260 O   0  0  0  0  0  1  0  0  0  0  0  0
  161.8430  209.3740  150.0130 C   0  0  0  0  0  3  0  0  0  0  0  0
  162.0880  208.0300  150.3030 C   0  0  0  0  0  0  0  0  0  0  0  0
  162.0330  206.0720  151.9360 C   0  0  1  0  0  3  0  0  0  0  0  0
  162.0390  205.8570  153.4390 C   0  0  0  0  0  1  0  0  0  0  0  0
  161.0620  205.1150  151.2550 C   0  0  0  0  0  2  0  0  0  0  0  0
  160.1090  201.3190  149.2360 C   0  0  0  0  0  2  0  0  0  0  0  0
  160.3380  201.5340  147.7520 C   0  0  0  0  0  2  0  0  0  0  0  0
  161.4510  202.5670  147.6400 C   0  0  2  0  0  3  0  0  0  0  0  0
  160.5140  201.5750  152.0610 O   0  0  0  0  0  0  0  0  0  0  0  0
  161.0230  203.8360  151.9530 N   0  0  0  0  0  2  0  0  0  0  0  0
  160.7900  202.4100  149.9040 N   0  0  0  0  0  0  0  0  0  0  0  0
  161.5910  203.2170  149.0060 C   0  0  0  0  0  2  0  0  0  0  0  0
  160.7740  202.5690  151.3300 C   0  0  0  0  0  0  0  0  0  0  0  0
  161.1520  203.5960  146.5600 C   0  0  0  0  0  2  0  0  0  0  0  0
  161.5250  204.8890  146.9790 O   0  0  0  0  0  0  0  0  0  0  0  0
  160.3530  206.7260  145.8490 C   0  0  0  0  0  1  0  0  0  0  0  0
  161.5280  205.7560  145.8630 C   0  0  0  0  0  3  0  0  0  0  0  0
  161.6860  205.0240  144.5350 C   0  0  0  0  0  1  0  0  0  0  0  0
  160.9400  210.0700  154.6170 N   0  0  0  0  0  2  0  0  0  0  0  0
  159.5850  210.2790  156.7630 C   0  0  0  0  0  2  0  0  0  0  0  0
  158.6790  210.1550  155.5470 C   0  0  0  0  0  2  0  0  0  0  0  0
  160.0130  210.8520  155.4270 C   0  0  0  0  0  0  0  0  0  0  0  0
  159.8520  212.3340  155.1380 C   0  0  0  0  0  2  0  0  0  0  0  0
  158.4730  212.6320  154.5890 C   0  0  0  0  0  2  0  0  0  0  0  0
  158.6050  213.5830  153.4200 C   0  0  0  0  0  2  0  0  0  0  0  0
  159.0400  212.8210  152.1850 C   0  0  0  0  0  2  0  0  0  0  0  0
  159.2680  213.7880  151.0400 C   0  0  0  0  0  2  0  0  0  0  0  0
  158.0430  213.8320  148.8340 C   0  0  0  0  0  0  0  0  0  0  0  0
  160.6440  212.7800  145.5350 O   0  0  0  0  0  1  0  0  0  0  0  0
  160.5930  214.0250  146.1780 C   0  0  1  0  0  3  0  0  0  0  0  0
  155.7190  214.4510  148.8060 O   0  0  0  0  0  1  0  0  0  0  0  0
  158.0450  214.4520  144.6480 O   0  0  0  0  0  1  0  0  0  0  0  0
  156.7590  214.2600  146.6560 C   0  0  1  0  0  3  0  0  0  0  0  0
  156.7070  213.7500  148.1110 C   0  0  1  0  0  3  0  0  0  0  0  0
  158.0470  213.8640  150.1800 C   0  0  0  0  0  3  0  0  0  0  0  0
  158.0190  213.8280  145.8960 C   0  0  2  0  0  3  0  0  0  0  0  0
  159.2660  213.5150  148.0030 C   0  0  2  0  0  3  0  0  0  0  0  0
  155.6210  213.8290  145.9700 O   0  0  0  0  0  1  0  0  0  0  0  0
  160.5140  213.7920  148.5860 O   0  0  0  0  0  0  0  0  0  0  0  0
  159.2180  214.2770  146.7170 C   0  0  1  0  0  3  0  0  0  0  0  0
  161.3880  214.0080  147.4910 C   0  0  1  0  0  3  0  0  0  0  0  0
  163.2280  212.8600  146.4630 O   0  0  0  0  0  0  0  0  0  0  0  0
  162.5410  213.0480  147.5020 C   0  0  0  0  0  0  0  0  0  0  0  0
  162.8850  212.4010  148.6800 O   0  0  0  0  0  1  0  0  0  0  0  0
  1  2  1  1  0  0  0
  3  1  1  0  0  0  0
  4  6  1  0  0  0  0
  5  4  2  0  0  0  0
  6  3  1  0  0  0  0
  7 11  1  0  0  0  0
  7  6  2  0  0  0  0
  8 10  1  0  0  0  0
  9 10  2  0  0  0  0
  9  5  1  0  0  0  0
 10  7  1  0  0  0  0
 11 12  1  1  0  0  0
 13 11  1  0  0  0  0
 13 18  1  0  0  0  0
 14 19  1  0  0  0  0
 15 14  1  0  0  0  0
 16 22  1  6  0  0  0
 16 15  1  0  0  0  0
 16 20  1  0  0  0  0
 19 21  1  0  0  0  0
 20 19  1  0  0  0  0
 21 18  1  0  0  0  0
 21 17  2  0  0  0  0
 22 23  1  0  0  0  0
 24 25  1  0  0  0  0
 25 23  1  0  0  0  0
 26 25  1  0  0  0  0
 27  1  1  0  0  0  0
 27 30  1  0  0  0  0
 29 28  1  0  0  0  0
 30 29  1  0  0  0  0
 30 28  1  0  0  0  0
 31 30  1  0  0  0  0
 32 31  1  0  0  0  0
 33 32  1  0  0  0  0
 34 33  1  0  0  0  0
 35 34  1  0  0  0  0
 36 43  2  0  0  0  0
 38 37  1  1  0  0  0
 38 48  1  0  0  0  0
 38 49  1  0  0  0  0
 41 46  1  6  0  0  0
 41 42  1  0  0  0  0
 42 39  1  1  0  0  0
 42 36  1  0  0  0  0
 43 35  1  0  0  0  0
 44 40  1  6  0  0  0
 44 41  1  0  0  0  0
 44 48  1  0  0  0  0
 45 47  1  1  0  0  0
 45 36  1  0  0  0  0
 48 45  1  0  0  0  0
 49 51  1  0  0  0  0
 49 47  1  0  0  0  0
 50 51  2  0  0  0  0
 51 52  1  0  0  0  0
M  END
>  <MODEL>
2

>  <REMARK>
 VINA RESULT:      -5.4      2.665      9.711
  Name = 
  17 active torsions:
  status: ('A' for Active; 'I' for Inactive)
    1  A    between atoms: O_1  and  C_8
    2  A    between atoms: O_1  and  C_26
    3  A    between atoms: O_7  and  C_9
    4  A    between atoms: O_7  and  C_23
    5  A    between atoms: C_8  and  N_40
    6  A    between atoms: C_9  and  C_12
    7  A    between atoms: C_10  and  C_31
    8  A    between atoms: C_10  and  C_39
    9  A    between atoms: C_16  and  C_18
   10  A    between atoms: C_16  and  N_35
   11  A    between atoms: C_18  and  C_28
   12  A    between atoms: C_20  and  C_39
   13  A    between atoms: C_20  and  C_43
   14  A    between atoms: C_29  and  C_31
   15  A    between atoms: C_34  and  C_48
   16  A    between atoms: N_40  and  C_44
   17  A    between atoms: C_43  and  C_44
                            x       y       z     vdW  Elec       q    Type
                         _______ _______ _______ _____ _____    ______ ____

>  <TORSDO>
F 17

$$$$
=
 OpenBabel11042422203D

 52 56  0  0  1  0  0  0  0  0999 V2000
  161.6350  208.9930  151.9410 C   0  0  2  0  0  3  0  0  0  0  0  0
  162.4270  208.4160  150.9470 O   0  0  0  0  0  1  0  0  0  0  0  0
  161.8160  210.4040  151.9180 O   0  0  0  0  0  0  0  0  0  0  0  0
  162.2630  210.8810  149.5660 C   0  0  0  0  0  3  0  0  0  0  0  0
  162.0450  211.6550  148.4270 C   0  0  0  0  0  3  0  0  0  0  0  0
  161.6170  211.1880  150.7730 C   0  0  0  0  0  0  0  0  0  0  0  0
  160.7540  212.2980  150.8360 C   0  0  0  0  0  0  0  0  0  0  0  0
  159.6530  214.1490  149.6950 O   0  0  0  0  0  1  0  0  0  0  0  0
  161.1760  212.7440  148.4810 C   0  0  0  0  0  3  0  0  0  0  0  0
  160.5250  213.0670  149.6740 C   0  0  0  0  0  0  0  0  0  0  0  0
  160.0560  212.5990  152.1370 C   0  0  1  0  0  3  0  0  0  0  0  0
  159.2980  213.9130  152.0820 C   0  0  0  0  0  1  0  0  0  0  0  0
  159.1410  211.4620  152.5770 C   0  0  0  0  0  2  0  0  0  0  0  0
  157.1160  213.7550  155.7440 C   0  0  0  0  0  2  0  0  0  0  0  0
  155.9330  214.4530  155.1020 C   0  0  0  0  0  2  0  0  0  0  0  0
  155.4770  213.5520  153.9610 C   0  0  2  0  0  3  0  0  0  0  0  0
  159.0550  211.7040  156.2390 O   0  0  0  0  0  0  0  0  0  0  0  0
  159.3190  211.1780  153.9950 N   0  0  0  0  0  2  0  0  0  0  0  0
  157.5190  212.7210  154.8130 N   0  0  0  0  0  0  0  0  0  0  0  0
  156.6000  212.5620  153.7050 C   0  0  0  0  0  2  0  0  0  0  0  0
  158.6390  211.8570  155.0590 C   0  0  0  0  0  0  0  0  0  0  0  0
  155.1460  214.3560  152.7120 C   0  0  0  0  0  2  0  0  0  0  0  0
  156.1460  214.1990  151.7320 O   0  0  0  0  0  0  0  0  0  0  0  0
  154.1120  214.0930  150.3620 C   0  0  0  0  0  1  0  0  0  0  0  0
  155.5900  214.4530  150.4580 C   0  0  0  0  0  3  0  0  0  0  0  0
  156.4040  213.8530  149.3170 C   0  0  0  0  0  1  0  0  0  0  0  0
  162.0330  208.4720  153.2430 N   0  0  0  0  0  2  0  0  0  0  0  0
  160.3220  207.5620  154.8940 C   0  0  0  0  0  2  0  0  0  0  0  0
  161.5950  206.7280  154.9020 C   0  0  0  0  0  2  0  0  0  0  0  0
  161.1330  207.3900  153.6260 C   0  0  0  0  0  0  0  0  0  0  0  0
  160.7190  206.3710  152.5790 C   0  0  0  0  0  2  0  0  0  0  0  0
  161.5550  205.1130  152.6880 C   0  0  0  0  0  2  0  0  0  0  0  0
  160.6340  203.9220  152.8290 C   0  0  0  0  0  2  0  0  0  0  0  0
  160.2690  203.3910  151.4580 C   0  0  0  0  0  2  0  0  0  0  0  0
  161.5160  203.2800  150.6040 C   0  0  0  0  0  2  0  0  0  0  0  0
  161.1650  202.5700  148.2070 C   0  0  0  0  0  0  0  0  0  0  0  0
  161.8420  205.8410  145.4510 O   0  0  0  0  0  1  0  0  0  0  0  0
  160.6880  205.6400  146.2220 C   0  0  1  0  0  3  0  0  0  0  0  0
  160.5000  200.3050  147.7510 O   0  0  0  0  0  1  0  0  0  0  0  0
  160.0160  203.4880  144.2390 O   0  0  0  0  0  1  0  0  0  0  0  0
  160.4370  201.7930  145.8740 C   0  0  1  0  0  3  0  0  0  0  0  0
  161.1270  201.4260  147.2050 C   0  0  1  0  0  3  0  0  0  0  0  0
  161.3060  202.2780  149.5140 C   0  0  0  0  0  3  0  0  0  0  0  0
  160.7940  203.1930  145.3600 C   0  0  2  0  0  3  0  0  0  0  0  0
  161.3990  203.9490  147.6300 C   0  0  2  0  0  3  0  0  0  0  0  0
  160.7530  200.8370  144.9060 O   0  0  0  0  0  1  0  0  0  0  0  0
  161.2250  205.0350  148.5030 O   0  0  0  0  0  0  0  0  0  0  0  0
  160.4780  204.1790  146.4740 C   0  0  1  0  0  3  0  0  0  0  0  0
  160.8890  206.1270  147.6640 C   0  0  1  0  0  3  0  0  0  0  0  0
  163.0560  207.0360  148.1550 O   0  0  0  0  0  1  0  0  0  0  0  0
  161.8660  207.2570  147.8030 C   0  0  0  0  0  0  0  0  0  0  0  0
  161.4690  208.5510  147.4960 O   0  0  0  0  0  0  0  0  0  0  0  0
  1  2  1  6  0  0  0
  1 27  1  0  0  0  0
  3  1  1  0  0  0  0
  4  6  1  0  0  0  0
  5  9  1  0  0  0  0
  5  4  2  0  0  0  0
  6  7  2  0  0  0  0
  6  3  1  0  0  0  0
  7 11  1  0  0  0  0
  9 10  2  0  0  0  0
 10  8  1  0  0  0  0
 10  7  1  0  0  0  0
 11 12  1  6  0  0  0
 11 13  1  0  0  0  0
 13 18  1  0  0  0  0
 15 14  1  0  0  0  0
 16 22  1  6  0  0  0
 16 15  1  0  0  0  0
 18 21  1  0  0  0  0
 19 21  1  0  0  0  0
 19 14  1  0  0  0  0
 20 16  1  0  0  0  0
 20 19  1  0  0  0  0
 21 17  2  0  0  0  0
 23 22  1  0  0  0  0
 24 25  1  0  0  0  0
 25 23  1  0  0  0  0
 26 25  1  0  0  0  0
 27 30  1  0  0  0  0
 28 29  1  0  0  0  0
 30 28  1  0  0  0  0
 30 29  1  0  0  0  0
 31 32  1  0  0  0  0
 31 30  1  0  0  0  0
 32 33  1  0  0  0  0
 34 33  1  0  0  0  0
 35 34  1  0  0  0  0
 36 43  2  0  0  0  0
 38 37  1  6  0  0  0
 38 48  1  0  0  0  0
 38 49  1  0  0  0  0
 41 46  1  6  0  0  0
 41 42  1  0  0  0  0
 42 39  1  1  0  0  0
 42 36  1  0  0  0  0
 43 35  1  0  0  0  0
 44 40  1  6  0  0  0
 44 41  1  0  0  0  0
 44 48  1  0  0  0  0
 45 36  1  1  0  0  0
 45 47  1  0  0  0  0
 48 45  1  0  0  0  0
 49 51  1  0  0  0  0
 49 47  1  0  0  0  0
 51 50  1  0  0  0  0
 52 51  2  0  0  0  0
M  END
>  <MODEL>
3

>  <REMARK>
 VINA RESULT:      -4.8      1.058      2.680
  Name = 
  17 active torsions:
  status: ('A' for Active; 'I' for Inactive)
    1  A    between atoms: O_1  and  C_8
    2  A    between atoms: O_1  and  C_26
    3  A    between atoms: O_7  and  C_9
    4  A    between atoms: O_7  and  C_23
    5  A    between atoms: C_8  and  N_40
    6  A    between atoms: C_9  and  C_12
    7  A    between atoms: C_10  and  C_31
    8  A    between atoms: C_10  and  C_39
    9  A    between atoms: C_16  and  C_18
   10  A    between atoms: C_16  and  N_35
   11  A    between atoms: C_18  and  C_28
   12  A    between atoms: C_20  and  C_39
   13  A    between atoms: C_20  and  C_43
   14  A    between atoms: C_29  and  C_31
   15  A    between atoms: C_34  and  C_48
   16  A    between atoms: N_40  and  C_44
   17  A    between atoms: C_43  and  C_44
                            x       y       z     vdW  Elec       q    Type
                         _______ _______ _______ _____ _____    ______ ____

>  <TORSDO>
F 17

$$$$
=
 OpenBabel11042422203D

 52 56  0  0  1  0  0  0  0  0999 V2000
  160.8390  209.4640  152.8190 C   0  0  2  0  0  3  0  0  0  0  0  0
  160.8970  208.5500  151.7660 O   0  0  0  0  0  1  0  0  0  0  0  0
  161.0440  210.7760  152.3060 O   0  0  0  0  0  0  0  0  0  0  0  0
  162.2540  210.2190  150.2600 C   0  0  0  0  0  3  0  0  0  0  0  0
  162.5490  210.4760  148.9220 C   0  0  0  0  0  3  0  0  0  0  0  0
  161.3610  211.0390  150.9660 C   0  0  0  0  0  0  0  0  0  0  0  0
  160.7690  212.1410  150.3190 C   0  0  0  0  0  0  0  0  0  0  0  0
  160.4660  213.4450  148.2820 O   0  0  0  0  0  1  0  0  0  0  0  0
  161.9500  211.5560  148.2720 C   0  0  0  0  0  3  0  0  0  0  0  0
  161.0600  212.3850  148.9580 C   0  0  0  0  0  0  0  0  0  0  0  0
  159.7980  212.9970  151.0890 C   0  0  1  0  0  3  0  0  0  0  0  0
  159.8730  214.4530  150.6710 C   0  0  0  0  0  1  0  0  0  0  0  0
  158.3690  212.4760  150.9930 C   0  0  0  0  0  2  0  0  0  0  0  0
  154.5490  214.3060  152.1950 C   0  0  0  0  0  2  0  0  0  0  0  0
  154.5200  214.3220  153.7120 C   0  0  0  0  0  2  0  0  0  0  0  0
  155.9690  214.4530  154.1620 C   0  0  2  0  0  3  0  0  0  0  0  0
  155.6330  214.4530  149.5470 O   0  0  0  0  0  0  0  0  0  0  0  0
  157.5760  213.3100  150.0990 N   0  0  0  0  0  2  0  0  0  0  0  0
  155.9320  214.0820  151.8280 N   0  0  0  0  0  0  0  0  0  0  0  0
  156.8370  214.1280  152.9580 C   0  0  0  0  0  2  0  0  0  0  0  0
  156.3570  213.9730  150.4620 C   0  0  0  0  0  0  0  0  0  0  0  0
  156.2750  213.5330  155.3350 C   0  0  0  0  0  2  0  0  0  0  0  0
  156.7940  212.3020  154.8880 O   0  0  0  0  0  0  0  0  0  0  0  0
  157.9020  212.5320  157.0660 C   0  0  0  0  0  1  0  0  0  0  0  0
  157.9420  211.9790  155.6460 C   0  0  0  0  0  3  0  0  0  0  0  0
  159.2470  212.3170  154.9340 C   0  0  0  0  0  1  0  0  0  0  0  0
  161.8790  209.1530  153.7920 N   0  0  0  0  0  2  0  0  0  0  0  0
  160.2950  208.4890  155.6720 C   0  0  0  0  0  2  0  0  0  0  0  0
  161.7450  208.4480  156.1310 C   0  0  0  0  0  2  0  0  0  0  0  0
  161.3960  208.1180  154.6990 C   0  0  0  0  0  0  0  0  0  0  0  0
  161.6760  206.6620  154.3710 C   0  0  0  0  0  2  0  0  0  0  0  0
  160.3870  205.9080  154.1180 C   0  0  0  0  0  2  0  0  0  0  0  0
  160.4790  205.2140  152.7770 C   0  0  0  0  0  2  0  0  0  0  0  0
  161.7160  205.6840  152.0410 C   0  0  0  0  0  2  0  0  0  0  0  0
  161.8350  204.9510  150.7190 C   0  0  0  0  0  2  0  0  0  0  0  0
  161.2110  205.4830  148.3320 C   0  0  0  0  0  0  0  0  0  0  0  0
  160.0950  201.9220  146.1350 O   0  0  0  0  0  1  0  0  0  0  0  0
  161.4040  202.3310  146.4290 C   0  0  1  0  0  3  0  0  0  0  0  0
  161.3330  207.7640  147.5790 O   0  0  0  0  0  1  0  0  0  0  0  0
  161.0100  204.3650  144.2560 O   0  0  0  0  0  1  0  0  0  0  0  0
  160.9490  206.1340  145.8650 C   0  0  1  0  0  3  0  0  0  0  0  0
  160.7260  206.5290  147.3400 C   0  0  1  0  0  3  0  0  0  0  0  0
  161.4990  205.8710  149.5890 C   0  0  0  0  0  3  0  0  0  0  0  0
  160.6430  204.6600  145.5690 C   0  0  2  0  0  3  0  0  0  0  0  0
  160.9940  204.0400  147.9330 C   0  0  2  0  0  3  0  0  0  0  0  0
  160.1750  206.9530  145.0410 O   0  0  0  0  0  1  0  0  0  0  0  0
  161.6230  203.0660  148.7250 O   0  0  0  0  0  0  0  0  0  0  0  0
  161.4720  203.8240  146.5320 C   0  0  1  0  0  3  0  0  0  0  0  0
  161.7980  201.9530  147.8640 C   0  0  1  0  0  3  0  0  0  0  0  0
  161.5000  199.5790  148.0530 O   0  0  0  0  0  0  0  0  0  0  0  0
  161.1100  200.7280  148.3910 C   0  0  0  0  0  0  0  0  0  0  0  0
  160.0670  200.8620  149.2960 O   0  0  0  0  0  1  0  0  0  0  0  0
  1  2  1  6  0  0  0
  1 27  1  0  0  0  0
  3  1  1  0  0  0  0
  4  6  1  0  0  0  0
  5  4  2  0  0  0  0
  6  3  1  0  0  0  0
  7  6  2  0  0  0  0
  7 11  1  0  0  0  0
  8 10  1  0  0  0  0
  9  5  1  0  0  0  0
  9 10  2  0  0  0  0
 10  7  1  0  0  0  0
 11 12  1  6  0  0  0
 13 11  1  0  0  0  0
 14 15  1  0  0  0  0
 15 16  1  0  0  0  0
 16 22  1  1  0  0  0
 17 21  2  0  0  0  0
 18 21  1  0  0  0  0
 18 13  1  0  0  0  0
 19 14  1  0  0  0  0
 19 20  1  0  0  0  0
 20 16  1  0  0  0  0
 21 19  1  0  0  0  0
 23 22  1  0  0  0  0
 23 25  1  0  0  0  0
 25 24  1  0  0  0  0
 26 25  1  0  0  0  0
 27 30  1  0  0  0  0
 28 29  1  0  0  0  0
 30 28  1  0  0  0  0
 30 29  1  0  0  0  0
 31 30  1  0  0  0  0
 32 31  1  0  0  0  0
 33 32  1  0  0  0  0
 34 33  1  0  0  0  0
 35 34  1  0  0  0  0
 36 43  2  0  0  0  0
 38 37  1  1  0  0  0
 38 48  1  0  0  0  0
 38 49  1  0  0  0  0
 41 46  1  6  0  0  0
 41 42  1  0  0  0  0
 42 39  1  1  0  0  0
 42 36  1  0  0  0  0
 43 35  1  0  0  0  0
 44 40  1  6  0  0  0
 44 41  1  0  0  0  0
 44 48  1  0  0  0  0
 45 36  1  1  0  0  0
 45 47  1  0  0  0  0
 48 45  1  0  0  0  0
 49 51  1  0  0  0  0
 49 47  1  0  0  0  0
 50 51  2  0  0  0  0
 51 52  1  0  0  0  0
M  END
>  <MODEL>
4

>  <REMARK>
 VINA RESULT:      -4.7      1.228      2.980
  Name = 
  17 active torsions:
  status: ('A' for Active; 'I' for Inactive)
    1  A    between atoms: O_1  and  C_8
    2  A    between atoms: O_1  and  C_26
    3  A    between atoms: O_7  and  C_9
    4  A    between atoms: O_7  and  C_23
    5  A    between atoms: C_8  and  N_40
    6  A    between atoms: C_9  and  C_12
    7  A    between atoms: C_10  and  C_31
    8  A    between atoms: C_10  and  C_39
    9  A    between atoms: C_16  and  C_18
   10  A    between atoms: C_16  and  N_35
   11  A    between atoms: C_18  and  C_28
   12  A    between atoms: C_20  and  C_39
   13  A    between atoms: C_20  and  C_43
   14  A    between atoms: C_29  and  C_31
   15  A    between atoms: C_34  and  C_48
   16  A    between atoms: N_40  and  C_44
   17  A    between atoms: C_43  and  C_44
                            x       y       z     vdW  Elec       q    Type
                         _______ _______ _______ _____ _____    ______ ____

>  <TORSDO>
F 17

$$$$
=
 OpenBabel11042422203D

 52 56  0  0  1  0  0  0  0  0999 V2000
  160.4670  207.0700  154.2290 C   0  0  2  0  0  3  0  0  0  0  0  0
  161.2480  206.3080  155.0990 O   0  0  0  0  0  1  0  0  0  0  0  0
  160.6690  206.6080  152.8980 O   0  0  0  0  0  0  0  0  0  0  0  0
  160.9640  208.8350  151.9410 C   0  0  0  0  0  3  0  0  0  0  0  0
  161.3930  209.6550  150.8990 C   0  0  0  0  0  3  0  0  0  0  0  0
  161.0800  207.4390  151.8470 C   0  0  0  0  0  0  0  0  0  0  0  0
  161.6230  206.8650  150.6820 C   0  0  0  0  0  0  0  0  0  0  0  0
  162.6420  207.1680  148.4890 O   0  0  0  0  0  1  0  0  0  0  0  0
  161.9480  209.0900  149.7510 C   0  0  0  0  0  3  0  0  0  0  0  0
  162.0710  207.7030  149.6380 C   0  0  0  0  0  0  0  0  0  0  0  0
  161.7570  205.3660  150.6090 C   0  0  1  0  0  3  0  0  0  0  0  0
  162.5930  204.8170  151.7500 C   0  0  0  0  0  1  0  0  0  0  0  0
  160.4030  204.6690  150.5430 C   0  0  0  0  0  2  0  0  0  0  0  0
  160.2540  200.9840  148.1370 C   0  0  0  0  0  2  0  0  0  0  0  0
  160.6080  201.3670  146.7120 C   0  0  0  0  0  2  0  0  0  0  0  0
  161.5600  202.5510  146.8160 C   0  0  2  0  0  3  0  0  0  0  0  0
  160.3070  201.0270  151.0010 O   0  0  0  0  0  0  0  0  0  0  0  0
  160.4800  203.3370  151.1310 N   0  0  0  0  0  2  0  0  0  0  0  0
  160.6870  202.0920  148.9640 N   0  0  0  0  0  0  0  0  0  0  0  0
  161.4510  203.0830  148.2350 C   0  0  0  0  0  2  0  0  0  0  0  0
  160.4930  202.1120  150.3860 C   0  0  0  0  0  0  0  0  0  0  0  0
  161.2300  203.6260  145.7910 C   0  0  0  0  0  2  0  0  0  0  0  0
  162.3420  204.4590  145.5580 O   0  0  0  0  0  0  0  0  0  0  0  0
  160.7210  206.2630  145.9360 C   0  0  0  0  0  1  0  0  0  0  0  0
  161.8900  205.7240  145.1200 C   0  0  0  0  0  3  0  0  0  0  0  0
  161.6200  205.7800  143.6210 C   0  0  0  0  0  1  0  0  0  0  0  0
  160.8620  208.4710  154.3230 N   0  0  0  0  0  2  0  0  0  0  0  0
  160.1010  208.4370  156.7520 C   0  0  0  0  0  2  0  0  0  0  0  0
  158.9240  208.2710  155.8030 C   0  0  0  0  0  2  0  0  0  0  0  0
  160.1100  209.1120  155.3960 C   0  0  0  0  0  0  0  0  0  0  0  0
  159.7430  210.5800  155.2630 C   0  0  0  0  0  2  0  0  0  0  0  0
  158.8080  210.7990  154.0920 C   0  0  0  0  0  2  0  0  0  0  0  0
  159.6200  211.2120  152.8850 C   0  0  0  0  0  2  0  0  0  0  0  0
  159.4530  212.6970  152.6380 C   0  0  0  0  0  2  0  0  0  0  0  0
  159.1470  212.9410  151.1730 C   0  0  0  0  0  2  0  0  0  0  0  0
  160.4780  212.9990  149.0290 C   0  0  0  0  0  0  0  0  0  0  0  0
  158.0550  214.2750  145.6740 O   0  0  0  0  0  1  0  0  0  0  0  0
  158.0580  212.9950  146.2470 C   0  0  1  0  0  3  0  0  0  0  0  0
  162.7910  212.3450  149.0780 O   0  0  0  0  0  1  0  0  0  0  0  0
  160.6710  212.6130  144.8190 O   0  0  0  0  0  1  0  0  0  0  0  0
  161.8610  212.6730  146.8940 C   0  0  1  0  0  3  0  0  0  0  0  0
  161.8480  213.0990  148.3770 C   0  0  1  0  0  3  0  0  0  0  0  0
  160.4080  212.8930  150.3690 C   0  0  0  0  0  3  0  0  0  0  0  0
  160.6440  213.1660  146.1000 C   0  0  2  0  0  3  0  0  0  0  0  0
  159.3000  213.3820  148.1590 C   0  0  2  0  0  3  0  0  0  0  0  0
  163.0360  213.1220  146.2890 O   0  0  0  0  0  1  0  0  0  0  0  0
  158.0230  213.0930  148.6650 O   0  0  0  0  0  0  0  0  0  0  0  0
  159.4010  212.6920  146.8360 C   0  0  1  0  0  3  0  0  0  0  0  0
  157.1990  212.9530  147.5200 C   0  0  1  0  0  3  0  0  0  0  0  0
  155.5540  214.3120  148.6180 O   0  0  0  0  0  1  0  0  0  0  0  0
  156.0600  213.9290  147.5290 C   0  0  0  0  0  0  0  0  0  0  0  0
  155.5930  214.4520  146.3320 O   0  0  0  0  0  0  0  0  0  0  0  0
  1 27  1  0  0  0  0
  1  2  1  1  0  0  0
  3  1  1  0  0  0  0
  5  4  2  0  0  0  0
  6  4  1  0  0  0  0
  6  3  1  0  0  0  0
  7  6  2  0  0  0  0
  8 10  1  0  0  0  0
  9  5  1  0  0  0  0
 10  9  2  0  0  0  0
 10  7  1  0  0  0  0
 11  7  1  0  0  0  0
 11 12  1  1  0  0  0
 13 11  1  0  0  0  0
 13 18  1  0  0  0  0
 14 19  1  0  0  0  0
 15 16  1  0  0  0  0
 15 14  1  0  0  0  0
 16 22  1  6  0  0  0
 16 20  1  0  0  0  0
 19 21  1  0  0  0  0
 20 19  1  0  0  0  0
 21 17  2  0  0  0  0
 21 18  1  0  0  0  0
 23 22  1  0  0  0  0
 25 23  1  0  0  0  0
 25 24  1  0  0  0  0
 26 25  1  0  0  0  0
 27 30  1  0  0  0  0
 29 28  1  0  0  0  0
 30 29  1  0  0  0  0
 30 28  1  0  0  0  0
 31 30  1  0  0  0  0
 32 31  1  0  0  0  0
 33 32  1  0  0  0  0
 34 33  1  0  0  0  0
 35 34  1  0  0  0  0
 36 43  2  0  0  0  0
 38 37  1  1  0  0  0
 38 48  1  0  0  0  0
 38 49  1  0  0  0  0
 41 46  1  6  0  0  0
 41 42  1  0  0  0  0
 42 36  1  0  0  0  0
 42 39  1  1  0  0  0
 43 35  1  0  0  0  0
 44 40  1  6  0  0  0
 44 48  1  0  0  0  0
 44 41  1  0  0  0  0
 45 47  1  1  0  0  0
 45 36  1  0  0  0  0
 48 45  1  0  0  0  0
 49 51  1  0  0  0  0
 49 47  1  0  0  0  0
 51 50  1  0  0  0  0
 52 51  2  0  0  0  0
M  END
>  <MODEL>
5

>  <REMARK>
 VINA RESULT:      -4.7      2.698      9.671
  Name = 
  17 active torsions:
  status: ('A' for Active; 'I' for Inactive)
    1  A    between atoms: O_1  and  C_8
    2  A    between atoms: O_1  and  C_26
    3  A    between atoms: O_7  and  C_9
    4  A    between atoms: O_7  and  C_23
    5  A    between atoms: C_8  and  N_40
    6  A    between atoms: C_9  and  C_12
    7  A    between atoms: C_10  and  C_31
    8  A    between atoms: C_10  and  C_39
    9  A    between atoms: C_16  and  C_18
   10  A    between atoms: C_16  and  N_35
   11  A    between atoms: C_18  and  C_28
   12  A    between atoms: C_20  and  C_39
   13  A    between atoms: C_20  and  C_43
   14  A    between atoms: C_29  and  C_31
   15  A    between atoms: C_34  and  C_48
   16  A    between atoms: N_40  and  C_44
   17  A    between atoms: C_43  and  C_44
                            x       y       z     vdW  Elec       q    Type
                         _______ _______ _______ _____ _____    ______ ____

>  <TORSDO>
F 17

$$$$
=
 OpenBabel11042422203D

 52 56  0  0  1  0  0  0  0  0999 V2000
  160.9860  212.9320  144.7440 C   0  0  2  0  0  3  0  0  0  0  0  0
  161.5480  214.2010  144.8920 O   0  0  0  0  0  1  0  0  0  0  0  0
  160.9210  212.6110  143.3590 O   0  0  0  0  0  0  0  0  0  0  0  0
  163.0410  213.5920  142.6510 C   0  0  0  0  0  3  0  0  0  0  0  0
  163.8250  214.1980  141.6690 C   0  0  0  0  0  3  0  0  0  0  0  0
  161.7090  213.2380  142.3840 C   0  0  0  0  0  0  0  0  0  0  0  0
  161.1580  213.5120  141.1180 C   0  0  0  0  0  0  0  0  0  0  0  0
  161.4570  214.3630  138.8540 O   0  0  0  0  0  1  0  0  0  0  0  0
  163.2870  214.4530  140.4080 C   0  0  0  0  0  3  0  0  0  0  0  0
  161.9630  214.1100  140.1240 C   0  0  0  0  0  0  0  0  0  0  0  0
  159.7330  213.1060  140.8470 C   0  0  1  0  0  3  0  0  0  0  0  0
  159.0310  214.0870  139.9270 C   0  0  0  0  0  1  0  0  0  0  0  0
  159.6310  211.6850  140.3060 C   0  0  0  0  0  2  0  0  0  0  0  0
  158.5950  208.7300  137.2100 C   0  0  0  0  0  2  0  0  0  0  0  0
  159.8100  207.8420  137.0180 C   0  0  0  0  0  2  0  0  0  0  0  0
  160.5150  207.7900  138.3670 C   0  0  2  0  0  3  0  0  0  0  0  0
  156.6760  210.3650  138.5720 O   0  0  0  0  0  0  0  0  0  0  0  0
  158.2550  211.3680  139.9440 N   0  0  0  0  0  2  0  0  0  0  0  0
  158.8000  209.4140  138.4710 N   0  0  0  0  0  0  0  0  0  0  0  0
  159.9480  208.9230  139.2050 C   0  0  0  0  0  2  0  0  0  0  0  0
  157.8680  210.3750  138.9860 C   0  0  0  0  0  0  0  0  0  0  0  0
  162.0240  207.9100  138.2130 C   0  0  0  0  0  2  0  0  0  0  0  0
  162.3580  208.9270  137.2970 O   0  0  0  0  0  0  0  0  0  0  0  0
  162.2360  210.0390  139.4820 C   0  0  0  0  0  1  0  0  0  0  0  0
  162.5940  210.1280  138.0030 C   0  0  0  0  0  3  0  0  0  0  0  0
  161.9750  211.3490  137.3330 C   0  0  0  0  0  1  0  0  0  0  0  0
  159.6420  212.9270  145.3090 N   0  0  0  0  0  2  0  0  0  0  0  0
  158.4320  213.0840  147.5430 C   0  0  0  0  0  2  0  0  0  0  0  0
  159.1340  214.3900  147.2030 C   0  0  0  0  0  2  0  0  0  0  0  0
  159.7270  213.0750  146.7570 C   0  0  0  0  0  0  0  0  0  0  0  0
  161.0470  212.7870  147.4510 C   0  0  0  0  0  2  0  0  0  0  0  0
  160.8680  212.7300  148.9530 C   0  0  0  0  0  2  0  0  0  0  0  0
  161.5310  211.4770  149.4800 C   0  0  0  0  0  2  0  0  0  0  0  0
  161.4330  210.3730  148.4470 C   0  0  0  0  0  2  0  0  0  0  0  0
  162.4710  209.3060  148.7380 C   0  0  0  0  0  2  0  0  0  0  0  0
  161.8420  207.4280  150.3030 C   0  0  0  0  0  0  0  0  0  0  0  0
  161.6430  203.6240  148.2430 O   0  0  0  0  0  1  0  0  0  0  0  0
  160.6610  204.6250  148.2190 C   0  0  1  0  0  3  0  0  0  0  0  0
  161.4140  207.9350  152.6140 O   0  0  0  0  0  1  0  0  0  0  0  0
  159.9720  203.6950  150.9890 O   0  0  0  0  0  1  0  0  0  0  0  0
  160.8620  205.7060  151.9310 C   0  0  1  0  0  3  0  0  0  0  0  0
  161.7950  206.9190  151.7350 C   0  0  1  0  0  3  0  0  0  0  0  0
  162.2230  208.7010  150.0830 C   0  0  0  0  0  3  0  0  0  0  0  0
  160.9480  204.6740  150.7990 C   0  0  2  0  0  3  0  0  0  0  0  0
  161.8000  206.3710  149.2220 C   0  0  2  0  0  3  0  0  0  0  0  0
  161.1440  205.0930  153.1530 O   0  0  0  0  0  1  0  0  0  0  0  0
  161.6250  206.8230  147.9040 O   0  0  0  0  0  0  0  0  0  0  0  0
  160.6870  205.4100  149.4940 C   0  0  1  0  0  3  0  0  0  0  0  0
  161.0220  205.7360  147.2220 C   0  0  1  0  0  3  0  0  0  0  0  0
  161.4720  205.4850  144.8780 O   0  0  0  0  0  0  0  0  0  0  0  0
  161.8530  205.2770  146.0610 C   0  0  0  0  0  0  0  0  0  0  0  0
  163.0760  204.6630  146.2900 O   0  0  0  0  0  1  0  0  0  0  0  0
  1  2  1  6  0  0  0
  1 27  1  0  0  0  0
  3  1  1  0  0  0  0
  5  4  2  0  0  0  0
  6  4  1  0  0  0  0
  6  3  1  0  0  0  0
  7  6  2  0  0  0  0
  8 10  1  0  0  0  0
  9  5  1  0  0  0  0
 10  9  2  0  0  0  0
 10  7  1  0  0  0  0
 11 12  1  6  0  0  0
 11  7  1  0  0  0  0
 13 11  1  0  0  0  0
 14 19  1  0  0  0  0
 15 14  1  0  0  0  0
 15 16  1  0  0  0  0
 16 22  1  6  0  0  0
 16 20  1  0  0  0  0
 17 21  2  0  0  0  0
 18 13  1  0  0  0  0
 19 21  1  0  0  0  0
 19 20  1  0  0  0  0
 21 18  1  0  0  0  0
 23 25  1  0  0  0  0
 23 22  1  0  0  0  0
 25 24  1  0  0  0  0
 26 25  1  0  0  0  0
 27 30  1  0  0  0  0
 29 28  1  0  0  0  0
 30 29  1  0  0  0  0
 30 31  1  0  0  0  0
 30 28  1  0  0  0  0
 31 32  1  0  0  0  0
 32 33  1  0  0  0  0
 34 35  1  0  0  0  0
 34 33  1  0  0  0  0
 35 43  1  0  0  0  0
 36 42  1  0  0  0  0
 38 37  1  1  0  0  0
 38 48  1  0  0  0  0
 41 46  1  1  0  0  0
 42 41  1  0  0  0  0
 42 39  1  1  0  0  0
 43 36  2  0  0  0  0
 44 40  1  1  0  0  0
 44 41  1  0  0  0  0
 45 47  1  6  0  0  0
 45 48  1  0  0  0  0
 45 36  1  0  0  0  0
 48 44  1  0  0  0  0
 49 47  1  0  0  0  0
 49 38  1  0  0  0  0
 50 51  2  0  0  0  0
 51 52  1  0  0  0  0
 51 49  1  0  0  0  0
M  END
>  <MODEL>
6

>  <REMARK>
 VINA RESULT:      -4.3      6.279     10.681
  Name = 
  17 active torsions:
  status: ('A' for Active; 'I' for Inactive)
    1  A    between atoms: O_1  and  C_8
    2  A    between atoms: O_1  and  C_26
    3  A    between atoms: O_7  and  C_9
    4  A    between atoms: O_7  and  C_23
    5  A    between atoms: C_8  and  N_40
    6  A    between atoms: C_9  and  C_12
    7  A    between atoms: C_10  and  C_31
    8  A    between atoms: C_10  and  C_39
    9  A    between atoms: C_16  and  C_18
   10  A    between atoms: C_16  and  N_35
   11  A    between atoms: C_18  and  C_28
   12  A    between atoms: C_20  and  C_39
   13  A    between atoms: C_20  and  C_43
   14  A    between atoms: C_29  and  C_31
   15  A    between atoms: C_34  and  C_48
   16  A    between atoms: N_40  and  C_44
   17  A    between atoms: C_43  and  C_44
                            x       y       z     vdW  Elec       q    Type
                         _______ _______ _______ _____ _____    ______ ____

>  <TORSDO>
F 17

$$$$
=
 OpenBabel11042422203D

 52 56  0  0  1  0  0  0  0  0999 V2000
  160.5850  212.7560  144.1390 C   0  0  2  0  0  3  0  0  0  0  0  0
  160.6900  214.1470  144.1010 O   0  0  0  0  0  1  0  0  0  0  0  0
  160.7740  212.2400  142.8260 O   0  0  0  0  0  0  0  0  0  0  0  0
  162.6910  213.6100  142.1850 C   0  0  0  0  0  3  0  0  0  0  0  0
  163.4520  214.2380  141.2000 C   0  0  0  0  0  3  0  0  0  0  0  0
  161.5350  212.8900  141.8440 C   0  0  0  0  0  0  0  0  0  0  0  0
  161.1350  212.8160  140.4970 C   0  0  0  0  0  0  0  0  0  0  0  0
  161.5710  213.3560  138.1600 O   0  0  0  0  0  1  0  0  0  0  0  0
  163.0690  214.1500  139.8620 C   0  0  0  0  0  3  0  0  0  0  0  0
  161.9210  213.4400  139.5030 C   0  0  0  0  0  0  0  0  0  0  0  0
  159.9030  212.0220  140.1510 C   0  0  1  0  0  3  0  0  0  0  0  0
  159.2140  212.5580  138.9090 C   0  0  0  0  0  1  0  0  0  0  0  0
  160.1970  210.5330  140.0090 C   0  0  0  0  0  2  0  0  0  0  0  0
  163.0320  207.3550  138.8920 C   0  0  0  0  0  2  0  0  0  0  0  0
  163.1810  206.4460  140.0980 C   0  0  0  0  0  2  0  0  0  0  0  0
  161.8480  206.4950  140.8320 C   0  0  2  0  0  3  0  0  0  0  0  0
  161.7610  209.1020  137.0110 O   0  0  0  0  0  0  0  0  0  0  0  0
  160.5040  210.1980  138.6240 N   0  0  0  0  0  2  0  0  0  0  0  0
  161.8330  208.1320  139.1280 N   0  0  0  0  0  0  0  0  0  0  0  0
  161.0870  207.6930  140.2890 C   0  0  0  0  0  2  0  0  0  0  0  0
  161.3740  209.1370  138.2110 C   0  0  0  0  0  0  0  0  0  0  0  0
  162.0420  206.5930  142.3380 C   0  0  0  0  0  2  0  0  0  0  0  0
  161.2460  205.6450  143.0120 O   0  0  0  0  0  0  0  0  0  0  0  0
  162.5410  204.8470  144.9380 C   0  0  0  0  0  1  0  0  0  0  0  0
  161.4530  205.7710  144.4040 C   0  0  0  0  0  3  0  0  0  0  0  0
  160.1660  205.6740  145.2150 C   0  0  0  0  0  1  0  0  0  0  0  0
  159.2610  212.3820  144.6220 N   0  0  0  0  0  2  0  0  0  0  0  0
  157.7730  212.5850  146.6790 C   0  0  0  0  0  2  0  0  0  0  0  0
  158.0100  213.9420  146.0320 C   0  0  0  0  0  2  0  0  0  0  0  0
  159.0850  212.8830  145.9810 C   0  0  0  0  0  0  0  0  0  0  0  0
  160.3110  213.2830  146.7830 C   0  0  0  0  0  2  0  0  0  0  0  0
  159.9450  213.5630  148.2260 C   0  0  0  0  0  2  0  0  0  0  0  0
  160.5760  212.5070  149.1060 C   0  0  0  0  0  2  0  0  0  0  0  0
  161.0810  211.3630  148.2520 C   0  0  0  0  0  2  0  0  0  0  0  0
  162.2750  210.7120  148.9210 C   0  0  0  0  0  2  0  0  0  0  0  0
  161.8720  209.7540  151.2210 C   0  0  0  0  0  0  0  0  0  0  0  0
  161.8880  205.4230  151.1790 O   0  0  0  0  0  1  0  0  0  0  0  0
  160.8280  206.2460  150.7710 C   0  0  1  0  0  3  0  0  0  0  0  0
  161.5110  211.2590  153.0610 O   0  0  0  0  0  1  0  0  0  0  0  0
  160.3440  206.6840  153.7010 O   0  0  0  0  0  1  0  0  0  0  0  0
  161.1110  208.9440  153.5320 C   0  0  1  0  0  3  0  0  0  0  0  0
  161.9320  209.9710  152.7260 C   0  0  1  0  0  3  0  0  0  0  0  0
  162.1390  210.7930  150.4080 C   0  0  0  0  0  3  0  0  0  0  0  0
  161.2280  207.5090  153.0040 C   0  0  2  0  0  3  0  0  0  0  0  0
  161.8670  208.3130  150.7600 C   0  0  2  0  0  3  0  0  0  0  0  0
  161.4960  208.9890  154.8730 O   0  0  0  0  0  1  0  0  0  0  0  0
  161.5960  208.0880  149.4000 O   0  0  0  0  0  0  0  0  0  0  0  0
  160.8480  207.5360  151.5310 C   0  0  1  0  0  3  0  0  0  0  0  0
  161.0530  206.7800  149.3480 C   0  0  1  0  0  3  0  0  0  0  0  0
  162.8910  206.3050  147.8800 O   0  0  0  0  0  0  0  0  0  0  0  0
  161.8640  205.8740  148.4700 C   0  0  0  0  0  0  0  0  0  0  0  0
  161.5090  204.5390  148.3450 O   0  0  0  0  0  1  0  0  0  0  0  0
  1  2  1  6  0  0  0
  1 27  1  0  0  0  0
  3  1  1  0  0  0  0
  5  4  2  0  0  0  0
  6  4  1  0  0  0  0
  6  3  1  0  0  0  0
  7  6  2  0  0  0  0
  8 10  1  0  0  0  0
  9  5  1  0  0  0  0
 10  9  2  0  0  0  0
 10  7  1  0  0  0  0
 11 12  1  6  0  0  0
 11  7  1  0  0  0  0
 13 11  1  0  0  0  0
 14 19  1  0  0  0  0
 14 15  1  0  0  0  0
 15 16  1  0  0  0  0
 16 22  1  1  0  0  0
 17 21  2  0  0  0  0
 18 13  1  0  0  0  0
 19 20  1  0  0  0  0
 20 16  1  0  0  0  0
 21 18  1  0  0  0  0
 21 19  1  0  0  0  0
 22 23  1  0  0  0  0
 23 25  1  0  0  0  0
 25 24  1  0  0  0  0
 25 26  1  0  0  0  0
 27 30  1  0  0  0  0
 29 28  1  0  0  0  0
 30 29  1  0  0  0  0
 30 28  1  0  0  0  0
 30 31  1  0  0  0  0
 31 32  1  0  0  0  0
 32 33  1  0  0  0  0
 34 35  1  0  0  0  0
 34 33  1  0  0  0  0
 35 43  1  0  0  0  0
 36 42  1  0  0  0  0
 38 37  1  1  0  0  0
 38 48  1  0  0  0  0
 41 46  1  1  0  0  0
 42 39  1  6  0  0  0
 42 41  1  0  0  0  0
 43 36  2  0  0  0  0
 44 41  1  0  0  0  0
 44 40  1  1  0  0  0
 45 47  1  6  0  0  0
 45 36  1  0  0  0  0
 45 48  1  0  0  0  0
 48 44  1  0  0  0  0
 49 47  1  0  0  0  0
 49 38  1  0  0  0  0
 50 51  2  0  0  0  0
 51 49  1  0  0  0  0
 52 51  1  0  0  0  0
M  END
>  <MODEL>
7

>  <REMARK>
 VINA RESULT:      -3.9      5.637     10.798
  Name = 
  17 active torsions:
  status: ('A' for Active; 'I' for Inactive)
    1  A    between atoms: O_1  and  C_8
    2  A    between atoms: O_1  and  C_26
    3  A    between atoms: O_7  and  C_9
    4  A    between atoms: O_7  and  C_23
    5  A    between atoms: C_8  and  N_40
    6  A    between atoms: C_9  and  C_12
    7  A    between atoms: C_10  and  C_31
    8  A    between atoms: C_10  and  C_39
    9  A    between atoms: C_16  and  C_18
   10  A    between atoms: C_16  and  N_35
   11  A    between atoms: C_18  and  C_28
   12  A    between atoms: C_20  and  C_39
   13  A    between atoms: C_20  and  C_43
   14  A    between atoms: C_29  and  C_31
   15  A    between atoms: C_34  and  C_48
   16  A    between atoms: N_40  and  C_44
   17  A    between atoms: C_43  and  C_44
                            x       y       z     vdW  Elec       q    Type
                         _______ _______ _______ _____ _____    ______ ____

>  <TORSDO>
F 17

$$$$
=
 OpenBabel11042422203D

 52 56  0  0  1  0  0  0  0  0999 V2000
  161.1430  207.0830  153.8360 C   0  0  2  0  0  3  0  0  0  0  0  0
  162.4460  206.9350  153.3570 O   0  0  0  0  0  1  0  0  0  0  0  0
  160.2550  206.3560  152.9950 O   0  0  0  0  0  0  0  0  0  0  0  0
  160.6520  203.9480  153.0570 C   0  0  0  0  0  3  0  0  0  0  0  0
  160.9830  202.7600  152.4060 C   0  0  0  0  0  3  0  0  0  0  0  0
  160.6060  205.1610  152.3520 C   0  0  0  0  0  0  0  0  0  0  0  0
  160.9130  205.1780  150.9780 C   0  0  0  0  0  0  0  0  0  0  0  0
  161.5060  203.9470  148.9600 O   0  0  0  0  0  1  0  0  0  0  0  0
  161.2690  202.7710  151.0410 C   0  0  0  0  0  3  0  0  0  0  0  0
  161.2310  203.9680  150.3220 C   0  0  0  0  0  0  0  0  0  0  0  0
  160.8390  206.4870  150.2370 C   0  0  1  0  0  3  0  0  0  0  0  0
  162.1670  207.2200  150.2490 C   0  0  0  0  0  1  0  0  0  0  0  0
  160.3270  206.3140  148.8110 C   0  0  0  0  0  2  0  0  0  0  0  0
  162.7820  204.6660  145.5480 C   0  0  0  0  0  2  0  0  0  0  0  0
  162.2970  203.2510  145.2970 C   0  0  0  0  0  2  0  0  0  0  0  0
  160.8140  203.2440  145.6410 C   0  0  2  0  0  3  0  0  0  0  0  0
  162.6520  207.4520  146.2080 O   0  0  0  0  0  0  0  0  0  0  0  0
  161.0800  207.1530  147.8880 N   0  0  0  0  0  2  0  0  0  0  0  0
  161.7370  205.3120  146.3170 N   0  0  0  0  0  0  0  0  0  0  0  0
  160.5380  204.5080  146.4380 C   0  0  0  0  0  2  0  0  0  0  0  0
  161.8460  206.6670  146.7780 C   0  0  0  0  0  0  0  0  0  0  0  0
  160.4270  201.9960  146.4230 C   0  0  0  0  0  2  0  0  0  0  0  0
  160.4350  200.8580  145.5920 O   0  0  0  0  0  0  0  0  0  0  0  0
  161.1930  198.5240  145.5410 C   0  0  0  0  0  1  0  0  0  0  0  0
  161.3910  199.9370  146.0760 C   0  0  0  0  0  3  0  0  0  0  0  0
  161.5350  199.9630  147.5940 C   0  0  0  0  0  1  0  0  0  0  0  0
  160.7790  208.4940  153.8250 N   0  0  0  0  0  2  0  0  0  0  0  0
  161.3220  208.0890  156.2790 C   0  0  0  0  0  2  0  0  0  0  0  0
  159.8320  208.3200  156.0740 C   0  0  0  0  0  2  0  0  0  0  0  0
  160.8340  209.0170  155.1850 C   0  0  0  0  0  0  0  0  0  0  0  0
  160.8280  210.5210  155.3970 C   0  0  0  0  0  2  0  0  0  0  0  0
  160.0660  211.2200  154.2910 C   0  0  0  0  0  2  0  0  0  0  0  0
  159.8280  212.6590  154.6920 C   0  0  0  0  0  2  0  0  0  0  0  0
  158.9800  213.3490  153.6440 C   0  0  0  0  0  2  0  0  0  0  0  0
  158.9540  212.5170  152.3760 C   0  0  0  0  0  2  0  0  0  0  0  0
  157.9250  213.1560  150.1620 C   0  0  0  0  0  0  0  0  0  0  0  0
  160.5380  212.2010  146.8430 O   0  0  0  0  0  1  0  0  0  0  0  0
  160.6600  213.3090  147.6940 C   0  0  1  0  0  3  0  0  0  0  0  0
  155.7550  214.1940  150.1450 O   0  0  0  0  0  1  0  0  0  0  0  0
  158.3480  214.4530  146.1560 O   0  0  0  0  0  1  0  0  0  0  0  0
  156.9020  214.1720  148.0410 C   0  0  1  0  0  3  0  0  0  0  0  0
  156.6530  213.4460  149.3800 C   0  0  1  0  0  3  0  0  0  0  0  0
  157.8340  212.9620  151.4910 C   0  0  0  0  0  3  0  0  0  0  0  0
  158.1200  213.6460  147.2710 C   0  0  2  0  0  3  0  0  0  0  0  0
  159.1320  212.7590  149.3410 C   0  0  2  0  0  3  0  0  0  0  0  0
  155.7610  214.0820  147.2420 O   0  0  0  0  0  1  0  0  0  0  0  0
  160.3610  212.6970  150.0170 O   0  0  0  0  0  0  0  0  0  0  0  0
  159.3150  213.7200  148.2100 C   0  0  1  0  0  3  0  0  0  0  0  0
  161.3390  212.9250  149.0160 C   0  0  1  0  0  3  0  0  0  0  0  0
  162.0490  210.6760  149.4610 O   0  0  0  0  0  1  0  0  0  0  0  0
  162.3010  211.7790  148.9070 C   0  0  0  0  0  0  0  0  0  0  0  0
  163.4540  211.9200  148.1470 O   0  0  0  0  0  0  0  0  0  0  0  0
  1  2  1  6  0  0  0
  3  1  1  0  0  0  0
  5  4  1  0  0  0  0
  6  3  1  0  0  0  0
  6  4  2  0  0  0  0
  7  6  1  0  0  0  0
  8 10  1  0  0  0  0
  9  5  2  0  0  0  0
 10  7  2  0  0  0  0
 10  9  1  0  0  0  0
 11 12  1  6  0  0  0
 11  7  1  0  0  0  0
 13 11  1  0  0  0  0
 14 19  1  0  0  0  0
 15 14  1  0  0  0  0
 15 16  1  0  0  0  0
 16 22  1  1  0  0  0
 16 20  1  0  0  0  0
 17 21  2  0  0  0  0
 18 13  1  0  0  0  0
 19 20  1  0  0  0  0
 19 21  1  0  0  0  0
 21 18  1  0  0  0  0
 23 25  1  0  0  0  0
 23 22  1  0  0  0  0
 24 25  1  0  0  0  0
 25 26  1  0  0  0  0
 27  1  1  0  0  0  0
 27 30  1  0  0  0  0
 29 28  1  0  0  0  0
 30 31  1  0  0  0  0
 30 29  1  0  0  0  0
 30 28  1  0  0  0  0
 32 33  1  0  0  0  0
 32 31  1  0  0  0  0
 34 33  1  0  0  0  0
 35 34  1  0  0  0  0
 36 43  2  0  0  0  0
 38 37  1  6  0  0  0
 38 48  1  0  0  0  0
 38 49  1  0  0  0  0
 41 46  1  6  0  0  0
 41 42  1  0  0  0  0
 42 39  1  1  0  0  0
 42 36  1  0  0  0  0
 43 35  1  0  0  0  0
 44 40  1  6  0  0  0
 44 41  1  0  0  0  0
 44 48  1  0  0  0  0
 45 47  1  1  0  0  0
 45 36  1  0  0  0  0
 48 45  1  0  0  0  0
 49 47  1  0  0  0  0
 51 49  1  0  0  0  0
 51 50  1  0  0  0  0
 52 51  2  0  0  0  0
M  END
>  <MODEL>
8

>  <REMARK>
 VINA RESULT:      -3.8      2.415     10.089
  Name = 
  17 active torsions:
  status: ('A' for Active; 'I' for Inactive)
    1  A    between atoms: O_1  and  C_8
    2  A    between atoms: O_1  and  C_26
    3  A    between atoms: O_7  and  C_9
    4  A    between atoms: O_7  and  C_23
    5  A    between atoms: C_8  and  N_40
    6  A    between atoms: C_9  and  C_12
    7  A    between atoms: C_10  and  C_31
    8  A    between atoms: C_10  and  C_39
    9  A    between atoms: C_16  and  C_18
   10  A    between atoms: C_16  and  N_35
   11  A    between atoms: C_18  and  C_28
   12  A    between atoms: C_20  and  C_39
   13  A    between atoms: C_20  and  C_43
   14  A    between atoms: C_29  and  C_31
   15  A    between atoms: C_34  and  C_48
   16  A    between atoms: N_40  and  C_44
   17  A    between atoms: C_43  and  C_44
                            x       y       z     vdW  Elec       q    Type
                         _______ _______ _______ _____ _____    ______ ____

>  <TORSDO>
F 17

$$$$
=
 OpenBabel11042422203D

 52 56  0  0  1  0  0  0  0  0999 V2000
  162.4850  208.2240  149.9260 C   0  0  2  0  0  3  0  0  0  0  0  0
  162.7310  208.4740  148.5750 O   0  0  0  0  0  1  0  0  0  0  0  0
  162.4140  206.8180  150.1330 O   0  0  0  0  0  0  0  0  0  0  0  0
  162.3230  206.7390  152.5720 C   0  0  0  0  0  3  0  0  0  0  0  0
  161.8330  206.1660  153.7450 C   0  0  0  0  0  3  0  0  0  0  0  0
  161.9410  206.2360  151.3180 C   0  0  0  0  0  0  0  0  0  0  0  0
  161.0690  205.1340  151.2480 C   0  0  0  0  0  0  0  0  0  0  0  0
  159.6740  203.5030  152.4030 O   0  0  0  0  0  1  0  0  0  0  0  0
  160.9530  205.0860  153.6780 C   0  0  0  0  0  3  0  0  0  0  0  0
  160.5640  204.5700  152.4400 C   0  0  0  0  0  0  0  0  0  0  0  0
  160.6570  204.6220  149.8920 C   0  0  1  0  0  3  0  0  0  0  0  0
  160.1150  205.7310  149.0100 C   0  0  0  0  0  1  0  0  0  0  0  0
  161.7850  203.8730  149.1920 C   0  0  0  0  0  2  0  0  0  0  0  0
  159.7670  200.9910  146.5440 C   0  0  0  0  0  2  0  0  0  0  0  0
  159.6540  201.6440  145.1790 C   0  0  0  0  0  2  0  0  0  0  0  0
  160.8560  202.5690  145.0510 C   0  0  2  0  0  3  0  0  0  0  0  0
  160.8930  200.3130  149.0900 O   0  0  0  0  0  0  0  0  0  0  0  0
  161.7150  202.4470  149.4830 N   0  0  0  0  0  2  0  0  0  0  0  0
  160.7580  201.7600  147.2690 N   0  0  0  0  0  0  0  0  0  0  0  0
  161.4310  202.7440  146.4460 C   0  0  0  0  0  2  0  0  0  0  0  0
  161.1200  201.4640  148.6260 C   0  0  0  0  0  0  0  0  0  0  0  0
  160.4700  203.9060  144.4350 C   0  0  0  0  0  2  0  0  0  0  0  0
  161.6080  204.7070  144.2140 O   0  0  0  0  0  0  0  0  0  0  0  0
  162.4680  205.9240  146.1650 C   0  0  0  0  0  1  0  0  0  0  0  0
  161.5020  205.8860  144.9860 C   0  0  0  0  0  3  0  0  0  0  0  0
  160.0710  206.2040  145.4040 C   0  0  0  0  0  1  0  0  0  0  0  0
  161.2200  208.8380  150.3110 N   0  0  0  0  0  2  0  0  0  0  0  0
  162.2840  209.9640  152.3320 C   0  0  0  0  0  2  0  0  0  0  0  0
  160.7670  210.0690  152.3760 C   0  0  0  0  0  2  0  0  0  0  0  0
  161.4860  210.0680  151.0480 C   0  0  0  0  0  0  0  0  0  0  0  0
  161.3500  211.4000  150.3320 C   0  0  0  0  0  2  0  0  0  0  0  0
  162.6930  211.8790  149.8200 C   0  0  0  0  0  2  0  0  0  0  0  0
  162.7250  211.7320  148.3150 C   0  0  0  0  0  2  0  0  0  0  0  0
  161.6740  212.6270  147.6910 C   0  0  0  0  0  2  0  0  0  0  0  0
  162.2920  213.9600  147.3170 C   0  0  0  0  0  2  0  0  0  0  0  0
  161.5420  213.9780  144.9070 C   0  0  0  0  0  0  0  0  0  0  0  0
  157.2450  214.3940  144.5690 O   0  0  0  0  0  1  0  0  0  0  0  0
  157.9350  213.2150  144.8840 C   0  0  1  0  0  3  0  0  0  0  0  0
  163.1920  213.7420  143.1740 O   0  0  0  0  0  1  0  0  0  0  0  0
  158.6270  213.1120  141.9650 O   0  0  0  0  0  1  0  0  0  0  0  0
  160.9120  213.6320  142.4460 C   0  0  1  0  0  3  0  0  0  0  0  0
  161.9150  214.2300  143.4540 C   0  0  1  0  0  3  0  0  0  0  0  0
  162.5120  214.0290  145.8400 C   0  0  0  0  0  3  0  0  0  0  0  0
  159.4450  213.8070  142.8570 C   0  0  2  0  0  3  0  0  0  0  0  0
  160.0660  214.0430  145.2340 C   0  0  2  0  0  3  0  0  0  0  0  0
  161.1230  214.1970  141.1870 O   0  0  0  0  0  1  0  0  0  0  0  0
  159.6840  213.6040  146.5120 O   0  0  0  0  0  0  0  0  0  0  0  0
  159.2930  213.2210  144.2520 C   0  0  1  0  0  3  0  0  0  0  0  0
  158.3380  213.1840  146.3660 C   0  0  1  0  0  3  0  0  0  0  0  0
  156.2010  214.0910  146.9740 O   0  0  0  0  0  0  0  0  0  0  0  0
  157.4160  213.9440  147.2730 C   0  0  0  0  0  0  0  0  0  0  0  0
  157.8940  214.4470  148.4740 O   0  0  0  0  0  1  0  0  0  0  0  0
  1  2  1  6  0  0  0
  1  3  1  0  0  0  0
  1 27  1  0  0  0  0
  3  6  1  0  0  0  0
  4  5  1  0  0  0  0
  6  4  2  0  0  0  0
  7  6  1  0  0  0  0
  7 10  2  0  0  0  0
  8 10  1  0  0  0  0
  9  5  2  0  0  0  0
 10  9  1  0  0  0  0
 11 12  1  6  0  0  0
 11  7  1  0  0  0  0
 13 18  1  0  0  0  0
 13 11  1  0  0  0  0
 14 19  1  0  0  0  0
 15 14  1  0  0  0  0
 16 22  1  1  0  0  0
 16 15  1  0  0  0  0
 16 20  1  0  0  0  0
 19 21  1  0  0  0  0
 20 19  1  0  0  0  0
 21 17  2  0  0  0  0
 21 18  1  0  0  0  0
 23 22  1  0  0  0  0
 23 25  1  0  0  0  0
 25 26  1  0  0  0  0
 25 24  1  0  0  0  0
 27 30  1  0  0  0  0
 28 29  1  0  0  0  0
 30 28  1  0  0  0  0
 30 29  1  0  0  0  0
 31 30  1  0  0  0  0
 32 31  1  0  0  0  0
 33 32  1  0  0  0  0
 34 33  1  0  0  0  0
 35 34  1  0  0  0  0
 36 43  2  0  0  0  0
 38 37  1  1  0  0  0
 38 49  1  0  0  0  0
 41 46  1  6  0  0  0
 41 44  1  0  0  0  0
 41 42  1  0  0  0  0
 42 39  1  6  0  0  0
 42 36  1  0  0  0  0
 43 35  1  0  0  0  0
 44 40  1  6  0  0  0
 44 48  1  0  0  0  0
 45 36  1  6  0  0  0
 45 47  1  0  0  0  0
 48 38  1  0  0  0  0
 48 45  1  0  0  0  0
 49 47  1  0  0  0  0
 49 51  1  0  0  0  0
 50 51  2  0  0  0  0
 51 52  1  0  0  0  0
M  END
>  <MODEL>
9

>  <REMARK>
 VINA RESULT:      -3.3      3.481     10.555
  Name = 
  17 active torsions:
  status: ('A' for Active; 'I' for Inactive)
    1  A    between atoms: O_1  and  C_8
    2  A    between atoms: O_1  and  C_26
    3  A    between atoms: O_7  and  C_9
    4  A    between atoms: O_7  and  C_23
    5  A    between atoms: C_8  and  N_40
    6  A    between atoms: C_9  and  C_12
    7  A    between atoms: C_10  and  C_31
    8  A    between atoms: C_10  and  C_39
    9  A    between atoms: C_16  and  C_18
   10  A    between atoms: C_16  and  N_35
   11  A    between atoms: C_18  and  C_28
   12  A    between atoms: C_20  and  C_39
   13  A    between atoms: C_20  and  C_43
   14  A    between atoms: C_29  and  C_31
   15  A    between atoms: C_34  and  C_48
   16  A    between atoms: N_40  and  C_44
   17  A    between atoms: C_43  and  C_44
                            x       y       z     vdW  Elec       q    Type
                         _______ _______ _______ _____ _____    ______ ____

>  <TORSDO>
F 17

$$$$
