=
 OpenBabel11052411253D

 43 46  0  0  1  0  0  0  0  0999 V2000
  161.8750  208.6740  149.9840 C   0  0  2  0  0  3  0  0  0  0  0  0
  161.5600  207.7650  149.0610 C   0  0  0  0  0  3  0  0  0  0  0  0
  161.4420  211.8780  147.8300 C   0  0  0  0  0  0  0  0  0  0  0  0
  160.9670  212.0790  146.6350 N   0  0  0  0  0  0  0  0  0  0  0  0
  162.2700  210.9490  150.5030 O   0  0  0  0  0  0  0  0  0  0  0  0
  161.8820  210.1100  149.6460 C   0  0  0  0  0  0  0  0  0  0  0  0
  161.9620  213.0160  148.6490 C   0  0  0  0  0  1  0  0  0  0  0  0
  161.4460  210.5380  148.3380 N   0  0  0  0  0  2  0  0  0  0  0  0
  160.0830  212.2400  142.9350 C   0  0  0  0  0  1  0  0  0  0  0  0
  161.9770  213.3830  144.5260 S   0  0  0  0  0  0  0  0  0  0  0  0
  160.3600  213.5090  143.7110 C   0  0  2  0  0  3  0  0  0  0  0  0
  160.8850  213.3810  145.9810 C   0  0  1  0  0  3  0  0  0  0  0  0
  159.2700  213.5620  145.1620 S   0  0  0  0  0  0  0  0  0  0  0  0
  161.5440  206.3740  149.3820 N   0  0  0  0  0  0  0  0  0  0  0  0
  161.5950  205.3270  148.3770 C   0  0  1  0  0  3  0  0  0  0  0  0
  160.9540  203.9100  150.3060 O   0  0  0  0  0  0  0  0  0  0  0  0
  160.7100  201.9390  149.3690 C   0  0  0  0  0  3  0  0  0  0  0  0
  161.0350  202.8390  148.3710 C   0  0  0  0  0  3  0  0  0  0  0  0
  160.6720  202.6550  150.5560 C   0  0  0  0  0  3  0  0  0  0  0  0
  161.1720  204.0460  149.0220 C   0  0  0  0  0  0  0  0  0  0  0  0
  160.6730  205.6790  147.2080 C   0  0  0  0  0  2  0  0  0  0  0  0
  161.4240  205.6750  145.9180 C   0  0  0  0  0  0  0  0  0  0  0  0
  160.7060  205.7130  144.6840 N   0  0  0  0  0  2  0  0  0  0  0  0
  162.6800  205.5960  145.9220 O   0  0  0  0  0  0  0  0  0  0  0  0
  161.3770  205.6120  143.3980 C   0  0  0  0  0  1  0  0  0  0  0  0
  162.2290  208.2260  151.3780 C   0  0  0  0  0  2  0  0  0  0  0  0
  161.5360  208.8490  154.5840 C   0  0  2  0  0  3  0  0  0  0  0  0
  161.0310  206.9490  153.2320 C   0  0  0  0  0  2  0  0  0  0  0  0
  161.0890  209.3850  153.2410 C   0  0  0  0  0  2  0  0  0  0  0  0
  160.9930  207.4460  154.6640 C   0  0  0  0  0  2  0  0  0  0  0  0
  161.0200  208.1810  152.3230 C   0  0  1  0  0  3  0  0  0  0  0  0
  159.7180  210.1620  155.8160 C   0  0  0  0  0  0  0  0  0  0  0  0
  158.7750  209.3320  155.7790 O   0  0  0  0  0  0  0  0  0  0  0  0
  161.0700  209.7150  155.6600 N   0  0  0  0  0  2  0  0  0  0  0  0
  159.4730  211.6020  156.0680 C   0  0  0  0  0  0  0  0  0  0  0  0
  158.0990  213.6980  155.9540 C   0  0  0  0  0  2  0  0  0  0  0  0
  156.6420  213.8560  153.9010 N   0  0  0  0  0  0  0  0  0  0  0  0
  157.1230  213.5550  152.6770 O   0  0  0  0  0  1  0  0  0  0  0  0
  156.1040  212.6090  154.4800 C   0  0  0  0  0  2  0  0  0  0  0  0
  157.7540  214.4530  154.6670 C   0  0  0  0  0  2  0  0  0  0  0  0
  157.2180  211.6170  154.8570 C   0  0  0  0  0  2  0  0  0  0  0  0
  158.2610  212.2750  155.6470 N   0  0  0  0  0  0  0  0  0  0  0  0
  160.3870  212.2720  156.6410 O   0  0  0  0  0  0  0  0  0  0  0  0
  1  2  1  6  0  0  0
  1 26  1  0  0  0  0
  2 14  2  0  0  0  0
  3  8  1  0  0  0  0
  3  7  1  0  0  0  0
  4  3  2  0  0  0  0
  6  1  1  0  0  0  0
  6  5  2  0  0  0  0
  8  6  1  0  0  0  0
 10 12  1  0  0  0  0
 11  9  1  6  0  0  0
 11 10  1  0  0  0  0
 11 13  1  0  0  0  0
 12  4  1  6  0  0  0
 13 12  1  0  0  0  0
 15 21  1  6  0  0  0
 15 20  1  0  0  0  0
 15 14  1  0  0  0  0
 16 19  1  0  0  0  0
 17 19  2  0  0  0  0
 18 20  2  0  0  0  0
 18 17  1  0  0  0  0
 20 16  1  0  0  0  0
 22 24  2  0  0  0  0
 22 21  1  0  0  0  0
 23 22  1  0  0  0  0
 25 23  1  0  0  0  0
 27 30  1  0  0  0  0
 27 34  1  1  0  0  0
 28 30  1  0  0  0  0
 29 27  1  0  0  0  0
 31 26  1  6  0  0  0
 31 28  1  0  0  0  0
 31 29  1  0  0  0  0
 32 35  1  0  0  0  0
 33 32  2  0  0  0  0
 34 32  1  0  0  0  0
 35 43  2  0  0  0  0
 37 39  1  0  0  0  0
 37 40  1  0  0  0  0
 38 37  1  0  0  0  0
 39 41  1  0  0  0  0
 40 36  1  0  0  0  0
 41 42  1  0  0  0  0
 42 36  1  0  0  0  0
 42 35  1  0  0  0  0
M  END
>  <MODEL>
1

>  <REMARK>
 VINA RESULT:      -7.9      0.000      0.000
  Name = 
  11 active torsions:
  status: ('A' for Active; 'I' for Inactive)
    1  A    between atoms: C_1  and  C_11
    2  A    between atoms: C_6  and  C_23
    3  A    between atoms: C_7  and  C_11
    4  A    between atoms: C_7  and  N_13
    5  A    between atoms: C_7  and  C_38
    6  A    between atoms: C_8  and  N_40
    7  A    between atoms: N_10  and  C_24
    8  A    between atoms: N_13  and  C_43
    9  A    between atoms: C_17  and  C_32
   10  A    between atoms: C_17  and  C_37
   11  A    between atoms: C_36  and  C_37
                            x       y       z     vdW  Elec       q    Type
                         _______ _______ _______ _____ _____    ______ ____

>  <TORSDO>
F 11

$$$$
=
 OpenBabel11052411253D

 43 46  0  0  1  0  0  0  0  0999 V2000
  162.0120  208.4690  149.7770 C   0  0  0  0  0  0  0  0  0  0  0  0
  161.8350  207.6060  148.7770 C   0  0  0  0  0  3  0  0  0  0  0  0
  161.3580  211.7730  147.8410 C   0  0  0  0  0  0  0  0  0  0  0  0
  160.8580  212.0210  146.6650 N   0  0  0  0  0  0  0  0  0  0  0  0
  162.2710  210.7250  150.4420 O   0  0  0  0  0  0  0  0  0  0  0  0
  161.9260  209.9210  149.5340 C   0  0  0  0  0  0  0  0  0  0  0  0
  161.8150  212.8860  148.7290 C   0  0  0  0  0  1  0  0  0  0  0  0
  161.4500  210.4050  148.2600 N   0  0  0  0  0  2  0  0  0  0  0  0
  159.9040  212.3670  142.9950 C   0  0  0  0  0  1  0  0  0  0  0  0
  161.7530  213.5170  144.6330 S   0  0  0  0  0  0  0  0  0  0  0  0
  160.1190  213.5970  143.8490 C   0  0  2  0  0  3  0  0  0  0  0  0
  160.6880  213.3550  146.0980 C   0  0  1  0  0  3  0  0  0  0  0  0
  159.0520  213.4910  145.3140 S   0  0  0  0  0  0  0  0  0  0  0  0
  161.9090  206.1980  149.0050 N   0  0  0  0  0  2  0  0  0  0  0  0
  161.0610  205.2380  148.3220 C   0  0  1  0  0  3  0  0  0  0  0  0
  160.1520  206.2040  146.2290 O   0  0  0  0  0  0  0  0  0  0  0  0
  161.6450  205.5750  144.7450 C   0  0  0  0  0  3  0  0  0  0  0  0
  162.0670  205.1220  145.9820 C   0  0  0  0  0  3  0  0  0  0  0  0
  160.4470  206.2420  144.9530 C   0  0  0  0  0  3  0  0  0  0  0  0
  161.0940  205.5480  146.8600 C   0  0  0  0  0  0  0  0  0  0  0  0
  161.5600  203.8160  148.5890 C   0  0  0  0  0  2  0  0  0  0  0  0
  160.8900  203.2330  149.7880 C   0  0  0  0  0  0  0  0  0  0  0  0
  161.2640  203.6790  151.0920 N   0  0  0  0  0  2  0  0  0  0  0  0
  160.0310  202.3230  149.6480 O   0  0  0  0  0  0  0  0  0  0  0  0
  160.7190  203.0790  152.2980 C   0  0  0  0  0  1  0  0  0  0  0  0
  162.3060  207.9520  151.1620 C   0  0  0  0  0  2  0  0  0  0  0  0
  161.6330  208.2800  154.4150 C   0  0  2  0  0  3  0  0  0  0  0  0
  160.8890  206.6520  152.8370 C   0  0  0  0  0  2  0  0  0  0  0  0
  161.3020  209.0340  153.1460 C   0  0  0  0  0  2  0  0  0  0  0  0
  160.8890  206.9730  154.3190 C   0  0  0  0  0  2  0  0  0  0  0  0
  161.0800  207.9730  152.0860 C   0  0  1  0  0  3  0  0  0  0  0  0
  159.9550  209.5570  155.8640 C   0  0  0  0  0  0  0  0  0  0  0  0
  158.9730  208.7730  155.8180 O   0  0  0  0  0  0  0  0  0  0  0  0
  161.2720  209.0690  155.5860 N   0  0  0  0  0  2  0  0  0  0  0  0
  159.7920  210.9780  156.2490 C   0  0  0  0  0  0  0  0  0  0  0  0
  158.7480  213.2510  156.0550 C   0  0  0  0  0  2  0  0  0  0  0  0
  158.0350  213.8530  153.7100 N   0  0  0  0  0  0  0  0  0  0  0  0
  158.8440  213.6260  152.6550 O   0  0  0  0  0  1  0  0  0  0  0  0
  157.2170  212.6390  153.9050 C   0  0  0  0  0  2  0  0  0  0  0  0
  158.9050  214.1900  154.8550 C   0  0  0  0  0  2  0  0  0  0  0  0
  158.0470  211.4600  154.4400 C   0  0  0  0  0  2  0  0  0  0  0  0
  158.8510  211.8640  155.5950 N   0  0  0  0  0  0  0  0  0  0  0  0
  160.5430  211.4390  157.1640 O   0  0  0  0  0  0  0  0  0  0  0  0
  1 26  1  0  0  0  0
  2 14  1  0  0  0  0
  2  1  2  0  0  0  0
  3  8  1  0  0  0  0
  3  7  1  0  0  0  0
  4  3  2  0  0  0  0
  6  1  1  0  0  0  0
  6  5  2  0  0  0  0
  8  6  1  0  0  0  0
 10 12  1  0  0  0  0
 11  9  1  6  0  0  0
 11 10  1  0  0  0  0
 11 13  1  0  0  0  0
 12  4  1  6  0  0  0
 13 12  1  0  0  0  0
 15 21  1  6  0  0  0
 15 14  1  0  0  0  0
 16 20  1  0  0  0  0
 17 19  2  0  0  0  0
 17 18  1  0  0  0  0
 18 20  2  0  0  0  0
 19 16  1  0  0  0  0
 20 15  1  0  0  0  0
 21 22  1  0  0  0  0
 22 23  1  0  0  0  0
 23 25  1  0  0  0  0
 24 22  2  0  0  0  0
 27 34  1  1  0  0  0
 28 30  1  0  0  0  0
 29 27  1  0  0  0  0
 30 27  1  0  0  0  0
 31 26  1  6  0  0  0
 31 28  1  0  0  0  0
 31 29  1  0  0  0  0
 32 35  1  0  0  0  0
 33 32  2  0  0  0  0
 34 32  1  0  0  0  0
 35 43  2  0  0  0  0
 37 39  1  0  0  0  0
 37 40  1  0  0  0  0
 38 37  1  0  0  0  0
 39 41  1  0  0  0  0
 40 36  1  0  0  0  0
 41 42  1  0  0  0  0
 42 36  1  0  0  0  0
 42 35  1  0  0  0  0
M  END
>  <MODEL>
2

>  <REMARK>
 VINA RESULT:      -7.8      1.121      2.759
  Name = 
  11 active torsions:
  status: ('A' for Active; 'I' for Inactive)
    1  A    between atoms: C_1  and  C_11
    2  A    between atoms: C_6  and  C_23
    3  A    between atoms: C_7  and  C_11
    4  A    between atoms: C_7  and  N_13
    5  A    between atoms: C_7  and  C_38
    6  A    between atoms: C_8  and  N_40
    7  A    between atoms: N_10  and  C_24
    8  A    between atoms: N_13  and  C_43
    9  A    between atoms: C_17  and  C_32
   10  A    between atoms: C_17  and  C_37
   11  A    between atoms: C_36  and  C_37
                            x       y       z     vdW  Elec       q    Type
                         _______ _______ _______ _____ _____    ______ ____

>  <TORSDO>
F 11

$$$$
=
 OpenBabel11052411253D

 43 46  0  0  1  0  0  0  0  0999 V2000
  161.6460  206.1910  151.9940 C   0  0  0  0  0  0  0  0  0  0  0  0
  161.5140  204.9840  151.4440 C   0  0  0  0  0  3  0  0  0  0  0  0
  160.5420  208.2300  155.1120 C   0  0  0  0  0  0  0  0  0  0  0  0
  160.3840  209.5060  155.3190 N   0  0  0  0  0  0  0  0  0  0  0  0
  160.8930  205.4750  154.1210 O   0  0  0  0  0  0  0  0  0  0  0  0
  161.1480  206.4480  153.3590 C   0  0  0  0  0  0  0  0  0  0  0  0
  160.2870  207.2390  156.2020 C   0  0  0  0  0  1  0  0  0  0  0  0
  160.9610  207.8060  153.8080 N   0  0  0  0  0  2  0  0  0  0  0  0
  159.6190  213.2330  155.4610 C   0  0  0  0  0  1  0  0  0  0  0  0
  161.0490  211.4890  156.9900 S   0  0  0  0  0  0  0  0  0  0  0  0
  159.4940  212.3780  156.7030 C   0  0  2  0  0  3  0  0  0  0  0  0
  159.9540  210.0950  156.5830 C   0  0  1  0  0  3  0  0  0  0  0  0
  158.3850  210.9850  156.3510 S   0  0  0  0  0  0  0  0  0  0  0  0
  162.0000  204.7250  150.1270 N   0  0  0  0  0  2  0  0  0  0  0  0
  161.1690  204.1850  149.0660 C   0  0  1  0  0  3  0  0  0  0  0  0
  160.3770  205.5940  147.1880 O   0  0  0  0  0  0  0  0  0  0  0  0
  162.2470  206.0360  146.1230 C   0  0  0  0  0  3  0  0  0  0  0  0
  162.5670  205.2750  147.2330 C   0  0  0  0  0  3  0  0  0  0  0  0
  160.8700  206.2060  146.1400 C   0  0  0  0  0  3  0  0  0  0  0  0
  161.3590  205.0360  147.8510 C   0  0  0  0  0  0  0  0  0  0  0  0
  161.5600  202.7340  148.7820 C   0  0  0  0  0  2  0  0  0  0  0  0
  160.6220  202.1120  147.8010 C   0  0  0  0  0  0  0  0  0  0  0  0
  160.9960  202.0260  146.4250 N   0  0  0  0  0  2  0  0  0  0  0  0
  159.4920  201.7070  148.1800 O   0  0  0  0  0  0  0  0  0  0  0  0
  160.0860  201.5230  145.4090 C   0  0  0  0  0  1  0  0  0  0  0  0
  162.3050  207.2970  151.2110 C   0  0  0  0  0  2  0  0  0  0  0  0
  162.3010  210.0250  149.2870 C   0  0  2  0  0  3  0  0  0  0  0  0
  161.5360  209.7080  151.5240 C   0  0  0  0  0  2  0  0  0  0  0  0
  161.5760  208.6970  149.3080 C   0  0  0  0  0  2  0  0  0  0  0  0
  161.7980  210.7830  150.4880 C   0  0  0  0  0  2  0  0  0  0  0  0
  161.3230  208.3920  150.7710 C   0  0  1  0  0  3  0  0  0  0  0  0
  162.1070  212.1360  147.8540 C   0  0  0  0  0  0  0  0  0  0  0  0
  163.0900  212.7920  148.2820 O   0  0  0  0  0  0  0  0  0  0  0  0
  162.0670  210.7150  148.0240 N   0  0  0  0  0  2  0  0  0  0  0  0
  160.9950  212.7940  147.1270 C   0  0  0  0  0  0  0  0  0  0  0  0
  158.9120  214.1850  146.9960 C   0  0  0  0  0  2  0  0  0  0  0  0
  157.4020  213.9590  149.0060 N   0  0  0  0  0  0  0  0  0  0  0  0
  157.1170  212.7500  149.5320 O   0  0  0  0  0  1  0  0  0  0  0  0
  158.6220  214.4530  149.6770 C   0  0  0  0  0  2  0  0  0  0  0  0
  157.5440  213.7710  147.5480 C   0  0  0  0  0  2  0  0  0  0  0  0
  159.8740  213.6650  149.2580 C   0  0  0  0  0  2  0  0  0  0  0  0
  159.9620  213.5560  147.8000 N   0  0  0  0  0  0  0  0  0  0  0  0
  160.9330  212.6430  145.8680 O   0  0  0  0  0  0  0  0  0  0  0  0
  1  6  1  0  0  0  0
  2  1  2  0  0  0  0
  3  4  2  0  0  0  0
  3  7  1  0  0  0  0
  6  8  1  0  0  0  0
  6  5  2  0  0  0  0
  8  3  1  0  0  0  0
 11  9  1  6  0  0  0
 11 10  1  0  0  0  0
 12  4  1  6  0  0  0
 12 10  1  0  0  0  0
 13 12  1  0  0  0  0
 13 11  1  0  0  0  0
 14  2  1  0  0  0  0
 15 21  1  6  0  0  0
 15 14  1  0  0  0  0
 16 20  1  0  0  0  0
 17 19  2  0  0  0  0
 17 18  1  0  0  0  0
 18 20  2  0  0  0  0
 19 16  1  0  0  0  0
 20 15  1  0  0  0  0
 22 24  2  0  0  0  0
 22 21  1  0  0  0  0
 23 22  1  0  0  0  0
 25 23  1  0  0  0  0
 26  1  1  0  0  0  0
 27 34  1  6  0  0  0
 27 29  1  0  0  0  0
 27 30  1  0  0  0  0
 29 31  1  0  0  0  0
 30 28  1  0  0  0  0
 31 26  1  1  0  0  0
 31 28  1  0  0  0  0
 32 34  1  0  0  0  0
 32 33  2  0  0  0  0
 35 42  1  0  0  0  0
 35 32  1  0  0  0  0
 36 40  1  0  0  0  0
 36 42  1  0  0  0  0
 37 38  1  0  0  0  0
 37 39  1  0  0  0  0
 40 37  1  0  0  0  0
 41 39  1  0  0  0  0
 42 41  1  0  0  0  0
 43 35  2  0  0  0  0
M  END
>  <MODEL>
3

>  <REMARK>
 VINA RESULT:      -7.3      3.616      7.040
  Name = 
  11 active torsions:
  status: ('A' for Active; 'I' for Inactive)
    1  A    between atoms: C_1  and  C_11
    2  A    between atoms: C_6  and  C_23
    3  A    between atoms: C_7  and  C_11
    4  A    between atoms: C_7  and  N_13
    5  A    between atoms: C_7  and  C_38
    6  A    between atoms: C_8  and  N_40
    7  A    between atoms: N_10  and  C_24
    8  A    between atoms: N_13  and  C_43
    9  A    between atoms: C_17  and  C_32
   10  A    between atoms: C_17  and  C_37
   11  A    between atoms: C_36  and  C_37
                            x       y       z     vdW  Elec       q    Type
                         _______ _______ _______ _____ _____    ______ ____

>  <TORSDO>
F 11

$$$$
=
 OpenBabel11052411253D

 43 46  0  0  1  0  0  0  0  0999 V2000
  161.7680  209.8920  151.0070 C   0  0  2  0  0  3  0  0  0  0  0  0
  161.5760  208.6240  150.6420 C   0  0  0  0  0  3  0  0  0  0  0  0
  159.5560  211.2980  153.8740 C   0  0  0  0  0  0  0  0  0  0  0  0
  158.2920  211.6030  153.9420 N   0  0  0  0  0  0  0  0  0  0  0  0
  162.2780  210.3380  153.2740 O   0  0  0  0  0  0  0  0  0  0  0  0
  161.4050  210.3410  152.3640 C   0  0  0  0  0  0  0  0  0  0  0  0
  160.4530  211.4770  155.0560 C   0  0  0  0  0  1  0  0  0  0  0  0
  160.0580  210.7810  152.6340 N   0  0  0  0  0  2  0  0  0  0  0  0
  155.1350  213.6920  153.5270 C   0  0  0  0  0  1  0  0  0  0  0  0
  157.4430  213.9310  154.9570 S   0  0  0  0  0  0  0  0  0  0  0  0
  155.7010  213.4260  154.9050 C   0  0  2  0  0  3  0  0  0  0  0  0
  157.6280  212.1300  155.1300 C   0  0  1  0  0  3  0  0  0  0  0  0
  155.8770  211.6340  155.1330 S   0  0  0  0  0  0  0  0  0  0  0  0
  161.9310  208.1780  149.3330 N   0  0  0  0  0  0  0  0  0  0  0  0
  161.8910  206.7840  148.9310 C   0  0  1  0  0  3  0  0  0  0  0  0
  162.2440  206.0260  151.2640 O   0  0  0  0  0  0  0  0  0  0  0  0
  160.7260  204.4520  151.4710 C   0  0  0  0  0  3  0  0  0  0  0  0
  160.6020  204.9890  150.2020 C   0  0  0  0  0  3  0  0  0  0  0  0
  161.7630  205.1320  152.0920 C   0  0  0  0  0  3  0  0  0  0  0  0
  161.5750  205.9630  150.1390 C   0  0  0  0  0  0  0  0  0  0  0  0
  160.8340  206.5830  147.8430 C   0  0  0  0  0  2  0  0  0  0  0  0
  161.4440  206.0080  146.6080 C   0  0  0  0  0  0  0  0  0  0  0  0
  160.7070  206.0230  145.3850 N   0  0  0  0  0  2  0  0  0  0  0  0
  162.5840  205.4750  146.6580 O   0  0  0  0  0  0  0  0  0  0  0  0
  161.2070  205.3900  144.1760 C   0  0  0  0  0  1  0  0  0  0  0  0
  162.3570  210.8670  150.0210 C   0  0  0  0  0  2  0  0  0  0  0  0
  162.1690  213.4590  147.9240 C   0  0  2  0  0  3  0  0  0  0  0  0
  160.8380  212.9060  149.8250 C   0  0  0  0  0  2  0  0  0  0  0  0
  161.9150  211.9680  147.8510 C   0  0  0  0  0  2  0  0  0  0  0  0
  161.0910  214.0120  148.8200 C   0  0  0  0  0  2  0  0  0  0  0  0
  161.2960  211.5930  149.1830 C   0  0  1  0  0  3  0  0  0  0  0  0
  161.5610  213.4430  145.4390 C   0  0  0  0  0  0  0  0  0  0  0  0
  160.3720  213.0380  145.4990 O   0  0  0  0  0  0  0  0  0  0  0  0
  162.1710  214.0420  146.5880 N   0  0  0  0  0  2  0  0  0  0  0  0
  162.3440  213.3630  144.1830 C   0  0  0  0  0  0  0  0  0  0  0  0
  162.6060  213.4800  141.6910 C   0  0  0  0  0  2  0  0  0  0  0  0
  160.5620  212.7360  140.4110 N   0  0  0  0  0  0  0  0  0  0  0  0
  159.8940  211.6150  140.7520 O   0  0  0  0  0  1  0  0  0  0  0  0
  159.9710  213.8500  141.1800 C   0  0  0  0  0  2  0  0  0  0  0  0
  161.9890  212.4910  140.6960 C   0  0  0  0  0  2  0  0  0  0  0  0
  160.3130  213.7670  142.6770 C   0  0  0  0  0  2  0  0  0  0  0  0
  161.7500  213.5620  142.8770 N   0  0  0  0  0  0  0  0  0  0  0  0
  163.5750  213.0670  144.2650 O   0  0  0  0  0  0  0  0  0  0  0  0
  1 26  1  6  0  0  0
  1  6  1  0  0  0  0
  2  1  1  0  0  0  0
  3  4  2  0  0  0  0
  3  7  1  0  0  0  0
  6  8  1  0  0  0  0
  6  5  2  0  0  0  0
  8  3  1  0  0  0  0
 10 12  1  0  0  0  0
 11  9  1  6  0  0  0
 11 10  1  0  0  0  0
 11 13  1  0  0  0  0
 12  4  1  6  0  0  0
 12 13  1  0  0  0  0
 14  2  2  0  0  0  0
 15 21  1  6  0  0  0
 15 14  1  0  0  0  0
 15 20  1  0  0  0  0
 16 19  1  0  0  0  0
 17 19  2  0  0  0  0
 18 17  1  0  0  0  0
 20 18  2  0  0  0  0
 20 16  1  0  0  0  0
 22 24  2  0  0  0  0
 22 21  1  0  0  0  0
 23 22  1  0  0  0  0
 25 23  1  0  0  0  0
 27 34  1  6  0  0  0
 27 30  1  0  0  0  0
 29 27  1  0  0  0  0
 29 31  1  0  0  0  0
 30 28  1  0  0  0  0
 31 28  1  0  0  0  0
 31 26  1  1  0  0  0
 32 33  2  0  0  0  0
 32 34  1  0  0  0  0
 35 43  2  0  0  0  0
 35 32  1  0  0  0  0
 36 42  1  0  0  0  0
 37 40  1  0  0  0  0
 37 38  1  0  0  0  0
 37 39  1  0  0  0  0
 39 41  1  0  0  0  0
 40 36  1  0  0  0  0
 41 42  1  0  0  0  0
 42 35  1  0  0  0  0
M  END
>  <MODEL>
4

>  <REMARK>
 VINA RESULT:      -7.0      3.515      8.506
  Name = 
  11 active torsions:
  status: ('A' for Active; 'I' for Inactive)
    1  A    between atoms: C_1  and  C_11
    2  A    between atoms: C_6  and  C_23
    3  A    between atoms: C_7  and  C_11
    4  A    between atoms: C_7  and  N_13
    5  A    between atoms: C_7  and  C_38
    6  A    between atoms: C_8  and  N_40
    7  A    between atoms: N_10  and  C_24
    8  A    between atoms: N_13  and  C_43
    9  A    between atoms: C_17  and  C_32
   10  A    between atoms: C_17  and  C_37
   11  A    between atoms: C_36  and  C_37
                            x       y       z     vdW  Elec       q    Type
                         _______ _______ _______ _____ _____    ______ ____

>  <TORSDO>
F 11

$$$$
=
 OpenBabel11052411253D

 43 46  0  0  1  0  0  0  0  0999 V2000
  161.4890  211.1670  150.4700 C   0  0  0  0  0  0  0  0  0  0  0  0
  161.0750  211.2030  151.7360 C   0  0  0  0  0  3  0  0  0  0  0  0
  161.3700  213.1800  147.1490 C   0  0  0  0  0  0  0  0  0  0  0  0
  161.8230  212.9340  145.9530 N   0  0  0  0  0  0  0  0  0  0  0  0
  160.4180  213.2090  149.9400 O   0  0  0  0  0  0  0  0  0  0  0  0
  161.1250  212.2470  149.5340 C   0  0  0  0  0  0  0  0  0  0  0  0
  160.6420  214.4510  147.4470 C   0  0  0  0  0  1  0  0  0  0  0  0
  161.5840  212.1930  148.1670 N   0  0  0  0  0  2  0  0  0  0  0  0
  160.4780  211.5480  142.6720 C   0  0  0  0  0  1  0  0  0  0  0  0
  162.5770  213.1290  143.3920 S   0  0  0  0  0  0  0  0  0  0  0  0
  160.8720  213.0040  142.7830 C   0  0  2  0  0  3  0  0  0  0  0  0
  161.6790  213.8300  144.8100 C   0  0  1  0  0  3  0  0  0  0  0  0
  159.9770  213.7530  144.1730 S   0  0  0  0  0  0  0  0  0  0  0  0
  161.4290  210.1660  152.6510 N   0  0  0  0  0  2  0  0  0  0  0  0
  160.6930  209.9000  153.8730 C   0  0  1  0  0  3  0  0  0  0  0  0
  160.4440  207.8700  155.2720 O   0  0  0  0  0  0  0  0  0  0  0  0
  161.0480  206.2780  153.8850 C   0  0  0  0  0  3  0  0  0  0  0  0
  161.1090  207.4770  153.1980 C   0  0  0  0  0  3  0  0  0  0  0  0
  160.6300  206.5770  155.1730 C   0  0  0  0  0  3  0  0  0  0  0  0
  160.7200  208.4250  154.1180 C   0  0  0  0  0  0  0  0  0  0  0  0
  161.3270  210.6580  155.0420 C   0  0  0  0  0  2  0  0  0  0  0  0
  160.4010  211.7060  155.5620 C   0  0  0  0  0  0  0  0  0  0  0  0
  159.1760  211.9680  154.8750 N   0  0  0  0  0  2  0  0  0  0  0  0
  160.7200  212.3820  156.5750 O   0  0  0  0  0  0  0  0  0  0  0  0
  158.2820  213.0420  155.2760 C   0  0  0  0  0  1  0  0  0  0  0  0
  162.3310  210.0100  149.9960 C   0  0  0  0  0  2  0  0  0  0  0  0
  161.6510  206.7800  149.4940 C   0  0  2  0  0  3  0  0  0  0  0  0
  162.6040  208.4070  148.0320 C   0  0  0  0  0  2  0  0  0  0  0  0
  160.8530  208.0520  149.6900 C   0  0  0  0  0  2  0  0  0  0  0  0
  162.3220  206.9220  148.1530 C   0  0  0  0  0  2  0  0  0  0  0  0
  161.6220  209.1330  148.9560 C   0  0  1  0  0  3  0  0  0  0  0  0
  161.2070  204.3180  150.0300 C   0  0  0  0  0  0  0  0  0  0  0  0
  161.8500  204.2000  151.1040 O   0  0  0  0  0  0  0  0  0  0  0  0
  160.7830  205.6130  149.5890 N   0  0  0  0  0  2  0  0  0  0  0  0
  160.8270  203.1360  149.2210 C   0  0  0  0  0  0  0  0  0  0  0  0
  160.8290  201.7560  147.1260 C   0  0  0  0  0  2  0  0  0  0  0  0
  160.9350  203.1180  145.0040 N   0  0  0  0  0  0  0  0  0  0  0  0
  160.1600  204.2090  144.8350 O   0  0  0  0  0  1  0  0  0  0  0  0
  162.1920  203.5640  145.6370 C   0  0  0  0  0  2  0  0  0  0  0  0
  160.1550  202.1570  145.8100 C   0  0  0  0  0  2  0  0  0  0  0  0
  161.9850  203.9870  147.1020 C   0  0  0  0  0  2  0  0  0  0  0  0
  161.2390  202.9660  147.8420 N   0  0  0  0  0  0  0  0  0  0  0  0
  160.0770  202.2630  149.7550 O   0  0  0  0  0  0  0  0  0  0  0  0
  1  2  2  0  0  0  0
  2 14  1  0  0  0  0
  3  7  1  0  0  0  0
  3  8  1  0  0  0  0
  4  3  2  0  0  0  0
  6  5  2  0  0  0  0
  6  1  1  0  0  0  0
  8  6  1  0  0  0  0
 10 12  1  0  0  0  0
 11  9  1  1  0  0  0
 11 10  1  0  0  0  0
 11 13  1  0  0  0  0
 12  4  1  1  0  0  0
 13 12  1  0  0  0  0
 14 15  1  0  0  0  0
 15 20  1  0  0  0  0
 15 21  1  1  0  0  0
 17 19  2  0  0  0  0
 18 17  1  0  0  0  0
 18 20  2  0  0  0  0
 19 16  1  0  0  0  0
 20 16  1  0  0  0  0
 21 22  1  0  0  0  0
 22 24  2  0  0  0  0
 23 25  1  0  0  0  0
 23 22  1  0  0  0  0
 26  1  1  0  0  0  0
 27 34  1  6  0  0  0
 27 29  1  0  0  0  0
 28 30  1  0  0  0  0
 28 31  1  0  0  0  0
 30 27  1  0  0  0  0
 31 29  1  0  0  0  0
 31 26  1  1  0  0  0
 32 33  2  0  0  0  0
 34 32  1  0  0  0  0
 35 43  2  0  0  0  0
 35 32  1  0  0  0  0
 36 42  1  0  0  0  0
 37 39  1  0  0  0  0
 37 40  1  0  0  0  0
 38 37  1  0  0  0  0
 39 41  1  0  0  0  0
 40 36  1  0  0  0  0
 41 42  1  0  0  0  0
 42 35  1  0  0  0  0
M  END
>  <MODEL>
5

>  <REMARK>
 VINA RESULT:      -6.4      1.839      8.341
  Name = 
  11 active torsions:
  status: ('A' for Active; 'I' for Inactive)
    1  A    between atoms: C_1  and  C_11
    2  A    between atoms: C_6  and  C_23
    3  A    between atoms: C_7  and  C_11
    4  A    between atoms: C_7  and  N_13
    5  A    between atoms: C_7  and  C_38
    6  A    between atoms: C_8  and  N_40
    7  A    between atoms: N_10  and  C_24
    8  A    between atoms: N_13  and  C_43
    9  A    between atoms: C_17  and  C_32
   10  A    between atoms: C_17  and  C_37
   11  A    between atoms: C_36  and  C_37
                            x       y       z     vdW  Elec       q    Type
                         _______ _______ _______ _____ _____    ______ ____

>  <TORSDO>
F 11

$$$$
=
 OpenBabel11052411253D

 43 46  0  0  1  0  0  0  0  0999 V2000
  162.2020  210.5240  149.0280 C   0  0  0  0  0  0  0  0  0  0  0  0
  161.6520  210.5410  150.2420 C   0  0  0  0  0  3  0  0  0  0  0  0
  161.4420  212.9600  146.0980 C   0  0  0  0  0  0  0  0  0  0  0  0
  160.6150  212.8990  145.0950 N   0  0  0  0  0  0  0  0  0  0  0  0
  163.0160  212.7000  148.5780 O   0  0  0  0  0  0  0  0  0  0  0  0
  162.2620  211.7560  148.2180 C   0  0  0  0  0  0  0  0  0  0  0  0
  162.3400  214.1410  146.2810 C   0  0  0  0  0  1  0  0  0  0  0  0
  161.4610  211.8650  147.0230 N   0  0  0  0  0  2  0  0  0  0  0  0
  160.1550  211.8650  141.4590 C   0  0  0  0  0  1  0  0  0  0  0  0
  161.7160  213.6680  142.7780 S   0  0  0  0  0  0  0  0  0  0  0  0
  160.2010  213.3280  141.8380 C   0  0  2  0  0  3  0  0  0  0  0  0
  160.4690  213.9330  144.0750 C   0  0  1  0  0  3  0  0  0  0  0  0
  158.9510  213.6460  143.1140 S   0  0  0  0  0  0  0  0  0  0  0  0
  161.5970  209.3560  151.0360 N   0  0  0  0  0  2  0  0  0  0  0  0
  160.9090  209.2870  152.3120 C   0  0  1  0  0  3  0  0  0  0  0  0
  160.7450  207.5490  154.0710 O   0  0  0  0  0  0  0  0  0  0  0  0
  161.6860  205.8190  153.0990 C   0  0  0  0  0  3  0  0  0  0  0  0
  161.6830  206.8600  152.1880 C   0  0  0  0  0  3  0  0  0  0  0  0
  161.0920  206.2990  154.2570 C   0  0  0  0  0  3  0  0  0  0  0  0
  161.0820  207.9050  152.8560 C   0  0  0  0  0  0  0  0  0  0  0  0
  161.4860  210.3270  153.2740 C   0  0  0  0  0  2  0  0  0  0  0  0
  160.3970  211.1250  153.9100 C   0  0  0  0  0  0  0  0  0  0  0  0
  159.0750  211.0690  153.3710 N   0  0  0  0  0  2  0  0  0  0  0  0
  160.6550  211.8760  154.8870 O   0  0  0  0  0  0  0  0  0  0  0  0
  157.9980  211.8980  153.8850 C   0  0  0  0  0  1  0  0  0  0  0  0
  162.7620  209.2350  148.4830 C   0  0  0  0  0  2  0  0  0  0  0  0
  162.3310  206.1850  147.1970 C   0  0  2  0  0  3  0  0  0  0  0  0
  160.7770  207.9700  147.5030 C   0  0  0  0  0  2  0  0  0  0  0  0
  162.6120  206.7680  148.5650 C   0  0  0  0  0  2  0  0  0  0  0  0
  160.9260  206.6070  146.8550 C   0  0  0  0  0  2  0  0  0  0  0  0
  161.8020  208.0480  148.6380 C   0  0  1  0  0  3  0  0  0  0  0  0
  161.7060  203.8080  146.4850 C   0  0  0  0  0  0  0  0  0  0  0  0
  161.4870  203.9880  145.2600 O   0  0  0  0  0  0  0  0  0  0  0  0
  162.5170  204.7390  147.2110 N   0  0  0  0  0  2  0  0  0  0  0  0
  161.1830  202.6190  147.1980 C   0  0  0  0  0  0  0  0  0  0  0  0
  160.2100  201.4440  149.1900 C   0  0  0  0  0  2  0  0  0  0  0  0
  160.9830  202.3750  151.4040 N   0  0  0  0  0  0  0  0  0  0  0  0
  162.2830  202.6600  151.6270 O   0  0  0  0  0  1  0  0  0  0  0  0
  160.3580  203.5880  150.8400 C   0  0  0  0  0  2  0  0  0  0  0  0
  160.9470  201.2000  150.5110 C   0  0  0  0  0  2  0  0  0  0  0  0
  160.8310  203.8690  149.4040 C   0  0  0  0  0  2  0  0  0  0  0  0
  160.7280  202.6680  148.5720 N   0  0  0  0  0  0  0  0  0  0  0  0
  161.1750  201.5090  146.5820 O   0  0  0  0  0  0  0  0  0  0  0  0
  1  2  2  0  0  0  0
  2 14  1  0  0  0  0
  3  7  1  0  0  0  0
  3  8  1  0  0  0  0
  4  3  2  0  0  0  0
  6  5  2  0  0  0  0
  6  1  1  0  0  0  0
  8  6  1  0  0  0  0
 10 12  1  0  0  0  0
 11  9  1  1  0  0  0
 11 10  1  0  0  0  0
 11 13  1  0  0  0  0
 12  4  1  1  0  0  0
 13 12  1  0  0  0  0
 14 15  1  0  0  0  0
 15 20  1  0  0  0  0
 15 21  1  1  0  0  0
 16 19  1  0  0  0  0
 17 19  2  0  0  0  0
 18 20  2  0  0  0  0
 18 17  1  0  0  0  0
 20 16  1  0  0  0  0
 21 22  1  0  0  0  0
 22 24  2  0  0  0  0
 23 25  1  0  0  0  0
 23 22  1  0  0  0  0
 26  1  1  0  0  0  0
 27 34  1  1  0  0  0
 27 29  1  0  0  0  0
 28 31  1  0  0  0  0
 29 31  1  0  0  0  0
 30 27  1  0  0  0  0
 30 28  1  0  0  0  0
 31 26  1  6  0  0  0
 32 35  1  0  0  0  0
 32 34  1  0  0  0  0
 33 32  2  0  0  0  0
 35 42  1  0  0  0  0
 36 40  1  0  0  0  0
 37 38  1  0  0  0  0
 39 37  1  0  0  0  0
 40 37  1  0  0  0  0
 41 39  1  0  0  0  0
 42 36  1  0  0  0  0
 42 41  1  0  0  0  0
 43 35  2  0  0  0  0
M  END
>  <MODEL>
6

>  <REMARK>
 VINA RESULT:      -6.2      2.080      8.119
  Name = 
  11 active torsions:
  status: ('A' for Active; 'I' for Inactive)
    1  A    between atoms: C_1  and  C_11
    2  A    between atoms: C_6  and  C_23
    3  A    between atoms: C_7  and  C_11
    4  A    between atoms: C_7  and  N_13
    5  A    between atoms: C_7  and  C_38
    6  A    between atoms: C_8  and  N_40
    7  A    between atoms: N_10  and  C_24
    8  A    between atoms: N_13  and  C_43
    9  A    between atoms: C_17  and  C_32
   10  A    between atoms: C_17  and  C_37
   11  A    between atoms: C_36  and  C_37
                            x       y       z     vdW  Elec       q    Type
                         _______ _______ _______ _____ _____    ______ ____

>  <TORSDO>
F 11

$$$$
=
 OpenBabel11052411253D

 43 46  0  0  1  0  0  0  0  0999 V2000
  161.0360  207.7420  152.7070 C   0  0  0  0  0  0  0  0  0  0  0  0
  161.2390  208.4880  153.7930 C   0  0  0  0  0  3  0  0  0  0  0  0
  160.8910  204.0470  151.5170 C   0  0  0  0  0  0  0  0  0  0  0  0
  160.8880  203.5020  150.3350 N   0  0  0  0  0  0  0  0  0  0  0  0
  161.0720  205.7210  153.9370 O   0  0  0  0  0  0  0  0  0  0  0  0
  161.0270  206.2700  152.8030 C   0  0  0  0  0  0  0  0  0  0  0  0
  160.8270  203.2030  152.7500 C   0  0  0  0  0  1  0  0  0  0  0  0
  160.9640  205.4760  151.6000 N   0  0  0  0  0  2  0  0  0  0  0  0
  160.8660  202.2530  146.7380 C   0  0  0  0  0  1  0  0  0  0  0  0
  159.4210  201.7150  148.9840 S   0  0  0  0  0  0  0  0  0  0  0  0
  160.7970  201.2730  147.8880 C   0  0  2  0  0  3  0  0  0  0  0  0
  160.8280  202.0650  150.0820 C   0  0  1  0  0  3  0  0  0  0  0  0
  162.2030  201.5680  148.9980 S   0  0  0  0  0  0  0  0  0  0  0  0
  161.2410  209.9130  153.7110 N   0  0  0  0  0  2  0  0  0  0  0  0
  160.3800  210.7560  154.5200 C   0  0  1  0  0  3  0  0  0  0  0  0
  159.6750  213.0340  153.8450 O   0  0  0  0  0  0  0  0  0  0  0  0
  158.5200  212.6370  152.0200 C   0  0  0  0  0  3  0  0  0  0  0  0
  159.0080  211.4260  152.4780 C   0  0  0  0  0  3  0  0  0  0  0  0
  158.9620  213.6070  152.9070 C   0  0  0  0  0  3  0  0  0  0  0  0
  159.7180  211.7450  153.6150 C   0  0  0  0  0  0  0  0  0  0  0  0
  159.3400  209.9000  155.2460 C   0  0  0  0  0  2  0  0  0  0  0  0
  158.4340  210.7500  156.0720 C   0  0  0  0  0  0  0  0  0  0  0  0
  157.0420  210.8120  155.7540 N   0  0  0  0  0  2  0  0  0  0  0  0
  158.9030  211.4410  157.0130 O   0  0  0  0  0  0  0  0  0  0  0  0
  156.1290  211.6970  156.4590 C   0  0  0  0  0  1  0  0  0  0  0  0
  160.8180  208.4130  151.3750 C   0  0  0  0  0  2  0  0  0  0  0  0
  161.8940  210.4250  148.9380 C   0  0  2  0  0  3  0  0  0  0  0  0
  162.1850  208.0770  149.2490 C   0  0  0  0  0  2  0  0  0  0  0  0
  162.1980  210.2220  150.4070 C   0  0  0  0  0  2  0  0  0  0  0  0
  162.4030  209.1890  148.2420 C   0  0  0  0  0  2  0  0  0  0  0  0
  162.1260  208.7240  150.6360 C   0  0  1  0  0  3  0  0  0  0  0  0
  161.8190  212.9070  148.3210 C   0  0  0  0  0  0  0  0  0  0  0  0
  161.1430  213.3590  149.2800 O   0  0  0  0  0  0  0  0  0  0  0  0
  162.5060  211.6570  148.4560 N   0  0  0  0  0  2  0  0  0  0  0  0
  161.9670  213.6630  147.0550 C   0  0  0  0  0  0  0  0  0  0  0  0
  161.1840  214.4470  144.8040 C   0  0  0  0  0  2  0  0  0  0  0  0
  159.7410  212.7740  143.5840 N   0  0  0  0  0  0  0  0  0  0  0  0
  160.0810  211.4700  143.5240 O   0  0  0  0  0  1  0  0  0  0  0  0
  158.9190  212.9590  144.7970 C   0  0  0  0  0  2  0  0  0  0  0  0
  160.9990  213.5480  143.5780 C   0  0  0  0  0  2  0  0  0  0  0  0
  159.7500  212.8300  146.0850 C   0  0  0  0  0  2  0  0  0  0  0  0
  160.9580  213.6550  146.0160 N   0  0  0  0  0  0  0  0  0  0  0  0
  163.0450  214.3070  146.8670 O   0  0  0  0  0  0  0  0  0  0  0  0
  1  6  1  0  0  0  0
  1  2  2  0  0  0  0
  3  8  1  0  0  0  0
  3  7  1  0  0  0  0
  4  3  2  0  0  0  0
  6  5  2  0  0  0  0
  8  6  1  0  0  0  0
 10 12  1  0  0  0  0
 11  9  1  6  0  0  0
 11 10  1  0  0  0  0
 11 13  1  0  0  0  0
 12  4  1  6  0  0  0
 13 12  1  0  0  0  0
 14  2  1  0  0  0  0
 14 15  1  0  0  0  0
 15 21  1  6  0  0  0
 17 18  1  0  0  0  0
 17 19  2  0  0  0  0
 18 20  2  0  0  0  0
 19 16  1  0  0  0  0
 20 16  1  0  0  0  0
 20 15  1  0  0  0  0
 21 22  1  0  0  0  0
 22 24  2  0  0  0  0
 23 22  1  0  0  0  0
 23 25  1  0  0  0  0
 26  1  1  0  0  0  0
 27 34  1  6  0  0  0
 27 29  1  0  0  0  0
 28 31  1  0  0  0  0
 29 31  1  0  0  0  0
 30 27  1  0  0  0  0
 30 28  1  0  0  0  0
 31 26  1  6  0  0  0
 32 34  1  0  0  0  0
 32 33  2  0  0  0  0
 35 32  1  0  0  0  0
 36 42  1  0  0  0  0
 37 39  1  0  0  0  0
 38 37  1  0  0  0  0
 39 41  1  0  0  0  0
 40 37  1  0  0  0  0
 40 36  1  0  0  0  0
 42 41  1  0  0  0  0
 42 35  1  0  0  0  0
 43 35  2  0  0  0  0
M  END
>  <MODEL>
7

>  <REMARK>
 VINA RESULT:      -6.1      3.659      9.479
  Name = 
  11 active torsions:
  status: ('A' for Active; 'I' for Inactive)
    1  A    between atoms: C_1  and  C_11
    2  A    between atoms: C_6  and  C_23
    3  A    between atoms: C_7  and  C_11
    4  A    between atoms: C_7  and  N_13
    5  A    between atoms: C_7  and  C_38
    6  A    between atoms: C_8  and  N_40
    7  A    between atoms: N_10  and  C_24
    8  A    between atoms: N_13  and  C_43
    9  A    between atoms: C_17  and  C_32
   10  A    between atoms: C_17  and  C_37
   11  A    between atoms: C_36  and  C_37
                            x       y       z     vdW  Elec       q    Type
                         _______ _______ _______ _____ _____    ______ ____

>  <TORSDO>
F 11

$$$$
=
 OpenBabel11052411253D

 43 46  0  0  1  0  0  0  0  0999 V2000
  162.0280  210.6040  149.3920 C   0  0  0  0  0  0  0  0  0  0  0  0
  161.9030  210.5430  150.7180 C   0  0  0  0  0  3  0  0  0  0  0  0
  161.4550  212.9740  146.3680 C   0  0  0  0  0  0  0  0  0  0  0  0
  161.5340  212.7940  145.0810 N   0  0  0  0  0  0  0  0  0  0  0  0
  161.2660  212.8430  149.3070 O   0  0  0  0  0  0  0  0  0  0  0  0
  161.6510  211.8300  148.6630 C   0  0  0  0  0  0  0  0  0  0  0  0
  161.0830  214.3070  146.9340 C   0  0  0  0  0  1  0  0  0  0  0  0
  161.7280  211.8560  147.2220 N   0  0  0  0  0  2  0  0  0  0  0  0
  161.9030  211.9290  141.3910 C   0  0  0  0  0  1  0  0  0  0  0  0
  162.7290  213.9720  142.9940 S   0  0  0  0  0  0  0  0  0  0  0  0
  161.5110  213.3280  141.8140 C   0  0  2  0  0  3  0  0  0  0  0  0
  161.2780  213.8260  144.0800 C   0  0  1  0  0  3  0  0  0  0  0  0
  160.0460  213.2330  142.8800 S   0  0  0  0  0  0  0  0  0  0  0  0
  162.2730  209.3640  151.4330 N   0  0  0  0  0  2  0  0  0  0  0  0
  161.6910  208.9950  152.7110 C   0  0  1  0  0  3  0  0  0  0  0  0
  159.6600  210.4110  152.6230 O   0  0  0  0  0  0  0  0  0  0  0  0
  160.0830  211.9200  154.1620 C   0  0  0  0  0  3  0  0  0  0  0  0
  161.1450  211.0340  154.1420 C   0  0  0  0  0  3  0  0  0  0  0  0
  159.1850  211.4890  153.1970 C   0  0  0  0  0  3  0  0  0  0  0  0
  160.8170  210.1200  153.1640 C   0  0  0  0  0  0  0  0  0  0  0  0
  160.8850  207.7030  152.5650 C   0  0  0  0  0  2  0  0  0  0  0  0
  160.8290  206.9620  153.8590 C   0  0  0  0  0  0  0  0  0  0  0  0
  160.2420  207.5850  155.0030 N   0  0  0  0  0  2  0  0  0  0  0  0
  161.3360  205.8130  153.9500 O   0  0  0  0  0  0  0  0  0  0  0  0
  160.2480  206.9530  156.3130 C   0  0  0  0  0  1  0  0  0  0  0  0
  162.5540  209.4100  148.6400 C   0  0  0  0  0  2  0  0  0  0  0  0
  162.3480  206.3510  147.3180 C   0  0  2  0  0  3  0  0  0  0  0  0
  160.7650  208.1360  147.3430 C   0  0  0  0  0  2  0  0  0  0  0  0
  162.3920  206.9430  148.7100 C   0  0  0  0  0  2  0  0  0  0  0  0
  161.0210  206.7700  146.7390 C   0  0  0  0  0  2  0  0  0  0  0  0
  161.5820  208.2220  148.6360 C   0  0  1  0  0  3  0  0  0  0  0  0
  161.8030  203.9650  146.5720 C   0  0  0  0  0  0  0  0  0  0  0  0
  161.7250  204.1280  145.3280 O   0  0  0  0  0  0  0  0  0  0  0  0
  162.5280  204.9050  147.3720 N   0  0  0  0  0  2  0  0  0  0  0  0
  161.2000  202.7860  147.2360 C   0  0  0  0  0  0  0  0  0  0  0  0
  160.1520  201.5980  149.1820 C   0  0  0  0  0  2  0  0  0  0  0  0
  160.9910  202.3790  151.4300 N   0  0  0  0  0  0  0  0  0  0  0  0
  162.3080  202.5640  151.6580 O   0  0  0  0  0  1  0  0  0  0  0  0
  160.4500  203.6550  150.9200 C   0  0  0  0  0  2  0  0  0  0  0  0
  160.8720  201.2480  150.4880 C   0  0  0  0  0  2  0  0  0  0  0  0
  160.9390  203.9630  149.4940 C   0  0  0  0  0  2  0  0  0  0  0  0
  160.7520  202.8080  148.6140 N   0  0  0  0  0  0  0  0  0  0  0  0
  161.1150  201.7060  146.5750 O   0  0  0  0  0  0  0  0  0  0  0  0
  1  2  2  0  0  0  0
  2 14  1  0  0  0  0
  3  7  1  0  0  0  0
  3  8  1  0  0  0  0
  4  3  2  0  0  0  0
  6  5  2  0  0  0  0
  6  1  1  0  0  0  0
  8  6  1  0  0  0  0
 10 12  1  0  0  0  0
 11  9  1  1  0  0  0
 11 13  1  0  0  0  0
 11 10  1  0  0  0  0
 12  4  1  1  0  0  0
 13 12  1  0  0  0  0
 14 15  1  0  0  0  0
 15 21  1  6  0  0  0
 15 20  1  0  0  0  0
 16 20  1  0  0  0  0
 16 19  1  0  0  0  0
 18 17  1  0  0  0  0
 19 17  2  0  0  0  0
 20 18  2  0  0  0  0
 21 22  1  0  0  0  0
 22 24  2  0  0  0  0
 22 23  1  0  0  0  0
 23 25  1  0  0  0  0
 26  1  1  0  0  0  0
 27 34  1  1  0  0  0
 27 29  1  0  0  0  0
 28 31  1  0  0  0  0
 30 27  1  0  0  0  0
 30 28  1  0  0  0  0
 31 26  1  6  0  0  0
 31 29  1  0  0  0  0
 32 35  1  0  0  0  0
 32 34  1  0  0  0  0
 33 32  2  0  0  0  0
 35 42  1  0  0  0  0
 36 40  1  0  0  0  0
 37 38  1  0  0  0  0
 39 37  1  0  0  0  0
 40 37  1  0  0  0  0
 41 39  1  0  0  0  0
 42 36  1  0  0  0  0
 42 41  1  0  0  0  0
 43 35  2  0  0  0  0
M  END
>  <MODEL>
8

>  <REMARK>
 VINA RESULT:      -6.0      2.522      8.324
  Name = 
  11 active torsions:
  status: ('A' for Active; 'I' for Inactive)
    1  A    between atoms: C_1  and  C_11
    2  A    between atoms: C_6  and  C_23
    3  A    between atoms: C_7  and  C_11
    4  A    between atoms: C_7  and  N_13
    5  A    between atoms: C_7  and  C_38
    6  A    between atoms: C_8  and  N_40
    7  A    between atoms: N_10  and  C_24
    8  A    between atoms: N_13  and  C_43
    9  A    between atoms: C_17  and  C_32
   10  A    between atoms: C_17  and  C_37
   11  A    between atoms: C_36  and  C_37
                            x       y       z     vdW  Elec       q    Type
                         _______ _______ _______ _____ _____    ______ ____

>  <TORSDO>
F 11

$$$$
=
 OpenBabel11052411253D

 43 46  0  0  1  0  0  0  0  0999 V2000
  162.1300  210.3220  149.4900 C   0  0  0  0  0  0  0  0  0  0  0  0
  162.0150  211.5850  149.0790 C   0  0  0  0  0  3  0  0  0  0  0  0
  160.8200  210.6380  153.1330 C   0  0  0  0  0  0  0  0  0  0  0  0
  159.9730  211.4500  153.6980 N   0  0  0  0  0  0  0  0  0  0  0  0
  162.5230  208.9740  151.3940 O   0  0  0  0  0  0  0  0  0  0  0  0
  161.9340  209.9790  150.9110 C   0  0  0  0  0  0  0  0  0  0  0  0
  161.5010  209.5690  153.9260 C   0  0  0  0  0  1  0  0  0  0  0  0
  161.0740  210.7970  151.7310 N   0  0  0  0  0  2  0  0  0  0  0  0
  157.1460  213.6860  154.9260 C   0  0  0  0  0  1  0  0  0  0  0  0
  159.6660  213.1020  155.7820 S   0  0  0  0  0  0  0  0  0  0  0  0
  157.8830  212.7840  155.8910 C   0  0  2  0  0  3  0  0  0  0  0  0
  159.6000  211.4140  155.1080 C   0  0  1  0  0  3  0  0  0  0  0  0
  157.8200  211.0800  155.2710 S   0  0  0  0  0  0  0  0  0  0  0  0
  162.1950  211.9250  147.7040 N   0  0  0  0  0  2  0  0  0  0  0  0
  161.3010  212.8120  146.9820 C   0  0  1  0  0  3  0  0  0  0  0  0
  161.1750  212.7900  144.5070 O   0  0  0  0  0  0  0  0  0  0  0  0
  163.2220  213.3420  143.9360 C   0  0  0  0  0  3  0  0  0  0  0  0
  163.1540  213.3580  145.3180 C   0  0  0  0  0  3  0  0  0  0  0  0
  161.9640  212.9810  143.4790 C   0  0  0  0  0  3  0  0  0  0  0  0
  161.8530  213.0070  145.6060 C   0  0  0  0  0  0  0  0  0  0  0  0
  159.8970  212.2070  146.9240 C   0  0  0  0  0  2  0  0  0  0  0  0
  158.8590  213.2440  147.1930 C   0  0  0  0  0  0  0  0  0  0  0  0
  158.0830  213.1720  148.3910 N   0  0  0  0  0  2  0  0  0  0  0  0
  158.6400  214.1510  146.3470 O   0  0  0  0  0  0  0  0  0  0  0  0
  156.9920  214.0940  148.6600 C   0  0  0  0  0  1  0  0  0  0  0  0
  162.4650  209.2440  148.4920 C   0  0  0  0  0  2  0  0  0  0  0  0
  162.2310  206.1720  147.2040 C   0  0  2  0  0  3  0  0  0  0  0  0
  160.6030  207.9080  147.3740 C   0  0  0  0  0  2  0  0  0  0  0  0
  162.3880  206.7740  148.5840 C   0  0  0  0  0  2  0  0  0  0  0  0
  160.8430  206.5470  146.7520 C   0  0  0  0  0  2  0  0  0  0  0  0
  161.5340  208.0270  148.5830 C   0  0  1  0  0  3  0  0  0  0  0  0
  161.7100  203.7690  146.5000 C   0  0  0  0  0  0  0  0  0  0  0  0
  161.5370  203.9270  145.2640 O   0  0  0  0  0  0  0  0  0  0  0  0
  162.4600  204.7330  147.2460 N   0  0  0  0  0  2  0  0  0  0  0  0
  161.1940  202.5720  147.2060 C   0  0  0  0  0  0  0  0  0  0  0  0
  160.2400  201.3790  149.1960 C   0  0  0  0  0  2  0  0  0  0  0  0
  161.0290  202.2920  151.4120 N   0  0  0  0  0  0  0  0  0  0  0  0
  162.3300  202.5770  151.6270 O   0  0  0  0  0  1  0  0  0  0  0  0
  160.3970  203.5080  150.8630 C   0  0  0  0  0  2  0  0  0  0  0  0
  160.9870  201.1250  150.5090 C   0  0  0  0  0  2  0  0  0  0  0  0
  160.8570  203.8030  149.4250 C   0  0  0  0  0  2  0  0  0  0  0  0
  160.7500  202.6080  148.5850 N   0  0  0  0  0  0  0  0  0  0  0  0
  161.1840  201.4670  146.5810 O   0  0  0  0  0  0  0  0  0  0  0  0
  1  6  1  0  0  0  0
  2  1  2  0  0  0  0
  3  4  2  0  0  0  0
  3  7  1  0  0  0  0
  6  5  2  0  0  0  0
  6  8  1  0  0  0  0
  8  3  1  0  0  0  0
 10 11  1  0  0  0  0
 11  9  1  6  0  0  0
 12  4  1  6  0  0  0
 12 13  1  0  0  0  0
 12 10  1  0  0  0  0
 13 11  1  0  0  0  0
 14  2  1  0  0  0  0
 15 21  1  6  0  0  0
 15 14  1  0  0  0  0
 16 20  1  0  0  0  0
 17 18  1  0  0  0  0
 18 20  2  0  0  0  0
 19 17  2  0  0  0  0
 19 16  1  0  0  0  0
 20 15  1  0  0  0  0
 21 22  1  0  0  0  0
 22 23  1  0  0  0  0
 23 25  1  0  0  0  0
 24 22  2  0  0  0  0
 26  1  1  0  0  0  0
 27 34  1  1  0  0  0
 27 29  1  0  0  0  0
 28 31  1  0  0  0  0
 30 27  1  0  0  0  0
 30 28  1  0  0  0  0
 31 26  1  6  0  0  0
 31 29  1  0  0  0  0
 32 35  1  0  0  0  0
 32 34  1  0  0  0  0
 33 32  2  0  0  0  0
 35 42  1  0  0  0  0
 36 40  1  0  0  0  0
 37 38  1  0  0  0  0
 39 37  1  0  0  0  0
 40 37  1  0  0  0  0
 41 39  1  0  0  0  0
 42 36  1  0  0  0  0
 42 41  1  0  0  0  0
 43 35  2  0  0  0  0
M  END
>  <MODEL>
9

>  <REMARK>
 VINA RESULT:      -6.0      3.417      9.637
  Name = 
  11 active torsions:
  status: ('A' for Active; 'I' for Inactive)
    1  A    between atoms: C_1  and  C_11
    2  A    between atoms: C_6  and  C_23
    3  A    between atoms: C_7  and  C_11
    4  A    between atoms: C_7  and  N_13
    5  A    between atoms: C_7  and  C_38
    6  A    between atoms: C_8  and  N_40
    7  A    between atoms: N_10  and  C_24
    8  A    between atoms: N_13  and  C_43
    9  A    between atoms: C_17  and  C_32
   10  A    between atoms: C_17  and  C_37
   11  A    between atoms: C_36  and  C_37
                            x       y       z     vdW  Elec       q    Type
                         _______ _______ _______ _____ _____    ______ ____

>  <TORSDO>
F 11

$$$$
