=
 OpenBabel11052409443D

 31 35  0  0  1  0  0  0  0  0999 V2000
  161.9330  209.5140  148.8700 C   0  0  0  0  0  3  0  0  0  0  0  0
  161.0670  208.3630  153.6620 C   0  0  0  0  0  2  0  0  0  0  0  0
  161.8010  206.6430  152.2860 C   0  0  0  0  0  0  0  0  0  0  0  0
  161.8340  208.8850  151.2190 C   0  0  0  0  0  0  0  0  0  0  0  0
  161.5660  207.9400  152.3270 C   0  0  0  0  0  0  0  0  0  0  0  0
  159.5960  206.8180  154.7300 O   0  0  0  0  0  1  0  0  0  0  0  0
  161.5180  206.0790  149.9290 C   0  0  0  0  0  0  0  0  0  0  0  0
  160.9410  207.0650  154.4550 C   0  0  1  0  0  3  0  0  0  0  0  0
  161.2850  207.2410  149.3870 N   0  0  0  0  0  0  0  0  0  0  0  0
  162.2810  210.8210  149.2150 C   0  0  0  0  0  0  0  0  0  0  0  0
  161.4870  205.9580  153.5600 C   0  0  0  0  0  2  0  0  0  0  0  0
  162.3960  211.1610  150.5670 C   0  0  0  0  0  3  0  0  0  0  0  0
  161.7240  208.5310  149.8450 C   0  0  0  0  0  0  0  0  0  0  0  0
  162.1680  210.2050  151.5550 C   0  0  0  0  0  3  0  0  0  0  0  0
  162.4110  205.9510  151.1220 C   0  0  0  0  0  2  0  0  0  0  0  0
  161.5170  212.6160  147.5430 C   0  0  0  0  0  0  0  0  0  0  0  0
  160.2740  212.6000  147.8820 N   0  0  0  0  0  0  0  0  0  0  0  0
  161.9770  213.7530  146.2350 S   0  0  0  0  0  0  0  0  0  0  0  0
  160.2400  214.3030  146.1120 C   0  0  0  0  0  2  0  0  0  0  0  0
  159.5020  213.5140  147.1280 C   0  0  0  0  0  0  0  0  0  0  0  0
  158.2640  213.6440  147.3140 O   0  0  0  0  0  0  0  0  0  0  0  0
  162.4980  211.7770  148.1670 N   0  0  0  0  0  2  0  0  0  0  0  0
  161.1910  201.9380  148.3460 C   0  0  0  0  0  0  0  0  0  0  0  0
  160.9340  204.8590  149.3320 C   0  0  0  0  0  0  0  0  0  0  0  0
  160.8520  203.7280  150.0340 C   0  0  0  0  0  3  0  0  0  0  0  0
  161.6010  202.6560  147.3360 N   0  0  0  0  0  0  0  0  0  0  0  0
  161.3130  204.0160  147.0910 N   0  0  0  0  0  2  0  0  0  0  0  0
  160.2870  202.4850  149.4220 C   0  0  0  0  0  2  0  0  0  0  0  0
  160.4530  204.8590  147.9140 C   0  0  0  0  0  2  0  0  0  0  0  0
  161.6010  200.6040  148.4050 O   0  0  0  0  0  0  0  0  0  0  0  0
  161.6280  199.7580  147.2630 C   0  0  0  0  0  1  0  0  0  0  0  0
  1 10  2  0  0  0  0
  1 13  1  0  0  0  0
  2  8  1  0  0  0  0
  3  5  2  0  0  0  0
  3 11  1  0  0  0  0
  4 14  1  0  0  0  0
  4  5  1  0  0  0  0
  5  2  1  0  0  0  0
  7 15  1  0  0  0  0
  8  6  1  6  0  0  0
  9 13  1  0  0  0  0
  9  7  2  0  0  0  0
 10 12  1  0  0  0  0
 11  8  1  0  0  0  0
 12 14  2  0  0  0  0
 13  4  2  0  0  0  0
 15  3  1  0  0  0  0
 16 17  2  0  0  0  0
 16 22  1  0  0  0  0
 18 16  1  0  0  0  0
 19 18  1  0  0  0  0
 19 20  1  0  0  0  0
 20 21  2  0  0  0  0
 20 17  1  0  0  0  0
 22 10  1  0  0  0  0
 23 30  1  0  0  0  0
 23 28  1  0  0  0  0
 24  7  1  0  0  0  0
 24 25  2  0  0  0  0
 26 23  2  0  0  0  0
 27 26  1  0  0  0  0
 27 29  1  0  0  0  0
 28 25  1  0  0  0  0
 29 24  1  0  0  0  0
 31 30  1  0  0  0  0
M  END
>  <MODEL>
1

>  <REMARK>
 VINA RESULT:      -7.8      0.000      0.000
  Name = 
  3 active torsions:
  status: ('A' for Active; 'I' for Inactive)
    1  A    between atoms: C_3  and  O_19
    2  A    between atoms: C_4  and  C_15
    3  A    between atoms: C_21  and  N_26
                            x       y       z     vdW  Elec       q    Type
                         _______ _______ _______ _____ _____    ______ ____

>  <TORSDO>
F 3

$$$$
=
 OpenBabel11052409443D

 31 35  0  0  1  0  0  0  0  0999 V2000
  161.1540  206.3320  150.9070 C   0  0  0  0  0  3  0  0  0  0  0  0
  161.6910  208.0510  155.5760 C   0  0  0  0  0  2  0  0  0  0  0  0
  160.6170  209.4450  154.0610 C   0  0  0  0  0  0  0  0  0  0  0  0
  161.0860  207.1670  153.1910 C   0  0  0  0  0  0  0  0  0  0  0  0
  161.1290  208.2380  154.2120 C   0  0  0  0  0  0  0  0  0  0  0  0
  162.7770  209.9650  156.4950 O   0  0  0  0  0  1  0  0  0  0  0  0
  160.7980  209.8530  151.6620 C   0  0  0  0  0  0  0  0  0  0  0  0
  161.5220  209.4080  156.2530 C   0  0  1  0  0  3  0  0  0  0  0  0
  161.2860  208.7280  151.2210 N   0  0  0  0  0  0  0  0  0  0  0  0
  161.0950  205.0160  151.3650 C   0  0  0  0  0  0  0  0  0  0  0  0
  160.7580  210.2880  155.2690 C   0  0  0  0  0  2  0  0  0  0  0  0
  161.0410  204.7750  152.7420 C   0  0  0  0  0  3  0  0  0  0  0  0
  161.1330  207.4170  151.7910 C   0  0  0  0  0  0  0  0  0  0  0  0
  161.0440  205.8400  153.6430 C   0  0  0  0  0  3  0  0  0  0  0  0
  159.8840  209.8850  152.8460 C   0  0  0  0  0  2  0  0  0  0  0  0
  161.2540  204.0620  148.9840 C   0  0  0  0  0  0  0  0  0  0  0  0
  161.4100  205.1960  148.3920 N   0  0  0  0  0  0  0  0  0  0  0  0
  161.2350  202.6070  147.9370 S   0  0  0  0  0  0  0  0  0  0  0  0
  161.4710  203.6680  146.4700 C   0  0  0  0  0  2  0  0  0  0  0  0
  161.5370  205.0550  146.9910 C   0  0  0  0  0  0  0  0  0  0  0  0
  161.6970  206.0510  146.2380 O   0  0  0  0  0  0  0  0  0  0  0  0
  161.1050  203.9490  150.4060 N   0  0  0  0  0  2  0  0  0  0  0  0
  160.3920  213.3230  148.9130 C   0  0  0  0  0  0  0  0  0  0  0  0
  161.1100  211.1150  150.9590 C   0  0  0  0  0  0  0  0  0  0  0  0
  160.3480  212.1970  151.1260 C   0  0  0  0  0  3  0  0  0  0  0  0
  160.9360  212.3800  148.1920 N   0  0  0  0  0  0  0  0  0  0  0  0
  161.7940  211.3550  148.6450 N   0  0  0  0  0  2  0  0  0  0  0  0
  160.6450  213.4660  150.3930 C   0  0  0  0  0  2  0  0  0  0  0  0
  162.2690  211.1960  150.0140 C   0  0  0  0  0  2  0  0  0  0  0  0
  159.5600  214.2380  148.2660 O   0  0  0  0  0  0  0  0  0  0  0  0
  158.1520  214.2680  148.4620 C   0  0  0  0  0  1  0  0  0  0  0  0
  1 10  2  0  0  0  0
  1 13  1  0  0  0  0
  2  8  1  0  0  0  0
  3  5  2  0  0  0  0
  3 11  1  0  0  0  0
  4 14  1  0  0  0  0
  4  5  1  0  0  0  0
  5  2  1  0  0  0  0
  7 15  1  0  0  0  0
  8  6  1  6  0  0  0
  9  7  2  0  0  0  0
  9 13  1  0  0  0  0
 10 12  1  0  0  0  0
 11  8  1  0  0  0  0
 12 14  2  0  0  0  0
 13  4  2  0  0  0  0
 15  3  1  0  0  0  0
 16 22  1  0  0  0  0
 17 16  2  0  0  0  0
 18 16  1  0  0  0  0
 19 20  1  0  0  0  0
 19 18  1  0  0  0  0
 20 17  1  0  0  0  0
 21 20  2  0  0  0  0
 22 10  1  0  0  0  0
 23 28  1  0  0  0  0
 24 25  2  0  0  0  0
 24  7  1  0  0  0  0
 26 27  1  0  0  0  0
 26 23  2  0  0  0  0
 27 29  1  0  0  0  0
 28 25  1  0  0  0  0
 29 24  1  0  0  0  0
 30 31  1  0  0  0  0
 30 23  1  0  0  0  0
M  END
>  <MODEL>
2

>  <REMARK>
 VINA RESULT:      -7.2      2.977      7.688
  Name = 
  3 active torsions:
  status: ('A' for Active; 'I' for Inactive)
    1  A    between atoms: C_3  and  O_19
    2  A    between atoms: C_4  and  C_15
    3  A    between atoms: C_21  and  N_26
                            x       y       z     vdW  Elec       q    Type
                         _______ _______ _______ _____ _____    ______ ____

>  <TORSDO>
F 3

$$$$
=
 OpenBabel11052409443D

 31 35  0  0  1  0  0  0  0  0999 V2000
  161.0590  205.9860  150.5230 C   0  0  0  0  0  3  0  0  0  0  0  0
  161.6970  210.2290  147.9470 C   0  0  0  0  0  2  0  0  0  0  0  0
  162.0510  210.3290  150.2390 C   0  0  0  0  0  0  0  0  0  0  0  0
  161.6840  208.0330  149.3660 C   0  0  0  0  0  0  0  0  0  0  0  0
  161.7910  209.5050  149.2420 C   0  0  0  0  0  0  0  0  0  0  0  0
  160.6660  212.3770  148.0590 O   0  0  0  0  0  1  0  0  0  0  0  0
  161.1030  209.2010  152.1830 C   0  0  0  0  0  0  0  0  0  0  0  0
  161.8590  211.7010  148.3140 C   0  0  1  0  0  3  0  0  0  0  0  0
  160.6770  208.0780  151.6780 N   0  0  0  0  0  0  0  0  0  0  0  0
  161.4450  205.2220  149.4210 C   0  0  0  0  0  0  0  0  0  0  0  0
  162.1550  211.7420  149.8090 C   0  0  0  0  0  2  0  0  0  0  0  0
  161.9430  205.8690  148.2840 C   0  0  0  0  0  3  0  0  0  0  0  0
  161.1850  207.3800  150.5270 C   0  0  0  0  0  0  0  0  0  0  0  0
  162.0540  207.2580  148.2570 C   0  0  0  0  0  3  0  0  0  0  0  0
  162.3140  209.8840  151.6310 C   0  0  0  0  0  2  0  0  0  0  0  0
  161.1200  202.8920  148.3890 C   0  0  0  0  0  0  0  0  0  0  0  0
  161.0620  203.2900  147.1650 N   0  0  0  0  0  0  0  0  0  0  0  0
  160.9580  201.1280  148.6670 S   0  0  0  0  0  0  0  0  0  0  0  0
  160.7830  200.8680  146.8680 C   0  0  0  0  0  2  0  0  0  0  0  0
  160.8760  202.2180  146.2610 C   0  0  0  0  0  0  0  0  0  0  0  0
  160.7940  202.4060  145.0200 O   0  0  0  0  0  0  0  0  0  0  0  0
  161.3060  203.7960  149.4860 N   0  0  0  0  0  2  0  0  0  0  0  0
  159.9250  212.1380  155.3050 C   0  0  0  0  0  0  0  0  0  0  0  0
  160.4130  209.7900  153.3510 C   0  0  0  0  0  0  0  0  0  0  0  0
  159.6100  210.8440  153.2090 C   0  0  0  0  0  3  0  0  0  0  0  0
  160.9700  211.5270  155.7920 N   0  0  0  0  0  0  0  0  0  0  0  0
  161.3640  210.1940  155.5440 N   0  0  0  0  0  2  0  0  0  0  0  0
  158.9340  211.4590  154.3930 C   0  0  0  0  0  2  0  0  0  0  0  0
  160.6310  209.2350  154.7250 C   0  0  0  0  0  2  0  0  0  0  0  0
  159.7220  213.4710  155.6710 O   0  0  0  0  0  0  0  0  0  0  0  0
  158.7680  214.3060  155.0280 C   0  0  0  0  0  1  0  0  0  0  0  0
  1 13  1  0  0  0  0
  2  8  1  0  0  0  0
  2  5  1  0  0  0  0
  3 15  1  0  0  0  0
  4 13  2  0  0  0  0
  5  4  1  0  0  0  0
  5  3  2  0  0  0  0
  7 24  1  0  0  0  0
  8  6  1  1  0  0  0
  8 11  1  0  0  0  0
  9  7  2  0  0  0  0
 10 22  1  0  0  0  0
 10  1  2  0  0  0  0
 11  3  1  0  0  0  0
 12 10  1  0  0  0  0
 13  9  1  0  0  0  0
 14 12  2  0  0  0  0
 14  4  1  0  0  0  0
 15  7  1  0  0  0  0
 16 18  1  0  0  0  0
 16 22  1  0  0  0  0
 17 16  2  0  0  0  0
 19 18  1  0  0  0  0
 20 19  1  0  0  0  0
 20 17  1  0  0  0  0
 21 20  2  0  0  0  0
 23 30  1  0  0  0  0
 23 26  2  0  0  0  0
 24 29  1  0  0  0  0
 25 24  2  0  0  0  0
 25 28  1  0  0  0  0
 27 26  1  0  0  0  0
 28 23  1  0  0  0  0
 29 27  1  0  0  0  0
 31 30  1  0  0  0  0
M  END
>  <MODEL>
3

>  <REMARK>
 VINA RESULT:      -7.2      3.873      8.896
  Name = 
  3 active torsions:
  status: ('A' for Active; 'I' for Inactive)
    1  A    between atoms: C_3  and  O_19
    2  A    between atoms: C_4  and  C_15
    3  A    between atoms: C_21  and  N_26
                            x       y       z     vdW  Elec       q    Type
                         _______ _______ _______ _____ _____    ______ ____

>  <TORSDO>
F 3

$$$$
=
 OpenBabel11052409443D

 31 35  0  0  1  0  0  0  0  0999 V2000
  160.9800  207.5820  150.9210 C   0  0  0  0  0  3  0  0  0  0  0  0
  162.0410  207.8510  155.8040 C   0  0  0  0  0  2  0  0  0  0  0  0
  160.1980  209.0530  155.0630 C   0  0  0  0  0  0  0  0  0  0  0  0
  161.2030  207.5690  153.3440 C   0  0  0  0  0  0  0  0  0  0  0  0
  161.1230  208.1910  154.6850 C   0  0  0  0  0  0  0  0  0  0  0  0
  162.5770  209.6620  157.2600 O   0  0  0  0  0  1  0  0  0  0  0  0
  159.6090  210.2100  152.9970 C   0  0  0  0  0  0  0  0  0  0  0  0
  161.5820  208.7330  156.9620 C   0  0  1  0  0  3  0  0  0  0  0  0
  160.3330  209.5890  152.1100 N   0  0  0  0  0  0  0  0  0  0  0  0
  161.5080  206.2930  150.8460 C   0  0  0  0  0  0  0  0  0  0  0  0
  160.3340  209.4640  156.4780 C   0  0  0  0  0  2  0  0  0  0  0  0
  161.8930  205.6440  152.0240 C   0  0  0  0  0  3  0  0  0  0  0  0
  160.8020  208.2300  152.1490 C   0  0  0  0  0  0  0  0  0  0  0  0
  161.7480  206.2800  153.2560 C   0  0  0  0  0  3  0  0  0  0  0  0
  159.0750  209.4910  154.1950 C   0  0  0  0  0  2  0  0  0  0  0  0
  161.3200  204.3310  149.1980 C   0  0  0  0  0  0  0  0  0  0  0  0
  160.8290  203.4890  150.0410 N   0  0  0  0  0  0  0  0  0  0  0  0
  161.5740  203.7350  147.5260 S   0  0  0  0  0  0  0  0  0  0  0  0
  160.9260  202.1000  148.0180 C   0  0  0  0  0  2  0  0  0  0  0  0
  160.5840  202.2250  149.4550 C   0  0  0  0  0  0  0  0  0  0  0  0
  160.1050  201.2700  150.1200 O   0  0  0  0  0  0  0  0  0  0  0  0
  161.6490  205.6790  149.5570 N   0  0  0  0  0  2  0  0  0  0  0  0
  157.4450  213.8420  151.6230 C   0  0  0  0  0  0  0  0  0  0  0  0
  159.2660  211.6340  152.7990 C   0  0  0  0  0  0  0  0  0  0  0  0
  158.1360  212.1400  153.2950 C   0  0  0  0  0  3  0  0  0  0  0  0
  158.2580  213.5420  150.6470 N   0  0  0  0  0  0  0  0  0  0  0  0
  159.5180  212.9150  150.7560 N   0  0  0  0  0  2  0  0  0  0  0  0
  157.7740  213.5740  153.0710 C   0  0  0  0  0  2  0  0  0  0  0  0
  160.1650  212.5320  152.0050 C   0  0  0  0  0  2  0  0  0  0  0  0
  156.2330  214.4530  151.2960 O   0  0  0  0  0  0  0  0  0  0  0  0
  155.4660  214.0780  150.1590 C   0  0  0  0  0  1  0  0  0  0  0  0
  1 13  1  0  0  0  0
  2  8  1  0  0  0  0
  3 11  1  0  0  0  0
  4  5  1  0  0  0  0
  5  3  2  0  0  0  0
  5  2  1  0  0  0  0
  7 15  1  0  0  0  0
  8  6  1  6  0  0  0
  9 13  1  0  0  0  0
  9  7  2  0  0  0  0
 10  1  2  0  0  0  0
 10 12  1  0  0  0  0
 11  8  1  0  0  0  0
 12 14  2  0  0  0  0
 13  4  2  0  0  0  0
 14  4  1  0  0  0  0
 15  3  1  0  0  0  0
 16 22  1  0  0  0  0
 16 17  2  0  0  0  0
 18 19  1  0  0  0  0
 18 16  1  0  0  0  0
 19 20  1  0  0  0  0
 20 17  1  0  0  0  0
 20 21  2  0  0  0  0
 22 10  1  0  0  0  0
 23 28  1  0  0  0  0
 24  7  1  0  0  0  0
 24 25  2  0  0  0  0
 26 27  1  0  0  0  0
 26 23  2  0  0  0  0
 27 29  1  0  0  0  0
 28 25  1  0  0  0  0
 29 24  1  0  0  0  0
 30 23  1  0  0  0  0
 31 30  1  0  0  0  0
M  END
>  <MODEL>
4

>  <REMARK>
 VINA RESULT:      -6.7      3.460      8.539
  Name = 
  3 active torsions:
  status: ('A' for Active; 'I' for Inactive)
    1  A    between atoms: C_3  and  O_19
    2  A    between atoms: C_4  and  C_15
    3  A    between atoms: C_21  and  N_26
                            x       y       z     vdW  Elec       q    Type
                         _______ _______ _______ _____ _____    ______ ____

>  <TORSDO>
F 3

$$$$
=
 OpenBabel11052409443D

 31 35  0  0  1  0  0  0  0  0999 V2000
  161.1340  206.0230  149.3890 C   0  0  0  0  0  3  0  0  0  0  0  0
  161.5810  210.7880  147.9270 C   0  0  0  0  0  2  0  0  0  0  0  0
  162.0960  210.3170  150.1410 C   0  0  0  0  0  0  0  0  0  0  0  0
  161.6730  208.3070  148.7450 C   0  0  0  0  0  0  0  0  0  0  0  0
  161.7680  209.7640  148.9890 C   0  0  0  0  0  0  0  0  0  0  0  0
  160.5570  212.8180  148.6460 O   0  0  0  0  0  1  0  0  0  0  0  0
  161.2900  208.7180  151.7980 C   0  0  0  0  0  0  0  0  0  0  0  0
  161.7660  212.1240  148.6410 C   0  0  1  0  0  3  0  0  0  0  0  0
  160.8310  207.7500  151.0570 N   0  0  0  0  0  0  0  0  0  0  0  0
  161.4430  205.5680  148.1060 C   0  0  0  0  0  0  0  0  0  0  0  0
  162.1670  211.7930  150.0750 C   0  0  0  0  0  2  0  0  0  0  0  0
  161.8590  206.4890  147.1380 C   0  0  0  0  0  3  0  0  0  0  0  0
  161.2570  207.3730  149.7360 C   0  0  0  0  0  0  0  0  0  0  0  0
  161.9640  207.8420  147.4550 C   0  0  0  0  0  3  0  0  0  0  0  0
  162.4570  209.5410  151.3550 C   0  0  0  0  0  2  0  0  0  0  0  0
  161.1430  203.1020  148.7620 C   0  0  0  0  0  0  0  0  0  0  0  0
  161.0820  203.3040  150.0340 N   0  0  0  0  0  0  0  0  0  0  0  0
  161.0010  201.4010  148.2130 S   0  0  0  0  0  0  0  0  0  0  0  0
  160.8350  200.8620  149.9500 C   0  0  0  0  0  2  0  0  0  0  0  0
  160.9120  202.1020  150.7590 C   0  0  0  0  0  0  0  0  0  0  0  0
  160.8310  202.0940  152.0150 O   0  0  0  0  0  0  0  0  0  0  0  0
  161.3120  204.1690  147.8190 N   0  0  0  0  0  2  0  0  0  0  0  0
  160.6100  210.5100  155.8100 C   0  0  0  0  0  0  0  0  0  0  0  0
  160.6830  208.9810  153.1210 C   0  0  0  0  0  0  0  0  0  0  0  0
  160.1340  210.1650  153.3970 C   0  0  0  0  0  3  0  0  0  0  0  0
  161.4720  209.5500  156.0080 N   0  0  0  0  0  0  0  0  0  0  0  0
  161.5810  208.3450  155.2800 N   0  0  0  0  0  2  0  0  0  0  0  0
  159.5460  210.4430  154.7430 C   0  0  0  0  0  2  0  0  0  0  0  0
  160.7040  207.9340  154.1910 C   0  0  0  0  0  2  0  0  0  0  0  0
  160.6810  211.6300  156.6410 O   0  0  0  0  0  0  0  0  0  0  0  0
  160.0810  212.8740  156.3050 C   0  0  0  0  0  1  0  0  0  0  0  0
  1 13  1  0  0  0  0
  2  8  1  0  0  0  0
  2  5  1  0  0  0  0
  3 15  1  0  0  0  0
  4  5  1  0  0  0  0
  4 13  2  0  0  0  0
  5  3  2  0  0  0  0
  7 24  1  0  0  0  0
  8  6  1  1  0  0  0
  8 11  1  0  0  0  0
  9  7  2  0  0  0  0
 10  1  2  0  0  0  0
 11  3  1  0  0  0  0
 12 14  2  0  0  0  0
 12 10  1  0  0  0  0
 13  9  1  0  0  0  0
 14  4  1  0  0  0  0
 15  7  1  0  0  0  0
 16 17  2  0  0  0  0
 17 20  1  0  0  0  0
 18 16  1  0  0  0  0
 18 19  1  0  0  0  0
 19 20  1  0  0  0  0
 20 21  2  0  0  0  0
 22 10  1  0  0  0  0
 22 16  1  0  0  0  0
 23 26  2  0  0  0  0
 23 30  1  0  0  0  0
 24 25  2  0  0  0  0
 24 29  1  0  0  0  0
 25 28  1  0  0  0  0
 27 26  1  0  0  0  0
 28 23  1  0  0  0  0
 29 27  1  0  0  0  0
 31 30  1  0  0  0  0
M  END
>  <MODEL>
5

>  <REMARK>
 VINA RESULT:      -6.5      3.527      8.614
  Name = 
  3 active torsions:
  status: ('A' for Active; 'I' for Inactive)
    1  A    between atoms: C_3  and  O_19
    2  A    between atoms: C_4  and  C_15
    3  A    between atoms: C_21  and  N_26
                            x       y       z     vdW  Elec       q    Type
                         _______ _______ _______ _____ _____    ______ ____

>  <TORSDO>
F 3

$$$$
=
 OpenBabel11052409443D

 31 35  0  0  1  0  0  0  0  0999 V2000
  161.2140  207.9410  152.4270 C   0  0  0  0  0  3  0  0  0  0  0  0
  160.8420  205.3300  148.1750 C   0  0  0  0  0  2  0  0  0  0  0  0
  162.0210  207.3270  148.0800 C   0  0  0  0  0  0  0  0  0  0  0  0
  161.3610  206.6430  150.3740 C   0  0  0  0  0  0  0  0  0  0  0  0
  161.4120  206.4950  148.9020 C   0  0  0  0  0  0  0  0  0  0  0  0
  159.9220  205.8250  146.0310 O   0  0  0  0  0  1  0  0  0  0  0  0
  161.8640  209.4800  149.2180 C   0  0  0  0  0  0  0  0  0  0  0  0
  161.1250  205.6170  146.7030 C   0  0  1  0  0  3  0  0  0  0  0  0
  161.2830  209.1640  150.3400 N   0  0  0  0  0  0  0  0  0  0  0  0
  161.1650  206.7710  153.1860 C   0  0  0  0  0  0  0  0  0  0  0  0
  161.9550  206.8960  146.6660 C   0  0  0  0  0  2  0  0  0  0  0  0
  161.2050  205.5330  152.5340 C   0  0  0  0  0  3  0  0  0  0  0  0
  161.3290  207.9040  151.0330 C   0  0  0  0  0  0  0  0  0  0  0  0
  161.2940  205.4730  151.1450 C   0  0  0  0  0  3  0  0  0  0  0  0
  162.7820  208.5210  148.5290 C   0  0  0  0  0  2  0  0  0  0  0  0
  161.0540  208.0780  155.3950 C   0  0  0  0  0  0  0  0  0  0  0  0
  161.1350  209.2500  154.8660 N   0  0  0  0  0  0  0  0  0  0  0  0
  160.9250  208.0130  157.1820 S   0  0  0  0  0  0  0  0  0  0  0  0
  160.9890  209.8370  157.2460 C   0  0  0  0  0  2  0  0  0  0  0  0
  161.1050  210.2790  155.8360 C   0  0  0  0  0  0  0  0  0  0  0  0
  161.1730  211.4930  155.5130 O   0  0  0  0  0  0  0  0  0  0  0  0
  161.0630  206.8770  154.6130 N   0  0  0  0  0  2  0  0  0  0  0  0
  161.9410  212.8350  146.3020 C   0  0  0  0  0  0  0  0  0  0  0  0
  161.6550  210.8220  148.6350 C   0  0  0  0  0  0  0  0  0  0  0  0
  160.8670  210.9910  147.5720 C   0  0  0  0  0  3  0  0  0  0  0  0
  163.0850  212.9020  146.9270 N   0  0  0  0  0  0  0  0  0  0  0  0
  163.3460  212.5190  148.2610 N   0  0  0  0  0  2  0  0  0  0  0  0
  160.6780  212.3430  146.9640 C   0  0  0  0  0  2  0  0  0  0  0  0
  162.3540  212.0180  149.2050 C   0  0  0  0  0  2  0  0  0  0  0  0
  161.9010  213.2570  144.9720 O   0  0  0  0  0  0  0  0  0  0  0  0
  163.0600  213.3270  144.1530 C   0  0  0  0  0  1  0  0  0  0  0  0
  1 10  1  0  0  0  0
  2  5  1  0  0  0  0
  3 15  1  0  0  0  0
  3  5  2  0  0  0  0
  4 13  1  0  0  0  0
  4 14  2  0  0  0  0
  5  4  1  0  0  0  0
  7  9  2  0  0  0  0
  8  6  1  6  0  0  0
  8  2  1  0  0  0  0
  9 13  1  0  0  0  0
 10 22  1  0  0  0  0
 11  8  1  0  0  0  0
 11  3  1  0  0  0  0
 12 10  2  0  0  0  0
 13  1  2  0  0  0  0
 14 12  1  0  0  0  0
 15  7  1  0  0  0  0
 16 18  1  0  0  0  0
 17 16  2  0  0  0  0
 17 20  1  0  0  0  0
 18 19  1  0  0  0  0
 20 19  1  0  0  0  0
 21 20  2  0  0  0  0
 22 16  1  0  0  0  0
 23 26  2  0  0  0  0
 23 28  1  0  0  0  0
 24 29  1  0  0  0  0
 24  7  1  0  0  0  0
 25 24  2  0  0  0  0
 26 27  1  0  0  0  0
 27 29  1  0  0  0  0
 28 25  1  0  0  0  0
 30 23  1  0  0  0  0
 31 30  1  0  0  0  0
M  END
>  <MODEL>
6

>  <REMARK>
 VINA RESULT:      -6.3      3.706      8.066
  Name = 
  3 active torsions:
  status: ('A' for Active; 'I' for Inactive)
    1  A    between atoms: C_3  and  O_19
    2  A    between atoms: C_4  and  C_15
    3  A    between atoms: C_21  and  N_26
                            x       y       z     vdW  Elec       q    Type
                         _______ _______ _______ _____ _____    ______ ____

>  <TORSDO>
F 3

$$$$
=
 OpenBabel11052409443D

 31 35  0  0  1  0  0  0  0  0999 V2000
  160.6570  209.6560  152.4280 C   0  0  0  0  0  3  0  0  0  0  0  0
  160.7560  204.7780  153.5400 C   0  0  0  0  0  2  0  0  0  0  0  0
  161.9010  205.4430  151.6330 C   0  0  0  0  0  0  0  0  0  0  0  0
  161.0310  207.3220  153.0040 C   0  0  0  0  0  0  0  0  0  0  0  0
  161.2290  205.8920  152.6760 C   0  0  0  0  0  0  0  0  0  0  0  0
  160.0430  202.8230  152.3730 O   0  0  0  0  0  1  0  0  0  0  0  0
  161.5910  207.1870  149.9540 C   0  0  0  0  0  0  0  0  0  0  0  0
  161.1780  203.5100  152.8020 C   0  0  1  0  0  3  0  0  0  0  0  0
  160.9080  208.0860  150.6040 N   0  0  0  0  0  0  0  0  0  0  0  0
  160.5560  209.9930  153.7780 C   0  0  0  0  0  0  0  0  0  0  0  0
  161.9830  203.9660  151.5890 C   0  0  0  0  0  2  0  0  0  0  0  0
  160.6840  208.9880  154.7430 C   0  0  0  0  0  3  0  0  0  0  0  0
  160.9100  208.3420  152.0190 C   0  0  0  0  0  0  0  0  0  0  0  0
  160.9110  207.6680  154.3580 C   0  0  0  0  0  3  0  0  0  0  0  0
  162.5910  206.3230  150.6550 C   0  0  0  0  0  2  0  0  0  0  0  0
  159.0450  211.9720  154.4120 C   0  0  0  0  0  0  0  0  0  0  0  0
  157.9370  211.3160  154.3790 N   0  0  0  0  0  0  0  0  0  0  0  0
  158.9340  213.7120  154.8330 S   0  0  0  0  0  0  0  0  0  0  0  0
  157.1220  213.5500  154.9930 C   0  0  0  0  0  2  0  0  0  0  0  0
  156.8230  212.1290  154.6920 C   0  0  0  0  0  0  0  0  0  0  0  0
  155.6530  211.6680  154.7120 O   0  0  0  0  0  0  0  0  0  0  0  0
  160.3120  211.3620  154.1320 N   0  0  0  0  0  2  0  0  0  0  0  0
  161.2360  205.2980  145.9450 C   0  0  0  0  0  0  0  0  0  0  0  0
  161.4150  207.0440  148.4930 C   0  0  0  0  0  0  0  0  0  0  0  0
  160.3610  206.4000  147.9910 C   0  0  0  0  0  3  0  0  0  0  0  0
  162.5170  205.4740  146.1250 N   0  0  0  0  0  0  0  0  0  0  0  0
  163.1340  206.5010  146.8720 N   0  0  0  0  0  2  0  0  0  0  0  0
  160.1970  206.2300  146.5140 C   0  0  0  0  0  2  0  0  0  0  0  0
  162.4380  207.5910  147.5450 C   0  0  0  0  0  2  0  0  0  0  0  0
  160.8320  204.2050  145.1750 O   0  0  0  0  0  0  0  0  0  0  0  0
  161.0420  202.8590  145.5820 C   0  0  0  0  0  1  0  0  0  0  0  0
  1 10  1  0  0  0  0
  3  5  2  0  0  0  0
  4 14  2  0  0  0  0
  5  4  1  0  0  0  0
  5  2  1  0  0  0  0
  7  9  2  0  0  0  0
  7 15  1  0  0  0  0
  8  6  1  6  0  0  0
  8  2  1  0  0  0  0
  9 13  1  0  0  0  0
 10 22  1  0  0  0  0
 10 12  2  0  0  0  0
 11  3  1  0  0  0  0
 11  8  1  0  0  0  0
 13  1  2  0  0  0  0
 13  4  1  0  0  0  0
 14 12  1  0  0  0  0
 15  3  1  0  0  0  0
 16 18  1  0  0  0  0
 17 16  2  0  0  0  0
 17 20  1  0  0  0  0
 18 19  1  0  0  0  0
 20 21  2  0  0  0  0
 20 19  1  0  0  0  0
 22 16  1  0  0  0  0
 23 26  2  0  0  0  0
 23 28  1  0  0  0  0
 24  7  1  0  0  0  0
 25 24  2  0  0  0  0
 26 27  1  0  0  0  0
 27 29  1  0  0  0  0
 28 25  1  0  0  0  0
 29 24  1  0  0  0  0
 30 31  1  0  0  0  0
 30 23  1  0  0  0  0
M  END
>  <MODEL>
7

>  <REMARK>
 VINA RESULT:      -6.2      3.872      4.861
  Name = 
  3 active torsions:
  status: ('A' for Active; 'I' for Inactive)
    1  A    between atoms: C_3  and  O_19
    2  A    between atoms: C_4  and  C_15
    3  A    between atoms: C_21  and  N_26
                            x       y       z     vdW  Elec       q    Type
                         _______ _______ _______ _____ _____    ______ ____

>  <TORSDO>
F 3

$$$$
=
 OpenBabel11052409443D

 31 35  0  0  1  0  0  0  0  0999 V2000
  161.0110  207.7530  152.7550 C   0  0  0  0  0  3  0  0  0  0  0  0
  160.1520  211.0990  156.3760 C   0  0  0  0  0  2  0  0  0  0  0  0
  159.4530  211.6660  154.2360 C   0  0  0  0  0  0  0  0  0  0  0  0
  160.2730  209.3320  154.4530 C   0  0  0  0  0  0  0  0  0  0  0  0
  159.9730  210.6910  154.9570 C   0  0  0  0  0  0  0  0  0  0  0  0
  160.8330  213.3610  156.7030 O   0  0  0  0  0  1  0  0  0  0  0  0
  160.2580  211.2060  151.9790 C   0  0  0  0  0  0  0  0  0  0  0  0
  159.7260  212.5640  156.4140 C   0  0  1  0  0  3  0  0  0  0  0  0
  160.9120  210.0900  152.1350 N   0  0  0  0  0  0  0  0  0  0  0  0
  160.9050  206.6980  153.6620 C   0  0  0  0  0  0  0  0  0  0  0  0
  159.2100  212.8980  155.0180 C   0  0  0  0  0  2  0  0  0  0  0  0
  160.4920  206.9640  154.9720 C   0  0  0  0  0  3  0  0  0  0  0  0
  160.6860  209.0650  153.1180 C   0  0  0  0  0  0  0  0  0  0  0  0
  160.1870  208.2670  155.3620 C   0  0  0  0  0  3  0  0  0  0  0  0
  159.0560  211.5180  152.8130 C   0  0  0  0  0  2  0  0  0  0  0  0
  161.1820  204.8640  151.8840 C   0  0  0  0  0  0  0  0  0  0  0  0
  160.8130  205.5860  150.8820 N   0  0  0  0  0  0  0  0  0  0  0  0
  161.6340  203.1670  151.5250 S   0  0  0  0  0  0  0  0  0  0  0  0
  161.2760  203.4530  149.7570 C   0  0  0  0  0  2  0  0  0  0  0  0
  160.8400  204.8670  149.6650 C   0  0  0  0  0  0  0  0  0  0  0  0
  160.5120  205.4020  148.5740 O   0  0  0  0  0  0  0  0  0  0  0  0
  161.2390  205.3740  153.2230 N   0  0  0  0  0  2  0  0  0  0  0  0
  160.1400  213.7050  148.3030 C   0  0  0  0  0  0  0  0  0  0  0  0
  160.6760  212.1630  150.9320 C   0  0  0  0  0  0  0  0  0  0  0  0
  160.0190  213.3090  150.7520 C   0  0  0  0  0  3  0  0  0  0  0  0
  160.5870  212.5430  147.9100 N   0  0  0  0  0  0  0  0  0  0  0  0
  161.3530  211.6290  148.6660 N   0  0  0  0  0  2  0  0  0  0  0  0
  160.4220  214.2650  149.6750 C   0  0  0  0  0  2  0  0  0  0  0  0
  161.8270  211.8480  150.0270 C   0  0  0  0  0  2  0  0  0  0  0  0
  159.3880  214.4530  147.3960 O   0  0  0  0  0  0  0  0  0  0  0  0
  159.1370  214.0210  146.0650 C   0  0  0  0  0  1  0  0  0  0  0  0
  1 13  2  0  0  0  0
  1 10  1  0  0  0  0
  2  8  1  0  0  0  0
  3  5  2  0  0  0  0
  3 11  1  0  0  0  0
  4  5  1  0  0  0  0
  4 14  2  0  0  0  0
  5  2  1  0  0  0  0
  7  9  2  0  0  0  0
  7 15  1  0  0  0  0
  8  6  1  6  0  0  0
  9 13  1  0  0  0  0
 10 12  2  0  0  0  0
 11  8  1  0  0  0  0
 12 14  1  0  0  0  0
 13  4  1  0  0  0  0
 15  3  1  0  0  0  0
 16 22  1  0  0  0  0
 17 16  2  0  0  0  0
 18 16  1  0  0  0  0
 19 18  1  0  0  0  0
 20 19  1  0  0  0  0
 20 17  1  0  0  0  0
 21 20  2  0  0  0  0
 22 10  1  0  0  0  0
 23 28  1  0  0  0  0
 24  7  1  0  0  0  0
 25 24  2  0  0  0  0
 26 23  2  0  0  0  0
 26 27  1  0  0  0  0
 27 29  1  0  0  0  0
 28 25  1  0  0  0  0
 29 24  1  0  0  0  0
 30 23  1  0  0  0  0
 31 30  1  0  0  0  0
M  END
>  <MODEL>
8

>  <REMARK>
 VINA RESULT:      -6.0      3.601      8.292
  Name = 
  3 active torsions:
  status: ('A' for Active; 'I' for Inactive)
    1  A    between atoms: C_3  and  O_19
    2  A    between atoms: C_4  and  C_15
    3  A    between atoms: C_21  and  N_26
                            x       y       z     vdW  Elec       q    Type
                         _______ _______ _______ _____ _____    ______ ____

>  <TORSDO>
F 3

$$$$
=
 OpenBabel11052409443D

 31 35  0  0  1  0  0  0  0  0999 V2000
  160.7060  210.6650  152.7940 C   0  0  0  0  0  3  0  0  0  0  0  0
  161.2150  206.7630  149.7030 C   0  0  0  0  0  2  0  0  0  0  0  0
  162.1460  208.7750  149.0150 C   0  0  0  0  0  0  0  0  0  0  0  0
  161.2780  208.7990  151.3410 C   0  0  0  0  0  0  0  0  0  0  0  0
  161.5390  208.1780  150.0230 C   0  0  0  0  0  0  0  0  0  0  0  0
  160.5320  206.3630  147.4530 O   0  0  0  0  0  1  0  0  0  0  0  0
  161.5810  211.1300  149.3140 C   0  0  0  0  0  0  0  0  0  0  0  0
  161.6530  206.5840  148.2520 C   0  0  1  0  0  3  0  0  0  0  0  0
  160.9000  211.1180  150.4240 N   0  0  0  0  0  0  0  0  0  0  0  0
  160.7000  209.8230  153.9060 C   0  0  0  0  0  0  0  0  0  0  0  0
  162.3190  207.8920  147.8400 C   0  0  0  0  0  2  0  0  0  0  0  0
  160.9740  208.4620  153.7320 C   0  0  0  0  0  3  0  0  0  0  0  0
  161.0070  210.1850  151.5140 C   0  0  0  0  0  0  0  0  0  0  0  0
  161.2530  207.9580  152.4630 C   0  0  0  0  0  3  0  0  0  0  0  0
  162.6920  210.1550  149.0800 C   0  0  0  0  0  2  0  0  0  0  0  0
  159.1790  211.0150  155.6000 C   0  0  0  0  0  0  0  0  0  0  0  0
  158.1710  211.1500  154.8090 N   0  0  0  0  0  0  0  0  0  0  0  0
  158.9870  211.6630  157.2610 S   0  0  0  0  0  0  0  0  0  0  0  0
  157.2930  212.2040  156.8460 C   0  0  0  0  0  2  0  0  0  0  0  0
  157.0830  211.8030  155.4340 C   0  0  0  0  0  0  0  0  0  0  0  0
  156.0070  212.0270  154.8220 O   0  0  0  0  0  0  0  0  0  0  0  0
  160.3990  210.3810  155.1930 N   0  0  0  0  0  2  0  0  0  0  0  0
  161.9560  213.5730  145.6180 C   0  0  0  0  0  0  0  0  0  0  0  0
  161.2900  212.1500  148.2840 C   0  0  0  0  0  0  0  0  0  0  0  0
  160.9680  211.7930  147.0400 C   0  0  0  0  0  3  0  0  0  0  0  0
  162.7070  214.1750  146.5010 N   0  0  0  0  0  0  0  0  0  0  0  0
  162.5090  214.2090  147.8980 N   0  0  0  0  0  2  0  0  0  0  0  0
  160.7010  212.8240  145.9900 C   0  0  0  0  0  2  0  0  0  0  0  0
  161.3860  213.6090  148.6080 C   0  0  0  0  0  2  0  0  0  0  0  0
  162.3370  213.6530  144.2780 O   0  0  0  0  0  0  0  0  0  0  0  0
  163.6970  213.7030  143.8670 C   0  0  0  0  0  1  0  0  0  0  0  0
  1 10  1  0  0  0  0
  2  5  1  0  0  0  0
  3 15  1  0  0  0  0
  3  5  2  0  0  0  0
  4 13  1  0  0  0  0
  4 14  2  0  0  0  0
  5  4  1  0  0  0  0
  7  9  2  0  0  0  0
  8  6  1  6  0  0  0
  8  2  1  0  0  0  0
  9 13  1  0  0  0  0
 10 22  1  0  0  0  0
 11  8  1  0  0  0  0
 11  3  1  0  0  0  0
 12 10  2  0  0  0  0
 13  1  2  0  0  0  0
 14 12  1  0  0  0  0
 15  7  1  0  0  0  0
 16 18  1  0  0  0  0
 17 20  1  0  0  0  0
 17 16  2  0  0  0  0
 19 18  1  0  0  0  0
 20 19  1  0  0  0  0
 21 20  2  0  0  0  0
 22 16  1  0  0  0  0
 23 28  1  0  0  0  0
 23 26  2  0  0  0  0
 24 29  1  0  0  0  0
 24  7  1  0  0  0  0
 25 24  2  0  0  0  0
 26 27  1  0  0  0  0
 27 29  1  0  0  0  0
 28 25  1  0  0  0  0
 30 23  1  0  0  0  0
 31 30  1  0  0  0  0
M  END
>  <MODEL>
9

>  <REMARK>
 VINA RESULT:      -5.7      4.181      8.042
  Name = 
  3 active torsions:
  status: ('A' for Active; 'I' for Inactive)
    1  A    between atoms: C_3  and  O_19
    2  A    between atoms: C_4  and  C_15
    3  A    between atoms: C_21  and  N_26
                            x       y       z     vdW  Elec       q    Type
                         _______ _______ _______ _____ _____    ______ ____

>  <TORSDO>
F 3

$$$$
