=
 OpenBabel11052411323D

 58 62  0  0  1  0  0  0  0  0999 V2000
  162.2800  205.7090  146.7370 C   0  0  0  0  0  3  0  0  0  0  0  0
  161.6680  205.0560  145.7300 C   0  0  0  0  0  0  0  0  0  0  0  0
  160.9840  205.7850  144.6040 C   0  0  0  0  0  2  0  0  0  0  0  0
  161.7750  205.6600  143.3050 C   0  0  0  0  0  2  0  0  0  0  0  0
  161.6580  206.9380  142.4900 C   0  0  0  0  0  2  0  0  0  0  0  0
  161.7000  206.6300  141.0000 C   0  0  2  0  0  3  0  0  0  0  0  0
  162.9460  205.8250  140.6470 C   0  0  0  0  0  1  0  0  0  0  0  0
  161.5700  207.9160  140.1660 C   0  0  2  0  0  3  0  0  0  0  0  0
  161.7400  208.7300  137.7000 C   0  0  1  0  0  3  0  0  0  0  0  0
  162.3100  207.8390  138.8200 C   0  0  2  0  0  3  0  0  0  0  0  0
  161.4060  207.2480  137.7550 C   0  0  0  0  0  2  0  0  0  0  0  0
  155.7670  210.4040  138.6950 C   0  0  1  0  0  3  0  0  0  0  0  0
  156.1440  211.3760  139.6430 O   0  0  0  0  0  0  0  0  0  0  0  0
  158.4030  211.2510  138.7830 C   0  0  0  0  0  0  0  0  0  0  0  0
  159.2730  209.0600  138.1900 C   0  0  0  0  0  3  0  0  0  0  0  0
  159.6880  211.7920  138.6330 C   0  0  0  0  0  3  0  0  0  0  0  0
  160.5670  209.5930  138.0960 C   0  0  0  0  0  0  0  0  0  0  0  0
  158.1930  209.8830  138.5210 C   0  0  0  0  0  0  0  0  0  0  0  0
  157.1950  212.1260  139.0700 C   0  0  2  0  0  3  0  0  0  0  0  0
  156.8200  209.2910  138.6400 C   0  0  0  0  0  2  0  0  0  0  0  0
  160.7640  210.9660  138.2940 C   0  0  0  0  0  3  0  0  0  0  0  0
  158.3070  213.0760  141.1430 N   0  0  0  0  0  1  0  0  0  0  0  0
  157.5260  213.2770  139.9680 C   0  0  0  0  0  0  0  0  0  0  0  0
  157.1220  214.4320  139.6740 O   0  0  0  0  0  0  0  0  0  0  0  0
  154.5040  208.5120  139.4680 O   0  0  0  0  0  1  0  0  0  0  0  0
  154.3960  209.8370  139.0360 C   0  0  0  0  0  2  0  0  0  0  0  0
  161.8810  209.2120  140.9310 C   0  0  0  0  0  2  0  0  0  0  0  0
  163.1650  209.8840  140.4700 C   0  0  0  0  0  1  0  0  0  0  0  0
  162.3650  207.2010  146.8120 C   0  0  0  0  0  2  0  0  0  0  0  0
  162.2330  208.4870  148.9090 C   0  0  1  0  0  3  0  0  0  0  0  0
  161.4290  207.7060  147.8880 C   0  0  1  0  0  3  0  0  0  0  0  0
  161.4230  209.2220  147.8640 C   0  0  0  0  0  2  0  0  0  0  0  0
  161.6350  209.5600  151.1140 C   0  0  0  0  0  0  0  0  0  0  0  0
  162.3800  210.5510  150.8690 O   0  0  0  0  0  0  0  0  0  0  0  0
  161.5120  208.4940  150.1720 N   0  0  0  0  0  2  0  0  0  0  0  0
  160.0340  210.7150  152.6410 C   0  0  0  0  0  2  0  0  0  0  0  0
  161.1040  208.8530  154.6260 C   0  0  1  0  0  3  0  0  0  0  0  0
  159.8170  210.9620  154.1380 C   0  0  2  0  0  3  0  0  0  0  0  0
  160.9050  209.4720  152.4120 C   0  0  2  0  0  3  0  0  0  0  0  0
  161.8150  209.2910  153.4750 O   0  0  0  0  0  0  0  0  0  0  0  0
  159.8100  209.6430  154.9060 C   0  0  0  0  0  2  0  0  0  0  0  0
  160.0600  206.9250  155.8170 C   0  0  0  0  0  1  0  0  0  0  0  0
  160.8280  207.3530  154.5820 C   0  0  0  0  0  2  0  0  0  0  0  0
  158.5160  211.7110  154.3740 C   0  0  0  0  0  2  0  0  0  0  0  0
  155.5870  210.6660  156.3190 O   0  0  0  0  0  1  0  0  0  0  0  0
  155.9440  212.7070  155.3320 O   0  0  0  0  0  0  0  0  0  0  0  0
  156.3420  211.4060  155.6340 C   0  0  0  0  0  0  0  0  0  0  0  0
  157.6050  210.9060  155.1790 N   0  0  0  0  0  2  0  0  0  0  0  0
  161.6250  203.5540  145.7130 C   0  0  2  0  0  3  0  0  0  0  0  0
  160.2830  203.0710  145.1620 C   0  0  0  0  0  2  0  0  0  0  0  0
  159.0990  200.9890  144.6370 C   0  0  0  0  0  2  0  0  0  0  0  0
  160.1740  201.5780  145.1610 C   0  0  0  0  0  0  0  0  0  0  0  0
  161.1190  200.7850  146.0020 C   0  0  0  0  0  2  0  0  0  0  0  0
  161.0040  199.3060  145.6900 C   0  0  0  0  0  1  0  0  0  0  0  0
  161.9060  202.9900  147.1020 C   0  0  0  0  0  2  0  0  0  0  0  0
  160.9840  203.6240  148.1300 C   0  0  0  0  0  2  0  0  0  0  0  0
  160.7950  203.4290  150.6120 C   0  0  0  0  0  1  0  0  0  0  0  0
  160.7530  202.6760  149.2930 C   0  0  0  0  0  2  0  0  0  0  0  0
  1 29  1  0  0  0  0
  2  1  2  0  0  0  0
  3  2  1  0  0  0  0
  4  3  1  0  0  0  0
  5  4  1  0  0  0  0
  6  7  1  1  0  0  0
  6  5  1  0  0  0  0
  8 27  1  1  0  0  0
  8  6  1  0  0  0  0
  9 11  1  0  0  0  0
  9 17  1  1  0  0  0
  9 10  1  0  0  0  0
 10  8  1  1  0  0  0
 11 10  1  0  0  0  0
 12 26  1  1  0  0  0
 12 13  1  0  0  0  0
 14 19  1  0  0  0  0
 15 18  1  0  0  0  0
 16 14  1  0  0  0  0
 17 15  2  0  0  0  0
 17 21  1  0  0  0  0
 18 20  1  0  0  0  0
 18 14  2  0  0  0  0
 19 13  1  0  0  0  0
 19 23  1  1  0  0  0
 20 12  1  0  0  0  0
 21 16  2  0  0  0  0
 23 22  1  0  0  0  0
 24 23  2  0  0  0  0
 26 25  1  0  0  0  0
 28 27  1  0  0  0  0
 30 35  1  1  0  0  0
 31 29  1  6  0  0  0
 31 30  1  0  0  0  0
 32 31  1  0  0  0  0
 32 30  1  0  0  0  0
 34 33  2  0  0  0  0
 35 33  1  0  0  0  0
 36 38  1  0  0  0  0
 37 43  1  6  0  0  0
 37 41  1  0  0  0  0
 38 44  1  6  0  0  0
 38 41  1  0  0  0  0
 39 33  1  6  0  0  0
 39 36  1  0  0  0  0
 39 40  1  0  0  0  0
 40 37  1  0  0  0  0
 43 42  1  0  0  0  0
 44 48  1  0  0  0  0
 46 47  2  0  0  0  0
 47 45  1  0  0  0  0
 48 47  1  0  0  0  0
 49 50  1  1  0  0  0
 49  2  1  0  0  0  0
 49 55  1  0  0  0  0
 51 52  2  0  0  0  0
 52 50  1  0  0  0  0
 52 53  1  0  0  0  0
 54 53  1  0  0  0  0
 55 56  1  0  0  0  0
 56 58  1  0  0  0  0
 58 57  1  0  0  0  0
M  END
>  <MODEL>
1

>  <REMARK>
 VINA RESULT:      -2.7      0.000      0.000
  Name = 
  24 active torsions:
  status: ('A' for Active; 'I' for Inactive)
    1  A    between atoms: C_1  and  C_39
    2  A    between atoms: C_2  and  C_37
    3  A    between atoms: C_2  and  N_56
    4  A    between atoms: C_3  and  C_38
    5  A    between atoms: C_3  and  C_47
    6  A    between atoms: C_4  and  C_33
    7  A    between atoms: C_5  and  C_48
    8  A    between atoms: C_7  and  C_41
    9  A    between atoms: C_12  and  C_55
   10  A    between atoms: C_13  and  C_38
   11  A    between atoms: C_15  and  C_26
   12  A    between atoms: C_15  and  C_28
   13  A    between atoms: C_15  and  C_54
   14  A    between atoms: C_16  and  C_49
   15  A    between atoms: C_17  and  C_28
   16  A    between atoms: C_17  and  C_32
   17  A    between atoms: C_18  and  C_46
   18  A    between atoms: C_19  and  C_38
   19  A    between atoms: C_21  and  N_52
   20  A    between atoms: C_26  and  C_30
   21  A    between atoms: C_30  and  C_44
   22  A    between atoms: C_31  and  C_55
   23  A    between atoms: C_32  and  C_47
   24  A    between atoms: C_33  and  C_54
                            x       y       z     vdW  Elec       q    Type
                         _______ _______ _______ _____ _____    ______ ____

>  <TORSDO>
F 24

$$$$
=
 OpenBabel11052411323D

 58 62  0  0  1  0  0  0  0  0999 V2000
  160.4030  212.2260  148.8910 C   0  0  0  0  0  3  0  0  0  0  0  0
  160.1470  212.6670  150.1380 C   0  0  0  0  0  0  0  0  0  0  0  0
  161.1690  212.5860  151.2400 C   0  0  0  0  0  2  0  0  0  0  0  0
  161.6810  211.1590  151.4140 C   0  0  0  0  0  2  0  0  0  0  0  0
  161.1600  210.5650  152.7130 C   0  0  0  0  0  2  0  0  0  0  0  0
  160.1050  209.5040  152.4340 C   0  0  2  0  0  3  0  0  0  0  0  0
  159.0260  209.5140  153.5110 C   0  0  0  0  0  1  0  0  0  0  0  0
  160.7490  208.1190  152.2540 C   0  0  2  0  0  3  0  0  0  0  0  0
  162.1410  206.2520  153.4150 C   0  0  1  0  0  3  0  0  0  0  0  0
  161.6320  207.7050  153.4420 C   0  0  2  0  0  3  0  0  0  0  0  0
  160.9410  206.6350  154.2650 C   0  0  0  0  0  2  0  0  0  0  0  0
  161.3950  204.7880  147.3520 C   0  0  1  0  0  3  0  0  0  0  0  0
  161.3520  203.4090  147.6370 O   0  0  0  0  0  0  0  0  0  0  0  0
  160.9340  203.9630  149.9550 C   0  0  0  0  0  0  0  0  0  0  0  0
  162.1500  205.8380  150.9130 C   0  0  0  0  0  3  0  0  0  0  0  0
  160.4830  203.6140  151.2370 C   0  0  0  0  0  3  0  0  0  0  0  0
  161.7440  205.4520  152.1990 C   0  0  0  0  0  0  0  0  0  0  0  0
  161.7410  205.1070  149.7940 C   0  0  0  0  0  0  0  0  0  0  0  0
  160.4520  203.2370  148.7120 C   0  0  2  0  0  3  0  0  0  0  0  0
  162.2040  205.5210  148.4290 C   0  0  0  0  0  2  0  0  0  0  0  0
  160.8890  204.3530  152.3510 C   0  0  0  0  0  3  0  0  0  0  0  0
  161.1990  200.8230  148.4930 N   0  0  0  0  0  1  0  0  0  0  0  0
  160.2430  201.7750  148.9510 C   0  0  0  0  0  0  0  0  0  0  0  0
  159.2200  201.3860  149.5740 O   0  0  0  0  0  0  0  0  0  0  0  0
  161.3400  204.2440  145.0110 O   0  0  0  0  0  1  0  0  0  0  0  0
  161.9920  205.0230  145.9710 C   0  0  0  0  0  2  0  0  0  0  0  0
  161.4500  207.9070  150.9030 C   0  0  0  0  0  2  0  0  0  0  0  0
  162.7440  208.6950  150.7720 C   0  0  0  0  0  1  0  0  0  0  0  0
  161.7220  211.6500  148.4820 C   0  0  0  0  0  2  0  0  0  0  0  0
  161.3040  213.4700  146.8740 C   0  0  1  0  0  3  0  0  0  0  0  0
  162.1310  212.2290  147.1440 C   0  0  1  0  0  3  0  0  0  0  0  0
  162.7290  213.6040  147.3650 C   0  0  0  0  0  2  0  0  0  0  0  0
  160.4420  212.9340  144.5640 C   0  0  0  0  0  0  0  0  0  0  0  0
  159.7060  212.0140  145.0180 O   0  0  0  0  0  0  0  0  0  0  0  0
  161.2640  213.7060  145.4390 N   0  0  0  0  0  2  0  0  0  0  0  0
  161.9420  213.2350  142.5920 C   0  0  0  0  0  2  0  0  0  0  0  0
  159.5680  214.4520  141.3940 C   0  0  1  0  0  3  0  0  0  0  0  0
  162.0610  214.1050  141.3350 C   0  0  2  0  0  3  0  0  0  0  0  0
  160.4930  213.1980  143.0960 C   0  0  2  0  0  3  0  0  0  0  0  0
  159.8230  214.4020  142.7920 O   0  0  0  0  0  0  0  0  0  0  0  0
  160.7730  214.0520  140.5190 C   0  0  0  0  0  2  0  0  0  0  0  0
  158.2560  213.4690  139.5130 C   0  0  0  0  0  1  0  0  0  0  0  0
  158.3290  213.6450  141.0170 C   0  0  0  0  0  2  0  0  0  0  0  0
  163.2380  213.6560  140.4840 C   0  0  0  0  0  2  0  0  0  0  0  0
  162.3200  210.8800  138.2690 O   0  0  0  0  0  0  0  0  0  0  0  0
  163.1940  210.7380  140.3860 O   0  0  0  0  0  1  0  0  0  0  0  0
  162.7450  211.4760  139.2940 C   0  0  0  0  0  0  0  0  0  0  0  0
  162.7690  212.9090  139.3220 N   0  0  0  0  0  2  0  0  0  0  0  0
  158.8010  213.2410  150.4790 C   0  0  2  0  0  3  0  0  0  0  0  0
  158.4540  214.3800  149.5180 C   0  0  0  0  0  2  0  0  0  0  0  0
  156.0530  214.3890  149.0240 C   0  0  0  0  0  2  0  0  0  0  0  0
  157.2840  214.0480  148.6450 C   0  0  0  0  0  0  0  0  0  0  0  0
  157.4750  213.0890  147.5160 C   0  0  0  0  0  2  0  0  0  0  0  0
  156.7540  213.5730  146.2730 C   0  0  0  0  0  1  0  0  0  0  0  0
  158.7600  213.6940  151.9350 C   0  0  0  0  0  2  0  0  0  0  0  0
  157.8890  212.7580  152.7570 C   0  0  0  0  0  2  0  0  0  0  0  0
  156.6280  212.8030  154.9120 C   0  0  0  0  0  1  0  0  0  0  0  0
  156.9280  213.5520  153.6240 C   0  0  0  0  0  2  0  0  0  0  0  0
  1  2  2  0  0  0  0
  2 49  1  0  0  0  0
  2  3  1  0  0  0  0
  3  4  1  0  0  0  0
  4  5  1  0  0  0  0
  6  5  1  0  0  0  0
  6  7  1  1  0  0  0
  8 27  1  6  0  0  0
  8  6  1  0  0  0  0
  9 17  1  6  0  0  0
  9 10  1  0  0  0  0
  9 11  1  0  0  0  0
 10  8  1  6  0  0  0
 10 11  1  0  0  0  0
 12 26  1  6  0  0  0
 12 13  1  0  0  0  0
 12 20  1  0  0  0  0
 13 19  1  0  0  0  0
 14 16  1  0  0  0  0
 15 17  2  0  0  0  0
 16 21  2  0  0  0  0
 17 21  1  0  0  0  0
 18 14  2  0  0  0  0
 18 15  1  0  0  0  0
 19 23  1  1  0  0  0
 19 14  1  0  0  0  0
 20 18  1  0  0  0  0
 22 23  1  0  0  0  0
 23 24  2  0  0  0  0
 25 26  1  0  0  0  0
 28 27  1  0  0  0  0
 29  1  1  0  0  0  0
 30 35  1  6  0  0  0
 30 31  1  0  0  0  0
 30 32  1  0  0  0  0
 31 32  1  0  0  0  0
 31 29  1  1  0  0  0
 33 34  2  0  0  0  0
 33 35  1  0  0  0  0
 36 39  1  0  0  0  0
 37 43  1  1  0  0  0
 37 40  1  0  0  0  0
 38 44  1  6  0  0  0
 38 36  1  0  0  0  0
 39 33  1  1  0  0  0
 40 39  1  0  0  0  0
 41 38  1  0  0  0  0
 41 37  1  0  0  0  0
 42 43  1  0  0  0  0
 45 47  2  0  0  0  0
 47 48  1  0  0  0  0
 47 46  1  0  0  0  0
 48 44  1  0  0  0  0
 49 50  1  6  0  0  0
 49 55  1  0  0  0  0
 52 51  2  0  0  0  0
 52 50  1  0  0  0  0
 53 52  1  0  0  0  0
 54 53  1  0  0  0  0
 55 56  1  0  0  0  0
 56 58  1  0  0  0  0
 58 57  1  0  0  0  0
M  END
>  <MODEL>
2

>  <REMARK>
 VINA RESULT:      -2.7      4.345     12.749
  Name = 
  24 active torsions:
  status: ('A' for Active; 'I' for Inactive)
    1  A    between atoms: C_1  and  C_39
    2  A    between atoms: C_2  and  C_37
    3  A    between atoms: C_2  and  N_56
    4  A    between atoms: C_3  and  C_38
    5  A    between atoms: C_3  and  C_47
    6  A    between atoms: C_4  and  C_33
    7  A    between atoms: C_5  and  C_48
    8  A    between atoms: C_7  and  C_41
    9  A    between atoms: C_12  and  C_55
   10  A    between atoms: C_13  and  C_38
   11  A    between atoms: C_15  and  C_26
   12  A    between atoms: C_15  and  C_28
   13  A    between atoms: C_15  and  C_54
   14  A    between atoms: C_16  and  C_49
   15  A    between atoms: C_17  and  C_28
   16  A    between atoms: C_17  and  C_32
   17  A    between atoms: C_18  and  C_46
   18  A    between atoms: C_19  and  C_38
   19  A    between atoms: C_21  and  N_52
   20  A    between atoms: C_26  and  C_30
   21  A    between atoms: C_30  and  C_44
   22  A    between atoms: C_31  and  C_55
   23  A    between atoms: C_32  and  C_47
   24  A    between atoms: C_33  and  C_54
                            x       y       z     vdW  Elec       q    Type
                         _______ _______ _______ _____ _____    ______ ____

>  <TORSDO>
F 24

$$$$
=
 OpenBabel11052411323D

 58 62  0  0  1  0  0  0  0  0999 V2000
  161.1110  212.0690  149.0430 C   0  0  0  0  0  3  0  0  0  0  0  0
  160.3720  213.1950  149.0400 C   0  0  0  0  0  0  0  0  0  0  0  0
  159.7680  213.7580  150.2980 C   0  0  0  0  0  2  0  0  0  0  0  0
  159.8280  212.7480  151.4400 C   0  0  0  0  0  2  0  0  0  0  0  0
  159.4390  213.4090  152.7520 C   0  0  0  0  0  2  0  0  0  0  0  0
  157.9860  213.1120  153.0930 C   0  0  2  0  0  3  0  0  0  0  0  0
  157.0440  213.9200  152.2080 C   0  0  0  0  0  1  0  0  0  0  0  0
  157.7160  213.3210  154.5920 C   0  0  2  0  0  3  0  0  0  0  0  0
  159.9690  213.5800  155.8700 C   0  0  1  0  0  3  0  0  0  0  0  0
  158.7300  214.2640  155.2610 C   0  0  2  0  0  3  0  0  0  0  0  0
  158.8000  213.9900  156.7510 C   0  0  0  0  0  2  0  0  0  0  0  0
  161.2020  208.0760  153.1020 C   0  0  1  0  0  3  0  0  0  0  0  0
  161.2340  207.4030  154.3400 O   0  0  0  0  0  0  0  0  0  0  0  0
  160.0950  209.2950  155.3300 C   0  0  0  0  0  0  0  0  0  0  0  0
  160.7570  211.5220  154.6140 C   0  0  0  0  0  3  0  0  0  0  0  0
  159.3320  209.8640  156.3600 C   0  0  0  0  0  3  0  0  0  0  0  0
  160.0390  212.0850  155.6790 C   0  0  0  0  0  0  0  0  0  0  0  0
  160.7790  210.1370  154.4310 C   0  0  0  0  0  0  0  0  0  0  0  0
  160.0840  207.8010  155.0560 C   0  0  2  0  0  3  0  0  0  0  0  0
  161.5720  209.5520  153.2990 C   0  0  0  0  0  2  0  0  0  0  0  0
  159.3070  211.2500  156.5340 C   0  0  0  0  0  3  0  0  0  0  0  0
  161.0490  206.9850  157.2550 N   0  0  0  0  0  1  0  0  0  0  0  0
  159.9810  206.9940  156.3120 C   0  0  0  0  0  0  0  0  0  0  0  0
  158.9380  206.3280  156.5400 O   0  0  0  0  0  0  0  0  0  0  0  0
  162.2170  206.0320  152.3490 O   0  0  0  0  0  1  0  0  0  0  0  0
  162.1470  207.4080  152.1130 C   0  0  0  0  0  2  0  0  0  0  0  0
  157.5020  212.0280  155.3940 C   0  0  0  0  0  2  0  0  0  0  0  0
  156.2300  211.2900  155.0060 C   0  0  0  0  0  1  0  0  0  0  0  0
  161.4240  211.3000  150.2880 C   0  0  0  0  0  2  0  0  0  0  0  0
  161.8350  209.6600  148.4950 C   0  0  1  0  0  3  0  0  0  0  0  0
  161.4970  209.8230  149.9640 C   0  0  1  0  0  3  0  0  0  0  0  0
  162.9120  209.4810  149.5420 C   0  0  0  0  0  2  0  0  0  0  0  0
  162.2340  207.2160  148.0080 C   0  0  0  0  0  0  0  0  0  0  0  0
  163.4390  207.3080  148.3760 O   0  0  0  0  0  0  0  0  0  0  0  0
  161.3740  208.3550  148.0480 N   0  0  0  0  0  2  0  0  0  0  0  0
  161.3680  204.9610  148.6360 C   0  0  0  0  0  2  0  0  0  0  0  0
  161.9750  204.3220  145.8470 C   0  0  1  0  0  3  0  0  0  0  0  0
  161.4590  203.5030  148.1710 C   0  0  2  0  0  3  0  0  0  0  0  0
  161.7050  205.9220  147.4870 C   0  0  2  0  0  3  0  0  0  0  0  0
  162.6290  205.3380  146.5960 O   0  0  0  0  0  0  0  0  0  0  0  0
  161.0930  203.3830  146.6950 C   0  0  0  0  0  2  0  0  0  0  0  0
  160.1040  203.9320  144.2420 C   0  0  0  0  0  1  0  0  0  0  0  0
  161.1840  204.9020  144.6780 C   0  0  0  0  0  2  0  0  0  0  0  0
  160.5500  202.6180  149.0090 C   0  0  0  0  0  2  0  0  0  0  0  0
  161.8700  202.0330  152.3820 O   0  0  0  0  0  1  0  0  0  0  0  0
  160.4320  203.6950  151.7210 O   0  0  0  0  0  0  0  0  0  0  0  0
  161.2170  202.5750  151.4520 C   0  0  0  0  0  0  0  0  0  0  0  0
  161.2930  202.0400  150.1240 N   0  0  0  0  0  2  0  0  0  0  0  0
  160.1010  213.9220  147.7530 C   0  0  2  0  0  3  0  0  0  0  0  0
  159.0550  213.1660  146.9310 C   0  0  0  0  0  2  0  0  0  0  0  0
  157.0520  214.0780  145.8500 C   0  0  0  0  0  2  0  0  0  0  0  0
  157.7110  213.8250  146.9800 C   0  0  0  0  0  0  0  0  0  0  0  0
  157.2620  214.4530  148.2580 C   0  0  0  0  0  2  0  0  0  0  0  0
  156.0290  213.7530  148.7970 C   0  0  0  0  0  1  0  0  0  0  0  0
  161.3930  214.1360  146.9700 C   0  0  0  0  0  2  0  0  0  0  0  0
  161.1740  213.8460  145.4950 C   0  0  0  0  0  2  0  0  0  0  0  0
  163.4940  212.9700  145.7910 C   0  0  0  0  0  1  0  0  0  0  0  0
  162.4980  213.5630  144.8070 C   0  0  0  0  0  2  0  0  0  0  0  0
  1 29  1  0  0  0  0
  2  1  2  0  0  0  0
  2  3  1  0  0  0  0
  3  4  1  0  0  0  0
  4  5  1  0  0  0  0
  5  6  1  0  0  0  0
  6  7  1  6  0  0  0
  6  8  1  0  0  0  0
  8 27  1  1  0  0  0
  9 17  1  6  0  0  0
  9 11  1  0  0  0  0
 10  8  1  6  0  0  0
 10  9  1  0  0  0  0
 10 11  1  0  0  0  0
 12 26  1  6  0  0  0
 12 20  1  0  0  0  0
 12 13  1  0  0  0  0
 13 19  1  0  0  0  0
 14 16  1  0  0  0  0
 15 17  2  0  0  0  0
 16 21  2  0  0  0  0
 17 21  1  0  0  0  0
 18 15  1  0  0  0  0
 18 14  2  0  0  0  0
 19 14  1  0  0  0  0
 19 23  1  1  0  0  0
 20 18  1  0  0  0  0
 23 24  2  0  0  0  0
 23 22  1  0  0  0  0
 26 25  1  0  0  0  0
 28 27  1  0  0  0  0
 30 35  1  1  0  0  0
 30 32  1  0  0  0  0
 30 31  1  0  0  0  0
 31 29  1  6  0  0  0
 32 31  1  0  0  0  0
 33 35  1  0  0  0  0
 33 34  2  0  0  0  0
 37 43  1  6  0  0  0
 37 40  1  0  0  0  0
 37 41  1  0  0  0  0
 38 36  1  0  0  0  0
 38 44  1  1  0  0  0
 39 33  1  1  0  0  0
 39 36  1  0  0  0  0
 40 39  1  0  0  0  0
 41 38  1  0  0  0  0
 42 43  1  0  0  0  0
 44 48  1  0  0  0  0
 47 46  2  0  0  0  0
 47 45  1  0  0  0  0
 48 47  1  0  0  0  0
 49 50  1  6  0  0  0
 49  2  1  0  0  0  0
 50 52  1  0  0  0  0
 51 52  2  0  0  0  0
 52 53  1  0  0  0  0
 53 54  1  0  0  0  0
 55 49  1  0  0  0  0
 56 55  1  0  0  0  0
 58 56  1  0  0  0  0
 58 57  1  0  0  0  0
M  END
>  <MODEL>
3

>  <REMARK>
 VINA RESULT:      -1.7      5.350     13.070
  Name = 
  24 active torsions:
  status: ('A' for Active; 'I' for Inactive)
    1  A    between atoms: C_1  and  C_39
    2  A    between atoms: C_2  and  C_37
    3  A    between atoms: C_2  and  N_56
    4  A    between atoms: C_3  and  C_38
    5  A    between atoms: C_3  and  C_47
    6  A    between atoms: C_4  and  C_33
    7  A    between atoms: C_5  and  C_48
    8  A    between atoms: C_7  and  C_41
    9  A    between atoms: C_12  and  C_55
   10  A    between atoms: C_13  and  C_38
   11  A    between atoms: C_15  and  C_26
   12  A    between atoms: C_15  and  C_28
   13  A    between atoms: C_15  and  C_54
   14  A    between atoms: C_16  and  C_49
   15  A    between atoms: C_17  and  C_28
   16  A    between atoms: C_17  and  C_32
   17  A    between atoms: C_18  and  C_46
   18  A    between atoms: C_19  and  C_38
   19  A    between atoms: C_21  and  N_52
   20  A    between atoms: C_26  and  C_30
   21  A    between atoms: C_30  and  C_44
   22  A    between atoms: C_31  and  C_55
   23  A    between atoms: C_32  and  C_47
   24  A    between atoms: C_33  and  C_54
                            x       y       z     vdW  Elec       q    Type
                         _______ _______ _______ _____ _____    ______ ____

>  <TORSDO>
F 24

$$$$
=
 OpenBabel11052411323D

 58 62  0  0  1  0  0  0  0  0999 V2000
  160.4240  212.1450  149.4620 C   0  0  0  0  0  3  0  0  0  0  0  0
  160.0460  212.3840  150.7320 C   0  0  0  0  0  0  0  0  0  0  0  0
  161.0260  212.3680  151.8750 C   0  0  0  0  0  2  0  0  0  0  0  0
  161.8150  211.0620  151.9070 C   0  0  0  0  0  2  0  0  0  0  0  0
  161.4950  210.2820  153.1720 C   0  0  0  0  0  2  0  0  0  0  0  0
  160.4250  209.2340  152.9000 C   0  0  2  0  0  3  0  0  0  0  0  0
  159.5330  209.0400  154.1210 C   0  0  0  0  0  1  0  0  0  0  0  0
  161.0510  207.9190  152.4080 C   0  0  2  0  0  3  0  0  0  0  0  0
  162.1280  205.6660  153.1420 C   0  0  1  0  0  3  0  0  0  0  0  0
  161.6450  207.0720  153.5450 C   0  0  2  0  0  3  0  0  0  0  0  0
  160.7750  205.8570  153.8070 C   0  0  0  0  0  2  0  0  0  0  0  0
  161.0010  202.2770  147.9730 C   0  0  1  0  0  3  0  0  0  0  0  0
  160.7410  203.4320  147.2100 O   0  0  0  0  0  0  0  0  0  0  0  0
  161.8280  204.7400  148.9320 C   0  0  0  0  0  0  0  0  0  0  0  0
  161.4180  204.1320  151.2500 C   0  0  0  0  0  3  0  0  0  0  0  0
  162.4590  205.9170  149.3620 C   0  0  0  0  0  3  0  0  0  0  0  0
  161.9980  205.3360  151.6750 C   0  0  0  0  0  0  0  0  0  0  0  0
  161.3400  203.8270  149.8880 C   0  0  0  0  0  0  0  0  0  0  0  0
  161.7900  204.3420  147.4670 C   0  0  2  0  0  3  0  0  0  0  0  0
  160.6950  202.5450  149.4520 C   0  0  0  0  0  2  0  0  0  0  0  0
  162.5400  206.2130  150.7260 C   0  0  0  0  0  3  0  0  0  0  0  0
  160.4440  206.2780  146.5330 N   0  0  0  0  0  1  0  0  0  0  0  0
  161.6530  205.5230  146.5590 C   0  0  0  0  0  0  0  0  0  0  0  0
  162.6170  205.8590  145.8240 O   0  0  0  0  0  0  0  0  0  0  0  0
  160.5810  200.7520  146.1630 O   0  0  0  0  0  1  0  0  0  0  0  0
  160.1780  201.1050  147.4540 C   0  0  0  0  0  2  0  0  0  0  0  0
  162.0200  208.0710  151.2250 C   0  0  0  0  0  2  0  0  0  0  0  0
  161.3100  208.3230  149.9030 C   0  0  0  0  0  1  0  0  0  0  0  0
  161.8420  211.8770  149.0680 C   0  0  0  0  0  2  0  0  0  0  0  0
  161.0070  213.5480  147.4610 C   0  0  1  0  0  3  0  0  0  0  0  0
  162.1570  212.6140  147.7840 C   0  0  1  0  0  3  0  0  0  0  0  0
  162.2720  214.0960  148.0830 C   0  0  0  0  0  2  0  0  0  0  0  0
  160.3910  212.9540  145.0870 C   0  0  0  0  0  0  0  0  0  0  0  0
  159.8000  211.9050  145.4690 O   0  0  0  0  0  0  0  0  0  0  0  0
  161.0120  213.8240  146.0330 N   0  0  0  0  0  2  0  0  0  0  0  0
  161.9370  213.5300  143.2140 C   0  0  0  0  0  2  0  0  0  0  0  0
  159.4830  214.4500  141.9160 C   0  0  1  0  0  3  0  0  0  0  0  0
  162.0000  214.4530  141.9910 C   0  0  2  0  0  3  0  0  0  0  0  0
  160.4830  213.2760  143.6330 C   0  0  2  0  0  3  0  0  0  0  0  0
  159.6670  214.3850  143.3240 O   0  0  0  0  0  0  0  0  0  0  0  0
  160.7770  214.2520  141.1010 C   0  0  0  0  0  2  0  0  0  0  0  0
  158.9900  212.3980  140.5840 C   0  0  0  0  0  1  0  0  0  0  0  0
  158.3920  213.4930  141.4450 C   0  0  0  0  0  2  0  0  0  0  0  0
  163.2720  214.2020  141.1980 C   0  0  0  0  0  2  0  0  0  0  0  0
  163.6260  213.2180  137.6820 O   0  0  0  0  0  0  0  0  0  0  0  0
  165.3040  213.5100  139.2190 O   0  0  0  0  0  1  0  0  0  0  0  0
  163.9580  213.5140  138.8590 C   0  0  0  0  0  0  0  0  0  0  0  0
  162.9490  213.8610  139.8160 N   0  0  0  0  0  2  0  0  0  0  0  0
  158.6040  212.6540  151.0580 C   0  0  2  0  0  3  0  0  0  0  0  0
  158.2810  214.1330  150.8360 C   0  0  0  0  0  2  0  0  0  0  0  0
  155.9200  214.2250  150.1800 C   0  0  0  0  0  2  0  0  0  0  0  0
  157.1990  214.3320  149.8200 C   0  0  0  0  0  0  0  0  0  0  0  0
  157.5640  214.3520  148.3720 C   0  0  0  0  0  2  0  0  0  0  0  0
  157.1020  213.0810  147.6850 C   0  0  0  0  0  1  0  0  0  0  0  0
  158.2770  212.2070  152.4790 C   0  0  0  0  0  2  0  0  0  0  0  0
  158.3050  213.3930  153.4280 C   0  0  0  0  0  2  0  0  0  0  0  0
  159.5580  213.9460  155.5160 C   0  0  0  0  0  1  0  0  0  0  0  0
  158.6450  212.9390  154.8360 C   0  0  0  0  0  2  0  0  0  0  0  0
  1  2  2  0  0  0  0
  2 49  1  0  0  0  0
  2  3  1  0  0  0  0
  3  4  1  0  0  0  0
  4  5  1  0  0  0  0
  6  5  1  0  0  0  0
  6  7  1  1  0  0  0
  8 27  1  6  0  0  0
  8  6  1  0  0  0  0
  9 17  1  6  0  0  0
  9 10  1  0  0  0  0
  9 11  1  0  0  0  0
 10  8  1  6  0  0  0
 10 11  1  0  0  0  0
 12 26  1  6  0  0  0
 12 20  1  0  0  0  0
 13 19  1  0  0  0  0
 13 12  1  0  0  0  0
 14 16  2  0  0  0  0
 14 18  1  0  0  0  0
 15 17  1  0  0  0  0
 16 21  1  0  0  0  0
 18 15  2  0  0  0  0
 19 23  1  6  0  0  0
 19 14  1  0  0  0  0
 20 18  1  0  0  0  0
 21 17  2  0  0  0  0
 22 23  1  0  0  0  0
 24 23  2  0  0  0  0
 25 26  1  0  0  0  0
 28 27  1  0  0  0  0
 29  1  1  0  0  0  0
 30 35  1  6  0  0  0
 30 31  1  0  0  0  0
 30 32  1  0  0  0  0
 31 32  1  0  0  0  0
 31 29  1  1  0  0  0
 33 34  2  0  0  0  0
 33 35  1  0  0  0  0
 36 39  1  0  0  0  0
 37 43  1  6  0  0  0
 37 40  1  0  0  0  0
 38 44  1  6  0  0  0
 38 36  1  0  0  0  0
 39 33  1  1  0  0  0
 40 39  1  0  0  0  0
 41 37  1  0  0  0  0
 41 38  1  0  0  0  0
 42 43  1  0  0  0  0
 45 47  2  0  0  0  0
 47 46  1  0  0  0  0
 47 48  1  0  0  0  0
 48 44  1  0  0  0  0
 49 50  1  1  0  0  0
 49 55  1  0  0  0  0
 52 51  2  0  0  0  0
 52 50  1  0  0  0  0
 53 52  1  0  0  0  0
 54 53  1  0  0  0  0
 55 56  1  0  0  0  0
 56 58  1  0  0  0  0
 58 57  1  0  0  0  0
M  END
>  <MODEL>
4

>  <REMARK>
 VINA RESULT:      -1.7      4.419     12.537
  Name = 
  24 active torsions:
  status: ('A' for Active; 'I' for Inactive)
    1  A    between atoms: C_1  and  C_39
    2  A    between atoms: C_2  and  C_37
    3  A    between atoms: C_2  and  N_56
    4  A    between atoms: C_3  and  C_38
    5  A    between atoms: C_3  and  C_47
    6  A    between atoms: C_4  and  C_33
    7  A    between atoms: C_5  and  C_48
    8  A    between atoms: C_7  and  C_41
    9  A    between atoms: C_12  and  C_55
   10  A    between atoms: C_13  and  C_38
   11  A    between atoms: C_15  and  C_26
   12  A    between atoms: C_15  and  C_28
   13  A    between atoms: C_15  and  C_54
   14  A    between atoms: C_16  and  C_49
   15  A    between atoms: C_17  and  C_28
   16  A    between atoms: C_17  and  C_32
   17  A    between atoms: C_18  and  C_46
   18  A    between atoms: C_19  and  C_38
   19  A    between atoms: C_21  and  N_52
   20  A    between atoms: C_26  and  C_30
   21  A    between atoms: C_30  and  C_44
   22  A    between atoms: C_31  and  C_55
   23  A    between atoms: C_32  and  C_47
   24  A    between atoms: C_33  and  C_54
                            x       y       z     vdW  Elec       q    Type
                         _______ _______ _______ _____ _____    ______ ____

>  <TORSDO>
F 24

$$$$
=
 OpenBabel11052411323D

 58 63  0  0  1  0  0  0  0  0999 V2000
  161.6490  211.1190  151.9600 C   0  0  0  0  0  3  0  0  0  0  0  0
  160.6310  210.8030  152.7830 C   0  0  0  0  0  0  0  0  0  0  0  0
  160.0460  209.4170  152.8360 C   0  0  0  0  0  2  0  0  0  0  0  0
  161.1390  208.3610  152.9730 C   0  0  0  0  0  2  0  0  0  0  0  0
  160.5260  206.9970  153.2460 C   0  0  0  0  0  2  0  0  0  0  0  0
  161.4240  205.8890  152.7130 C   0  0  2  0  0  3  0  0  0  0  0  0
  162.4540  206.4470  151.7370 C   0  0  0  0  0  1  0  0  0  0  0  0
  160.5910  204.7470  152.1080 C   0  0  2  0  0  3  0  0  0  0  0  0
  161.3340  202.2950  151.6480 C   0  0  1  0  0  3  0  0  0  0  0  0
  160.9490  203.3680  152.6850 C   0  0  2  0  0  3  0  0  0  0  0  0
  159.9350  202.3310  152.2410 C   0  0  0  0  0  2  0  0  0  0  0  0
  160.5480  202.1330  145.4170 C   0  0  1  0  0  3  0  0  0  0  0  0
  160.4880  203.5380  145.3370 O   0  0  0  0  0  0  0  0  0  0  0  0
  161.4690  203.6460  147.5470 C   0  0  0  0  0  0  0  0  0  0  0  0
  160.7260  202.0270  149.2000 C   0  0  0  0  0  3  0  0  0  0  0  0
  162.1460  204.3490  148.5540 C   0  0  0  0  0  3  0  0  0  0  0  0
  161.3560  202.7630  150.2140 C   0  0  0  0  0  0  0  0  0  0  0  0
  160.7880  202.4560  147.8720 C   0  0  0  0  0  0  0  0  0  0  0  0
  161.5760  204.0410  146.0840 C   0  0  2  0  0  3  0  0  0  0  0  0
  160.0890  201.6680  146.8040 C   0  0  0  0  0  2  0  0  0  0  0  0
  162.0860  203.9110  149.8800 C   0  0  0  0  0  0  0  0  0  0  0  0
  160.6600  206.3770  146.4540 N   0  0  0  0  0  1  0  0  0  0  0  0
  161.6580  205.5240  145.9000 C   0  0  0  0  0  0  0  0  0  0  0  0
  162.6220  206.0200  145.2610 O   0  0  0  0  0  0  0  0  0  0  0  0
  159.8530  200.1160  144.3110 O   0  0  0  0  0  1  0  0  0  0  0  0
  159.6940  201.5050  144.3250 C   0  0  0  0  0  2  0  0  0  0  0  0
  160.5300  204.7410  150.5720 C   0  0  2  0  0  3  0  0  0  0  0  0
  160.0060  206.0460  149.9910 C   0  0  0  0  0  1  0  0  0  0  0  0
  162.3080  210.1260  151.0560 C   0  0  0  0  0  2  0  0  0  0  0  0
  162.0820  211.3120  148.9080 C   0  0  1  0  0  3  0  0  0  0  0  0
  161.6060  210.1200  149.7150 C   0  0  1  0  0  3  0  0  0  0  0  0
  162.6380  209.9350  148.6190 C   0  0  0  0  0  2  0  0  0  0  0  0
  161.3510  212.4790  146.7930 C   0  0  0  0  0  0  0  0  0  0  0  0
  162.5070  212.9580  146.6210 O   0  0  0  0  0  0  0  0  0  0  0  0
  161.0710  211.6420  147.9150 N   0  0  0  0  0  2  0  0  0  0  0  0
  160.5860  212.3560  144.4200 C   0  0  0  0  0  2  0  0  0  0  0  0
  158.7250  214.4490  145.2630 C   0  0  1  0  0  3  0  0  0  0  0  0
  159.8550  213.2140  143.3820 C   0  0  2  0  0  3  0  0  0  0  0  0
  160.2500  212.8170  145.8450 C   0  0  2  0  0  3  0  0  0  0  0  0
  159.9840  214.2030  145.8770 O   0  0  0  0  0  0  0  0  0  0  0  0
  158.5170  213.7010  143.9300 C   0  0  0  0  0  2  0  0  0  0  0  0
  158.0820  214.0560  147.6420 C   0  0  0  0  0  1  0  0  0  0  0  0
  157.5680  214.1850  146.2210 C   0  0  0  0  0  2  0  0  0  0  0  0
  159.6390  212.4300  142.0980 C   0  0  0  0  0  2  0  0  0  0  0  0
  162.4550  210.7390  140.4630 O   0  0  0  0  0  1  0  0  0  0  0  0
  161.1160  212.3780  139.5790 O   0  0  0  0  0  0  0  0  0  0  0  0
  161.4840  211.5260  140.6170 C   0  0  0  0  0  0  0  0  0  0  0  0
  160.7640  211.5330  141.8560 N   0  0  0  0  0  2  0  0  0  0  0  0
  160.0190  211.8500  153.6710 C   0  0  2  0  0  3  0  0  0  0  0  0
  159.6200  211.2340  155.0140 C   0  0  0  0  0  2  0  0  0  0  0  0
  160.7960  212.4440  156.7920 C   0  0  0  0  0  2  0  0  0  0  0  0
  160.7070  211.3500  156.0360 C   0  0  0  0  0  0  0  0  0  0  0  0
  161.8430  210.3810  155.9950 C   0  0  0  0  0  2  0  0  0  0  0  0
  161.3770  208.9910  156.3820 C   0  0  0  0  0  1  0  0  0  0  0  0
  158.8380  212.5220  152.9800 C   0  0  0  0  0  2  0  0  0  0  0  0
  159.3260  213.4900  151.9160 C   0  0  0  0  0  2  0  0  0  0  0  0
  156.8520  213.8060  151.7840 C   0  0  0  0  0  1  0  0  0  0  0  0
  158.1710  213.9450  151.0410 C   0  0  0  0  0  2  0  0  0  0  0  0
  1  2  2  0  0  0  0
  2  3  1  0  0  0  0
  2 49  1  0  0  0  0
  3  4  1  0  0  0  0
  4  5  1  0  0  0  0
  6  7  1  6  0  0  0
  6  5  1  0  0  0  0
  8 10  1  0  0  0  0
  8  6  1  6  0  0  0
  9 11  1  6  0  0  0
  9 10  1  0  0  0  0
 10 11  1  6  0  0  0
 12 26  1  6  0  0  0
 12 20  1  0  0  0  0
 13 12  1  0  0  0  0
 13 19  1  0  0  0  0
 14 18  2  0  0  0  0
 14 16  1  0  0  0  0
 15 17  2  0  0  0  0
 16 21  2  3  0  0  0
 17  9  1  0  0  0  0
 18 15  1  0  0  0  0
 19 23  1  1  0  0  0
 19 14  1  0  0  0  0
 20 18  1  0  0  0  0
 21 17  1  0  0  0  0
 21 27  1  0  0  0  0
 23 22  1  0  0  0  0
 24 23  2  0  0  0  0
 25 26  1  0  0  0  0
 27 28  1  6  0  0  0
 27  8  1  0  0  0  0
 29  1  1  0  0  0  0
 30 35  1  6  0  0  0
 30 31  1  0  0  0  0
 31 29  1  1  0  0  0
 32 30  1  0  0  0  0
 32 31  1  0  0  0  0
 33 35  1  0  0  0  0
 34 33  2  0  0  0  0
 36 39  1  0  0  0  0
 37 40  1  0  0  0  0
 37 43  1  1  0  0  0
 38 44  1  6  0  0  0
 38 41  1  0  0  0  0
 38 36  1  0  0  0  0
 39 40  1  0  0  0  0
 39 33  1  1  0  0  0
 41 37  1  0  0  0  0
 43 42  1  0  0  0  0
 45 47  1  0  0  0  0
 46 47  2  0  0  0  0
 47 48  1  0  0  0  0
 48 44  1  0  0  0  0
 49 55  1  6  0  0  0
 49 50  1  0  0  0  0
 50 52  1  0  0  0  0
 52 51  2  0  0  0  0
 53 52  1  0  0  0  0
 53 54  1  0  0  0  0
 56 55  1  0  0  0  0
 58 57  1  0  0  0  0
 58 56  1  0  0  0  0
M  END
>  <MODEL>
5

>  <REMARK>
 VINA RESULT:      -1.3      4.052     11.519
  Name = 
  24 active torsions:
  status: ('A' for Active; 'I' for Inactive)
    1  A    between atoms: C_1  and  C_39
    2  A    between atoms: C_2  and  C_37
    3  A    between atoms: C_2  and  N_56
    4  A    between atoms: C_3  and  C_38
    5  A    between atoms: C_3  and  C_47
    6  A    between atoms: C_4  and  C_33
    7  A    between atoms: C_5  and  C_48
    8  A    between atoms: C_7  and  C_41
    9  A    between atoms: C_12  and  C_55
   10  A    between atoms: C_13  and  C_38
   11  A    between atoms: C_15  and  C_26
   12  A    between atoms: C_15  and  C_28
   13  A    between atoms: C_15  and  C_54
   14  A    between atoms: C_16  and  C_49
   15  A    between atoms: C_17  and  C_28
   16  A    between atoms: C_17  and  C_32
   17  A    between atoms: C_18  and  C_46
   18  A    between atoms: C_19  and  C_38
   19  A    between atoms: C_21  and  N_52
   20  A    between atoms: C_26  and  C_30
   21  A    between atoms: C_30  and  C_44
   22  A    between atoms: C_31  and  C_55
   23  A    between atoms: C_32  and  C_47
   24  A    between atoms: C_33  and  C_54
                            x       y       z     vdW  Elec       q    Type
                         _______ _______ _______ _____ _____    ______ ____

>  <TORSDO>
F 24

$$$$
=
 OpenBabel11052411323D

 58 62  0  0  1  0  0  0  0  0999 V2000
  162.6360  208.7020  151.8180 C   0  0  0  0  0  3  0  0  0  0  0  0
  161.6910  208.5950  152.7710 C   0  0  0  0  0  0  0  0  0  0  0  0
  160.6650  209.6720  153.0040 C   0  0  0  0  0  2  0  0  0  0  0  0
  160.8330  210.3050  154.3820 C   0  0  0  0  0  2  0  0  0  0  0  0
  159.8720  211.4710  154.5500 C   0  0  0  0  0  2  0  0  0  0  0  0
  158.4790  211.0920  154.0660 C   0  0  2  0  0  3  0  0  0  0  0  0
  158.4640  210.8960  152.5550 C   0  0  0  0  0  1  0  0  0  0  0  0
  157.4330  212.1130  154.5420 C   0  0  2  0  0  3  0  0  0  0  0  0
  158.5810  214.4490  154.5870 C   0  0  1  0  0  3  0  0  0  0  0  0
  158.0370  213.2480  155.3850 C   0  0  2  0  0  3  0  0  0  0  0  0
  159.5230  213.3760  155.1080 C   0  0  0  0  0  2  0  0  0  0  0  0
  160.0870  214.4270  148.4880 C   0  0  1  0  0  3  0  0  0  0  0  0
  158.9400  213.6810  148.1550 O   0  0  0  0  0  0  0  0  0  0  0  0
  158.0060  214.2690  150.3090 C   0  0  0  0  0  0  0  0  0  0  0  0
  159.4980  214.2850  152.2280 C   0  0  0  0  0  3  0  0  0  0  0  0
  156.9100  214.4070  151.1720 C   0  0  0  0  0  3  0  0  0  0  0  0
  158.3960  214.3660  153.0920 C   0  0  0  0  0  0  0  0  0  0  0  0
  159.3090  214.2470  150.8440 C   0  0  0  0  0  0  0  0  0  0  0  0
  157.8450  214.2980  148.7990 C   0  0  2  0  0  3  0  0  0  0  0  0
  160.4990  214.1370  149.9360 C   0  0  0  0  0  2  0  0  0  0  0  0
  157.1050  214.4530  152.5560 C   0  0  0  0  0  3  0  0  0  0  0  0
  155.5210  214.4220  147.7900 N   0  0  0  0  0  1  0  0  0  0  0  0
  156.5760  213.6440  148.3500 C   0  0  0  0  0  0  0  0  0  0  0  0
  156.4460  212.3970  148.4570 O   0  0  0  0  0  0  0  0  0  0  0  0
  162.3840  213.7690  148.2300 O   0  0  0  0  0  1  0  0  0  0  0  0
  161.2240  214.1060  147.5270 C   0  0  0  0  0  2  0  0  0  0  0  0
  156.1860  211.4990  155.1970 C   0  0  0  0  0  2  0  0  0  0  0  0
  156.5190  210.5420  156.3310 C   0  0  0  0  0  1  0  0  0  0  0  0
  162.7340  209.8720  150.8910 C   0  0  0  0  0  2  0  0  0  0  0  0
  161.3730  209.2660  148.9280 C   0  0  1  0  0  3  0  0  0  0  0  0
  162.7880  209.3790  149.4610 C   0  0  1  0  0  3  0  0  0  0  0  0
  162.2300  210.4540  148.5480 C   0  0  0  0  0  2  0  0  0  0  0  0
  160.9350  206.9590  148.0040 C   0  0  0  0  0  0  0  0  0  0  0  0
  160.5460  206.5470  149.1330 O   0  0  0  0  0  0  0  0  0  0  0  0
  161.3580  208.3110  147.8310 N   0  0  0  0  0  2  0  0  0  0  0  0
  160.8300  204.5670  147.3000 C   0  0  0  0  0  2  0  0  0  0  0  0
  162.0950  205.5770  144.8640 C   0  0  1  0  0  3  0  0  0  0  0  0
  161.5110  203.6060  146.3180 C   0  0  2  0  0  3  0  0  0  0  0  0
  160.9970  206.0230  146.8440 C   0  0  2  0  0  3  0  0  0  0  0  0
  162.2070  206.1950  146.1400 O   0  0  0  0  0  0  0  0  0  0  0  0
  161.4720  204.1670  144.8990 C   0  0  0  0  0  2  0  0  0  0  0  0
  161.8210  206.1610  142.4540 C   0  0  0  0  0  1  0  0  0  0  0  0
  161.3650  206.4700  143.8660 C   0  0  0  0  0  2  0  0  0  0  0  0
  160.8460  202.2400  146.3580 C   0  0  0  0  0  2  0  0  0  0  0  0
  160.5360  201.1460  149.8460 O   0  0  0  0  0  1  0  0  0  0  0  0
  162.3570  200.9060  148.4710 O   0  0  0  0  0  0  0  0  0  0  0  0
  161.0540  201.3350  148.7140 C   0  0  0  0  0  0  0  0  0  0  0  0
  160.2960  201.9830  147.6850 N   0  0  0  0  0  2  0  0  0  0  0  0
  161.6460  207.3870  153.6650 C   0  0  2  0  0  3  0  0  0  0  0  0
  162.3240  206.1990  152.9790 C   0  0  0  0  0  2  0  0  0  0  0  0
  160.2490  206.0430  151.6830 C   0  0  0  0  0  2  0  0  0  0  0  0
  161.3990  205.4770  152.0500 C   0  0  0  0  0  0  0  0  0  0  0  0
  161.6310  204.0260  151.7830 C   0  0  0  0  0  2  0  0  0  0  0  0
  160.7200  203.1700  152.6410 C   0  0  0  0  0  1  0  0  0  0  0  0
  160.2110  207.0670  154.0710 C   0  0  0  0  0  2  0  0  0  0  0  0
  160.1850  206.3670  155.4180 C   0  0  0  0  0  2  0  0  0  0  0  0
  160.6850  208.5500  156.5220 C   0  0  0  0  0  1  0  0  0  0  0  0
  159.7720  207.3350  156.5120 C   0  0  0  0  0  2  0  0  0  0  0  0
  1  2  2  0  0  0  0
  2  3  1  0  0  0  0
  2 49  1  0  0  0  0
  3  4  1  0  0  0  0
  4  5  1  0  0  0  0
  6  7  1  6  0  0  0
  6  8  1  0  0  0  0
  6  5  1  0  0  0  0
  8 27  1  1  0  0  0
  9 17  1  6  0  0  0
  9 11  1  0  0  0  0
  9 10  1  0  0  0  0
 10  8  1  6  0  0  0
 11 10  1  0  0  0  0
 12 26  1  6  0  0  0
 12 20  1  0  0  0  0
 13 12  1  0  0  0  0
 13 19  1  0  0  0  0
 14 18  2  0  0  0  0
 14 16  1  0  0  0  0
 15 17  2  0  0  0  0
 16 21  2  0  0  0  0
 18 15  1  0  0  0  0
 19 23  1  1  0  0  0
 19 14  1  0  0  0  0
 20 18  1  0  0  0  0
 21 17  1  0  0  0  0
 22 23  1  0  0  0  0
 23 24  2  0  0  0  0
 26 25  1  0  0  0  0
 27 28  1  0  0  0  0
 29  1  1  0  0  0  0
 30 35  1  6  0  0  0
 30 31  1  0  0  0  0
 31 29  1  1  0  0  0
 32 30  1  0  0  0  0
 32 31  1  0  0  0  0
 33 34  2  0  0  0  0
 35 33  1  0  0  0  0
 37 43  1  6  0  0  0
 37 41  1  0  0  0  0
 37 40  1  0  0  0  0
 38 44  1  6  0  0  0
 38 36  1  0  0  0  0
 39 36  1  0  0  0  0
 39 33  1  1  0  0  0
 40 39  1  0  0  0  0
 41 38  1  0  0  0  0
 42 43  1  0  0  0  0
 44 48  1  0  0  0  0
 46 47  2  0  0  0  0
 47 45  1  0  0  0  0
 48 47  1  0  0  0  0
 49 50  1  6  0  0  0
 49 55  1  0  0  0  0
 51 52  2  0  0  0  0
 52 50  1  0  0  0  0
 53 52  1  0  0  0  0
 53 54  1  0  0  0  0
 55 56  1  0  0  0  0
 56 58  1  0  0  0  0
 58 57  1  0  0  0  0
M  END
>  <MODEL>
6

>  <REMARK>
 VINA RESULT:      -1.0      4.738     11.198
  Name = 
  24 active torsions:
  status: ('A' for Active; 'I' for Inactive)
    1  A    between atoms: C_1  and  C_39
    2  A    between atoms: C_2  and  C_37
    3  A    between atoms: C_2  and  N_56
    4  A    between atoms: C_3  and  C_38
    5  A    between atoms: C_3  and  C_47
    6  A    between atoms: C_4  and  C_33
    7  A    between atoms: C_5  and  C_48
    8  A    between atoms: C_7  and  C_41
    9  A    between atoms: C_12  and  C_55
   10  A    between atoms: C_13  and  C_38
   11  A    between atoms: C_15  and  C_26
   12  A    between atoms: C_15  and  C_28
   13  A    between atoms: C_15  and  C_54
   14  A    between atoms: C_16  and  C_49
   15  A    between atoms: C_17  and  C_28
   16  A    between atoms: C_17  and  C_32
   17  A    between atoms: C_18  and  C_46
   18  A    between atoms: C_19  and  C_38
   19  A    between atoms: C_21  and  N_52
   20  A    between atoms: C_26  and  C_30
   21  A    between atoms: C_30  and  C_44
   22  A    between atoms: C_31  and  C_55
   23  A    between atoms: C_32  and  C_47
   24  A    between atoms: C_33  and  C_54
                            x       y       z     vdW  Elec       q    Type
                         _______ _______ _______ _____ _____    ______ ____

>  <TORSDO>
F 24

$$$$
=
 OpenBabel11052411323D

 58 62  0  0  1  0  0  0  0  0999 V2000
  160.0320  212.4620  147.5250 C   0  0  0  0  0  3  0  0  0  0  0  0
  158.9420  213.0920  148.0020 C   0  0  0  0  0  0  0  0  0  0  0  0
  158.9590  213.8380  149.3100 C   0  0  0  0  0  2  0  0  0  0  0  0
  159.0640  212.8780  150.4910 C   0  0  0  0  0  2  0  0  0  0  0  0
  159.7840  213.5460  151.6530 C   0  0  0  0  0  2  0  0  0  0  0  0
  158.7930  213.9560  152.7330 C   0  0  2  0  0  3  0  0  0  0  0  0
  159.5110  214.2370  154.0490 C   0  0  0  0  0  1  0  0  0  0  0  0
  157.6720  212.9140  152.8800 C   0  0  2  0  0  3  0  0  0  0  0  0
  156.7150  213.0680  155.2960 C   0  0  1  0  0  3  0  0  0  0  0  0
  156.5310  213.3810  153.7980 C   0  0  2  0  0  3  0  0  0  0  0  0
  155.8360  212.1870  154.4240 C   0  0  0  0  0  2  0  0  0  0  0  0
  160.7260  208.4360  156.6850 C   0  0  1  0  0  3  0  0  0  0  0  0
  161.8330  209.2000  156.2670 O   0  0  0  0  0  0  0  0  0  0  0  0
  160.4410  211.1760  156.3940 C   0  0  0  0  0  0  0  0  0  0  0  0
  158.1410  210.9960  155.6280 C   0  0  0  0  0  3  0  0  0  0  0  0
  160.2940  212.5680  156.4770 C   0  0  0  0  0  3  0  0  0  0  0  0
  158.0150  212.3930  155.6580 C   0  0  0  0  0  0  0  0  0  0  0  0
  159.3410  210.3870  156.0030 C   0  0  0  0  0  0  0  0  0  0  0  0
  161.7040  210.4740  156.8620 C   0  0  2  0  0  3  0  0  0  0  0  0
  159.4640  208.8930  155.9430 C   0  0  0  0  0  2  0  0  0  0  0  0
  159.0890  213.1720  156.1080 C   0  0  0  0  0  3  0  0  0  0  0  0
  163.1400  212.5330  157.2250 N   0  0  0  0  0  1  0  0  0  0  0  0
  162.9360  211.2760  156.5840 C   0  0  0  0  0  0  0  0  0  0  0  0
  163.8030  210.8300  155.7890 O   0  0  0  0  0  0  0  0  0  0  0  0
  159.7820  206.2520  156.3440 O   0  0  0  0  0  1  0  0  0  0  0  0
  160.9860  206.9550  156.4490 C   0  0  0  0  0  2  0  0  0  0  0  0
  158.1550  211.4950  153.2200 C   0  0  0  0  0  2  0  0  0  0  0  0
  159.5690  211.2140  152.7360 C   0  0  0  0  0  1  0  0  0  0  0  0
  161.3550  212.4710  148.2230 C   0  0  0  0  0  2  0  0  0  0  0  0
  162.5490  210.4280  148.9100 C   0  0  1  0  0  3  0  0  0  0  0  0
  161.3950  211.3540  149.2430 C   0  0  1  0  0  3  0  0  0  0  0  0
  162.6930  211.4440  150.0220 C   0  0  0  0  0  2  0  0  0  0  0  0
  162.1290  207.9510  148.6780 C   0  0  0  0  0  0  0  0  0  0  0  0
  162.2310  208.0200  147.4210 O   0  0  0  0  0  0  0  0  0  0  0  0
  162.2830  209.1190  149.4840 N   0  0  0  0  0  2  0  0  0  0  0  0
  161.9280  205.4850  148.3430 C   0  0  0  0  0  2  0  0  0  0  0  0
  160.3670  205.6160  150.8130 C   0  0  1  0  0  3  0  0  0  0  0  0
  161.0230  204.3200  148.7570 C   0  0  2  0  0  3  0  0  0  0  0  0
  161.8050  206.6510  149.3340 C   0  0  2  0  0  3  0  0  0  0  0  0
  160.5140  206.6970  149.9010 O   0  0  0  0  0  0  0  0  0  0  0  0
  160.8750  204.2630  150.2740 C   0  0  0  0  0  2  0  0  0  0  0  0
  161.0860  207.4310  152.3670 C   0  0  0  0  0  1  0  0  0  0  0  0
  160.9940  205.9310  152.1680 C   0  0  0  0  0  2  0  0  0  0  0  0
  161.5760  203.0030  148.2360 C   0  0  0  0  0  2  0  0  0  0  0  0
  159.8890  201.6910  145.2540 O   0  0  0  0  0  0  0  0  0  0  0  0
  161.8620  202.8590  145.3330 O   0  0  0  0  0  1  0  0  0  0  0  0
  160.7580  202.2780  145.9510 C   0  0  0  0  0  0  0  0  0  0  0  0
  160.5980  202.3470  147.3740 N   0  0  0  0  0  2  0  0  0  0  0  0
  157.6450  213.0480  147.2440 C   0  0  2  0  0  3  0  0  0  0  0  0
  157.9080  212.7460  145.7680 C   0  0  0  0  0  2  0  0  0  0  0  0
  156.5670  214.4490  144.6220 C   0  0  0  0  0  2  0  0  0  0  0  0
  157.7750  213.9640  144.9070 C   0  0  0  0  0  0  0  0  0  0  0  0
  158.9660  214.4400  144.1420 C   0  0  0  0  0  2  0  0  0  0  0  0
  160.2470  214.1110  144.8840 C   0  0  0  0  0  1  0  0  0  0  0  0
  156.8650  214.3450  147.4300 C   0  0  0  0  0  2  0  0  0  0  0  0
  155.6080  214.0960  148.2450 C   0  0  0  0  0  2  0  0  0  0  0  0
  154.7340  213.8810  150.5750 C   0  0  0  0  0  1  0  0  0  0  0  0
  155.8420  214.4510  149.7030 C   0  0  0  0  0  2  0  0  0  0  0  0
  1  2  2  0  0  0  0
  1 29  1  0  0  0  0
  2  3  1  0  0  0  0
  3  4  1  0  0  0  0
  4  5  1  0  0  0  0
  5  6  1  0  0  0  0
  6  8  1  0  0  0  0
  6  7  1  1  0  0  0
  8 27  1  1  0  0  0
  9 17  1  6  0  0  0
 10  8  1  6  0  0  0
 10 11  1  0  0  0  0
 10  9  1  0  0  0  0
 11  9  1  0  0  0  0
 12 26  1  6  0  0  0
 13 12  1  0  0  0  0
 13 19  1  0  0  0  0
 14 16  1  0  0  0  0
 14 19  1  0  0  0  0
 15 17  2  0  0  0  0
 15 18  1  0  0  0  0
 17 21  1  0  0  0  0
 18 14  2  0  0  0  0
 19 23  1  6  0  0  0
 20 18  1  0  0  0  0
 20 12  1  0  0  0  0
 21 16  2  0  0  0  0
 23 22  1  0  0  0  0
 24 23  2  0  0  0  0
 25 26  1  0  0  0  0
 28 27  1  0  0  0  0
 30 31  1  0  0  0  0
 30 35  1  1  0  0  0
 30 32  1  0  0  0  0
 31 29  1  6  0  0  0
 31 32  1  0  0  0  0
 33 35  1  0  0  0  0
 34 33  2  0  0  0  0
 36 38  1  0  0  0  0
 36 39  1  0  0  0  0
 37 43  1  1  0  0  0
 38 44  1  1  0  0  0
 38 41  1  0  0  0  0
 39 33  1  6  0  0  0
 39 40  1  0  0  0  0
 40 37  1  0  0  0  0
 41 37  1  0  0  0  0
 43 42  1  0  0  0  0
 45 47  2  0  0  0  0
 46 47  1  0  0  0  0
 47 48  1  0  0  0  0
 48 44  1  0  0  0  0
 49 50  1  6  0  0  0
 49 55  1  0  0  0  0
 49  2  1  0  0  0  0
 51 52  2  0  0  0  0
 52 50  1  0  0  0  0
 53 54  1  0  0  0  0
 53 52  1  0  0  0  0
 55 56  1  0  0  0  0
 56 58  1  0  0  0  0
 58 57  1  0  0  0  0
M  END
>  <MODEL>
7

>  <REMARK>
 VINA RESULT:      -0.3      5.517     13.174
  Name = 
  24 active torsions:
  status: ('A' for Active; 'I' for Inactive)
    1  A    between atoms: C_1  and  C_39
    2  A    between atoms: C_2  and  C_37
    3  A    between atoms: C_2  and  N_56
    4  A    between atoms: C_3  and  C_38
    5  A    between atoms: C_3  and  C_47
    6  A    between atoms: C_4  and  C_33
    7  A    between atoms: C_5  and  C_48
    8  A    between atoms: C_7  and  C_41
    9  A    between atoms: C_12  and  C_55
   10  A    between atoms: C_13  and  C_38
   11  A    between atoms: C_15  and  C_26
   12  A    between atoms: C_15  and  C_28
   13  A    between atoms: C_15  and  C_54
   14  A    between atoms: C_16  and  C_49
   15  A    between atoms: C_17  and  C_28
   16  A    between atoms: C_17  and  C_32
   17  A    between atoms: C_18  and  C_46
   18  A    between atoms: C_19  and  C_38
   19  A    between atoms: C_21  and  N_52
   20  A    between atoms: C_26  and  C_30
   21  A    between atoms: C_30  and  C_44
   22  A    between atoms: C_31  and  C_55
   23  A    between atoms: C_32  and  C_47
   24  A    between atoms: C_33  and  C_54
                            x       y       z     vdW  Elec       q    Type
                         _______ _______ _______ _____ _____    ______ ____

>  <TORSDO>
F 24

$$$$
=
 OpenBabel11052411323D

 58 63  0  0  1  0  0  0  0  0999 V2000
  159.7580  212.7220  150.0950 C   0  0  0  0  0  3  0  0  0  0  0  0
  159.0600  213.2580  151.1150 C   0  0  0  0  0  0  0  0  0  0  0  0
  159.7000  213.5820  152.4380 C   0  0  0  0  0  2  0  0  0  0  0  0
  160.1530  212.3160  153.1580 C   0  0  0  0  0  2  0  0  0  0  0  0
  159.5580  211.0860  152.4900 C   0  0  0  0  0  2  0  0  0  0  0  0
  159.1000  210.0770  153.5340 C   0  0  2  0  0  3  0  0  0  0  0  0
  157.8510  210.5710  154.2550 C   0  0  0  0  0  1  0  0  0  0  0  0
  160.2430  209.7260  154.5010 C   0  0  2  0  0  3  0  0  0  0  0  0
  162.5110  210.1450  153.2940 C   0  0  1  0  0  3  0  0  0  0  0  0
  161.4770  210.6280  154.3290 C   0  0  2  0  0  3  0  0  0  0  0  0
  162.7290  209.9000  154.7790 C   0  0  0  0  0  2  0  0  0  0  0  0
  160.8010  206.4260  148.5280 C   0  0  1  0  0  3  0  0  0  0  0  0
  161.3690  205.2920  149.1420 O   0  0  0  0  0  0  0  0  0  0  0  0
  161.4030  206.5150  151.2300 C   0  0  0  0  0  0  0  0  0  0  0  0
  162.0120  208.8670  151.1610 C   0  0  0  0  0  3  0  0  0  0  0  0
  161.4800  206.5460  152.6310 C   0  0  0  0  0  3  0  0  0  0  0  0
  162.1440  208.8810  152.5570 C   0  0  0  0  0  0  0  0  0  0  0  0
  161.6340  207.6960  150.4980 C   0  0  0  0  0  0  0  0  0  0  0  0
  160.9250  205.2830  150.4830 C   0  0  2  0  0  3  0  0  0  0  0  0
  161.5210  207.6940  149.0020 C   0  0  0  0  0  2  0  0  0  0  0  0
  161.8510  207.7220  153.2890 C   0  0  0  0  0  0  0  0  0  0  0  0
  162.2110  204.0460  152.2860 N   0  0  0  0  0  1  0  0  0  0  0  0
  161.3660  204.0120  151.1390 C   0  0  0  0  0  0  0  0  0  0  0  0
  160.9760  202.9060  150.6810 O   0  0  0  0  0  0  0  0  0  0  0  0
  161.6710  205.2110  146.6460 O   0  0  0  0  0  1  0  0  0  0  0  0
  160.8720  206.2980  147.0130 C   0  0  0  0  0  2  0  0  0  0  0  0
  160.6100  208.2350  154.5480 C   0  0  2  0  0  3  0  0  0  0  0  0
  159.8540  207.4690  155.6220 C   0  0  0  0  0  1  0  0  0  0  0  0
  161.2240  212.4340  150.1700 C   0  0  0  0  0  2  0  0  0  0  0  0
  161.5630  213.7100  148.0900 C   0  0  1  0  0  3  0  0  0  0  0  0
  161.7990  212.3770  148.7710 C   0  0  1  0  0  3  0  0  0  0  0  0
  162.9260  213.3850  148.6600 C   0  0  0  0  0  2  0  0  0  0  0  0
  160.4890  213.8920  145.8130 C   0  0  0  0  0  0  0  0  0  0  0  0
  159.4580  214.4280  146.3080 O   0  0  0  0  0  0  0  0  0  0  0  0
  161.5830  213.5130  146.6490 N   0  0  0  0  0  2  0  0  0  0  0  0
  159.1820  213.7580  143.6910 C   0  0  0  0  0  2  0  0  0  0  0  0
  161.4850  212.2140  142.7620 C   0  0  1  0  0  3  0  0  0  0  0  0
  159.0830  212.8880  142.4320 C   0  0  2  0  0  3  0  0  0  0  0  0
  160.5600  213.6100  144.3500 C   0  0  2  0  0  3  0  0  0  0  0  0
  161.0920  212.3220  144.1240 O   0  0  0  0  0  0  0  0  0  0  0  0
  160.4460  212.7540  141.7600 C   0  0  0  0  0  2  0  0  0  0  0  0
  163.0570  213.1010  141.0390 C   0  0  0  0  0  1  0  0  0  0  0  0
  162.8540  212.8420  142.5190 C   0  0  0  0  0  2  0  0  0  0  0  0
  158.0740  213.4740  141.4570 C   0  0  0  0  0  2  0  0  0  0  0  0
  156.9020  211.9930  138.3120 O   0  0  0  0  0  0  0  0  0  0  0  0
  155.7810  213.4820  139.6490 O   0  0  0  0  0  1  0  0  0  0  0  0
  156.8930  212.6960  139.3570 C   0  0  0  0  0  0  0  0  0  0  0  0
  158.0220  212.6730  140.2390 N   0  0  0  0  0  2  0  0  0  0  0  0
  157.5890  213.5280  150.9690 C   0  0  2  0  0  3  0  0  0  0  0  0
  157.3380  214.4440  149.7690 C   0  0  0  0  0  2  0  0  0  0  0  0
  155.1570  214.2440  148.6680 C   0  0  0  0  0  2  0  0  0  0  0  0
  156.4180  213.8240  148.7640 C   0  0  0  0  0  0  0  0  0  0  0  0
  156.8310  212.5540  148.0950 C   0  0  0  0  0  2  0  0  0  0  0  0
  157.9220  212.8160  147.0750 C   0  0  0  0  0  1  0  0  0  0  0  0
  157.0150  214.1090  152.2580 C   0  0  0  0  0  2  0  0  0  0  0  0
  155.5020  214.2070  152.1680 C   0  0  0  0  0  2  0  0  0  0  0  0
  155.6970  213.9600  154.6450 C   0  0  0  0  0  1  0  0  0  0  0  0
  154.8580  213.6380  153.4200 C   0  0  0  0  0  2  0  0  0  0  0  0
  1 29  1  0  0  0  0
  1  2  2  0  0  0  0
  2  3  1  0  0  0  0
  3  4  1  0  0  0  0
  5  4  1  0  0  0  0
  5  6  1  0  0  0  0
  6  7  1  1  0  0  0
  8  6  1  6  0  0  0
  8 27  1  0  0  0  0
  9 10  1  0  0  0  0
  9 11  1  1  0  0  0
 10  8  1  0  0  0  0
 10 11  1  1  0  0  0
 12 26  1  6  0  0  0
 12 20  1  0  0  0  0
 12 13  1  0  0  0  0
 13 19  1  0  0  0  0
 14 16  1  0  0  0  0
 15 17  2  0  0  0  0
 16 21  2  0  0  0  0
 17 21  1  0  0  0  0
 17  9  1  0  0  0  0
 18 15  1  0  0  0  0
 18 14  2  0  0  0  0
 19 23  1  1  0  0  0
 19 14  1  0  0  0  0
 20 18  1  0  0  0  0
 21 27  1  0  0  0  0
 23 22  1  0  0  0  0
 24 23  2  0  0  0  0
 25 26  1  0  0  0  0
 27 28  1  6  0  0  0
 30 35  1  6  0  0  0
 30 32  1  0  0  0  0
 30 31  1  0  0  0  0
 31 29  1  1  0  0  0
 32 31  1  0  0  0  0
 33 34  2  0  0  0  0
 33 35  1  0  0  0  0
 36 39  1  0  0  0  0
 37 43  1  1  0  0  0
 37 40  1  0  0  0  0
 38 44  1  6  0  0  0
 38 36  1  0  0  0  0
 39 33  1  1  0  0  0
 40 39  1  0  0  0  0
 41 38  1  0  0  0  0
 41 37  1  0  0  0  0
 42 43  1  0  0  0  0
 45 47  2  0  0  0  0
 47 46  1  0  0  0  0
 47 48  1  0  0  0  0
 48 44  1  0  0  0  0
 49 50  1  6  0  0  0
 49  2  1  0  0  0  0
 49 55  1  0  0  0  0
 51 52  2  0  0  0  0
 52 50  1  0  0  0  0
 53 52  1  0  0  0  0
 54 53  1  0  0  0  0
 56 55  1  0  0  0  0
 56 58  1  0  0  0  0
 58 57  1  0  0  0  0
M  END
>  <MODEL>
8

>  <REMARK>
 VINA RESULT:      -0.3      4.214     12.823
  Name = 
  24 active torsions:
  status: ('A' for Active; 'I' for Inactive)
    1  A    between atoms: C_1  and  C_39
    2  A    between atoms: C_2  and  C_37
    3  A    between atoms: C_2  and  N_56
    4  A    between atoms: C_3  and  C_38
    5  A    between atoms: C_3  and  C_47
    6  A    between atoms: C_4  and  C_33
    7  A    between atoms: C_5  and  C_48
    8  A    between atoms: C_7  and  C_41
    9  A    between atoms: C_12  and  C_55
   10  A    between atoms: C_13  and  C_38
   11  A    between atoms: C_15  and  C_26
   12  A    between atoms: C_15  and  C_28
   13  A    between atoms: C_15  and  C_54
   14  A    between atoms: C_16  and  C_49
   15  A    between atoms: C_17  and  C_28
   16  A    between atoms: C_17  and  C_32
   17  A    between atoms: C_18  and  C_46
   18  A    between atoms: C_19  and  C_38
   19  A    between atoms: C_21  and  N_52
   20  A    between atoms: C_26  and  C_30
   21  A    between atoms: C_30  and  C_44
   22  A    between atoms: C_31  and  C_55
   23  A    between atoms: C_32  and  C_47
   24  A    between atoms: C_33  and  C_54
                            x       y       z     vdW  Elec       q    Type
                         _______ _______ _______ _____ _____    ______ ____

>  <TORSDO>
F 24

$$$$
=
 OpenBabel11052411323D

 58 62  0  0  1  0  0  0  0  0999 V2000
  159.6610  212.7140  149.6960 C   0  0  0  0  0  3  0  0  0  0  0  0
  159.0900  213.3330  150.7470 C   0  0  0  0  0  0  0  0  0  0  0  0
  159.8830  213.7420  151.9600 C   0  0  0  0  0  2  0  0  0  0  0  0
  160.3830  212.5240  152.7290 C   0  0  0  0  0  2  0  0  0  0  0  0
  159.6810  211.2660  152.2440 C   0  0  0  0  0  2  0  0  0  0  0  0
  158.9050  210.6120  153.3780 C   0  0  2  0  0  3  0  0  0  0  0  0
  157.7960  211.5320  153.8770 C   0  0  0  0  0  1  0  0  0  0  0  0
  159.8490  210.1580  154.5030 C   0  0  2  0  0  3  0  0  0  0  0  0
  162.3440  210.2480  153.7660 C   0  0  1  0  0  3  0  0  0  0  0  0
  161.1820  210.9240  154.5190 C   0  0  2  0  0  3  0  0  0  0  0  0
  162.2330  210.1380  155.2780 C   0  0  0  0  0  2  0  0  0  0  0  0
  160.7730  206.3210  149.1210 C   0  0  1  0  0  3  0  0  0  0  0  0
  161.3210  205.2160  149.8020 O   0  0  0  0  0  0  0  0  0  0  0  0
  161.2930  206.5300  151.8330 C   0  0  0  0  0  0  0  0  0  0  0  0
  161.9080  208.8760  151.6770 C   0  0  0  0  0  3  0  0  0  0  0  0
  161.3280  206.6240  153.2320 C   0  0  0  0  0  3  0  0  0  0  0  0
  161.9970  208.9520  153.0750 C   0  0  0  0  0  0  0  0  0  0  0  0
  161.5480  207.6770  151.0570 C   0  0  0  0  0  0  0  0  0  0  0  0
  160.8370  205.2650  151.1270 C   0  0  2  0  0  3  0  0  0  0  0  0
  161.4810  207.6090  149.5600 C   0  0  0  0  0  2  0  0  0  0  0  0
  161.6810  207.8280  153.8480 C   0  0  0  0  0  3  0  0  0  0  0  0
  160.2870  203.2090  152.5070 N   0  0  0  0  0  1  0  0  0  0  0  0
  161.2550  204.0250  151.8530 C   0  0  0  0  0  0  0  0  0  0  0  0
  162.4700  203.6960  151.8740 O   0  0  0  0  0  0  0  0  0  0  0  0
  162.2000  206.3600  147.1870 O   0  0  0  0  0  1  0  0  0  0  0  0
  160.8900  206.1250  147.6150 C   0  0  0  0  0  2  0  0  0  0  0  0
  160.0470  208.6370  154.6010 C   0  0  0  0  0  2  0  0  0  0  0  0
  159.1510  207.9840  155.6420 C   0  0  0  0  0  1  0  0  0  0  0  0
  161.1240  212.4100  149.6210 C   0  0  0  0  0  2  0  0  0  0  0  0
  161.5350  213.3020  147.3610 C   0  0  1  0  0  3  0  0  0  0  0  0
  161.4900  212.0390  148.1990 C   0  0  1  0  0  3  0  0  0  0  0  0
  162.8210  212.6760  147.8520 C   0  0  0  0  0  2  0  0  0  0  0  0
  160.2430  213.4710  145.2000 C   0  0  0  0  0  0  0  0  0  0  0  0
  159.4210  214.2790  145.7180 O   0  0  0  0  0  0  0  0  0  0  0  0
  161.3280  212.9480  145.9650 N   0  0  0  0  0  2  0  0  0  0  0  0
  161.1720  212.0420  143.3760 C   0  0  0  0  0  2  0  0  0  0  0  0
  159.5020  213.7240  141.6640 C   0  0  1  0  0  3  0  0  0  0  0  0
  161.3990  212.0820  141.8610 C   0  0  2  0  0  3  0  0  0  0  0  0
  160.0640  213.0210  143.7880 C   0  0  2  0  0  3  0  0  0  0  0  0
  160.0250  214.1330  142.9210 O   0  0  0  0  0  0  0  0  0  0  0  0
  160.1010  212.4080  141.1290 C   0  0  0  0  0  2  0  0  0  0  0  0
  157.4350  214.3890  142.8950 C   0  0  0  0  0  1  0  0  0  0  0  0
  157.9770  213.6610  141.6810 C   0  0  0  0  0  2  0  0  0  0  0  0
  161.9570  210.7560  141.3700 C   0  0  0  0  0  2  0  0  0  0  0  0
  163.1240  210.7250  137.8920 O   0  0  0  0  0  0  0  0  0  0  0  0
  161.1710  209.8420  138.7100 O   0  0  0  0  0  1  0  0  0  0  0  0
  162.3790  210.5140  138.8850 C   0  0  0  0  0  0  0  0  0  0  0  0
  162.7840  210.9610  140.1850 N   0  0  0  0  0  2  0  0  0  0  0  0
  157.6140  213.6140  150.7540 C   0  0  2  0  0  3  0  0  0  0  0  0
  157.2320  214.4530  149.5320 C   0  0  0  0  0  2  0  0  0  0  0  0
  156.0130  212.5240  148.6370 C   0  0  0  0  0  2  0  0  0  0  0  0
  156.7460  213.6100  148.3950 C   0  0  0  0  0  0  0  0  0  0  0  0
  157.3290  213.8260  147.0370 C   0  0  0  0  0  2  0  0  0  0  0  0
  156.2680  213.6640  145.9650 C   0  0  0  0  0  1  0  0  0  0  0  0
  157.1970  214.2860  152.0580 C   0  0  0  0  0  2  0  0  0  0  0  0
  155.7450  213.9710  152.3760 C   0  0  0  0  0  2  0  0  0  0  0  0
  155.1960  214.4460  154.7660 C   0  0  0  0  0  1  0  0  0  0  0  0
  155.6230  213.3800  153.7700 C   0  0  0  0  0  2  0  0  0  0  0  0
  1  2  2  0  0  0  0
  2 49  1  0  0  0  0
  2  3  1  0  0  0  0
  3  4  1  0  0  0  0
  5  4  1  0  0  0  0
  5  6  1  0  0  0  0
  6  7  1  1  0  0  0
  6  8  1  0  0  0  0
  8 27  1  6  0  0  0
  9 17  1  6  0  0  0
  9 10  1  0  0  0  0
  9 11  1  0  0  0  0
 10  8  1  6  0  0  0
 10 11  1  0  0  0  0
 12 26  1  6  0  0  0
 12 20  1  0  0  0  0
 12 13  1  0  0  0  0
 13 19  1  0  0  0  0
 14 16  1  0  0  0  0
 15 17  2  0  0  0  0
 16 21  2  0  0  0  0
 17 21  1  0  0  0  0
 18 15  1  0  0  0  0
 18 14  2  0  0  0  0
 19 14  1  0  0  0  0
 19 23  1  1  0  0  0
 20 18  1  0  0  0  0
 23 24  2  0  0  0  0
 23 22  1  0  0  0  0
 25 26  1  0  0  0  0
 27 28  1  0  0  0  0
 29  1  1  0  0  0  0
 30 35  1  6  0  0  0
 30 32  1  0  0  0  0
 30 31  1  0  0  0  0
 31 29  1  1  0  0  0
 32 31  1  0  0  0  0
 33 34  2  0  0  0  0
 33 35  1  0  0  0  0
 36 39  1  0  0  0  0
 37 43  1  1  0  0  0
 37 40  1  0  0  0  0
 38 44  1  6  0  0  0
 38 36  1  0  0  0  0
 39 33  1  1  0  0  0
 40 39  1  0  0  0  0
 41 37  1  0  0  0  0
 41 38  1  0  0  0  0
 43 42  1  0  0  0  0
 45 47  2  0  0  0  0
 46 47  1  0  0  0  0
 47 48  1  0  0  0  0
 48 44  1  0  0  0  0
 49 50  1  6  0  0  0
 49 55  1  0  0  0  0
 52 51  2  0  0  0  0
 52 50  1  0  0  0  0
 53 52  1  0  0  0  0
 54 53  1  0  0  0  0
 55 56  1  0  0  0  0
 56 58  1  0  0  0  0
 58 57  1  0  0  0  0
M  END
>  <MODEL>
9

>  <REMARK>
 VINA RESULT:      -0.1      4.193     13.199
  Name = 
  24 active torsions:
  status: ('A' for Active; 'I' for Inactive)
    1  A    between atoms: C_1  and  C_39
    2  A    between atoms: C_2  and  C_37
    3  A    between atoms: C_2  and  N_56
    4  A    between atoms: C_3  and  C_38
    5  A    between atoms: C_3  and  C_47
    6  A    between atoms: C_4  and  C_33
    7  A    between atoms: C_5  and  C_48
    8  A    between atoms: C_7  and  C_41
    9  A    between atoms: C_12  and  C_55
   10  A    between atoms: C_13  and  C_38
   11  A    between atoms: C_15  and  C_26
   12  A    between atoms: C_15  and  C_28
   13  A    between atoms: C_15  and  C_54
   14  A    between atoms: C_16  and  C_49
   15  A    between atoms: C_17  and  C_28
   16  A    between atoms: C_17  and  C_32
   17  A    between atoms: C_18  and  C_46
   18  A    between atoms: C_19  and  C_38
   19  A    between atoms: C_21  and  N_52
   20  A    between atoms: C_26  and  C_30
   21  A    between atoms: C_30  and  C_44
   22  A    between atoms: C_31  and  C_55
   23  A    between atoms: C_32  and  C_47
   24  A    between atoms: C_33  and  C_54
                            x       y       z     vdW  Elec       q    Type
                         _______ _______ _______ _____ _____    ______ ____

>  <TORSDO>
F 24

$$$$
