=
 OpenBabel11042420433D

 27 28  0  0  1  0  0  0  0  0999 V2000
  162.4180  207.7070  150.4790 N   0  0  0  0  0  2  0  0  0  0  0  0
  160.8590  204.3220  150.0220 C   0  0  0  0  0  0  0  0  0  0  0  0
  160.8100  203.8830  151.3470 C   0  0  0  0  0  3  0  0  0  0  0  0
  160.3680  203.5050  149.0560 F   0  0  0  0  0  0  0  0  0  0  0  0
  161.7930  205.9580  152.0840 C   0  0  0  0  0  3  0  0  0  0  0  0
  161.8460  206.4220  150.7610 C   0  0  0  0  0  0  0  0  0  0  0  0
  161.3720  205.5990  149.7080 C   0  0  0  0  0  0  0  0  0  0  0  0
  161.2760  204.6970  152.3760 C   0  0  0  0  0  3  0  0  0  0  0  0
  160.3230  206.4670  147.7270 N   0  0  0  0  0  2  0  0  0  0  0  0
  161.4110  206.0560  148.2950 C   0  0  0  0  0  0  0  0  0  0  0  0
  162.9010  205.0950  146.6210 N   0  0  0  0  0  0  0  0  0  0  0  0
  162.6390  205.9380  147.5480 N   0  0  0  0  0  0  0  0  0  0  0  0
  162.0070  204.1270  146.1360 C   0  0  0  0  0  0  0  0  0  0  0  0
  161.2440  203.2930  145.7120 C   0  0  0  0  0  3  0  0  0  0  0  0
  161.6880  208.9650  150.5890 C   0  0  2  0  0  3  0  0  0  0  0  0
  162.2430  209.2990  148.2840 O   0  0  0  0  0  0  0  0  0  0  0  0
  161.9900  212.1270  148.3710 C   0  0  0  0  0  1  0  0  0  0  0  0
  161.9160  209.8220  149.3840 C   0  0  0  0  0  0  0  0  0  0  0  0
  161.7780  211.2380  149.5010 N   0  0  0  0  0  2  0  0  0  0  0  0
  162.0820  209.6890  151.8390 C   0  0  0  0  0  0  0  0  0  0  0  0
  163.2680  210.0930  151.9840 O   0  0  0  0  0  0  0  0  0  0  0  0
  158.1590  211.4010  155.0270 C   0  0  0  0  0  1  0  0  0  0  0  0
  159.9150  211.1600  152.8530 S   0  0  0  0  0  0  0  0  0  0  0  0
  159.9620  209.6780  154.8870 N   0  0  0  0  0  0  0  0  0  0  0  0
  161.0870  209.9510  152.8880 C   0  0  0  0  0  0  0  0  0  0  0  0
  160.9620  209.2390  154.0760 C   0  0  0  0  0  3  0  0  0  0  0  0
  159.2980  210.7250  154.3530 C   0  0  0  0  0  0  0  0  0  0  0  0
  1 15  1  0  0  0  0
  1  6  1  0  0  0  0
  2  3  1  0  0  0  0
  3  8  2  0  0  0  0
  4  2  1  0  0  0  0
  5  8  1  0  0  0  0
  6  5  2  0  0  0  0
  7  2  2  0  0  0  0
  7  6  1  0  0  0  0
  9 10  2  0  0  0  0
 10  7  1  0  0  0  0
 11 12  2  0  0  0  0
 12 10  1  0  0  0  0
 13 11  1  0  0  0  0
 14 13  3  0  0  0  0
 15 18  1  6  0  0  0
 15 20  1  0  0  0  0
 16 18  2  0  0  0  0
 17 19  1  0  0  0  0
 18 19  1  0  0  0  0
 20 21  2  0  0  0  0
 20 25  1  0  0  0  0
 23 25  1  0  0  0  0
 23 27  1  0  0  0  0
 25 26  2  0  0  0  0
 26 24  1  0  0  0  0
 27 24  2  0  0  0  0
 27 22  1  0  0  0  0
M  END
>  <MODEL>
1

>  <REMARK>
 VINA RESULT:      -6.8      0.000      0.000
  Name = 
  8 active torsions:
  status: ('A' for Active; 'I' for Inactive)
    1  A    between atoms: C_2  and  N_6
    2  A    between atoms: C_2  and  C_8
    3  A    between atoms: C_2  and  C_22
    4  A    between atoms: N_6  and  C_19
    5  A    between atoms: C_8  and  C_13
    6  A    between atoms: C_10  and  N_16
    7  A    between atoms: C_20  and  C_27
    8  A    between atoms: N_24  and  C_27
                            x       y       z     vdW  Elec       q    Type
                         _______ _______ _______ _____ _____    ______ ____

>  <TORSDO>
F 8

$$$$
=
 OpenBabel11042420433D

 27 28  0  0  1  0  0  0  0  0999 V2000
  161.8290  206.1440  150.9690 N   0  0  0  0  0  2  0  0  0  0  0  0
  160.8760  203.1870  148.8590 C   0  0  0  0  0  0  0  0  0  0  0  0
  160.7350  202.2070  149.8440 C   0  0  0  0  0  3  0  0  0  0  0  0
  160.6380  202.8410  147.5680 F   0  0  0  0  0  0  0  0  0  0  0  0
  161.2900  203.8200  151.5480 C   0  0  0  0  0  3  0  0  0  0  0  0
  161.4310  204.8230  150.5770 C   0  0  0  0  0  0  0  0  0  0  0  0
  161.2210  204.5110  149.2100 C   0  0  0  0  0  0  0  0  0  0  0  0
  160.9410  202.5200  151.1840 C   0  0  0  0  0  3  0  0  0  0  0  0
  160.3680  206.3360  147.8970 N   0  0  0  0  0  2  0  0  0  0  0  0
  161.3610  205.5450  148.1530 C   0  0  0  0  0  0  0  0  0  0  0  0
  162.6870  205.2570  146.1280 N   0  0  0  0  0  0  0  0  0  0  0  0
  162.5630  205.5860  147.3580 N   0  0  0  0  0  0  0  0  0  0  0  0
  161.6420  204.8110  145.3030 C   0  0  0  0  0  0  0  0  0  0  0  0
  160.7480  204.4310  144.5870 C   0  0  0  0  0  3  0  0  0  0  0  0
  161.0910  206.9660  151.9220 C   0  0  2  0  0  3  0  0  0  0  0  0
  160.2740  209.2150  152.0020 O   0  0  0  0  0  0  0  0  0  0  0  0
  162.1180  210.2210  150.0910 C   0  0  0  0  0  1  0  0  0  0  0  0
  161.1050  208.4040  151.5100 C   0  0  0  0  0  0  0  0  0  0  0  0
  162.0550  208.8410  150.5390 N   0  0  0  0  0  2  0  0  0  0  0  0
  161.6560  206.8020  153.2990 C   0  0  0  0  0  0  0  0  0  0  0  0
  162.6920  206.1040  153.4740 O   0  0  0  0  0  0  0  0  0  0  0  0
  160.0210  209.9830  157.2610 C   0  0  0  0  0  1  0  0  0  0  0  0
  161.4280  208.9880  155.0470 S   0  0  0  0  0  0  0  0  0  0  0  0
  159.5710  207.7570  156.2190 N   0  0  0  0  0  0  0  0  0  0  0  0
  161.0210  207.4690  154.4440 C   0  0  0  0  0  0  0  0  0  0  0  0
  159.9850  206.9440  155.2100 C   0  0  0  0  0  3  0  0  0  0  0  0
  160.2660  208.9130  156.2580 C   0  0  0  0  0  0  0  0  0  0  0  0
  2  7  2  0  0  0  0
  2  3  1  0  0  0  0
  3  8  2  0  0  0  0
  4  2  1  0  0  0  0
  6  1  1  0  0  0  0
  6  5  2  0  0  0  0
  7  6  1  0  0  0  0
  8  5  1  0  0  0  0
  9 10  2  0  0  0  0
 10  7  1  0  0  0  0
 11 12  2  0  0  0  0
 12 10  1  0  0  0  0
 13 11  1  0  0  0  0
 14 13  3  0  0  0  0
 15  1  1  6  0  0  0
 15 20  1  0  0  0  0
 17 19  1  0  0  0  0
 18 15  1  0  0  0  0
 18 16  2  0  0  0  0
 19 18  1  0  0  0  0
 20 21  2  0  0  0  0
 20 25  1  0  0  0  0
 23 27  1  0  0  0  0
 24 27  2  0  0  0  0
 25 23  1  0  0  0  0
 25 26  2  0  0  0  0
 26 24  1  0  0  0  0
 27 22  1  0  0  0  0
M  END
>  <MODEL>
2

>  <REMARK>
 VINA RESULT:      -6.6      1.979      2.430
  Name = 
  8 active torsions:
  status: ('A' for Active; 'I' for Inactive)
    1  A    between atoms: C_2  and  N_6
    2  A    between atoms: C_2  and  C_8
    3  A    between atoms: C_2  and  C_22
    4  A    between atoms: N_6  and  C_19
    5  A    between atoms: C_8  and  C_13
    6  A    between atoms: C_10  and  N_16
    7  A    between atoms: C_20  and  C_27
    8  A    between atoms: N_24  and  C_27
                            x       y       z     vdW  Elec       q    Type
                         _______ _______ _______ _____ _____    ______ ____

>  <TORSDO>
F 8

$$$$
=
 OpenBabel11042420433D

 27 28  0  0  1  0  0  0  0  0999 V2000
  161.8290  206.6590  149.3000 N   0  0  0  0  0  2  0  0  0  0  0  0
  161.1800  203.1750  148.0590 C   0  0  0  0  0  0  0  0  0  0  0  0
  160.6180  202.5990  149.2010 C   0  0  0  0  0  3  0  0  0  0  0  0
  161.3020  202.4090  146.9460 F   0  0  0  0  0  0  0  0  0  0  0  0
  160.8370  204.6910  150.3800 C   0  0  0  0  0  3  0  0  0  0  0  0
  161.3980  205.2930  149.2430 C   0  0  0  0  0  0  0  0  0  0  0  0
  161.5750  204.5310  148.0600 C   0  0  0  0  0  0  0  0  0  0  0  0
  160.4470  203.3530  150.3580 C   0  0  0  0  0  3  0  0  0  0  0  0
  163.3800  204.8390  146.5020 N   0  0  0  0  0  2  0  0  0  0  0  0
  162.1650  205.1330  146.8370 C   0  0  0  0  0  0  0  0  0  0  0  0
  160.5520  205.8950  145.1750 N   0  0  0  0  0  0  0  0  0  0  0  0
  161.4100  206.1150  146.0990 N   0  0  0  0  0  0  0  0  0  0  0  0
  160.1620  204.6240  144.7220 C   0  0  0  0  0  0  0  0  0  0  0  0
  159.8310  203.5280  144.3400 C   0  0  0  0  0  3  0  0  0  0  0  0
  161.4990  207.5720  150.3890 C   0  0  2  0  0  3  0  0  0  0  0  0
  162.4960  209.6740  150.9540 O   0  0  0  0  0  0  0  0  0  0  0  0
  162.1040  210.8360  148.3920 C   0  0  0  0  0  1  0  0  0  0  0  0
  161.9400  208.9660  150.0710 C   0  0  0  0  0  0  0  0  0  0  0  0
  161.7060  209.4890  148.7640 N   0  0  0  0  0  2  0  0  0  0  0  0
  162.1120  207.0990  151.6700 C   0  0  0  0  0  0  0  0  0  0  0  0
  163.2100  206.4780  151.6490 O   0  0  0  0  0  0  0  0  0  0  0  0
  159.8060  207.0880  156.4830 C   0  0  0  0  0  1  0  0  0  0  0  0
  161.0750  206.2330  154.1320 S   0  0  0  0  0  0  0  0  0  0  0  0
  160.4490  208.6220  154.6190 N   0  0  0  0  0  0  0  0  0  0  0  0
  161.4530  207.3760  152.9540 C   0  0  0  0  0  0  0  0  0  0  0  0
  161.0370  208.6290  153.3930 C   0  0  0  0  0  3  0  0  0  0  0  0
  160.3970  207.3830  155.1520 C   0  0  0  0  0  0  0  0  0  0  0  0
  2  7  2  0  0  0  0
  2  3  1  0  0  0  0
  3  8  2  0  0  0  0
  4  2  1  0  0  0  0
  6  1  1  0  0  0  0
  6  5  2  0  0  0  0
  7  6  1  0  0  0  0
  8  5  1  0  0  0  0
  9 10  2  0  0  0  0
 10  7  1  0  0  0  0
 11 12  2  0  0  0  0
 12 10  1  0  0  0  0
 13 11  1  0  0  0  0
 14 13  3  0  0  0  0
 15  1  1  6  0  0  0
 15 20  1  0  0  0  0
 17 19  1  0  0  0  0
 18 15  1  0  0  0  0
 18 16  2  0  0  0  0
 19 18  1  0  0  0  0
 20 25  1  0  0  0  0
 21 20  2  0  0  0  0
 23 27  1  0  0  0  0
 24 27  2  0  0  0  0
 25 26  2  0  0  0  0
 25 23  1  0  0  0  0
 26 24  1  0  0  0  0
 27 22  1  0  0  0  0
M  END
>  <MODEL>
3

>  <REMARK>
 VINA RESULT:      -6.5      2.067      2.636
  Name = 
  8 active torsions:
  status: ('A' for Active; 'I' for Inactive)
    1  A    between atoms: C_2  and  N_6
    2  A    between atoms: C_2  and  C_8
    3  A    between atoms: C_2  and  C_22
    4  A    between atoms: N_6  and  C_19
    5  A    between atoms: C_8  and  C_13
    6  A    between atoms: C_10  and  N_16
    7  A    between atoms: C_20  and  C_27
    8  A    between atoms: N_24  and  C_27
                            x       y       z     vdW  Elec       q    Type
                         _______ _______ _______ _____ _____    ______ ____

>  <TORSDO>
F 8

$$$$
=
 OpenBabel11042420433D

 27 28  0  0  1  0  0  0  0  0999 V2000
  161.7470  206.8830  152.0300 N   0  0  0  0  0  2  0  0  0  0  0  0
  160.9930  203.9800  149.7710 C   0  0  0  0  0  0  0  0  0  0  0  0
  160.7950  202.9680  150.7130 C   0  0  0  0  0  3  0  0  0  0  0  0
  160.8530  203.6700  148.4560 F   0  0  0  0  0  0  0  0  0  0  0  0
  161.2010  204.5360  152.4990 C   0  0  0  0  0  3  0  0  0  0  0  0
  161.3970  205.5700  151.5710 C   0  0  0  0  0  0  0  0  0  0  0  0
  161.2920  205.2970  150.1840 C   0  0  0  0  0  0  0  0  0  0  0  0
  160.8990  203.2440  152.0740 C   0  0  0  0  0  3  0  0  0  0  0  0
  162.5620  207.0920  149.2130 N   0  0  0  0  0  2  0  0  0  0  0  0
  161.4920  206.3640  149.1710 C   0  0  0  0  0  0  0  0  0  0  0  0
  160.4820  206.4550  146.9530 N   0  0  0  0  0  0  0  0  0  0  0  0
  160.4450  206.6410  148.2190 N   0  0  0  0  0  0  0  0  0  0  0  0
  161.5690  205.9100  146.2500 C   0  0  0  0  0  0  0  0  0  0  0  0
  162.4990  205.4350  145.6450 C   0  0  0  0  0  3  0  0  0  0  0  0
  160.8110  207.7910  152.6850 C   0  0  2  0  0  3  0  0  0  0  0  0
  159.8800  209.9440  152.2060 O   0  0  0  0  0  0  0  0  0  0  0  0
  162.0390  210.7940  150.5680 C   0  0  0  0  0  1  0  0  0  0  0  0
  160.8390  209.1420  152.0420 C   0  0  0  0  0  0  0  0  0  0  0  0
  161.9530  209.5010  151.2250 N   0  0  0  0  0  2  0  0  0  0  0  0
  161.1200  207.8910  154.1460 C   0  0  0  0  0  0  0  0  0  0  0  0
  161.5400  206.8800  154.7710 O   0  0  0  0  0  0  0  0  0  0  0  0
  159.5770  212.1890  156.9100 C   0  0  0  0  0  1  0  0  0  0  0  0
  159.5690  209.6770  155.6620 S   0  0  0  0  0  0  0  0  0  0  0  0
  161.5290  211.2570  155.6600 N   0  0  0  0  0  0  0  0  0  0  0  0
  160.9560  209.1700  154.8510 C   0  0  0  0  0  0  0  0  0  0  0  0
  161.9260  210.1630  154.9560 C   0  0  0  0  0  3  0  0  0  0  0  0
  160.2620  211.1390  156.1120 C   0  0  0  0  0  0  0  0  0  0  0  0
  2  7  2  0  0  0  0
  2  3  1  0  0  0  0
  3  8  2  0  0  0  0
  4  2  1  0  0  0  0
  6  1  1  0  0  0  0
  6  5  2  0  0  0  0
  7  6  1  0  0  0  0
  8  5  1  0  0  0  0
 10  9  2  0  0  0  0
 10  7  1  0  0  0  0
 11 12  2  0  0  0  0
 12 10  1  0  0  0  0
 13 11  1  0  0  0  0
 14 13  3  0  0  0  0
 15  1  1  6  0  0  0
 15 20  1  0  0  0  0
 17 19  1  0  0  0  0
 18 16  2  0  0  0  0
 18 15  1  0  0  0  0
 19 18  1  0  0  0  0
 20 21  2  0  0  0  0
 20 25  1  0  0  0  0
 23 27  1  0  0  0  0
 24 27  2  0  0  0  0
 25 26  2  0  0  0  0
 25 23  1  0  0  0  0
 26 24  1  0  0  0  0
 27 22  1  0  0  0  0
M  END
>  <MODEL>
4

>  <REMARK>
 VINA RESULT:      -6.2      2.000      2.411
  Name = 
  8 active torsions:
  status: ('A' for Active; 'I' for Inactive)
    1  A    between atoms: C_2  and  N_6
    2  A    between atoms: C_2  and  C_8
    3  A    between atoms: C_2  and  C_22
    4  A    between atoms: N_6  and  C_19
    5  A    between atoms: C_8  and  C_13
    6  A    between atoms: C_10  and  N_16
    7  A    between atoms: C_20  and  C_27
    8  A    between atoms: N_24  and  C_27
                            x       y       z     vdW  Elec       q    Type
                         _______ _______ _______ _____ _____    ______ ____

>  <TORSDO>
F 8

$$$$
=
 OpenBabel11042420433D

 27 28  0  0  1  0  0  0  0  0999 V2000
  160.7240  207.6980  151.0000 N   0  0  0  0  0  2  0  0  0  0  0  0
  160.9740  208.3390  154.6920 C   0  0  0  0  0  0  0  0  0  0  0  0
  161.1570  207.0380  155.1640 C   0  0  0  0  0  3  0  0  0  0  0  0
  160.9590  209.3540  155.5930 F   0  0  0  0  0  0  0  0  0  0  0  0
  161.0760  206.1930  152.9070 C   0  0  0  0  0  3  0  0  0  0  0  0
  160.8970  207.4930  152.4090 C   0  0  0  0  0  0  0  0  0  0  0  0
  160.8460  208.5880  153.3080 C   0  0  0  0  0  0  0  0  0  0  0  0
  161.2080  205.9670  154.2760 C   0  0  0  0  0  3  0  0  0  0  0  0
  161.6950  210.7030  152.5400 N   0  0  0  0  0  2  0  0  0  0  0  0
  160.6580  209.9780  152.8190 C   0  0  0  0  0  0  0  0  0  0  0  0
  158.8210  211.4080  153.5430 N   0  0  0  0  0  0  0  0  0  0  0  0
  159.3290  210.5330  152.7590 N   0  0  0  0  0  0  0  0  0  0  0  0
  159.4950  212.0190  154.6130 C   0  0  0  0  0  0  0  0  0  0  0  0
  160.0700  212.5520  155.5310 C   0  0  0  0  0  3  0  0  0  0  0  0
  161.5820  207.1060  149.9800 C   0  0  2  0  0  3  0  0  0  0  0  0
  163.0740  207.8530  148.2620 O   0  0  0  0  0  0  0  0  0  0  0  0
  162.5240  210.6150  148.6330 C   0  0  0  0  0  1  0  0  0  0  0  0
  162.2370  208.1670  149.1520 C   0  0  0  0  0  0  0  0  0  0  0  0
  161.9200  209.5370  149.3970 N   0  0  0  0  0  2  0  0  0  0  0  0
  160.7970  206.1680  149.1180 C   0  0  0  0  0  0  0  0  0  0  0  0
  160.0840  206.6230  148.1820 O   0  0  0  0  0  0  0  0  0  0  0  0
  161.2710  200.8560  148.9240 C   0  0  0  0  0  1  0  0  0  0  0  0
  161.2060  203.5560  148.1700 S   0  0  0  0  0  0  0  0  0  0  0  0
  160.7950  202.7260  150.5100 N   0  0  0  0  0  0  0  0  0  0  0  0
  160.8710  204.7180  149.3430 C   0  0  0  0  0  0  0  0  0  0  0  0
  160.6740  204.0800  150.5630 C   0  0  0  0  0  3  0  0  0  0  0  0
  161.0850  202.2900  149.2660 C   0  0  0  0  0  0  0  0  0  0  0  0
  1  6  1  0  0  0  0
  2  3  1  0  0  0  0
  2  4  1  0  0  0  0
  5  8  1  0  0  0  0
  6  5  2  0  0  0  0
  6  7  1  0  0  0  0
  7  2  2  0  0  0  0
  8  3  2  0  0  0  0
  9 10  2  0  0  0  0
 10  7  1  0  0  0  0
 11 13  1  0  0  0  0
 12 10  1  0  0  0  0
 12 11  2  0  0  0  0
 13 14  3  0  0  0  0
 15 20  1  6  0  0  0
 15  1  1  0  0  0  0
 16 18  2  0  0  0  0
 17 19  1  0  0  0  0
 18 19  1  0  0  0  0
 18 15  1  0  0  0  0
 20 25  1  0  0  0  0
 21 20  2  0  0  0  0
 22 27  1  0  0  0  0
 23 27  1  0  0  0  0
 23 25  1  0  0  0  0
 24 26  1  0  0  0  0
 25 26  2  0  0  0  0
 27 24  2  0  0  0  0
M  END
>  <MODEL>
5

>  <REMARK>
 VINA RESULT:      -6.1      3.310      6.948
  Name = 
  8 active torsions:
  status: ('A' for Active; 'I' for Inactive)
    1  A    between atoms: C_2  and  N_6
    2  A    between atoms: C_2  and  C_8
    3  A    between atoms: C_2  and  C_22
    4  A    between atoms: N_6  and  C_19
    5  A    between atoms: C_8  and  C_13
    6  A    between atoms: C_10  and  N_16
    7  A    between atoms: C_20  and  C_27
    8  A    between atoms: N_24  and  C_27
                            x       y       z     vdW  Elec       q    Type
                         _______ _______ _______ _____ _____    ______ ____

>  <TORSDO>
F 8

$$$$
=
 OpenBabel11042420433D

 27 28  0  0  1  0  0  0  0  0999 V2000
  161.5290  208.2070  152.8350 N   0  0  0  0  0  2  0  0  0  0  0  0
  159.6960  209.2470  155.9430 C   0  0  0  0  0  0  0  0  0  0  0  0
  159.6420  208.0300  156.6260 C   0  0  0  0  0  3  0  0  0  0  0  0
  159.1520  210.3410  156.5340 F   0  0  0  0  0  0  0  0  0  0  0  0
  160.8400  206.9550  154.8310 C   0  0  0  0  0  3  0  0  0  0  0  0
  160.9130  208.1680  154.1300 C   0  0  0  0  0  0  0  0  0  0  0  0
  160.3360  209.3370  154.6880 C   0  0  0  0  0  0  0  0  0  0  0  0
  160.2120  206.8860  156.0730 C   0  0  0  0  0  3  0  0  0  0  0  0
  161.1240  211.5960  154.4500 N   0  0  0  0  0  2  0  0  0  0  0  0
  160.3920  210.6390  153.9760 C   0  0  0  0  0  0  0  0  0  0  0  0
  158.4020  211.4150  152.7990 N   0  0  0  0  0  0  0  0  0  0  0  0
  159.5510  210.8520  152.8240 N   0  0  0  0  0  0  0  0  0  0  0  0
  157.7500  211.9650  153.9150 C   0  0  0  0  0  0  0  0  0  0  0  0
  157.1910  212.4300  154.8780 C   0  0  0  0  0  3  0  0  0  0  0  0
  161.1140  207.3750  151.7110 C   0  0  2  0  0  3  0  0  0  0  0  0
  163.0080  205.9210  151.9050 O   0  0  0  0  0  0  0  0  0  0  0  0
  161.5010  203.5200  151.7370 C   0  0  0  0  0  1  0  0  0  0  0  0
  161.7570  206.0250  151.7800 C   0  0  0  0  0  0  0  0  0  0  0  0
  160.9400  204.8590  151.6820 N   0  0  0  0  0  2  0  0  0  0  0  0
  161.4360  208.0510  150.4150 C   0  0  0  0  0  0  0  0  0  0  0  0
  161.7510  209.2720  150.4040 O   0  0  0  0  0  0  0  0  0  0  0  0
  162.2740  205.6920  145.7020 C   0  0  0  0  0  1  0  0  0  0  0  0
  162.6420  207.2390  148.0120 S   0  0  0  0  0  0  0  0  0  0  0  0
  160.5690  205.9000  147.5150 N   0  0  0  0  0  0  0  0  0  0  0  0
  161.4080  207.2920  149.1570 C   0  0  0  0  0  0  0  0  0  0  0  0
  160.3530  206.4990  148.7170 C   0  0  0  0  0  3  0  0  0  0  0  0
  161.7790  206.2090  147.0040 C   0  0  0  0  0  0  0  0  0  0  0  0
  1  6  1  0  0  0  0
  2  4  1  0  0  0  0
  2  3  1  0  0  0  0
  5  8  1  0  0  0  0
  6  7  1  0  0  0  0
  6  5  2  0  0  0  0
  7  2  2  0  0  0  0
  8  3  2  0  0  0  0
 10  9  2  0  0  0  0
 10  7  1  0  0  0  0
 11 12  2  0  0  0  0
 11 13  1  0  0  0  0
 12 10  1  0  0  0  0
 13 14  3  0  0  0  0
 15 20  1  6  0  0  0
 15 18  1  0  0  0  0
 15  1  1  0  0  0  0
 18 16  2  0  0  0  0
 19 17  1  0  0  0  0
 19 18  1  0  0  0  0
 21 20  2  0  0  0  0
 22 27  1  0  0  0  0
 23 25  1  0  0  0  0
 24 26  1  0  0  0  0
 25 20  1  0  0  0  0
 26 25  2  0  0  0  0
 27 24  2  0  0  0  0
 27 23  1  0  0  0  0
M  END
>  <MODEL>
6

>  <REMARK>
 VINA RESULT:      -5.9      3.116      7.439
  Name = 
  8 active torsions:
  status: ('A' for Active; 'I' for Inactive)
    1  A    between atoms: C_2  and  N_6
    2  A    between atoms: C_2  and  C_8
    3  A    between atoms: C_2  and  C_22
    4  A    between atoms: N_6  and  C_19
    5  A    between atoms: C_8  and  C_13
    6  A    between atoms: C_10  and  N_16
    7  A    between atoms: C_20  and  C_27
    8  A    between atoms: N_24  and  C_27
                            x       y       z     vdW  Elec       q    Type
                         _______ _______ _______ _____ _____    ______ ____

>  <TORSDO>
F 8

$$$$
=
 OpenBabel11042420433D

 27 28  0  0  1  0  0  0  0  0999 V2000
  160.7450  206.2200  150.7220 N   0  0  0  0  0  2  0  0  0  0  0  0
  161.1970  203.3050  148.3990 C   0  0  0  0  0  0  0  0  0  0  0  0
  161.0710  202.2420  149.2960 C   0  0  0  0  0  3  0  0  0  0  0  0
  161.4050  203.0180  147.0880 F   0  0  0  0  0  0  0  0  0  0  0  0
  160.7120  203.7950  151.1050 C   0  0  0  0  0  3  0  0  0  0  0  0
  160.8290  204.8780  150.2210 C   0  0  0  0  0  0  0  0  0  0  0  0
  161.0740  204.6380  148.8450 C   0  0  0  0  0  0  0  0  0  0  0  0
  160.8290  202.4850  150.6450 C   0  0  0  0  0  3  0  0  0  0  0  0
  160.1740  206.4970  147.6140 N   0  0  0  0  0  2  0  0  0  0  0  0
  161.2040  205.7590  147.8790 C   0  0  0  0  0  0  0  0  0  0  0  0
  162.6580  205.7790  145.9210 N   0  0  0  0  0  0  0  0  0  0  0  0
  162.4480  205.9420  147.1730 N   0  0  0  0  0  0  0  0  0  0  0  0
  161.6820  205.4060  144.9820 C   0  0  0  0  0  0  0  0  0  0  0  0
  160.8500  205.0840  144.1700 C   0  0  0  0  0  3  0  0  0  0  0  0
  161.8380  206.9010  151.4080 C   0  0  2  0  0  3  0  0  0  0  0  0
  162.7140  206.1680  153.5120 O   0  0  0  0  0  0  0  0  0  0  0  0
  160.4130  206.8930  155.0110 C   0  0  0  0  0  1  0  0  0  0  0  0
  161.7520  206.6920  152.8870 C   0  0  0  0  0  0  0  0  0  0  0  0
  160.5630  207.0740  153.5770 N   0  0  0  0  0  2  0  0  0  0  0  0
  161.8310  208.3610  151.0760 C   0  0  0  0  0  0  0  0  0  0  0  0
  162.0450  208.7370  149.8920 O   0  0  0  0  0  0  0  0  0  0  0  0
  159.8790  211.9900  154.4690 C   0  0  0  0  0  1  0  0  0  0  0  0
  160.0790  210.1250  152.3830 S   0  0  0  0  0  0  0  0  0  0  0  0
  161.9740  210.7460  153.9190 N   0  0  0  0  0  0  0  0  0  0  0  0
  161.5550  209.3570  152.1210 C   0  0  0  0  0  0  0  0  0  0  0  0
  162.4750  209.8200  153.0560 C   0  0  0  0  0  3  0  0  0  0  0  0
  160.6740  211.0160  153.6760 C   0  0  0  0  0  0  0  0  0  0  0  0
  2  7  2  0  0  0  0
  2  3  1  0  0  0  0
  3  8  2  0  0  0  0
  4  2  1  0  0  0  0
  6  1  1  0  0  0  0
  6  5  2  0  0  0  0
  7  6  1  0  0  0  0
  8  5  1  0  0  0  0
  9 10  2  0  0  0  0
 10  7  1  0  0  0  0
 11 12  2  0  0  0  0
 12 10  1  0  0  0  0
 13 11  1  0  0  0  0
 14 13  3  0  0  0  0
 15  1  1  6  0  0  0
 15 18  1  0  0  0  0
 18 16  2  0  0  0  0
 18 19  1  0  0  0  0
 19 17  1  0  0  0  0
 20 15  1  0  0  0  0
 20 25  1  0  0  0  0
 21 20  2  0  0  0  0
 23 27  1  0  0  0  0
 25 23  1  0  0  0  0
 25 26  2  0  0  0  0
 26 24  1  0  0  0  0
 27 24  2  0  0  0  0
 27 22  1  0  0  0  0
M  END
>  <MODEL>
7

>  <REMARK>
 VINA RESULT:      -5.9      1.941      3.067
  Name = 
  8 active torsions:
  status: ('A' for Active; 'I' for Inactive)
    1  A    between atoms: C_2  and  N_6
    2  A    between atoms: C_2  and  C_8
    3  A    between atoms: C_2  and  C_22
    4  A    between atoms: N_6  and  C_19
    5  A    between atoms: C_8  and  C_13
    6  A    between atoms: C_10  and  N_16
    7  A    between atoms: C_20  and  C_27
    8  A    between atoms: N_24  and  C_27
                            x       y       z     vdW  Elec       q    Type
                         _______ _______ _______ _____ _____    ______ ____

>  <TORSDO>
F 8

$$$$
=
 OpenBabel11042420433D

 27 28  0  0  1  0  0  0  0  0999 V2000
  160.8030  207.3790  152.0230 N   0  0  0  0  0  2  0  0  0  0  0  0
  161.3530  204.2090  150.0870 C   0  0  0  0  0  0  0  0  0  0  0  0
  161.2470  203.2640  151.1090 C   0  0  0  0  0  3  0  0  0  0  0  0
  161.5800  203.7670  148.8240 F   0  0  0  0  0  0  0  0  0  0  0  0
  160.8310  205.0210  152.7070 C   0  0  0  0  0  3  0  0  0  0  0  0
  160.9270  205.9880  151.6950 C   0  0  0  0  0  0  0  0  0  0  0  0
  161.1910  205.5850  150.3610 C   0  0  0  0  0  0  0  0  0  0  0  0
  160.9870  203.6670  152.4160 C   0  0  0  0  0  3  0  0  0  0  0  0
  162.2200  207.4870  149.3120 N   0  0  0  0  0  2  0  0  0  0  0  0
  161.2990  206.5780  149.2630 C   0  0  0  0  0  0  0  0  0  0  0  0
  160.4790  206.2080  146.9970 N   0  0  0  0  0  0  0  0  0  0  0  0
  160.3140  206.5790  148.2100 N   0  0  0  0  0  0  0  0  0  0  0  0
  161.6750  205.6970  146.4660 C   0  0  0  0  0  0  0  0  0  0  0  0
  162.7060  205.2610  146.0160 C   0  0  0  0  0  3  0  0  0  0  0  0
  161.5960  208.0460  153.0500 C   0  0  2  0  0  3  0  0  0  0  0  0
  159.7920  207.4900  154.5220 O   0  0  0  0  0  0  0  0  0  0  0  0
  161.2800  207.8890  156.9080 C   0  0  0  0  0  1  0  0  0  0  0  0
  160.9980  207.8400  154.4060 C   0  0  0  0  0  0  0  0  0  0  0  0
  161.8010  208.0650  155.5630 N   0  0  0  0  0  2  0  0  0  0  0  0
  161.7260  209.5050  152.7420 C   0  0  0  0  0  0  0  0  0  0  0  0
  162.6980  209.9180  152.0530 O   0  0  0  0  0  0  0  0  0  0  0  0
  158.7130  213.1270  155.2490 C   0  0  0  0  0  1  0  0  0  0  0  0
  160.8330  211.4070  154.6060 S   0  0  0  0  0  0  0  0  0  0  0  0
  158.7290  211.6380  153.2440 N   0  0  0  0  0  0  0  0  0  0  0  0
  160.7130  210.4560  153.2210 C   0  0  0  0  0  0  0  0  0  0  0  0
  159.4940  210.7150  152.6020 C   0  0  0  0  0  3  0  0  0  0  0  0
  159.3280  212.1090  154.3580 C   0  0  0  0  0  0  0  0  0  0  0  0
  2  7  2  0  0  0  0
  2  3  1  0  0  0  0
  3  8  2  0  0  0  0
  4  2  1  0  0  0  0
  6  1  1  0  0  0  0
  6  5  2  0  0  0  0
  7  6  1  0  0  0  0
  8  5  1  0  0  0  0
 10  9  2  0  0  0  0
 10  7  1  0  0  0  0
 11 12  2  0  0  0  0
 12 10  1  0  0  0  0
 13 11  1  0  0  0  0
 14 13  3  0  0  0  0
 15  1  1  6  0  0  0
 15 18  1  0  0  0  0
 18 16  2  0  0  0  0
 18 19  1  0  0  0  0
 19 17  1  0  0  0  0
 20 15  1  0  0  0  0
 20 25  1  0  0  0  0
 21 20  2  0  0  0  0
 24 27  2  0  0  0  0
 25 23  1  0  0  0  0
 26 25  2  0  0  0  0
 26 24  1  0  0  0  0
 27 23  1  0  0  0  0
 27 22  1  0  0  0  0
M  END
>  <MODEL>
8

>  <REMARK>
 VINA RESULT:      -5.9      2.092      3.293
  Name = 
  8 active torsions:
  status: ('A' for Active; 'I' for Inactive)
    1  A    between atoms: C_2  and  N_6
    2  A    between atoms: C_2  and  C_8
    3  A    between atoms: C_2  and  C_22
    4  A    between atoms: N_6  and  C_19
    5  A    between atoms: C_8  and  C_13
    6  A    between atoms: C_10  and  N_16
    7  A    between atoms: C_20  and  C_27
    8  A    between atoms: N_24  and  C_27
                            x       y       z     vdW  Elec       q    Type
                         _______ _______ _______ _____ _____    ______ ____

>  <TORSDO>
F 8

$$$$
=
 OpenBabel11042420433D

 27 28  0  0  1  0  0  0  0  0999 V2000
  160.8990  206.6690  150.9160 N   0  0  0  0  0  2  0  0  0  0  0  0
  161.0640  203.4440  149.0000 C   0  0  0  0  0  0  0  0  0  0  0  0
  160.9590  202.5220  150.0440 C   0  0  0  0  0  3  0  0  0  0  0  0
  161.1640  202.9700  147.7320 F   0  0  0  0  0  0  0  0  0  0  0  0
  160.7950  204.3250  151.6370 C   0  0  0  0  0  3  0  0  0  0  0  0
  160.8920  205.2690  150.6030 C   0  0  0  0  0  0  0  0  0  0  0  0
  161.0270  204.8310  149.2620 C   0  0  0  0  0  0  0  0  0  0  0  0
  160.8260  202.9590  151.3590 C   0  0  0  0  0  3  0  0  0  0  0  0
  160.0840  206.4620  147.7690 N   0  0  0  0  0  2  0  0  0  0  0  0
  161.1320  205.8000  148.1410 C   0  0  0  0  0  0  0  0  0  0  0  0
  162.6000  205.5610  146.2090 N   0  0  0  0  0  0  0  0  0  0  0  0
  162.3750  205.9130  147.4190 N   0  0  0  0  0  0  0  0  0  0  0  0
  161.6450  205.0130  145.3380 C   0  0  0  0  0  0  0  0  0  0  0  0
  160.8240  204.5340  144.5950 C   0  0  0  0  0  3  0  0  0  0  0  0
  161.8480  207.2930  151.8320 C   0  0  2  0  0  3  0  0  0  0  0  0
  162.4590  205.9650  153.7280 O   0  0  0  0  0  0  0  0  0  0  0  0
  160.2710  206.7980  155.3360 C   0  0  0  0  0  1  0  0  0  0  0  0
  161.6500  206.7930  153.2280 C   0  0  0  0  0  0  0  0  0  0  0  0
  160.5240  207.2480  153.9780 N   0  0  0  0  0  2  0  0  0  0  0  0
  161.7200  208.7840  151.7780 C   0  0  0  0  0  0  0  0  0  0  0  0
  161.4920  209.4340  152.8350 O   0  0  0  0  0  0  0  0  0  0  0  0
  162.1840  212.2170  147.7190 C   0  0  0  0  0  1  0  0  0  0  0  0
  161.8460  211.1670  150.2970 S   0  0  0  0  0  0  0  0  0  0  0  0
  162.2060  209.7730  148.2330 N   0  0  0  0  0  0  0  0  0  0  0  0
  161.8820  209.4950  150.5030 C   0  0  0  0  0  0  0  0  0  0  0  0
  162.0890  208.8950  149.2650 C   0  0  0  0  0  3  0  0  0  0  0  0
  162.0950  211.0550  148.6400 C   0  0  0  0  0  0  0  0  0  0  0  0
  2  7  2  0  0  0  0
  2  3  1  0  0  0  0
  3  8  2  0  0  0  0
  4  2  1  0  0  0  0
  6  1  1  0  0  0  0
  6  5  2  0  0  0  0
  7  6  1  0  0  0  0
  8  5  1  0  0  0  0
  9 10  2  0  0  0  0
 10  7  1  0  0  0  0
 11 12  2  0  0  0  0
 12 10  1  0  0  0  0
 13 11  1  0  0  0  0
 14 13  3  0  0  0  0
 15  1  1  6  0  0  0
 15 18  1  0  0  0  0
 18 16  2  0  0  0  0
 18 19  1  0  0  0  0
 19 17  1  0  0  0  0
 20 15  1  0  0  0  0
 20 21  2  0  0  0  0
 22 27  1  0  0  0  0
 23 25  1  0  0  0  0
 24 27  2  0  0  0  0
 24 26  1  0  0  0  0
 25 20  1  0  0  0  0
 26 25  2  0  0  0  0
 27 23  1  0  0  0  0
M  END
>  <MODEL>
9

>  <REMARK>
 VINA RESULT:      -5.6      2.098      3.952
  Name = 
  8 active torsions:
  status: ('A' for Active; 'I' for Inactive)
    1  A    between atoms: C_2  and  N_6
    2  A    between atoms: C_2  and  C_8
    3  A    between atoms: C_2  and  C_22
    4  A    between atoms: N_6  and  C_19
    5  A    between atoms: C_8  and  C_13
    6  A    between atoms: C_10  and  N_16
    7  A    between atoms: C_20  and  C_27
    8  A    between atoms: N_24  and  C_27
                            x       y       z     vdW  Elec       q    Type
                         _______ _______ _______ _____ _____    ______ ____

>  <TORSDO>
F 8

$$$$
