=
 OpenBabel11052410333D

 65 77  0  0  1  0  0  0  0  0999 V2000
  160.4800  211.8950  146.3110 C   0  0  0  0  0  0  0  0  0  0  0  0
  159.1170  213.7820  146.3690 N   0  0  0  0  0  2  0  0  0  0  0  0
  158.8360  212.4960  151.2270 C   0  0  0  0  0  3  0  0  0  0  0  0
  160.6390  213.4730  148.2430 C   0  0  0  0  0  2  0  0  0  0  0  0
  160.7780  212.6620  149.4870 C   0  0  0  0  0  0  0  0  0  0  0  0
  159.7170  212.7740  147.2440 C   0  0  2  0  0  3  0  0  0  0  0  0
  161.3290  210.2500  147.9620 C   0  0  0  0  0  2  0  0  0  0  0  0
  162.0340  211.8890  149.7520 C   0  0  0  0  0  2  0  0  0  0  0  0
  159.7960  212.5840  150.3460 C   0  0  0  0  0  0  0  0  0  0  0  0
  159.8520  213.6540  145.1100 C   0  0  1  0  0  3  0  0  0  0  0  0
  161.0770  210.6690  146.6270 O   0  0  0  0  0  0  0  0  0  0  0  0
  160.5150  212.3660  145.1180 N   0  0  0  0  0  0  0  0  0  0  0  0
  162.4750  211.0710  148.5300 C   0  0  0  0  0  2  0  0  0  0  0  0
  158.2260  213.7920  143.0060 C   0  0  0  0  0  0  0  0  0  0  0  0
  158.9490  213.7750  143.9680 C   0  0  0  0  0  0  0  0  0  0  0  0
  157.4080  213.7470  141.8700 N   0  0  0  0  0  2  0  0  0  0  0  0
  153.2190  212.4080  141.4190 O   0  0  0  0  0  1  0  0  0  0  0  0
  155.8450  213.6080  138.7070 C   0  0  2  0  0  3  0  0  0  0  0  0
  158.1150  210.9280  137.8440 C   0  0  0  0  0  2  0  0  0  0  0  0
  157.5610  210.9460  139.0530 C   0  0  0  0  0  0  0  0  0  0  0  0
  155.4010  209.8000  138.7670 C   0  0  0  0  0  2  0  0  0  0  0  0
  156.9110  214.4520  139.4380 C   0  0  1  0  0  0  0  0  0  0  0  0
  156.7310  209.7880  139.4950 C   0  0  0  0  0  2  0  0  0  0  0  0
  158.0400  213.3750  139.5190 C   0  0  1  0  0  0  0  0  0  0  0  0
  153.4780  212.9260  139.0930 C   0  0  0  0  0  2  0  0  0  0  0  0
  154.2680  209.5360  139.7100 C   0  0  0  0  0  0  0  0  0  0  0  0
  153.1630  210.5530  139.8530 C   0  0  1  0  0  3  0  0  0  0  0  0
  154.4540  214.1120  139.0170 C   0  0  1  0  0  3  0  0  0  0  0  0
  157.9210  214.3460  140.6380 C   0  0  2  0  0  3  0  0  0  0  0  0
  154.1920  208.4520  140.2690 O   0  0  0  0  0  0  0  0  0  0  0  0
  157.6990  212.0390  139.9210 O   0  0  0  0  0  0  0  0  0  0  0  0
  155.5440  214.1090  140.0680 C   0  0  1  0  0  3  0  0  0  0  0  0
  152.2080  210.1350  140.7850 O   0  0  0  0  0  1  0  0  0  0  0  0
  153.7390  211.9230  140.2180 C   0  0  2  0  0  3  0  0  0  0  0  0
  160.6860  212.3380  140.4890 C   0  0  0  0  0  2  0  0  0  0  0  0
  163.0960  213.0640  140.5990 C   0  0  0  0  0  2  0  0  0  0  0  0
  160.5380  213.1550  139.2350 C   0  0  0  0  0  0  0  0  0  0  0  0
  162.8970  213.9310  139.3420 C   0  0  0  0  0  2  0  0  0  0  0  0
  162.1290  211.8750  140.6810 C   0  0  0  0  0  2  0  0  0  0  0  0
  161.7590  213.4740  138.4270 C   0  0  0  0  0  2  0  0  0  0  0  0
  159.3440  213.5900  138.8040 C   0  0  0  0  0  3  0  0  0  0  0  0
  159.3180  214.4520  152.4750 O   0  0  0  0  0  0  0  0  0  0  0  0
  158.8500  213.2820  152.4720 C   0  0  0  0  0  0  0  0  0  0  0  0
  160.6460  205.4090  151.0790 C   0  0  2  0  0  3  0  0  0  0  0  0
  157.2100  211.8650  153.5480 O   0  0  0  0  0  0  0  0  0  0  0  0
  160.1190  208.9410  154.2980 C   0  0  1  0  0  3  0  0  0  0  0  0
  160.6410  206.1190  149.7480 C   0  0  0  0  0  2  0  0  0  0  0  0
  161.2360  207.3830  149.9040 O   0  0  0  0  0  0  0  0  0  0  0  0
  158.3150  212.7180  153.7590 C   0  0  1  0  0  3  0  0  0  0  0  0
  161.5780  206.2800  153.1540 N   0  0  0  0  0  2  0  0  0  0  0  0
  161.8150  208.3810  152.0370 C   0  0  1  0  0  3  0  0  0  0  0  0
  158.4360  211.2370  153.8340 C   0  0  2  0  0  0  0  0  0  0  0  0
  160.4580  208.7610  151.9400 O   0  0  0  0  0  0  0  0  0  0  0  0
  162.0770  207.6310  153.3380 C   0  0  1  0  0  3  0  0  0  0  0  0
  161.8570  205.9800  151.7500 C   0  0  2  0  0  3  0  0  0  0  0  0
  158.8680  210.3700  152.6560 C   0  0  0  0  0  2  0  0  0  0  0  0
  162.0960  207.2890  151.0160 C   0  0  1  0  0  3  0  0  0  0  0  0
  158.4320  210.5860  155.2040 C   0  0  0  0  0  2  0  0  0  0  0  0
  160.1910  209.6870  152.9600 C   0  0  1  0  0  3  0  0  0  0  0  0
  161.4810  208.3150  154.5770 C   0  0  0  0  0  2  0  0  0  0  0  0
  159.7800  209.9040  155.4360 C   0  0  0  0  0  2  0  0  0  0  0  0
  160.8160  203.9840  150.8590 N   0  0  0  0  0  2  0  0  0  0  0  0
  160.4170  202.2140  149.2560 C   0  0  0  0  0  2  0  0  0  0  0  0
  161.6730  202.9510  148.8420 C   0  0  0  0  0  2  0  0  0  0  0  0
  160.5200  203.7130  149.4580 C   0  0  0  0  0  3  0  0  0  0  0  0
  1 11  1  0  0  0  0
  1  6  1  0  0  0  0
  2  6  1  0  0  0  0
  3 43  1  0  0  0  0
  4  5  1  0  0  0  0
  5  8  1  0  0  0  0
  5  9  2  0  0  0  0
  6  4  1  1  0  0  0
  7 13  1  0  0  0  0
  9  3  2  0  0  0  0
 10 15  1  6  0  0  0
 10 12  1  0  0  0  0
 10  2  1  0  0  0  0
 11  7  1  0  0  0  0
 12  1  2  0  0  0  0
 13  8  1  0  0  0  0
 14 15  3  0  0  0  0
 16 14  1  0  0  0  0
 18 28  1  0  0  0  0
 18 22  1  0  0  0  0
 18 32  1  0  0  0  0
 19 20  2  0  0  0  0
 20 23  1  0  0  0  0
 20 31  1  0  0  0  0
 21 23  1  0  0  0  0
 21 26  1  0  0  0  0
 22 24  1  0  0  0  0
 22 32  1  0  0  0  0
 22 29  1  0  0  0  0
 24 31  1  0  0  0  0
 24 29  1  0  0  0  0
 25 34  1  0  0  0  0
 26 27  1  0  0  0  0
 26 30  2  0  0  0  0
 27 34  1  0  0  0  0
 27 33  1  0  0  0  0
 28 25  1  0  0  0  0
 28 32  1  0  0  0  0
 29 16  1  0  0  0  0
 34 17  1  0  0  0  0
 35 39  1  0  0  0  0
 36 39  1  0  0  0  0
 37 35  1  0  0  0  0
 38 36  1  0  0  0  0
 40 37  1  0  0  0  0
 40 38  1  0  0  0  0
 41 37  2  0  0  0  0
 41 24  1  0  0  0  0
 43 42  2  0  0  0  0
 43 49  1  0  0  0  0
 44 55  1  0  0  0  0
 45 49  1  0  0  0  0
 45 52  1  0  0  0  0
 46 60  1  0  0  0  0
 46 61  1  0  0  0  0
 47 48  1  0  0  0  0
 47 44  1  0  0  0  0
 48 57  1  0  0  0  0
 49 52  1  0  0  0  0
 50 54  1  0  0  0  0
 51 54  1  0  0  0  0
 52 58  1  0  0  0  0
 53 51  1  0  0  0  0
 53 59  1  0  0  0  0
 54 60  1  0  0  0  0
 55 50  1  0  0  0  0
 56 59  1  0  0  0  0
 56 52  1  0  0  0  0
 57 55  1  0  0  0  0
 57 51  1  0  0  0  0
 58 61  1  0  0  0  0
 59 46  1  0  0  0  0
 62 44  1  0  0  0  0
 63 65  1  0  0  0  0
 64 63  1  0  0  0  0
 64 65  1  0  0  0  0
 65 62  1  0  0  0  0
M  END
>  <MODEL>
1

>  <REMARK>
 VINA RESULT:      -3.9      0.000      0.000
  Name = 
  8 active torsions:
  status: ('A' for Active; 'I' for Inactive)
    1  A    between atoms: C_2  and  N_16
    2  A    between atoms: C_7  and  N_60
    3  A    between atoms: N_16  and  C_58
    4  A    between atoms: C_17  and  C_19
    5  A    between atoms: C_19  and  C_21
    6  A    between atoms: C_27  and  C_50
    7  A    between atoms: C_29  and  C_62
    8  A    between atoms: C_45  and  N_60
                            x       y       z     vdW  Elec       q    Type
                         _______ _______ _______ _____ _____    ______ ____

>  <TORSDO>
F 8

$$$$
