=
 OpenBabel11042422123D

 50 58  0  0  1  0  0  0  0  0999 V2000
  161.6560  210.4970  149.6890 C   0  0  1  0  0  3  0  0  0  0  0  0
  159.1850  212.2340  145.3680 C   0  0  0  0  0  3  0  0  0  0  0  0
  163.5460  212.5770  147.3520 C   0  0  0  0  0  3  0  0  0  0  0  0
  161.1870  213.3120  142.3710 N   0  0  0  0  0  2  0  0  0  0  0  0
  160.1290  212.0530  147.6250 N   0  0  0  0  0  0  0  0  0  0  0  0
  160.1460  212.4760  146.3430 C   0  0  0  0  0  0  0  0  0  0  0  0
  163.5290  211.7630  148.5900 N   0  0  0  0  0  0  0  0  0  0  0  0
  161.7310  213.2420  144.7180 N   0  0  0  0  0  0  0  0  0  0  0  0
  160.8110  213.0500  143.7250 C   0  0  0  0  0  0  0  0  0  0  0  0
  161.3670  213.0020  146.0040 C   0  0  0  0  0  0  0  0  0  0  0  0
  161.3600  212.4070  148.0750 C   0  0  2  0  0  3  0  0  0  0  0  0
  162.1340  212.9850  147.1370 C   0  0  0  0  0  0  0  0  0  0  0  0
  162.1660  211.6480  148.9490 N   0  0  0  0  0  0  0  0  0  0  0  0
  159.5200  212.5490  144.0380 C   0  0  0  0  0  3  0  0  0  0  0  0
  160.2850  213.1070  141.2460 C   0  0  0  0  0  2  0  0  0  0  0  0
  160.6260  211.7930  140.5650 C   0  0  0  0  0  2  0  0  0  0  0  0
  161.9940  211.6020  140.5520 F   0  0  0  0  0  0  0  0  0  0  0  0
  161.5850  208.3390  148.6020 C   0  0  2  0  0  3  0  0  0  0  0  0
  162.3980  209.2160  149.2990 C   0  0  2  0  0  3  0  0  0  0  0  0
  161.5770  207.3020  151.2340 C   0  0  0  0  0  0  0  0  0  0  0  0
  161.8020  208.0680  150.0550 N   0  0  0  0  0  0  0  0  0  0  0  0
  162.1710  207.6060  152.3020 O   0  0  0  0  0  0  0  0  0  0  0  0
  162.4230  207.3730  147.7840 C   0  0  1  0  0  3  0  0  0  0  0  0
  161.8060  205.9860  147.8210 C   0  0  2  0  0  3  0  0  0  0  0  0
  161.6260  206.8520  146.5980 C   0  0  1  0  0  3  0  0  0  0  0  0
  160.4830  205.9880  147.0830 C   0  0  0  0  0  2  0  0  0  0  0  0
  160.6740  206.1170  151.1830 C   0  0  0  0  0  2  0  0  0  0  0  0
  161.3010  204.9510  151.9210 C   0  0  0  0  0  2  0  0  0  0  0  0
  160.5690  203.7620  151.6410 O   0  0  0  0  0  0  0  0  0  0  0  0
  161.1860  202.6310  151.1060 C   0  0  0  0  0  0  0  0  0  0  0  0
  162.1120  202.0400  151.7300 O   0  0  0  0  0  0  0  0  0  0  0  0
  160.7150  202.0970  149.7920 C   0  0  2  0  0  0  0  0  0  0  0  0
  159.6560  201.0660  149.7810 C   0  0  0  0  0  2  0  0  0  0  0  0
  161.0230  200.7310  149.6600 O   0  0  0  0  0  0  0  0  0  0  0  0
  161.0130  202.8510  148.5050 C   0  0  0  0  0  2  0  0  0  0  0  0
  161.1800  201.8940  147.3330 C   0  0  0  0  0  2  0  0  0  0  0  0
  160.2920  201.6220  145.3330 C   0  0  0  0  0  1  0  0  0  0  0  0
  160.9350  202.5640  146.1340 O   0  0  0  0  0  0  0  0  0  0  0  0
  161.7800  210.7450  151.1560 C   0  0  0  0  0  3  0  0  0  0  0  0
  160.7050  210.9080  151.9250 C   0  0  0  0  0  3  0  0  0  0  0  0
  160.8200  211.1460  153.3300 N   0  0  0  0  0  0  0  0  0  0  0  0
  161.7770  210.6330  154.1270 C   0  0  0  0  0  3  0  0  0  0  0  0
  160.0250  211.9140  154.0960 C   0  0  0  0  0  3  0  0  0  0  0  0
  160.5360  211.8360  155.3710 C   0  0  0  0  0  0  0  0  0  0  0  0
  161.6310  211.0480  155.4030 N   0  0  0  0  0  0  0  0  0  0  0  0
  158.5850  212.1540  156.8410 C   0  0  0  0  0  2  0  0  0  0  0  0
  159.9990  212.5790  156.5480 C   0  0  2  0  0  3  0  0  0  0  0  0
  157.9230  213.4650  157.1090 C   0  0  0  0  0  2  0  0  0  0  0  0
  159.9770  213.9580  156.2920 O   0  0  0  0  0  0  0  0  0  0  0  0
  158.9900  214.4530  157.0900 N   0  0  0  0  0  2  0  0  0  0  0  0
  1 39  1  1  0  0  0
  2  6  1  0  0  0  0
  3  7  2  0  0  0  0
  4  9  1  0  0  0  0
  5 11  1  0  0  0  0
  6  5  2  0  0  0  0
  7 13  1  0  0  0  0
  8 10  1  0  0  0  0
  9 14  1  0  0  0  0
  9  8  2  0  0  0  0
 10  6  1  0  0  0  0
 10 12  2  0  0  0  0
 11 12  1  6  0  0  0
 11 13  1  0  0  0  0
 12  3  1  0  0  0  0
 13  1  1  0  0  0  0
 14  2  2  0  0  0  0
 15  4  1  0  0  0  0
 16 15  1  0  0  0  0
 17 16  1  0  0  0  0
 18 19  1  0  0  0  0
 18 21  1  1  0  0  0
 19  1  1  1  0  0  0
 19 21  1  0  0  0  0
 20 22  2  0  0  0  0
 21 20  1  0  0  0  0
 23 24  1  0  0  0  0
 23 18  1  1  0  0  0
 24 26  1  1  0  0  0
 25 26  1  1  0  0  0
 25 23  1  0  0  0  0
 25 24  1  0  0  0  0
 27 20  1  0  0  0  0
 27 28  1  0  0  0  0
 29 28  1  0  0  0  0
 30 29  1  0  0  0  0
 30 31  2  0  0  0  0
 32 35  1  6  0  0  0
 32 30  1  0  0  0  0
 33 32  1  0  0  0  0
 34 33  1  0  0  0  0
 34 32  1  0  0  0  0
 36 35  1  0  0  0  0
 37 38  1  0  0  0  0
 38 36  1  0  0  0  0
 39 40  2  0  0  0  0
 40 41  1  0  0  0  0
 41 43  1  0  0  0  0
 41 42  1  0  0  0  0
 42 45  2  0  0  0  0
 43 44  2  0  0  0  0
 44 45  1  0  0  0  0
 46 48  1  0  0  0  0
 47 44  1  6  0  0  0
 47 46  1  0  0  0  0
 49 47  1  0  0  0  0
 49 50  1  0  0  0  0
 50 48  1  0  0  0  0
M  END
>  <MODEL>
1

>  <REMARK>
 VINA RESULT:      -6.4      0.000      0.000
  Name = 
  16 active torsions:
  status: ('A' for Active; 'I' for Inactive)
    1  A    between atoms: C_3  and  C_18
    2  A    between atoms: C_3  and  O_21
    3  A    between atoms: N_4  and  C_41
    4  A    between atoms: N_5  and  C_9
    5  A    between atoms: C_7  and  C_18
    6  A    between atoms: C_7  and  C_29
    7  A    between atoms: C_8  and  C_11
    8  A    between atoms: C_9  and  C_32
    9  A    between atoms: C_13  and  C_19
   10  A    between atoms: C_13  and  C_43
   11  A    between atoms: C_15  and  C_44
   12  A    between atoms: C_17  and  C_22
   13  A    between atoms: O_21  and  C_43
   14  A    between atoms: C_29  and  O_35
   15  A    between atoms: C_40  and  C_44
   16  A    between atoms: C_44  and  N_49
                            x       y       z     vdW  Elec       q    Type
                         _______ _______ _______ _____ _____    ______ ____

>  <TORSDO>
F 16

$$$$
=
 OpenBabel11042422123D

 50 58  0  0  1  0  0  0  0  0999 V2000
  162.1470  209.7960  151.6980 C   0  0  1  0  0  3  0  0  0  0  0  0
  158.1440  212.8140  153.3290 C   0  0  0  0  0  3  0  0  0  0  0  0
  160.7880  209.1860  155.0370 C   0  0  0  0  0  3  0  0  0  0  0  0
  157.4360  213.1600  157.0080 N   0  0  0  0  0  2  0  0  0  0  0  0
  159.4760  210.9860  152.3790 N   0  0  0  0  0  0  0  0  0  0  0  0
  158.7590  211.5680  153.3640 C   0  0  0  0  0  0  0  0  0  0  0  0
  161.8010  208.8590  154.0060 N   0  0  0  0  0  0  0  0  0  0  0  0
  158.4960  211.4060  155.7400 N   0  0  0  0  0  0  0  0  0  0  0  0
  157.8570  212.6140  155.7560 C   0  0  0  0  0  0  0  0  0  0  0  0
  158.8860  210.8860  154.5480 C   0  0  0  0  0  0  0  0  0  0  0  0
  159.9850  209.8850  152.9880 C   0  0  0  0  0  0  0  0  0  0  0  0
  159.6510  209.7820  154.2880 C   0  0  0  0  0  0  0  0  0  0  0  0
  161.2800  209.3600  152.7900 N   0  0  0  0  0  0  0  0  0  0  0  0
  157.6660  213.3340  154.5470 C   0  0  0  0  0  2  0  0  0  0  0  0
  156.7770  214.4530  157.1250 C   0  0  0  0  0  2  0  0  0  0  0  0
  155.2740  214.2450  157.1950 C   0  0  0  0  0  2  0  0  0  0  0  0
  154.7890  213.8480  155.9640 F   0  0  0  0  0  0  0  0  0  0  0  0
  161.7940  208.0920  150.0210 C   0  0  2  0  0  3  0  0  0  0  0  0
  162.7090  208.5990  150.9270 C   0  0  2  0  0  3  0  0  0  0  0  0
  161.5930  206.3300  152.2260 C   0  0  0  0  0  0  0  0  0  0  0  0
  161.9440  207.3730  151.3230 N   0  0  0  0  0  0  0  0  0  0  0  0
  162.2040  206.2150  153.3210 O   0  0  0  0  0  0  0  0  0  0  0  0
  162.5020  207.3060  148.9320 C   0  0  1  0  0  3  0  0  0  0  0  0
  161.6690  206.1010  148.5310 C   0  0  2  0  0  3  0  0  0  0  0  0
  161.6880  207.3250  147.6480 C   0  0  1  0  0  3  0  0  0  0  0  0
  160.3990  206.5570  147.8410 C   0  0  0  0  0  2  0  0  0  0  0  0
  160.5340  205.3510  151.8470 C   0  0  0  0  0  2  0  0  0  0  0  0
  161.1560  204.0070  151.5250 C   0  0  0  0  0  2  0  0  0  0  0  0
  160.9400  203.7000  150.1510 O   0  0  0  0  0  0  0  0  0  0  0  0
  160.8660  202.3820  149.6980 C   0  0  0  0  0  0  0  0  0  0  0  0
  160.6550  201.4310  150.5020 O   0  0  0  0  0  0  0  0  0  0  0  0
  161.0030  202.1060  148.2360 C   0  0  2  0  0  0  0  0  0  0  0  0
  160.0530  201.1730  147.5950 C   0  0  0  0  0  2  0  0  0  0  0  0
  161.3410  200.7610  148.0040 O   0  0  0  0  0  0  0  0  0  0  0  0
  161.8230  203.0350  147.3530 C   0  0  0  0  0  2  0  0  0  0  0  0
  161.2190  203.1430  145.9590 C   0  0  0  0  0  2  0  0  0  0  0  0
  162.9120  204.5310  145.7020 C   0  0  0  0  0  1  0  0  0  0  0  0
  161.5650  204.3670  145.3860 O   0  0  0  0  0  0  0  0  0  0  0  0
  161.3890  210.6980  150.7820 C   0  0  0  0  0  3  0  0  0  0  0  0
  162.0080  211.4200  149.8510 C   0  0  0  0  0  3  0  0  0  0  0  0
  161.2850  212.2840  148.9710 N   0  0  0  0  0  0  0  0  0  0  0  0
  160.4020  213.2230  149.3600 C   0  0  0  0  0  3  0  0  0  0  0  0
  161.3590  212.3300  147.6290 C   0  0  0  0  0  3  0  0  0  0  0  0
  160.4880  213.3200  147.2340 C   0  0  0  0  0  0  0  0  0  0  0  0
  159.8910  213.8890  148.3020 N   0  0  0  0  0  0  0  0  0  0  0  0
  158.8440  213.5810  145.4190 C   0  0  0  0  0  2  0  0  0  0  0  0
  160.2830  213.7570  145.8230 C   0  0  2  0  0  3  0  0  0  0  0  0
  158.9830  212.9960  144.0520 C   0  0  0  0  0  2  0  0  0  0  0  0
  161.0620  212.9840  144.9500 O   0  0  0  0  0  0  0  0  0  0  0  0
  160.4060  213.0260  143.7560 N   0  0  0  0  0  2  0  0  0  0  0  0
  1 39  1  6  0  0  0
  1 13  1  0  0  0  0
  2  6  2  0  0  0  0
  2 14  1  0  0  0  0
  4 15  1  0  0  0  0
  5 11  2  0  0  0  0
  5  6  1  0  0  0  0
  6 10  1  0  0  0  0
  7  3  2  0  0  0  0
  8  9  2  0  0  0  0
  9  4  1  0  0  0  0
 10  8  1  0  0  0  0
 11 12  1  0  0  0  0
 12 10  2  0  0  0  0
 12  3  1  0  0  0  0
 13 11  1  0  0  0  0
 13  7  1  0  0  0  0
 14  9  1  0  0  0  0
 15 16  1  0  0  0  0
 17 16  1  0  0  0  0
 18 19  1  0  0  0  0
 18 21  1  1  0  0  0
 19 21  1  0  0  0  0
 19  1  1  1  0  0  0
 20 22  2  0  0  0  0
 21 20  1  0  0  0  0
 23 18  1  1  0  0  0
 24 26  1  1  0  0  0
 24 23  1  0  0  0  0
 25 26  1  1  0  0  0
 25 24  1  0  0  0  0
 25 23  1  0  0  0  0
 27 20  1  0  0  0  0
 28 27  1  0  0  0  0
 29 28  1  0  0  0  0
 30 29  1  0  0  0  0
 30 31  2  0  0  0  0
 32 35  1  6  0  0  0
 32 30  1  0  0  0  0
 33 34  1  0  0  0  0
 33 32  1  0  0  0  0
 34 32  1  0  0  0  0
 36 35  1  0  0  0  0
 38 37  1  0  0  0  0
 38 36  1  0  0  0  0
 40 39  2  0  0  0  0
 41 42  1  0  0  0  0
 41 40  1  0  0  0  0
 43 41  1  0  0  0  0
 44 43  2  0  0  0  0
 44 45  1  0  0  0  0
 45 42  2  0  0  0  0
 46 47  1  0  0  0  0
 47 44  1  1  0  0  0
 48 46  1  0  0  0  0
 49 47  1  0  0  0  0
 50 48  1  0  0  0  0
 50 49  1  0  0  0  0
M  END
>  <MODEL>
2

>  <REMARK>
 VINA RESULT:      -4.6      3.190      7.747
  Name = 
  16 active torsions:
  status: ('A' for Active; 'I' for Inactive)
    1  A    between atoms: C_3  and  C_18
    2  A    between atoms: C_3  and  O_21
    3  A    between atoms: N_4  and  C_41
    4  A    between atoms: N_5  and  C_9
    5  A    between atoms: C_7  and  C_18
    6  A    between atoms: C_7  and  C_29
    7  A    between atoms: C_8  and  C_11
    8  A    between atoms: C_9  and  C_32
    9  A    between atoms: C_13  and  C_19
   10  A    between atoms: C_13  and  C_43
   11  A    between atoms: C_15  and  C_44
   12  A    between atoms: C_17  and  C_22
   13  A    between atoms: O_21  and  C_43
   14  A    between atoms: C_29  and  O_35
   15  A    between atoms: C_40  and  C_44
   16  A    between atoms: C_44  and  N_49
                            x       y       z     vdW  Elec       q    Type
                         _______ _______ _______ _____ _____    ______ ____

>  <TORSDO>
F 16

$$$$
=
 OpenBabel11042422123D

 50 58  0  0  1  0  0  0  0  0999 V2000
  161.4090  211.2310  150.8500 C   0  0  1  0  0  3  0  0  0  0  0  0
  159.1870  210.7900  155.6110 C   0  0  0  0  0  3  0  0  0  0  0  0
  158.5100  213.3300  151.5920 C   0  0  0  0  0  3  0  0  0  0  0  0
  155.6320  211.9050  156.1300 N   0  0  0  0  0  2  0  0  0  0  0  0
  160.5660  211.5190  153.7170 N   0  0  0  0  0  0  0  0  0  0  0  0
  159.4970  211.6160  154.5360 C   0  0  0  0  0  0  0  0  0  0  0  0
  159.5250  212.8790  150.6110 N   0  0  0  0  0  0  0  0  0  0  0  0
  157.3070  212.5860  154.5360 N   0  0  0  0  0  0  0  0  0  0  0  0
  156.9620  211.8180  155.6130 C   0  0  0  0  0  0  0  0  0  0  0  0
  158.5740  212.5090  154.0550 C   0  0  0  0  0  0  0  0  0  0  0  0
  160.2930  212.4390  152.7570 C   0  0  0  0  0  0  0  0  0  0  0  0
  159.1110  213.0620  152.9240 C   0  0  0  0  0  0  0  0  0  0  0  0
  160.5590  212.2940  151.3790 N   0  0  0  0  0  0  0  0  0  0  0  0
  157.9020  210.9120  156.1710 C   0  0  0  0  0  2  0  0  0  0  0  0
  155.1660  211.1020  157.2520 C   0  0  0  0  0  2  0  0  0  0  0  0
  153.9250  210.3320  156.8350 C   0  0  0  0  0  2  0  0  0  0  0  0
  154.2170  209.4940  155.7760 F   0  0  0  0  0  0  0  0  0  0  0  0
  161.6300  208.9610  151.6520 C   0  0  2  0  0  3  0  0  0  0  0  0
  160.7640  209.8570  151.0500 C   0  0  2  0  0  3  0  0  0  0  0  0
  161.7690  208.2810  148.9080 C   0  0  0  0  0  0  0  0  0  0  0  0
  161.4630  208.8670  150.1690 N   0  0  0  0  0  0  0  0  0  0  0  0
  161.1730  208.6750  147.8720 O   0  0  0  0  0  0  0  0  0  0  0  0
  160.8570  207.8350  152.3140 C   0  0  1  0  0  3  0  0  0  0  0  0
  161.3540  206.4920  151.8090 C   0  0  2  0  0  3  0  0  0  0  0  0
  161.7840  206.9850  153.1690 C   0  0  1  0  0  3  0  0  0  0  0  0
  162.7710  206.2510  152.2890 C   0  0  0  0  0  2  0  0  0  0  0  0
  162.7620  207.1720  148.8320 C   0  0  0  0  0  2  0  0  0  0  0  0
  162.4970  206.3170  147.6080 C   0  0  0  0  0  2  0  0  0  0  0  0
  162.2080  204.9830  148.0130 O   0  0  0  0  0  0  0  0  0  0  0  0
  161.0160  204.6570  148.6610 C   0  0  0  0  0  0  0  0  0  0  0  0
  160.0360  205.4550  148.6580 O   0  0  0  0  0  0  0  0  0  0  0  0
  160.8920  203.3290  149.3340 C   0  0  2  0  0  0  0  0  0  0  0  0
  160.3250  203.2710  150.6970 C   0  0  0  0  0  2  0  0  0  0  0  0
  161.7190  203.2570  150.4700 O   0  0  0  0  0  0  0  0  0  0  0  0
  160.9700  202.0460  148.5210 C   0  0  0  0  0  2  0  0  0  0  0  0
  160.9790  202.3410  147.0270 C   0  0  0  0  0  2  0  0  0  0  0  0
  160.1570  201.5050  145.1600 C   0  0  0  0  0  1  0  0  0  0  0  0
  160.8650  201.1510  146.3070 O   0  0  0  0  0  0  0  0  0  0  0  0
  161.6790  211.4740  149.4020 C   0  0  0  0  0  3  0  0  0  0  0  0
  161.5850  212.6930  148.8750 C   0  0  0  0  0  3  0  0  0  0  0  0
  161.8430  212.9300  147.4890 N   0  0  0  0  0  0  0  0  0  0  0  0
  163.0460  213.2350  146.9660 C   0  0  0  0  0  3  0  0  0  0  0  0
  160.9620  212.8810  146.4740 C   0  0  0  0  0  3  0  0  0  0  0  0
  161.6780  213.1720  145.3350 C   0  0  0  0  0  0  0  0  0  0  0  0
  162.9780  213.3870  145.6260 N   0  0  0  0  0  0  0  0  0  0  0  0
  160.0690  212.1040  143.8060 C   0  0  0  0  0  2  0  0  0  0  0  0
  161.1120  213.1790  143.9550 C   0  0  2  0  0  3  0  0  0  0  0  0
  160.4110  211.5300  142.4710 C   0  0  0  0  0  2  0  0  0  0  0  0
  162.1150  212.9210  143.0100 O   0  0  0  0  0  0  0  0  0  0  0  0
  161.4690  212.3770  141.9410 N   0  0  0  0  0  2  0  0  0  0  0  0
  1 39  1  6  0  0  0
  1 13  1  0  0  0  0
  2 14  1  0  0  0  0
  3 12  1  0  0  0  0
  4 15  1  0  0  0  0
  5  6  1  0  0  0  0
  6  2  2  0  0  0  0
  7 13  1  0  0  0  0
  7  3  2  0  0  0  0
  8  9  2  0  0  0  0
  9  4  1  0  0  0  0
  9 14  1  0  0  0  0
 10  8  1  0  0  0  0
 10  6  1  0  0  0  0
 11 12  1  0  0  0  0
 11  5  2  0  0  0  0
 12 10  2  0  0  0  0
 13 11  1  0  0  0  0
 16 15  1  0  0  0  0
 17 16  1  0  0  0  0
 18 21  1  6  0  0  0
 19  1  1  6  0  0  0
 19 18  1  0  0  0  0
 20 21  1  0  0  0  0
 21 19  1  0  0  0  0
 22 20  2  0  0  0  0
 23 18  1  6  0  0  0
 23 25  1  0  0  0  0
 24 26  1  6  0  0  0
 24 23  1  0  0  0  0
 24 25  1  0  0  0  0
 25 26  1  6  0  0  0
 27 20  1  0  0  0  0
 28 29  1  0  0  0  0
 28 27  1  0  0  0  0
 29 30  1  0  0  0  0
 30 32  1  0  0  0  0
 31 30  2  0  0  0  0
 32 35  1  6  0  0  0
 32 34  1  0  0  0  0
 32 33  1  0  0  0  0
 34 33  1  0  0  0  0
 36 35  1  0  0  0  0
 37 38  1  0  0  0  0
 38 36  1  0  0  0  0
 40 39  2  0  0  0  0
 41 40  1  0  0  0  0
 42 41  1  0  0  0  0
 43 41  1  0  0  0  0
 44 45  1  0  0  0  0
 44 43  2  0  0  0  0
 45 42  2  0  0  0  0
 46 47  1  0  0  0  0
 47 44  1  1  0  0  0
 48 46  1  0  0  0  0
 49 47  1  0  0  0  0
 50 48  1  0  0  0  0
 50 49  1  0  0  0  0
M  END
>  <MODEL>
3

>  <REMARK>
 VINA RESULT:      -4.5      3.508      8.480
  Name = 
  16 active torsions:
  status: ('A' for Active; 'I' for Inactive)
    1  A    between atoms: C_3  and  C_18
    2  A    between atoms: C_3  and  O_21
    3  A    between atoms: N_4  and  C_41
    4  A    between atoms: N_5  and  C_9
    5  A    between atoms: C_7  and  C_18
    6  A    between atoms: C_7  and  C_29
    7  A    between atoms: C_8  and  C_11
    8  A    between atoms: C_9  and  C_32
    9  A    between atoms: C_13  and  C_19
   10  A    between atoms: C_13  and  C_43
   11  A    between atoms: C_15  and  C_44
   12  A    between atoms: C_17  and  C_22
   13  A    between atoms: O_21  and  C_43
   14  A    between atoms: C_29  and  O_35
   15  A    between atoms: C_40  and  C_44
   16  A    between atoms: C_44  and  N_49
                            x       y       z     vdW  Elec       q    Type
                         _______ _______ _______ _____ _____    ______ ____

>  <TORSDO>
F 16

$$$$
=
 OpenBabel11042422123D

 50 58  0  0  1  0  0  0  0  0999 V2000
  161.7410  208.8990  152.8290 C   0  0  1  0  0  3  0  0  0  0  0  0
  159.6650  211.7970  156.7130 C   0  0  0  0  0  3  0  0  0  0  0  0
  159.8650  211.9000  151.9160 C   0  0  0  0  0  3  0  0  0  0  0  0
  156.8040  214.1300  155.9870 N   0  0  0  0  0  2  0  0  0  0  0  0
  161.1570  210.9130  154.9790 N   0  0  0  0  0  0  0  0  0  0  0  0
  160.2280  211.7760  155.4430 C   0  0  0  0  0  0  0  0  0  0  0  0
  160.6060  210.6930  151.4820 N   0  0  0  0  0  0  0  0  0  0  0  0
  158.5630  213.2670  154.5820 N   0  0  0  0  0  0  0  0  0  0  0  0
  157.9880  213.3470  155.8200 C   0  0  0  0  0  0  0  0  0  0  0  0
  159.6930  212.5300  154.4300 C   0  0  0  0  0  0  0  0  0  0  0  0
  161.2190  211.2190  153.6580 C   0  0  0  0  0  0  0  0  0  0  0  0
  160.3620  212.1890  153.2860 C   0  0  0  0  0  0  0  0  0  0  0  0
  161.3690  210.2930  152.6040 N   0  0  0  0  0  0  0  0  0  0  0  0
  158.5370  212.6160  156.9070 C   0  0  0  0  0  2  0  0  0  0  0  0
  156.1070  214.2480  157.2590 C   0  0  0  0  0  2  0  0  0  0  0  0
  154.6240  214.4530  157.0000 C   0  0  0  0  0  2  0  0  0  0  0  0
  154.2430  213.7840  155.8530 F   0  0  0  0  0  0  0  0  0  0  0  0
  161.0860  207.2590  154.4800 C   0  0  2  0  0  3  0  0  0  0  0  0
  160.6090  208.1290  153.5150 C   0  0  2  0  0  3  0  0  0  0  0  0
  160.6140  205.5830  152.2500 C   0  0  0  0  0  0  0  0  0  0  0  0
  160.7260  206.6800  153.1500 N   0  0  0  0  0  0  0  0  0  0  0  0
  160.1220  205.7590  151.1040 O   0  0  0  0  0  0  0  0  0  0  0  0
  159.9950  206.9250  155.4820 C   0  0  1  0  0  3  0  0  0  0  0  0
  160.5460  206.9910  156.8960 C   0  0  2  0  0  3  0  0  0  0  0  0
  159.7020  208.1260  156.3680 C   0  0  1  0  0  3  0  0  0  0  0  0
  160.8950  208.4230  157.2480 C   0  0  0  0  0  2  0  0  0  0  0  0
  161.0380  204.2230  152.6880 C   0  0  0  0  0  2  0  0  0  0  0  0
  162.0310  203.6420  151.7000 C   0  0  0  0  0  2  0  0  0  0  0  0
  161.4460  202.5230  151.0420 O   0  0  0  0  0  0  0  0  0  0  0  0
  160.8670  202.6380  149.7770 C   0  0  0  0  0  0  0  0  0  0  0  0
  160.8970  203.7330  149.1470 O   0  0  0  0  0  0  0  0  0  0  0  0
  160.2360  201.4360  149.1530 C   0  0  2  0  0  0  0  0  0  0  0  0
  158.8610  201.0670  149.5490 C   0  0  0  0  0  2  0  0  0  0  0  0
  159.9930  200.4360  150.1120 O   0  0  0  0  0  0  0  0  0  0  0  0
  160.8130  200.8410  147.8780 C   0  0  0  0  0  2  0  0  0  0  0  0
  161.3090  201.9310  146.9370 C   0  0  0  0  0  2  0  0  0  0  0  0
  160.3010  201.1800  145.1260 C   0  0  0  0  0  1  0  0  0  0  0  0
  160.3130  202.2530  146.0160 O   0  0  0  0  0  0  0  0  0  0  0  0
  162.0970  208.2560  151.5300 C   0  0  0  0  0  3  0  0  0  0  0  0
  161.3950  208.4910  150.4240 C   0  0  0  0  0  3  0  0  0  0  0  0
  161.7340  207.8780  149.1790 N   0  0  0  0  0  0  0  0  0  0  0  0
  162.8390  208.1460  148.4580 C   0  0  0  0  0  3  0  0  0  0  0  0
  161.0390  206.9340  148.5170 C   0  0  0  0  0  3  0  0  0  0  0  0
  161.7630  206.6570  147.3800 C   0  0  0  0  0  0  0  0  0  0  0  0
  162.8900  207.3980  147.3350 N   0  0  0  0  0  0  0  0  0  0  0  0
  162.3470  205.6590  145.2050 C   0  0  0  0  0  2  0  0  0  0  0  0
  161.3940  205.6240  146.3690 C   0  0  2  0  0  3  0  0  0  0  0  0
  161.4150  205.5350  144.0460 C   0  0  0  0  0  2  0  0  0  0  0  0
  160.1080  205.8660  145.8660 O   0  0  0  0  0  0  0  0  0  0  0  0
  160.1000  205.3050  144.6240 N   0  0  0  0  0  2  0  0  0  0  0  0
  1 39  1  6  0  0  0
  2 14  1  0  0  0  0
  3 12  1  0  0  0  0
  4 15  1  0  0  0  0
  5  6  1  0  0  0  0
  6  2  2  0  0  0  0
  7  3  2  0  0  0  0
  7 13  1  0  0  0  0
  8  9  2  0  0  0  0
  9  4  1  0  0  0  0
  9 14  1  0  0  0  0
 10  8  1  0  0  0  0
 10  6  1  0  0  0  0
 11  5  2  0  0  0  0
 12 11  1  0  0  0  0
 12 10  2  0  0  0  0
 13  1  1  0  0  0  0
 13 11  1  0  0  0  0
 16 15  1  0  0  0  0
 17 16  1  0  0  0  0
 18 21  1  6  0  0  0
 19  1  1  6  0  0  0
 19 18  1  0  0  0  0
 20 27  1  0  0  0  0
 20 21  1  0  0  0  0
 21 19  1  0  0  0  0
 22 20  2  0  0  0  0
 23 18  1  6  0  0  0
 23 25  1  0  0  0  0
 23 24  1  0  0  0  0
 24 26  1  6  0  0  0
 25 24  1  0  0  0  0
 25 26  1  6  0  0  0
 28 27  1  0  0  0  0
 29 28  1  0  0  0  0
 30 29  1  0  0  0  0
 31 30  2  0  0  0  0
 32 35  1  6  0  0  0
 32 33  1  0  0  0  0
 32 30  1  0  0  0  0
 32 34  1  0  0  0  0
 33 34  1  0  0  0  0
 36 35  1  0  0  0  0
 37 38  1  0  0  0  0
 38 36  1  0  0  0  0
 40 39  2  0  0  0  0
 41 40  1  0  0  0  0
 42 41  1  0  0  0  0
 43 41  1  0  0  0  0
 44 43  2  0  0  0  0
 45 44  1  0  0  0  0
 45 42  2  0  0  0  0
 46 47  1  0  0  0  0
 47 44  1  1  0  0  0
 48 50  1  0  0  0  0
 48 46  1  0  0  0  0
 49 47  1  0  0  0  0
 50 49  1  0  0  0  0
M  END
>  <MODEL>
4

>  <REMARK>
 VINA RESULT:      -3.9      4.434      8.735
  Name = 
  16 active torsions:
  status: ('A' for Active; 'I' for Inactive)
    1  A    between atoms: C_3  and  C_18
    2  A    between atoms: C_3  and  O_21
    3  A    between atoms: N_4  and  C_41
    4  A    between atoms: N_5  and  C_9
    5  A    between atoms: C_7  and  C_18
    6  A    between atoms: C_7  and  C_29
    7  A    between atoms: C_8  and  C_11
    8  A    between atoms: C_9  and  C_32
    9  A    between atoms: C_13  and  C_19
   10  A    between atoms: C_13  and  C_43
   11  A    between atoms: C_15  and  C_44
   12  A    between atoms: C_17  and  C_22
   13  A    between atoms: O_21  and  C_43
   14  A    between atoms: C_29  and  O_35
   15  A    between atoms: C_40  and  C_44
   16  A    between atoms: C_44  and  N_49
                            x       y       z     vdW  Elec       q    Type
                         _______ _______ _______ _____ _____    ______ ____

>  <TORSDO>
F 16

$$$$
