=
 OpenBabel11052409423D

 49 56  0  0  0  0  0  0  0  0999 V2000
  161.2110  202.6450  148.3690 S   0  0  0  0  0  0  0  0  0  0  0  0
  161.6940  208.7820  149.7030 N   0  0  0  0  0  0  0  0  0  0  0  0
  162.0770  205.6050  146.0390 C   0  0  0  0  0  1  0  0  0  0  0  0
  160.4930  208.4120  155.3480 C   0  0  0  0  0  0  0  0  0  0  0  0
  160.3950  209.3390  156.4900 C   0  0  0  0  0  3  0  0  0  0  0  0
  161.8500  210.2080  149.8950 C   0  0  0  0  0  0  0  0  0  0  0  0
  161.5430  206.3670  149.0450 C   0  0  0  0  0  0  0  0  0  0  0  0
  161.7280  204.6750  147.1470 C   0  0  0  0  0  0  0  0  0  0  0  0
  161.6660  210.7290  151.1240 C   0  0  0  0  0  3  0  0  0  0  0  0
  161.1830  204.0070  149.3230 C   0  0  0  0  0  0  0  0  0  0  0  0
  160.7960  208.7430  154.0820 C   0  0  0  0  0  0  0  0  0  0  0  0
  160.8870  211.5990  155.4690 C   0  0  0  0  0  3  0  0  0  0  0  0
  161.1810  208.4510  152.0050 C   0  0  0  0  0  0  0  0  0  0  0  0
  161.3160  209.7950  152.2140 C   0  0  0  0  0  0  0  0  0  0  0  0
  161.2710  206.5300  150.4060 C   0  0  0  0  0  0  0  0  0  0  0  0
  161.1070  211.3280  154.1890 C   0  0  0  0  0  3  0  0  0  0  0  0
  160.5230  202.7760  151.7040 Cl  0  0  0  0  0  0  0  0  0  0  0  0
  160.8730  207.8370  153.1200 O   0  0  0  0  0  0  0  0  0  0  0  0
  160.5580  210.6600  156.5460 C   0  0  0  0  0  3  0  0  0  0  0  0
  161.4960  205.0780  148.4890 C   0  0  0  0  0  0  0  0  0  0  0  0
  160.9570  205.4420  151.2370 C   0  0  0  0  0  3  0  0  0  0  0  0
  161.0690  210.0100  153.5520 C   0  0  0  0  0  0  0  0  0  0  0  0
  160.9120  204.1510  150.6880 C   0  0  0  0  0  0  0  0  0  0  0  0
  161.9300  207.9080  148.1780 S   0  0  0  0  0  0  0  0  0  0  0  0
  161.3600  207.9220  150.7950 C   0  0  0  0  0  0  0  0  0  0  0  0
  161.6070  203.3400  146.9070 N   0  0  0  0  0  0  0  0  0  0  0  0
  160.0520  206.7960  157.1670 C   0  0  0  0  0  1  0  0  0  0  0  0
  160.2450  206.9730  155.6720 C   0  0  0  0  0  2  0  0  0  0  0  0
  162.1990  211.1040  148.7510 C   0  0  0  0  0  2  0  0  0  0  0  0
  161.4610  212.4330  148.8500 C   0  0  0  0  0  2  0  0  0  0  0  0
  160.7010  212.7450  147.5690 C   0  0  0  0  0  2  0  0  0  0  0  0
  161.3690  213.4220  145.1870 N   0  0  0  0  0  2  0  0  0  0  0  0
  162.5110  214.1920  147.0550 O   0  0  0  0  0  0  0  0  0  0  0  0
  159.6860  211.7980  145.1240 O   0  0  0  0  0  0  0  0  0  0  0  0
  160.4110  212.6120  144.4920 C   0  0  0  0  0  0  0  0  0  0  0  0
  161.5770  213.4790  146.6050 C   0  0  0  0  0  0  0  0  0  0  0  0
  159.1410  213.0300  142.5520 O   0  0  0  0  0  0  0  0  0  0  0  0
  160.2660  212.7090  143.0240 C   0  0  0  0  0  0  0  0  0  0  0  0
  162.5590  212.2870  142.5230 O   0  0  0  0  0  0  0  0  0  0  0  0
  161.3870  212.4450  142.0910 C   0  0  0  0  0  0  0  0  0  0  0  0
  160.4630  213.6370  140.0380 C   0  0  0  0  0  2  0  0  0  0  0  0
  161.1530  212.4130  140.6100 C   0  0  0  0  0  0  0  0  0  0  0  0
  161.9460  213.4100  139.7870 C   0  0  0  0  0  2  0  0  0  0  0  0
  161.8000  210.1340  139.7740 C   0  0  0  0  0  3  0  0  0  0  0  0
  159.5280  210.8990  139.4310 C   0  0  0  0  0  3  0  0  0  0  0  0
  159.2220  209.7020  138.7780 C   0  0  0  0  0  3  0  0  0  0  0  0
  160.8140  211.1160  139.9420 C   0  0  0  0  0  0  0  0  0  0  0  0
  160.2050  208.7200  138.6240 C   0  0  0  0  0  3  0  0  0  0  0  0
  161.4930  208.9370  139.1200 C   0  0  0  0  0  3  0  0  0  0  0  0
  1 10  1  0  0  0  0
  2  6  1  0  0  0  0
  2 25  1  0  0  0  0
  3  8  1  0  0  0  0
  4 28  1  0  0  0  0
  4  5  1  0  0  0  0
  5 19  2  0  0  0  0
  6  9  2  0  0  0  0
  7 15  1  0  0  0  0
  8 20  1  0  0  0  0
  9 14  1  0  0  0  0
 10 23  2  0  0  0  0
 11  4  2  0  0  0  0
 12 19  1  0  0  0  0
 13 14  1  0  0  0  0
 13 18  1  0  0  0  0
 14 22  2  0  0  0  0
 15 25  1  0  0  0  0
 15 21  2  0  0  0  0
 16 12  2  0  0  0  0
 18 11  1  0  0  0  0
 20  7  2  0  0  0  0
 20 10  1  0  0  0  0
 22 11  1  0  0  0  0
 22 16  1  0  0  0  0
 23 21  1  0  0  0  0
 23 17  1  0  0  0  0
 24  7  1  0  0  0  0
 24  2  1  0  0  0  0
 25 13  2  0  0  0  0
 26  8  2  0  0  0  0
 26  1  1  0  0  0  0
 28 27  1  0  0  0  0
 29 30  1  0  0  0  0
 29  6  1  0  0  0  0
 31 30  1  0  0  0  0
 32 36  1  0  0  0  0
 35 34  2  0  0  0  0
 35 32  1  0  0  0  0
 36 33  2  0  0  0  0
 36 31  1  0  0  0  0
 37 38  2  0  0  0  0
 38 35  1  0  0  0  0
 40 39  2  0  0  0  0
 40 38  1  0  0  0  0
 41 42  1  0  0  0  0
 42 40  1  0  0  0  0
 43 41  1  0  0  0  0
 43 42  1  0  0  0  0
 44 47  1  0  0  0  0
 45 47  2  0  0  0  0
 46 45  1  0  0  0  0
 47 42  1  0  0  0  0
 48 46  2  0  0  0  0
 48 49  1  0  0  0  0
 49 44  2  0  0  0  0
M  END
>  <MODEL>
1

>  <REMARK>
 VINA RESULT:     -10.4      0.000      0.000
  Name = 
  9 active torsions:
  status: ('A' for Active; 'I' for Inactive)
    1  A    between atoms: C_2  and  C_29
    2  A    between atoms: C_2  and  C_48
    3  A    between atoms: C_6  and  C_32
    4  A    between atoms: C_9  and  C_48
    5  A    between atoms: C_25  and  C_44
    6  A    between atoms: C_26  and  C_38
    7  A    between atoms: C_26  and  C_45
    8  A    between atoms: C_29  and  C_41
    9  A    between atoms: C_44  and  C_45
                            x       y       z     vdW  Elec       q    Type
                         _______ _______ _______ _____ _____    ______ ____

>  <TORSDO>
F 9

$$$$
=
 OpenBabel11052409423D

 49 56  0  0  0  0  0  0  0  0999 V2000
  161.2040  202.6520  148.2800 S   0  0  0  0  0  0  0  0  0  0  0  0
  161.7520  208.7770  149.6470 N   0  0  0  0  0  0  0  0  0  0  0  0
  162.1650  205.6070  145.9800 C   0  0  0  0  0  1  0  0  0  0  0  0
  160.4240  208.4060  155.2630 C   0  0  0  0  0  0  0  0  0  0  0  0
  160.3160  209.3300  156.4060 C   0  0  0  0  0  3  0  0  0  0  0  0
  161.9250  210.2000  149.8480 C   0  0  0  0  0  0  0  0  0  0  0  0
  161.5780  206.3670  148.9770 C   0  0  0  0  0  0  0  0  0  0  0  0
  161.7780  204.6780  147.0770 C   0  0  0  0  0  0  0  0  0  0  0  0
  161.7230  210.7190  151.0750 C   0  0  0  0  0  3  0  0  0  0  0  0
  161.1760  204.0110  149.2380 C   0  0  0  0  0  0  0  0  0  0  0  0
  160.7590  208.7370  154.0060 C   0  0  0  0  0  0  0  0  0  0  0  0
  160.8640  211.5860  155.4050 C   0  0  0  0  0  3  0  0  0  0  0  0
  161.1850  208.4460  151.9370 C   0  0  0  0  0  0  0  0  0  0  0  0
  161.3350  209.7870  152.1530 C   0  0  0  0  0  0  0  0  0  0  0  0
  161.2800  206.5290  150.3320 C   0  0  0  0  0  0  0  0  0  0  0  0
  161.1080  211.3160  154.1280 C   0  0  0  0  0  3  0  0  0  0  0  0
  160.4470  202.7820  151.6000 Cl  0  0  0  0  0  0  0  0  0  0  0  0
  160.8430  207.8330  153.0420 O   0  0  0  0  0  0  0  0  0  0  0  0
  160.4970  210.6480  156.4710 C   0  0  0  0  0  3  0  0  0  0  0  0
  161.5230  205.0800  148.4150 C   0  0  0  0  0  0  0  0  0  0  0  0
  160.9310  205.4430  151.1530 C   0  0  0  0  0  3  0  0  0  0  0  0
  161.0630  210.0010  153.4860 C   0  0  0  0  0  0  0  0  0  0  0  0
  160.8780  204.1550  150.5980 C   0  0  0  0  0  0  0  0  0  0  0  0
  162.0070  207.9050  148.1250 S   0  0  0  0  0  0  0  0  0  0  0  0
  161.3820  207.9180  150.7280 C   0  0  0  0  0  0  0  0  0  0  0  0
  161.6420  203.3460  146.8300 N   0  0  0  0  0  0  0  0  0  0  0  0
  160.0420  206.7690  157.0780 C   0  0  0  0  0  1  0  0  0  0  0  0
  160.1480  206.9700  155.5770 C   0  0  0  0  0  2  0  0  0  0  0  0
  162.3120  211.0940  148.7140 C   0  0  0  0  0  2  0  0  0  0  0  0
  161.1070  211.4320  147.8470 C   0  0  0  0  0  2  0  0  0  0  0  0
  160.9460  212.9370  147.6810 C   0  0  0  0  0  2  0  0  0  0  0  0
  162.4300  213.7500  145.7540 N   0  0  0  0  0  2  0  0  0  0  0  0
  163.0890  213.9140  147.9730 O   0  0  0  0  0  0  0  0  0  0  0  0
  160.5420  212.6540  144.9140 O   0  0  0  0  0  0  0  0  0  0  0  0
  161.5780  213.3310  144.6790 C   0  0  0  0  0  0  0  0  0  0  0  0
  162.2070  213.5450  147.1560 C   0  0  0  0  0  0  0  0  0  0  0  0
  163.0970  213.9920  143.0040 O   0  0  0  0  0  0  0  0  0  0  0  0
  161.9080  213.6720  143.2800 C   0  0  0  0  0  0  0  0  0  0  0  0
  159.9200  214.4440  142.2120 O   0  0  0  0  0  0  0  0  0  0  0  0
  160.9010  213.6540  142.1930 C   0  0  0  0  0  0  0  0  0  0  0  0
  160.8600  211.2060  141.4880 C   0  0  0  0  0  2  0  0  0  0  0  0
  161.0030  212.6590  141.0750 C   0  0  0  0  0  0  0  0  0  0  0  0
  159.7340  211.9010  140.7370 C   0  0  0  0  0  2  0  0  0  0  0  0
  162.9640  211.9870  139.6550 C   0  0  0  0  0  3  0  0  0  0  0  0
  161.8690  214.0990  139.2040 C   0  0  0  0  0  3  0  0  0  0  0  0
  162.7760  214.3500  138.1720 C   0  0  0  0  0  3  0  0  0  0  0  0
  161.9520  212.9120  139.9440 C   0  0  0  0  0  0  0  0  0  0  0  0
  163.7760  213.4180  137.8780 C   0  0  0  0  0  3  0  0  0  0  0  0
  163.8710  212.2380  138.6210 C   0  0  0  0  0  3  0  0  0  0  0  0
  1 10  1  0  0  0  0
  2  6  1  0  0  0  0
  2 25  1  0  0  0  0
  3  8  1  0  0  0  0
  4 28  1  0  0  0  0
  4  5  1  0  0  0  0
  5 19  2  0  0  0  0
  6  9  2  0  0  0  0
  7 15  1  0  0  0  0
  8 20  1  0  0  0  0
  9 14  1  0  0  0  0
 10 23  2  0  0  0  0
 11  4  2  0  0  0  0
 12 19  1  0  0  0  0
 13 14  1  0  0  0  0
 13 18  1  0  0  0  0
 14 22  2  0  0  0  0
 15 25  1  0  0  0  0
 15 21  2  0  0  0  0
 16 12  2  0  0  0  0
 18 11  1  0  0  0  0
 20  7  2  0  0  0  0
 20 10  1  0  0  0  0
 22 11  1  0  0  0  0
 22 16  1  0  0  0  0
 23 21  1  0  0  0  0
 23 17  1  0  0  0  0
 24  7  1  0  0  0  0
 24  2  1  0  0  0  0
 25 13  2  0  0  0  0
 26  8  2  0  0  0  0
 26  1  1  0  0  0  0
 28 27  1  0  0  0  0
 29  6  1  0  0  0  0
 30 29  1  0  0  0  0
 31 30  1  0  0  0  0
 32 36  1  0  0  0  0
 35 34  2  0  0  0  0
 35 32  1  0  0  0  0
 36 31  1  0  0  0  0
 36 33  2  0  0  0  0
 37 38  2  0  0  0  0
 38 35  1  0  0  0  0
 40 39  2  0  0  0  0
 40 38  1  0  0  0  0
 42 41  1  0  0  0  0
 42 40  1  0  0  0  0
 43 42  1  0  0  0  0
 43 41  1  0  0  0  0
 44 47  1  0  0  0  0
 45 47  2  0  0  0  0
 46 45  1  0  0  0  0
 47 42  1  0  0  0  0
 48 46  2  0  0  0  0
 48 49  1  0  0  0  0
 49 44  2  0  0  0  0
M  END
>  <MODEL>
2

>  <REMARK>
 VINA RESULT:      -9.9      1.163      1.872
  Name = 
  9 active torsions:
  status: ('A' for Active; 'I' for Inactive)
    1  A    between atoms: C_2  and  C_29
    2  A    between atoms: C_2  and  C_48
    3  A    between atoms: C_6  and  C_32
    4  A    between atoms: C_9  and  C_48
    5  A    between atoms: C_25  and  C_44
    6  A    between atoms: C_26  and  C_38
    7  A    between atoms: C_26  and  C_45
    8  A    between atoms: C_29  and  C_41
    9  A    between atoms: C_44  and  C_45
                            x       y       z     vdW  Elec       q    Type
                         _______ _______ _______ _____ _____    ______ ____

>  <TORSDO>
F 9

$$$$
=
 OpenBabel11052409423D

 49 56  0  0  0  0  0  0  0  0999 V2000
  160.6210  208.0460  156.5870 S   0  0  0  0  0  0  0  0  0  0  0  0
  161.7220  209.4770  150.5520 N   0  0  0  0  0  0  0  0  0  0  0  0
  161.3190  211.4850  154.9650 C   0  0  0  0  0  1  0  0  0  0  0  0
  161.2930  204.1170  148.4270 C   0  0  0  0  0  0  0  0  0  0  0  0
  161.3800  203.4740  147.1030 C   0  0  0  0  0  3  0  0  0  0  0  0
  161.9680  209.9260  149.1980 C   0  0  0  0  0  0  0  0  0  0  0  0
  161.2870  209.0410  152.9830 C   0  0  0  0  0  0  0  0  0  0  0  0
  161.0760  210.0590  155.3110 C   0  0  0  0  0  0  0  0  0  0  0  0
  161.9870  209.0200  148.2000 C   0  0  0  0  0  3  0  0  0  0  0  0
  160.8250  207.7580  154.9620 C   0  0  0  0  0  0  0  0  0  0  0  0
  161.4350  205.4270  148.6820 C   0  0  0  0  0  0  0  0  0  0  0  0
  161.8760  205.3960  145.5380 C   0  0  0  0  0  3  0  0  0  0  0  0
  161.5130  207.2130  149.8460 C   0  0  0  0  0  0  0  0  0  0  0  0
  161.7490  207.6070  148.5580 C   0  0  0  0  0  0  0  0  0  0  0  0
  161.2440  207.8530  152.2480 C   0  0  0  0  0  0  0  0  0  0  0  0
  161.9130  206.4550  146.3370 C   0  0  0  0  0  3  0  0  0  0  0  0
  160.4550  205.0230  155.0240 Cl  0  0  0  0  0  0  0  0  0  0  0  0
  161.3280  205.9180  149.9080 O   0  0  0  0  0  0  0  0  0  0  0  0
  161.6210  203.9990  145.9030 C   0  0  0  0  0  3  0  0  0  0  0  0
  161.0750  208.9940  154.3710 C   0  0  0  0  0  0  0  0  0  0  0  0
  160.9910  206.6120  152.8560 C   0  0  0  0  0  3  0  0  0  0  0  0
  161.7050  206.4680  147.7860 C   0  0  0  0  0  0  0  0  0  0  0  0
  160.7750  206.5590  154.2410 C   0  0  0  0  0  0  0  0  0  0  0  0
  161.6220  210.5150  151.9860 S   0  0  0  0  0  0  0  0  0  0  0  0
  161.4910  208.0970  150.8430 C   0  0  0  0  0  0  0  0  0  0  0  0
  160.8380  209.6990  156.6030 N   0  0  0  0  0  0  0  0  0  0  0  0
  161.1630  201.7480  149.1290 C   0  0  0  0  0  1  0  0  0  0  0  0
  160.9980  203.1920  149.5660 C   0  0  0  0  0  2  0  0  0  0  0  0
  162.2090  211.3700  148.8990 C   0  0  0  0  0  2  0  0  0  0  0  0
  161.3610  211.8340  147.7220 C   0  0  0  0  0  2  0  0  0  0  0  0
  161.7740  213.2220  147.2510 C   0  0  0  0  0  2  0  0  0  0  0  0
  160.8100  213.7640  144.9370 N   0  0  0  0  0  2  0  0  0  0  0  0
  159.7110  214.3430  146.8980 O   0  0  0  0  0  0  0  0  0  0  0  0
  162.9660  212.8790  144.7290 O   0  0  0  0  0  0  0  0  0  0  0  0
  161.9110  213.2700  144.1620 C   0  0  0  0  0  0  0  0  0  0  0  0
  160.7210  213.8120  146.3680 C   0  0  0  0  0  0  0  0  0  0  0  0
  162.6310  213.9360  142.0200 O   0  0  0  0  0  0  0  0  0  0  0  0
  161.8320  213.2230  142.6870 C   0  0  0  0  0  0  0  0  0  0  0  0
  160.3570  211.3570  142.5150 O   0  0  0  0  0  0  0  0  0  0  0  0
  160.8550  212.3750  141.9640 C   0  0  0  0  0  0  0  0  0  0  0  0
  158.9990  212.8970  140.2990 C   0  0  0  0  0  2  0  0  0  0  0  0
  160.4810  212.6830  140.5440 C   0  0  0  0  0  0  0  0  0  0  0  0
  159.9540  214.0810  140.2820 C   0  0  0  0  0  2  0  0  0  0  0  0
  162.2010  212.7470  138.7140 C   0  0  0  0  0  3  0  0  0  0  0  0
  160.9200  210.7170  139.0400 C   0  0  0  0  0  3  0  0  0  0  0  0
  161.5940  210.1200  137.9710 C   0  0  0  0  0  3  0  0  0  0  0  0
  161.2280  212.0290  139.4240 C   0  0  0  0  0  0  0  0  0  0  0  0
  162.5730  210.8350  137.2750 C   0  0  0  0  0  3  0  0  0  0  0  0
  162.8740  212.1480  137.6450 C   0  0  0  0  0  3  0  0  0  0  0  0
  1 26  1  0  0  0  0
  2 25  1  0  0  0  0
  2 24  1  0  0  0  0
  3  8  1  0  0  0  0
  4 11  2  0  0  0  0
  4 28  1  0  0  0  0
  5  4  1  0  0  0  0
  6  2  1  0  0  0  0
  7 20  2  0  0  0  0
  8 26  2  0  0  0  0
  9 14  1  0  0  0  0
  9  6  2  0  0  0  0
 10  1  1  0  0  0  0
 11 18  1  0  0  0  0
 12 19  1  0  0  0  0
 12 16  2  0  0  0  0
 13 18  1  0  0  0  0
 13 25  2  0  0  0  0
 14 13  1  0  0  0  0
 15 21  2  0  0  0  0
 15  7  1  0  0  0  0
 16 22  1  0  0  0  0
 19  5  2  0  0  0  0
 20 10  1  0  0  0  0
 20  8  1  0  0  0  0
 21 23  1  0  0  0  0
 22 14  2  0  0  0  0
 22 11  1  0  0  0  0
 23 10  2  0  0  0  0
 23 17  1  0  0  0  0
 24  7  1  0  0  0  0
 25 15  1  0  0  0  0
 27 28  1  0  0  0  0
 29  6  1  0  0  0  0
 30 29  1  0  0  0  0
 31 30  1  0  0  0  0
 32 36  1  0  0  0  0
 35 34  2  0  0  0  0
 35 32  1  0  0  0  0
 36 33  2  0  0  0  0
 36 31  1  0  0  0  0
 37 38  2  0  0  0  0
 38 35  1  0  0  0  0
 40 39  2  0  0  0  0
 40 38  1  0  0  0  0
 41 42  1  0  0  0  0
 42 40  1  0  0  0  0
 43 41  1  0  0  0  0
 43 42  1  0  0  0  0
 44 47  1  0  0  0  0
 45 47  2  0  0  0  0
 46 45  1  0  0  0  0
 47 42  1  0  0  0  0
 48 49  1  0  0  0  0
 48 46  2  0  0  0  0
 49 44  2  0  0  0  0
M  END
>  <MODEL>
3

>  <REMARK>
 VINA RESULT:      -8.2      2.310      5.686
  Name = 
  9 active torsions:
  status: ('A' for Active; 'I' for Inactive)
    1  A    between atoms: C_2  and  C_29
    2  A    between atoms: C_2  and  C_48
    3  A    between atoms: C_6  and  C_32
    4  A    between atoms: C_9  and  C_48
    5  A    between atoms: C_25  and  C_44
    6  A    between atoms: C_26  and  C_38
    7  A    between atoms: C_26  and  C_45
    8  A    between atoms: C_29  and  C_41
    9  A    between atoms: C_44  and  C_45
                            x       y       z     vdW  Elec       q    Type
                         _______ _______ _______ _____ _____    ______ ____

>  <TORSDO>
F 9

$$$$
=
 OpenBabel11052409423D

 49 56  0  0  0  0  0  0  0  0999 V2000
  160.6820  207.7880  156.5990 S   0  0  0  0  0  0  0  0  0  0  0  0
  161.7280  209.4680  150.6190 N   0  0  0  0  0  0  0  0  0  0  0  0
  161.4100  211.2850  155.1200 C   0  0  0  0  0  1  0  0  0  0  0  0
  161.1920  204.2130  148.2660 C   0  0  0  0  0  0  0  0  0  0  0  0
  161.2530  203.6280  146.9150 C   0  0  0  0  0  3  0  0  0  0  0  0
  161.9630  209.9720  149.2830 C   0  0  0  0  0  0  0  0  0  0  0  0
  161.3170  208.9310  153.0330 C   0  0  0  0  0  0  0  0  0  0  0  0
  161.1510  209.8480  155.4070 C   0  0  0  0  0  0  0  0  0  0  0  0
  161.9560  209.1110  148.2460 C   0  0  0  0  0  3  0  0  0  0  0  0
  160.8610  207.5690  154.9600 C   0  0  0  0  0  0  0  0  0  0  0  0
  161.3560  205.5080  148.5770 C   0  0  0  0  0  0  0  0  0  0  0  0
  161.7580  205.6090  145.4280 C   0  0  0  0  0  3  0  0  0  0  0  0
  161.4760  207.2400  149.8160 C   0  0  0  0  0  0  0  0  0  0  0  0
  161.7010  207.6870  148.5440 C   0  0  0  0  0  0  0  0  0  0  0  0
  161.2470  207.7770  152.2480 C   0  0  0  0  0  0  0  0  0  0  0  0
  161.8210  206.6320  146.2730 C   0  0  0  0  0  3  0  0  0  0  0  0
  160.4510  204.8390  154.9080 Cl  0  0  0  0  0  0  0  0  0  0  0  0
  161.2730  205.9460  149.8240 O   0  0  0  0  0  0  0  0  0  0  0  0
  161.4860  204.2020  145.7360 C   0  0  0  0  0  3  0  0  0  0  0  0
  161.1220  208.8260  154.4210 C   0  0  0  0  0  0  0  0  0  0  0  0
  160.9830  206.5140  152.8040 C   0  0  0  0  0  3  0  0  0  0  0  0
  161.6300  206.5840  147.7230 C   0  0  0  0  0  0  0  0  0  0  0  0
  160.7840  206.4040  154.1890 C   0  0  0  0  0  0  0  0  0  0  0  0
  161.6610  210.4420  152.0990 S   0  0  0  0  0  0  0  0  0  0  0  0
  161.4790  208.0800  150.8520 C   0  0  0  0  0  0  0  0  0  0  0  0
  160.9240  209.4350  156.6840 N   0  0  0  0  0  0  0  0  0  0  0  0
  161.2960  201.8390  148.9530 C   0  0  0  0  0  1  0  0  0  0  0  0
  160.8980  203.2430  149.3670 C   0  0  0  0  0  2  0  0  0  0  0  0
  162.2220  211.4250  149.0440 C   0  0  0  0  0  2  0  0  0  0  0  0
  162.3340  211.7230  147.5540 C   0  0  0  0  0  2  0  0  0  0  0  0
  161.2440  212.6820  147.0950 C   0  0  0  0  0  2  0  0  0  0  0  0
  161.1890  213.6280  144.7120 N   0  0  0  0  0  2  0  0  0  0  0  0
  162.7110  214.3700  146.2990 O   0  0  0  0  0  0  0  0  0  0  0  0
  159.7070  211.8280  144.9020 O   0  0  0  0  0  0  0  0  0  0  0  0
  160.1590  212.7710  144.2000 C   0  0  0  0  0  0  0  0  0  0  0  0
  161.7610  213.5910  146.0270 C   0  0  0  0  0  0  0  0  0  0  0  0
  158.5740  213.6620  142.7020 O   0  0  0  0  0  0  0  0  0  0  0  0
  159.6210  212.9720  142.8380 C   0  0  0  0  0  0  0  0  0  0  0  0
  161.2950  211.6820  141.7320 O   0  0  0  0  0  0  0  0  0  0  0  0
  160.2610  212.3950  141.6320 C   0  0  0  0  0  0  0  0  0  0  0  0
  159.7980  214.1480  139.8420 C   0  0  0  0  0  2  0  0  0  0  0  0
  159.7200  212.6940  140.2650 C   0  0  0  0  0  0  0  0  0  0  0  0
  160.7350  213.1210  139.2240 C   0  0  0  0  0  2  0  0  0  0  0  0
  158.6690  210.6490  139.2510 C   0  0  0  0  0  3  0  0  0  0  0  0
  157.2620  212.5550  139.7520 C   0  0  0  0  0  3  0  0  0  0  0  0
  156.1520  211.8680  139.2520 C   0  0  0  0  0  3  0  0  0  0  0  0
  158.5230  211.9450  139.7640 C   0  0  0  0  0  0  0  0  0  0  0  0
  156.3000  210.5710  138.7540 C   0  0  0  0  0  3  0  0  0  0  0  0
  157.5580  209.9620  138.7520 C   0  0  0  0  0  3  0  0  0  0  0  0
  1 26  1  0  0  0  0
  2 25  1  0  0  0  0
  2 24  1  0  0  0  0
  3  8  1  0  0  0  0
  4 11  2  0  0  0  0
  4 28  1  0  0  0  0
  5  4  1  0  0  0  0
  6  2  1  0  0  0  0
  7 20  2  0  0  0  0
  8 26  2  0  0  0  0
  9 14  1  0  0  0  0
  9  6  2  0  0  0  0
 10  1  1  0  0  0  0
 11 18  1  0  0  0  0
 12 19  1  0  0  0  0
 12 16  2  0  0  0  0
 13 18  1  0  0  0  0
 13 25  2  0  0  0  0
 14 13  1  0  0  0  0
 15 21  2  0  0  0  0
 15  7  1  0  0  0  0
 16 22  1  0  0  0  0
 19  5  2  0  0  0  0
 20 10  1  0  0  0  0
 20  8  1  0  0  0  0
 21 23  1  0  0  0  0
 22 14  2  0  0  0  0
 22 11  1  0  0  0  0
 23 17  1  0  0  0  0
 23 10  2  0  0  0  0
 24  7  1  0  0  0  0
 25 15  1  0  0  0  0
 27 28  1  0  0  0  0
 29  6  1  0  0  0  0
 30 29  1  0  0  0  0
 31 30  1  0  0  0  0
 32 36  1  0  0  0  0
 35 32  1  0  0  0  0
 35 34  2  0  0  0  0
 36 33  2  0  0  0  0
 36 31  1  0  0  0  0
 37 38  2  0  0  0  0
 38 35  1  0  0  0  0
 40 39  2  0  0  0  0
 40 38  1  0  0  0  0
 41 42  1  0  0  0  0
 42 40  1  0  0  0  0
 43 41  1  0  0  0  0
 43 42  1  0  0  0  0
 44 47  1  0  0  0  0
 45 47  2  0  0  0  0
 46 45  1  0  0  0  0
 47 42  1  0  0  0  0
 48 46  2  0  0  0  0
 49 48  1  0  0  0  0
 49 44  2  0  0  0  0
M  END
>  <MODEL>
4

>  <REMARK>
 VINA RESULT:      -7.6      2.300      5.657
  Name = 
  9 active torsions:
  status: ('A' for Active; 'I' for Inactive)
    1  A    between atoms: C_2  and  C_29
    2  A    between atoms: C_2  and  C_48
    3  A    between atoms: C_6  and  C_32
    4  A    between atoms: C_9  and  C_48
    5  A    between atoms: C_25  and  C_44
    6  A    between atoms: C_26  and  C_38
    7  A    between atoms: C_26  and  C_45
    8  A    between atoms: C_29  and  C_41
    9  A    between atoms: C_44  and  C_45
                            x       y       z     vdW  Elec       q    Type
                         _______ _______ _______ _____ _____    ______ ____

>  <TORSDO>
F 9

$$$$
