=
 OpenBabel11042422393D

 33 37  0  0  1  0  0  0  0  0999 V2000
  161.2430  210.7040  153.3660 N   0  0  0  0  0  2  0  0  0  0  0  0
  160.7990  207.3690  154.7290 C   0  0  0  0  0  3  0  0  0  0  0  0
  161.3530  208.8310  156.6010 C   0  0  0  0  0  3  0  0  0  0  0  0
  161.2070  209.7160  154.3750 C   0  0  0  0  0  0  0  0  0  0  0  0
  160.8810  210.0520  152.1060 C   0  0  2  0  0  3  0  0  0  0  0  0
  161.4430  209.9300  155.7320 C   0  0  0  0  0  3  0  0  0  0  0  0
  160.7050  208.5330  152.4100 C   0  0  2  0  0  3  0  0  0  0  0  0
  161.0300  207.5550  156.1010 C   0  0  0  0  0  3  0  0  0  0  0  0
  160.8980  208.4770  153.8840 C   0  0  0  0  0  0  0  0  0  0  0  0
  160.0860  213.3380  149.6280 C   0  0  0  0  0  3  0  0  0  0  0  0
  162.5780  211.5620  148.9890 C   0  0  0  0  0  3  0  0  0  0  0  0
  160.8950  214.0150  148.5810 C   0  0  0  0  0  2  0  0  0  0  0  0
  162.4280  212.2580  147.8600 C   0  0  0  0  0  3  0  0  0  0  0  0
  161.6180  211.4180  150.0590 N   0  0  0  0  0  0  0  0  0  0  0  0
  162.9160  209.6600  150.9100 O   0  0  0  0  0  0  0  0  0  0  0  0
  160.4260  212.2130  150.2610 C   0  0  0  0  0  3  0  0  0  0  0  0
  161.8760  210.3700  151.0150 C   0  0  0  0  0  0  0  0  0  0  0  0
  161.2090  213.0240  147.4860 C   0  0  2  0  0  3  0  0  0  0  0  0
  161.4230  213.7290  146.1860 C   0  0  0  0  0  0  0  0  0  0  0  0
  160.5190  214.4530  145.6890 O   0  0  0  0  0  1  0  0  0  0  0  0
  162.6340  213.5890  145.5220 O   0  0  0  0  0  0  0  0  0  0  0  0
  161.7190  207.7180  151.7450 N   0  0  0  0  0  2  0  0  0  0  0  0
  161.6090  207.5330  148.9690 N   0  0  0  0  0  0  0  0  0  0  0  0
  161.3550  206.3900  149.7910 C   0  0  0  0  0  0  0  0  0  0  0  0
  160.9990  205.0410  147.8450 N   0  0  0  0  0  0  0  0  0  0  0  0
  161.4880  207.4730  147.6770 C   0  0  0  0  0  3  0  0  0  0  0  0
  161.1010  205.1020  149.1390 C   0  0  0  0  0  0  0  0  0  0  0  0
  161.0130  206.2230  146.9740 C   0  0  0  0  0  2  0  0  0  0  0  0
  161.0960  203.9430  151.2210 C   0  0  0  0  0  0  0  0  0  0  0  0
  161.4340  206.4600  151.1260 C   0  0  0  0  0  0  0  0  0  0  0  0
  161.0240  202.6700  151.9830 C   0  0  0  0  0  1  0  0  0  0  0  0
  161.1530  205.2440  151.9840 C   0  0  0  0  0  2  0  0  0  0  0  0
  161.0400  203.9090  149.9230 N   0  0  0  0  0  0  0  0  0  0  0  0
  1  4  1  0  0  0  0
  2  8  1  0  0  0  0
  4  6  2  0  0  0  0
  5 17  1  6  0  0  0
  5  7  1  0  0  0  0
  5  1  1  0  0  0  0
  6  3  1  0  0  0  0
  7 22  1  6  0  0  0
  7  9  1  0  0  0  0
  8  3  2  0  0  0  0
  9  4  1  0  0  0  0
  9  2  2  0  0  0  0
 10 16  2  0  0  0  0
 11 14  1  0  0  0  0
 12 10  1  0  0  0  0
 13 11  2  0  0  0  0
 14 16  1  0  0  0  0
 14 17  1  0  0  0  0
 15 17  2  0  0  0  0
 18 19  1  6  0  0  0
 18 13  1  0  0  0  0
 18 12  1  0  0  0  0
 20 19  1  0  0  0  0
 21 19  2  0  0  0  0
 23 24  1  0  0  0  0
 24 30  2  0  0  0  0
 25 27  2  0  0  0  0
 26 23  2  0  0  0  0
 27 24  1  0  0  0  0
 27 33  1  0  0  0  0
 28 26  1  0  0  0  0
 28 25  1  0  0  0  0
 29 31  1  0  0  0  0
 29 32  1  0  0  0  0
 30 22  1  0  0  0  0
 30 32  1  0  0  0  0
 33 29  2  0  0  0  0
M  END
>  <MODEL>
1

>  <REMARK>
 VINA RESULT:      -8.0      0.000      0.000
  Name = 
  4 active torsions:
  status: ('A' for Active; 'I' for Inactive)
    1  A    between atoms: C_12  and  C_32
    2  A    between atoms: C_18  and  C_24
    3  A    between atoms: C_23  and  N_30
    4  A    between atoms: C_26  and  N_30
                            x       y       z     vdW  Elec       q    Type
                         _______ _______ _______ _____ _____    ______ ____

>  <TORSDO>
F 4

$$$$
=
 OpenBabel11042422393D

 33 37  0  0  1  0  0  0  0  0999 V2000
  161.2340  210.7140  153.1140 N   0  0  0  0  0  2  0  0  0  0  0  0
  160.7760  207.3140  154.2970 C   0  0  0  0  0  3  0  0  0  0  0  0
  161.2970  208.6790  156.2500 C   0  0  0  0  0  3  0  0  0  0  0  0
  161.1840  209.6760  154.0700 C   0  0  0  0  0  0  0  0  0  0  0  0
  160.8940  210.1270  151.8160 C   0  0  2  0  0  3  0  0  0  0  0  0
  161.3980  209.8210  155.4400 C   0  0  0  0  0  3  0  0  0  0  0  0
  160.7170  208.5940  152.0400 C   0  0  2  0  0  3  0  0  0  0  0  0
  160.9850  207.4300  155.6810 C   0  0  0  0  0  3  0  0  0  0  0  0
  160.8860  208.4640  153.5120 C   0  0  0  0  0  0  0  0  0  0  0  0
  160.0890  213.4840  149.4380 C   0  0  0  0  0  3  0  0  0  0  0  0
  162.6270  211.7770  148.7910 C   0  0  0  0  0  3  0  0  0  0  0  0
  160.9060  214.2120  148.4340 C   0  0  0  0  0  2  0  0  0  0  0  0
  162.4880  212.5100  147.6850 C   0  0  0  0  0  3  0  0  0  0  0  0
  161.6470  211.5780  149.8350 N   0  0  0  0  0  0  0  0  0  0  0  0
  162.9600  209.8150  150.6520 O   0  0  0  0  0  0  0  0  0  0  0  0
  160.4360  212.3440  150.0380 C   0  0  0  0  0  3  0  0  0  0  0  0
  161.9060  210.5020  150.7590 C   0  0  0  0  0  0  0  0  0  0  0  0
  161.2630  213.2670  147.3110 C   0  0  2  0  0  3  0  0  0  0  0  0
  161.4900  214.0210  146.0420 C   0  0  0  0  0  0  0  0  0  0  0  0
  162.6410  214.4360  145.7360 O   0  0  0  0  0  1  0  0  0  0  0  0
  160.4230  214.2620  145.1880 O   0  0  0  0  0  0  0  0  0  0  0  0
  161.7420  207.8160  151.3510 N   0  0  0  0  0  2  0  0  0  0  0  0
  161.3140  205.1660  152.0910 N   0  0  0  0  0  0  0  0  0  0  0  0
  161.2720  205.5590  150.7160 C   0  0  0  0  0  0  0  0  0  0  0  0
  160.7900  203.3070  150.0630 N   0  0  0  0  0  0  0  0  0  0  0  0
  161.1880  203.9200  152.4390 C   0  0  0  0  0  3  0  0  0  0  0  0
  160.9340  204.5480  149.7090 C   0  0  0  0  0  0  0  0  0  0  0  0
  161.0580  202.8130  151.4200 C   0  0  0  0  0  2  0  0  0  0  0  0
  160.8670  206.1720  147.9670 C   0  0  0  0  0  0  0  0  0  0  0  0
  161.4470  206.8350  150.3510 C   0  0  0  0  0  0  0  0  0  0  0  0
  160.6020  206.5260  146.5490 C   0  0  0  0  0  1  0  0  0  0  0  0
  161.4100  207.2360  148.8910 C   0  0  0  0  0  2  0  0  0  0  0  0
  160.6910  204.9460  148.3590 N   0  0  0  0  0  0  0  0  0  0  0  0
  1  4  1  0  0  0  0
  2  8  1  0  0  0  0
  4  6  2  0  0  0  0
  5 17  1  6  0  0  0
  5  7  1  0  0  0  0
  5  1  1  0  0  0  0
  6  3  1  0  0  0  0
  7 22  1  6  0  0  0
  7  9  1  0  0  0  0
  8  3  2  0  0  0  0
  9  4  1  0  0  0  0
  9  2  2  0  0  0  0
 10 16  2  0  0  0  0
 11 14  1  0  0  0  0
 12 10  1  0  0  0  0
 13 11  2  0  0  0  0
 14 16  1  0  0  0  0
 14 17  1  0  0  0  0
 15 17  2  0  0  0  0
 18 19  1  6  0  0  0
 18 13  1  0  0  0  0
 18 12  1  0  0  0  0
 20 19  1  0  0  0  0
 21 19  2  0  0  0  0
 23 26  2  0  0  0  0
 24 23  1  0  0  0  0
 25 28  1  0  0  0  0
 27 25  2  0  0  0  0
 27 24  1  0  0  0  0
 28 26  1  0  0  0  0
 29 33  2  0  0  0  0
 29 32  1  0  0  0  0
 30 24  2  0  0  0  0
 30 22  1  0  0  0  0
 31 29  1  0  0  0  0
 32 30  1  0  0  0  0
 33 27  1  0  0  0  0
M  END
>  <MODEL>
2

>  <REMARK>
 VINA RESULT:      -7.6      0.726      2.353
  Name = 
  4 active torsions:
  status: ('A' for Active; 'I' for Inactive)
    1  A    between atoms: C_12  and  C_32
    2  A    between atoms: C_18  and  C_24
    3  A    between atoms: C_23  and  N_30
    4  A    between atoms: C_26  and  N_30
                            x       y       z     vdW  Elec       q    Type
                         _______ _______ _______ _____ _____    ______ ____

>  <TORSDO>
F 4

$$$$
=
 OpenBabel11042422393D

 33 37  0  0  1  0  0  0  0  0999 V2000
  161.7860  206.8410  152.6910 N   0  0  0  0  0  2  0  0  0  0  0  0
  160.5040  209.7290  154.4760 C   0  0  0  0  0  3  0  0  0  0  0  0
  159.9750  207.7680  155.8280 C   0  0  0  0  0  3  0  0  0  0  0  0
  161.1330  207.5240  153.7400 C   0  0  0  0  0  0  0  0  0  0  0  0
  162.2560  207.8500  151.7400 C   0  0  2  0  0  3  0  0  0  0  0  0
  160.5790  206.9330  154.8740 C   0  0  0  0  0  3  0  0  0  0  0  0
  161.7490  209.2330  152.2530 C   0  0  2  0  0  3  0  0  0  0  0  0
  159.9390  209.1620  155.6300 C   0  0  0  0  0  3  0  0  0  0  0  0
  161.0960  208.8770  153.5410 C   0  0  0  0  0  0  0  0  0  0  0  0
  161.0250  203.9220  150.9530 C   0  0  0  0  0  3  0  0  0  0  0  0
  161.2550  205.9170  148.5570 C   0  0  0  0  0  3  0  0  0  0  0  0
  160.4290  203.2870  149.7500 C   0  0  0  0  0  2  0  0  0  0  0  0
  161.1920  204.7360  147.9390 C   0  0  0  0  0  3  0  0  0  0  0  0
  161.5160  206.1550  149.9590 N   0  0  0  0  0  0  0  0  0  0  0  0
  161.8670  208.4170  149.4490 O   0  0  0  0  0  0  0  0  0  0  0  0
  161.4840  205.1730  151.0210 C   0  0  0  0  0  3  0  0  0  0  0  0
  161.8500  207.5090  150.3270 C   0  0  0  0  0  0  0  0  0  0  0  0
  161.3950  203.4160  148.5960 C   0  0  2  0  0  3  0  0  0  0  0  0
  161.1880  202.3130  147.6110 C   0  0  0  0  0  0  0  0  0  0  0  0
  161.0300  202.5640  146.3860 O   0  0  0  0  0  0  0  0  0  0  0  0
  161.1740  200.9960  148.0500 O   0  0  0  0  0  1  0  0  0  0  0  0
  160.7700  209.8290  151.3480 N   0  0  0  0  0  2  0  0  0  0  0  0
  161.8130  211.2530  149.1950 N   0  0  0  0  0  0  0  0  0  0  0  0
  161.0770  211.9170  150.2250 C   0  0  0  0  0  0  0  0  0  0  0  0
  161.3640  214.0170  149.1100 N   0  0  0  0  0  0  0  0  0  0  0  0
  162.3660  211.9190  148.2250 C   0  0  0  0  0  3  0  0  0  0  0  0
  160.8260  213.3560  150.0900 C   0  0  0  0  0  0  0  0  0  0  0  0
  162.3210  213.4280  148.1640 C   0  0  0  0  0  2  0  0  0  0  0  0
  159.4130  213.3840  152.0080 C   0  0  0  0  0  0  0  0  0  0  0  0
  160.5450  211.2390  151.2500 C   0  0  0  0  0  0  0  0  0  0  0  0
  158.4930  214.1150  152.9170 C   0  0  0  0  0  1  0  0  0  0  0  0
  159.7770  211.9560  152.3400 C   0  0  0  0  0  2  0  0  0  0  0  0
  159.9330  214.0080  150.9940 N   0  0  0  0  0  0  0  0  0  0  0  0
  1  4  1  0  0  0  0
  2  8  1  0  0  0  0
  4  6  2  0  0  0  0
  5 17  1  6  0  0  0
  5  7  1  0  0  0  0
  5  1  1  0  0  0  0
  6  3  1  0  0  0  0
  7 22  1  6  0  0  0
  7  9  1  0  0  0  0
  8  3  2  0  0  0  0
  9  4  1  0  0  0  0
  9  2  2  0  0  0  0
 10 16  2  0  0  0  0
 11 14  1  0  0  0  0
 12 10  1  0  0  0  0
 13 11  2  0  0  0  0
 13 18  1  0  0  0  0
 14 17  1  0  0  0  0
 14 16  1  0  0  0  0
 15 17  2  0  0  0  0
 18 19  1  6  0  0  0
 18 12  1  0  0  0  0
 19 21  1  0  0  0  0
 20 19  2  0  0  0  0
 23 24  1  0  0  0  0
 24 30  2  0  0  0  0
 25 27  2  0  0  0  0
 26 23  2  0  0  0  0
 27 24  1  0  0  0  0
 27 33  1  0  0  0  0
 28 26  1  0  0  0  0
 28 25  1  0  0  0  0
 29 32  1  0  0  0  0
 29 31  1  0  0  0  0
 30 22  1  0  0  0  0
 30 32  1  0  0  0  0
 33 29  2  0  0  0  0
M  END
>  <MODEL>
3

>  <REMARK>
 VINA RESULT:      -7.0      2.782      7.102
  Name = 
  4 active torsions:
  status: ('A' for Active; 'I' for Inactive)
    1  A    between atoms: C_12  and  C_32
    2  A    between atoms: C_18  and  C_24
    3  A    between atoms: C_23  and  N_30
    4  A    between atoms: C_26  and  N_30
                            x       y       z     vdW  Elec       q    Type
                         _______ _______ _______ _____ _____    ______ ____

>  <TORSDO>
F 4

$$$$
=
 OpenBabel11042422393D

 33 37  0  0  1  0  0  0  0  0999 V2000
  161.8180  207.2890  153.6040 N   0  0  0  0  0  2  0  0  0  0  0  0
  160.0990  209.6650  155.7410 C   0  0  0  0  0  3  0  0  0  0  0  0
  160.2570  207.5750  156.9890 C   0  0  0  0  0  3  0  0  0  0  0  0
  161.1570  207.7320  154.7700 C   0  0  0  0  0  0  0  0  0  0  0  0
  161.8940  208.4270  152.6860 C   0  0  2  0  0  3  0  0  0  0  0  0
  160.9210  206.9680  155.9110 C   0  0  0  0  0  3  0  0  0  0  0  0
  161.1280  209.6080  153.3580 C   0  0  2  0  0  3  0  0  0  0  0  0
  159.8490  208.9210  156.9040 C   0  0  0  0  0  3  0  0  0  0  0  0
  160.7580  209.0380  154.6810 C   0  0  0  0  0  0  0  0  0  0  0  0
  161.0520  204.3920  151.9250 C   0  0  0  0  0  3  0  0  0  0  0  0
  160.8410  206.4270  149.5610 C   0  0  0  0  0  3  0  0  0  0  0  0
  160.4280  203.7060  150.7650 C   0  0  0  0  0  2  0  0  0  0  0  0
  160.8580  205.2530  148.9260 C   0  0  0  0  0  3  0  0  0  0  0  0
  161.1960  206.6780  150.9390 N   0  0  0  0  0  0  0  0  0  0  0  0
  161.2400  208.9710  150.4500 O   0  0  0  0  0  0  0  0  0  0  0  0
  161.3710  205.6870  151.9790 C   0  0  0  0  0  3  0  0  0  0  0  0
  161.4050  208.0570  151.3060 C   0  0  0  0  0  0  0  0  0  0  0  0
  161.2670  203.9590  149.5350 C   0  0  2  0  0  3  0  0  0  0  0  0
  161.1000  202.8500  148.5480 C   0  0  0  0  0  0  0  0  0  0  0  0
  161.2360  203.0600  147.3130 O   0  0  0  0  0  0  0  0  0  0  0  0
  160.7970  201.5730  148.9990 O   0  0  0  0  0  1  0  0  0  0  0  0
  159.9220  209.9720  152.6190 N   0  0  0  0  0  2  0  0  0  0  0  0
  157.8850  211.1520  154.1060 N   0  0  0  0  0  0  0  0  0  0  0  0
  158.5380  211.8720  153.0570 C   0  0  0  0  0  0  0  0  0  0  0  0
  157.1700  213.7890  153.4890 N   0  0  0  0  0  0  0  0  0  0  0  0
  156.8850  211.6690  154.7560 C   0  0  0  0  0  3  0  0  0  0  0  0
  158.1580  213.2690  152.8250 C   0  0  0  0  0  0  0  0  0  0  0  0
  156.3140  213.0220  154.4020 C   0  0  0  0  0  2  0  0  0  0  0  0
  159.8890  213.5690  151.2150 C   0  0  0  0  0  0  0  0  0  0  0  0
  159.5390  211.3260  152.3560 C   0  0  0  0  0  0  0  0  0  0  0  0
  160.6460  214.4530  150.2910 C   0  0  0  0  0  1  0  0  0  0  0  0
  160.2160  212.0960  151.2410 C   0  0  0  0  0  2  0  0  0  0  0  0
  158.9230  214.0720  151.9230 N   0  0  0  0  0  0  0  0  0  0  0  0
  1  4  1  0  0  0  0
  2  8  1  0  0  0  0
  4  6  2  0  0  0  0
  5 17  1  6  0  0  0
  5  7  1  0  0  0  0
  5  1  1  0  0  0  0
  6  3  1  0  0  0  0
  7 22  1  6  0  0  0
  7  9  1  0  0  0  0
  8  3  2  0  0  0  0
  9  4  1  0  0  0  0
  9  2  2  0  0  0  0
 10 16  2  0  0  0  0
 11 14  1  0  0  0  0
 12 10  1  0  0  0  0
 13 18  1  0  0  0  0
 13 11  2  0  0  0  0
 14 17  1  0  0  0  0
 14 16  1  0  0  0  0
 15 17  2  0  0  0  0
 18 19  1  6  0  0  0
 18 12  1  0  0  0  0
 19 21  1  0  0  0  0
 20 19  2  0  0  0  0
 23 26  2  0  0  0  0
 24 23  1  0  0  0  0
 25 28  1  0  0  0  0
 27 24  1  0  0  0  0
 27 25  2  0  0  0  0
 28 26  1  0  0  0  0
 29 32  1  0  0  0  0
 29 33  2  0  0  0  0
 30 22  1  0  0  0  0
 30 24  2  0  0  0  0
 31 29  1  0  0  0  0
 32 30  1  0  0  0  0
 33 27  1  0  0  0  0
M  END
>  <MODEL>
4

>  <REMARK>
 VINA RESULT:      -6.9      3.066      7.525
  Name = 
  4 active torsions:
  status: ('A' for Active; 'I' for Inactive)
    1  A    between atoms: C_12  and  C_32
    2  A    between atoms: C_18  and  C_24
    3  A    between atoms: C_23  and  N_30
    4  A    between atoms: C_26  and  N_30
                            x       y       z     vdW  Elec       q    Type
                         _______ _______ _______ _____ _____    ______ ____

>  <TORSDO>
F 4

$$$$
=
 OpenBabel11042422393D

 33 37  0  0  1  0  0  0  0  0999 V2000
  162.4590  210.3080  148.3870 N   0  0  0  0  0  2  0  0  0  0  0  0
  161.2370  213.5760  149.3890 C   0  0  0  0  0  3  0  0  0  0  0  0
  162.9610  213.9500  147.7040 C   0  0  0  0  0  3  0  0  0  0  0  0
  162.3940  211.7190  148.3830 C   0  0  0  0  0  0  0  0  0  0  0  0
  161.4410  209.8290  149.3250 C   0  0  2  0  0  3  0  0  0  0  0  0
  163.1650  212.5650  147.5880 C   0  0  0  0  0  3  0  0  0  0  0  0
  160.7940  211.0870  149.9800 C   0  0  2  0  0  3  0  0  0  0  0  0
  161.9980  214.4530  148.6010 C   0  0  0  0  0  3  0  0  0  0  0  0
  161.4620  212.2030  149.2580 C   0  0  0  0  0  0  0  0  0  0  0  0
  160.7240  205.7600  148.6150 C   0  0  0  0  0  3  0  0  0  0  0  0
  162.2280  206.5710  151.2330 C   0  0  0  0  0  3  0  0  0  0  0  0
  161.2470  204.5290  149.2610 C   0  0  0  0  0  2  0  0  0  0  0  0
  161.8730  205.3100  151.4870 C   0  0  0  0  0  3  0  0  0  0  0  0
  161.7240  207.4240  150.1810 N   0  0  0  0  0  0  0  0  0  0  0  0
  162.7110  209.2520  151.2680 O   0  0  0  0  0  0  0  0  0  0  0  0
  160.9510  207.0080  149.0300 C   0  0  0  0  0  3  0  0  0  0  0  0
  162.0170  208.8300  150.3000 C   0  0  0  0  0  0  0  0  0  0  0  0
  160.8590  204.5370  150.7210 C   0  0  2  0  0  3  0  0  0  0  0  0
  160.7680  203.1430  151.2470 C   0  0  0  0  0  0  0  0  0  0  0  0
  160.7690  202.9200  152.4880 O   0  0  0  0  0  1  0  0  0  0  0  0
  160.6750  202.0800  150.3590 O   0  0  0  0  0  0  0  0  0  0  0  0
  161.0840  211.1740  151.4080 N   0  0  0  0  0  2  0  0  0  0  0  0
  161.1220  209.8300  153.8470 N   0  0  0  0  0  0  0  0  0  0  0  0
  160.1020  210.7900  153.5540 C   0  0  0  0  0  0  0  0  0  0  0  0
  159.1110  210.4270  155.7030 N   0  0  0  0  0  0  0  0  0  0  0  0
  161.1050  209.1460  154.9510 C   0  0  0  0  0  3  0  0  0  0  0  0
  159.1140  211.0990  154.5920 C   0  0  0  0  0  0  0  0  0  0  0  0
  159.9830  209.2720  155.9550 C   0  0  0  0  0  2  0  0  0  0  0  0
  158.1580  212.8520  153.2900 C   0  0  0  0  0  0  0  0  0  0  0  0
  160.0910  211.4640  152.3970 C   0  0  0  0  0  0  0  0  0  0  0  0
  157.1920  213.9720  153.1540 C   0  0  0  0  0  1  0  0  0  0  0  0
  158.9990  212.4690  152.0960 C   0  0  0  0  0  2  0  0  0  0  0  0
  158.2070  212.1880  154.4060 N   0  0  0  0  0  0  0  0  0  0  0  0
  1  5  1  0  0  0  0
  3  8  1  0  0  0  0
  4  1  1  0  0  0  0
  4  9  2  0  0  0  0
  5  7  1  0  0  0  0
  5 17  1  1  0  0  0
  6  3  2  0  0  0  0
  6  4  1  0  0  0  0
  7 22  1  1  0  0  0
  8  2  2  0  0  0  0
  9  2  1  0  0  0  0
  9  7  1  0  0  0  0
 10 16  2  0  0  0  0
 10 12  1  0  0  0  0
 11 13  2  0  0  0  0
 12 18  1  0  0  0  0
 14 17  1  0  0  0  0
 14 11  1  0  0  0  0
 16 14  1  0  0  0  0
 17 15  2  0  0  0  0
 18 19  1  1  0  0  0
 18 13  1  0  0  0  0
 19 20  1  0  0  0  0
 21 19  2  0  0  0  0
 22 30  1  0  0  0  0
 23 26  2  0  0  0  0
 24 23  1  0  0  0  0
 24 27  1  0  0  0  0
 25 28  1  0  0  0  0
 26 28  1  0  0  0  0
 27 25  2  0  0  0  0
 29 33  2  0  0  0  0
 30 24  2  0  0  0  0
 31 29  1  0  0  0  0
 32 30  1  0  0  0  0
 32 29  1  0  0  0  0
 33 27  1  0  0  0  0
M  END
>  <MODEL>
5

>  <REMARK>
 VINA RESULT:      -6.8      2.615      8.043
  Name = 
  4 active torsions:
  status: ('A' for Active; 'I' for Inactive)
    1  A    between atoms: C_12  and  C_32
    2  A    between atoms: C_18  and  C_24
    3  A    between atoms: C_23  and  N_30
    4  A    between atoms: C_26  and  N_30
                            x       y       z     vdW  Elec       q    Type
                         _______ _______ _______ _____ _____    ______ ____

>  <TORSDO>
F 4

$$$$
=
 OpenBabel11042422393D

 33 37  0  0  1  0  0  0  0  0999 V2000
  161.6840  206.8880  152.7560 N   0  0  0  0  0  2  0  0  0  0  0  0
  160.7320  210.0970  154.1580 C   0  0  0  0  0  3  0  0  0  0  0  0
  160.0820  208.3950  155.7800 C   0  0  0  0  0  3  0  0  0  0  0  0
  161.1340  207.7640  153.7170 C   0  0  0  0  0  0  0  0  0  0  0  0
  162.2070  207.7110  151.6640 C   0  0  2  0  0  3  0  0  0  0  0  0
  160.5730  207.3860  154.9350 C   0  0  0  0  0  3  0  0  0  0  0  0
  161.8430  209.1920  151.9940 C   0  0  2  0  0  3  0  0  0  0  0  0
  160.1630  209.7460  155.3920 C   0  0  0  0  0  3  0  0  0  0  0  0
  161.2100  209.0750  153.3350 C   0  0  0  0  0  0  0  0  0  0  0  0
  161.1520  203.6690  151.3200 C   0  0  0  0  0  3  0  0  0  0  0  0
  161.0900  205.4460  148.7490 C   0  0  0  0  0  3  0  0  0  0  0  0
  160.5080  202.8970  150.2260 C   0  0  0  0  0  2  0  0  0  0  0  0
  161.0510  204.2120  148.2430 C   0  0  0  0  0  3  0  0  0  0  0  0
  161.4380  205.8250  150.1000 N   0  0  0  0  0  0  0  0  0  0  0  0
  161.6180  208.0460  149.3690 O   0  0  0  0  0  0  0  0  0  0  0  0
  161.5420  204.9430  151.2420 C   0  0  0  0  0  3  0  0  0  0  0  0
  161.7180  207.2220  150.3210 C   0  0  0  0  0  0  0  0  0  0  0  0
  161.3780  202.9710  148.9940 C   0  0  2  0  0  3  0  0  0  0  0  0
  161.1640  201.7730  148.1280 C   0  0  0  0  0  0  0  0  0  0  0  0
  161.2210  200.6100  148.6110 O   0  0  0  0  0  1  0  0  0  0  0  0
  160.8940  201.9440  146.7770 O   0  0  0  0  0  0  0  0  0  0  0  0
  160.8880  209.7490  151.0400 N   0  0  0  0  0  2  0  0  0  0  0  0
  159.6250  212.0510  151.9660 N   0  0  0  0  0  0  0  0  0  0  0  0
  160.4510  212.0870  150.7990 C   0  0  0  0  0  0  0  0  0  0  0  0
  160.0350  214.4320  150.5480 N   0  0  0  0  0  0  0  0  0  0  0  0
  158.9740  213.1030  152.3630 C   0  0  0  0  0  3  0  0  0  0  0  0
  160.6730  213.3770  150.1380 C   0  0  0  0  0  0  0  0  0  0  0  0
  158.9970  214.3990  151.5860 C   0  0  0  0  0  2  0  0  0  0  0  0
  162.2670  212.4390  148.6360 C   0  0  0  0  0  0  0  0  0  0  0  0
  161.0880  210.9930  150.3620 C   0  0  0  0  0  0  0  0  0  0  0  0
  163.2630  212.6090  147.5470 C   0  0  0  0  0  1  0  0  0  0  0  0
  161.9520  211.0430  149.1190 C   0  0  0  0  0  2  0  0  0  0  0  0
  161.6440  213.4820  149.0950 N   0  0  0  0  0  0  0  0  0  0  0  0
  1  4  1  0  0  0  0
  2  8  1  0  0  0  0
  4  6  2  0  0  0  0
  5 17  1  6  0  0  0
  5  7  1  0  0  0  0
  5  1  1  0  0  0  0
  6  3  1  0  0  0  0
  7 22  1  6  0  0  0
  7  9  1  0  0  0  0
  8  3  2  0  0  0  0
  9  4  1  0  0  0  0
  9  2  2  0  0  0  0
 11 14  1  0  0  0  0
 12 10  1  0  0  0  0
 13 11  2  0  0  0  0
 13 18  1  0  0  0  0
 14 17  1  0  0  0  0
 14 16  1  0  0  0  0
 15 17  2  0  0  0  0
 16 10  2  0  0  0  0
 18 19  1  6  0  0  0
 18 12  1  0  0  0  0
 19 20  1  0  0  0  0
 21 19  2  0  0  0  0
 23 26  2  0  0  0  0
 24 23  1  0  0  0  0
 25 28  1  0  0  0  0
 27 25  2  0  0  0  0
 27 24  1  0  0  0  0
 28 26  1  0  0  0  0
 29 33  2  0  0  0  0
 29 32  1  0  0  0  0
 30 24  2  0  0  0  0
 30 22  1  0  0  0  0
 31 29  1  0  0  0  0
 32 30  1  0  0  0  0
 33 27  1  0  0  0  0
M  END
>  <MODEL>
6

>  <REMARK>
 VINA RESULT:      -6.5      2.814      7.447
  Name = 
  4 active torsions:
  status: ('A' for Active; 'I' for Inactive)
    1  A    between atoms: C_12  and  C_32
    2  A    between atoms: C_18  and  C_24
    3  A    between atoms: C_23  and  N_30
    4  A    between atoms: C_26  and  N_30
                            x       y       z     vdW  Elec       q    Type
                         _______ _______ _______ _____ _____    ______ ____

>  <TORSDO>
F 4

$$$$
=
 OpenBabel11042422393D

 33 37  0  0  1  0  0  0  0  0999 V2000
  162.2910  210.2920  148.4000 N   0  0  0  0  0  2  0  0  0  0  0  0
  161.2640  213.6250  149.4050 C   0  0  0  0  0  3  0  0  0  0  0  0
  162.8130  213.8930  147.5390 C   0  0  0  0  0  3  0  0  0  0  0  0
  162.2630  211.7030  148.3520 C   0  0  0  0  0  0  0  0  0  0  0  0
  161.3650  209.8730  149.4540 C   0  0  2  0  0  3  0  0  0  0  0  0
  162.9690  212.5000  147.4530 C   0  0  0  0  0  3  0  0  0  0  0  0
  160.8210  211.1710  150.1260 C   0  0  2  0  0  3  0  0  0  0  0  0
  161.9620  214.4530  148.5110 C   0  0  0  0  0  3  0  0  0  0  0  0
  161.4390  212.2430  149.3010 C   0  0  0  0  0  0  0  0  0  0  0  0
  160.6300  205.7920  148.8440 C   0  0  0  0  0  3  0  0  0  0  0  0
  162.3030  206.6450  151.3440 C   0  0  0  0  0  3  0  0  0  0  0  0
  161.2050  204.5720  149.4690 C   0  0  0  0  0  2  0  0  0  0  0  0
  161.9750  205.3860  151.6380 C   0  0  0  0  0  3  0  0  0  0  0  0
  161.7220  207.4820  150.3180 N   0  0  0  0  0  0  0  0  0  0  0  0
  162.7680  209.3300  151.3130 O   0  0  0  0  0  0  0  0  0  0  0  0
  160.8760  207.0460  149.2280 C   0  0  0  0  0  3  0  0  0  0  0  0
  162.0120  208.8910  150.4000 C   0  0  0  0  0  0  0  0  0  0  0  0
  160.9170  204.5970  150.9510 C   0  0  2  0  0  3  0  0  0  0  0  0
  160.8720  203.2080  151.5000 C   0  0  0  0  0  0  0  0  0  0  0  0
  160.8240  203.0080  152.7440 O   0  0  0  0  0  1  0  0  0  0  0  0
  160.8780  202.1270  150.6290 O   0  0  0  0  0  0  0  0  0  0  0  0
  161.2590  211.2970  151.5140 N   0  0  0  0  0  2  0  0  0  0  0  0
  158.9770  212.8880  151.6310 N   0  0  0  0  0  0  0  0  0  0  0  0
  159.2950  211.9820  152.6910 C   0  0  0  0  0  0  0  0  0  0  0  0
  157.3250  212.6470  153.8800 N   0  0  0  0  0  0  0  0  0  0  0  0
  157.9550  213.6860  151.7100 C   0  0  0  0  0  3  0  0  0  0  0  0
  158.3570  211.8610  153.8120 C   0  0  0  0  0  0  0  0  0  0  0  0
  157.0860  213.7530  152.9440 C   0  0  0  0  0  2  0  0  0  0  0  0
  159.5860  210.0550  154.7650 C   0  0  0  0  0  0  0  0  0  0  0  0
  160.3730  211.1900  152.6320 C   0  0  0  0  0  0  0  0  0  0  0  0
  159.7270  209.0030  155.8040 C   0  0  0  0  0  1  0  0  0  0  0  0
  160.7030  210.2430  153.7660 C   0  0  0  0  0  2  0  0  0  0  0  0
  158.5430  210.8290  154.7830 N   0  0  0  0  0  0  0  0  0  0  0  0
  1  5  1  0  0  0  0
  3  8  1  0  0  0  0
  4  1  1  0  0  0  0
  4  9  2  0  0  0  0
  5  7  1  0  0  0  0
  5 17  1  1  0  0  0
  6  3  2  0  0  0  0
  6  4  1  0  0  0  0
  7 22  1  1  0  0  0
  8  2  2  0  0  0  0
  9  2  1  0  0  0  0
  9  7  1  0  0  0  0
 10 16  2  0  0  0  0
 10 12  1  0  0  0  0
 11 13  2  0  0  0  0
 12 18  1  0  0  0  0
 14 17  1  0  0  0  0
 14 11  1  0  0  0  0
 16 14  1  0  0  0  0
 17 15  2  0  0  0  0
 18 19  1  1  0  0  0
 18 13  1  0  0  0  0
 19 20  1  0  0  0  0
 21 19  2  0  0  0  0
 22 30  1  0  0  0  0
 23 26  2  0  0  0  0
 23 24  1  0  0  0  0
 24 27  1  0  0  0  0
 26 28  1  0  0  0  0
 27 25  2  0  0  0  0
 27 33  1  0  0  0  0
 28 25  1  0  0  0  0
 29 33  2  0  0  0  0
 29 31  1  0  0  0  0
 30 24  2  0  0  0  0
 30 32  1  0  0  0  0
 32 29  1  0  0  0  0
M  END
>  <MODEL>
7

>  <REMARK>
 VINA RESULT:      -5.9      2.692      7.845
  Name = 
  4 active torsions:
  status: ('A' for Active; 'I' for Inactive)
    1  A    between atoms: C_12  and  C_32
    2  A    between atoms: C_18  and  C_24
    3  A    between atoms: C_23  and  N_30
    4  A    between atoms: C_26  and  N_30
                            x       y       z     vdW  Elec       q    Type
                         _______ _______ _______ _____ _____    ______ ____

>  <TORSDO>
F 4

$$$$
=
 OpenBabel11042422393D

 33 37  0  0  1  0  0  0  0  0999 V2000
  161.7330  207.4010  153.0390 N   0  0  0  0  0  2  0  0  0  0  0  0
  160.1800  209.3070  155.7090 C   0  0  0  0  0  3  0  0  0  0  0  0
  159.6800  206.9570  156.1330 C   0  0  0  0  0  3  0  0  0  0  0  0
  160.9770  207.5930  154.2170 C   0  0  0  0  0  0  0  0  0  0  0  0
  162.2030  208.7170  152.6030 C   0  0  2  0  0  3  0  0  0  0  0  0
  160.3880  206.5860  154.9790 C   0  0  0  0  0  3  0  0  0  0  0  0
  161.5870  209.7680  153.5770 C   0  0  2  0  0  3  0  0  0  0  0  0
  159.5770  208.3140  156.4970 C   0  0  0  0  0  3  0  0  0  0  0  0
  160.8760  208.9120  154.5640 C   0  0  0  0  0  0  0  0  0  0  0  0
  161.3590  205.3790  150.2130 C   0  0  0  0  0  3  0  0  0  0  0  0
  161.5470  208.1810  148.8410 C   0  0  0  0  0  3  0  0  0  0  0  0
  160.8870  205.2520  148.8100 C   0  0  0  0  0  2  0  0  0  0  0  0
  161.6200  207.3490  147.8000 C   0  0  0  0  0  3  0  0  0  0  0  0
  161.7100  207.8470  150.2380 N   0  0  0  0  0  0  0  0  0  0  0  0
  161.8910  210.1380  150.7040 O   0  0  0  0  0  0  0  0  0  0  0  0
  161.7050  206.5200  150.8130 C   0  0  0  0  0  3  0  0  0  0  0  0
  161.9050  208.9530  151.1420 C   0  0  0  0  0  0  0  0  0  0  0  0
  161.9000  205.8910  147.8910 C   0  0  2  0  0  3  0  0  0  0  0  0
  161.8420  205.2700  146.5340 C   0  0  0  0  0  0  0  0  0  0  0  0
  162.3900  205.8280  145.5450 O   0  0  0  0  0  0  0  0  0  0  0  0
  161.1810  204.0610  146.3610 O   0  0  0  0  0  1  0  0  0  0  0  0
  160.6340  210.6480  152.9050 N   0  0  0  0  0  2  0  0  0  0  0  0
  158.8070  212.2070  151.4960 N   0  0  0  0  0  0  0  0  0  0  0  0
  159.1880  212.5500  152.8310 C   0  0  0  0  0  0  0  0  0  0  0  0
  157.7360  214.4530  152.7810 N   0  0  0  0  0  0  0  0  0  0  0  0
  158.0120  212.9690  150.8050 C   0  0  0  0  0  3  0  0  0  0  0  0
  158.5450  213.7040  153.4680 C   0  0  0  0  0  0  0  0  0  0  0  0
  157.4980  214.2840  151.3420 C   0  0  0  0  0  2  0  0  0  0  0  0
  159.5880  213.2490  155.5610 C   0  0  0  0  0  0  0  0  0  0  0  0
  160.0420  211.7910  153.5290 C   0  0  0  0  0  0  0  0  0  0  0  0
  159.7670  213.5580  157.0030 C   0  0  0  0  0  1  0  0  0  0  0  0
  160.4440  212.1720  154.9380 C   0  0  0  0  0  2  0  0  0  0  0  0
  158.7540  213.9550  154.8580 N   0  0  0  0  0  0  0  0  0  0  0  0
  1  4  1  0  0  0  0
  2  8  1  0  0  0  0
  3  8  2  0  0  0  0
  4  9  1  0  0  0  0
  4  6  2  0  0  0  0
  5 17  1  6  0  0  0
  5  1  1  0  0  0  0
  5  7  1  0  0  0  0
  6  3  1  0  0  0  0
  7 22  1  6  0  0  0
  7  9  1  0  0  0  0
  9  2  2  0  0  0  0
 10 16  2  0  0  0  0
 11 14  1  0  0  0  0
 12 10  1  0  0  0  0
 13 18  1  0  0  0  0
 13 11  2  0  0  0  0
 14 16  1  0  0  0  0
 14 17  1  0  0  0  0
 15 17  2  0  0  0  0
 18 19  1  6  0  0  0
 18 12  1  0  0  0  0
 20 19  2  0  0  0  0
 21 19  1  0  0  0  0
 22 30  1  0  0  0  0
 23 24  1  0  0  0  0
 24 27  1  0  0  0  0
 24 30  2  0  0  0  0
 25 27  2  0  0  0  0
 26 28  1  0  0  0  0
 26 23  2  0  0  0  0
 27 33  1  0  0  0  0
 28 25  1  0  0  0  0
 29 31  1  0  0  0  0
 30 32  1  0  0  0  0
 32 29  1  0  0  0  0
 33 29  2  0  0  0  0
M  END
>  <MODEL>
8

>  <REMARK>
 VINA RESULT:      -5.9      2.901      6.794
  Name = 
  4 active torsions:
  status: ('A' for Active; 'I' for Inactive)
    1  A    between atoms: C_12  and  C_32
    2  A    between atoms: C_18  and  C_24
    3  A    between atoms: C_23  and  N_30
    4  A    between atoms: C_26  and  N_30
                            x       y       z     vdW  Elec       q    Type
                         _______ _______ _______ _____ _____    ______ ____

>  <TORSDO>
F 4

$$$$
=
 OpenBabel11042422393D

 33 37  0  0  1  0  0  0  0  0999 V2000
  162.0790  207.8420  152.9610 N   0  0  0  0  0  2  0  0  0  0  0  0
  159.6930  209.0590  155.4110 C   0  0  0  0  0  3  0  0  0  0  0  0
  160.0620  206.6960  155.8930 C   0  0  0  0  0  3  0  0  0  0  0  0
  161.2010  207.7510  154.0630 C   0  0  0  0  0  0  0  0  0  0  0  0
  162.0670  209.2350  152.5080 C   0  0  2  0  0  3  0  0  0  0  0  0
  160.9600  206.6040  154.8180 C   0  0  0  0  0  3  0  0  0  0  0  0
  161.0190  209.9900  153.3820 C   0  0  2  0  0  3  0  0  0  0  0  0
  159.4310  207.9210  156.1890 C   0  0  0  0  0  3  0  0  0  0  0  0
  160.5880  208.9410  154.3450 C   0  0  0  0  0  0  0  0  0  0  0  0
  161.1490  205.7050  150.4430 C   0  0  0  0  0  3  0  0  0  0  0  0
  161.5310  208.3350  148.7970 C   0  0  0  0  0  3  0  0  0  0  0  0
  160.7250  205.4520  149.0410 C   0  0  0  0  0  2  0  0  0  0  0  0
  161.6020  207.3950  147.8520 C   0  0  0  0  0  3  0  0  0  0  0  0
  161.6230  208.1440  150.2260 N   0  0  0  0  0  0  0  0  0  0  0  0
  161.9010  210.4600  150.4610 O   0  0  0  0  0  0  0  0  0  0  0  0
  161.5280  206.8860  150.9350 C   0  0  0  0  0  3  0  0  0  0  0  0
  161.8380  209.3290  151.0190 C   0  0  0  0  0  0  0  0  0  0  0  0
  161.8050  205.9440  148.1060 C   0  0  2  0  0  3  0  0  0  0  0  0
  161.7680  205.1860  146.8190 C   0  0  0  0  0  0  0  0  0  0  0  0
  161.4710  203.9610  146.8000 O   0  0  0  0  0  1  0  0  0  0  0  0
  162.0600  205.8410  145.6300 O   0  0  0  0  0  0  0  0  0  0  0  0
  159.8740  210.4450  152.5970 N   0  0  0  0  0  2  0  0  0  0  0  0
  160.2850  211.8990  154.9360 N   0  0  0  0  0  0  0  0  0  0  0  0
  159.4640  212.4170  153.8860 C   0  0  0  0  0  0  0  0  0  0  0  0
  159.0520  214.4040  155.1560 N   0  0  0  0  0  0  0  0  0  0  0  0
  160.4240  212.5370  156.0600 C   0  0  0  0  0  3  0  0  0  0  0  0
  158.8970  213.7600  154.0390 C   0  0  0  0  0  0  0  0  0  0  0  0
  159.6800  213.8200  156.3480 C   0  0  0  0  0  2  0  0  0  0  0  0
  158.0330  213.7490  151.8180 C   0  0  0  0  0  0  0  0  0  0  0  0
  159.2840  211.7400  152.7440 C   0  0  0  0  0  0  0  0  0  0  0  0
  157.3420  214.4470  150.7040 C   0  0  0  0  0  1  0  0  0  0  0  0
  158.4040  212.2960  151.6440 C   0  0  0  0  0  2  0  0  0  0  0  0
  158.2400  214.3830  152.9330 N   0  0  0  0  0  0  0  0  0  0  0  0
  1  4  1  0  0  0  0
  2  8  1  0  0  0  0
  3  8  2  0  0  0  0
  4  9  1  0  0  0  0
  4  6  2  0  0  0  0
  5 17  1  6  0  0  0
  5  1  1  0  0  0  0
  5  7  1  0  0  0  0
  6  3  1  0  0  0  0
  7 22  1  6  0  0  0
  7  9  1  0  0  0  0
  9  2  2  0  0  0  0
 10 16  2  0  0  0  0
 11 14  1  0  0  0  0
 12 10  1  0  0  0  0
 13 18  1  0  0  0  0
 13 11  2  0  0  0  0
 14 16  1  0  0  0  0
 14 17  1  0  0  0  0
 15 17  2  0  0  0  0
 18 19  1  6  0  0  0
 18 12  1  0  0  0  0
 20 19  1  0  0  0  0
 21 19  2  0  0  0  0
 22 30  1  0  0  0  0
 23 26  2  0  0  0  0
 24 27  1  0  0  0  0
 24 23  1  0  0  0  0
 25 28  1  0  0  0  0
 26 28  1  0  0  0  0
 27 25  2  0  0  0  0
 29 33  2  0  0  0  0
 30 24  2  0  0  0  0
 31 29  1  0  0  0  0
 32 29  1  0  0  0  0
 32 30  1  0  0  0  0
 33 27  1  0  0  0  0
M  END
>  <MODEL>
9

>  <REMARK>
 VINA RESULT:      -5.1      2.931      7.075
  Name = 
  4 active torsions:
  status: ('A' for Active; 'I' for Inactive)
    1  A    between atoms: C_12  and  C_32
    2  A    between atoms: C_18  and  C_24
    3  A    between atoms: C_23  and  N_30
    4  A    between atoms: C_26  and  N_30
                            x       y       z     vdW  Elec       q    Type
                         _______ _______ _______ _____ _____    ______ ____

>  <TORSDO>
F 4

$$$$
