=
 OpenBabel11042423033D

 55 61  0  0  1  0  0  0  0  0999 V2000
  161.7240  207.7870  150.8000 C   0  0  0  0  0  3  0  0  0  0  0  0
  160.8150  208.9320  154.7540 C   0  0  0  0  0  0  0  0  0  0  0  0
  161.5010  207.2580  153.1390 N   0  0  0  0  0  0  0  0  0  0  0  0
  161.0920  209.5340  152.3790 C   0  0  0  0  0  0  0  0  0  0  0  0
  160.0520  211.5890  155.3290 C   0  0  0  0  0  3  0  0  0  0  0  0
  161.2060  207.6100  154.4310 C   0  0  0  0  0  0  0  0  0  0  0  0
  160.7640  209.9010  153.7120 C   0  0  0  0  0  0  0  0  0  0  0  0
  161.6890  208.6810  149.7430 C   0  0  0  0  0  0  0  0  0  0  0  0
  161.0740  210.4580  151.2880 C   0  0  0  0  0  0  0  0  0  0  0  0
  161.3030  206.7390  155.3420 O   0  0  0  0  0  0  0  0  0  0  0  0
  161.3690  210.0120  149.9920 C   0  0  0  0  0  3  0  0  0  0  0  0
  161.4460  208.1810  152.1220 C   0  0  0  0  0  0  0  0  0  0  0  0
  160.4890  208.4110  157.2600 C   0  0  0  0  0  1  0  0  0  0  0  0
  161.9270  205.9000  152.8610 C   0  0  0  0  0  0  0  0  0  0  0  0
  163.0270  205.6980  152.2760 O   0  0  0  0  0  0  0  0  0  0  0  0
  160.4770  209.3340  156.0840 C   0  0  0  0  0  0  0  0  0  0  0  0
  160.1030  210.6490  156.3480 C   0  0  0  0  0  3  0  0  0  0  0  0
  160.3780  211.2150  154.0310 C   0  0  0  0  0  3  0  0  0  0  0  0
  161.9450  208.1950  148.4200 N   0  0  0  0  0  2  0  0  0  0  0  0
  161.3010  207.0830  147.7890 C   0  0  0  0  0  0  0  0  0  0  0  0
  160.2750  206.5570  148.2930 O   0  0  0  0  0  0  0  0  0  0  0  0
  164.2980  203.8930  145.9570 O   0  0  0  0  0  0  0  0  0  0  0  0
  159.6110  206.3600  145.6630 O   0  0  0  0  0  0  0  0  0  0  0  0
  161.8350  206.5490  146.4960 C   0  0  1  0  0  3  0  0  0  0  0  0
  162.9180  205.5970  146.7580 N   0  0  0  0  0  2  0  0  0  0  0  0
  161.0650  204.7600  144.7230 C   0  0  0  0  0  2  0  0  0  0  0  0
  163.3220  204.6640  145.7550 C   0  0  0  0  0  0  0  0  0  0  0  0
  160.7540  205.9160  145.6470 C   0  0  0  0  0  0  0  0  0  0  0  0
  162.5670  204.6070  144.4630 C   0  0  0  0  0  2  0  0  0  0  0  0
  160.7760  203.7370  152.1580 C   0  0  2  0  0  3  0  0  0  0  0  0
  159.8550  204.7160  152.5820 O   0  0  0  0  0  0  0  0  0  0  0  0
  161.0920  204.7080  153.2590 C   0  0  2  0  0  3  0  0  0  0  0  0
  161.2750  204.1070  150.7620 C   0  0  0  0  0  2  0  0  0  0  0  0
  161.4410  203.3570  148.4140 C   0  0  0  0  0  1  0  0  0  0  0  0
  160.6530  203.2180  149.7000 C   0  0  0  0  0  3  0  0  0  0  0  0
  160.6850  201.7690  150.1420 C   0  0  0  0  0  1  0  0  0  0  0  0
  160.7760  211.8130  151.4910 O   0  0  0  0  0  0  0  0  0  0  0  0
  160.7510  212.7720  150.4380 C   0  0  0  0  0  2  0  0  0  0  0  0
  159.3810  213.4160  150.3560 C   0  0  0  0  0  2  0  0  0  0  0  0
  159.3360  214.4010  149.2010 C   0  0  0  0  0  2  0  0  0  0  0  0
  160.6710  213.2150  144.4930 N   0  0  0  0  0  0  0  0  0  0  0  0
  159.1490  213.6780  147.9480 N   0  0  0  0  0  2  0  0  0  0  0  0
  160.1070  213.6810  146.8860 C   0  0  0  0  0  0  0  0  0  0  0  0
  158.7680  212.2850  145.5130 O   0  0  0  0  0  0  0  0  0  0  0  0
  161.2580  214.2790  147.0270 N   0  0  0  0  0  0  0  0  0  0  0  0
  159.7880  213.0150  145.6120 C   0  0  0  0  0  0  0  0  0  0  0  0
  161.6950  214.2520  144.5960 C   0  0  0  0  0  2  0  0  0  0  0  0
  162.3060  214.2310  145.9990 C   0  0  0  0  0  2  0  0  0  0  0  0
  161.9980  212.2420  142.6530 C   0  0  0  0  0  2  0  0  0  0  0  0
  160.6030  212.4100  143.2750 C   0  0  0  0  0  3  0  0  0  0  0  0
  160.7310  210.7430  139.1800 Cl  0  0  0  0  0  0  0  0  0  0  0  0
  161.9400  211.8310  141.1770 C   0  0  0  0  0  2  0  0  0  0  0  0
  160.6420  211.2470  140.8450 N   0  0  0  0  0  0  0  0  0  0  0  0
  159.6360  212.3070  140.9080 C   0  0  0  0  0  2  0  0  0  0  0  0
  159.5790  212.9840  142.2880 C   0  0  0  0  0  2  0  0  0  0  0  0
  1 12  1  0  0  0  0
  2 16  1  0  0  0  0
  3  6  1  0  0  0  0
  4  7  1  0  0  0  0
  5 17  1  0  0  0  0
  6  2  1  0  0  0  0
  6 10  2  0  0  0  0
  7 18  1  0  0  0  0
  7  2  2  0  0  0  0
  8 11  1  0  0  0  0
  8  1  2  0  0  0  0
  9 37  1  0  0  0  0
  9  4  1  0  0  0  0
 11  9  2  0  0  0  0
 12  4  2  0  0  0  0
 12  3  1  0  0  0  0
 14  3  1  0  0  0  0
 15 14  2  0  0  0  0
 16 17  2  0  0  0  0
 16 13  1  0  0  0  0
 18  5  2  0  0  0  0
 19  8  1  0  0  0  0
 20 21  2  0  0  0  0
 20 19  1  0  0  0  0
 24 25  1  0  0  0  0
 24 20  1  1  0  0  0
 26 28  1  0  0  0  0
 27 22  2  0  0  0  0
 27 25  1  0  0  0  0
 28 23  2  0  0  0  0
 28 24  1  0  0  0  0
 29 26  1  0  0  0  0
 29 27  1  0  0  0  0
 30 33  1  6  0  0  0
 30 31  1  0  0  0  0
 30 32  1  0  0  0  0
 31 32  1  0  0  0  0
 32 14  1  6  0  0  0
 34 35  1  0  0  0  0
 35 36  1  0  0  0  0
 35 33  1  0  0  0  0
 38 37  1  0  0  0  0
 39 38  1  0  0  0  0
 40 39  1  0  0  0  0
 41 47  1  0  0  0  0
 41 46  1  0  0  0  0
 42 40  1  0  0  0  0
 43 45  2  0  0  0  0
 43 42  1  0  0  0  0
 44 46  2  0  0  0  0
 46 43  1  0  0  0  0
 47 48  1  0  0  0  0
 48 45  1  0  0  0  0
 49 50  1  0  0  0  0
 50 41  1  0  0  0  0
 51 53  1  0  0  0  0
 52 49  1  0  0  0  0
 53 54  1  0  0  0  0
 53 52  1  0  0  0  0
 54 55  1  0  0  0  0
 55 50  1  0  0  0  0
M  END
>  <MODEL>
1

>  <REMARK>
 VINA RESULT:      -7.5      0.000      0.000
  Name = 
  11 active torsions:
  status: ('A' for Active; 'I' for Inactive)
    1  A    between atoms: C_3  and  C_23
    2  A    between atoms: C_3  and  C_37
    3  A    between atoms: N_4  and  C_21
    4  A    between atoms: C_6  and  C_25
    5  A    between atoms: C_7  and  N_17
    6  A    between atoms: C_10  and  O_35
    7  A    between atoms: C_10  and  C_52
    8  A    between atoms: N_20  and  C_36
    9  A    between atoms: C_22  and  O_35
   10  A    between atoms: C_36  and  C_52
   11  A    between atoms: C_39  and  C_51
                            x       y       z     vdW  Elec       q    Type
                         _______ _______ _______ _____ _____    ______ ____

>  <TORSDO>
F 11

$$$$
