=
 OpenBabel11052410503D

 28 31  0  0  1  0  0  0  0  0999 V2000
  161.0630  205.9970  150.0130 C   0  0  0  0  0  0  0  0  0  0  0  0
  162.2380  206.3050  152.0450 O   0  0  0  0  0  1  0  0  0  0  0  0
  161.5270  206.8230  150.9640 C   0  0  0  0  0  0  0  0  0  0  0  0
  160.9030  201.3000  149.4020 C   0  0  0  0  0  2  0  0  0  0  0  0
  161.5820  202.4800  148.7000 C   0  0  0  0  0  2  0  0  0  0  0  0
  161.3600  204.5250  150.1060 C   0  0  0  0  0  3  0  0  0  0  0  0
  161.2310  202.4980  151.6270 C   0  0  0  0  0  2  0  0  0  0  0  0
  160.8300  203.7910  148.8760 C   0  0  0  0  0  2  0  0  0  0  0  0
  160.8300  203.9530  151.4210 C   0  0  0  0  0  2  0  0  0  0  0  0
  160.3310  201.6000  150.7900 C   0  0  0  0  0  2  0  0  0  0  0  0
  162.3230  209.0880  151.6760 C   0  0  0  0  0  2  0  0  0  0  0  0
  160.2390  210.1030  152.4580 N   0  0  0  0  0  0  0  0  0  0  0  0
  161.0670  208.2290  153.6470 C   0  0  0  0  0  3  0  0  0  0  0  0
  160.4250  209.1020  154.4170 C   0  0  0  0  0  0  0  0  0  0  0  0
  160.9710  208.8670  152.3090 C   0  0  2  0  0  0  0  0  0  0  0  0
  159.9300  210.2220  153.6830 N   0  0  0  0  0  0  0  0  0  0  0  0
  161.2480  208.3020  150.9230 C   0  0  2  0  0  3  0  0  0  0  0  0
  160.2060  208.9190  155.8810 C   0  0  0  0  0  2  0  0  0  0  0  0
  160.5040  206.8600  157.2600 C   0  0  0  0  0  1  0  0  0  0  0  0
  159.6720  207.5270  156.1800 C   0  0  0  0  0  2  0  0  0  0  0  0
  160.2880  206.5220  148.9250 N   0  0  0  0  0  2  0  0  0  0  0  0
  160.8830  207.0870  147.7890 N   0  0  0  0  0  2  0  0  0  0  0  0
  162.0000  204.7400  144.5010 N   0  0  0  0  0  0  0  0  0  0  0  0
  160.4260  206.2090  145.5360 C   0  0  0  0  0  3  0  0  0  0  0  0
  162.8170  204.8050  145.5870 C   0  0  0  0  0  3  0  0  0  0  0  0
  162.4570  205.5840  146.6880 C   0  0  0  0  0  3  0  0  0  0  0  0
  160.8220  205.4190  144.4540 C   0  0  0  0  0  3  0  0  0  0  0  0
  161.2520  206.2910  146.6640 C   0  0  0  0  0  0  0  0  0  0  0  0
  1  6  1  0  0  0  0
  1  3  2  0  0  0  0
  3  2  1  0  0  0  0
  4 10  1  0  0  0  0
  5  8  1  0  0  0  0
  5  4  1  0  0  0  0
  6  9  1  0  0  0  0
  8  6  1  0  0  0  0
  9  7  1  0  0  0  0
 10  7  1  0  0  0  0
 12 16  2  0  0  0  0
 13 14  2  0  0  0  0
 14 18  1  0  0  0  0
 15 11  1  1  0  0  0
 15 12  1  0  0  0  0
 15 13  1  0  0  0  0
 16 14  1  0  0  0  0
 17  3  1  1  0  0  0
 17 11  1  0  0  0  0
 17 15  1  0  0  0  0
 18 20  1  0  0  0  0
 20 19  1  0  0  0  0
 21  1  1  0  0  0  0
 22 21  1  0  0  0  0
 23 25  1  0  0  0  0
 24 28  2  0  0  0  0
 25 26  2  0  0  0  0
 27 23  2  0  0  0  0
 27 24  1  0  0  0  0
 28 26  1  0  0  0  0
 28 22  1  0  0  0  0
M  END
>  <MODEL>
1

>  <REMARK>
 VINA RESULT:      -8.6      0.000      0.000
  Name = 
  7 active torsions:
  status: ('A' for Active; 'I' for Inactive)
    1  A    between atoms: N_2  and  N_15
    2  A    between atoms: N_2  and  C_25
    3  A    between atoms: C_7  and  C_25
    4  A    between atoms: C_13  and  C_14
    5  A    between atoms: C_13  and  C_27
    6  A    between atoms: N_15  and  C_19
    7  A    between atoms: C_22  and  C_28
                            x       y       z     vdW  Elec       q    Type
                         _______ _______ _______ _____ _____    ______ ____

>  <TORSDO>
F 7

$$$$
=
 OpenBabel11052410503D

 28 31  0  0  1  0  0  0  0  0999 V2000
  161.5290  208.4420  150.3940 C   0  0  0  0  0  0  0  0  0  0  0  0
  160.6470  206.2510  150.2230 O   0  0  0  0  0  1  0  0  0  0  0  0
  161.3680  207.3140  149.6830 C   0  0  0  0  0  0  0  0  0  0  0  0
  160.3410  209.9470  154.7280 C   0  0  0  0  0  2  0  0  0  0  0  0
  159.8660  210.2210  153.2980 C   0  0  0  0  0  2  0  0  0  0  0  0
  160.8840  208.5560  151.7490 C   0  0  0  0  0  3  0  0  0  0  0  0
  160.7810  207.5260  154.0660 C   0  0  0  0  0  2  0  0  0  0  0  0
  160.9530  209.9950  152.2560 C   0  0  0  0  0  2  0  0  0  0  0  0
  161.4960  207.5470  152.7210 C   0  0  0  0  0  2  0  0  0  0  0  0
  161.2340  208.7140  154.9010 C   0  0  0  0  0  2  0  0  0  0  0  0
  160.9490  206.8360  147.2600 C   0  0  0  0  0  2  0  0  0  0  0  0
  162.7230  205.2220  146.7770 N   0  0  0  0  0  2  0  0  0  0  0  0
  161.0450  204.5860  148.3250 C   0  0  0  0  0  2  0  0  0  0  0  0
  161.5180  203.5700  147.6120 C   0  0  0  0  0  0  0  0  0  0  0  0
  161.8280  205.7310  147.7910 C   0  0  2  0  0  0  0  0  0  0  0  0
  162.5310  203.9710  146.6880 N   0  0  0  0  0  0  0  0  0  0  0  0
  162.0010  207.1450  148.3270 C   0  0  2  0  0  3  0  0  0  0  0  0
  161.0760  202.1560  147.7800 C   0  0  0  0  0  2  0  0  0  0  0  0
  161.0170  201.3070  150.1270 C   0  0  0  0  0  1  0  0  0  0  0  0
  160.2260  201.9980  149.0310 C   0  0  0  0  0  2  0  0  0  0  0  0
  162.3130  209.5190  149.8610 N   0  0  0  0  0  2  0  0  0  0  0  0
  161.9480  210.2010  148.6920 N   0  0  0  0  0  2  0  0  0  0  0  0
  161.9090  214.3890  148.5290 N   0  0  0  0  0  0  0  0  0  0  0  0
  162.9050  212.3170  147.8800 C   0  0  0  0  0  3  0  0  0  0  0  0
  160.9670  213.7380  149.2640 C   0  0  0  0  0  3  0  0  0  0  0  0
  160.9690  212.3420  149.3260 C   0  0  0  0  0  3  0  0  0  0  0  0
  162.8700  213.7130  147.8430 C   0  0  0  0  0  3  0  0  0  0  0  0
  161.9450  211.6260  148.6300 C   0  0  0  0  0  0  0  0  0  0  0  0
  1  6  1  0  0  0  0
  3  2  1  0  0  0  0
  3  1  2  0  0  0  0
  4 10  1  0  0  0  0
  5  4  1  0  0  0  0
  6  8  1  0  0  0  0
  6  9  1  0  0  0  0
  7 10  1  0  0  0  0
  8  5  1  0  0  0  0
  9  7  1  0  0  0  0
 11 17  1  0  0  0  0
 12 15  1  0  0  0  0
 14 18  1  0  0  0  0
 14 13  1  0  0  0  0
 15 11  1  6  0  0  0
 15 13  1  0  0  0  0
 15 17  1  0  0  0  0
 16 12  1  0  0  0  0
 16 14  2  0  0  0  0
 17  3  1  1  0  0  0
 18 20  1  0  0  0  0
 20 19  1  0  0  0  0
 21  1  1  0  0  0  0
 22 21  1  0  0  0  0
 23 25  1  0  0  0  0
 24 28  2  0  0  0  0
 25 26  2  0  0  0  0
 27 24  1  0  0  0  0
 27 23  2  0  0  0  0
 28 22  1  0  0  0  0
 28 26  1  0  0  0  0
M  END
>  <MODEL>
2

>  <REMARK>
 VINA RESULT:      -8.2      2.835      7.214
  Name = 
  7 active torsions:
  status: ('A' for Active; 'I' for Inactive)
    1  A    between atoms: N_2  and  N_15
    2  A    between atoms: N_2  and  C_25
    3  A    between atoms: C_7  and  C_25
    4  A    between atoms: C_13  and  C_14
    5  A    between atoms: C_13  and  C_27
    6  A    between atoms: N_15  and  C_19
    7  A    between atoms: C_22  and  C_28
                            x       y       z     vdW  Elec       q    Type
                         _______ _______ _______ _____ _____    ______ ____

>  <TORSDO>
F 7

$$$$
=
 OpenBabel11052410503D

 28 31  0  0  1  0  0  0  0  0999 V2000
  161.2050  207.0040  150.2930 C   0  0  0  0  0  0  0  0  0  0  0  0
  161.4150  207.4820  152.6020 O   0  0  0  0  0  1  0  0  0  0  0  0
  161.5100  207.8740  151.2690 C   0  0  0  0  0  0  0  0  0  0  0  0
  161.3280  202.5180  151.8160 C   0  0  0  0  0  2  0  0  0  0  0  0
  161.0810  203.8900  152.4490 C   0  0  0  0  0  2  0  0  0  0  0  0
  160.8090  205.5990  150.6570 C   0  0  0  0  0  3  0  0  0  0  0  0
  160.1600  203.3380  149.7040 C   0  0  0  0  0  2  0  0  0  0  0  0
  161.7650  205.0240  151.7000 C   0  0  0  0  0  2  0  0  0  0  0  0
  160.6960  204.7310  149.4030 C   0  0  0  0  0  2  0  0  0  0  0  0
  161.2740  202.4790  150.2860 C   0  0  0  0  0  2  0  0  0  0  0  0
  162.4420  210.0030  152.2030 C   0  0  0  0  0  2  0  0  0  0  0  0
  160.9200  211.6560  151.2360 N   0  0  0  0  0  2  0  0  0  0  0  0
  160.0180  210.0910  152.7690 C   0  0  0  0  0  2  0  0  0  0  0  0
  159.4230  211.2780  152.8150 C   0  0  0  0  0  0  0  0  0  0  0  0
  161.0450  210.2990  151.7160 C   0  0  2  0  0  0  0  0  0  0  0  0
  159.9760  212.2070  151.8810 N   0  0  0  0  0  0  0  0  0  0  0  0
  161.9030  209.2950  150.9590 C   0  0  2  0  0  3  0  0  0  0  0  0
  158.2750  211.6010  153.7100 C   0  0  0  0  0  2  0  0  0  0  0  0
  159.6810  212.6500  155.4860 C   0  0  0  0  0  1  0  0  0  0  0  0
  158.6920  211.5420  155.1710 C   0  0  0  0  0  2  0  0  0  0  0  0
  161.2550  207.4200  148.9210 N   0  0  0  0  0  2  0  0  0  0  0  0
  162.2530  206.9770  148.0420 N   0  0  0  0  0  2  0  0  0  0  0  0
  161.3000  204.6940  144.6580 N   0  0  0  0  0  0  0  0  0  0  0  0
  162.7840  205.1580  146.4710 C   0  0  0  0  0  3  0  0  0  0  0  0
  160.4650  205.6960  145.0480 C   0  0  0  0  0  3  0  0  0  0  0  0
  160.7710  206.4630  146.1740 C   0  0  0  0  0  3  0  0  0  0  0  0
  162.4420  204.4130  145.3400 C   0  0  0  0  0  3  0  0  0  0  0  0
  161.9390  206.1940  146.8910 C   0  0  0  0  0  0  0  0  0  0  0  0
  1  6  1  0  0  0  0
  1  3  2  0  0  0  0
  3  2  1  0  0  0  0
  4  5  1  0  0  0  0
  6  8  1  0  0  0  0
  7 10  1  0  0  0  0
  8  5  1  0  0  0  0
  9  7  1  0  0  0  0
  9  6  1  0  0  0  0
 10  4  1  0  0  0  0
 12 15  1  0  0  0  0
 12 16  1  0  0  0  0
 13 14  1  0  0  0  0
 14 18  1  0  0  0  0
 15 11  1  1  0  0  0
 15 13  1  0  0  0  0
 16 14  2  0  0  0  0
 17  3  1  1  0  0  0
 17 15  1  0  0  0  0
 17 11  1  0  0  0  0
 18 20  1  0  0  0  0
 20 19  1  0  0  0  0
 21  1  1  0  0  0  0
 22 21  1  0  0  0  0
 23 25  2  0  0  0  0
 23 27  1  0  0  0  0
 24 28  1  0  0  0  0
 25 26  1  0  0  0  0
 26 28  2  0  0  0  0
 27 24  2  0  0  0  0
 28 22  1  0  0  0  0
M  END
>  <MODEL>
3

>  <REMARK>
 VINA RESULT:      -7.9      1.903      2.544
  Name = 
  7 active torsions:
  status: ('A' for Active; 'I' for Inactive)
    1  A    between atoms: N_2  and  N_15
    2  A    between atoms: N_2  and  C_25
    3  A    between atoms: C_7  and  C_25
    4  A    between atoms: C_13  and  C_14
    5  A    between atoms: C_13  and  C_27
    6  A    between atoms: N_15  and  C_19
    7  A    between atoms: C_22  and  C_28
                            x       y       z     vdW  Elec       q    Type
                         _______ _______ _______ _____ _____    ______ ____

>  <TORSDO>
F 7

$$$$
=
 OpenBabel11052410503D

 28 31  0  0  1  0  0  0  0  0999 V2000
  161.8890  208.6540  149.7360 C   0  0  0  0  0  0  0  0  0  0  0  0
  162.4320  210.7490  150.6960 O   0  0  0  0  0  1  0  0  0  0  0  0
  162.1370  209.9640  149.5830 C   0  0  0  0  0  0  0  0  0  0  0  0
  161.4790  205.6780  153.4010 C   0  0  0  0  0  2  0  0  0  0  0  0
  162.4820  205.8940  152.2640 C   0  0  0  0  0  2  0  0  0  0  0  0
  161.9810  208.0430  151.1080 C   0  0  0  0  0  3  0  0  0  0  0  0
  161.1080  208.1970  153.4860 C   0  0  0  0  0  2  0  0  0  0  0  0
  161.8550  206.5230  151.0280 C   0  0  0  0  0  2  0  0  0  0  0  0
  160.9590  208.6820  152.0490 C   0  0  0  0  0  2  0  0  0  0  0  0
  160.4810  206.8180  153.6250 C   0  0  0  0  0  2  0  0  0  0  0  0
  162.7370  211.9930  148.2420 C   0  0  0  0  0  2  0  0  0  0  0  0
  160.6310  212.4370  147.0780 N   0  0  0  0  0  2  0  0  0  0  0  0
  160.6510  212.6410  149.4390 C   0  0  0  0  0  2  0  0  0  0  0  0
  159.8170  213.4860  148.8430 C   0  0  0  0  0  0  0  0  0  0  0  0
  161.2310  211.9100  148.2820 C   0  0  2  0  0  0  0  0  0  0  0  0
  159.8150  213.3470  147.4210 N   0  0  0  0  0  0  0  0  0  0  0  0
  162.0490  210.6270  148.2330 C   0  0  2  0  0  3  0  0  0  0  0  0
  158.9450  214.4500  149.5730 C   0  0  0  0  0  2  0  0  0  0  0  0
  156.7090  213.3840  149.2640 C   0  0  0  0  0  1  0  0  0  0  0  0
  157.7980  213.7290  150.2630 C   0  0  0  0  0  2  0  0  0  0  0  0
  161.5370  207.8540  148.5990 N   0  0  0  0  0  2  0  0  0  0  0  0
  162.4860  207.1050  147.8890 N   0  0  0  0  0  2  0  0  0  0  0  0
  161.4460  203.5910  145.8550 N   0  0  0  0  0  0  0  0  0  0  0  0
  161.7460  204.7580  147.9170 C   0  0  0  0  0  3  0  0  0  0  0  0
  161.8170  204.6910  145.1460 C   0  0  0  0  0  3  0  0  0  0  0  0
  162.1650  205.8680  145.8120 C   0  0  0  0  0  3  0  0  0  0  0  0
  161.4050  203.6000  147.2150 C   0  0  0  0  0  3  0  0  0  0  0  0
  162.1310  205.9030  147.2080 C   0  0  0  0  0  0  0  0  0  0  0  0
  1  6  1  0  0  0  0
  3  1  2  0  0  0  0
  3  2  1  0  0  0  0
  4 10  1  0  0  0  0
  5  4  1  0  0  0  0
  6  9  1  0  0  0  0
  7 10  1  0  0  0  0
  8  6  1  0  0  0  0
  8  5  1  0  0  0  0
  9  7  1  0  0  0  0
 12 16  1  0  0  0  0
 12 15  1  0  0  0  0
 14 13  1  0  0  0  0
 14 18  1  0  0  0  0
 15 11  1  6  0  0  0
 15 13  1  0  0  0  0
 16 14  2  0  0  0  0
 17 11  1  0  0  0  0
 17 15  1  0  0  0  0
 17  3  1  1  0  0  0
 18 20  1  0  0  0  0
 19 20  1  0  0  0  0
 21  1  1  0  0  0  0
 22 21  1  0  0  0  0
 23 27  1  0  0  0  0
 25 26  1  0  0  0  0
 25 23  2  0  0  0  0
 26 28  2  0  0  0  0
 27 24  2  0  0  0  0
 28 22  1  0  0  0  0
 28 24  1  0  0  0  0
M  END
>  <MODEL>
4

>  <REMARK>
 VINA RESULT:      -7.5      3.583      5.201
  Name = 
  7 active torsions:
  status: ('A' for Active; 'I' for Inactive)
    1  A    between atoms: N_2  and  N_15
    2  A    between atoms: N_2  and  C_25
    3  A    between atoms: C_7  and  C_25
    4  A    between atoms: C_13  and  C_14
    5  A    between atoms: C_13  and  C_27
    6  A    between atoms: N_15  and  C_19
    7  A    between atoms: C_22  and  C_28
                            x       y       z     vdW  Elec       q    Type
                         _______ _______ _______ _____ _____    ______ ____

>  <TORSDO>
F 7

$$$$
=
 OpenBabel11052410503D

 28 31  0  0  1  0  0  0  0  0999 V2000
  161.9680  206.4810  149.4370 C   0  0  0  0  0  0  0  0  0  0  0  0
  162.1840  208.8350  149.3120 O   0  0  0  0  0  1  0  0  0  0  0  0
  162.0980  207.6630  150.0600 C   0  0  0  0  0  0  0  0  0  0  0  0
  160.4800  205.6310  145.0190 C   0  0  0  0  0  2  0  0  0  0  0  0
  160.2330  206.7110  146.0770 C   0  0  0  0  0  2  0  0  0  0  0  0
  161.8690  206.4460  147.9370 C   0  0  0  0  0  3  0  0  0  0  0  0
  162.8880  205.4540  145.8350 C   0  0  0  0  0  2  0  0  0  0  0  0
  160.4250  206.2070  147.5000 C   0  0  0  0  0  2  0  0  0  0  0  0
  162.8490  205.4250  147.3570 C   0  0  0  0  0  2  0  0  0  0  0  0
  161.6780  204.7140  145.2820 C   0  0  0  0  0  2  0  0  0  0  0  0
  160.8340  207.7060  152.2230 C   0  0  0  0  0  2  0  0  0  0  0  0
  161.9570  209.5340  153.3970 N   0  0  0  0  0  0  0  0  0  0  0  0
  160.7620  210.0620  151.4200 C   0  0  0  0  0  3  0  0  0  0  0  0
  160.7460  211.0370  152.3240 C   0  0  0  0  0  0  0  0  0  0  0  0
  161.5680  209.0190  152.1050 C   0  0  2  0  0  0  0  0  0  0  0  0
  161.4740  210.7030  153.5060 N   0  0  0  0  0  0  0  0  0  0  0  0
  162.2120  207.7520  151.5590 C   0  0  2  0  0  3  0  0  0  0  0  0
  160.0780  212.3540  152.1170 C   0  0  0  0  0  2  0  0  0  0  0  0
  158.2740  212.4550  153.8400 C   0  0  0  0  0  1  0  0  0  0  0  0
  158.5820  212.2500  152.3680 C   0  0  0  0  0  2  0  0  0  0  0  0
  161.9290  205.2690  150.2030 N   0  0  0  0  0  2  0  0  0  0  0  0
  160.8000  204.4390  150.2330 N   0  0  0  0  0  2  0  0  0  0  0  0
  160.8630  200.5780  148.6030 N   0  0  0  0  0  0  0  0  0  0  0  0
  160.8310  202.9440  148.2780 C   0  0  0  0  0  3  0  0  0  0  0  0
  160.8520  200.7350  149.9540 C   0  0  0  0  0  3  0  0  0  0  0  0
  160.8310  202.0160  150.5100 C   0  0  0  0  0  3  0  0  0  0  0  0
  160.8520  201.6470  147.7610 C   0  0  0  0  0  3  0  0  0  0  0  0
  160.8200  203.1300  149.6660 C   0  0  0  0  0  0  0  0  0  0  0  0
  1  3  2  0  0  0  0
  1 21  1  0  0  0  0
  2  3  1  0  0  0  0
  4 10  1  0  0  0  0
  4  5  1  0  0  0  0
  5  8  1  0  0  0  0
  6  1  1  0  0  0  0
  7  9  1  0  0  0  0
  8  6  1  0  0  0  0
  9  6  1  0  0  0  0
 10  7  1  0  0  0  0
 12 16  2  0  0  0  0
 13 14  2  0  0  0  0
 14 16  1  0  0  0  0
 15 13  1  6  0  0  0
 15 11  1  0  0  0  0
 15 12  1  0  0  0  0
 17  3  1  6  0  0  0
 17 15  1  0  0  0  0
 17 11  1  0  0  0  0
 18 14  1  0  0  0  0
 18 20  1  0  0  0  0
 20 19  1  0  0  0  0
 21 22  1  0  0  0  0
 23 25  1  0  0  0  0
 24 28  2  0  0  0  0
 25 26  2  0  0  0  0
 27 24  1  0  0  0  0
 27 23  2  0  0  0  0
 28 22  1  0  0  0  0
 28 26  1  0  0  0  0
M  END
>  <MODEL>
5

>  <REMARK>
 VINA RESULT:      -7.3      2.363      4.377
  Name = 
  7 active torsions:
  status: ('A' for Active; 'I' for Inactive)
    1  A    between atoms: N_2  and  N_15
    2  A    between atoms: N_2  and  C_25
    3  A    between atoms: C_7  and  C_25
    4  A    between atoms: C_13  and  C_14
    5  A    between atoms: C_13  and  C_27
    6  A    between atoms: N_15  and  C_19
    7  A    between atoms: C_22  and  C_28
                            x       y       z     vdW  Elec       q    Type
                         _______ _______ _______ _____ _____    ______ ____

>  <TORSDO>
F 7

$$$$
=
 OpenBabel11052410503D

 28 31  0  0  1  0  0  0  0  0999 V2000
  161.7560  204.8930  149.3440 C   0  0  0  0  0  0  0  0  0  0  0  0
  162.2060  207.0860  150.1140 O   0  0  0  0  0  1  0  0  0  0  0  0
  161.9280  205.7440  150.3680 C   0  0  0  0  0  0  0  0  0  0  0  0
  160.6580  205.9510  144.8570 C   0  0  0  0  0  2  0  0  0  0  0  0
  160.4550  206.6080  146.2260 C   0  0  0  0  0  2  0  0  0  0  0  0
  161.8190  205.4140  147.9340 C   0  0  0  0  0  3  0  0  0  0  0  0
  162.9090  205.0730  145.6670 C   0  0  0  0  0  2  0  0  0  0  0  0
  160.4130  205.6040  147.3690 C   0  0  0  0  0  2  0  0  0  0  0  0
  162.6980  204.5110  147.0670 C   0  0  0  0  0  2  0  0  0  0  0  0
  161.6730  204.8050  144.8210 C   0  0  0  0  0  2  0  0  0  0  0  0
  160.4510  205.2480  152.3290 C   0  0  0  0  0  2  0  0  0  0  0  0
  161.7020  206.3000  154.1490 N   0  0  0  0  0  0  0  0  0  0  0  0
  160.8320  207.7060  152.4510 C   0  0  0  0  0  3  0  0  0  0  0  0
  160.8640  208.2810  153.6490 C   0  0  0  0  0  0  0  0  0  0  0  0
  161.3860  206.3580  152.7400 C   0  0  2  0  0  0  0  0  0  0  0  0
  161.3950  207.4210  154.6580 N   0  0  0  0  0  0  0  0  0  0  0  0
  161.8850  205.2720  151.7970 C   0  0  2  0  0  3  0  0  0  0  0  0
  160.4340  209.6840  153.9110 C   0  0  0  0  0  2  0  0  0  0  0  0
  159.1300  211.3240  152.5530 C   0  0  0  0  0  1  0  0  0  0  0  0
  160.3970  210.4920  152.6230 C   0  0  0  0  0  2  0  0  0  0  0  0
  161.5190  203.5020  149.6030 N   0  0  0  0  0  2  0  0  0  0  0  0
  160.4630  202.8000  149.0040 N   0  0  0  0  0  2  0  0  0  0  0  0
  161.1230  199.9840  145.9700 N   0  0  0  0  0  0  0  0  0  0  0  0
  161.3740  200.6410  148.2530 C   0  0  0  0  0  3  0  0  0  0  0  0
  160.4620  201.1370  145.6820 C   0  0  0  0  0  3  0  0  0  0  0  0
  160.2350  202.0830  146.6840 C   0  0  0  0  0  3  0  0  0  0  0  0
  161.5810  199.7190  147.2240 C   0  0  0  0  0  3  0  0  0  0  0  0
  160.6950  201.8340  147.9800 C   0  0  0  0  0  0  0  0  0  0  0  0
  1 21  1  0  0  0  0
  1  3  2  0  0  0  0
  2  3  1  0  0  0  0
  4  5  1  0  0  0  0
  5  8  1  0  0  0  0
  6  1  1  0  0  0  0
  7  9  1  0  0  0  0
  8  6  1  0  0  0  0
  9  6  1  0  0  0  0
 10  4  1  0  0  0  0
 10  7  1  0  0  0  0
 12 16  2  0  0  0  0
 13 15  1  0  0  0  0
 13 14  2  0  0  0  0
 14 18  1  0  0  0  0
 14 16  1  0  0  0  0
 15 11  1  1  0  0  0
 15 12  1  0  0  0  0
 17  3  1  6  0  0  0
 17 11  1  0  0  0  0
 17 15  1  0  0  0  0
 19 20  1  0  0  0  0
 20 18  1  0  0  0  0
 22 21  1  0  0  0  0
 23 27  1  0  0  0  0
 25 23  2  0  0  0  0
 25 26  1  0  0  0  0
 26 28  2  0  0  0  0
 27 24  2  0  0  0  0
 28 24  1  0  0  0  0
 28 22  1  0  0  0  0
M  END
>  <MODEL>
6

>  <REMARK>
 VINA RESULT:      -7.2      2.325      4.377
  Name = 
  7 active torsions:
  status: ('A' for Active; 'I' for Inactive)
    1  A    between atoms: N_2  and  N_15
    2  A    between atoms: N_2  and  C_25
    3  A    between atoms: C_7  and  C_25
    4  A    between atoms: C_13  and  C_14
    5  A    between atoms: C_13  and  C_27
    6  A    between atoms: N_15  and  C_19
    7  A    between atoms: C_22  and  C_28
                            x       y       z     vdW  Elec       q    Type
                         _______ _______ _______ _____ _____    ______ ____

>  <TORSDO>
F 7

$$$$
=
 OpenBabel11052410503D

 28 31  0  0  1  0  0  0  0  0999 V2000
  161.3280  208.0400  152.6960 C   0  0  0  0  0  0  0  0  0  0  0  0
  162.3750  205.9170  152.6700 O   0  0  0  0  0  1  0  0  0  0  0  0
  161.8060  206.9970  151.9990 C   0  0  0  0  0  0  0  0  0  0  0  0
  160.0560  208.0090  157.2610 C   0  0  0  0  0  2  0  0  0  0  0  0
  160.2540  206.9580  156.1650 C   0  0  0  0  0  2  0  0  0  0  0  0
  161.3720  208.0030  154.1990 C   0  0  0  0  0  3  0  0  0  0  0  0
  161.9910  209.3370  156.2680 C   0  0  0  0  0  2  0  0  0  0  0  0
  160.0410  207.5110  154.7630 C   0  0  0  0  0  2  0  0  0  0  0  0
  161.7940  209.3630  154.7570 C   0  0  0  0  0  2  0  0  0  0  0  0
  160.6360  209.3940  156.9580 C   0  0  0  0  0  2  0  0  0  0  0  0
  160.3730  206.8340  149.9510 C   0  0  0  0  0  2  0  0  0  0  0  0
  161.6640  205.2650  148.5880 N   0  0  0  0  0  2  0  0  0  0  0  0
  160.7550  204.4670  150.6260 C   0  0  0  0  0  2  0  0  0  0  0  0
  160.8130  203.5410  149.6750 C   0  0  0  0  0  0  0  0  0  0  0  0
  161.3170  205.6560  149.9340 C   0  0  2  0  0  0  0  0  0  0  0  0
  161.3670  204.0370  148.4560 N   0  0  0  0  0  0  0  0  0  0  0  0
  161.7950  206.9890  150.4930 C   0  0  2  0  0  3  0  0  0  0  0  0
  160.3880  202.1240  149.8650 C   0  0  0  0  0  2  0  0  0  0  0  0
  161.1600  200.6450  148.0070 C   0  0  0  0  0  1  0  0  0  0  0  0
  161.4710  201.1640  149.3990 C   0  0  0  0  0  2  0  0  0  0  0  0
  160.7860  209.1750  152.0050 N   0  0  0  0  0  2  0  0  0  0  0  0
  161.0030  210.4890  152.4420 N   0  0  0  0  0  2  0  0  0  0  0  0
  157.8290  213.1900  152.8820 N   0  0  0  0  0  0  0  0  0  0  0  0
  159.8250  212.5340  151.7460 C   0  0  0  0  0  3  0  0  0  0  0  0
  157.9100  212.1110  153.7060 C   0  0  0  0  0  3  0  0  0  0  0  0
  158.9620  211.2030  153.5700 C   0  0  0  0  0  3  0  0  0  0  0  0
  158.7570  213.4190  151.9140 C   0  0  0  0  0  3  0  0  0  0  0  0
  159.9280  211.4160  152.5830 C   0  0  0  0  0  0  0  0  0  0  0  0
  1  6  1  0  0  0  0
  3  2  1  0  0  0  0
  3  1  2  0  0  0  0
  5  4  1  0  0  0  0
  6  9  1  0  0  0  0
  6  8  1  0  0  0  0
  7 10  1  0  0  0  0
  8  5  1  0  0  0  0
  9  7  1  0  0  0  0
 10  4  1  0  0  0  0
 11 17  1  0  0  0  0
 12 15  1  0  0  0  0
 14 18  1  0  0  0  0
 14 13  1  0  0  0  0
 15 11  1  6  0  0  0
 15 17  1  0  0  0  0
 15 13  1  0  0  0  0
 16 12  1  0  0  0  0
 16 14  2  0  0  0  0
 17  3  1  1  0  0  0
 19 20  1  0  0  0  0
 20 18  1  0  0  0  0
 21 22  1  0  0  0  0
 21  1  1  0  0  0  0
 22 28  1  0  0  0  0
 23 25  1  0  0  0  0
 24 27  1  0  0  0  0
 24 28  2  0  0  0  0
 26 25  2  0  0  0  0
 27 23  2  0  0  0  0
 28 26  1  0  0  0  0
M  END
>  <MODEL>
7

>  <REMARK>
 VINA RESULT:      -7.1      2.288      7.807
  Name = 
  7 active torsions:
  status: ('A' for Active; 'I' for Inactive)
    1  A    between atoms: N_2  and  N_15
    2  A    between atoms: N_2  and  C_25
    3  A    between atoms: C_7  and  C_25
    4  A    between atoms: C_13  and  C_14
    5  A    between atoms: C_13  and  C_27
    6  A    between atoms: N_15  and  C_19
    7  A    between atoms: C_22  and  C_28
                            x       y       z     vdW  Elec       q    Type
                         _______ _______ _______ _____ _____    ______ ____

>  <TORSDO>
F 7

$$$$
=
 OpenBabel11052410503D

 28 31  0  0  1  0  0  0  0  0999 V2000
  162.0890  209.6560  149.2110 C   0  0  0  0  0  0  0  0  0  0  0  0
  161.8840  210.4120  151.4450 O   0  0  0  0  0  1  0  0  0  0  0  0
  162.0280  209.3780  150.5230 C   0  0  0  0  0  0  0  0  0  0  0  0
  161.0830  213.5090  146.6420 C   0  0  0  0  0  2  0  0  0  0  0  0
  160.3450  212.6470  147.6710 C   0  0  0  0  0  2  0  0  0  0  0  0
  161.9540  211.0830  148.7540 C   0  0  0  0  0  3  0  0  0  0  0  0
  163.2460  213.1050  147.9270 C   0  0  0  0  0  2  0  0  0  0  0  0
  160.8450  211.2100  147.7120 C   0  0  0  0  0  2  0  0  0  0  0  0
  163.3000  211.6210  148.2670 C   0  0  0  0  0  2  0  0  0  0  0  0
  162.5970  213.2900  146.5630 C   0  0  0  0  0  2  0  0  0  0  0  0
  160.8010  207.3130  151.2330 C   0  0  0  0  0  2  0  0  0  0  0  0
  162.0080  206.7180  153.2760 N   0  0  0  0  0  0  0  0  0  0  0  0
  160.8020  208.7570  153.2620 C   0  0  0  0  0  3  0  0  0  0  0  0
  160.8350  208.1720  154.4540 C   0  0  0  0  0  0  0  0  0  0  0  0
  161.5800  207.8060  152.4280 C   0  0  2  0  0  0  0  0  0  0  0  0
  161.5690  206.9470  154.4450 N   0  0  0  0  0  0  0  0  0  0  0  0
  162.1690  207.9680  151.0330 C   0  0  2  0  0  3  0  0  0  0  0  0
  160.2120  208.7450  155.6820 C   0  0  0  0  0  2  0  0  0  0  0  0
  162.2880  209.9570  156.3580 C   0  0  0  0  0  1  0  0  0  0  0  0
  161.2480  208.9340  156.7790 C   0  0  0  0  0  2  0  0  0  0  0  0
  162.2870  208.5980  148.2630 N   0  0  0  0  0  2  0  0  0  0  0  0
  161.2540  207.7260  147.8900 N   0  0  0  0  0  2  0  0  0  0  0  0
  161.9570  203.6580  147.1700 N   0  0  0  0  0  0  0  0  0  0  0  0
  162.2680  205.9390  146.5360 C   0  0  0  0  0  3  0  0  0  0  0  0
  161.2060  204.0290  148.2420 C   0  0  0  0  0  3  0  0  0  0  0  0
  160.9660  205.3810  148.4940 C   0  0  0  0  0  3  0  0  0  0  0  0
  162.4870  204.5770  146.3190 C   0  0  0  0  0  3  0  0  0  0  0  0
  161.5000  206.3440  147.6340 C   0  0  0  0  0  0  0  0  0  0  0  0
  1  3  2  0  0  0  0
  3  2  1  0  0  0  0
  4  5  1  0  0  0  0
  5  8  1  0  0  0  0
  6  1  1  0  0  0  0
  7  9  1  0  0  0  0
  8  6  1  0  0  0  0
  9  6  1  0  0  0  0
 10  4  1  0  0  0  0
 10  7  1  0  0  0  0
 12 16  2  0  0  0  0
 13 14  2  0  0  0  0
 14 18  1  0  0  0  0
 15 11  1  6  0  0  0
 15 13  1  0  0  0  0
 15 12  1  0  0  0  0
 16 14  1  0  0  0  0
 17  3  1  6  0  0  0
 17 11  1  0  0  0  0
 17 15  1  0  0  0  0
 18 20  1  0  0  0  0
 19 20  1  0  0  0  0
 21  1  1  0  0  0  0
 22 21  1  0  0  0  0
 23 25  1  0  0  0  0
 24 28  2  0  0  0  0
 25 26  2  0  0  0  0
 27 24  1  0  0  0  0
 27 23  2  0  0  0  0
 28 22  1  0  0  0  0
 28 26  1  0  0  0  0
M  END
>  <MODEL>
8

>  <REMARK>
 VINA RESULT:      -6.7      3.193      5.579
  Name = 
  7 active torsions:
  status: ('A' for Active; 'I' for Inactive)
    1  A    between atoms: N_2  and  N_15
    2  A    between atoms: N_2  and  C_25
    3  A    between atoms: C_7  and  C_25
    4  A    between atoms: C_13  and  C_14
    5  A    between atoms: C_13  and  C_27
    6  A    between atoms: N_15  and  C_19
    7  A    between atoms: C_22  and  C_28
                            x       y       z     vdW  Elec       q    Type
                         _______ _______ _______ _____ _____    ______ ____

>  <TORSDO>
F 7

$$$$
=
 OpenBabel11052410503D

 28 31  0  0  1  0  0  0  0  0999 V2000
  161.5810  208.4680  150.8350 C   0  0  0  0  0  0  0  0  0  0  0  0
  160.4550  207.7560  152.7920 O   0  0  0  0  0  1  0  0  0  0  0  0
  161.2750  208.6650  152.1270 C   0  0  0  0  0  0  0  0  0  0  0  0
  161.1830  204.0540  149.1550 C   0  0  0  0  0  2  0  0  0  0  0  0
  160.8000  204.7800  150.4480 C   0  0  0  0  0  2  0  0  0  0  0  0
  161.0700  207.2370  150.1370 C   0  0  0  0  0  3  0  0  0  0  0  0
  160.6620  206.1870  147.8620 C   0  0  0  0  0  2  0  0  0  0  0  0
  161.6880  205.9800  150.7440 C   0  0  0  0  0  2  0  0  0  0  0  0
  161.2900  207.3450  148.6270 C   0  0  0  0  0  2  0  0  0  0  0  0
  161.5530  204.9600  147.9770 C   0  0  0  0  0  2  0  0  0  0  0  0
  161.4360  209.7850  154.3620 C   0  0  0  0  0  2  0  0  0  0  0  0
  160.7600  212.0680  153.8030 N   0  0  0  0  0  0  0  0  0  0  0  0
  159.1490  210.3490  153.5550 C   0  0  0  0  0  3  0  0  0  0  0  0
  158.6240  211.5170  153.9100 C   0  0  0  0  0  0  0  0  0  0  0  0
  160.5970  210.6710  153.4750 C   0  0  2  0  0  0  0  0  0  0  0  0
  159.6090  212.5420  154.0510 N   0  0  0  0  0  0  0  0  0  0  0  0
  161.7520  209.8860  152.8680 C   0  0  2  0  0  3  0  0  0  0  0  0
  157.1640  211.7510  154.1010 C   0  0  0  0  0  2  0  0  0  0  0  0
  156.9090  211.9430  156.5770 C   0  0  0  0  0  1  0  0  0  0  0  0
  156.6640  211.0660  155.3630 C   0  0  0  0  0  2  0  0  0  0  0  0
  162.3840  209.4280  150.1340 N   0  0  0  0  0  2  0  0  0  0  0  0
  161.9550  210.0390  148.9480 N   0  0  0  0  0  2  0  0  0  0  0  0
  161.8060  214.2100  148.5700 N   0  0  0  0  0  0  0  0  0  0  0  0
  162.7800  212.1240  147.9350 C   0  0  0  0  0  3  0  0  0  0  0  0
  160.9560  213.5840  149.4280 C   0  0  0  0  0  3  0  0  0  0  0  0
  160.9950  212.1950  149.5630 C   0  0  0  0  0  3  0  0  0  0  0  0
  162.7090  213.5150  147.8280 C   0  0  0  0  0  3  0  0  0  0  0  0
  161.9140  211.4580  148.8110 C   0  0  0  0  0  0  0  0  0  0  0  0
  1  3  2  0  0  0  0
  3  2  1  0  0  0  0
  4  5  1  0  0  0  0
  5  8  1  0  0  0  0
  6  8  1  0  0  0  0
  6  1  1  0  0  0  0
  7 10  1  0  0  0  0
  7  9  1  0  0  0  0
  9  6  1  0  0  0  0
 10  4  1  0  0  0  0
 12 16  2  0  0  0  0
 13 14  2  0  0  0  0
 14 16  1  0  0  0  0
 14 18  1  0  0  0  0
 15 13  1  6  0  0  0
 15 12  1  0  0  0  0
 15 11  1  0  0  0  0
 17  3  1  6  0  0  0
 17 15  1  0  0  0  0
 17 11  1  0  0  0  0
 18 20  1  0  0  0  0
 20 19  1  0  0  0  0
 21  1  1  0  0  0  0
 22 21  1  0  0  0  0
 23 25  1  0  0  0  0
 24 28  2  0  0  0  0
 25 26  2  0  0  0  0
 27 24  1  0  0  0  0
 27 23  2  0  0  0  0
 28 22  1  0  0  0  0
 28 26  1  0  0  0  0
M  END
>  <MODEL>
9

>  <REMARK>
 VINA RESULT:      -6.6      3.126      4.963
  Name = 
  7 active torsions:
  status: ('A' for Active; 'I' for Inactive)
    1  A    between atoms: N_2  and  N_15
    2  A    between atoms: N_2  and  C_25
    3  A    between atoms: C_7  and  C_25
    4  A    between atoms: C_13  and  C_14
    5  A    between atoms: C_13  and  C_27
    6  A    between atoms: N_15  and  C_19
    7  A    between atoms: C_22  and  C_28
                            x       y       z     vdW  Elec       q    Type
                         _______ _______ _______ _____ _____    ______ ____

>  <TORSDO>
F 7

$$$$
