=
 OpenBabel11042422593D

 32 34  0  0  0  0  0  0  0  0999 V2000
  162.1860  208.5890  151.3720 C   0  0  0  0  0  0  0  0  0  0  0  0
  161.1350  208.0810  152.1990 N   0  0  0  0  0  2  0  0  0  0  0  0
  162.7120  209.7070  151.6310 O   0  0  0  0  0  0  0  0  0  0  0  0
  161.3090  207.5630  156.9810 F   0  0  0  0  0  0  0  0  0  0  0  0
  159.1640  211.3650  155.2270 N   0  0  0  0  0  0  0  0  0  0  0  0
  158.7810  212.1570  154.1870 C   0  0  0  0  0  0  0  0  0  0  0  0
  159.0850  211.7520  152.8780 C   0  0  0  0  0  0  0  0  0  0  0  0
  159.7410  210.5800  152.6720 N   0  0  0  0  0  0  0  0  0  0  0  0
  158.6990  212.5890  151.7080 C   0  0  0  0  0  1  0  0  0  0  0  0
  160.2240  209.4420  156.0810 N   0  0  0  0  0  0  0  0  0  0  0  0
  160.1070  209.7790  153.7070 C   0  0  0  0  0  0  0  0  0  0  0  0
  161.2150  207.8330  154.6180 C   0  0  0  0  0  3  0  0  0  0  0  0
  159.8210  210.1940  155.0230 C   0  0  0  0  0  0  0  0  0  0  0  0
  160.9130  208.2830  155.9050 C   0  0  0  0  0  0  0  0  0  0  0  0
  160.7940  208.5670  153.5050 C   0  0  0  0  0  0  0  0  0  0  0  0
  158.0990  213.3640  154.4010 O   0  0  0  0  0  0  0  0  0  0  0  0
  156.7870  213.4800  154.8800 C   0  0  0  0  0  0  0  0  0  0  0  0
  155.6570  213.4080  153.9180 C   0  0  0  0  0  1  0  0  0  0  0  0
  156.5420  213.6440  156.1050 O   0  0  0  0  0  0  0  0  0  0  0  0
  162.5780  207.8490  150.2500 O   0  0  0  0  0  0  0  0  0  0  0  0
  161.1610  208.1610  148.4530 O   0  0  0  0  0  0  0  0  0  0  0  0
  161.7150  207.3630  149.2580 C   0  0  0  0  0  0  0  0  0  0  0  0
  160.8920  205.2440  150.2460 C   0  0  0  0  0  3  0  0  0  0  0  0
  162.2960  205.7580  146.7300 C   0  0  0  0  0  1  0  0  0  0  0  0
  160.6120  203.8790  150.2030 C   0  0  0  0  0  3  0  0  0  0  0  0
  161.4270  203.7880  147.9330 C   0  0  0  0  0  3  0  0  0  0  0  0
  161.4440  205.9070  149.1370 C   0  0  0  0  0  0  0  0  0  0  0  0
  161.7130  205.1570  147.9650 C   0  0  0  0  0  0  0  0  0  0  0  0
  160.8780  203.1410  149.0460 C   0  0  0  0  0  0  0  0  0  0  0  0
  160.5820  201.7010  149.0030 C   0  0  0  0  0  0  0  0  0  0  0  0
  161.4600  200.8230  148.3780 O   0  0  0  0  0  0  0  0  0  0  0  0
  159.5320  201.2480  149.5320 O   0  0  0  0  0  1  0  0  0  0  0  0
  1  3  2  0  0  0  0
  1  2  1  0  0  0  0
  2 15  1  0  0  0  0
  6 16  1  0  0  0  0
  6  5  2  0  0  0  0
  7  6  1  0  0  0  0
  8  7  2  0  0  0  0
  8 11  1  0  0  0  0
  9  7  1  0  0  0  0
 11 13  1  0  0  0  0
 12 14  2  0  0  0  0
 13  5  1  0  0  0  0
 13 10  2  0  0  0  0
 14 10  1  0  0  0  0
 14  4  1  0  0  0  0
 15 11  2  0  0  0  0
 15 12  1  0  0  0  0
 16 17  1  0  0  0  0
 17 19  2  0  0  0  0
 18 17  1  0  0  0  0
 20  1  1  0  0  0  0
 21 22  2  0  0  0  0
 22 20  1  0  0  0  0
 24 28  1  0  0  0  0
 25 23  1  0  0  0  0
 26 28  2  0  0  0  0
 26 29  1  0  0  0  0
 27 22  1  0  0  0  0
 27 23  2  0  0  0  0
 28 27  1  0  0  0  0
 29 25  2  0  0  0  0
 30 29  1  0  0  0  0
 30 32  1  0  0  0  0
 31 30  2  0  0  0  0
M  END
>  <MODEL>
1

>  <REMARK>
 VINA RESULT:      -8.6      0.000      0.000
  Name = 
  7 active torsions:
  status: ('A' for Active; 'I' for Inactive)
    1  A    between atoms: C_5  and  O_10
    2  A    between atoms: C_6  and  C_21
    3  A    between atoms: O_10  and  C_15
    4  A    between atoms: C_17  and  C_29
    5  A    between atoms: C_19  and  O_30
    6  A    between atoms: N_22  and  C_31
    7  A    between atoms: C_29  and  O_30
                            x       y       z     vdW  Elec       q    Type
                         _______ _______ _______ _____ _____    ______ ____

>  <TORSDO>
F 7

$$$$
=
 OpenBabel11042422593D

 32 34  0  0  0  0  0  0  0  0999 V2000
  161.9070  204.6680  151.9810 C   0  0  0  0  0  0  0  0  0  0  0  0
  160.8170  205.5530  152.2590 N   0  0  0  0  0  2  0  0  0  0  0  0
  163.0850  205.1150  151.9140 O   0  0  0  0  0  0  0  0  0  0  0  0
  160.7230  208.5390  156.0330 F   0  0  0  0  0  0  0  0  0  0  0  0
  161.7140  210.3300  151.7980 N   0  0  0  0  0  0  0  0  0  0  0  0
  161.9490  210.2000  150.4630 C   0  0  0  0  0  0  0  0  0  0  0  0
  161.8570  208.9270  149.8780 C   0  0  0  0  0  0  0  0  0  0  0  0
  161.5270  207.8560  150.6470 N   0  0  0  0  0  0  0  0  0  0  0  0
  162.1150  208.7310  148.4240 C   0  0  0  0  0  1  0  0  0  0  0  0
  161.1930  209.4140  153.9050 N   0  0  0  0  0  0  0  0  0  0  0  0
  161.2730  207.9870  151.9760 C   0  0  0  0  0  0  0  0  0  0  0  0
  160.7730  207.0740  154.1580 C   0  0  0  0  0  3  0  0  0  0  0  0
  161.3860  209.2610  152.5680 C   0  0  0  0  0  0  0  0  0  0  0  0
  160.8960  208.3540  154.7040 C   0  0  0  0  0  0  0  0  0  0  0  0
  160.9380  206.8830  152.7830 C   0  0  0  0  0  0  0  0  0  0  0  0
  162.2840  211.3070  149.6690 O   0  0  0  0  0  0  0  0  0  0  0  0
  161.3720  212.2260  149.1330 C   0  0  0  0  0  0  0  0  0  0  0  0
  161.2490  212.3450  147.6570 C   0  0  0  0  0  1  0  0  0  0  0  0
  160.6560  212.9540  149.8700 O   0  0  0  0  0  0  0  0  0  0  0  0
  161.6320  203.3170  151.7350 O   0  0  0  0  0  0  0  0  0  0  0  0
  159.9540  201.9650  150.9030 O   0  0  0  0  0  0  0  0  0  0  0  0
  160.8460  202.8290  150.6810 C   0  0  0  0  0  0  0  0  0  0  0  0
  161.0260  204.7110  149.0790 C   0  0  0  0  0  3  0  0  0  0  0  0
  161.3050  200.9820  148.2970 C   0  0  0  0  0  1  0  0  0  0  0  0
  161.2090  205.2450  147.8030 C   0  0  0  0  0  3  0  0  0  0  0  0
  161.4440  203.0160  146.9090 C   0  0  0  0  0  3  0  0  0  0  0  0
  161.0480  203.3240  149.2950 C   0  0  0  0  0  0  0  0  0  0  0  0
  161.2620  202.4690  148.1840 C   0  0  0  0  0  0  0  0  0  0  0  0
  161.4190  204.4010  146.7090 C   0  0  0  0  0  0  0  0  0  0  0  0
  161.6110  204.9670  145.3650 C   0  0  0  0  0  0  0  0  0  0  0  0
  160.8220  204.5370  144.3040 O   0  0  0  0  0  0  0  0  0  0  0  0
  162.4900  205.8460  145.1610 O   0  0  0  0  0  1  0  0  0  0  0  0
  1  2  1  0  0  0  0
  2 15  1  0  0  0  0
  3  1  2  0  0  0  0
  5 13  1  0  0  0  0
  6  5  2  0  0  0  0
  7  6  1  0  0  0  0
  7  8  2  0  0  0  0
  8 11  1  0  0  0  0
  9  7  1  0  0  0  0
 10 14  1  0  0  0  0
 11 13  1  0  0  0  0
 11 15  2  0  0  0  0
 12 14  2  0  0  0  0
 13 10  2  0  0  0  0
 14  4  1  0  0  0  0
 15 12  1  0  0  0  0
 16  6  1  0  0  0  0
 17 16  1  0  0  0  0
 17 19  2  0  0  0  0
 18 17  1  0  0  0  0
 20  1  1  0  0  0  0
 22 21  2  0  0  0  0
 22 20  1  0  0  0  0
 23 27  1  0  0  0  0
 25 23  2  0  0  0  0
 26 28  1  0  0  0  0
 27 22  1  0  0  0  0
 28 24  1  0  0  0  0
 28 27  2  0  0  0  0
 29 26  2  0  0  0  0
 29 25  1  0  0  0  0
 30 29  1  0  0  0  0
 31 30  2  0  0  0  0
 32 30  1  0  0  0  0
M  END
>  <MODEL>
2

>  <REMARK>
 VINA RESULT:      -8.5      3.138      4.618
  Name = 
  7 active torsions:
  status: ('A' for Active; 'I' for Inactive)
    1  A    between atoms: C_5  and  O_10
    2  A    between atoms: C_6  and  C_21
    3  A    between atoms: O_10  and  C_15
    4  A    between atoms: C_17  and  C_29
    5  A    between atoms: C_19  and  O_30
    6  A    between atoms: N_22  and  C_31
    7  A    between atoms: C_29  and  O_30
                            x       y       z     vdW  Elec       q    Type
                         _______ _______ _______ _____ _____    ______ ____

>  <TORSDO>
F 7

$$$$
=
 OpenBabel11042422593D

 32 34  0  0  0  0  0  0  0  0999 V2000
  161.4010  206.7780  153.0330 C   0  0  0  0  0  0  0  0  0  0  0  0
  160.6230  207.0600  151.8660 N   0  0  0  0  0  2  0  0  0  0  0  0
  162.5710  206.3170  152.9180 O   0  0  0  0  0  0  0  0  0  0  0  0
  162.5910  209.7490  148.3920 F   0  0  0  0  0  0  0  0  0  0  0  0
  161.8400  205.1870  147.5250 N   0  0  0  0  0  0  0  0  0  0  0  0
  161.4430  203.9410  147.9040 C   0  0  0  0  0  0  0  0  0  0  0  0
  160.9380  203.7540  149.2000 C   0  0  0  0  0  0  0  0  0  0  0  0
  160.8430  204.8150  150.0440 N   0  0  0  0  0  0  0  0  0  0  0  0
  160.5010  202.4080  149.6660 C   0  0  0  0  0  1  0  0  0  0  0  0
  162.1850  207.4740  147.9740 N   0  0  0  0  0  0  0  0  0  0  0  0
  161.2200  206.0630  149.6600 C   0  0  0  0  0  0  0  0  0  0  0  0
  161.6180  208.4070  150.1010 C   0  0  0  0  0  3  0  0  0  0  0  0
  161.7480  206.2480  148.3670 C   0  0  0  0  0  0  0  0  0  0  0  0
  162.1350  208.5450  148.8110 C   0  0  0  0  0  0  0  0  0  0  0  0
  161.1340  207.1680  150.5300 C   0  0  0  0  0  0  0  0  0  0  0  0
  161.5350  202.8470  147.0300 O   0  0  0  0  0  0  0  0  0  0  0  0
  160.9420  202.7690  145.7620 C   0  0  0  0  0  0  0  0  0  0  0  0
  160.2440  201.5190  145.3670 C   0  0  0  0  0  1  0  0  0  0  0  0
  160.9880  203.7310  144.9510 O   0  0  0  0  0  0  0  0  0  0  0  0
  160.8220  206.9720  154.2920 O   0  0  0  0  0  0  0  0  0  0  0  0
  161.8930  207.9190  156.1070 O   0  0  0  0  0  0  0  0  0  0  0  0
  161.0850  208.0520  155.1470 C   0  0  0  0  0  0  0  0  0  0  0  0
  159.2540  209.6400  155.6610 C   0  0  0  0  0  3  0  0  0  0  0  0
  162.1400  210.1640  153.2150 C   0  0  0  0  0  1  0  0  0  0  0  0
  158.5800  210.8520  155.5110 C   0  0  0  0  0  3  0  0  0  0  0  0
  160.2260  211.5610  153.8950 C   0  0  0  0  0  3  0  0  0  0  0  0
  160.4230  209.3650  154.9340 C   0  0  0  0  0  0  0  0  0  0  0  0
  160.9100  210.3490  154.0370 C   0  0  0  0  0  0  0  0  0  0  0  0
  159.0610  211.8210  154.6270 C   0  0  0  0  0  0  0  0  0  0  0  0
  158.3490  213.0980  154.4700 C   0  0  0  0  0  0  0  0  0  0  0  0
  157.1630  213.1560  153.7460 O   0  0  0  0  0  0  0  0  0  0  0  0
  158.8040  214.1520  154.9900 O   0  0  0  0  0  1  0  0  0  0  0  0
  1 20  1  0  0  0  0
  2  1  1  0  0  0  0
  3  1  2  0  0  0  0
  4 14  1  0  0  0  0
  5  6  2  0  0  0  0
  5 13  1  0  0  0  0
  6  7  1  0  0  0  0
  7  9  1  0  0  0  0
  7  8  2  0  0  0  0
 10 13  2  0  0  0  0
 10 14  1  0  0  0  0
 11  8  1  0  0  0  0
 11 15  2  0  0  0  0
 12 15  1  0  0  0  0
 13 11  1  0  0  0  0
 14 12  2  0  0  0  0
 15  2  1  0  0  0  0
 16  6  1  0  0  0  0
 17 16  1  0  0  0  0
 18 17  1  0  0  0  0
 19 17  2  0  0  0  0
 20 22  1  0  0  0  0
 22 21  2  0  0  0  0
 24 28  1  0  0  0  0
 25 23  1  0  0  0  0
 26 28  2  0  0  0  0
 26 29  1  0  0  0  0
 27 22  1  0  0  0  0
 27 23  2  0  0  0  0
 28 27  1  0  0  0  0
 29 25  2  0  0  0  0
 30 29  1  0  0  0  0
 30 32  1  0  0  0  0
 31 30  2  0  0  0  0
M  END
>  <MODEL>
3

>  <REMARK>
 VINA RESULT:      -8.5      2.919      9.460
  Name = 
  7 active torsions:
  status: ('A' for Active; 'I' for Inactive)
    1  A    between atoms: C_5  and  O_10
    2  A    between atoms: C_6  and  C_21
    3  A    between atoms: O_10  and  C_15
    4  A    between atoms: C_17  and  C_29
    5  A    between atoms: C_19  and  O_30
    6  A    between atoms: N_22  and  C_31
    7  A    between atoms: C_29  and  O_30
                            x       y       z     vdW  Elec       q    Type
                         _______ _______ _______ _____ _____    ______ ____

>  <TORSDO>
F 7

$$$$
=
 OpenBabel11042422593D

 32 34  0  0  0  0  0  0  0  0999 V2000
  161.5840  206.2920  152.2100 C   0  0  0  0  0  0  0  0  0  0  0  0
  161.6120  207.6310  152.7150 N   0  0  0  0  0  2  0  0  0  0  0  0
  161.2000  205.3440  152.9480 O   0  0  0  0  0  0  0  0  0  0  0  0
  160.2520  206.8190  157.2610 F   0  0  0  0  0  0  0  0  0  0  0  0
  159.2320  210.9900  155.3400 N   0  0  0  0  0  0  0  0  0  0  0  0
  159.2850  211.8880  154.3180 C   0  0  0  0  0  0  0  0  0  0  0  0
  159.9220  211.5190  153.1220 C   0  0  0  0  0  0  0  0  0  0  0  0
  160.4600  210.2770  153.0030 N   0  0  0  0  0  0  0  0  0  0  0  0
  160.0170  212.4690  151.9790 C   0  0  0  0  0  1  0  0  0  0  0  0
  159.7340  208.8850  156.2730 N   0  0  0  0  0  0  0  0  0  0  0  0
  160.3900  209.3720  154.0150 C   0  0  0  0  0  0  0  0  0  0  0  0
  160.9180  207.2350  155.0140 C   0  0  0  0  0  3  0  0  0  0  0  0
  159.7700  209.7490  155.2240 C   0  0  0  0  0  0  0  0  0  0  0  0
  160.2950  207.6500  156.1930 C   0  0  0  0  0  0  0  0  0  0  0  0
  160.9510  208.0850  153.9050 C   0  0  0  0  0  0  0  0  0  0  0  0
  158.7240  213.1680  154.4400 O   0  0  0  0  0  0  0  0  0  0  0  0
  157.3540  213.4590  154.4110 C   0  0  0  0  0  0  0  0  0  0  0  0
  156.7560  213.9940  153.1610 C   0  0  0  0  0  1  0  0  0  0  0  0
  156.6180  213.2800  155.4170 O   0  0  0  0  0  0  0  0  0  0  0  0
  162.0400  206.0540  150.9080 O   0  0  0  0  0  0  0  0  0  0  0  0
  160.5230  206.9730  149.4280 O   0  0  0  0  0  0  0  0  0  0  0  0
  161.2290  205.9830  149.7660 C   0  0  0  0  0  0  0  0  0  0  0  0
  160.7040  203.5740  149.5270 C   0  0  0  0  0  3  0  0  0  0  0  0
  162.1650  205.8900  146.8640 C   0  0  0  0  0  1  0  0  0  0  0  0
  160.6420  202.3800  148.8090 C   0  0  0  0  0  3  0  0  0  0  0  0
  161.5600  203.4990  146.8790 C   0  0  0  0  0  3  0  0  0  0  0  0
  161.1940  204.7500  148.9380 C   0  0  0  0  0  0  0  0  0  0  0  0
  161.6280  204.7020  147.5890 C   0  0  0  0  0  0  0  0  0  0  0  0
  161.0700  202.3340  147.4800 C   0  0  0  0  0  0  0  0  0  0  0  0
  161.0040  201.0740  146.7240 C   0  0  0  0  0  0  0  0  0  0  0  0
  160.4110  201.0400  145.4670 O   0  0  0  0  0  0  0  0  0  0  0  0
  161.4830  200.0130  147.2070 O   0  0  0  0  0  1  0  0  0  0  0  0
  1  2  1  0  0  0  0
  1  3  2  0  0  0  0
  2 15  1  0  0  0  0
  6 16  1  0  0  0  0
  6  5  2  0  0  0  0
  7  6  1  0  0  0  0
  8  7  2  0  0  0  0
  8 11  1  0  0  0  0
  9  7  1  0  0  0  0
 11 13  1  0  0  0  0
 12 14  2  0  0  0  0
 13  5  1  0  0  0  0
 13 10  2  0  0  0  0
 14 10  1  0  0  0  0
 14  4  1  0  0  0  0
 15 11  2  0  0  0  0
 15 12  1  0  0  0  0
 17 16  1  0  0  0  0
 17 19  2  0  0  0  0
 18 17  1  0  0  0  0
 20  1  1  0  0  0  0
 21 22  2  0  0  0  0
 22 20  1  0  0  0  0
 24 28  1  0  0  0  0
 25 23  2  0  0  0  0
 26 29  2  0  0  0  0
 26 28  1  0  0  0  0
 27 23  1  0  0  0  0
 27 22  1  0  0  0  0
 28 27  2  0  0  0  0
 29 25  1  0  0  0  0
 30 32  1  0  0  0  0
 30 29  1  0  0  0  0
 31 30  2  0  0  0  0
M  END
>  <MODEL>
4

>  <REMARK>
 VINA RESULT:      -8.3      1.425      1.690
  Name = 
  7 active torsions:
  status: ('A' for Active; 'I' for Inactive)
    1  A    between atoms: C_5  and  O_10
    2  A    between atoms: C_6  and  C_21
    3  A    between atoms: O_10  and  C_15
    4  A    between atoms: C_17  and  C_29
    5  A    between atoms: C_19  and  O_30
    6  A    between atoms: N_22  and  C_31
    7  A    between atoms: C_29  and  O_30
                            x       y       z     vdW  Elec       q    Type
                         _______ _______ _______ _____ _____    ______ ____

>  <TORSDO>
F 7

$$$$
=
 OpenBabel11042422593D

 32 34  0  0  0  0  0  0  0  0999 V2000
  161.0600  207.3910  154.5790 C   0  0  0  0  0  0  0  0  0  0  0  0
  161.8030  207.0980  153.3920 N   0  0  0  0  0  2  0  0  0  0  0  0
  159.8990  206.9210  154.7320 O   0  0  0  0  0  0  0  0  0  0  0  0
  160.5240  202.5350  152.5460 F   0  0  0  0  0  0  0  0  0  0  0  0
  161.1090  205.4050  148.8650 N   0  0  0  0  0  0  0  0  0  0  0  0
  161.3700  206.6270  148.3230 C   0  0  0  0  0  0  0  0  0  0  0  0
  161.6710  207.6990  149.1780 C   0  0  0  0  0  0  0  0  0  0  0  0
  161.7090  207.4970  150.5210 N   0  0  0  0  0  0  0  0  0  0  0  0
  161.9530  209.0570  148.6340 C   0  0  0  0  0  1  0  0  0  0  0  0
  160.8440  203.9810  150.7230 N   0  0  0  0  0  0  0  0  0  0  0  0
  161.4680  206.2740  151.0630 C   0  0  0  0  0  0  0  0  0  0  0  0
  161.1560  204.7940  152.9490 C   0  0  0  0  0  3  0  0  0  0  0  0
  161.1440  205.2020  150.2070 C   0  0  0  0  0  0  0  0  0  0  0  0
  160.8390  203.7610  152.0650 C   0  0  0  0  0  0  0  0  0  0  0  0
  161.4970  206.0570  152.4540 C   0  0  0  0  0  0  0  0  0  0  0  0
  161.3370  206.8330  146.9350 O   0  0  0  0  0  0  0  0  0  0  0  0
  161.4860  205.8340  145.9630 C   0  0  0  0  0  0  0  0  0  0  0  0
  162.7350  205.0310  145.9390 C   0  0  0  0  0  1  0  0  0  0  0  0
  160.5880  205.6020  145.1110 O   0  0  0  0  0  0  0  0  0  0  0  0
  161.6240  208.2460  155.5330 O   0  0  0  0  0  0  0  0  0  0  0  0
  162.6520  210.3070  155.7220 O   0  0  0  0  0  0  0  0  0  0  0  0
  161.6040  209.6470  155.4770 C   0  0  0  0  0  0  0  0  0  0  0  0
  159.4590  210.6820  156.1610 C   0  0  0  0  0  3  0  0  0  0  0  0
  160.9070  210.4960  152.6310 C   0  0  0  0  0  1  0  0  0  0  0  0
  158.2690  211.3620  155.9040 C   0  0  0  0  0  3  0  0  0  0  0  0
  158.8320  211.4510  153.5590 C   0  0  0  0  0  3  0  0  0  0  0  0
  160.3570  210.3740  155.1260 C   0  0  0  0  0  0  0  0  0  0  0  0
  160.0280  210.7700  153.8050 C   0  0  0  0  0  0  0  0  0  0  0  0
  157.9460  211.7510  154.6010 C   0  0  0  0  0  0  0  0  0  0  0  0
  156.6900  212.4680  154.3320 C   0  0  0  0  0  0  0  0  0  0  0  0
  156.7140  213.7270  153.7450 O   0  0  0  0  0  0  0  0  0  0  0  0
  155.5820  211.9490  154.6310 O   0  0  0  0  0  1  0  0  0  0  0  0
  1  3  2  0  0  0  0
  1 20  1  0  0  0  0
  2  1  1  0  0  0  0
  5 13  1  0  0  0  0
  6  5  2  0  0  0  0
  6  7  1  0  0  0  0
  7  8  2  0  0  0  0
  8 11  1  0  0  0  0
  9  7  1  0  0  0  0
 10 14  1  0  0  0  0
 11 15  2  0  0  0  0
 13 10  2  0  0  0  0
 13 11  1  0  0  0  0
 14  4  1  0  0  0  0
 14 12  2  0  0  0  0
 15 12  1  0  0  0  0
 15  2  1  0  0  0  0
 16  6  1  0  0  0  0
 17 16  1  0  0  0  0
 18 17  1  0  0  0  0
 19 17  2  0  0  0  0
 22 20  1  0  0  0  0
 22 21  2  0  0  0  0
 24 28  1  0  0  0  0
 25 23  1  0  0  0  0
 26 28  2  0  0  0  0
 26 29  1  0  0  0  0
 27 22  1  0  0  0  0
 27 23  2  0  0  0  0
 28 27  1  0  0  0  0
 29 25  2  0  0  0  0
 30 29  1  0  0  0  0
 30 32  1  0  0  0  0
 31 30  2  0  0  0  0
M  END
>  <MODEL>
5

>  <REMARK>
 VINA RESULT:      -8.2      2.967      8.637
  Name = 
  7 active torsions:
  status: ('A' for Active; 'I' for Inactive)
    1  A    between atoms: C_5  and  O_10
    2  A    between atoms: C_6  and  C_21
    3  A    between atoms: O_10  and  C_15
    4  A    between atoms: C_17  and  C_29
    5  A    between atoms: C_19  and  O_30
    6  A    between atoms: N_22  and  C_31
    7  A    between atoms: C_29  and  O_30
                            x       y       z     vdW  Elec       q    Type
                         _______ _______ _______ _____ _____    ______ ____

>  <TORSDO>
F 7

$$$$
=
 OpenBabel11042422593D

 32 34  0  0  0  0  0  0  0  0999 V2000
  162.2240  207.6170  149.5440 C   0  0  0  0  0  0  0  0  0  0  0  0
  161.1130  208.0590  150.3290 N   0  0  0  0  0  2  0  0  0  0  0  0
  163.3190  207.3300  150.1000 O   0  0  0  0  0  0  0  0  0  0  0  0
  161.3750  205.3060  154.2680 F   0  0  0  0  0  0  0  0  0  0  0  0
  160.3390  209.8630  154.7990 N   0  0  0  0  0  0  0  0  0  0  0  0
  160.1490  211.1190  154.3060 C   0  0  0  0  0  0  0  0  0  0  0  0
  160.2550  211.3280  152.9220 C   0  0  0  0  0  0  0  0  0  0  0  0
  160.5310  210.2790  152.1030 N   0  0  0  0  0  0  0  0  0  0  0  0
  160.0680  212.6840  152.3340 C   0  0  0  0  0  1  0  0  0  0  0  0
  160.8370  207.5800  154.5060 N   0  0  0  0  0  0  0  0  0  0  0  0
  160.7010  209.0220  152.5920 C   0  0  0  0  0  0  0  0  0  0  0  0
  161.2420  206.6800  152.3290 C   0  0  0  0  0  3  0  0  0  0  0  0
  160.6160  208.8150  153.9830 C   0  0  0  0  0  0  0  0  0  0  0  0
  161.1500  206.5200  153.7140 C   0  0  0  0  0  0  0  0  0  0  0  0
  160.9960  207.9290  151.7530 C   0  0  0  0  0  0  0  0  0  0  0  0
  159.8580  212.2000  155.1520 O   0  0  0  0  0  0  0  0  0  0  0  0
  158.6020  212.4790  155.7080 C   0  0  0  0  0  0  0  0  0  0  0  0
  157.8550  213.6740  155.2400 C   0  0  0  0  0  1  0  0  0  0  0  0
  158.0930  211.7430  156.5940 O   0  0  0  0  0  0  0  0  0  0  0  0
  162.0850  207.5610  148.1520 O   0  0  0  0  0  0  0  0  0  0  0  0
  160.4600  207.1320  146.5670 O   0  0  0  0  0  0  0  0  0  0  0  0
  161.2360  206.6870  147.4570 C   0  0  0  0  0  0  0  0  0  0  0  0
  160.8510  204.8170  149.0370 C   0  0  0  0  0  3  0  0  0  0  0  0
  162.0490  204.5680  145.4180 C   0  0  0  0  0  1  0  0  0  0  0  0
  160.8320  203.4670  149.3840 C   0  0  0  0  0  3  0  0  0  0  0  0
  161.5950  202.8910  147.1680 C   0  0  0  0  0  3  0  0  0  0  0  0
  161.2410  205.2310  147.7530 C   0  0  0  0  0  0  0  0  0  0  0  0
  161.6190  204.2430  146.8090 C   0  0  0  0  0  0  0  0  0  0  0  0
  161.2040  202.4940  148.4520 C   0  0  0  0  0  0  0  0  0  0  0  0
  161.1840  201.0700  148.8210 C   0  0  0  0  0  0  0  0  0  0  0  0
  160.9280  200.6890  150.1330 O   0  0  0  0  0  1  0  0  0  0  0  0
  161.3970  200.1820  147.9530 O   0  0  0  0  0  0  0  0  0  0  0  0
  1  3  2  0  0  0  0
  1  2  1  0  0  0  0
  2 15  1  0  0  0  0
  6  5  2  0  0  0  0
  6 16  1  0  0  0  0
  7  6  1  0  0  0  0
  8 11  1  0  0  0  0
  8  7  2  0  0  0  0
  9  7  1  0  0  0  0
 11 13  2  0  0  0  0
 12 14  1  0  0  0  0
 13 10  1  0  0  0  0
 13  5  1  0  0  0  0
 14  4  1  0  0  0  0
 14 10  2  0  0  0  0
 15 12  2  0  0  0  0
 15 11  1  0  0  0  0
 16 17  1  0  0  0  0
 17 19  2  0  0  0  0
 18 17  1  0  0  0  0
 20  1  1  0  0  0  0
 21 22  2  0  0  0  0
 22 27  1  0  0  0  0
 22 20  1  0  0  0  0
 23 25  1  0  0  0  0
 24 28  1  0  0  0  0
 26 29  1  0  0  0  0
 27 23  2  0  0  0  0
 28 26  2  0  0  0  0
 28 27  1  0  0  0  0
 29 30  1  0  0  0  0
 29 25  2  0  0  0  0
 30 31  1  0  0  0  0
 32 30  2  0  0  0  0
M  END
>  <MODEL>
6

>  <REMARK>
 VINA RESULT:      -8.1      1.604      2.023
  Name = 
  7 active torsions:
  status: ('A' for Active; 'I' for Inactive)
    1  A    between atoms: C_5  and  O_10
    2  A    between atoms: C_6  and  C_21
    3  A    between atoms: O_10  and  C_15
    4  A    between atoms: C_17  and  C_29
    5  A    between atoms: C_19  and  O_30
    6  A    between atoms: N_22  and  C_31
    7  A    between atoms: C_29  and  O_30
                            x       y       z     vdW  Elec       q    Type
                         _______ _______ _______ _____ _____    ______ ____

>  <TORSDO>
F 7

$$$$
=
 OpenBabel11042422593D

 32 34  0  0  0  0  0  0  0  0999 V2000
  162.2200  205.5460  152.0320 C   0  0  0  0  0  0  0  0  0  0  0  0
  161.0730  206.2930  152.4500 N   0  0  0  0  0  2  0  0  0  0  0  0
  163.2630  206.1450  151.6520 O   0  0  0  0  0  0  0  0  0  0  0  0
  160.5700  209.7540  155.7570 F   0  0  0  0  0  0  0  0  0  0  0  0
  161.6160  211.0180  151.3480 N   0  0  0  0  0  0  0  0  0  0  0  0
  161.9220  210.7250  150.0540 C   0  0  0  0  0  0  0  0  0  0  0  0
  161.9570  209.3810  149.6520 C   0  0  0  0  0  0  0  0  0  0  0  0
  161.6750  208.4030  150.5530 N   0  0  0  0  0  0  0  0  0  0  0  0
  162.2970  209.0070  148.2510 C   0  0  0  0  0  1  0  0  0  0  0  0
  161.0700  210.3620  153.5440 N   0  0  0  0  0  0  0  0  0  0  0  0
  161.3500  208.6950  151.8400 C   0  0  0  0  0  0  0  0  0  0  0  0
  160.8220  208.0530  154.1110 C   0  0  0  0  0  3  0  0  0  0  0  0
  161.3360  210.0430  152.2500 C   0  0  0  0  0  0  0  0  0  0  0  0
  160.8200  209.4020  154.4740 C   0  0  0  0  0  0  0  0  0  0  0  0
  161.0650  207.6880  152.7830 C   0  0  0  0  0  0  0  0  0  0  0  0
  162.2060  211.7360  149.1230 O   0  0  0  0  0  0  0  0  0  0  0  0
  161.2530  212.5340  148.4760 C   0  0  0  0  0  0  0  0  0  0  0  0
  160.6360  213.6650  149.2150 C   0  0  0  0  0  1  0  0  0  0  0  0
  160.9060  212.3150  147.2850 O   0  0  0  0  0  0  0  0  0  0  0  0
  162.1400  204.1480  152.0040 O   0  0  0  0  0  0  0  0  0  0  0  0
  160.0610  203.2000  152.3490 O   0  0  0  0  0  0  0  0  0  0  0  0
  161.0300  203.4090  151.5680 C   0  0  0  0  0  0  0  0  0  0  0  0
  161.0200  201.4740  150.0210 C   0  0  0  0  0  3  0  0  0  0  0  0
  160.8310  205.1730  149.0880 C   0  0  0  0  0  1  0  0  0  0  0  0
  160.9740  200.8970  148.7520 C   0  0  0  0  0  3  0  0  0  0  0  0
  160.8390  203.0940  147.7630 C   0  0  0  0  0  3  0  0  0  0  0  0
  160.9770  202.8680  150.1860 C   0  0  0  0  0  0  0  0  0  0  0  0
  160.8850  203.6840  149.0300 C   0  0  0  0  0  0  0  0  0  0  0  0
  160.8840  201.7020  147.6140 C   0  0  0  0  0  0  0  0  0  0  0  0
  160.8350  201.0910  146.2770 C   0  0  0  0  0  0  0  0  0  0  0  0
  161.1980  199.7610  146.1010 O   0  0  0  0  0  1  0  0  0  0  0  0
  160.4650  201.7660  145.2790 O   0  0  0  0  0  0  0  0  0  0  0  0
  1  2  1  0  0  0  0
  2 15  1  0  0  0  0
  3  1  2  0  0  0  0
  5 13  1  0  0  0  0
  6  5  2  0  0  0  0
  7  6  1  0  0  0  0
  7  8  2  0  0  0  0
  8 11  1  0  0  0  0
  9  7  1  0  0  0  0
 10 14  1  0  0  0  0
 11 13  1  0  0  0  0
 11 15  2  0  0  0  0
 12 14  2  0  0  0  0
 13 10  2  0  0  0  0
 14  4  1  0  0  0  0
 15 12  1  0  0  0  0
 16  6  1  0  0  0  0
 17 16  1  0  0  0  0
 17 18  1  0  0  0  0
 19 17  2  0  0  0  0
 20  1  1  0  0  0  0
 22 20  1  0  0  0  0
 22 21  2  0  0  0  0
 23 27  1  0  0  0  0
 25 23  2  0  0  0  0
 26 28  1  0  0  0  0
 27 22  1  0  0  0  0
 28 24  1  0  0  0  0
 28 27  2  0  0  0  0
 29 26  2  0  0  0  0
 29 25  1  0  0  0  0
 30 29  1  0  0  0  0
 31 30  1  0  0  0  0
 32 30  2  0  0  0  0
M  END
>  <MODEL>
7

>  <REMARK>
 VINA RESULT:      -8.0      3.279      4.359
  Name = 
  7 active torsions:
  status: ('A' for Active; 'I' for Inactive)
    1  A    between atoms: C_5  and  O_10
    2  A    between atoms: C_6  and  C_21
    3  A    between atoms: O_10  and  C_15
    4  A    between atoms: C_17  and  C_29
    5  A    between atoms: C_19  and  O_30
    6  A    between atoms: N_22  and  C_31
    7  A    between atoms: C_29  and  O_30
                            x       y       z     vdW  Elec       q    Type
                         _______ _______ _______ _____ _____    ______ ____

>  <TORSDO>
F 7

$$$$
=
 OpenBabel11042422593D

 32 34  0  0  0  0  0  0  0  0999 V2000
  161.2740  207.8630  152.3120 C   0  0  0  0  0  0  0  0  0  0  0  0
  161.2800  207.1870  151.0500 N   0  0  0  0  0  2  0  0  0  0  0  0
  160.8950  207.2580  153.3530 O   0  0  0  0  0  0  0  0  0  0  0  0
  160.5360  202.8120  152.9140 F   0  0  0  0  0  0  0  0  0  0  0  0
  161.2960  203.1640  148.2850 N   0  0  0  0  0  0  0  0  0  0  0  0
  161.5080  203.8920  147.1530 C   0  0  0  0  0  0  0  0  0  0  0  0
  161.6040  205.2890  147.2520 C   0  0  0  0  0  0  0  0  0  0  0  0
  161.4970  205.8850  148.4680 N   0  0  0  0  0  0  0  0  0  0  0  0
  161.8230  206.1300  146.0420 C   0  0  0  0  0  1  0  0  0  0  0  0
  160.9400  203.0110  150.6090 N   0  0  0  0  0  0  0  0  0  0  0  0
  161.3060  205.1590  149.6010 C   0  0  0  0  0  0  0  0  0  0  0  0
  160.9050  204.9700  151.9780 C   0  0  0  0  0  3  0  0  0  0  0  0
  161.1870  203.7580  149.5010 C   0  0  0  0  0  0  0  0  0  0  0  0
  160.7930  203.5850  151.8320 C   0  0  0  0  0  0  0  0  0  0  0  0
  161.1860  205.7680  150.8650 C   0  0  0  0  0  0  0  0  0  0  0  0
  161.6240  203.2740  145.8980 O   0  0  0  0  0  0  0  0  0  0  0  0
  160.5520  202.8540  145.0990 C   0  0  0  0  0  0  0  0  0  0  0  0
  160.1230  201.4330  145.1550 C   0  0  0  0  0  1  0  0  0  0  0  0
  159.9460  203.6500  144.3340 O   0  0  0  0  0  0  0  0  0  0  0  0
  161.6450  209.2120  152.3560 O   0  0  0  0  0  0  0  0  0  0  0  0
  162.5390  210.4500  154.0890 O   0  0  0  0  0  0  0  0  0  0  0  0
  161.5140  210.0520  153.4710 C   0  0  0  0  0  0  0  0  0  0  0  0
  159.3910  211.2640  153.0620 C   0  0  0  0  0  3  0  0  0  0  0  0
  160.3840  209.3500  156.2160 C   0  0  0  0  0  1  0  0  0  0  0  0
  158.1220  211.7090  153.4330 C   0  0  0  0  0  3  0  0  0  0  0  0
  158.3690  210.6170  155.5710 C   0  0  0  0  0  3  0  0  0  0  0  0
  160.1720  210.4890  153.9350 C   0  0  0  0  0  0  0  0  0  0  0  0
  159.6430  210.1660  155.2100 C   0  0  0  0  0  0  0  0  0  0  0  0
  157.6020  211.3890  154.6900 C   0  0  0  0  0  0  0  0  0  0  0  0
  156.2640  211.8590  155.0780 C   0  0  0  0  0  0  0  0  0  0  0  0
  155.8290  213.1250  154.7020 O   0  0  0  0  0  0  0  0  0  0  0  0
  155.4980  211.1220  155.7550 O   0  0  0  0  0  1  0  0  0  0  0  0
  1 20  1  0  0  0  0
  1  3  2  0  0  0  0
  2  1  1  0  0  0  0
  5 13  1  0  0  0  0
  6  7  1  0  0  0  0
  6  5  2  0  0  0  0
  7  8  2  0  0  0  0
  8 11  1  0  0  0  0
  9  7  1  0  0  0  0
 10 14  1  0  0  0  0
 11 15  2  0  0  0  0
 13 11  1  0  0  0  0
 13 10  2  0  0  0  0
 14 12  2  0  0  0  0
 14  4  1  0  0  0  0
 15  2  1  0  0  0  0
 15 12  1  0  0  0  0
 16  6  1  0  0  0  0
 17 18  1  0  0  0  0
 17 16  1  0  0  0  0
 19 17  2  0  0  0  0
 20 22  1  0  0  0  0
 22 27  1  0  0  0  0
 22 21  2  0  0  0  0
 23 25  2  0  0  0  0
 23 27  1  0  0  0  0
 25 29  1  0  0  0  0
 27 28  2  0  0  0  0
 28 26  1  0  0  0  0
 28 24  1  0  0  0  0
 29 30  1  0  0  0  0
 29 26  2  0  0  0  0
 30 32  1  0  0  0  0
 31 30  2  0  0  0  0
M  END
>  <MODEL>
8

>  <REMARK>
 VINA RESULT:      -8.0      2.788      9.437
  Name = 
  7 active torsions:
  status: ('A' for Active; 'I' for Inactive)
    1  A    between atoms: C_5  and  O_10
    2  A    between atoms: C_6  and  C_21
    3  A    between atoms: O_10  and  C_15
    4  A    between atoms: C_17  and  C_29
    5  A    between atoms: C_19  and  O_30
    6  A    between atoms: N_22  and  C_31
    7  A    between atoms: C_29  and  O_30
                            x       y       z     vdW  Elec       q    Type
                         _______ _______ _______ _____ _____    ______ ____

>  <TORSDO>
F 7

$$$$
=
 OpenBabel11042422593D

 32 34  0  0  0  0  0  0  0  0999 V2000
  161.1830  204.5320  151.8460 C   0  0  0  0  0  0  0  0  0  0  0  0
  162.1890  205.5410  151.9690 N   0  0  0  0  0  2  0  0  0  0  0  0
  159.9650  204.8300  151.9920 O   0  0  0  0  0  0  0  0  0  0  0  0
  162.3090  209.7130  149.5710 F   0  0  0  0  0  0  0  0  0  0  0  0
  160.6430  209.7170  153.9700 N   0  0  0  0  0  0  0  0  0  0  0  0
  160.2830  209.0830  155.1200 C   0  0  0  0  0  0  0  0  0  0  0  0
  160.4740  207.6950  155.2180 C   0  0  0  0  0  0  0  0  0  0  0  0
  161.0200  207.0170  154.1750 N   0  0  0  0  0  0  0  0  0  0  0  0
  160.0860  206.9530  156.4500 C   0  0  0  0  0  1  0  0  0  0  0  0
  161.5030  209.6940  151.7770 N   0  0  0  0  0  0  0  0  0  0  0  0
  161.3970  207.6520  153.0340 C   0  0  0  0  0  0  0  0  0  0  0  0
  162.2440  207.6570  150.7690 C   0  0  0  0  0  3  0  0  0  0  0  0
  161.1870  209.0410  152.9260 C   0  0  0  0  0  0  0  0  0  0  0  0
  162.0170  209.0340  150.7050 C   0  0  0  0  0  0  0  0  0  0  0  0
  161.9570  206.9570  151.9440 C   0  0  0  0  0  0  0  0  0  0  0  0
  159.7250  209.7850  156.1990 O   0  0  0  0  0  0  0  0  0  0  0  0
  159.3330  211.1300  156.1750 C   0  0  0  0  0  0  0  0  0  0  0  0
  157.8940  211.4600  156.0030 C   0  0  0  0  0  1  0  0  0  0  0  0
  160.1680  212.0650  156.2940 O   0  0  0  0  0  0  0  0  0  0  0  0
  161.5790  203.2100  151.6140 O   0  0  0  0  0  0  0  0  0  0  0  0
  160.7470  201.2400  150.7380 O   0  0  0  0  0  0  0  0  0  0  0  0
  161.1610  202.4160  150.5360 C   0  0  0  0  0  0  0  0  0  0  0  0
  161.2060  204.3380  148.9730 C   0  0  0  0  0  3  0  0  0  0  0  0
  161.2060  200.6270  148.0650 C   0  0  0  0  0  1  0  0  0  0  0  0
  161.2370  204.9040  147.6990 C   0  0  0  0  0  3  0  0  0  0  0  0
  161.2460  202.6960  146.7240 C   0  0  0  0  0  3  0  0  0  0  0  0
  161.1940  202.9440  149.1490 C   0  0  0  0  0  0  0  0  0  0  0  0
  161.2150  202.1170  147.9970 C   0  0  0  0  0  0  0  0  0  0  0  0
  161.2570  204.0870  146.5650 C   0  0  0  0  0  0  0  0  0  0  0  0
  161.2890  204.6860  145.2220 C   0  0  0  0  0  0  0  0  0  0  0  0
  162.2360  205.6540  144.9090 O   0  0  0  0  0  1  0  0  0  0  0  0
  160.4610  204.3280  144.3420 O   0  0  0  0  0  0  0  0  0  0  0  0
  1  2  1  0  0  0  0
  1  3  2  0  0  0  0
  4 14  1  0  0  0  0
  5  6  2  0  0  0  0
  6  7  1  0  0  0  0
  6 16  1  0  0  0  0
  7  9  1  0  0  0  0
  8  7  2  0  0  0  0
 10 13  1  0  0  0  0
 11  8  1  0  0  0  0
 12 15  2  0  0  0  0
 13 11  2  0  0  0  0
 13  5  1  0  0  0  0
 14 12  1  0  0  0  0
 14 10  2  0  0  0  0
 15  2  1  0  0  0  0
 15 11  1  0  0  0  0
 17 16  1  0  0  0  0
 17 19  2  0  0  0  0
 18 17  1  0  0  0  0
 20  1  1  0  0  0  0
 22 21  2  0  0  0  0
 22 20  1  0  0  0  0
 23 27  1  0  0  0  0
 25 23  2  0  0  0  0
 26 28  1  0  0  0  0
 27 22  1  0  0  0  0
 28 24  1  0  0  0  0
 28 27  2  0  0  0  0
 29 26  2  0  0  0  0
 29 25  1  0  0  0  0
 30 29  1  0  0  0  0
 31 30  1  0  0  0  0
 32 30  2  0  0  0  0
M  END
>  <MODEL>
9

>  <REMARK>
 VINA RESULT:      -7.9      2.851      4.502
  Name = 
  7 active torsions:
  status: ('A' for Active; 'I' for Inactive)
    1  A    between atoms: C_5  and  O_10
    2  A    between atoms: C_6  and  C_21
    3  A    between atoms: O_10  and  C_15
    4  A    between atoms: C_17  and  C_29
    5  A    between atoms: C_19  and  O_30
    6  A    between atoms: N_22  and  C_31
    7  A    between atoms: C_29  and  O_30
                            x       y       z     vdW  Elec       q    Type
                         _______ _______ _______ _____ _____    ______ ____

>  <TORSDO>
F 7

$$$$
