=
 OpenBabel11052409303D

 67 73  0  0  1  0  0  0  0  0999 V2000
  161.1900  208.7220  152.9230 C   0  0  0  0  0  0  0  0  0  0  0  0
  161.3720  210.1700  153.2820 C   0  0  0  0  0  0  0  0  0  0  0  0
  159.9100  210.2030  155.2780 C   0  0  0  0  0  0  0  0  0  0  0  0
  161.1710  207.7990  153.8870 C   0  0  0  0  0  3  0  0  0  0  0  0
  161.2560  209.2420  150.5490 C   0  0  0  0  0  3  0  0  0  0  0  0
  160.6780  209.1500  155.8930 N   0  0  0  0  0  0  0  0  0  0  0  0
  160.1770  210.6770  154.0410 C   0  0  0  0  0  0  0  0  0  0  0  0
  161.6290  210.6350  150.8800 C   0  0  0  0  0  0  0  0  0  0  0  0
  161.2170  208.1030  155.3300 C   0  0  0  0  0  3  0  0  0  0  0  0
  161.6960  211.0160  152.1240 N   0  0  0  0  0  0  0  0  0  0  0  0
  161.0580  208.3350  151.5020 C   0  0  2  0  0  3  0  0  0  0  0  0
  162.4430  213.5230  147.7060 C   0  0  0  0  0  0  0  0  0  0  0  0
  163.0710  212.1920  147.7190 C   0  0  0  0  0  0  0  0  0  0  0  0
  163.8680  211.8460  146.8080 O   0  0  0  0  0  0  0  0  0  0  0  0
  161.9390  211.6060  149.8080 C   0  0  0  0  0  0  0  0  0  0  0  0
  161.6320  213.8820  148.7020 C   0  0  0  0  0  3  0  0  0  0  0  0
  161.3840  213.0120  149.9090 C   0  0  0  0  0  2  0  0  0  0  0  0
  162.7440  211.2520  148.7960 C   0  0  0  0  0  3  0  0  0  0  0  0
  162.6420  214.4520  146.5560 C   0  0  0  0  0  2  0  0  0  0  0  0
  162.5980  213.7370  145.3590 O   0  0  0  0  0  1  0  0  0  0  0  0
  158.6240  212.5190  152.9270 C   0  0  0  0  0  0  0  0  0  0  0  0
  159.3250  211.6780  153.4300 C   0  0  0  0  0  0  0  0  0  0  0  0
  157.7660  213.5480  152.3330 C   0  0  0  0  0  2  0  0  0  0  0  0
  158.7420  212.6550  148.9630 O   0  0  0  0  0  0  0  0  0  0  0  0
  158.4720  214.0330  148.8600 C   0  0  2  0  0  3  0  0  0  0  0  0
  157.6040  214.4520  150.0360 C   0  0  0  0  0  2  0  0  0  0  0  0
  157.5000  213.2200  150.8750 C   0  0  1  0  0  3  0  0  0  0  0  0
  158.5830  212.3340  150.3160 C   0  0  0  0  0  2  0  0  0  0  0  0
  156.7690  212.9020  145.7530 C   0  0  0  0  0  2  0  0  0  0  0  0
  156.2720  214.4190  147.7230 C   0  0  0  0  0  2  0  0  0  0  0  0
  158.0550  213.2590  146.4890 C   0  0  2  0  0  3  0  0  0  0  0  0
  155.5200  214.1720  146.1010 S   0  0  0  0  0  0  0  0  0  0  0  0
  157.7740  214.3370  147.5330 C   0  0  2  0  0  3  0  0  0  0  0  0
  158.8210  214.4520  144.5880 O   0  0  0  0  0  0  0  0  0  0  0  0
  159.1040  213.7200  145.5220 C   0  0  0  0  0  3  0  0  0  0  0  0
  158.0170  211.2560  156.7190 N   0  0  0  0  0  0  0  0  0  0  0  0
  158.8580  210.7870  156.0780 C   0  0  0  0  0  0  0  0  0  0  0  0
  160.6570  206.9490  151.1090 C   0  0  0  0  0  2  0  0  0  0  0  0
  161.2400  205.9470  152.0930 C   0  0  0  0  0  2  0  0  0  0  0  0
  162.1240  204.9400  151.3740 C   0  0  0  0  0  2  0  0  0  0  0  0
  160.6900  203.1080  150.8450 O   0  0  0  0  0  0  0  0  0  0  0  0
  161.3170  204.1140  150.4200 C   0  0  0  0  0  0  0  0  0  0  0  0
  161.2550  204.4420  149.0330 N   0  0  0  0  0  2  0  0  0  0  0  0
  161.8260  205.6680  148.4950 C   0  0  0  0  0  2  0  0  0  0  0  0
  161.6790  204.0670  144.9890 C   0  0  2  0  0  3  0  0  0  0  0  0
  161.0100  206.4820  144.9680 C   0  0  0  0  0  2  0  0  0  0  0  0
  161.6640  204.1430  146.5180 C   0  0  1  0  0  3  0  0  0  0  0  0
  162.6740  203.3240  147.0300 O   0  0  0  0  0  1  0  0  0  0  0  0
  161.8790  205.5870  146.9810 C   0  0  1  0  0  3  0  0  0  0  0  0
  160.7270  205.1020  144.3800 C   0  0  1  0  0  3  0  0  0  0  0  0
  160.8420  206.4500  146.4180 N   0  0  0  0  0  2  0  0  0  0  0  0
  161.2990  202.7790  144.5890 O   0  0  0  0  0  0  0  0  0  0  0  0
  160.3520  202.4200  145.4340 O   0  0  0  0  0  0  0  0  0  0  0  0
  160.7180  201.1430  145.8730 C   0  0  0  0  0  2  0  0  0  0  0  0
  160.1820  200.8890  147.2730 C   0  0  0  0  0  2  0  0  0  0  0  0
  161.3100  200.9140  148.2870 C   0  0  0  0  0  2  0  0  0  0  0  0
  160.7670  200.5520  149.6530 C   0  0  0  0  0  2  0  0  0  0  0  0
  159.2840  200.8510  149.6970 C   0  0  0  0  0  1  0  0  0  0  0  0
  160.9130  205.1620  142.8740 C   0  0  0  0  0  2  0  0  0  0  0  0
  161.8260  206.1960  142.5320 O   0  0  0  0  0  0  0  0  0  0  0  0
  162.5400  205.8880  140.1630 C   0  0  0  0  0  2  0  0  0  0  0  0
  161.8090  208.1990  137.3570 F   0  0  0  0  0  0  0  0  0  0  0  0
  161.3760  207.8940  140.9780 N   0  0  0  0  0  0  0  0  0  0  0  0
  161.4400  208.5550  139.6740 C   0  0  0  0  0  2  0  0  0  0  0  0
  161.5950  207.5390  138.5520 C   0  0  2  0  0  3  0  0  0  0  0  0
  162.7950  206.6660  138.8740 C   0  0  0  0  0  2  0  0  0  0  0  0
  161.9060  206.7300  141.2420 C   0  0  0  0  0  0  0  0  0  0  0  0
  1  2  1  0  0  0  0
  1  4  2  0  0  0  0
  2  7  1  0  0  0  0
  3  6  1  0  0  0  0
  3 37  1  0  0  0  0
  4  9  1  0  0  0  0
  5  8  2  0  0  0  0
  5 11  1  0  0  0  0
  7  3  2  0  0  0  0
  8 10  1  0  0  0  0
  9  6  2  0  0  0  0
 10  2  2  0  0  0  0
 11 38  1  1  0  0  0
 11  1  1  0  0  0  0
 12 13  1  0  0  0  0
 12 16  2  0  0  0  0
 13 18  1  0  0  0  0
 14 13  2  0  0  0  0
 15 17  1  0  0  0  0
 15  8  1  0  0  0  0
 16 17  1  0  0  0  0
 18 15  2  0  0  0  0
 19 12  1  0  0  0  0
 20 19  1  0  0  0  0
 21 22  3  0  0  0  0
 22  7  1  0  0  0  0
 23 21  1  0  0  0  0
 24 28  1  0  0  0  0
 25 24  1  0  0  0  0
 25 26  1  1  0  0  0
 26 27  1  0  0  0  0
 27 23  1  1  0  0  0
 28 27  1  0  0  0  0
 29 32  1  0  0  0  0
 29 31  1  0  0  0  0
 31 35  1  6  0  0  0
 31 33  1  0  0  0  0
 32 30  1  0  0  0  0
 33 30  1  1  0  0  0
 33 25  1  0  0  0  0
 34 35  2  0  0  0  0
 37 36  3  0  0  0  0
 38 39  1  0  0  0  0
 40 39  1  0  0  0  0
 42 41  2  0  0  0  0
 42 40  1  0  0  0  0
 43 42  1  0  0  0  0
 44 43  1  0  0  0  0
 45 52  1  1  0  0  0
 45 47  1  0  0  0  0
 46 51  1  0  0  0  0
 47 49  1  0  0  0  0
 47 48  1  1  0  0  0
 49 44  1  1  0  0  0
 50 59  1  6  0  0  0
 50 46  1  0  0  0  0
 50 45  1  0  0  0  0
 51 49  1  0  0  0  0
 52 53  1  0  0  0  0
 53 54  1  0  0  0  0
 54 55  1  0  0  0  0
 55 56  1  0  0  0  0
 56 57  1  0  0  0  0
 57 58  1  0  0  0  0
 60 59  1  0  0  0  0
 61 67  1  0  0  0  0
 63 67  2  0  0  0  0
 64 63  1  0  0  0  0
 65 62  1  6  0  0  0
 65 66  1  0  0  0  0
 65 64  1  0  0  0  0
 66 61  1  0  0  0  0
 67 60  1  0  0  0  0
M  END
>  <MODEL>
1

>  <REMARK>
 VINA RESULT:      -2.3      0.000      0.000
  Name = 
  23 active torsions:
  status: ('A' for Active; 'I' for Inactive)
    1  A    between atoms: C_1  and  C_32
    2  A    between atoms: C_1  and  C_52
    3  A    between atoms: C_3  and  C_13
    4  A    between atoms: C_4  and  C_60
    5  A    between atoms: C_5  and  O_63
    6  A    between atoms: C_7  and  C_31
    7  A    between atoms: C_7  and  O_47
    8  A    between atoms: C_12  and  C_59
    9  A    between atoms: C_12  and  C_66
   10  A    between atoms: O_19  and  C_22
   11  A    between atoms: O_19  and  O_63
   12  A    between atoms: C_20  and  C_41
   13  A    between atoms: C_21  and  C_50
   14  A    between atoms: C_22  and  C_52
   15  A    between atoms: C_24  and  C_29
   16  A    between atoms: C_25  and  C_42
   17  A    between atoms: C_37  and  C_53
   18  A    between atoms: C_37  and  C_59
   19  A    between atoms: C_41  and  N_56
   20  A    between atoms: C_44  and  C_51
   21  A    between atoms: C_45  and  C_60
   22  A    between atoms: C_46  and  C_49
   23  A    between atoms: O_47  and  C_62
                            x       y       z     vdW  Elec       q    Type
                         _______ _______ _______ _____ _____    ______ ____

>  <TORSDO>
F 23

$$$$
=
 OpenBabel11052409303D

 67 73  0  0  1  0  0  0  0  0999 V2000
  161.7960  208.9440  150.0090 C   0  0  2  0  0  3  0  0  0  0  0  0
  162.5060  208.0220  150.9600 C   0  0  0  0  0  0  0  0  0  0  0  0
  161.1860  205.9820  150.4930 C   0  0  0  0  0  0  0  0  0  0  0  0
  161.4480  208.5050  148.7980 C   0  0  0  0  0  3  0  0  0  0  0  0
  162.0210  210.8060  151.5560 C   0  0  0  0  0  3  0  0  0  0  0  0
  161.5160  206.0550  149.0920 N   0  0  0  0  0  0  0  0  0  0  0  0
  161.5940  206.9060  151.3900 C   0  0  0  0  0  0  0  0  0  0  0  0
  162.8870  209.9700  152.4150 C   0  0  0  0  0  0  0  0  0  0  0  0
  161.6220  207.1140  148.3370 C   0  0  0  0  0  3  0  0  0  0  0  0
  163.1060  208.7230  152.1050 N   0  0  0  0  0  0  0  0  0  0  0  0
  161.5120  210.3360  150.4200 C   0  0  0  0  0  0  0  0  0  0  0  0
  164.8470  211.5890  155.9660 C   0  0  0  0  0  0  0  0  0  0  0  0
  163.4530  211.1190  156.0000 C   0  0  0  0  0  0  0  0  0  0  0  0
  162.7800  211.1720  157.0630 O   0  0  0  0  0  0  0  0  0  0  0  0
  163.5220  210.5370  153.6240 C   0  0  0  0  0  0  0  0  0  0  0  0
  165.5290  211.5600  154.8190 C   0  0  0  0  0  3  0  0  0  0  0  0
  164.9080  211.1400  153.5100 C   0  0  0  0  0  2  0  0  0  0  0  0
  162.8510  210.5620  154.7850 C   0  0  0  0  0  3  0  0  0  0  0  0
  165.5360  212.0310  157.2130 C   0  0  0  0  0  2  0  0  0  0  0  0
  166.3630  213.1200  156.9340 O   0  0  0  0  0  1  0  0  0  0  0  0
  160.8100  206.7930  153.9230 C   0  0  0  0  0  0  0  0  0  0  0  0
  161.1670  206.8380  152.7740 C   0  0  0  0  0  0  0  0  0  0  0  0
  160.3880  206.7520  155.3260 C   0  0  0  0  0  2  0  0  0  0  0  0
  158.3240  209.7230  155.4420 O   0  0  0  0  0  0  0  0  0  0  0  0
  159.3940  210.1130  154.6160 C   0  0  2  0  0  3  0  0  0  0  0  0
  160.5660  209.1740  154.8530 C   0  0  0  0  0  2  0  0  0  0  0  0
  160.0300  208.1480  155.7990 C   0  0  1  0  0  3  0  0  0  0  0  0
  158.5410  208.3730  155.7380 C   0  0  0  0  0  2  0  0  0  0  0  0
  158.5180  213.7100  154.9800 C   0  0  0  0  0  2  0  0  0  0  0  0
  159.5840  211.8830  156.3790 C   0  0  0  0  0  2  0  0  0  0  0  0
  158.9610  212.5510  154.0950 C   0  0  2  0  0  3  0  0  0  0  0  0
  159.4830  213.6810  156.5170 S   0  0  0  0  0  0  0  0  0  0  0  0
  159.7890  211.5620  154.9120 C   0  0  2  0  0  3  0  0  0  0  0  0
  159.1960  213.3220  151.8660 O   0  0  0  0  0  0  0  0  0  0  0  0
  159.7450  213.0540  152.9220 C   0  0  0  0  0  3  0  0  0  0  0  0
  159.8350  203.8960  151.2630 N   0  0  0  0  0  0  0  0  0  0  0  0
  160.4360  204.8240  150.9210 C   0  0  0  0  0  0  0  0  0  0  0  0
  160.6220  211.2190  149.6060 C   0  0  0  0  0  2  0  0  0  0  0  0
  161.4620  212.0910  148.6870 C   0  0  0  0  0  2  0  0  0  0  0  0
  161.1620  211.7800  147.2290 C   0  0  0  0  0  2  0  0  0  0  0  0
  158.9280  212.5750  147.4860 O   0  0  0  0  0  0  0  0  0  0  0  0
  159.9590  212.5400  146.7630 C   0  0  0  0  0  0  0  0  0  0  0  0
  159.9560  213.2160  145.5070 N   0  0  0  0  0  2  0  0  0  0  0  0
  161.1530  213.3470  144.6890 C   0  0  0  0  0  2  0  0  0  0  0  0
  161.4970  214.1680  140.9360 C   0  0  2  0  0  3  0  0  0  0  0  0
  159.1060  214.0300  141.6700 C   0  0  0  0  0  2  0  0  0  0  0  0
  161.8840  213.6190  142.3120 C   0  0  1  0  0  3  0  0  0  0  0  0
  163.0890  214.1980  142.7170 O   0  0  0  0  0  1  0  0  0  0  0  0
  160.7870  213.9260  143.3350 C   0  0  1  0  0  3  0  0  0  0  0  0
  160.0860  213.7190  140.5430 C   0  0  1  0  0  3  0  0  0  0  0  0
  159.5180  213.3490  142.8940 N   0  0  0  0  0  2  0  0  0  0  0  0
  162.4210  213.7180  139.9840 O   0  0  0  0  0  0  0  0  0  0  0  0
  162.0560  212.4820  139.7060 O   0  0  0  0  0  0  0  0  0  0  0  0
  162.4940  212.2560  138.3960 C   0  0  0  0  0  2  0  0  0  0  0  0
  162.6000  210.7650  138.1210 C   0  0  0  0  0  2  0  0  0  0  0  0
  161.8700  209.9740  139.1910 C   0  0  0  0  0  2  0  0  0  0  0  0
  162.2480  208.5120  139.0830 C   0  0  0  0  0  2  0  0  0  0  0  0
  161.4770  207.7190  140.1160 C   0  0  0  0  0  1  0  0  0  0  0  0
  159.6370  214.4430  139.2860 C   0  0  0  0  0  2  0  0  0  0  0  0
  159.4170  213.5120  138.2340 O   0  0  0  0  0  0  0  0  0  0  0  0
  158.8640  211.0870  138.0730 C   0  0  0  0  0  2  0  0  0  0  0  0
  155.5860  209.5500  138.8750 F   0  0  0  0  0  0  0  0  0  0  0  0
  157.2140  212.8190  138.6410 N   0  0  0  0  0  0  0  0  0  0  0  0
  156.1130  211.8570  138.7060 C   0  0  0  0  0  2  0  0  0  0  0  0
  156.6280  210.4510  138.9760 C   0  0  2  0  0  3  0  0  0  0  0  0
  157.6810  210.1310  137.9290 C   0  0  0  0  0  2  0  0  0  0  0  0
  158.4390  212.5150  138.3070 C   0  0  0  0  0  0  0  0  0  0  0  0
  1  4  1  6  0  0  0
  1 11  1  0  0  0  0
  1  2  1  0  0  0  0
  2  7  2  0  0  0  0
  2 10  1  0  0  0  0
  3 37  1  0  0  0  0
  3  7  1  0  0  0  0
  5  8  1  0  0  0  0
  6  3  2  0  0  0  0
  7 22  1  0  0  0  0
  8 15  1  0  0  0  0
  9  4  2  0  0  0  0
  9  6  1  0  0  0  0
 10  8  2  0  0  0  0
 11  5  2  0  0  0  0
 12 13  1  0  0  0  0
 12 19  1  0  0  0  0
 13 14  2  0  0  0  0
 15 18  2  0  0  0  0
 16 12  2  0  0  0  0
 17 15  1  0  0  0  0
 17 16  1  0  0  0  0
 18 13  1  0  0  0  0
 20 19  1  0  0  0  0
 21 23  1  0  0  0  0
 22 21  3  0  0  0  0
 24 28  1  0  0  0  0
 25 26  1  1  0  0  0
 25 33  1  0  0  0  0
 25 24  1  0  0  0  0
 26 27  1  0  0  0  0
 27 23  1  6  0  0  0
 28 27  1  0  0  0  0
 29 32  1  0  0  0  0
 30 32  1  0  0  0  0
 31 35  1  6  0  0  0
 31 33  1  0  0  0  0
 31 29  1  0  0  0  0
 33 30  1  1  0  0  0
 34 35  2  0  0  0  0
 37 36  3  0  0  0  0
 38 11  1  0  0  0  0
 39 38  1  0  0  0  0
 40 39  1  0  0  0  0
 42 40  1  0  0  0  0
 42 41  2  0  0  0  0
 43 42  1  0  0  0  0
 44 43  1  0  0  0  0
 45 52  1  6  0  0  0
 45 47  1  0  0  0  0
 46 51  1  0  0  0  0
 47 48  1  1  0  0  0
 47 49  1  0  0  0  0
 49 44  1  1  0  0  0
 50 59  1  6  0  0  0
 50 45  1  0  0  0  0
 50 46  1  0  0  0  0
 51 49  1  0  0  0  0
 53 52  1  0  0  0  0
 54 53  1  0  0  0  0
 55 54  1  0  0  0  0
 55 56  1  0  0  0  0
 57 56  1  0  0  0  0
 57 58  1  0  0  0  0
 60 67  1  0  0  0  0
 60 59  1  0  0  0  0
 61 67  1  0  0  0  0
 63 64  1  0  0  0  0
 64 65  1  0  0  0  0
 65 62  1  6  0  0  0
 66 61  1  0  0  0  0
 66 65  1  0  0  0  0
 67 63  2  0  0  0  0
M  END
>  <MODEL>
2

>  <REMARK>
 VINA RESULT:      -1.8      4.141      8.437
  Name = 
  23 active torsions:
  status: ('A' for Active; 'I' for Inactive)
    1  A    between atoms: C_1  and  C_32
    2  A    between atoms: C_1  and  C_52
    3  A    between atoms: C_3  and  C_13
    4  A    between atoms: C_4  and  C_60
    5  A    between atoms: C_5  and  O_63
    6  A    between atoms: C_7  and  C_31
    7  A    between atoms: C_7  and  O_47
    8  A    between atoms: C_12  and  C_59
    9  A    between atoms: C_12  and  C_66
   10  A    between atoms: O_19  and  C_22
   11  A    between atoms: O_19  and  O_63
   12  A    between atoms: C_20  and  C_41
   13  A    between atoms: C_21  and  C_50
   14  A    between atoms: C_22  and  C_52
   15  A    between atoms: C_24  and  C_29
   16  A    between atoms: C_25  and  C_42
   17  A    between atoms: C_37  and  C_53
   18  A    between atoms: C_37  and  C_59
   19  A    between atoms: C_41  and  N_56
   20  A    between atoms: C_44  and  C_51
   21  A    between atoms: C_45  and  C_60
   22  A    between atoms: C_46  and  C_49
   23  A    between atoms: O_47  and  C_62
                            x       y       z     vdW  Elec       q    Type
                         _______ _______ _______ _____ _____    ______ ____

>  <TORSDO>
F 23

$$$$
=
 OpenBabel11052409303D

 67 73  0  0  1  0  0  0  0  0999 V2000
  158.7580  210.1080  156.3150 C   0  0  0  0  0  0  0  0  0  0  0  0
  159.1220  211.5670  156.3070 C   0  0  0  0  0  0  0  0  0  0  0  0
  157.0660  212.4160  155.2230 C   0  0  0  0  0  0  0  0  0  0  0  0
  157.5120  209.7400  156.6190 C   0  0  0  0  0  3  0  0  0  0  0  0
  161.0640  209.4710  155.8860 C   0  0  0  0  0  3  0  0  0  0  0  0
  156.2470  211.8280  156.2530 N   0  0  0  0  0  0  0  0  0  0  0  0
  158.4100  212.2790  155.1900 C   0  0  0  0  0  0  0  0  0  0  0  0
  161.4730  210.8810  156.0670 C   0  0  0  0  0  0  0  0  0  0  0  0
  156.4020  210.6820  156.8580 C   0  0  0  0  0  3  0  0  0  0  0  0
  160.5740  211.7990  156.2790 N   0  0  0  0  0  0  0  0  0  0  0  0
  159.7940  209.0980  156.0110 C   0  0  2  0  0  3  0  0  0  0  0  0
  165.6650  212.1030  155.9640 C   0  0  0  0  0  0  0  0  0  0  0  0
  165.0420  211.3840  154.8410 C   0  0  0  0  0  0  0  0  0  0  0  0
  165.7070  211.0980  153.8110 O   0  0  0  0  0  0  0  0  0  0  0  0
  162.9010  211.2630  156.0200 C   0  0  0  0  0  0  0  0  0  0  0  0
  164.9520  212.3620  157.0620 C   0  0  0  0  0  3  0  0  0  0  0  0
  163.5380  211.8730  157.2520 C   0  0  0  0  0  2  0  0  0  0  0  0
  163.6250  211.0180  154.9180 C   0  0  0  0  0  3  0  0  0  0  0  0
  167.0630  212.6140  155.8650 C   0  0  0  0  0  2  0  0  0  0  0  0
  167.0760  213.9950  156.0590 O   0  0  0  0  0  1  0  0  0  0  0  0
  159.8330  213.2520  153.1720 C   0  0  0  0  0  0  0  0  0  0  0  0
  159.1850  212.8170  154.0890 C   0  0  0  0  0  0  0  0  0  0  0  0
  160.6360  213.7740  152.0620 C   0  0  0  0  0  2  0  0  0  0  0  0
  161.5030  211.5750  149.3210 O   0  0  0  0  0  0  0  0  0  0  0  0
  161.4880  212.8450  148.7150 C   0  0  2  0  0  3  0  0  0  0  0  0
  160.6850  213.7960  149.5890 C   0  0  0  0  0  2  0  0  0  0  0  0
  160.3450  212.9860  150.7980 C   0  0  1  0  0  3  0  0  0  0  0  0
  161.2610  211.7960  150.6820 C   0  0  0  0  0  2  0  0  0  0  0  0
  160.4020  214.4400  145.5350 C   0  0  0  0  0  2  0  0  0  0  0  0
  161.9710  212.5880  146.2700 C   0  0  0  0  0  2  0  0  0  0  0  0
  160.0830  214.0050  146.9600 C   0  0  2  0  0  3  0  0  0  0  0  0
  161.2650  213.0870  144.6850 S   0  0  0  0  0  0  0  0  0  0  0  0
  160.8830  212.7530  147.3120 C   0  0  2  0  0  3  0  0  0  0  0  0
  158.1620  212.6210  147.0930 O   0  0  0  0  0  0  0  0  0  0  0  0
  158.6140  213.7550  147.1170 C   0  0  0  0  0  3  0  0  0  0  0  0
  155.8390  213.8750  153.4520 N   0  0  0  0  0  0  0  0  0  0  0  0
  156.3860  213.2260  154.2400 C   0  0  0  0  0  0  0  0  0  0  0  0
  159.4360  207.6630  155.7910 C   0  0  0  0  0  2  0  0  0  0  0  0
  160.3190  207.0740  154.7020 C   0  0  0  0  0  2  0  0  0  0  0  0
  161.2190  208.1430  154.1020 C   0  0  0  0  0  2  0  0  0  0  0  0
  159.8350  209.6630  152.8910 O   0  0  0  0  0  0  0  0  0  0  0  0
  160.6260  208.6840  152.8380 C   0  0  0  0  0  0  0  0  0  0  0  0
  160.9330  208.1010  151.5720 N   0  0  0  0  0  2  0  0  0  0  0  0
  161.9480  207.0710  151.4140 C   0  0  0  0  0  2  0  0  0  0  0  0
  160.6930  204.0270  149.4050 C   0  0  2  0  0  3  0  0  0  0  0  0
  161.2290  203.4490  151.7840 C   0  0  0  0  0  2  0  0  0  0  0  0
  161.3290  205.3960  149.6620 C   0  0  1  0  0  3  0  0  0  0  0  0
  160.6380  206.3680  148.9340 O   0  0  0  0  0  1  0  0  0  0  0  0
  161.2830  205.7320  151.1550 C   0  0  1  0  0  3  0  0  0  0  0  0
  161.2840  202.9640  150.3380 C   0  0  1  0  0  3  0  0  0  0  0  0
  161.9750  204.6960  151.9210 N   0  0  0  0  0  2  0  0  0  0  0  0
  160.9100  203.6610  148.0710 O   0  0  0  0  0  0  0  0  0  0  0  0
  161.4740  204.7140  147.5120 O   0  0  0  0  0  0  0  0  0  0  0  0
  162.5380  204.2050  146.7590 C   0  0  0  0  0  2  0  0  0  0  0  0
  162.0780  203.8680  145.3500 C   0  0  0  0  0  2  0  0  0  0  0  0
  162.2230  205.0750  144.4410 C   0  0  0  0  0  2  0  0  0  0  0  0
  160.8510  205.5840  144.0560 C   0  0  0  0  0  2  0  0  0  0  0  0
  160.1700  206.1580  145.2800 C   0  0  0  0  0  1  0  0  0  0  0  0
  160.4970  201.6700  150.2230 C   0  0  0  0  0  2  0  0  0  0  0  0
  161.1940  200.7430  149.4010 O   0  0  0  0  0  0  0  0  0  0  0  0
  161.8210  199.6770  147.2370 C   0  0  0  0  0  2  0  0  0  0  0  0
  160.1380  200.2260  143.9780 F   0  0  0  0  0  0  0  0  0  0  0  0
  160.0710  201.3900  147.4470 N   0  0  0  0  0  0  0  0  0  0  0  0
  159.8130  201.4130  146.0070 C   0  0  0  0  0  2  0  0  0  0  0  0
  160.2490  200.1120  145.3510 C   0  0  2  0  0  3  0  0  0  0  0  0
  161.7000  199.8630  145.7260 C   0  0  0  0  0  2  0  0  0  0  0  0
  160.9960  200.6690  148.0190 C   0  0  0  0  0  0  0  0  0  0  0  0
  1  4  2  0  0  0  0
  2  1  1  0  0  0  0
  3  6  1  0  0  0  0
  4  9  1  0  0  0  0
  5 11  1  0  0  0  0
  5  8  2  0  0  0  0
  6  9  2  0  0  0  0
  7  3  2  0  0  0  0
  7  2  1  0  0  0  0
  8 10  1  0  0  0  0
 10  2  2  0  0  0  0
 11 38  1  6  0  0  0
 11  1  1  0  0  0  0
 12 16  2  0  0  0  0
 13 18  1  0  0  0  0
 13 12  1  0  0  0  0
 14 13  2  0  0  0  0
 15  8  1  0  0  0  0
 15 17  1  0  0  0  0
 16 17  1  0  0  0  0
 18 15  2  0  0  0  0
 19 12  1  0  0  0  0
 19 20  1  0  0  0  0
 21 22  3  0  0  0  0
 22  7  1  0  0  0  0
 23 21  1  0  0  0  0
 24 28  1  0  0  0  0
 25 24  1  0  0  0  0
 25 26  1  1  0  0  0
 26 27  1  0  0  0  0
 27 23  1  1  0  0  0
 28 27  1  0  0  0  0
 29 31  1  0  0  0  0
 31 35  1  6  0  0  0
 31 33  1  0  0  0  0
 32 29  1  0  0  0  0
 32 30  1  0  0  0  0
 33 30  1  6  0  0  0
 33 25  1  0  0  0  0
 34 35  2  0  0  0  0
 36 37  3  0  0  0  0
 37  3  1  0  0  0  0
 39 38  1  0  0  0  0
 40 39  1  0  0  0  0
 42 41  2  0  0  0  0
 42 40  1  0  0  0  0
 43 42  1  0  0  0  0
 44 43  1  0  0  0  0
 45 52  1  6  0  0  0
 45 47  1  0  0  0  0
 45 50  1  0  0  0  0
 46 51  1  0  0  0  0
 47 48  1  6  0  0  0
 47 49  1  0  0  0  0
 49 44  1  6  0  0  0
 49 51  1  0  0  0  0
 50 59  1  1  0  0  0
 50 46  1  0  0  0  0
 53 52  1  0  0  0  0
 54 53  1  0  0  0  0
 55 54  1  0  0  0  0
 56 55  1  0  0  0  0
 57 56  1  0  0  0  0
 57 58  1  0  0  0  0
 60 59  1  0  0  0  0
 61 67  1  0  0  0  0
 63 67  2  0  0  0  0
 64 63  1  0  0  0  0
 65 62  1  6  0  0  0
 65 66  1  0  0  0  0
 65 64  1  0  0  0  0
 66 61  1  0  0  0  0
 67 60  1  0  0  0  0
M  END
>  <MODEL>
3

>  <REMARK>
 VINA RESULT:      -1.2      3.201      6.053
  Name = 
  23 active torsions:
  status: ('A' for Active; 'I' for Inactive)
    1  A    between atoms: C_1  and  C_32
    2  A    between atoms: C_1  and  C_52
    3  A    between atoms: C_3  and  C_13
    4  A    between atoms: C_4  and  C_60
    5  A    between atoms: C_5  and  O_63
    6  A    between atoms: C_7  and  C_31
    7  A    between atoms: C_7  and  O_47
    8  A    between atoms: C_12  and  C_59
    9  A    between atoms: C_12  and  C_66
   10  A    between atoms: O_19  and  C_22
   11  A    between atoms: O_19  and  O_63
   12  A    between atoms: C_20  and  C_41
   13  A    between atoms: C_21  and  C_50
   14  A    between atoms: C_22  and  C_52
   15  A    between atoms: C_24  and  C_29
   16  A    between atoms: C_25  and  C_42
   17  A    between atoms: C_37  and  C_53
   18  A    between atoms: C_37  and  C_59
   19  A    between atoms: C_41  and  N_56
   20  A    between atoms: C_44  and  C_51
   21  A    between atoms: C_45  and  C_60
   22  A    between atoms: C_46  and  C_49
   23  A    between atoms: O_47  and  C_62
                            x       y       z     vdW  Elec       q    Type
                         _______ _______ _______ _____ _____    ______ ____

>  <TORSDO>
F 23

$$$$
