=
 OpenBabel11042420293D

 31 33  0  0  1  0  0  0  0  0999 V2000
  161.9270  208.8480  148.6360 C   0  0  0  0  0  2  0  0  0  0  0  0
  161.6750  207.9740  149.8370 C   0  0  0  0  0  3  0  0  0  0  0  0
  162.1670  210.3440  152.4960 N   0  0  0  0  0  0  0  0  0  0  0  0
  162.0330  210.7550  150.1760 N   0  0  0  0  0  0  0  0  0  0  0  0
  162.0080  209.8710  151.2990 C   0  0  0  0  0  0  0  0  0  0  0  0
  162.0170  212.6750  147.9520 C   0  0  0  0  0  0  0  0  0  0  0  0
  161.5230  207.5240  152.2610 C   0  0  1  0  0  3  0  0  0  0  0  0
  161.9790  211.2450  147.8510 N   0  0  0  0  0  2  0  0  0  0  0  0
  162.1890  209.5010  153.6930 C   0  0  2  0  0  3  0  0  0  0  0  0
  161.9560  210.3250  148.9490 C   0  0  0  0  0  0  0  0  0  0  0  0
  162.0200  213.2500  149.0720 O   0  0  0  0  0  0  0  0  0  0  0  0
  162.0500  213.4920  146.7110 C   0  0  0  0  0  1  0  0  0  0  0  0
  161.7230  208.4420  151.0860 C   0  0  0  0  0  0  0  0  0  0  0  0
  161.2270  208.3070  153.5500 C   0  0  2  0  0  3  0  0  0  0  0  0
  161.2480  211.8290  156.9790 C   0  0  0  0  0  1  0  0  0  0  0  0
  161.8550  210.3260  154.8600 C   0  0  0  0  0  0  0  0  0  0  0  0
  161.5800  211.0050  155.8180 C   0  0  0  0  0  0  0  0  0  0  0  0
  160.4530  206.6180  151.9980 O   0  0  0  0  0  0  0  0  0  0  0  0
  160.4560  205.6370  149.7560 C   0  0  0  0  0  3  0  0  0  0  0  0
  160.8310  204.2570  151.7100 C   0  0  0  0  0  3  0  0  0  0  0  0
  160.8590  203.2630  149.4990 C   0  0  0  0  0  0  0  0  0  0  0  0
  160.5800  205.5140  151.1510 C   0  0  0  0  0  0  0  0  0  0  0  0
  160.9660  203.1340  150.8880 C   0  0  0  0  0  3  0  0  0  0  0  0
  160.5910  204.5140  148.9360 C   0  0  0  0  0  3  0  0  0  0  0  0
  162.1120  200.9340  148.9450 O   0  0  0  0  0  1  0  0  0  0  0  0
  161.3380  202.3400  146.7520 C   0  0  0  0  0  1  0  0  0  0  0  0
  159.5380  200.9530  148.4870 O   0  0  0  0  0  0  0  0  0  0  0  0
  160.9900  201.8190  148.4540 P   0  0  2  0  0  0  0  0  0  0  0  0
  161.3550  207.3670  154.7420 C   0  0  0  0  0  2  0  0  0  0  0  0
  160.3460  207.3450  156.9990 C   0  0  0  0  0  1  0  0  0  0  0  0
  160.0520  207.3270  155.5130 C   0  0  0  0  0  2  0  0  0  0  0  0
  1 10  1  0  0  0  0
  1  2  1  0  0  0  0
  2 13  2  0  0  0  0
  3  9  1  0  0  0  0
  4  5  1  0  0  0  0
  5  3  2  0  0  0  0
  6 11  2  0  0  0  0
  7 18  1  6  0  0  0
  7 14  1  0  0  0  0
  8  6  1  0  0  0  0
  8 10  1  0  0  0  0
  9 16  1  1  0  0  0
 10  4  2  0  0  0  0
 12  6  1  0  0  0  0
 13  5  1  0  0  0  0
 13  7  1  0  0  0  0
 14  9  1  0  0  0  0
 14 29  1  1  0  0  0
 16 17  3  0  0  0  0
 17 15  1  0  0  0  0
 19 22  1  0  0  0  0
 21 23  2  0  0  0  0
 22 20  2  0  0  0  0
 22 18  1  0  0  0  0
 23 20  1  0  0  0  0
 24 21  1  0  0  0  0
 24 19  2  0  0  0  0
 28 26  1  6  0  0  0
 28 27  2  0  0  0  0
 28 25  1  0  0  0  0
 28 21  1  0  0  0  0
 29 31  1  0  0  0  0
 31 30  1  0  0  0  0
M  END
>  <MODEL>
1

>  <REMARK>
 VINA RESULT:      -6.0      0.000      0.000
  Name = 
  6 active torsions:
  status: ('A' for Active; 'I' for Inactive)
    1  A    between atoms: O_1  and  C_19
    2  A    between atoms: O_1  and  C_21
    3  A    between atoms: C_12  and  C_25
    4  A    between atoms: C_16  and  P_17
    5  A    between atoms: C_18  and  C_30
    6  A    between atoms: C_18  and  C_31
                            x       y       z     vdW  Elec       q    Type
                         _______ _______ _______ _____ _____    ______ ____

>  <TORSDO>
F 6

$$$$
=
 OpenBabel11042420293D

 31 33  0  0  1  0  0  0  0  0999 V2000
  162.3020  209.5480  148.1980 C   0  0  0  0  0  2  0  0  0  0  0  0
  161.9330  208.4550  149.1660 C   0  0  0  0  0  3  0  0  0  0  0  0
  161.6030  210.3450  152.2080 N   0  0  0  0  0  0  0  0  0  0  0  0
  161.8700  211.1510  150.0060 N   0  0  0  0  0  0  0  0  0  0  0  0
  161.7390  210.0810  150.9440 C   0  0  0  0  0  0  0  0  0  0  0  0
  162.0460  213.4280  148.1570 C   0  0  0  0  0  0  0  0  0  0  0  0
  161.3730  207.5660  151.4020 C   0  0  1  0  0  3  0  0  0  0  0  0
  162.2060  212.0420  147.8280 N   0  0  0  0  0  2  0  0  0  0  0  0
  161.4980  209.3070  153.2340 C   0  0  2  0  0  3  0  0  0  0  0  0
  162.0860  210.9420  148.7380 C   0  0  0  0  0  0  0  0  0  0  0  0
  161.7600  213.7910  149.3290 O   0  0  0  0  0  0  0  0  0  0  0  0
  162.2160  214.4530  147.0960 C   0  0  0  0  0  1  0  0  0  0  0  0
  161.6800  208.6940  150.4550 C   0  0  0  0  0  0  0  0  0  0  0  0
  160.7390  208.0760  152.7060 C   0  0  2  0  0  3  0  0  0  0  0  0
  159.6550  210.9140  156.5690 C   0  0  0  0  0  1  0  0  0  0  0  0
  160.8450  209.8770  154.4190 C   0  0  0  0  0  0  0  0  0  0  0  0
  160.3070  210.3450  155.3910 C   0  0  0  0  0  0  0  0  0  0  0  0
  160.4950  206.6290  150.7800 O   0  0  0  0  0  0  0  0  0  0  0  0
  161.5400  204.8270  149.4970 C   0  0  0  0  0  3  0  0  0  0  0  0
  160.3110  206.5870  148.3790 C   0  0  0  0  0  3  0  0  0  0  0  0
  161.3200  204.8030  147.0860 C   0  0  0  0  0  0  0  0  0  0  0  0
  160.7830  206.0090  149.5620 C   0  0  0  0  0  0  0  0  0  0  0  0
  160.5810  205.9890  147.1450 C   0  0  0  0  0  3  0  0  0  0  0  0
  161.8090  204.2290  148.2630 C   0  0  0  0  0  3  0  0  0  0  0  0
  163.1940  203.8950  145.3640 O   0  0  0  0  0  0  0  0  0  0  0  0
  161.0880  205.1360  144.1760 C   0  0  0  0  0  1  0  0  0  0  0  0
  160.9540  202.5480  145.3860 O   0  0  0  0  0  1  0  0  0  0  0  0
  161.6990  204.0620  145.5040 P   0  0  2  0  0  0  0  0  0  0  0  0
  160.7500  206.9530  153.7360 C   0  0  0  0  0  2  0  0  0  0  0  0
  161.1280  204.5850  153.1350 C   0  0  0  0  0  1  0  0  0  0  0  0
  161.7980  205.9230  153.3690 C   0  0  0  0  0  2  0  0  0  0  0  0
  1 10  1  0  0  0  0
  1  2  1  0  0  0  0
  2 13  2  0  0  0  0
  3  9  1  0  0  0  0
  4  5  1  0  0  0  0
  5  3  2  0  0  0  0
  6 11  2  0  0  0  0
  7 18  1  6  0  0  0
  7 14  1  0  0  0  0
  8  6  1  0  0  0  0
  8 10  1  0  0  0  0
  9 16  1  1  0  0  0
 10  4  2  0  0  0  0
 12  6  1  0  0  0  0
 13  5  1  0  0  0  0
 13  7  1  0  0  0  0
 14  9  1  0  0  0  0
 14 29  1  1  0  0  0
 16 17  3  0  0  0  0
 17 15  1  0  0  0  0
 19 22  1  0  0  0  0
 20 22  2  0  0  0  0
 21 23  2  0  0  0  0
 21 24  1  0  0  0  0
 22 18  1  0  0  0  0
 23 20  1  0  0  0  0
 24 19  2  0  0  0  0
 25 28  2  0  0  0  0
 27 28  1  0  0  0  0
 28 26  1  6  0  0  0
 28 21  1  0  0  0  0
 30 31  1  0  0  0  0
 31 29  1  0  0  0  0
M  END
>  <MODEL>
2

>  <REMARK>
 VINA RESULT:      -6.0      1.851      2.353
  Name = 
  6 active torsions:
  status: ('A' for Active; 'I' for Inactive)
    1  A    between atoms: O_1  and  C_19
    2  A    between atoms: O_1  and  C_21
    3  A    between atoms: C_12  and  C_25
    4  A    between atoms: C_16  and  P_17
    5  A    between atoms: C_18  and  C_30
    6  A    between atoms: C_18  and  C_31
                            x       y       z     vdW  Elec       q    Type
                         _______ _______ _______ _____ _____    ______ ____

>  <TORSDO>
F 6

$$$$
=
 OpenBabel11042420293D

 31 33  0  0  1  0  0  0  0  0999 V2000
  160.4740  213.4530  149.8640 C   0  0  0  0  0  2  0  0  0  0  0  0
  160.8820  212.7920  151.1540 C   0  0  0  0  0  3  0  0  0  0  0  0
  157.6740  212.3570  152.7210 N   0  0  0  0  0  0  0  0  0  0  0  0
  158.1430  213.0390  150.5100 N   0  0  0  0  0  0  0  0  0  0  0  0
  158.5610  212.6190  151.8100 C   0  0  0  0  0  0  0  0  0  0  0  0
  157.1680  213.8150  147.8490 C   0  0  0  0  0  0  0  0  0  0  0  0
  160.4460  211.8050  153.3770 C   0  0  1  0  0  3  0  0  0  0  0  0
  158.5310  213.7990  148.2920 N   0  0  0  0  0  2  0  0  0  0  0  0
  158.0220  211.9550  154.0840 C   0  0  2  0  0  3  0  0  0  0  0  0
  158.9910  213.3880  149.5850 C   0  0  0  0  0  0  0  0  0  0  0  0
  156.2330  213.4350  148.6030 O   0  0  0  0  0  0  0  0  0  0  0  0
  156.8540  214.2840  146.4750 C   0  0  0  0  0  1  0  0  0  0  0  0
  159.9950  212.4090  152.0750 C   0  0  0  0  0  0  0  0  0  0  0  0
  159.2950  211.0900  154.1020 C   0  0  2  0  0  3  0  0  0  0  0  0
  154.8030  209.9590  155.7460 C   0  0  0  0  0  1  0  0  0  0  0  0
  156.8800  211.2460  154.6740 C   0  0  0  0  0  0  0  0  0  0  0  0
  155.9420  210.6640  155.1590 C   0  0  0  0  0  0  0  0  0  0  0  0
  161.5100  210.8830  153.1460 O   0  0  0  0  0  0  0  0  0  0  0  0
  160.7770  208.6160  152.5890 C   0  0  0  0  0  3  0  0  0  0  0  0
  161.9740  209.9600  150.9700 C   0  0  0  0  0  3  0  0  0  0  0  0
  161.2420  207.7250  150.3870 C   0  0  0  0  0  0  0  0  0  0  0  0
  161.4140  209.8200  152.2440 C   0  0  0  0  0  0  0  0  0  0  0  0
  161.8930  208.9150  150.0460 C   0  0  0  0  0  3  0  0  0  0  0  0
  160.6950  207.5720  151.6640 C   0  0  0  0  0  3  0  0  0  0  0  0
  159.8760  206.4310  148.4470 O   0  0  0  0  0  1  0  0  0  0  0  0
  161.2760  204.8000  150.1100 C   0  0  0  0  0  1  0  0  0  0  0  0
  162.4710  206.4890  148.1360 O   0  0  0  0  0  0  0  0  0  0  0  0
  161.1750  206.3750  149.2160 P   0  0  2  0  0  0  0  0  0  0  0  0
  159.7210  210.7870  155.5330 C   0  0  0  0  0  2  0  0  0  0  0  0
  161.0630  208.8260  156.2120 C   0  0  0  0  0  1  0  0  0  0  0  0
  159.6900  209.2930  155.7780 C   0  0  0  0  0  2  0  0  0  0  0  0
  1  2  1  0  0  0  0
  2 13  2  0  0  0  0
  3  9  1  0  0  0  0
  4  5  1  0  0  0  0
  5 13  1  0  0  0  0
  5  3  2  0  0  0  0
  6  8  1  0  0  0  0
  6 11  2  0  0  0  0
  7 18  1  6  0  0  0
  7 14  1  0  0  0  0
  8 10  1  0  0  0  0
  9 14  1  0  0  0  0
  9 16  1  6  0  0  0
 10  1  1  0  0  0  0
 10  4  2  0  0  0  0
 12  6  1  0  0  0  0
 13  7  1  0  0  0  0
 14 29  1  1  0  0  0
 16 17  3  0  0  0  0
 17 15  1  0  0  0  0
 20 22  2  0  0  0  0
 21 24  1  0  0  0  0
 22 19  1  0  0  0  0
 22 18  1  0  0  0  0
 23 21  2  0  0  0  0
 23 20  1  0  0  0  0
 24 19  2  0  0  0  0
 25 28  1  0  0  0  0
 27 28  2  0  0  0  0
 28 26  1  1  0  0  0
 28 21  1  0  0  0  0
 29 31  1  0  0  0  0
 31 30  1  0  0  0  0
M  END
>  <MODEL>
3

>  <REMARK>
 VINA RESULT:      -5.0      3.670      4.818
  Name = 
  6 active torsions:
  status: ('A' for Active; 'I' for Inactive)
    1  A    between atoms: O_1  and  C_19
    2  A    between atoms: O_1  and  C_21
    3  A    between atoms: C_12  and  C_25
    4  A    between atoms: C_16  and  P_17
    5  A    between atoms: C_18  and  C_30
    6  A    between atoms: C_18  and  C_31
                            x       y       z     vdW  Elec       q    Type
                         _______ _______ _______ _____ _____    ______ ____

>  <TORSDO>
F 6

$$$$
=
 OpenBabel11042420293D

 31 33  0  0  1  0  0  0  0  0999 V2000
  161.2020  204.3880  152.7030 C   0  0  0  0  0  2  0  0  0  0  0  0
  161.1850  205.7030  153.4370 C   0  0  0  0  0  3  0  0  0  0  0  0
  162.0140  207.9650  150.7670 N   0  0  0  0  0  0  0  0  0  0  0  0
  161.4840  205.6690  150.6290 N   0  0  0  0  0  0  0  0  0  0  0  0
  161.6800  206.8700  151.3780 C   0  0  0  0  0  0  0  0  0  0  0  0
  161.0270  203.2810  148.9790 C   0  0  0  0  0  0  0  0  0  0  0  0
  161.4520  208.1540  153.6080 C   0  0  1  0  0  3  0  0  0  0  0  0
  161.0300  203.3470  150.4110 N   0  0  0  0  0  2  0  0  0  0  0  0
  162.2660  209.2260  151.4660 C   0  0  2  0  0  3  0  0  0  0  0  0
  161.2240  204.5270  151.1990 C   0  0  0  0  0  0  0  0  0  0  0  0
  161.1910  204.3150  148.2790 O   0  0  0  0  0  0  0  0  0  0  0  0
  160.8240  201.9700  148.3110 C   0  0  0  0  0  1  0  0  0  0  0  0
  161.4190  206.8670  152.8280 C   0  0  0  0  0  0  0  0  0  0  0  0
  161.3420  209.3790  152.6880 C   0  0  2  0  0  3  0  0  0  0  0  0
  161.7870  212.3470  148.7950 C   0  0  0  0  0  1  0  0  0  0  0  0
  162.0950  210.3350  150.5190 C   0  0  0  0  0  0  0  0  0  0  0  0
  161.9560  211.2450  149.7400 C   0  0  0  0  0  0  0  0  0  0  0  0
  160.3900  208.1750  154.5600 O   0  0  0  0  0  0  0  0  0  0  0  0
  158.9680  210.0770  153.9700 C   0  0  0  0  0  3  0  0  0  0  0  0
  159.7690  209.7900  156.2360 C   0  0  0  0  0  3  0  0  0  0  0  0
  158.3460  211.6720  155.6830 C   0  0  0  0  0  0  0  0  0  0  0  0
  159.7070  209.3420  154.9130 C   0  0  0  0  0  0  0  0  0  0  0  0
  159.0940  210.9520  156.6200 C   0  0  0  0  0  3  0  0  0  0  0  0
  158.2940  211.2390  154.3540 C   0  0  0  0  0  3  0  0  0  0  0  0
  156.9980  213.8930  154.9390 O   0  0  0  0  0  0  0  0  0  0  0  0
  158.6910  214.2570  157.0330 C   0  0  0  0  0  1  0  0  0  0  0  0
  156.2250  212.8200  157.1950 O   0  0  0  0  0  1  0  0  0  0  0  0
  157.5180  213.1810  156.1660 P   0  0  2  0  0  0  0  0  0  0  0  0
  161.7010  210.6290  153.4810 C   0  0  0  0  0  2  0  0  0  0  0  0
  162.9070  210.7030  155.6380 C   0  0  0  0  0  1  0  0  0  0  0  0
  163.0480  210.4490  154.1520 C   0  0  0  0  0  2  0  0  0  0  0  0
  1  2  1  0  0  0  0
  3  5  2  0  0  0  0
  3  9  1  0  0  0  0
  4 10  2  0  0  0  0
  4  5  1  0  0  0  0
  5 13  1  0  0  0  0
  6  8  1  0  0  0  0
  7 18  1  1  0  0  0
  8 10  1  0  0  0  0
  9 16  1  6  0  0  0
  9 14  1  0  0  0  0
 10  1  1  0  0  0  0
 11  6  2  0  0  0  0
 12  6  1  0  0  0  0
 13  2  2  0  0  0  0
 13  7  1  0  0  0  0
 14 29  1  1  0  0  0
 14  7  1  0  0  0  0
 15 17  1  0  0  0  0
 17 16  3  0  0  0  0
 18 22  1  0  0  0  0
 19 24  2  0  0  0  0
 19 22  1  0  0  0  0
 20 23  1  0  0  0  0
 21 28  1  0  0  0  0
 21 23  2  0  0  0  0
 22 20  2  0  0  0  0
 24 21  1  0  0  0  0
 25 28  2  0  0  0  0
 28 26  1  1  0  0  0
 28 27  1  0  0  0  0
 29 31  1  0  0  0  0
 31 30  1  0  0  0  0
M  END
>  <MODEL>
4

>  <REMARK>
 VINA RESULT:      -4.7      4.155      8.120
  Name = 
  6 active torsions:
  status: ('A' for Active; 'I' for Inactive)
    1  A    between atoms: O_1  and  C_19
    2  A    between atoms: O_1  and  C_21
    3  A    between atoms: C_12  and  C_25
    4  A    between atoms: C_16  and  P_17
    5  A    between atoms: C_18  and  C_30
    6  A    between atoms: C_18  and  C_31
                            x       y       z     vdW  Elec       q    Type
                         _______ _______ _______ _____ _____    ______ ____

>  <TORSDO>
F 6

$$$$
=
 OpenBabel11042420293D

 31 33  0  0  1  0  0  0  0  0999 V2000
  160.1210  208.2950  154.2270 C   0  0  0  0  0  2  0  0  0  0  0  0
  160.6030  207.6840  152.9370 C   0  0  0  0  0  3  0  0  0  0  0  0
  161.2470  210.6450  151.0000 N   0  0  0  0  0  0  0  0  0  0  0  0
  160.7340  210.4820  153.2990 N   0  0  0  0  0  0  0  0  0  0  0  0
  160.9760  209.8900  152.0210 C   0  0  0  0  0  0  0  0  0  0  0  0
  160.3370  211.8010  155.8940 C   0  0  0  0  0  0  0  0  0  0  0  0
  161.4120  207.7750  150.6040 C   0  0  1  0  0  3  0  0  0  0  0  0
  160.1540  210.4100  155.6020 N   0  0  0  0  0  2  0  0  0  0  0  0
  161.4720  210.1190  149.6540 C   0  0  2  0  0  3  0  0  0  0  0  0
  160.3820  209.7780  154.3370 C   0  0  0  0  0  0  0  0  0  0  0  0
  160.7450  212.6040  155.0140 O   0  0  0  0  0  0  0  0  0  0  0  0
  160.0420  212.3040  157.2600 C   0  0  0  0  0  1  0  0  0  0  0  0
  160.9930  208.4230  151.8960 C   0  0  0  0  0  0  0  0  0  0  0  0
  162.1800  208.7520  149.7010 C   0  0  2  0  0  3  0  0  0  0  0  0
  163.6520  212.8880  147.4900 C   0  0  0  0  0  1  0  0  0  0  0  0
  162.2460  211.1010  148.8850 C   0  0  0  0  0  0  0  0  0  0  0  0
  162.8820  211.9080  148.2540 C   0  0  0  0  0  0  0  0  0  0  0  0
  162.2250  206.6330  150.8710 O   0  0  0  0  0  0  0  0  0  0  0  0
  161.6400  204.3790  151.6210 C   0  0  0  0  0  3  0  0  0  0  0  0
  161.5810  204.9520  149.2700 C   0  0  0  0  0  3  0  0  0  0  0  0
  160.9780  202.7180  149.9880 C   0  0  0  0  0  0  0  0  0  0  0  0
  161.8150  205.3250  150.5980 C   0  0  0  0  0  0  0  0  0  0  0  0
  161.1680  203.6530  148.9650 C   0  0  0  0  0  3  0  0  0  0  0  0
  161.2270  203.0790  151.3160 C   0  0  0  0  0  3  0  0  0  0  0  0
  160.9470  200.1070  150.6850 O   0  0  0  0  0  1  0  0  0  0  0  0
  161.2490  200.5530  148.0210 C   0  0  0  0  0  1  0  0  0  0  0  0
  158.8060  200.9580  149.4500 O   0  0  0  0  0  0  0  0  0  0  0  0
  160.4890  201.0440  149.5920 P   0  0  2  0  0  0  0  0  0  0  0  0
  162.2920  208.1540  148.3050 C   0  0  0  0  0  2  0  0  0  0  0  0
  161.1420  206.6760  146.6910 C   0  0  0  0  0  1  0  0  0  0  0  0
  160.9460  207.6170  147.8610 C   0  0  0  0  0  2  0  0  0  0  0  0
  1 10  1  0  0  0  0
  2  1  1  0  0  0  0
  3  5  2  0  0  0  0
  4 10  2  0  0  0  0
  5  4  1  0  0  0  0
  6 12  1  0  0  0  0
  7 18  1  1  0  0  0
  7 13  1  0  0  0  0
  8  6  1  0  0  0  0
  9 16  1  6  0  0  0
  9 14  1  0  0  0  0
  9  3  1  0  0  0  0
 10  8  1  0  0  0  0
 11  6  2  0  0  0  0
 13  5  1  0  0  0  0
 13  2  2  0  0  0  0
 14 29  1  6  0  0  0
 14  7  1  0  0  0  0
 15 17  1  0  0  0  0
 17 16  3  0  0  0  0
 20 22  1  0  0  0  0
 21 24  2  0  0  0  0
 22 18  1  0  0  0  0
 22 19  2  0  0  0  0
 23 20  2  0  0  0  0
 23 21  1  0  0  0  0
 24 19  1  0  0  0  0
 27 28  2  0  0  0  0
 28 26  1  6  0  0  0
 28 21  1  0  0  0  0
 28 25  1  0  0  0  0
 30 31  1  0  0  0  0
 31 29  1  0  0  0  0
M  END
>  <MODEL>
5

>  <REMARK>
 VINA RESULT:      -4.7      1.906      5.281
  Name = 
  6 active torsions:
  status: ('A' for Active; 'I' for Inactive)
    1  A    between atoms: O_1  and  C_19
    2  A    between atoms: O_1  and  C_21
    3  A    between atoms: C_12  and  C_25
    4  A    between atoms: C_16  and  P_17
    5  A    between atoms: C_18  and  C_30
    6  A    between atoms: C_18  and  C_31
                            x       y       z     vdW  Elec       q    Type
                         _______ _______ _______ _____ _____    ______ ____

>  <TORSDO>
F 6

$$$$
=
 OpenBabel11042420293D

 31 33  0  0  1  0  0  0  0  0999 V2000
  161.0960  205.3450  148.4420 C   0  0  0  0  0  2  0  0  0  0  0  0
  161.2130  206.6770  149.1360 C   0  0  0  0  0  3  0  0  0  0  0  0
  160.4900  205.7250  152.5280 N   0  0  0  0  0  0  0  0  0  0  0  0
  160.8630  204.3270  150.6630 N   0  0  0  0  0  0  0  0  0  0  0  0
  160.7620  205.6200  151.2630 C   0  0  0  0  0  0  0  0  0  0  0  0
  161.1320  201.6190  149.5550 C   0  0  0  0  0  0  0  0  0  0  0  0
  161.1130  208.1730  151.0990 C   0  0  1  0  0  3  0  0  0  0  0  0
  161.1580  202.8510  148.8230 N   0  0  0  0  0  2  0  0  0  0  0  0
  160.3350  207.0110  153.2080 C   0  0  2  0  0  3  0  0  0  0  0  0
  161.0570  204.1660  149.3850 C   0  0  0  0  0  0  0  0  0  0  0  0
  161.0240  201.6070  150.8090 O   0  0  0  0  0  0  0  0  0  0  0  0
  161.2360  200.3330  148.8180 C   0  0  0  0  0  1  0  0  0  0  0  0
  161.0460  206.8160  150.4530 C   0  0  0  0  0  0  0  0  0  0  0  0
  161.2880  208.0690  152.6220 C   0  0  2  0  0  3  0  0  0  0  0  0
  160.9730  206.4630  157.2570 C   0  0  0  0  0  1  0  0  0  0  0  0
  160.5630  206.8170  154.6450 C   0  0  0  0  0  0  0  0  0  0  0  0
  160.7490  206.6580  155.8260 C   0  0  0  0  0  0  0  0  0  0  0  0
  162.1910  208.9270  150.5450 O   0  0  0  0  0  0  0  0  0  0  0  0
  161.6000  211.2700  150.1630 C   0  0  0  0  0  3  0  0  0  0  0  0
  162.2030  209.8300  148.3130 C   0  0  0  0  0  3  0  0  0  0  0  0
  161.6410  212.1520  147.9080 C   0  0  0  0  0  0  0  0  0  0  0  0
  161.9990  210.0100  149.6840 C   0  0  0  0  0  0  0  0  0  0  0  0
  162.0210  210.8950  147.4270 C   0  0  0  0  0  3  0  0  0  0  0  0
  161.4180  212.3350  149.2760 C   0  0  0  0  0  3  0  0  0  0  0  0
  160.2400  214.3740  147.2700 O   0  0  0  0  0  1  0  0  0  0  0  0
  160.9340  212.8350  145.1400 C   0  0  0  0  0  1  0  0  0  0  0  0
  162.7760  214.4310  146.6350 O   0  0  0  0  0  0  0  0  0  0  0  0
  161.3690  213.5030  146.7690 P   0  0  2  0  0  0  0  0  0  0  0  0
  161.0270  209.4340  153.2460 C   0  0  0  0  0  2  0  0  0  0  0  0
  161.1760  210.0540  155.6350 C   0  0  0  0  0  1  0  0  0  0  0  0
  161.9730  209.6630  154.4080 C   0  0  0  0  0  2  0  0  0  0  0  0
  1  2  1  0  0  0  0
  1 10  1  0  0  0  0
  2 13  2  0  0  0  0
  3  9  1  0  0  0  0
  4  5  1  0  0  0  0
  5  3  2  0  0  0  0
  6 11  2  0  0  0  0
  7 18  1  6  0  0  0
  7 14  1  0  0  0  0
  8 10  1  0  0  0  0
  8  6  1  0  0  0  0
  9 16  1  1  0  0  0
 10  4  2  0  0  0  0
 12  6  1  0  0  0  0
 13  7  1  0  0  0  0
 13  5  1  0  0  0  0
 14  9  1  0  0  0  0
 14 29  1  1  0  0  0
 16 17  3  0  0  0  0
 17 15  1  0  0  0  0
 20 22  2  0  0  0  0
 21 24  1  0  0  0  0
 22 19  1  0  0  0  0
 22 18  1  0  0  0  0
 23 21  2  0  0  0  0
 23 20  1  0  0  0  0
 24 19  2  0  0  0  0
 27 28  2  0  0  0  0
 28 26  1  6  0  0  0
 28 25  1  0  0  0  0
 28 21  1  0  0  0  0
 29 31  1  0  0  0  0
 31 30  1  0  0  0  0
M  END
>  <MODEL>
6

>  <REMARK>
 VINA RESULT:      -4.1      3.318      7.464
  Name = 
  6 active torsions:
  status: ('A' for Active; 'I' for Inactive)
    1  A    between atoms: O_1  and  C_19
    2  A    between atoms: O_1  and  C_21
    3  A    between atoms: C_12  and  C_25
    4  A    between atoms: C_16  and  P_17
    5  A    between atoms: C_18  and  C_30
    6  A    between atoms: C_18  and  C_31
                            x       y       z     vdW  Elec       q    Type
                         _______ _______ _______ _____ _____    ______ ____

>  <TORSDO>
F 6

$$$$
=
 OpenBabel11042420293D

 31 33  0  0  1  0  0  0  0  0999 V2000
  161.7310  205.4980  149.9410 C   0  0  0  0  0  2  0  0  0  0  0  0
  161.5780  206.7430  150.7740 C   0  0  0  0  0  3  0  0  0  0  0  0
  161.9800  209.2790  148.2570 N   0  0  0  0  0  0  0  0  0  0  0  0
  161.7480  206.9490  147.9630 N   0  0  0  0  0  0  0  0  0  0  0  0
  161.8200  208.1090  148.7940 C   0  0  0  0  0  0  0  0  0  0  0  0
  161.5290  204.6440  146.1530 C   0  0  0  0  0  0  0  0  0  0  0  0
  161.5310  209.1890  151.1220 C   0  0  1  0  0  3  0  0  0  0  0  0
  161.5890  204.6080  147.5850 N   0  0  0  0  0  2  0  0  0  0  0  0
  162.0980  210.5100  149.0400 C   0  0  2  0  0  3  0  0  0  0  0  0
  161.6650  205.7450  148.4530 C   0  0  0  0  0  0  0  0  0  0  0  0
  161.5240  205.7380  145.5280 O   0  0  0  0  0  0  0  0  0  0  0  0
  161.4670  203.3690  145.3940 C   0  0  0  0  0  1  0  0  0  0  0  0
  161.6300  207.9680  150.2470 C   0  0  0  0  0  0  0  0  0  0  0  0
  161.2200  210.4510  150.3040 C   0  0  2  0  0  3  0  0  0  0  0  0
  161.0890  213.7220  146.6380 C   0  0  0  0  0  1  0  0  0  0  0  0
  161.7410  211.6500  148.1870 C   0  0  0  0  0  0  0  0  0  0  0  0
  161.4470  212.5860  147.4870 C   0  0  0  0  0  0  0  0  0  0  0  0
  160.5210  209.0010  152.1120 O   0  0  0  0  0  0  0  0  0  0  0  0
  161.0920  210.3060  154.1020 C   0  0  0  0  0  3  0  0  0  0  0  0
  158.9620  210.6120  152.9930 C   0  0  0  0  0  3  0  0  0  0  0  0
  159.5100  211.9300  154.9510 C   0  0  0  0  0  0  0  0  0  0  0  0
  160.2020  209.9690  153.0680 C   0  0  0  0  0  0  0  0  0  0  0  0
  158.6140  211.5860  153.9330 C   0  0  0  0  0  3  0  0  0  0  0  0
  160.7440  211.2790  155.0410 C   0  0  0  0  0  3  0  0  0  0  0  0
  158.2230  212.4910  157.2610 O   0  0  0  0  0  1  0  0  0  0  0  0
  158.0680  214.4530  155.3860 C   0  0  0  0  0  1  0  0  0  0  0  0
  160.4350  213.8260  156.8620 O   0  0  0  0  0  0  0  0  0  0  0  0
  159.0470  213.1470  156.1760 P   0  0  2  0  0  0  0  0  0  0  0  0
  161.4500  211.6780  151.1770 C   0  0  0  0  0  2  0  0  0  0  0  0
  159.7120  213.4260  151.3610 C   0  0  0  0  0  1  0  0  0  0  0  0
  160.8540  212.9050  150.5150 C   0  0  0  0  0  2  0  0  0  0  0  0
  1  2  1  0  0  0  0
  3  5  2  0  0  0  0
  3  9  1  0  0  0  0
  4 10  2  0  0  0  0
  4  5  1  0  0  0  0
  5 13  1  0  0  0  0
  6  8  1  0  0  0  0
  7 18  1  1  0  0  0
  8 10  1  0  0  0  0
  9 16  1  6  0  0  0
  9 14  1  0  0  0  0
 10  1  1  0  0  0  0
 11  6  2  0  0  0  0
 12  6  1  0  0  0  0
 13  2  2  0  0  0  0
 13  7  1  0  0  0  0
 14  7  1  0  0  0  0
 14 29  1  1  0  0  0
 15 17  1  0  0  0  0
 17 16  3  0  0  0  0
 18 22  1  0  0  0  0
 19 24  1  0  0  0  0
 20 22  1  0  0  0  0
 20 23  2  0  0  0  0
 21 24  2  0  0  0  0
 21 28  1  0  0  0  0
 22 19  2  0  0  0  0
 23 21  1  0  0  0  0
 28 26  1  6  0  0  0
 28 27  2  0  0  0  0
 28 25  1  0  0  0  0
 31 29  1  0  0  0  0
 31 30  1  0  0  0  0
M  END
>  <MODEL>
7

>  <REMARK>
 VINA RESULT:      -3.6      4.159      8.171
  Name = 
  6 active torsions:
  status: ('A' for Active; 'I' for Inactive)
    1  A    between atoms: O_1  and  C_19
    2  A    between atoms: O_1  and  C_21
    3  A    between atoms: C_12  and  C_25
    4  A    between atoms: C_16  and  P_17
    5  A    between atoms: C_18  and  C_30
    6  A    between atoms: C_18  and  C_31
                            x       y       z     vdW  Elec       q    Type
                         _______ _______ _______ _____ _____    ______ ____

>  <TORSDO>
F 6

$$$$
=
 OpenBabel11042420293D

 31 33  0  0  1  0  0  0  0  0999 V2000
  158.1820  214.2720  137.7300 C   0  0  0  0  0  2  0  0  0  0  0  0
  159.4110  214.3680  138.5950 C   0  0  0  0  0  3  0  0  0  0  0  0
  157.9590  213.9690  141.8600 N   0  0  0  0  0  0  0  0  0  0  0  0
  156.9310  213.6770  139.7560 N   0  0  0  0  0  0  0  0  0  0  0  0
  158.0660  213.9880  140.5670 C   0  0  0  0  0  0  0  0  0  0  0  0
  154.5580  212.9380  138.1890 C   0  0  0  0  0  0  0  0  0  0  0  0
  160.6070  214.4100  140.7570 C   0  0  1  0  0  3  0  0  0  0  0  0
  155.8040  213.4300  137.6780 N   0  0  0  0  0  2  0  0  0  0  0  0
  159.0630  214.3090  142.7590 C   0  0  2  0  0  3  0  0  0  0  0  0
  156.9620  213.7560  138.4560 C   0  0  0  0  0  0  0  0  0  0  0  0
  154.3930  212.7360  139.4210 O   0  0  0  0  0  0  0  0  0  0  0  0
  153.4440  212.6600  137.2470 C   0  0  0  0  0  1  0  0  0  0  0  0
  159.3640  214.2490  139.9230 C   0  0  0  0  0  0  0  0  0  0  0  0
  160.4150  213.8550  142.1770 C   0  0  2  0  0  3  0  0  0  0  0  0
  158.3490  212.5950  146.4540 C   0  0  0  0  0  1  0  0  0  0  0  0
  158.8100  213.7010  144.0710 C   0  0  0  0  0  0  0  0  0  0  0  0
  158.6020  213.2020  145.1480 C   0  0  0  0  0  0  0  0  0  0  0  0
  161.7050  213.7490  140.1310 O   0  0  0  0  0  0  0  0  0  0  0  0
  161.7270  211.3520  140.6250 C   0  0  0  0  0  3  0  0  0  0  0  0
  161.5310  212.1420  138.3450 C   0  0  0  0  0  3  0  0  0  0  0  0
  161.5310  209.7630  138.8090 C   0  0  0  0  0  0  0  0  0  0  0  0
  161.6530  212.4170  139.7110 C   0  0  0  0  0  0  0  0  0  0  0  0
  161.4750  210.8200  137.8940 C   0  0  0  0  0  3  0  0  0  0  0  0
  161.6690  210.0310  140.1740 C   0  0  0  0  0  3  0  0  0  0  0  0
  160.1300  207.7490  137.6740 O   0  0  0  0  0  1  0  0  0  0  0  0
  161.8700  206.9560  139.6060 C   0  0  0  0  0  1  0  0  0  0  0  0
  162.6570  207.8650  137.0110 O   0  0  0  0  0  0  0  0  0  0  0  0
  161.4990  208.0730  138.2260 P   0  0  2  0  0  0  0  0  0  0  0  0
  161.5660  214.3290  143.0550 C   0  0  0  0  0  2  0  0  0  0  0  0
  163.6130  213.6160  144.2430 C   0  0  0  0  0  1  0  0  0  0  0  0
  162.3300  213.1380  143.5970 C   0  0  0  0  0  2  0  0  0  0  0  0
  1 10  1  0  0  0  0
  1  2  1  0  0  0  0
  2 13  2  0  0  0  0
  3  9  1  0  0  0  0
  4  5  1  0  0  0  0
  5  3  2  0  0  0  0
  6 11  2  0  0  0  0
  7 18  1  6  0  0  0
  7 14  1  0  0  0  0
  8  6  1  0  0  0  0
  8 10  1  0  0  0  0
  9 16  1  1  0  0  0
 10  4  2  0  0  0  0
 12  6  1  0  0  0  0
 13  5  1  0  0  0  0
 13  7  1  0  0  0  0
 14  9  1  0  0  0  0
 14 29  1  1  0  0  0
 16 17  3  0  0  0  0
 17 15  1  0  0  0  0
 20 22  1  0  0  0  0
 21 24  2  0  0  0  0
 22 18  1  0  0  0  0
 22 19  2  0  0  0  0
 23 20  2  0  0  0  0
 23 21  1  0  0  0  0
 24 19  1  0  0  0  0
 25 28  1  0  0  0  0
 27 28  2  0  0  0  0
 28 21  1  0  0  0  0
 28 26  1  1  0  0  0
 29 31  1  0  0  0  0
 31 30  1  0  0  0  0
M  END
>  <MODEL>
8

>  <REMARK>
 VINA RESULT:      -3.3      9.471     12.648
  Name = 
  6 active torsions:
  status: ('A' for Active; 'I' for Inactive)
    1  A    between atoms: O_1  and  C_19
    2  A    between atoms: O_1  and  C_21
    3  A    between atoms: C_12  and  C_25
    4  A    between atoms: C_16  and  P_17
    5  A    between atoms: C_18  and  C_30
    6  A    between atoms: C_18  and  C_31
                            x       y       z     vdW  Elec       q    Type
                         _______ _______ _______ _____ _____    ______ ____

>  <TORSDO>
F 6

$$$$
=
 OpenBabel11042420293D

 31 33  0  0  1  0  0  0  0  0999 V2000
  160.8270  205.4270  153.1370 C   0  0  0  0  0  2  0  0  0  0  0  0
  161.0030  205.2870  151.6480 C   0  0  0  0  0  3  0  0  0  0  0  0
  161.3960  208.7330  150.6980 N   0  0  0  0  0  0  0  0  0  0  0  0
  161.3540  207.8090  152.8690 N   0  0  0  0  0  0  0  0  0  0  0  0
  161.2980  207.6780  151.4470 C   0  0  0  0  0  0  0  0  0  0  0  0
  161.5660  208.1870  155.7750 C   0  0  0  0  0  0  0  0  0  0  0  0
  161.3230  206.1590  149.3590 C   0  0  1  0  0  3  0  0  0  0  0  0
  161.2530  206.9680  155.0900 N   0  0  0  0  0  2  0  0  0  0  0  0
  161.3130  208.6860  149.2370 C   0  0  2  0  0  3  0  0  0  0  0  0
  161.1840  206.7950  153.6690 C   0  0  0  0  0  0  0  0  0  0  0  0
  161.8290  209.2430  155.1410 O   0  0  0  0  0  0  0  0  0  0  0  0
  161.5840  208.2040  157.2610 C   0  0  0  0  0  1  0  0  0  0  0  0
  161.2110  206.3350  150.8490 C   0  0  0  0  0  0  0  0  0  0  0  0
  161.9420  207.3930  148.6850 C   0  0  2  0  0  3  0  0  0  0  0  0
  163.1550  212.0500  147.6880 C   0  0  0  0  0  1  0  0  0  0  0  0
  161.9660  209.8810  148.6880 C   0  0  0  0  0  0  0  0  0  0  0  0
  162.5030  210.8610  148.2370 C   0  0  0  0  0  0  0  0  0  0  0  0
  162.1100  205.0070  149.0600 O   0  0  0  0  0  0  0  0  0  0  0  0
  160.9020  202.8930  148.8190 C   0  0  0  0  0  3  0  0  0  0  0  0
  161.9390  203.9480  146.9030 C   0  0  0  0  0  3  0  0  0  0  0  0
  160.7320  201.8640  146.6340 C   0  0  0  0  0  0  0  0  0  0  0  0
  161.6470  203.9510  148.2710 C   0  0  0  0  0  0  0  0  0  0  0  0
  161.4880  202.9070  146.0880 C   0  0  0  0  0  3  0  0  0  0  0  0
  160.4510  201.8530  148.0040 C   0  0  0  0  0  3  0  0  0  0  0  0
  158.7470  200.1840  145.8990 O   0  0  0  0  0  1  0  0  0  0  0  0
  161.2200  199.0550  145.9240 C   0  0  0  0  0  1  0  0  0  0  0  0
  160.3370  200.9460  143.9690 O   0  0  0  0  0  0  0  0  0  0  0  0
  160.1910  200.5120  145.5970 P   0  0  2  0  0  0  0  0  0  0  0  0
  161.7340  207.2940  147.1790 C   0  0  0  0  0  2  0  0  0  0  0  0
  160.3260  206.2850  145.4150 C   0  0  0  0  0  1  0  0  0  0  0  0
  160.3920  206.6570  146.8820 C   0  0  0  0  0  2  0  0  0  0  0  0
  1 10  1  0  0  0  0
  2  1  1  0  0  0  0
  3  5  2  0  0  0  0
  4 10  2  0  0  0  0
  5  4  1  0  0  0  0
  6 12  1  0  0  0  0
  7 18  1  1  0  0  0
  7 13  1  0  0  0  0
  8  6  1  0  0  0  0
  9 16  1  6  0  0  0
  9  3  1  0  0  0  0
 10  8  1  0  0  0  0
 11  6  2  0  0  0  0
 13  5  1  0  0  0  0
 13  2  2  0  0  0  0
 14 29  1  6  0  0  0
 14  9  1  0  0  0  0
 14  7  1  0  0  0  0
 15 17  1  0  0  0  0
 17 16  3  0  0  0  0
 20 22  2  0  0  0  0
 21 24  1  0  0  0  0
 22 19  1  0  0  0  0
 22 18  1  0  0  0  0
 23 21  2  0  0  0  0
 23 20  1  0  0  0  0
 24 19  2  0  0  0  0
 27 28  2  0  0  0  0
 28 25  1  0  0  0  0
 28 26  1  1  0  0  0
 28 21  1  0  0  0  0
 30 31  1  0  0  0  0
 31 29  1  0  0  0  0
M  END
>  <MODEL>
9

>  <REMARK>
 VINA RESULT:      -3.3      2.512      6.046
  Name = 
  6 active torsions:
  status: ('A' for Active; 'I' for Inactive)
    1  A    between atoms: O_1  and  C_19
    2  A    between atoms: O_1  and  C_21
    3  A    between atoms: C_12  and  C_25
    4  A    between atoms: C_16  and  P_17
    5  A    between atoms: C_18  and  C_30
    6  A    between atoms: C_18  and  C_31
                            x       y       z     vdW  Elec       q    Type
                         _______ _______ _______ _____ _____    ______ ____

>  <TORSDO>
F 6

$$$$
