=
 OpenBabel11042420593D

 46 51  0  0  1  0  0  0  0  0999 V2000
  163.9490  207.9350  150.2340 C   0  0  0  0  0  1  0  0  0  0  0  0
  159.3340  212.6000  155.1890 C   0  0  0  0  0  0  0  0  0  0  0  0
  161.7830  210.3050  150.3510 O   0  0  0  0  0  0  0  0  0  0  0  0
  160.2380  212.5090  149.4100 O   0  0  0  0  0  0  0  0  0  0  0  0
  160.6250  204.9190  152.4320 C   0  0  0  0  0  3  0  0  0  0  0  0
  159.2520  213.9370  154.6080 C   0  0  2  0  0  3  0  0  0  0  0  0
  161.5230  208.6220  148.7490 N   0  0  0  0  0  2  0  0  0  0  0  0
  160.4710  208.8170  153.3780 S   0  0  0  0  0  0  0  0  0  0  0  0
  162.8910  205.8030  150.9660 C   0  0  1  0  0  3  0  0  0  0  0  0
  159.5560  213.7320  149.6700 C   0  0  0  0  0  2  0  0  0  0  0  0
  161.6730  209.9910  149.1320 C   0  0  0  0  0  0  0  0  0  0  0  0
  163.0450  214.4530  146.0030 F   0  0  0  0  0  0  0  0  0  0  0  0
  160.6450  206.8130  154.8750 C   0  0  0  0  0  3  0  0  0  0  0  0
  161.5020  207.5450  149.7270 C   0  0  0  0  0  2  0  0  0  0  0  0
  159.4350  210.3280  156.8400 O   0  0  0  0  0  0  0  0  0  0  0  0
  162.7910  213.3980  146.8110 C   0  0  0  0  0  0  0  0  0  0  0  0
  160.3170  207.8490  155.6970 N   0  0  0  0  0  0  0  0  0  0  0  0
  160.7500  207.1700  153.5330 C   0  0  0  0  0  0  0  0  0  0  0  0
  158.6120  213.5830  150.8510 C   0  0  0  0  0  2  0  0  0  0  0  0
  161.7230  213.4950  147.8240 C   0  0  0  0  0  3  0  0  0  0  0  0
  160.1880  209.0150  155.0230 C   0  0  0  0  0  0  0  0  0  0  0  0
  161.1700  206.3100  152.3950 C   0  0  1  0  0  3  0  0  0  0  0  0
  159.3970  213.5750  152.1510 C   0  0  0  0  0  2  0  0  0  0  0  0
  158.4230  214.3300  155.6570 N   0  0  0  0  0  2  0  0  0  0  0  0
  162.5710  206.2800  152.2650 O   0  0  0  0  0  0  0  0  0  0  0  0
  162.1530  204.5080  150.5380 C   0  0  0  0  0  2  0  0  0  0  0  0
  161.1280  204.0440  151.5490 C   0  0  0  0  0  0  0  0  0  0  0  0
  163.2570  211.1020  147.5880 C   0  0  0  0  0  2  0  0  0  0  0  0
  161.2610  212.4010  148.4560 C   0  0  0  0  0  0  0  0  0  0  0  0
  161.7980  211.0290  148.0630 C   0  0  2  0  0  3  0  0  0  0  0  0
  159.8200  210.2900  155.6410 C   0  0  0  0  0  0  0  0  0  0  0  0
  162.8870  206.9040  149.8930 C   0  0  1  0  0  3  0  0  0  0  0  0
  163.4670  212.2600  146.6530 C   0  0  0  0  0  3  0  0  0  0  0  0
  158.4960  213.0870  156.2680 O   0  0  0  0  0  0  0  0  0  0  0  0
  159.8960  211.4810  154.8570 N   0  0  0  0  0  0  0  0  0  0  0  0
  158.4680  213.8990  153.3070 C   0  0  0  0  0  2  0  0  0  0  0  0
  159.1530  199.8750  150.6230 C   0  0  0  0  0  1  0  0  0  0  0  0
  161.2060  202.3560  148.4500 C   0  0  0  0  0  1  0  0  0  0  0  0
  160.9290  201.3400  149.5610 C   0  0  0  0  0  0  0  0  0  0  0  0
  158.8970  202.5840  150.6990 S   0  0  0  0  0  0  0  0  0  0  0  0
  160.5770  202.6510  151.4220 C   0  0  1  0  0  3  0  0  0  0  0  0
  161.4990  201.8070  150.7590 O   0  0  0  0  0  0  0  0  0  0  0  0
  159.4170  201.1230  149.7640 C   0  0  2  0  0  0  0  0  0  0  0  0
  161.6330  200.0460  149.1540 C   0  0  0  0  0  1  0  0  0  0  0  0
  158.7750  201.0220  148.5030 O   0  0  0  0  0  0  0  0  0  0  0  0
  157.3790  200.9630  148.6710 C   0  0  0  0  0  1  0  0  0  0  0  0
  2 34  1  0  0  0  0
  4 10  1  0  0  0  0
  6 36  1  6  0  0  0
  6  2  1  0  0  0  0
  6 24  1  0  0  0  0
  7 11  1  0  0  0  0
  7 14  1  0  0  0  0
  8 18  1  0  0  0  0
  8 21  1  0  0  0  0
  9 26  1  6  0  0  0
  9 25  1  0  0  0  0
 10 19  1  0  0  0  0
 11  3  2  0  0  0  0
 12 16  1  0  0  0  0
 13 17  1  0  0  0  0
 14 32  1  0  0  0  0
 16 20  1  0  0  0  0
 18 13  2  0  0  0  0
 19 23  1  0  0  0  0
 20 29  2  0  0  0  0
 21 31  1  0  0  0  0
 21 17  2  0  0  0  0
 22  5  1  1  0  0  0
 22 18  1  0  0  0  0
 23 36  1  0  0  0  0
 24 34  1  0  0  0  0
 25 22  1  0  0  0  0
 26 27  1  0  0  0  0
 27  5  2  0  0  0  0
 29  4  1  0  0  0  0
 30 28  1  1  0  0  0
 30 29  1  0  0  0  0
 30 11  1  0  0  0  0
 31 15  2  0  0  0  0
 32  1  1  1  0  0  0
 32  9  1  0  0  0  0
 33 16  2  0  0  0  0
 33 28  1  0  0  0  0
 35  2  2  0  0  0  0
 35 31  1  0  0  0  0
 38 39  1  0  0  0  0
 39 43  1  0  0  0  0
 39 42  1  0  0  0  0
 40 41  1  0  0  0  0
 41 27  1  6  0  0  0
 42 41  1  0  0  0  0
 43 37  1  1  0  0  0
 43 40  1  0  0  0  0
 44 39  1  0  0  0  0
 45 46  1  0  0  0  0
 45 43  1  0  0  0  0
M  END
>  <MODEL>
1

>  <REMARK>
 VINA RESULT:       9.2      0.000      0.000
  Name = 
  2 active torsions:
  status: ('A' for Active; 'I' for Inactive)
    1  A    between atoms: O_17  and  C_27
    2  A    between atoms: C_19  and  C_35
                            x       y       z     vdW  Elec       q    Type
                         _______ _______ _______ _____ _____    ______ ____

>  <TORSDO>
F 2

$$$$
