=
 OpenBabel11042420163D

 25 26  0  0  1  0  0  0  0  0999 V2000
  161.1200  206.5580  148.7140 C   0  0  0  0  0  1  0  0  0  0  0  0
  160.6770  205.3250  151.0120 C   0  0  1  0  0  3  0  0  0  0  0  0
  161.0560  205.3240  149.5490 C   0  0  0  0  0  0  0  0  0  0  0  0
  160.7200  203.8630  151.3300 C   0  0  0  0  0  0  0  0  0  0  0  0
  160.4470  203.3520  152.4470 O   0  0  0  0  0  0  0  0  0  0  0  0
  161.2360  201.8780  150.0620 O   0  0  0  0  0  0  0  0  0  0  0  0
  161.1020  203.1270  150.1470 C   0  0  0  0  0  0  0  0  0  0  0  0
  161.2900  204.0970  149.0830 C   0  0  0  0  0  0  0  0  0  0  0  0
  161.6780  206.0890  151.8350 C   0  0  0  0  0  0  0  0  0  0  0  0
  162.9130  205.8940  151.6570 O   0  0  0  0  0  0  0  0  0  0  0  0
  160.3680  208.9390  154.7540 C   0  0  0  0  0  0  0  0  0  0  0  0
  161.1110  208.4240  152.5060 C   0  0  0  0  0  3  0  0  0  0  0  0
  160.6830  209.3550  153.4570 C   0  0  0  0  0  3  0  0  0  0  0  0
  160.9090  206.6580  154.1460 C   0  0  0  0  0  3  0  0  0  0  0  0
  160.4820  207.5860  155.1000 C   0  0  0  0  0  0  0  0  0  0  0  0
  161.2270  207.0680  152.8430 C   0  0  0  0  0  0  0  0  0  0  0  0
  160.0940  207.0330  156.7190 Cl  0  0  0  0  0  0  0  0  0  0  0  0
  159.9450  209.8750  155.6890 O   0  0  0  0  0  1  0  0  0  0  0  0
  161.6550  203.8120  147.7290 N   0  0  0  0  0  2  0  0  0  0  0  0
  160.9790  202.8070  146.9250 C   0  0  0  0  0  2  0  0  0  0  0  0
  161.1130  203.1330  145.5160 N   0  0  0  0  0  2  0  0  0  0  0  0
  161.8890  204.3590  145.4320 C   0  0  0  0  0  2  0  0  0  0  0  0
  161.4640  205.5800  143.4340 O   0  0  0  0  0  0  0  0  0  0  0  0
  161.1450  205.3670  144.6320 C   0  0  0  0  0  0  0  0  0  0  0  0
  160.1220  206.1010  145.2170 O   0  0  0  0  0  1  0  0  0  0  0  0
  1  3  1  0  0  0  0
  2  4  1  0  0  0  0
  2  9  1  1  0  0  0
  3  2  1  0  0  0  0
  4  5  2  0  0  0  0
  6  7  2  0  0  0  0
  7  4  1  0  0  0  0
  8  3  2  0  0  0  0
  8  7  1  0  0  0  0
  9 16  1  0  0  0  0
 10  9  2  0  0  0  0
 11 15  1  0  0  0  0
 11 18  1  0  0  0  0
 12 16  2  0  0  0  0
 12 13  1  0  0  0  0
 13 11  2  0  0  0  0
 14 15  2  0  0  0  0
 15 17  1  0  0  0  0
 16 14  1  0  0  0  0
 19  8  1  0  0  0  0
 20 19  1  0  0  0  0
 21 20  1  0  0  0  0
 22 21  1  0  0  0  0
 23 24  2  0  0  0  0
 24 25  1  0  0  0  0
 24 22  1  0  0  0  0
M  END
>  <MODEL>
1

>  <REMARK>
 VINA RESULT:      -8.2      0.000      0.000
  Name = 
  7 active torsions:
  status: ('A' for Active; 'I' for Inactive)
    1  A    between atoms: N_1  and  C_19
    2  A    between atoms: N_1  and  C_25
    3  A    between atoms: N_4  and  C_19
    4  A    between atoms: N_4  and  C_20
    5  A    between atoms: C_5  and  C_10
    6  A    between atoms: C_10  and  C_17
    7  A    between atoms: C_20  and  C_22
                            x       y       z     vdW  Elec       q    Type
                         _______ _______ _______ _____ _____    ______ ____

>  <TORSDO>
F 7

$$$$
=
 OpenBabel11042420163D

 25 26  0  0  1  0  0  0  0  0999 V2000
  161.1810  206.5270  148.6140 C   0  0  0  0  0  1  0  0  0  0  0  0
  160.6890  205.3290  150.9200 C   0  0  1  0  0  3  0  0  0  0  0  0
  161.0850  205.3050  149.4620 C   0  0  0  0  0  0  0  0  0  0  0  0
  160.7020  203.8710  151.2540 C   0  0  0  0  0  0  0  0  0  0  0  0
  160.4060  203.3770  152.3750 O   0  0  0  0  0  0  0  0  0  0  0  0
  161.1940  201.8620  150.0150 O   0  0  0  0  0  0  0  0  0  0  0  0
  161.0820  203.1140  150.0840 C   0  0  0  0  0  0  0  0  0  0  0  0
  161.3000  204.0680  149.0120 C   0  0  0  0  0  0  0  0  0  0  0  0
  161.6960  206.0840  151.7460 C   0  0  0  0  0  0  0  0  0  0  0  0
  162.9230  205.8030  151.6460 O   0  0  0  0  0  0  0  0  0  0  0  0
  160.4280  209.1790  154.4240 C   0  0  0  0  0  0  0  0  0  0  0  0
  161.0690  206.8770  154.0270 C   0  0  0  0  0  3  0  0  0  0  0  0
  160.6550  207.8850  154.9020 C   0  0  0  0  0  3  0  0  0  0  0  0
  161.0300  208.4530  152.1930 C   0  0  0  0  0  3  0  0  0  0  0  0
  160.6150  209.4640  153.0640 C   0  0  0  0  0  0  0  0  0  0  0  0
  161.2590  207.1520  152.6650 C   0  0  0  0  0  0  0  0  0  0  0  0
  160.3390  211.0770  152.4350 Cl  0  0  0  0  0  0  0  0  0  0  0  0
  160.0180  210.1710  155.3050 O   0  0  0  0  0  1  0  0  0  0  0  0
  161.6750  203.7610  147.6650 N   0  0  0  0  0  2  0  0  0  0  0  0
  160.9900  202.7570  146.8660 C   0  0  0  0  0  2  0  0  0  0  0  0
  161.0500  203.1250  145.4620 N   0  0  0  0  0  2  0  0  0  0  0  0
  161.8620  204.3260  145.3670 C   0  0  0  0  0  2  0  0  0  0  0  0
  161.4350  205.5820  143.3910 O   0  0  0  0  0  0  0  0  0  0  0  0
  161.1310  205.3630  144.5920 C   0  0  0  0  0  0  0  0  0  0  0  0
  160.1400  206.1170  145.2050 O   0  0  0  0  0  1  0  0  0  0  0  0
  1  3  1  0  0  0  0
  2  4  1  0  0  0  0
  2  9  1  1  0  0  0
  3  2  1  0  0  0  0
  4  5  2  0  0  0  0
  6  7  2  0  0  0  0
  7  4  1  0  0  0  0
  8  3  2  0  0  0  0
  8  7  1  0  0  0  0
  9 16  1  0  0  0  0
 10  9  2  0  0  0  0
 11 13  1  0  0  0  0
 11 18  1  0  0  0  0
 12 13  2  0  0  0  0
 14 16  2  0  0  0  0
 14 15  1  0  0  0  0
 15 11  2  0  0  0  0
 16 12  1  0  0  0  0
 17 15  1  0  0  0  0
 19  8  1  0  0  0  0
 20 19  1  0  0  0  0
 21 20  1  0  0  0  0
 22 21  1  0  0  0  0
 23 24  2  0  0  0  0
 24 25  1  0  0  0  0
 24 22  1  0  0  0  0
M  END
>  <MODEL>
2

>  <REMARK>
 VINA RESULT:      -8.1      1.197      1.537
  Name = 
  7 active torsions:
  status: ('A' for Active; 'I' for Inactive)
    1  A    between atoms: N_1  and  C_19
    2  A    between atoms: N_1  and  C_25
    3  A    between atoms: N_4  and  C_19
    4  A    between atoms: N_4  and  C_20
    5  A    between atoms: C_5  and  C_10
    6  A    between atoms: C_10  and  C_17
    7  A    between atoms: C_20  and  C_22
                            x       y       z     vdW  Elec       q    Type
                         _______ _______ _______ _____ _____    ______ ____

>  <TORSDO>
F 7

$$$$
=
 OpenBabel11042420163D

 25 26  0  0  1  0  0  0  0  0999 V2000
  161.4890  208.0950  149.0780 C   0  0  0  0  0  1  0  0  0  0  0  0
  160.7370  206.1830  150.7460 C   0  0  1  0  0  3  0  0  0  0  0  0
  161.2770  206.6580  149.4160 C   0  0  0  0  0  0  0  0  0  0  0  0
  160.6790  204.7040  150.5300 C   0  0  0  0  0  0  0  0  0  0  0  0
  160.2600  203.8620  151.3670 O   0  0  0  0  0  0  0  0  0  0  0  0
  161.2430  203.2450  148.6950 O   0  0  0  0  0  0  0  0  0  0  0  0
  161.1570  204.3940  149.2030 C   0  0  0  0  0  0  0  0  0  0  0  0
  161.5060  205.6540  148.5700 C   0  0  0  0  0  0  0  0  0  0  0  0
  161.6740  206.5320  151.8710 C   0  0  0  0  0  0  0  0  0  0  0  0
  162.8570  206.0930  151.8570 O   0  0  0  0  0  0  0  0  0  0  0  0
  160.3560  209.0240  155.0970 C   0  0  0  0  0  0  0  0  0  0  0  0
  161.0600  208.7670  152.7930 C   0  0  0  0  0  3  0  0  0  0  0  0
  160.6300  209.5820  153.8440 C   0  0  0  0  0  3  0  0  0  0  0  0
  160.9430  206.8350  154.2430 C   0  0  0  0  0  3  0  0  0  0  0  0
  160.5140  207.6460  155.2980 C   0  0  0  0  0  0  0  0  0  0  0  0
  161.2200  207.3870  152.9840 C   0  0  0  0  0  0  0  0  0  0  0  0
  160.1770  206.9170  156.8570 Cl  0  0  0  0  0  0  0  0  0  0  0  0
  159.9290  209.8460  156.1330 O   0  0  0  0  0  1  0  0  0  0  0  0
  162.0060  205.8250  147.2400 N   0  0  0  0  0  2  0  0  0  0  0  0
  161.1420  206.0820  146.1000 C   0  0  0  0  0  2  0  0  0  0  0  0
  161.6160  205.3350  144.9480 N   0  0  0  0  0  2  0  0  0  0  0  0
  161.9790  204.0080  145.4170 C   0  0  0  0  0  2  0  0  0  0  0  0
  159.9260  203.3880  144.3850 O   0  0  0  0  0  0  0  0  0  0  0  0
  160.8580  203.0650  145.1650 C   0  0  0  0  0  0  0  0  0  0  0  0
  160.8190  201.8420  145.8220 O   0  0  0  0  0  1  0  0  0  0  0  0
  1  3  1  0  0  0  0
  2  9  1  1  0  0  0
  3  2  1  0  0  0  0
  4  2  1  0  0  0  0
  4  5  2  0  0  0  0
  6  7  2  0  0  0  0
  7  4  1  0  0  0  0
  8  7  1  0  0  0  0
  8  3  2  0  0  0  0
  9 16  1  0  0  0  0
 10  9  2  0  0  0  0
 11 15  1  0  0  0  0
 11 18  1  0  0  0  0
 12 16  2  0  0  0  0
 12 13  1  0  0  0  0
 13 11  2  0  0  0  0
 14 15  2  0  0  0  0
 15 17  1  0  0  0  0
 16 14  1  0  0  0  0
 19  8  1  0  0  0  0
 20 19  1  0  0  0  0
 21 22  1  0  0  0  0
 21 20  1  0  0  0  0
 23 24  2  0  0  0  0
 24 22  1  0  0  0  0
 24 25  1  0  0  0  0
M  END
>  <MODEL>
3

>  <REMARK>
 VINA RESULT:      -7.8      1.467      1.703
  Name = 
  7 active torsions:
  status: ('A' for Active; 'I' for Inactive)
    1  A    between atoms: N_1  and  C_19
    2  A    between atoms: N_1  and  C_25
    3  A    between atoms: N_4  and  C_19
    4  A    between atoms: N_4  and  C_20
    5  A    between atoms: C_5  and  C_10
    6  A    between atoms: C_10  and  C_17
    7  A    between atoms: C_20  and  C_22
                            x       y       z     vdW  Elec       q    Type
                         _______ _______ _______ _____ _____    ______ ____

>  <TORSDO>
F 7

$$$$
=
 OpenBabel11042420163D

 25 26  0  0  1  0  0  0  0  0999 V2000
  161.5610  208.0920  149.1410 C   0  0  0  0  0  1  0  0  0  0  0  0
  160.7750  206.1700  150.7810 C   0  0  1  0  0  3  0  0  0  0  0  0
  161.3280  206.6540  149.4600 C   0  0  0  0  0  0  0  0  0  0  0  0
  160.6990  204.6950  150.5470 C   0  0  0  0  0  0  0  0  0  0  0  0
  160.2640  203.8480  151.3710 O   0  0  0  0  0  0  0  0  0  0  0  0
  161.2520  203.2510  148.6970 O   0  0  0  0  0  0  0  0  0  0  0  0
  161.1780  204.3940  149.2180 C   0  0  0  0  0  0  0  0  0  0  0  0
  161.5470  205.6570  148.6020 C   0  0  0  0  0  0  0  0  0  0  0  0
  161.7110  206.4930  151.9150 C   0  0  0  0  0  0  0  0  0  0  0  0
  162.8970  206.0600  151.8880 O   0  0  0  0  0  0  0  0  0  0  0  0
  160.3820  208.8690  155.2220 C   0  0  0  0  0  0  0  0  0  0  0  0
  160.8610  206.7030  154.2500 C   0  0  0  0  0  3  0  0  0  0  0  0
  160.4270  207.4760  155.3300 C   0  0  0  0  0  3  0  0  0  0  0  0
  161.2060  208.7120  152.9500 C   0  0  0  0  0  3  0  0  0  0  0  0
  160.7720  209.4900  154.0270 C   0  0  0  0  0  0  0  0  0  0  0  0
  161.2540  207.3140  153.0510 C   0  0  0  0  0  0  0  0  0  0  0  0
  160.7270  211.2350  153.8610 Cl  0  0  0  0  0  0  0  0  0  0  0  0
  159.9490  209.6260  156.3040 O   0  0  0  0  0  1  0  0  0  0  0  0
  162.0570  205.8380  147.2780 N   0  0  0  0  0  2  0  0  0  0  0  0
  161.1990  206.0790  146.1290 C   0  0  0  0  0  2  0  0  0  0  0  0
  161.7470  205.4160  144.9590 N   0  0  0  0  0  2  0  0  0  0  0  0
  162.0690  204.0540  145.3490 C   0  0  0  0  0  2  0  0  0  0  0  0
  159.9650  203.5530  144.3570 O   0  0  0  0  0  0  0  0  0  0  0  0
  160.8900  203.1770  145.1210 C   0  0  0  0  0  0  0  0  0  0  0  0
  160.7920  201.9600  145.7820 O   0  0  0  0  0  1  0  0  0  0  0  0
  1  3  1  0  0  0  0
  2  9  1  1  0  0  0
  3  2  1  0  0  0  0
  4  2  1  0  0  0  0
  4  5  2  0  0  0  0
  6  7  2  0  0  0  0
  7  4  1  0  0  0  0
  8  7  1  0  0  0  0
  8  3  2  0  0  0  0
  9 16  1  0  0  0  0
 10  9  2  0  0  0  0
 11 13  1  0  0  0  0
 11 18  1  0  0  0  0
 12 13  2  0  0  0  0
 14 16  2  0  0  0  0
 14 15  1  0  0  0  0
 15 11  2  0  0  0  0
 16 12  1  0  0  0  0
 17 15  1  0  0  0  0
 19  8  1  0  0  0  0
 20 19  1  0  0  0  0
 21 22  1  0  0  0  0
 21 20  1  0  0  0  0
 23 24  2  0  0  0  0
 24 22  1  0  0  0  0
 24 25  1  0  0  0  0
M  END
>  <MODEL>
4

>  <REMARK>
 VINA RESULT:      -7.8      1.788      2.193
  Name = 
  7 active torsions:
  status: ('A' for Active; 'I' for Inactive)
    1  A    between atoms: N_1  and  C_19
    2  A    between atoms: N_1  and  C_25
    3  A    between atoms: N_4  and  C_19
    4  A    between atoms: N_4  and  C_20
    5  A    between atoms: C_5  and  C_10
    6  A    between atoms: C_10  and  C_17
    7  A    between atoms: C_20  and  C_22
                            x       y       z     vdW  Elec       q    Type
                         _______ _______ _______ _____ _____    ______ ____

>  <TORSDO>
F 7

$$$$
=
 OpenBabel11042420163D

 25 26  0  0  1  0  0  0  0  0999 V2000
  160.7570  207.4510  153.9620 C   0  0  0  0  0  1  0  0  0  0  0  0
  161.0710  207.1740  151.3490 C   0  0  1  0  0  3  0  0  0  0  0  0
  161.1670  207.9750  152.6270 C   0  0  0  0  0  0  0  0  0  0  0  0
  161.5500  208.1700  150.3400 C   0  0  0  0  0  0  0  0  0  0  0  0
  161.6240  207.9700  149.0990 O   0  0  0  0  0  0  0  0  0  0  0  0
  162.3260  210.4500  150.4580 O   0  0  0  0  0  0  0  0  0  0  0  0
  161.8890  209.4050  151.0070 C   0  0  0  0  0  0  0  0  0  0  0  0
  161.6240  209.2110  152.4220 C   0  0  0  0  0  0  0  0  0  0  0  0
  161.9720  205.9690  151.3920 C   0  0  0  0  0  0  0  0  0  0  0  0
  163.0680  206.0290  152.0160 O   0  0  0  0  0  0  0  0  0  0  0  0
  160.8300  202.3320  149.4360 C   0  0  0  0  0  0  0  0  0  0  0  0
  161.2100  203.5950  151.4680 C   0  0  0  0  0  3  0  0  0  0  0  0
  160.8370  202.4080  150.8320 C   0  0  0  0  0  3  0  0  0  0  0  0
  161.5700  204.6350  149.3150 C   0  0  0  0  0  3  0  0  0  0  0  0
  161.1990  203.4500  148.6740 C   0  0  0  0  0  0  0  0  0  0  0  0
  161.5800  204.7180  150.7150 C   0  0  0  0  0  0  0  0  0  0  0  0
  161.1990  203.3860  146.9210 Cl  0  0  0  0  0  0  0  0  0  0  0  0
  160.4570  201.1460  148.8170 O   0  0  0  0  0  1  0  0  0  0  0  0
  161.8000  210.1820  153.4590 N   0  0  0  0  0  2  0  0  0  0  0  0
  160.8000  211.1880  153.7750 C   0  0  0  0  0  2  0  0  0  0  0  0
  160.2650  210.9470  155.1040 N   0  0  0  0  0  2  0  0  0  0  0  0
  161.3840  210.9870  156.0300 C   0  0  0  0  0  2  0  0  0  0  0  0
  162.4950  209.2170  157.1700 O   0  0  0  0  0  0  0  0  0  0  0  0
  161.4000  209.7450  156.8480 C   0  0  0  0  0  0  0  0  0  0  0  0
  160.2050  209.1460  157.2230 O   0  0  0  0  0  1  0  0  0  0  0  0
  2  9  1  1  0  0  0
  2  3  1  0  0  0  0
  3  1  1  0  0  0  0
  4  7  1  0  0  0  0
  4  2  1  0  0  0  0
  5  4  2  0  0  0  0
  6  7  2  0  0  0  0
  7  8  1  0  0  0  0
  8  3  2  0  0  0  0
  8 19  1  0  0  0  0
  9 10  2  0  0  0  0
 11 13  1  0  0  0  0
 13 12  2  0  0  0  0
 14 16  2  0  0  0  0
 15 14  1  0  0  0  0
 15 11  2  0  0  0  0
 16  9  1  0  0  0  0
 16 12  1  0  0  0  0
 17 15  1  0  0  0  0
 18 11  1  0  0  0  0
 19 20  1  0  0  0  0
 20 21  1  0  0  0  0
 21 22  1  0  0  0  0
 22 24  1  0  0  0  0
 24 23  2  0  0  0  0
 24 25  1  0  0  0  0
M  END
>  <MODEL>
5

>  <REMARK>
 VINA RESULT:      -7.2      4.137      8.402
  Name = 
  7 active torsions:
  status: ('A' for Active; 'I' for Inactive)
    1  A    between atoms: N_1  and  C_19
    2  A    between atoms: N_1  and  C_25
    3  A    between atoms: N_4  and  C_19
    4  A    between atoms: N_4  and  C_20
    5  A    between atoms: C_5  and  C_10
    6  A    between atoms: C_10  and  C_17
    7  A    between atoms: C_20  and  C_22
                            x       y       z     vdW  Elec       q    Type
                         _______ _______ _______ _____ _____    ______ ____

>  <TORSDO>
F 7

$$$$
=
 OpenBabel11042420163D

 25 26  0  0  1  0  0  0  0  0999 V2000
  160.8220  207.3280  154.0810 C   0  0  0  0  0  1  0  0  0  0  0  0
  161.0210  207.0830  151.4540 C   0  0  1  0  0  3  0  0  0  0  0  0
  161.1540  207.8750  152.7340 C   0  0  0  0  0  0  0  0  0  0  0  0
  161.4230  208.1000  150.4330 C   0  0  0  0  0  0  0  0  0  0  0  0
  161.4460  207.9130  149.1880 O   0  0  0  0  0  0  0  0  0  0  0  0
  162.1390  210.4000  150.5370 O   0  0  0  0  0  0  0  0  0  0  0  0
  161.7590  209.3390  151.0960 C   0  0  0  0  0  0  0  0  0  0  0  0
  161.5650  209.1260  152.5200 C   0  0  0  0  0  0  0  0  0  0  0  0
  161.9560  205.9030  151.4430 C   0  0  0  0  0  0  0  0  0  0  0  0
  163.0780  205.9900  152.0160 O   0  0  0  0  0  0  0  0  0  0  0  0
  160.8260  202.2510  149.5090 C   0  0  0  0  0  0  0  0  0  0  0  0
  161.1920  203.5310  151.5330 C   0  0  0  0  0  3  0  0  0  0  0  0
  160.8220  202.3390  150.9040 C   0  0  0  0  0  3  0  0  0  0  0  0
  161.5690  204.5530  149.3740 C   0  0  0  0  0  3  0  0  0  0  0  0
  161.2020  203.3620  148.7410 C   0  0  0  0  0  0  0  0  0  0  0  0
  161.5680  204.6470  150.7740 C   0  0  0  0  0  0  0  0  0  0  0  0
  161.2160  203.2830  146.9890 Cl  0  0  0  0  0  0  0  0  0  0  0  0
  160.4570  201.0600  148.8970 O   0  0  0  0  0  1  0  0  0  0  0  0
  161.7620  210.0920  153.5570 N   0  0  0  0  0  2  0  0  0  0  0  0
  160.6810  210.9000  154.0970 C   0  0  0  0  0  2  0  0  0  0  0  0
  160.2560  211.8750  153.1070 N   0  0  0  0  0  2  0  0  0  0  0  0
  158.8600  211.6010  152.8080 C   0  0  0  0  0  2  0  0  0  0  0  0
  158.1200  213.4030  154.1760 O   0  0  0  0  0  0  0  0  0  0  0  0
  157.9980  212.1900  153.8670 C   0  0  0  0  0  0  0  0  0  0  0  0
  157.0840  211.3910  154.5410 O   0  0  0  0  0  1  0  0  0  0  0  0
  2  9  1  1  0  0  0
  2  3  1  0  0  0  0
  3  1  1  0  0  0  0
  4  7  1  0  0  0  0
  4  2  1  0  0  0  0
  5  4  2  0  0  0  0
  6  7  2  0  0  0  0
  7  8  1  0  0  0  0
  8  3  2  0  0  0  0
  8 19  1  0  0  0  0
  9 10  2  0  0  0  0
 11 13  1  0  0  0  0
 13 12  2  0  0  0  0
 14 16  2  0  0  0  0
 15 14  1  0  0  0  0
 15 11  2  0  0  0  0
 16  9  1  0  0  0  0
 16 12  1  0  0  0  0
 17 15  1  0  0  0  0
 18 11  1  0  0  0  0
 19 20  1  0  0  0  0
 21 20  1  0  0  0  0
 22 21  1  0  0  0  0
 22 24  1  0  0  0  0
 24 23  2  0  0  0  0
 24 25  1  0  0  0  0
M  END
>  <MODEL>
6

>  <REMARK>
 VINA RESULT:      -7.2      4.189      8.078
  Name = 
  7 active torsions:
  status: ('A' for Active; 'I' for Inactive)
    1  A    between atoms: N_1  and  C_19
    2  A    between atoms: N_1  and  C_25
    3  A    between atoms: N_4  and  C_19
    4  A    between atoms: N_4  and  C_20
    5  A    between atoms: C_5  and  C_10
    6  A    between atoms: C_10  and  C_17
    7  A    between atoms: C_20  and  C_22
                            x       y       z     vdW  Elec       q    Type
                         _______ _______ _______ _____ _____    ______ ____

>  <TORSDO>
F 7

$$$$
=
 OpenBabel11042420163D

 25 26  0  0  1  0  0  0  0  0999 V2000
  162.3610  208.1780  149.8490 C   0  0  0  0  0  1  0  0  0  0  0  0
  161.7730  205.8870  151.0340 C   0  0  1  0  0  3  0  0  0  0  0  0
  161.8960  207.3930  151.0280 C   0  0  0  0  0  0  0  0  0  0  0  0
  161.3290  205.6310  152.4400 C   0  0  0  0  0  0  0  0  0  0  0  0
  161.1150  204.4960  152.9420 O   0  0  0  0  0  0  0  0  0  0  0  0
  160.8540  207.0390  154.3390 O   0  0  0  0  0  0  0  0  0  0  0  0
  161.2080  206.8890  153.1410 C   0  0  0  0  0  0  0  0  0  0  0  0
  161.5780  207.9360  152.2040 C   0  0  0  0  0  0  0  0  0  0  0  0
  160.7390  205.4200  150.0450 C   0  0  0  0  0  0  0  0  0  0  0  0
  159.7510  206.1590  149.7780 O   0  0  0  0  0  0  0  0  0  0  0  0
  161.1350  201.6070  148.1320 C   0  0  0  0  0  0  0  0  0  0  0  0
  160.8080  202.9280  150.1360 C   0  0  0  0  0  3  0  0  0  0  0  0
  160.9360  201.6830  149.5140 C   0  0  0  0  0  3  0  0  0  0  0  0
  161.0740  204.0240  147.9970 C   0  0  0  0  0  3  0  0  0  0  0  0
  161.2050  202.7820  147.3700 C   0  0  0  0  0  0  0  0  0  0  0  0
  160.8760  204.1080  149.3830 C   0  0  0  0  0  0  0  0  0  0  0  0
  161.4520  202.7180  145.6350 Cl  0  0  0  0  0  0  0  0  0  0  0  0
  161.2610  200.3630  147.5260 O   0  0  0  0  0  1  0  0  0  0  0  0
  161.6200  209.3400  152.4750 N   0  0  0  0  0  2  0  0  0  0  0  0
  160.4290  210.1230  152.7630 C   0  0  0  0  0  2  0  0  0  0  0  0
  160.3580  210.4010  154.1870 N   0  0  0  0  0  2  0  0  0  0  0  0
  161.7080  210.7000  154.6340 C   0  0  0  0  0  2  0  0  0  0  0  0
  161.5030  211.3050  156.9270 O   0  0  0  0  0  1  0  0  0  0  0  0
  161.8250  210.4230  156.0900 C   0  0  0  0  0  0  0  0  0  0  0  0
  162.3280  209.2040  156.5260 O   0  0  0  0  0  0  0  0  0  0  0  0
  1  3  1  0  0  0  0
  2  9  1  6  0  0  0
  2  4  1  0  0  0  0
  3  2  1  0  0  0  0
  3  8  2  0  0  0  0
  4  5  2  0  0  0  0
  4  7  1  0  0  0  0
  7  6  2  0  0  0  0
  8 19  1  0  0  0  0
  8  7  1  0  0  0  0
 10  9  2  0  0  0  0
 11 13  1  0  0  0  0
 13 12  2  0  0  0  0
 14 16  2  0  0  0  0
 15 14  1  0  0  0  0
 15 11  2  0  0  0  0
 16  9  1  0  0  0  0
 16 12  1  0  0  0  0
 17 15  1  0  0  0  0
 18 11  1  0  0  0  0
 19 20  1  0  0  0  0
 20 21  1  0  0  0  0
 21 22  1  0  0  0  0
 22 24  1  0  0  0  0
 24 25  2  0  0  0  0
 24 23  1  0  0  0  0
M  END
>  <MODEL>
7

>  <REMARK>
 VINA RESULT:      -7.2      4.061      8.247
  Name = 
  7 active torsions:
  status: ('A' for Active; 'I' for Inactive)
    1  A    between atoms: N_1  and  C_19
    2  A    between atoms: N_1  and  C_25
    3  A    between atoms: N_4  and  C_19
    4  A    between atoms: N_4  and  C_20
    5  A    between atoms: C_5  and  C_10
    6  A    between atoms: C_10  and  C_17
    7  A    between atoms: C_20  and  C_22
                            x       y       z     vdW  Elec       q    Type
                         _______ _______ _______ _____ _____    ______ ____

>  <TORSDO>
F 7

$$$$
=
 OpenBabel11042420163D

 25 26  0  0  1  0  0  0  0  0999 V2000
  161.0800  206.5740  148.6640 C   0  0  0  0  0  1  0  0  0  0  0  0
  160.6610  205.3370  150.9650 C   0  0  1  0  0  3  0  0  0  0  0  0
  161.0240  205.3390  149.4970 C   0  0  0  0  0  0  0  0  0  0  0  0
  160.7070  203.8750  151.2790 C   0  0  0  0  0  0  0  0  0  0  0  0
  160.4450  203.3620  152.3980 O   0  0  0  0  0  0  0  0  0  0  0  0
  161.2050  201.8920  150.0010 O   0  0  0  0  0  0  0  0  0  0  0  0
  161.0740  203.1400  150.0900 C   0  0  0  0  0  0  0  0  0  0  0  0
  161.2510  204.1130  149.0260 C   0  0  0  0  0  0  0  0  0  0  0  0
  161.6740  206.0990  151.7780 C   0  0  0  0  0  0  0  0  0  0  0  0
  162.9060  205.9080  151.5790 O   0  0  0  0  0  0  0  0  0  0  0  0
  160.4010  208.9230  154.7370 C   0  0  0  0  0  0  0  0  0  0  0  0
  161.1580  208.4340  152.4890 C   0  0  0  0  0  3  0  0  0  0  0  0
  160.7430  209.3560  153.4520 C   0  0  0  0  0  3  0  0  0  0  0  0
  160.8900  206.6410  154.0900 C   0  0  0  0  0  3  0  0  0  0  0  0
  160.4760  207.5610  155.0580 C   0  0  0  0  0  0  0  0  0  0  0  0
  161.2350  207.0690  152.7990 C   0  0  0  0  0  0  0  0  0  0  0  0
  160.0530  206.9870  156.6600 Cl  0  0  0  0  0  0  0  0  0  0  0  0
  159.9900  209.8520  155.6850 O   0  0  0  0  0  1  0  0  0  0  0  0
  161.6000  203.8300  147.6670 N   0  0  0  0  0  2  0  0  0  0  0  0
  160.6210  203.4390  146.6670 C   0  0  0  0  0  2  0  0  0  0  0  0
  161.2040  202.4600  145.7650 N   0  0  0  0  0  2  0  0  0  0  0  0
  160.3570  201.2800  145.8080 C   0  0  0  0  0  2  0  0  0  0  0  0
  161.3340  199.1170  145.6370 O   0  0  0  0  0  0  0  0  0  0  0  0
  161.1270  200.1310  146.3520 C   0  0  0  0  0  0  0  0  0  0  0  0
  161.5850  200.1600  147.6620 O   0  0  0  0  0  1  0  0  0  0  0  0
  1  3  1  0  0  0  0
  2  4  1  0  0  0  0
  2  9  1  1  0  0  0
  3  2  1  0  0  0  0
  4  5  2  0  0  0  0
  6  7  2  0  0  0  0
  7  4  1  0  0  0  0
  8  3  2  0  0  0  0
  8  7  1  0  0  0  0
  9 16  1  0  0  0  0
 10  9  2  0  0  0  0
 11 15  1  0  0  0  0
 11 18  1  0  0  0  0
 12 16  2  0  0  0  0
 12 13  1  0  0  0  0
 13 11  2  0  0  0  0
 14 15  2  0  0  0  0
 15 17  1  0  0  0  0
 16 14  1  0  0  0  0
 19  8  1  0  0  0  0
 20 19  1  0  0  0  0
 21 22  1  0  0  0  0
 21 20  1  0  0  0  0
 22 24  1  0  0  0  0
 23 24  2  0  0  0  0
 24 25  1  0  0  0  0
M  END
>  <MODEL>
8

>  <REMARK>
 VINA RESULT:      -7.1      2.017      2.312
  Name = 
  7 active torsions:
  status: ('A' for Active; 'I' for Inactive)
    1  A    between atoms: N_1  and  C_19
    2  A    between atoms: N_1  and  C_25
    3  A    between atoms: N_4  and  C_19
    4  A    between atoms: N_4  and  C_20
    5  A    between atoms: C_5  and  C_10
    6  A    between atoms: C_10  and  C_17
    7  A    between atoms: C_20  and  C_22
                            x       y       z     vdW  Elec       q    Type
                         _______ _______ _______ _____ _____    ______ ____

>  <TORSDO>
F 7

$$$$
=
 OpenBabel11042420163D

 25 26  0  0  1  0  0  0  0  0999 V2000
  160.8970  204.4950  150.6620 C   0  0  0  0  0  1  0  0  0  0  0  0
  161.0730  206.5400  148.9920 C   0  0  1  0  0  3  0  0  0  0  0  0
  161.2190  205.9200  150.3630 C   0  0  0  0  0  0  0  0  0  0  0  0
  161.4680  207.9570  149.2650 C   0  0  0  0  0  0  0  0  0  0  0  0
  161.4790  208.8870  148.4160 O   0  0  0  0  0  0  0  0  0  0  0  0
  162.1890  209.1570  151.2280 O   0  0  0  0  0  0  0  0  0  0  0  0
  161.8110  208.0990  150.6610 C   0  0  0  0  0  0  0  0  0  0  0  0
  161.6300  206.7970  151.2790 C   0  0  0  0  0  0  0  0  0  0  0  0
  162.0060  205.8970  148.0010 C   0  0  0  0  0  0  0  0  0  0  0  0
  163.1570  206.3820  147.8220 O   0  0  0  0  0  0  0  0  0  0  0  0
  160.7820  202.4370  145.7920 C   0  0  0  0  0  0  0  0  0  0  0  0
  161.2190  204.8170  145.8950 C   0  0  0  0  0  3  0  0  0  0  0  0
  160.8200  203.6890  145.1720 C   0  0  0  0  0  3  0  0  0  0  0  0
  161.5440  203.4440  147.8590 C   0  0  0  0  0  3  0  0  0  0  0  0
  161.1440  202.3130  147.1410 C   0  0  0  0  0  0  0  0  0  0  0  0
  161.5840  204.7040  147.2430 C   0  0  0  0  0  0  0  0  0  0  0  0
  161.1060  200.7560  147.9450 Cl  0  0  0  0  0  0  0  0  0  0  0  0
  160.3830  201.3240  145.0620 O   0  0  0  0  0  1  0  0  0  0  0  0
  161.8380  206.4760  152.6580 N   0  0  0  0  0  2  0  0  0  0  0  0
  160.8060  206.6370  153.6690 C   0  0  0  0  0  2  0  0  0  0  0  0
  161.3020  207.4740  154.7480 N   0  0  0  0  0  2  0  0  0  0  0  0
  160.8310  208.8250  154.4940 C   0  0  0  0  0  2  0  0  0  0  0  0
  162.2500  209.3710  156.3250 O   0  0  0  0  0  1  0  0  0  0  0  0
  161.5890  209.7860  155.3380 C   0  0  0  0  0  0  0  0  0  0  0  0
  161.5360  211.1450  155.0620 O   0  0  0  0  0  0  0  0  0  0  0  0
  2  9  1  6  0  0  0
  2  4  1  0  0  0  0
  2  3  1  0  0  0  0
  3  1  1  0  0  0  0
  3  8  2  0  0  0  0
  4  7  1  0  0  0  0
  5  4  2  0  0  0  0
  7  6  2  0  0  0  0
  7  8  1  0  0  0  0
  8 19  1  0  0  0  0
 10  9  2  0  0  0  0
 11 15  1  0  0  0  0
 12 16  2  0  0  0  0
 13 11  2  0  0  0  0
 13 12  1  0  0  0  0
 15 14  2  0  0  0  0
 15 17  1  0  0  0  0
 16 14  1  0  0  0  0
 16  9  1  0  0  0  0
 18 11  1  0  0  0  0
 19 20  1  0  0  0  0
 20 21  1  0  0  0  0
 22 21  1  0  0  0  0
 22 24  1  0  0  0  0
 24 23  1  0  0  0  0
 25 24  2  0  0  0  0
M  END
>  <MODEL>
9

>  <REMARK>
 VINA RESULT:      -7.0      3.738      8.268
  Name = 
  7 active torsions:
  status: ('A' for Active; 'I' for Inactive)
    1  A    between atoms: N_1  and  C_19
    2  A    between atoms: N_1  and  C_25
    3  A    between atoms: N_4  and  C_19
    4  A    between atoms: N_4  and  C_20
    5  A    between atoms: C_5  and  C_10
    6  A    between atoms: C_10  and  C_17
    7  A    between atoms: C_20  and  C_22
                            x       y       z     vdW  Elec       q    Type
                         _______ _______ _______ _____ _____    ______ ____

>  <TORSDO>
F 7

$$$$
