=
 OpenBabel11042420173D

 70 78  0  0  1  0  0  0  0  0999 V2000
  162.3310  209.4000  147.9540 C   0  0  0  0  0  2  0  0  0  0  0  0
  159.6520  211.4230  151.2360 C   0  0  0  0  0  2  0  0  0  0  0  0
  162.2740  210.7890  149.8070 C   0  0  1  0  0  3  0  0  0  0  0  0
  159.8270  211.9190  149.8100 C   0  0  0  0  0  2  0  0  0  0  0  0
  161.2980  210.1150  148.8070 C   0  0  1  0  0  3  0  0  0  0  0  0
  162.8610  208.4580  150.2960 C   0  0  0  0  0  0  0  0  0  0  0  0
  160.6100  212.1390  152.1810 C   0  0  2  0  0  3  0  0  0  0  0  0
  160.8810  211.2710  153.4030 C   0  0  0  0  0  2  0  0  0  0  0  0
  161.1580  211.5770  149.1190 C   0  0  2  0  0  0  0  0  0  0  0  0
  162.8020  208.1790  148.7810 C   0  0  1  0  0  3  0  0  0  0  0  0
  162.6630  209.9690  152.2430 C   0  0  0  0  0  2  0  0  0  0  0  0
  162.4570  209.6560  150.7910 C   0  0  0  0  0  0  0  0  0  0  0  0
  161.3570  209.8670  153.0160 C   0  0  1  0  0  3  0  0  0  0  0  0
  162.9270  213.6670  146.6120 N   0  0  0  0  0  2  0  0  0  0  0  0
  162.8660  212.7850  147.7170 C   0  0  0  0  0  3  0  0  0  0  0  0
  161.6120  212.5550  148.0710 C   0  0  0  0  0  0  0  0  0  0  0  0
  160.6560  213.2960  147.1980 C   0  0  0  0  0  2  0  0  0  0  0  0
  161.5700  213.9580  146.1630 C   0  0  2  0  0  3  0  0  0  0  0  0
  161.3340  213.3860  144.7590 C   0  0  0  0  0  3  0  0  0  0  0  0
  162.5530  212.7700  142.6040 C   0  0  0  0  0  2  0  0  0  0  0  0
  160.7070  214.0180  142.3600 C   0  0  0  0  0  2  0  0  0  0  0  0
  160.5430  214.3500  143.8500 C   0  0  0  0  0  2  0  0  0  0  0  0
  162.6560  212.9160  144.1290 C   0  0  0  0  0  2  0  0  0  0  0  0
  161.2100  212.7180  142.1870 O   0  0  0  0  0  0  0  0  0  0  0  0
  163.3400  207.4810  151.1790 O   0  0  0  0  0  0  0  0  0  0  0  0
  164.2080  206.4330  150.7750 C   0  0  0  0  0  1  0  0  0  0  0  0
  160.0410  213.4850  152.5990 C   0  0  0  0  0  2  0  0  0  0  0  0
  158.7970  213.8040  151.7760 C   0  0  0  0  0  2  0  0  0  0  0  0
  156.4460  213.3370  151.6190 F   0  0  0  0  0  0  0  0  0  0  0  0
  157.5090  213.4190  152.5060 C   0  0  2  0  0  3  0  0  0  0  0  0
  157.1990  214.3950  153.6590 C   0  0  1  0  0  3  0  0  0  0  0  0
  155.7300  214.3550  154.0900 C   0  0  0  0  0  1  0  0  0  0  0  0
  158.0920  214.2660  154.7540 O   0  0  0  0  0  0  0  0  0  0  0  0
  157.3460  214.3360  155.9450 C   0  0  0  0  0  2  0  0  0  0  0  0
  156.7840  210.0310  155.5180 C   0  0  0  0  0  2  0  0  0  0  0  0
  158.1440  210.9960  154.7440 S   0  0  0  0  0  0  0  0  0  0  0  0
  157.2260  212.9680  156.5890 C   0  0  1  0  0  3  0  0  0  0  0  0
  155.9400  210.7980  156.5490 C   0  0  0  0  0  2  0  0  0  0  0  0
  154.7790  212.9040  157.1300 C   0  0  0  0  0  1  0  0  0  0  0  0
  155.8780  212.3020  156.2710 C   0  0  1  0  0  3  0  0  0  0  0  0
  159.4390  212.1620  156.7090 O   0  0  0  0  0  0  0  0  0  0  0  0
  158.3690  212.1160  156.1260 C   0  0  0  0  0  0  0  0  0  0  0  0
  161.8680  207.0040  148.5100 C   0  0  0  0  0  2  0  0  0  0  0  0
  161.2600  207.1070  147.1190 C   0  0  0  0  0  2  0  0  0  0  0  0
  160.6910  205.2030  145.6490 C   0  0  1  0  0  3  0  0  0  0  0  0
  161.2020  203.8980  145.2710 N   0  0  0  0  0  1  0  0  0  0  0  0
  161.8310  206.0400  146.2000 C   0  0  1  0  0  3  0  0  0  0  0  0
  161.3320  206.2700  144.7900 C   0  0  0  0  0  2  0  0  0  0  0  0
  161.5150  208.9430  154.2310 C   0  0  1  0  0  3  0  0  0  0  0  0
  158.9920  208.7470  154.0820 F   0  0  0  0  0  0  0  0  0  0  0  0
  158.8310  206.7200  155.9230 C   0  0  0  0  0  1  0  0  0  0  0  0
  160.1730  207.4240  155.8250 C   0  0  1  0  0  3  0  0  0  0  0  0
  160.1600  208.4850  154.7870 C   0  0  1  0  0  0  0  0  0  0  0  0
  160.0180  208.7870  156.1540 O   0  0  0  0  0  0  0  0  0  0  0  0
  162.3620  207.7380  153.8250 C   0  0  0  0  0  2  0  0  0  0  0  0
  161.4240  203.9600  151.3080 C   0  0  0  0  0  0  0  0  0  0  0  0
  160.7460  204.3700  153.4930 N   0  0  0  0  0  0  0  0  0  0  0  0
  161.7210  206.4880  154.2020 N   0  0  0  0  0  2  0  0  0  0  0  0
  162.2080  205.3970  151.7070 S   0  0  0  0  0  0  0  0  0  0  0  0
  160.6830  203.5440  152.4130 C   0  0  0  0  0  0  0  0  0  0  0  0
  161.5420  205.4330  153.2550 C   0  0  0  0  0  0  0  0  0  0  0  0
  159.8470  202.3130  152.4280 C   0  0  0  0  0  1  0  0  0  0  0  0
  161.5160  203.2600  149.9870 C   0  0  2  0  0  3  0  0  0  0  0  0
  160.1430  205.1370  149.4560 O   0  0  0  0  0  1  0  0  0  0  0  0
  160.5900  203.9050  148.9730 C   0  0  0  0  0  2  0  0  0  0  0  0
  161.1710  201.8570  150.1410 N   0  0  0  0  0  2  0  0  0  0  0  0
  160.6160  201.4140  148.8760 C   0  0  0  0  0  2  0  0  0  0  0  0
  161.7450  200.9900  147.9520 C   0  0  0  0  0  2  0  0  0  0  0  0
  161.3200  199.1060  146.5470 O   0  0  0  0  0  1  0  0  0  0  0  0
  161.1900  200.4930  146.6290 C   0  0  0  0  0  2  0  0  0  0  0  0
  1 10  1  0  0  0  0
  2  7  1  0  0  0  0
  3 12  1  1  0  0  0
  4  2  1  0  0  0  0
  5  1  1  6  0  0  0
  5  9  1  0  0  0  0
  5  3  1  0  0  0  0
  6 12  2  0  0  0  0
  6 25  1  0  0  0  0
  7 27  1  1  0  0  0
  7  8  1  0  0  0  0
  9 16  1  6  0  0  0
  9  3  1  0  0  0  0
  9  4  1  0  0  0  0
 10 43  1  1  0  0  0
 10  6  1  0  0  0  0
 11 13  1  0  0  0  0
 12 11  1  0  0  0  0
 13  8  1  0  0  0  0
 13 49  1  1  0  0  0
 14 15  1  0  0  0  0
 15 16  2  0  0  0  0
 17 16  1  0  0  0  0
 18 19  1  6  0  0  0
 18 14  1  0  0  0  0
 18 17  1  0  0  0  0
 20 23  1  0  0  0  0
 21 22  1  0  0  0  0
 22 19  1  0  0  0  0
 23 19  1  0  0  0  0
 24 21  1  0  0  0  0
 24 20  1  0  0  0  0
 26 25  1  0  0  0  0
 28 30  1  0  0  0  0
 28 27  1  0  0  0  0
 30 29  1  6  0  0  0
 30 31  1  0  0  0  0
 31 32  1  1  0  0  0
 31 33  1  0  0  0  0
 33 34  1  0  0  0  0
 35 38  1  0  0  0  0
 36 35  1  0  0  0  0
 36 42  1  0  0  0  0
 37 34  1  6  0  0  0
 40 38  1  0  0  0  0
 40 37  1  0  0  0  0
 40 39  1  1  0  0  0
 42 37  1  0  0  0  0
 42 41  2  0  0  0  0
 44 43  1  0  0  0  0
 45 46  1  6  0  0  0
 45 47  1  0  0  0  0
 47 44  1  1  0  0  0
 48 45  1  0  0  0  0
 48 47  1  0  0  0  0
 49 55  1  6  0  0  0
 49 53  1  0  0  0  0
 52 51  1  6  0  0  0
 52 54  1  0  0  0  0
 53 50  1  6  0  0  0
 53 52  1  0  0  0  0
 53 54  1  0  0  0  0
 55 58  1  0  0  0  0
 56 59  1  0  0  0  0
 56 60  2  0  0  0  0
 59 61  1  0  0  0  0
 60 62  1  0  0  0  0
 60 57  1  0  0  0  0
 61 57  2  0  0  0  0
 61 58  1  0  0  0  0
 63 65  1  6  0  0  0
 63 66  1  0  0  0  0
 63 56  1  0  0  0  0
 65 64  1  0  0  0  0
 67 66  1  0  0  0  0
 68 67  1  0  0  0  0
 69 70  1  0  0  0  0
 70 68  1  0  0  0  0
M  END
>  <MODEL>
1

>  <REMARK>
 VINA RESULT:       2.6      0.000      0.000
  Name = 
  23 active torsions:
  status: ('A' for Active; 'I' for Inactive)
    1  A    between atoms: C_1  and  C_60
    2  A    between atoms: C_1  and  C_62
    3  A    between atoms: C_2  and  C_8
    4  A    between atoms: C_2  and  C_66
    5  A    between atoms: C_2  and  C_68
    6  A    between atoms: C_7  and  C_43
    7  A    between atoms: C_7  and  C_48
    8  A    between atoms: C_8  and  N_35
    9  A    between atoms: C_9  and  C_47
   10  A    between atoms: C_14  and  C_49
   11  A    between atoms: C_14  and  C_51
   12  A    between atoms: C_17  and  CA_40
   13  A    between atoms: C_20  and  O_36
   14  A    between atoms: C_21  and  CA_40
   15  A    between atoms: C_25  and  O_38
   16  A    between atoms: C_25  and  C_48
   17  A    between atoms: C_27  and  C_33
   18  A    between atoms: C_29  and  C_56
   19  A    between atoms: C_30  and  C_43
   20  A    between atoms: O_38  and  C_56
   21  A    between atoms: C_39  and  C_51
   22  A    between atoms: CA_40  and  N_42
   23  A    between atoms: N_42  and  C_60
                            x       y       z     vdW  Elec       q    Type
                         _______ _______ _______ _____ _____    ______ ____

>  <TORSDO>
F 23

$$$$
=
 OpenBabel11042420173D

 70 78  0  0  1  0  0  0  0  0999 V2000
  160.1150  209.6640  153.3950 C   0  0  0  0  0  2  0  0  0  0  0  0
  160.3080  208.3610  148.8900 C   0  0  0  0  0  2  0  0  0  0  0  0
  161.4670  209.3190  151.5470 C   0  0  1  0  0  3  0  0  0  0  0  0
  160.2420  207.4170  150.0800 C   0  0  0  0  0  2  0  0  0  0  0  0
  160.0160  209.0360  152.0170 C   0  0  1  0  0  3  0  0  0  0  0  0
  160.7710  211.6470  151.8830 C   0  0  0  0  0  0  0  0  0  0  0  0
  161.7510  208.5780  148.4480 C   0  0  2  0  0  3  0  0  0  0  0  0
  161.8780  209.9140  147.7280 C   0  0  0  0  0  2  0  0  0  0  0  0
  160.8300  207.9350  151.4040 C   0  0  2  0  0  0  0  0  0  0  0  0
  160.0650  211.1960  153.1760 C   0  0  1  0  0  3  0  0  0  0  0  0
  162.1160  211.1870  149.8580 C   0  0  0  0  0  2  0  0  0  0  0  0
  161.2990  210.7300  151.0320 C   0  0  0  0  0  0  0  0  0  0  0  0
  161.3250  211.0720  148.5640 C   0  0  1  0  0  3  0  0  0  0  0  0
  161.6060  205.5120  154.1070 N   0  0  0  0  0  2  0  0  0  0  0  0
  160.9850  206.6670  153.5730 C   0  0  0  0  0  3  0  0  0  0  0  0
  161.3720  206.8790  152.3260 C   0  0  0  0  0  0  0  0  0  0  0  0
  162.3410  205.8390  151.8740 C   0  0  0  0  0  2  0  0  0  0  0  0
  162.4030  204.8770  153.0640 C   0  0  2  0  0  3  0  0  0  0  0  0
  161.8220  203.5040  152.7050 C   0  0  0  0  0  3  0  0  0  0  0  0
  161.9040  201.6880  150.9140 C   0  0  0  0  0  2  0  0  0  0  0  0
  159.8560  202.3410  151.5490 C   0  0  0  0  0  2  0  0  0  0  0  0
  160.3220  203.5690  152.3460 C   0  0  0  0  0  2  0  0  0  0  0  0
  162.6690  202.8170  151.6200 C   0  0  0  0  0  2  0  0  0  0  0  0
  160.7800  201.2890  151.6600 O   0  0  0  0  0  0  0  0  0  0  0  0
  160.8830  213.0100  151.5730 O   0  0  0  0  0  0  0  0  0  0  0  0
  159.8250  213.9360  151.7700 C   0  0  0  0  0  1  0  0  0  0  0  0
  162.2110  207.4420  147.5490 C   0  0  0  0  0  2  0  0  0  0  0  0
  161.2830  206.2420  147.7090 C   0  0  0  0  0  2  0  0  0  0  0  0
  163.0240  204.9480  146.6780 F   0  0  0  0  0  0  0  0  0  0  0  0
  161.6480  205.1010  146.7570 C   0  0  2  0  0  3  0  0  0  0  0  0
  161.0290  205.3110  145.3610 C   0  0  1  0  0  3  0  0  0  0  0  0
  162.0380  205.8460  144.3390 C   0  0  0  0  0  1  0  0  0  0  0  0
  160.3250  204.1740  144.8860 O   0  0  0  0  0  0  0  0  0  0  0  0
  161.1450  203.0430  145.0510 C   0  0  0  0  0  2  0  0  0  0  0  0
  161.2240  199.1830  147.0840 C   0  0  0  0  0  2  0  0  0  0  0  0
  162.1960  200.6600  147.5910 S   0  0  0  0  0  0  0  0  0  0  0  0
  160.4030  201.9380  145.7800 C   0  0  1  0  0  3  0  0  0  0  0  0
  160.1660  199.4360  145.9970 C   0  0  0  0  0  2  0  0  0  0  0  0
  159.6110  200.5400  143.8550 C   0  0  0  0  0  1  0  0  0  0  0  0
  160.5370  200.5880  145.0590 C   0  0  1  0  0  3  0  0  0  0  0  0
  160.4550  202.5720  148.0500 O   0  0  0  0  0  0  0  0  0  0  0  0
  160.9220  201.8530  147.1830 C   0  0  0  0  0  0  0  0  0  0  0  0
  158.6090  211.6480  153.1520 C   0  0  0  0  0  2  0  0  0  0  0  0
  157.9040  211.2700  154.4470 C   0  0  0  0  0  2  0  0  0  0  0  0
  156.8980  212.4180  156.3910 C   0  0  1  0  0  3  0  0  0  0  0  0
  155.6350  212.9970  156.8090 N   0  0  0  0  0  1  0  0  0  0  0  0
  156.9390  212.3630  154.8750 C   0  0  1  0  0  3  0  0  0  0  0  0
  157.6970  213.4430  155.6160 C   0  0  0  0  0  2  0  0  0  0  0  0
  161.3330  212.4050  147.8030 C   0  0  1  0  0  3  0  0  0  0  0  0
  162.8250  214.4530  147.8520 F   0  0  0  0  0  0  0  0  0  0  0  0
  165.0480  213.0730  148.6730 C   0  0  0  0  0  1  0  0  0  0  0  0
  163.8720  212.2280  148.2180 C   0  0  1  0  0  3  0  0  0  0  0  0
  162.7160  213.0680  147.8170 C   0  0  1  0  0  0  0  0  0  0  0  0
  163.5850  212.5060  146.8650 O   0  0  0  0  0  0  0  0  0  0  0  0
  160.8730  212.1540  146.3680 C   0  0  0  0  0  2  0  0  0  0  0  0
  160.8510  212.3380  141.7360 C   0  0  0  0  0  0  0  0  0  0  0  0
  161.9320  213.8100  143.1740 N   0  0  0  0  0  0  0  0  0  0  0  0
  161.3880  213.1680  145.4600 N   0  0  0  0  0  2  0  0  0  0  0  0
  160.3500  211.8430  143.2660 S   0  0  0  0  0  0  0  0  0  0  0  0
  161.7000  213.4330  141.8860 C   0  0  0  0  0  0  0  0  0  0  0  0
  161.2610  213.0280  144.0440 C   0  0  0  0  0  0  0  0  0  0  0  0
  162.3490  214.1350  140.7460 C   0  0  0  0  0  1  0  0  0  0  0  0
  160.4460  211.7010  140.4420 C   0  0  2  0  0  3  0  0  0  0  0  0
  158.2950  212.7020  140.6950 O   0  0  0  0  0  1  0  0  0  0  0  0
  158.9420  211.5020  140.3910 C   0  0  0  0  0  2  0  0  0  0  0  0
  161.1140  210.4200  140.2850 N   0  0  0  0  0  2  0  0  0  0  0  0
  161.7770  210.4420  138.9950 C   0  0  0  0  0  2  0  0  0  0  0  0
  162.1040  209.0190  138.5740 C   0  0  0  0  0  2  0  0  0  0  0  0
  159.9120  208.7290  137.6720 O   0  0  0  0  0  1  0  0  0  0  0  0
  160.8440  208.1700  138.5460 C   0  0  0  0  0  2  0  0  0  0  0  0
  2  4  1  0  0  0  0
  3 12  1  6  0  0  0
  3  5  1  0  0  0  0
  4  9  1  0  0  0  0
  5  1  1  1  0  0  0
  6 10  1  0  0  0  0
  7 27  1  6  0  0  0
  7  2  1  0  0  0  0
  8  7  1  0  0  0  0
  8 13  1  0  0  0  0
  9  3  1  0  0  0  0
  9  5  1  0  0  0  0
  9 16  1  1  0  0  0
 10 43  1  6  0  0  0
 10  1  1  0  0  0  0
 11 12  1  0  0  0  0
 12  6  2  0  0  0  0
 13 49  1  6  0  0  0
 13 11  1  0  0  0  0
 15 14  1  0  0  0  0
 16 15  2  0  0  0  0
 17 16  1  0  0  0  0
 17 18  1  0  0  0  0
 18 19  1  6  0  0  0
 18 14  1  0  0  0  0
 20 23  1  0  0  0  0
 20 24  1  0  0  0  0
 21 24  1  0  0  0  0
 21 22  1  0  0  0  0
 22 19  1  0  0  0  0
 23 19  1  0  0  0  0
 25 26  1  0  0  0  0
 25  6  1  0  0  0  0
 27 28  1  0  0  0  0
 30 29  1  6  0  0  0
 30 28  1  0  0  0  0
 31 32  1  6  0  0  0
 31 30  1  0  0  0  0
 33 34  1  0  0  0  0
 33 31  1  0  0  0  0
 35 36  1  0  0  0  0
 37 34  1  6  0  0  0
 37 42  1  0  0  0  0
 38 35  1  0  0  0  0
 40 39  1  6  0  0  0
 40 37  1  0  0  0  0
 40 38  1  0  0  0  0
 42 36  1  0  0  0  0
 42 41  2  0  0  0  0
 43 44  1  0  0  0  0
 45 46  1  6  0  0  0
 47 44  1  1  0  0  0
 47 48  1  0  0  0  0
 47 45  1  0  0  0  0
 48 45  1  0  0  0  0
 49 55  1  6  0  0  0
 49 53  1  0  0  0  0
 52 51  1  1  0  0  0
 53 50  1  1  0  0  0
 53 52  1  0  0  0  0
 54 53  1  0  0  0  0
 54 52  1  0  0  0  0
 56 60  2  0  0  0  0
 56 59  1  0  0  0  0
 57 61  2  0  0  0  0
 58 55  1  0  0  0  0
 59 61  1  0  0  0  0
 60 57  1  0  0  0  0
 61 58  1  0  0  0  0
 62 60  1  0  0  0  0
 63 65  1  1  0  0  0
 63 56  1  0  0  0  0
 65 64  1  0  0  0  0
 66 63  1  0  0  0  0
 67 66  1  0  0  0  0
 68 67  1  0  0  0  0
 69 70  1  0  0  0  0
 70 68  1  0  0  0  0
M  END
>  <MODEL>
2

>  <REMARK>
 VINA RESULT:       2.8      3.436     11.393
  Name = 
  23 active torsions:
  status: ('A' for Active; 'I' for Inactive)
    1  A    between atoms: C_1  and  C_60
    2  A    between atoms: C_1  and  C_62
    3  A    between atoms: C_2  and  C_8
    4  A    between atoms: C_2  and  C_66
    5  A    between atoms: C_2  and  C_68
    6  A    between atoms: C_7  and  C_43
    7  A    between atoms: C_7  and  C_48
    8  A    between atoms: C_8  and  N_35
    9  A    between atoms: C_9  and  C_47
   10  A    between atoms: C_14  and  C_49
   11  A    between atoms: C_14  and  C_51
   12  A    between atoms: C_17  and  CA_40
   13  A    between atoms: C_20  and  O_36
   14  A    between atoms: C_21  and  CA_40
   15  A    between atoms: C_25  and  O_38
   16  A    between atoms: C_25  and  C_48
   17  A    between atoms: C_27  and  C_33
   18  A    between atoms: C_29  and  C_56
   19  A    between atoms: C_30  and  C_43
   20  A    between atoms: O_38  and  C_56
   21  A    between atoms: C_39  and  C_51
   22  A    between atoms: CA_40  and  N_42
   23  A    between atoms: N_42  and  C_60
                            x       y       z     vdW  Elec       q    Type
                         _______ _______ _______ _____ _____    ______ ____

>  <TORSDO>
F 23

$$$$
=
 OpenBabel11042420173D

 70 78  0  0  1  0  0  0  0  0999 V2000
  161.1580  204.1010  151.9220 C   0  0  0  0  0  2  0  0  0  0  0  0
  160.1730  206.4560  147.9820 C   0  0  0  0  0  2  0  0  0  0  0  0
  162.0040  205.0870  150.0040 C   0  0  1  0  0  3  0  0  0  0  0  0
  160.0310  204.9540  148.1720 C   0  0  0  0  0  2  0  0  0  0  0  0
  160.6390  204.6780  150.6170 C   0  0  1  0  0  3  0  0  0  0  0  0
  162.1100  206.4960  152.0090 C   0  0  0  0  0  0  0  0  0  0  0  0
  161.5150  206.8000  147.3480 C   0  0  2  0  0  3  0  0  0  0  0  0
  161.9130  208.2240  147.7120 C   0  0  0  0  0  2  0  0  0  0  0  0
  160.9660  204.2990  149.2030 C   0  0  2  0  0  0  0  0  0  0  0  0
  161.5340  205.3120  152.8100 C   0  0  1  0  0  3  0  0  0  0  0  0
  162.8850  207.5310  149.9010 C   0  0  0  0  0  2  0  0  0  0  0  0
  162.1830  206.4400  150.6550 C   0  0  0  0  0  0  0  0  0  0  0  0
  161.8860  208.4590  149.2260 C   0  0  1  0  0  3  0  0  0  0  0  0
  161.2050  200.6070  148.8930 N   0  0  0  0  0  2  0  0  0  0  0  0
  160.7130  201.8070  149.4610 C   0  0  0  0  0  3  0  0  0  0  0  0
  161.3160  202.8620  148.9350 C   0  0  0  0  0  0  0  0  0  0  0  0
  162.3230  202.4570  147.9120 C   0  0  0  0  0  2  0  0  0  0  0  0
  162.1550  200.9370  147.8370 C   0  0  2  0  0  3  0  0  0  0  0  0
  161.6120  200.5000  146.4710 C   0  0  0  0  0  3  0  0  0  0  0  0
  159.5000  200.5330  145.0390 C   0  0  0  0  0  2  0  0  0  0  0  0
  160.5290  198.5500  145.2150 C   0  0  0  0  0  2  0  0  0  0  0  0
  161.4830  198.9680  146.3440 C   0  0  0  0  0  2  0  0  0  0  0  0
  160.3050  201.2410  146.1380 C   0  0  0  0  0  2  0  0  0  0  0  0
  160.2990  199.6170  144.3310 O   0  0  0  0  0  0  0  0  0  0  0  0
  162.5720  207.6430  152.6700 O   0  0  0  0  0  0  0  0  0  0  0  0
  161.7100  208.6840  153.1060 C   0  0  0  0  0  1  0  0  0  0  0  0
  161.4510  206.6340  145.8380 C   0  0  0  0  0  2  0  0  0  0  0  0
  160.4150  205.5750  145.4740 C   0  0  0  0  0  2  0  0  0  0  0  0
  160.7860  203.6020  144.1570 F   0  0  0  0  0  0  0  0  0  0  0  0
  160.6620  204.9810  144.0860 C   0  0  2  0  0  3  0  0  0  0  0  0
  161.8930  205.6180  143.4100 C   0  0  1  0  0  3  0  0  0  0  0  0
  163.0970  204.6710  143.3590 C   0  0  0  0  0  1  0  0  0  0  0  0
  161.6010  206.1960  142.1480 O   0  0  0  0  0  0  0  0  0  0  0  0
  161.7850  207.5870  142.2440 C   0  0  0  0  0  2  0  0  0  0  0  0
  160.2770  208.8020  138.3340 C   0  0  0  0  0  2  0  0  0  0  0  0
  159.6520  209.4300  139.9450 S   0  0  0  0  0  0  0  0  0  0  0  0
  162.0460  208.1930  140.8770 C   0  0  1  0  0  3  0  0  0  0  0  0
  161.5600  207.9580  138.4130 C   0  0  0  0  0  2  0  0  0  0  0  0
  162.8060  206.1770  139.5940 C   0  0  0  0  0  1  0  0  0  0  0  0
  161.7050  207.2130  139.7430 C   0  0  1  0  0  3  0  0  0  0  0  0
  161.7100  210.5090  141.1700 O   0  0  0  0  0  0  0  0  0  0  0  0
  161.2520  209.4580  140.7520 C   0  0  0  0  0  0  0  0  0  0  0  0
  160.3010  205.7650  153.5830 C   0  0  0  0  0  2  0  0  0  0  0  0
  160.4960  207.1690  154.1390 C   0  0  0  0  0  2  0  0  0  0  0  0
  160.8270  208.2250  156.3480 C   0  0  1  0  0  3  0  0  0  0  0  0
  161.8970  208.5870  157.2590 N   0  0  0  0  0  1  0  0  0  0  0  0
  161.3180  207.1340  155.4160 C   0  0  1  0  0  3  0  0  0  0  0  0
  160.4210  206.7880  156.5840 C   0  0  0  0  0  2  0  0  0  0  0  0
  162.1640  209.9200  149.6000 C   0  0  1  0  0  3  0  0  0  0  0  0
  160.4440  211.4730  148.5720 F   0  0  0  0  0  0  0  0  0  0  0  0
  162.2620  212.7800  146.9880 C   0  0  0  0  0  1  0  0  0  0  0  0
  162.7550  211.5090  147.6560 C   0  0  1  0  0  3  0  0  0  0  0  0
  161.7050  210.8940  148.5060 C   0  0  1  0  0  0  0  0  0  0  0  0
  161.9860  210.4120  147.2150 O   0  0  0  0  0  0  0  0  0  0  0  0
  161.4640  210.2320  150.9220 C   0  0  0  0  0  2  0  0  0  0  0  0
  158.2170  212.0090  153.7130 C   0  0  0  0  0  0  0  0  0  0  0  0
  158.9570  212.9100  151.7020 N   0  0  0  0  0  0  0  0  0  0  0  0
  160.7630  211.5050  150.8650 N   0  0  0  0  0  2  0  0  0  0  0  0
  159.4970  211.0050  153.2720 S   0  0  0  0  0  0  0  0  0  0  0  0
  158.0810  212.9990  152.7410 C   0  0  0  0  0  0  0  0  0  0  0  0
  159.7940  211.8630  151.8520 C   0  0  0  0  0  0  0  0  0  0  0  0
  157.0430  214.0630  152.7890 C   0  0  0  0  0  1  0  0  0  0  0  0
  157.3770  211.8530  154.9430 C   0  0  2  0  0  3  0  0  0  0  0  0
  155.2580  210.7630  155.0440 O   0  0  0  0  0  1  0  0  0  0  0  0
  155.9020  211.9190  154.5960 C   0  0  0  0  0  2  0  0  0  0  0  0
  157.7010  212.8930  155.9040 N   0  0  0  0  0  2  0  0  0  0  0  0
  158.0200  212.2330  157.1560 C   0  0  0  0  0  2  0  0  0  0  0  0
  159.4500  211.7200  157.1030 C   0  0  0  0  0  2  0  0  0  0  0  0
  159.7370  214.0850  156.9330 O   0  0  0  0  0  1  0  0  0  0  0  0
  160.4170  212.8680  156.8740 C   0  0  0  0  0  2  0  0  0  0  0  0
  1 10  1  0  0  0  0
  2  4  1  0  0  0  0
  3  5  1  0  0  0  0
  3 12  1  6  0  0  0
  4  9  1  0  0  0  0
  5  1  1  1  0  0  0
  6 25  1  0  0  0  0
  6 10  1  0  0  0  0
  7 27  1  6  0  0  0
  7  8  1  0  0  0  0
  7  2  1  0  0  0  0
  8 13  1  0  0  0  0
  9 16  1  6  0  0  0
  9  3  1  0  0  0  0
  9  5  1  0  0  0  0
 10 43  1  6  0  0  0
 11 12  1  0  0  0  0
 12  6  2  0  0  0  0
 13 49  1  6  0  0  0
 13 11  1  0  0  0  0
 14 15  1  0  0  0  0
 16 15  2  0  0  0  0
 17 16  1  0  0  0  0
 18 19  1  6  0  0  0
 18 17  1  0  0  0  0
 18 14  1  0  0  0  0
 20 23  1  0  0  0  0
 21 22  1  0  0  0  0
 22 19  1  0  0  0  0
 23 19  1  0  0  0  0
 24 20  1  0  0  0  0
 24 21  1  0  0  0  0
 25 26  1  0  0  0  0
 28 27  1  0  0  0  0
 30 29  1  1  0  0  0
 30 28  1  0  0  0  0
 31 32  1  6  0  0  0
 31 30  1  0  0  0  0
 33 34  1  0  0  0  0
 33 31  1  0  0  0  0
 35 38  1  0  0  0  0
 35 36  1  0  0  0  0
 36 42  1  0  0  0  0
 37 34  1  1  0  0  0
 38 40  1  0  0  0  0
 40 39  1  6  0  0  0
 40 37  1  0  0  0  0
 42 37  1  0  0  0  0
 42 41  2  0  0  0  0
 43 44  1  0  0  0  0
 45 48  1  0  0  0  0
 45 46  1  1  0  0  0
 47 44  1  6  0  0  0
 47 45  1  0  0  0  0
 47 48  1  0  0  0  0
 49 55  1  1  0  0  0
 52 51  1  6  0  0  0
 52 53  1  0  0  0  0
 53 50  1  1  0  0  0
 53 49  1  0  0  0  0
 54 52  1  0  0  0  0
 54 53  1  0  0  0  0
 56 63  1  0  0  0  0
 57 61  2  0  0  0  0
 57 60  1  0  0  0  0
 58 55  1  0  0  0  0
 58 61  1  0  0  0  0
 59 56  1  0  0  0  0
 60 62  1  0  0  0  0
 60 56  2  0  0  0  0
 61 59  1  0  0  0  0
 63 65  1  6  0  0  0
 63 66  1  0  0  0  0
 65 64  1  0  0  0  0
 66 67  1  0  0  0  0
 68 67  1  0  0  0  0
 70 69  1  0  0  0  0
 70 68  1  0  0  0  0
M  END
>  <MODEL>
3

>  <REMARK>
 VINA RESULT:       3.3      3.481     11.489
  Name = 
  23 active torsions:
  status: ('A' for Active; 'I' for Inactive)
    1  A    between atoms: C_1  and  C_60
    2  A    between atoms: C_1  and  C_62
    3  A    between atoms: C_2  and  C_8
    4  A    between atoms: C_2  and  C_66
    5  A    between atoms: C_2  and  C_68
    6  A    between atoms: C_7  and  C_43
    7  A    between atoms: C_7  and  C_48
    8  A    between atoms: C_8  and  N_35
    9  A    between atoms: C_9  and  C_47
   10  A    between atoms: C_14  and  C_49
   11  A    between atoms: C_14  and  C_51
   12  A    between atoms: C_17  and  CA_40
   13  A    between atoms: C_20  and  O_36
   14  A    between atoms: C_21  and  CA_40
   15  A    between atoms: C_25  and  O_38
   16  A    between atoms: C_25  and  C_48
   17  A    between atoms: C_27  and  C_33
   18  A    between atoms: C_29  and  C_56
   19  A    between atoms: C_30  and  C_43
   20  A    between atoms: O_38  and  C_56
   21  A    between atoms: C_39  and  C_51
   22  A    between atoms: CA_40  and  N_42
   23  A    between atoms: N_42  and  C_60
                            x       y       z     vdW  Elec       q    Type
                         _______ _______ _______ _____ _____    ______ ____

>  <TORSDO>
F 23

$$$$
=
 OpenBabel11042420173D

 70 78  0  0  1  0  0  0  0  0999 V2000
  161.6900  204.6830  150.1000 C   0  0  0  0  0  2  0  0  0  0  0  0
  160.1870  208.8430  148.5270 C   0  0  0  0  0  2  0  0  0  0  0  0
  162.2850  206.8240  149.4450 C   0  0  1  0  0  3  0  0  0  0  0  0
  160.4070  207.6040  147.6740 C   0  0  0  0  0  2  0  0  0  0  0  0
  161.0540  205.8800  149.4170 C   0  0  1  0  0  3  0  0  0  0  0  0
  162.0440  206.5270  151.8670 C   0  0  0  0  0  0  0  0  0  0  0  0
  161.4120  209.7500  148.4930 C   0  0  2  0  0  3  0  0  0  0  0  0
  161.4580  210.6090  149.7500 C   0  0  0  0  0  2  0  0  0  0  0  0
  161.4670  206.6050  148.1700 C   0  0  2  0  0  0  0  0  0  0  0  0
  161.7640  205.0350  151.6060 C   0  0  1  0  0  3  0  0  0  0  0  0
  162.5590  208.8180  151.0900 C   0  0  0  0  0  2  0  0  0  0  0  0
  162.1340  207.4020  150.8330 C   0  0  0  0  0  0  0  0  0  0  0  0
  161.3700  209.7650  151.0260 C   0  0  1  0  0  3  0  0  0  0  0  0
  163.6660  204.5170  146.0280 N   0  0  0  0  0  2  0  0  0  0  0  0
  163.3890  205.3420  147.1450 C   0  0  0  0  0  3  0  0  0  0  0  0
  162.1500  205.8030  147.0970 C   0  0  0  0  0  0  0  0  0  0  0  0
  161.4340  205.3130  145.8840 C   0  0  0  0  0  2  0  0  0  0  0  0
  162.4520  204.3700  145.2350 C   0  0  2  0  0  3  0  0  0  0  0  0
  161.9640  202.9160  145.2630 C   0  0  0  0  0  3  0  0  0  0  0  0
  159.8500  201.4970  145.0960 C   0  0  0  0  0  2  0  0  0  0  0  0
  161.2060  201.0310  146.8190 C   0  0  0  0  0  2  0  0  0  0  0  0
  162.0970  202.2720  146.6590 C   0  0  0  0  0  2  0  0  0  0  0  0
  160.5440  202.8020  144.6820 C   0  0  0  0  0  2  0  0  0  0  0  0
  160.7800  200.5530  145.5690 O   0  0  0  0  0  0  0  0  0  0  0  0
  162.2170  206.9980  153.1770 O   0  0  0  0  0  0  0  0  0  0  0  0
  161.5720  206.4150  154.2990 C   0  0  0  0  0  1  0  0  0  0  0  0
  161.3950  210.6250  147.2500 C   0  0  0  0  0  2  0  0  0  0  0  0
  161.7100  212.0690  147.6250 C   0  0  0  0  0  2  0  0  0  0  0  0
  162.8300  214.0670  146.9000 F   0  0  0  0  0  0  0  0  0  0  0  0
  162.3620  212.8340  146.4710 C   0  0  2  0  0  3  0  0  0  0  0  0
  161.3980  212.9870  145.2780 C   0  0  1  0  0  3  0  0  0  0  0  0
  161.1770  214.4500  144.8790 C   0  0  0  0  0  1  0  0  0  0  0  0
  161.7440  212.1680  144.1720 O   0  0  0  0  0  0  0  0  0  0  0  0
  162.1580  213.0000  143.1160 C   0  0  0  0  0  2  0  0  0  0  0  0
  161.6020  213.6270  138.8340 C   0  0  0  0  0  2  0  0  0  0  0  0
  163.2250  213.3600  139.6560 S   0  0  0  0  0  0  0  0  0  0  0  0
  161.5280  212.5640  141.8060 C   0  0  1  0  0  3  0  0  0  0  0  0
  160.3700  213.3910  139.7220 C   0  0  0  0  0  2  0  0  0  0  0  0
  159.3070  213.7220  141.9320 C   0  0  0  0  0  1  0  0  0  0  0  0
  160.6400  213.6660  141.2040 C   0  0  1  0  0  3  0  0  0  0  0  0
  163.0660  211.0380  140.8750 O   0  0  0  0  0  0  0  0  0  0  0  0
  162.6180  212.1720  140.8550 C   0  0  0  0  0  0  0  0  0  0  0  0
  160.4550  204.6320  152.2760 C   0  0  0  0  0  2  0  0  0  0  0  0
  159.5090  203.9890  151.2710 C   0  0  0  0  0  2  0  0  0  0  0  0
  160.4660  201.9200  150.3170 C   0  0  1  0  0  3  0  0  0  0  0  0
  160.0890  200.5480  150.0320 N   0  0  0  0  0  1  0  0  0  0  0  0
  159.5450  202.4740  151.3870 C   0  0  1  0  0  3  0  0  0  0  0  0
  160.9470  202.0300  151.7470 C   0  0  0  0  0  2  0  0  0  0  0  0
  161.2900  210.6240  152.2950 C   0  0  1  0  0  3  0  0  0  0  0  0
  163.8110  210.6100  152.5580 F   0  0  0  0  0  0  0  0  0  0  0  0
  163.7430  211.0760  155.2600 C   0  0  0  0  0  1  0  0  0  0  0  0
  162.4170  210.7180  154.6130 C   0  0  1  0  0  3  0  0  0  0  0  0
  162.5590  210.5080  153.1500 C   0  0  1  0  0  0  0  0  0  0  0  0
  162.4980  209.4280  154.0480 O   0  0  0  0  0  0  0  0  0  0  0  0
  161.0470  212.0770  151.8920 C   0  0  0  0  0  2  0  0  0  0  0  0
  157.2690  212.4480  154.5530 C   0  0  0  0  0  0  0  0  0  0  0  0
  159.1720  213.7800  154.6580 N   0  0  0  0  0  0  0  0  0  0  0  0
  160.7880  212.9140  153.0530 N   0  0  0  0  0  2  0  0  0  0  0  0
  158.3280  211.7200  153.4630 S   0  0  0  0  0  0  0  0  0  0  0  0
  157.9110  213.5500  155.1170 C   0  0  0  0  0  0  0  0  0  0  0  0
  159.5380  212.8590  153.7420 C   0  0  0  0  0  0  0  0  0  0  0  0
  157.2770  214.4480  156.1200 C   0  0  0  0  0  1  0  0  0  0  0  0
  155.8780  211.9820  154.8540 C   0  0  2  0  0  3  0  0  0  0  0  0
  154.6980  214.0480  154.6900 O   0  0  0  0  0  1  0  0  0  0  0  0
  154.8600  212.8000  154.0830 C   0  0  0  0  0  2  0  0  0  0  0  0
  155.6140  212.0880  156.2790 N   0  0  0  0  0  2  0  0  0  0  0  0
  156.2440  210.9480  156.9160 C   0  0  0  0  0  2  0  0  0  0  0  0
  157.7410  210.9920  156.6590 C   0  0  0  0  0  2  0  0  0  0  0  0
  159.7220  209.6610  156.7370 O   0  0  0  0  0  1  0  0  0  0  0  0
  158.4110  209.7440  157.2070 C   0  0  0  0  0  2  0  0  0  0  0  0
  1 10  1  0  0  0  0
  3 12  1  1  0  0  0
  4  9  1  0  0  0  0
  4  2  1  0  0  0  0
  5  3  1  0  0  0  0
  5  1  1  6  0  0  0
  6 25  1  0  0  0  0
  7 27  1  6  0  0  0
  7  2  1  0  0  0  0
  7  8  1  0  0  0  0
  8 13  1  0  0  0  0
  9 16  1  6  0  0  0
  9  5  1  0  0  0  0
  9  3  1  0  0  0  0
 10  6  1  0  0  0  0
 10 43  1  1  0  0  0
 12 11  1  0  0  0  0
 12  6  2  0  0  0  0
 13 11  1  0  0  0  0
 13 49  1  1  0  0  0
 14 15  1  0  0  0  0
 16 15  2  0  0  0  0
 17 16  1  0  0  0  0
 18 19  1  1  0  0  0
 18 17  1  0  0  0  0
 18 14  1  0  0  0  0
 19 22  1  0  0  0  0
 20 24  1  0  0  0  0
 22 21  1  0  0  0  0
 23 20  1  0  0  0  0
 23 19  1  0  0  0  0
 24 21  1  0  0  0  0
 25 26  1  0  0  0  0
 27 28  1  0  0  0  0
 30 29  1  1  0  0  0
 30 28  1  0  0  0  0
 31 32  1  6  0  0  0
 31 30  1  0  0  0  0
 33 31  1  0  0  0  0
 34 33  1  0  0  0  0
 35 36  1  0  0  0  0
 35 38  1  0  0  0  0
 36 42  1  0  0  0  0
 37 34  1  1  0  0  0
 38 40  1  0  0  0  0
 40 37  1  0  0  0  0
 40 39  1  1  0  0  0
 42 41  2  0  0  0  0
 42 37  1  0  0  0  0
 44 43  1  0  0  0  0
 45 46  1  1  0  0  0
 45 47  1  0  0  0  0
 45 48  1  0  0  0  0
 47 44  1  6  0  0  0
 47 48  1  0  0  0  0
 49 55  1  6  0  0  0
 49 53  1  0  0  0  0
 52 51  1  1  0  0  0
 53 50  1  6  0  0  0
 53 54  1  0  0  0  0
 53 52  1  0  0  0  0
 54 52  1  0  0  0  0
 55 58  1  0  0  0  0
 56 63  1  0  0  0  0
 56 60  2  0  0  0  0
 57 60  1  0  0  0  0
 58 61  1  0  0  0  0
 59 61  1  0  0  0  0
 59 56  1  0  0  0  0
 60 62  1  0  0  0  0
 61 57  2  0  0  0  0
 63 65  1  6  0  0  0
 63 66  1  0  0  0  0
 65 64  1  0  0  0  0
 66 67  1  0  0  0  0
 68 67  1  0  0  0  0
 68 70  1  0  0  0  0
 69 70  1  0  0  0  0
M  END
>  <MODEL>
4

>  <REMARK>
 VINA RESULT:       3.7      3.103      9.759
  Name = 
  23 active torsions:
  status: ('A' for Active; 'I' for Inactive)
    1  A    between atoms: C_1  and  C_60
    2  A    between atoms: C_1  and  C_62
    3  A    between atoms: C_2  and  C_8
    4  A    between atoms: C_2  and  C_66
    5  A    between atoms: C_2  and  C_68
    6  A    between atoms: C_7  and  C_43
    7  A    between atoms: C_7  and  C_48
    8  A    between atoms: C_8  and  N_35
    9  A    between atoms: C_9  and  C_47
   10  A    between atoms: C_14  and  C_49
   11  A    between atoms: C_14  and  C_51
   12  A    between atoms: C_17  and  CA_40
   13  A    between atoms: C_20  and  O_36
   14  A    between atoms: C_21  and  CA_40
   15  A    between atoms: C_25  and  O_38
   16  A    between atoms: C_25  and  C_48
   17  A    between atoms: C_27  and  C_33
   18  A    between atoms: C_29  and  C_56
   19  A    between atoms: C_30  and  C_43
   20  A    between atoms: O_38  and  C_56
   21  A    between atoms: C_39  and  C_51
   22  A    between atoms: CA_40  and  N_42
   23  A    between atoms: N_42  and  C_60
                            x       y       z     vdW  Elec       q    Type
                         _______ _______ _______ _____ _____    ______ ____

>  <TORSDO>
F 23

$$$$
=
 OpenBabel11042420173D

 70 78  0  0  1  0  0  0  0  0999 V2000
  160.2550  209.3290  153.3700 C   0  0  0  0  0  2  0  0  0  0  0  0
  160.4260  208.2170  148.8120 C   0  0  0  0  0  2  0  0  0  0  0  0
  161.5930  209.0890  151.4950 C   0  0  1  0  0  3  0  0  0  0  0  0
  160.3940  207.2240  149.9630 C   0  0  0  0  0  2  0  0  0  0  0  0
  160.1540  208.7560  151.9680 C   0  0  1  0  0  3  0  0  0  0  0  0
  160.8520  211.3860  151.9350 C   0  0  0  0  0  0  0  0  0  0  0  0
  161.8590  208.4840  148.3670 C   0  0  2  0  0  3  0  0  0  0  0  0
  161.9500  209.8500  147.7010 C   0  0  0  0  0  2  0  0  0  0  0  0
  160.9850  207.6990  151.3010 C   0  0  2  0  0  0  0  0  0  0  0  0
  160.1690  210.8670  153.2150 C   0  0  1  0  0  3  0  0  0  0  0  0
  162.1840  211.0390  149.8800 C   0  0  0  0  0  2  0  0  0  0  0  0
  161.3900  210.5170  151.0410 C   0  0  0  0  0  0  0  0  0  0  0  0
  161.3820  210.9610  148.5900 C   0  0  1  0  0  3  0  0  0  0  0  0
  161.9090  205.2580  153.9420 N   0  0  0  0  0  2  0  0  0  0  0  0
  161.3090  206.4480  153.4620 C   0  0  0  0  0  3  0  0  0  0  0  0
  161.5590  206.6180  152.1740 C   0  0  0  0  0  0  0  0  0  0  0  0
  162.3930  205.5070  151.6310 C   0  0  0  0  0  2  0  0  0  0  0  0
  162.5300  204.5570  152.8240 C   0  0  2  0  0  3  0  0  0  0  0  0
  161.8170  203.2240  152.5630 C   0  0  0  0  0  3  0  0  0  0  0  0
  161.9100  201.1460  151.0840 C   0  0  0  0  0  2  0  0  0  0  0  0
  159.9060  202.1360  151.2530 C   0  0  0  0  0  2  0  0  0  0  0  0
  160.4170  203.4110  151.9410 C   0  0  0  0  0  2  0  0  0  0  0  0
  162.7120  202.2730  151.7500 C   0  0  0  0  0  2  0  0  0  0  0  0
  160.6380  201.0130  151.6700 O   0  0  0  0  0  0  0  0  0  0  0  0
  160.9310  212.7630  151.6810 O   0  0  0  0  0  0  0  0  0  0  0  0
  159.9200  213.4800  150.9900 C   0  0  0  0  0  1  0  0  0  0  0  0
  162.3340  207.3960  147.4160 C   0  0  0  0  0  2  0  0  0  0  0  0
  161.1450  206.5720  146.9320 C   0  0  0  0  0  2  0  0  0  0  0  0
  162.9330  205.3310  145.9150 F   0  0  0  0  0  0  0  0  0  0  0  0
  161.5840  205.2830  146.2350 C   0  0  2  0  0  3  0  0  0  0  0  0
  160.7250  204.9930  144.9880 C   0  0  1  0  0  3  0  0  0  0  0  0
  161.5030  205.1650  143.6800 C   0  0  0  0  0  1  0  0  0  0  0  0
  160.0430  203.7510  145.0570 O   0  0  0  0  0  0  0  0  0  0  0  0
  160.9460  202.7290  144.7120 C   0  0  0  0  0  2  0  0  0  0  0  0
  158.9140  200.7700  148.0390 C   0  0  0  0  0  2  0  0  0  0  0  0
  158.1640  201.0940  146.3920 S   0  0  0  0  0  0  0  0  0  0  0  0
  160.8890  201.5950  145.7190 C   0  0  1  0  0  3  0  0  0  0  0  0
  160.4270  201.0300  148.1330 C   0  0  0  0  0  2  0  0  0  0  0  0
  162.3190  202.5160  147.5610 C   0  0  0  0  0  1  0  0  0  0  0  0
  160.9090  202.1140  147.1650 C   0  0  1  0  0  3  0  0  0  0  0  0
  159.6900  199.8810  144.6310 O   0  0  0  0  0  0  0  0  0  0  0  0
  159.6600  200.7790  145.4560 C   0  0  0  0  0  0  0  0  0  0  0  0
  158.7040  211.2880  153.2240 C   0  0  0  0  0  2  0  0  0  0  0  0
  158.4540  212.3520  154.2840 C   0  0  0  0  0  2  0  0  0  0  0  0
  156.3850  213.0120  155.4620 C   0  0  1  0  0  3  0  0  0  0  0  0
  154.9480  213.0420  155.2570 N   0  0  0  0  0  1  0  0  0  0  0  0
  157.0770  212.9710  154.1130 C   0  0  1  0  0  3  0  0  0  0  0  0
  157.0070  214.2670  154.8910 C   0  0  0  0  0  2  0  0  0  0  0  0
  161.3530  212.3230  147.8850 C   0  0  1  0  0  3  0  0  0  0  0  0
  162.6560  214.2880  148.8160 F   0  0  0  0  0  0  0  0  0  0  0  0
  165.0950  213.0590  148.5670 C   0  0  0  0  0  1  0  0  0  0  0  0
  163.9320  212.3740  147.8730 C   0  0  1  0  0  3  0  0  0  0  0  0
  162.6580  213.1050  148.0870 C   0  0  1  0  0  0  0  0  0  0  0  0
  163.3910  213.2350  146.8940 O   0  0  0  0  0  0  0  0  0  0  0  0
  161.0870  212.1020  146.3960 C   0  0  0  0  0  2  0  0  0  0  0  0
  159.2480  212.5450  142.1640 C   0  0  0  0  0  0  0  0  0  0  0  0
  158.6460  213.7380  144.0670 N   0  0  0  0  0  0  0  0  0  0  0  0
  159.9430  212.8760  145.9400 N   0  0  0  0  0  2  0  0  0  0  0  0
  160.1470  211.8220  143.3920 S   0  0  0  0  0  0  0  0  0  0  0  0
  158.4780  213.5620  142.7270 C   0  0  0  0  0  0  0  0  0  0  0  0
  159.5350  212.8580  144.5710 C   0  0  0  0  0  0  0  0  0  0  0  0
  157.5610  214.4320  141.9420 C   0  0  0  0  0  1  0  0  0  0  0  0
  159.2790  212.1530  140.7200 C   0  0  2  0  0  3  0  0  0  0  0  0
  161.6210  212.5920  140.6170 O   0  0  0  0  0  1  0  0  0  0  0  0
  160.4020  212.8690  139.9940 C   0  0  0  0  0  2  0  0  0  0  0  0
  158.0090  212.4690  140.0880 N   0  0  0  0  0  2  0  0  0  0  0  0
  158.3080  213.2000  138.8720 C   0  0  0  0  0  2  0  0  0  0  0  0
  157.1340  213.0820  137.9130 C   0  0  0  0  0  2  0  0  0  0  0  0
  155.1050  212.9170  139.1610 O   0  0  0  0  0  1  0  0  0  0  0  0
  156.0690  212.1660  138.4880 C   0  0  0  0  0  2  0  0  0  0  0  0
  2  4  1  0  0  0  0
  3 12  1  6  0  0  0
  3  5  1  0  0  0  0
  4  9  1  0  0  0  0
  5  1  1  1  0  0  0
  6 10  1  0  0  0  0
  7 27  1  6  0  0  0
  7  2  1  0  0  0  0
  8  7  1  0  0  0  0
  8 13  1  0  0  0  0
  9  3  1  0  0  0  0
  9  5  1  0  0  0  0
  9 16  1  1  0  0  0
 10 43  1  6  0  0  0
 10  1  1  0  0  0  0
 11 12  1  0  0  0  0
 12  6  2  0  0  0  0
 13 49  1  6  0  0  0
 13 11  1  0  0  0  0
 15 14  1  0  0  0  0
 16 15  2  0  0  0  0
 17 16  1  0  0  0  0
 17 18  1  0  0  0  0
 18 19  1  6  0  0  0
 18 14  1  0  0  0  0
 20 24  1  0  0  0  0
 20 23  1  0  0  0  0
 21 24  1  0  0  0  0
 21 22  1  0  0  0  0
 22 19  1  0  0  0  0
 23 19  1  0  0  0  0
 25  6  1  0  0  0  0
 26 25  1  0  0  0  0
 28 27  1  0  0  0  0
 30 29  1  6  0  0  0
 30 28  1  0  0  0  0
 31 32  1  6  0  0  0
 31 33  1  0  0  0  0
 31 30  1  0  0  0  0
 34 33  1  0  0  0  0
 35 38  1  0  0  0  0
 36 35  1  0  0  0  0
 37 34  1  6  0  0  0
 37 40  1  0  0  0  0
 40 39  1  1  0  0  0
 40 38  1  0  0  0  0
 41 42  2  0  0  0  0
 42 37  1  0  0  0  0
 42 36  1  0  0  0  0
 43 44  1  0  0  0  0
 45 46  1  6  0  0  0
 47 44  1  1  0  0  0
 47 48  1  0  0  0  0
 47 45  1  0  0  0  0
 48 45  1  0  0  0  0
 49 55  1  6  0  0  0
 49 53  1  0  0  0  0
 52 53  1  0  0  0  0
 52 51  1  1  0  0  0
 53 50  1  1  0  0  0
 54 52  1  0  0  0  0
 54 53  1  0  0  0  0
 56 60  2  0  0  0  0
 56 59  1  0  0  0  0
 57 61  2  0  0  0  0
 58 55  1  0  0  0  0
 59 61  1  0  0  0  0
 60 57  1  0  0  0  0
 61 58  1  0  0  0  0
 62 60  1  0  0  0  0
 63 65  1  6  0  0  0
 63 56  1  0  0  0  0
 65 64  1  0  0  0  0
 66 63  1  0  0  0  0
 67 66  1  0  0  0  0
 68 70  1  0  0  0  0
 68 67  1  0  0  0  0
 70 69  1  0  0  0  0
M  END
>  <MODEL>
5

>  <REMARK>
 VINA RESULT:       4.0      3.570     11.607
  Name = 
  23 active torsions:
  status: ('A' for Active; 'I' for Inactive)
    1  A    between atoms: C_1  and  C_60
    2  A    between atoms: C_1  and  C_62
    3  A    between atoms: C_2  and  C_8
    4  A    between atoms: C_2  and  C_66
    5  A    between atoms: C_2  and  C_68
    6  A    between atoms: C_7  and  C_43
    7  A    between atoms: C_7  and  C_48
    8  A    between atoms: C_8  and  N_35
    9  A    between atoms: C_9  and  C_47
   10  A    between atoms: C_14  and  C_49
   11  A    between atoms: C_14  and  C_51
   12  A    between atoms: C_17  and  CA_40
   13  A    between atoms: C_20  and  O_36
   14  A    between atoms: C_21  and  CA_40
   15  A    between atoms: C_25  and  O_38
   16  A    between atoms: C_25  and  C_48
   17  A    between atoms: C_27  and  C_33
   18  A    between atoms: C_29  and  C_56
   19  A    between atoms: C_30  and  C_43
   20  A    between atoms: O_38  and  C_56
   21  A    between atoms: C_39  and  C_51
   22  A    between atoms: CA_40  and  N_42
   23  A    between atoms: N_42  and  C_60
                            x       y       z     vdW  Elec       q    Type
                         _______ _______ _______ _____ _____    ______ ____

>  <TORSDO>
F 23

$$$$
=
 OpenBabel11042420173D

 70 78  0  0  1  0  0  0  0  0999 V2000
  160.0960  212.8260  151.2190 C   0  0  0  0  0  2  0  0  0  0  0  0
  162.9650  209.5850  149.4010 C   0  0  0  0  0  2  0  0  0  0  0  0
  160.2550  210.8050  150.0990 C   0  0  1  0  0  3  0  0  0  0  0  0
  162.5780  210.8960  148.7350 C   0  0  0  0  0  2  0  0  0  0  0  0
  161.1580  211.9920  150.5250 C   0  0  1  0  0  3  0  0  0  0  0  0
  159.9350  210.6070  152.5230 C   0  0  0  0  0  0  0  0  0  0  0  0
  162.0690  208.4480  148.9240 C   0  0  2  0  0  3  0  0  0  0  0  0
  162.0230  207.3470  149.9740 C   0  0  0  0  0  2  0  0  0  0  0  0
  161.2080  211.4840  149.1140 C   0  0  2  0  0  0  0  0  0  0  0  0
  159.8360  212.1440  152.5840 C   0  0  1  0  0  3  0  0  0  0  0  0
  160.2340  208.4890  151.2810 C   0  0  0  0  0  2  0  0  0  0  0  0
  160.2910  209.9860  151.3700 C   0  0  0  0  0  0  0  0  0  0  0  0
  161.6280  207.8840  151.3530 C   0  0  1  0  0  3  0  0  0  0  0  0
  159.7770  214.1130  146.9170 N   0  0  0  0  0  2  0  0  0  0  0  0
  160.2770  213.6130  148.1450 C   0  0  0  0  0  3  0  0  0  0  0  0
  160.5490  212.3210  148.0540 C   0  0  0  0  0  0  0  0  0  0  0  0
  160.2440  211.7960  146.6910 C   0  0  0  0  0  2  0  0  0  0  0  0
  159.8180  213.0490  145.9210 C   0  0  2  0  0  3  0  0  0  0  0  0
  160.8200  213.3910  144.8110 C   0  0  0  0  0  3  0  0  0  0  0  0
  161.8360  212.4680  142.6600 C   0  0  0  0  0  2  0  0  0  0  0  0
  163.2930  213.2690  144.1630 C   0  0  0  0  0  2  0  0  0  0  0  0
  162.2800  213.4000  145.3100 C   0  0  0  0  0  2  0  0  0  0  0  0
  160.6110  212.4860  143.5850 C   0  0  0  0  0  2  0  0  0  0  0  0
  162.6910  213.5530  142.9260 O   0  0  0  0  0  0  0  0  0  0  0  0
  159.6520  209.8320  153.6560 O   0  0  0  0  0  0  0  0  0  0  0  0
  158.4270  209.9240  154.3690 C   0  0  0  0  0  1  0  0  0  0  0  0
  162.5660  207.8980  147.5970 C   0  0  0  0  0  2  0  0  0  0  0  0
  161.5210  206.9650  146.9940 C   0  0  0  0  0  2  0  0  0  0  0  0
  163.4970  206.2010  145.8620 F   0  0  0  0  0  0  0  0  0  0  0  0
  162.1390  205.9630  146.0170 C   0  0  2  0  0  3  0  0  0  0  0  0
  161.4110  205.9770  144.6580 C   0  0  1  0  0  3  0  0  0  0  0  0
  160.0580  206.6930  144.7180 C   0  0  0  0  0  1  0  0  0  0  0  0
  162.2260  206.4410  143.5930 O   0  0  0  0  0  0  0  0  0  0  0  0
  161.4710  206.4010  142.4070 C   0  0  0  0  0  2  0  0  0  0  0  0
  161.6260  207.6560  138.2310 C   0  0  0  0  0  2  0  0  0  0  0  0
  160.5230  208.3860  139.5090 S   0  0  0  0  0  0  0  0  0  0  0  0
  162.2720  206.9420  141.2370 C   0  0  1  0  0  3  0  0  0  0  0  0
  162.6980  206.6920  138.7630 C   0  0  0  0  0  2  0  0  0  0  0  0
  163.2380  204.8280  140.2980 C   0  0  0  0  0  1  0  0  0  0  0  0
  162.2700  205.9720  140.0460 C   0  0  1  0  0  3  0  0  0  0  0  0
  162.0900  209.2870  141.4150 O   0  0  0  0  0  0  0  0  0  0  0  0
  161.7120  208.2760  140.8460 C   0  0  0  0  0  0  0  0  0  0  0  0
  160.8280  212.6830  153.6080 C   0  0  0  0  0  2  0  0  0  0  0  0
  160.2320  212.6520  155.0080 C   0  0  0  0  0  2  0  0  0  0  0  0
  157.9230  213.3230  155.5790 C   0  0  1  0  0  3  0  0  0  0  0  0
  156.9410  214.3340  155.2340 N   0  0  0  0  0  1  0  0  0  0  0  0
  159.3060  213.8370  155.2280 C   0  0  1  0  0  3  0  0  0  0  0  0
  158.8350  213.8480  156.6660 C   0  0  0  0  0  2  0  0  0  0  0  0
  161.6970  206.8100  152.4460 C   0  0  1  0  0  3  0  0  0  0  0  0
  161.6430  208.7170  154.1150 F   0  0  0  0  0  0  0  0  0  0  0  0
  159.8380  207.4890  155.7760 C   0  0  0  0  0  1  0  0  0  0  0  0
  160.4430  206.6160  154.6920 C   0  0  1  0  0  3  0  0  0  0  0  0
  161.3860  207.3800  153.8370 C   0  0  1  0  0  0  0  0  0  0  0  0
  161.8400  206.5400  154.8690 O   0  0  0  0  0  0  0  0  0  0  0  0
  160.7210  205.6880  152.0970 C   0  0  0  0  0  2  0  0  0  0  0  0
  160.9010  201.8560  149.4940 C   0  0  0  0  0  0  0  0  0  0  0  0
  161.5390  202.0470  151.7210 N   0  0  0  0  0  0  0  0  0  0  0  0
  161.2910  204.3800  152.3800 N   0  0  0  0  0  2  0  0  0  0  0  0
  160.7560  203.5040  149.8120 S   0  0  0  0  0  0  0  0  0  0  0  0
  161.3540  201.2250  150.6510 C   0  0  0  0  0  0  0  0  0  0  0  0
  161.2470  203.3280  151.4140 C   0  0  0  0  0  0  0  0  0  0  0  0
  161.5900  199.7600  150.7520 C   0  0  0  0  0  1  0  0  0  0  0  0
  160.5930  201.1950  148.1860 C   0  0  2  0  0  3  0  0  0  0  0  0
  161.6370  199.4930  146.8810 O   0  0  0  0  0  1  0  0  0  0  0  0
  161.8670  200.7160  147.5150 C   0  0  0  0  0  2  0  0  0  0  0  0
  159.8970  202.1210  147.3090 N   0  0  0  0  0  2  0  0  0  0  0  0
  160.6380  202.1680  146.0640 C   0  0  0  0  0  2  0  0  0  0  0  0
  159.7070  201.8320  144.9110 C   0  0  0  0  0  2  0  0  0  0  0  0
  158.4300  203.6180  143.9710 O   0  0  0  0  0  1  0  0  0  0  0  0
  159.6670  202.9740  143.9110 C   0  0  0  0  0  2  0  0  0  0  0  0
  1 10  1  0  0  0  0
  3  5  1  0  0  0  0
  3 12  1  1  0  0  0
  4  9  1  0  0  0  0
  4  2  1  0  0  0  0
  5  1  1  6  0  0  0
  6 10  1  0  0  0  0
  6 25  1  0  0  0  0
  7 27  1  6  0  0  0
  7  2  1  0  0  0  0
  7  8  1  0  0  0  0
  8 13  1  0  0  0  0
  9 16  1  6  0  0  0
  9  3  1  0  0  0  0
  9  5  1  0  0  0  0
 10 43  1  1  0  0  0
 11 13  1  0  0  0  0
 11 12  1  0  0  0  0
 12  6  2  0  0  0  0
 13 49  1  1  0  0  0
 14 15  1  0  0  0  0
 16 15  2  0  0  0  0
 17 16  1  0  0  0  0
 18 19  1  6  0  0  0
 18 17  1  0  0  0  0
 18 14  1  0  0  0  0
 19 22  1  0  0  0  0
 20 24  1  0  0  0  0
 20 23  1  0  0  0  0
 21 22  1  0  0  0  0
 23 19  1  0  0  0  0
 24 21  1  0  0  0  0
 25 26  1  0  0  0  0
 28 27  1  0  0  0  0
 30 29  1  6  0  0  0
 30 28  1  0  0  0  0
 31 32  1  1  0  0  0
 31 30  1  0  0  0  0
 33 31  1  0  0  0  0
 34 33  1  0  0  0  0
 35 38  1  0  0  0  0
 35 36  1  0  0  0  0
 36 42  1  0  0  0  0
 37 34  1  1  0  0  0
 38 40  1  0  0  0  0
 40 39  1  1  0  0  0
 40 37  1  0  0  0  0
 42 37  1  0  0  0  0
 42 41  2  0  0  0  0
 43 44  1  0  0  0  0
 45 46  1  6  0  0  0
 45 48  1  0  0  0  0
 47 44  1  1  0  0  0
 47 45  1  0  0  0  0
 47 48  1  0  0  0  0
 49 55  1  6  0  0  0
 49 53  1  0  0  0  0
 52 54  1  0  0  0  0
 52 51  1  1  0  0  0
 53 50  1  1  0  0  0
 53 52  1  0  0  0  0
 53 54  1  0  0  0  0
 55 58  1  0  0  0  0
 56 59  1  0  0  0  0
 56 60  2  0  0  0  0
 59 61  1  0  0  0  0
 60 62  1  0  0  0  0
 60 57  1  0  0  0  0
 61 57  2  0  0  0  0
 61 58  1  0  0  0  0
 63 65  1  6  0  0  0
 63 56  1  0  0  0  0
 64 65  1  0  0  0  0
 66 63  1  0  0  0  0
 67 66  1  0  0  0  0
 68 67  1  0  0  0  0
 70 69  1  0  0  0  0
 70 68  1  0  0  0  0
M  END
>  <MODEL>
6

>  <REMARK>
 VINA RESULT:       4.0      3.306      8.624
  Name = 
  23 active torsions:
  status: ('A' for Active; 'I' for Inactive)
    1  A    between atoms: C_1  and  C_60
    2  A    between atoms: C_1  and  C_62
    3  A    between atoms: C_2  and  C_8
    4  A    between atoms: C_2  and  C_66
    5  A    between atoms: C_2  and  C_68
    6  A    between atoms: C_7  and  C_43
    7  A    between atoms: C_7  and  C_48
    8  A    between atoms: C_8  and  N_35
    9  A    between atoms: C_9  and  C_47
   10  A    between atoms: C_14  and  C_49
   11  A    between atoms: C_14  and  C_51
   12  A    between atoms: C_17  and  CA_40
   13  A    between atoms: C_20  and  O_36
   14  A    between atoms: C_21  and  CA_40
   15  A    between atoms: C_25  and  O_38
   16  A    between atoms: C_25  and  C_48
   17  A    between atoms: C_27  and  C_33
   18  A    between atoms: C_29  and  C_56
   19  A    between atoms: C_30  and  C_43
   20  A    between atoms: O_38  and  C_56
   21  A    between atoms: C_39  and  C_51
   22  A    between atoms: CA_40  and  N_42
   23  A    between atoms: N_42  and  C_60
                            x       y       z     vdW  Elec       q    Type
                         _______ _______ _______ _____ _____    ______ ____

>  <TORSDO>
F 23

$$$$
=
 OpenBabel11042420173D

 70 78  0  0  1  0  0  0  0  0999 V2000
  160.1960  209.5510  153.3020 C   0  0  0  0  0  2  0  0  0  0  0  0
  160.4310  208.4650  148.7410 C   0  0  0  0  0  2  0  0  0  0  0  0
  161.5470  209.3890  151.4280 C   0  0  1  0  0  3  0  0  0  0  0  0
  160.4490  207.4680  149.8880 C   0  0  0  0  0  2  0  0  0  0  0  0
  160.1270  208.9790  151.8970 C   0  0  1  0  0  3  0  0  0  0  0  0
  160.6860  211.6420  151.8730 C   0  0  0  0  0  0  0  0  0  0  0  0
  161.8480  208.8080  148.2970 C   0  0  2  0  0  3  0  0  0  0  0  0
  161.8680  210.1800  147.6360 C   0  0  0  0  0  2  0  0  0  0  0  0
  161.0130  207.9690  151.2280 C   0  0  2  0  0  0  0  0  0  0  0  0
  160.0310  211.0840  153.1510 C   0  0  1  0  0  3  0  0  0  0  0  0
  162.0370  211.3720  149.8190 C   0  0  0  0  0  2  0  0  0  0  0  0
  161.2700  210.8050  150.9780 C   0  0  0  0  0  0  0  0  0  0  0  0
  161.2410  211.2560  148.5280 C   0  0  1  0  0  3  0  0  0  0  0  0
  162.0930  205.6050  153.8790 N   0  0  0  0  0  2  0  0  0  0  0  0
  161.4560  206.7760  153.4010 C   0  0  0  0  0  3  0  0  0  0  0  0
  161.6420  206.9170  152.0980 C   0  0  0  0  0  0  0  0  0  0  0  0
  162.4630  205.8020  151.5430 C   0  0  0  0  0  2  0  0  0  0  0  0
  162.6690  204.8840  152.7510 C   0  0  2  0  0  3  0  0  0  0  0  0
  161.9610  203.5370  152.5570 C   0  0  0  0  0  3  0  0  0  0  0  0
  162.0980  201.3630  151.2270 C   0  0  0  0  0  2  0  0  0  0  0  0
  160.0920  202.3640  151.2600 C   0  0  0  0  0  2  0  0  0  0  0  0
  160.5840  203.6820  151.8760 C   0  0  0  0  0  2  0  0  0  0  0  0
  162.8810  202.5320  151.8420 C   0  0  0  0  0  2  0  0  0  0  0  0
  160.8060  201.2700  151.7770 O   0  0  0  0  0  0  0  0  0  0  0  0
  160.6940  213.0220  151.6240 O   0  0  0  0  0  0  0  0  0  0  0  0
  160.0580  213.6060  150.4970 C   0  0  0  0  0  1  0  0  0  0  0  0
  162.3790  207.7500  147.3440 C   0  0  0  0  0  2  0  0  0  0  0  0
  161.6350  206.4360  147.5560 C   0  0  0  0  0  2  0  0  0  0  0  0
  163.1230  205.7230  145.8100 F   0  0  0  0  0  0  0  0  0  0  0  0
  161.9280  205.4220  146.4480 C   0  0  2  0  0  3  0  0  0  0  0  0
  160.7650  205.3340  145.4400 C   0  0  1  0  0  3  0  0  0  0  0  0
  161.1320  205.8910  144.0610 C   0  0  0  0  0  1  0  0  0  0  0  0
  160.1840  204.0410  145.3690 O   0  0  0  0  0  0  0  0  0  0  0  0
  161.2190  203.0970  145.2460 C   0  0  0  0  0  2  0  0  0  0  0  0
  158.7040  200.6170  147.8070 C   0  0  0  0  0  2  0  0  0  0  0  0
  158.6310  200.6460  145.9700 S   0  0  0  0  0  0  0  0  0  0  0  0
  161.1030  202.0250  146.3130 C   0  0  1  0  0  3  0  0  0  0  0  0
  159.8920  201.3720  148.4280 C   0  0  0  0  0  2  0  0  0  0  0  0
  161.3080  203.4000  148.4000 C   0  0  0  0  0  1  0  0  0  0  0  0
  160.3740  202.5410  147.5640 C   0  0  1  0  0  3  0  0  0  0  0  0
  161.0290  199.9920  145.1210 O   0  0  0  0  0  0  0  0  0  0  0  0
  160.3970  200.8390  145.7290 C   0  0  0  0  0  0  0  0  0  0  0  0
  158.5450  211.4270  153.1600 C   0  0  0  0  0  2  0  0  0  0  0  0
  158.2700  212.6120  154.0760 C   0  0  0  0  0  2  0  0  0  0  0  0
  158.8930  213.5430  156.2780 C   0  0  1  0  0  3  0  0  0  0  0  0
  159.9940  214.2360  156.9220 N   0  0  0  0  0  1  0  0  0  0  0  0
  159.4150  212.8170  155.0530 C   0  0  1  0  0  3  0  0  0  0  0  0
  159.1340  212.0500  156.3270 C   0  0  0  0  0  2  0  0  0  0  0  0
  161.1420  212.6180  147.8270 C   0  0  1  0  0  3  0  0  0  0  0  0
  162.2330  214.3040  149.3730 F   0  0  0  0  0  0  0  0  0  0  0  0
  164.7530  213.9150  148.3610 C   0  0  0  0  0  1  0  0  0  0  0  0
  163.6160  213.3000  147.5660 C   0  0  1  0  0  3  0  0  0  0  0  0
  162.3000  213.5490  148.2090 C   0  0  1  0  0  0  0  0  0  0  0  0
  162.7460  214.3170  147.1190 O   0  0  0  0  0  0  0  0  0  0  0  0
  161.1120  212.3920  146.3160 C   0  0  0  0  0  2  0  0  0  0  0  0
  159.6100  212.3360  141.9310 C   0  0  0  0  0  0  0  0  0  0  0  0
  158.4060  213.0240  143.7970 N   0  0  0  0  0  0  0  0  0  0  0  0
  159.7890  212.6480  145.7670 N   0  0  0  0  0  2  0  0  0  0  0  0
  160.6270  211.9670  143.2220 S   0  0  0  0  0  0  0  0  0  0  0  0
  158.4390  212.8930  142.4420 C   0  0  0  0  0  0  0  0  0  0  0  0
  159.5400  212.5620  144.3630 C   0  0  0  0  0  0  0  0  0  0  0  0
  157.3080  213.3550  141.5930 C   0  0  0  0  0  1  0  0  0  0  0  0
  159.9220  212.1000  140.4850 C   0  0  2  0  0  3  0  0  0  0  0  0
  159.4250  210.1810  139.1590 O   0  0  0  0  0  1  0  0  0  0  0  0
  160.2010  210.6310  140.2300 C   0  0  0  0  0  2  0  0  0  0  0  0
  161.0740  212.8920  140.0870 N   0  0  0  0  0  2  0  0  0  0  0  0
  161.6380  212.2620  138.9090 C   0  0  0  0  0  2  0  0  0  0  0  0
  163.1430  212.1370  139.0780 C   0  0  0  0  0  2  0  0  0  0  0  0
  163.6300  213.8550  140.6620 O   0  0  0  0  0  1  0  0  0  0  0  0
  163.7650  213.5000  139.3200 C   0  0  0  0  0  2  0  0  0  0  0  0
  2  4  1  0  0  0  0
  3 12  1  6  0  0  0
  3  5  1  0  0  0  0
  4  9  1  0  0  0  0
  5  1  1  1  0  0  0
  6 10  1  0  0  0  0
  7 27  1  6  0  0  0
  7  2  1  0  0  0  0
  8  7  1  0  0  0  0
  8 13  1  0  0  0  0
  9  3  1  0  0  0  0
  9  5  1  0  0  0  0
  9 16  1  1  0  0  0
 10 43  1  6  0  0  0
 10  1  1  0  0  0  0
 11 12  1  0  0  0  0
 12  6  2  0  0  0  0
 13 49  1  6  0  0  0
 13 11  1  0  0  0  0
 15 14  1  0  0  0  0
 16 15  2  0  0  0  0
 17 16  1  0  0  0  0
 17 18  1  0  0  0  0
 18 19  1  6  0  0  0
 18 14  1  0  0  0  0
 20 24  1  0  0  0  0
 20 23  1  0  0  0  0
 21 24  1  0  0  0  0
 21 22  1  0  0  0  0
 22 19  1  0  0  0  0
 23 19  1  0  0  0  0
 25  6  1  0  0  0  0
 26 25  1  0  0  0  0
 27 28  1  0  0  0  0
 30 29  1  6  0  0  0
 30 28  1  0  0  0  0
 31 32  1  6  0  0  0
 31 30  1  0  0  0  0
 33 31  1  0  0  0  0
 34 33  1  0  0  0  0
 35 38  1  0  0  0  0
 36 35  1  0  0  0  0
 37 34  1  6  0  0  0
 37 40  1  0  0  0  0
 40 39  1  1  0  0  0
 40 38  1  0  0  0  0
 41 42  2  0  0  0  0
 42 36  1  0  0  0  0
 42 37  1  0  0  0  0
 43 44  1  0  0  0  0
 45 48  1  0  0  0  0
 45 46  1  1  0  0  0
 47 44  1  6  0  0  0
 47 45  1  0  0  0  0
 47 48  1  0  0  0  0
 49 55  1  6  0  0  0
 49 53  1  0  0  0  0
 52 53  1  0  0  0  0
 52 51  1  1  0  0  0
 53 50  1  1  0  0  0
 54 52  1  0  0  0  0
 54 53  1  0  0  0  0
 56 60  2  0  0  0  0
 56 59  1  0  0  0  0
 57 61  2  0  0  0  0
 58 55  1  0  0  0  0
 59 61  1  0  0  0  0
 60 57  1  0  0  0  0
 61 58  1  0  0  0  0
 62 60  1  0  0  0  0
 63 65  1  1  0  0  0
 63 56  1  0  0  0  0
 64 65  1  0  0  0  0
 66 63  1  0  0  0  0
 67 68  1  0  0  0  0
 67 66  1  0  0  0  0
 68 70  1  0  0  0  0
 70 69  1  0  0  0  0
M  END
>  <MODEL>
7

>  <REMARK>
 VINA RESULT:       4.1      3.351     11.374
  Name = 
  23 active torsions:
  status: ('A' for Active; 'I' for Inactive)
    1  A    between atoms: C_1  and  C_60
    2  A    between atoms: C_1  and  C_62
    3  A    between atoms: C_2  and  C_8
    4  A    between atoms: C_2  and  C_66
    5  A    between atoms: C_2  and  C_68
    6  A    between atoms: C_7  and  C_43
    7  A    between atoms: C_7  and  C_48
    8  A    between atoms: C_8  and  N_35
    9  A    between atoms: C_9  and  C_47
   10  A    between atoms: C_14  and  C_49
   11  A    between atoms: C_14  and  C_51
   12  A    between atoms: C_17  and  CA_40
   13  A    between atoms: C_20  and  O_36
   14  A    between atoms: C_21  and  CA_40
   15  A    between atoms: C_25  and  O_38
   16  A    between atoms: C_25  and  C_48
   17  A    between atoms: C_27  and  C_33
   18  A    between atoms: C_29  and  C_56
   19  A    between atoms: C_30  and  C_43
   20  A    between atoms: O_38  and  C_56
   21  A    between atoms: C_39  and  C_51
   22  A    between atoms: CA_40  and  N_42
   23  A    between atoms: N_42  and  C_60
                            x       y       z     vdW  Elec       q    Type
                         _______ _______ _______ _____ _____    ______ ____

>  <TORSDO>
F 23

$$$$
=
 OpenBabel11042420173D

 70 78  0  0  1  0  0  0  0  0999 V2000
  161.1970  211.7680  151.6680 C   0  0  0  0  0  2  0  0  0  0  0  0
  163.0800  208.6420  148.7150 C   0  0  0  0  0  2  0  0  0  0  0  0
  160.7910  210.0880  150.1260 C   0  0  1  0  0  3  0  0  0  0  0  0
  162.8850  210.1220  148.4270 C   0  0  0  0  0  2  0  0  0  0  0  0
  161.9660  210.9650  150.6340 C   0  0  1  0  0  3  0  0  0  0  0  0
  160.7590  209.3550  152.4670 C   0  0  0  0  0  0  0  0  0  0  0  0
  161.9170  207.8240  148.1680 C   0  0  2  0  0  3  0  0  0  0  0  0
  161.7860  206.5210  148.9450 C   0  0  0  0  0  2  0  0  0  0  0  0
  161.7260  210.8190  149.1600 C   0  0  2  0  0  0  0  0  0  0  0  0
  160.9840  210.8240  152.8760 C   0  0  1  0  0  3  0  0  0  0  0  0
  160.4550  207.5890  150.7620 C   0  0  0  0  0  2  0  0  0  0  0  0
  160.8260  208.9870  151.1620 C   0  0  0  0  0  0  0  0  0  0  0  0
  161.6930  206.7610  150.4550 C   0  0  1  0  0  3  0  0  0  0  0  0
  160.8320  214.0580  147.5820 N   0  0  0  0  0  2  0  0  0  0  0  0
  161.5560  213.2370  148.4800 C   0  0  0  0  0  3  0  0  0  0  0  0
  161.1180  211.9900  148.4390 C   0  0  0  0  0  0  0  0  0  0  0  0
  159.9990  211.8380  147.4640 C   0  0  0  0  0  2  0  0  0  0  0  0
  159.8960  213.2290  146.8310 C   0  0  2  0  0  3  0  0  0  0  0  0
  160.2770  213.1990  145.3460 C   0  0  0  0  0  3  0  0  0  0  0  0
  160.6950  211.5940  143.4070 C   0  0  0  0  0  2  0  0  0  0  0  0
  162.2630  213.1620  143.7320 C   0  0  0  0  0  2  0  0  0  0  0  0
  161.7380  213.6290  145.0980 C   0  0  0  0  0  2  0  0  0  0  0  0
  159.9390  211.8340  144.7210 C   0  0  0  0  0  2  0  0  0  0  0  0
  161.2050  212.7970  142.8850 O   0  0  0  0  0  0  0  0  0  0  0  0
  160.4750  208.3830  153.4360 O   0  0  0  0  0  0  0  0  0  0  0  0
  160.5960  208.6240  154.8300 C   0  0  0  0  0  1  0  0  0  0  0  0
  162.1130  207.5430  146.6860 C   0  0  0  0  0  2  0  0  0  0  0  0
  161.4820  206.2020  146.3220 C   0  0  0  0  0  2  0  0  0  0  0  0
  163.5360  205.9900  145.0940 F   0  0  0  0  0  0  0  0  0  0  0  0
  162.2450  205.4930  145.2020 C   0  0  2  0  0  3  0  0  0  0  0  0
  161.4960  205.5910  143.8580 C   0  0  1  0  0  3  0  0  0  0  0  0
  160.1410  206.2960  143.9840 C   0  0  0  0  0  1  0  0  0  0  0  0
  162.2920  206.1260  142.8120 O   0  0  0  0  0  0  0  0  0  0  0  0
  161.4370  206.6040  141.8030 C   0  0  0  0  0  2  0  0  0  0  0  0
  161.5980  207.8550  137.6260 C   0  0  0  0  0  2  0  0  0  0  0  0
  160.4570  208.5510  138.8900 S   0  0  0  0  0  0  0  0  0  0  0  0
  162.2330  207.1690  140.6420 C   0  0  1  0  0  3  0  0  0  0  0  0
  162.6950  206.9280  138.1730 C   0  0  0  0  0  2  0  0  0  0  0  0
  163.2790  205.0860  139.7170 C   0  0  0  0  0  1  0  0  0  0  0  0
  162.2770  206.1960  139.4520 C   0  0  1  0  0  3  0  0  0  0  0  0
  161.9720  209.5060  140.8120 O   0  0  0  0  0  0  0  0  0  0  0  0
  161.6340  208.4830  140.2410 C   0  0  0  0  0  0  0  0  0  0  0  0
  162.1920  210.9210  153.8020 C   0  0  0  0  0  2  0  0  0  0  0  0
  161.7510  211.0910  155.2490 C   0  0  0  0  0  2  0  0  0  0  0  0
  159.6660  211.4240  156.5330 C   0  0  1  0  0  3  0  0  0  0  0  0
  158.2630  211.7260  156.3170 N   0  0  0  0  0  1  0  0  0  0  0  0
  160.4630  211.8930  155.3310 C   0  0  1  0  0  3  0  0  0  0  0  0
  160.4580  212.7110  156.6040 C   0  0  0  0  0  2  0  0  0  0  0  0
  161.6850  205.4540  151.2600 C   0  0  1  0  0  3  0  0  0  0  0  0
  162.6120  206.5730  153.3360 F   0  0  0  0  0  0  0  0  0  0  0  0
  160.3720  206.1020  154.8460 C   0  0  0  0  0  1  0  0  0  0  0  0
  160.4460  205.3680  153.5200 C   0  0  1  0  0  3  0  0  0  0  0  0
  161.6830  205.7080  152.7730 C   0  0  1  0  0  0  0  0  0  0  0  0
  161.5710  204.5170  153.5120 O   0  0  0  0  0  0  0  0  0  0  0  0
  160.4620  204.6330  150.8530 C   0  0  0  0  0  2  0  0  0  0  0  0
  160.8910  201.8670  147.1570 C   0  0  0  0  0  0  0  0  0  0  0  0
  160.9240  201.2110  149.3870 N   0  0  0  0  0  0  0  0  0  0  0  0
  160.7790  203.2160  150.7650 N   0  0  0  0  0  2  0  0  0  0  0  0
  160.8580  203.3240  148.0030 S   0  0  0  0  0  0  0  0  0  0  0  0
  160.9400  200.8250  148.0820 C   0  0  0  0  0  0  0  0  0  0  0  0
  160.8760  202.5550  149.5020 C   0  0  0  0  0  0  0  0  0  0  0  0
  160.9680  199.3870  147.7010 C   0  0  0  0  0  1  0  0  0  0  0  0
  160.8730  201.7290  145.6660 C   0  0  2  0  0  3  0  0  0  0  0  0
  158.6920  202.5620  145.1780 O   0  0  0  0  0  1  0  0  0  0  0  0
  160.0530  202.8400  145.0360 C   0  0  0  0  0  2  0  0  0  0  0  0
  160.3200  200.4390  145.2900 N   0  0  0  0  0  2  0  0  0  0  0  0
  161.2680  199.8160  144.3860 C   0  0  0  0  0  2  0  0  0  0  0  0
  160.9870  198.3250  144.3130 C   0  0  0  0  0  2  0  0  0  0  0  0
  162.4140  196.9370  145.6320 O   0  0  0  0  0  1  0  0  0  0  0  0
  161.2280  197.6720  145.6620 C   0  0  0  0  0  2  0  0  0  0  0  0
  1 10  1  0  0  0  0
  3  5  1  0  0  0  0
  3 12  1  6  0  0  0
  4  2  1  0  0  0  0
  4  9  1  0  0  0  0
  5  1  1  1  0  0  0
  6 10  1  0  0  0  0
  6 25  1  0  0  0  0
  7 27  1  6  0  0  0
  7  2  1  0  0  0  0
  7  8  1  0  0  0  0
  8 13  1  0  0  0  0
  9 16  1  6  0  0  0
  9  3  1  0  0  0  0
  9  5  1  0  0  0  0
 10 43  1  1  0  0  0
 11 12  1  0  0  0  0
 12  6  2  0  0  0  0
 13 11  1  0  0  0  0
 13 49  1  1  0  0  0
 14 15  1  0  0  0  0
 16 15  2  0  0  0  0
 17 16  1  0  0  0  0
 18 19  1  6  0  0  0
 18 17  1  0  0  0  0
 18 14  1  0  0  0  0
 20 23  1  0  0  0  0
 21 22  1  0  0  0  0
 22 19  1  0  0  0  0
 23 19  1  0  0  0  0
 24 20  1  0  0  0  0
 24 21  1  0  0  0  0
 25 26  1  0  0  0  0
 28 27  1  0  0  0  0
 30 29  1  6  0  0  0
 30 28  1  0  0  0  0
 31 32  1  1  0  0  0
 31 30  1  0  0  0  0
 33 31  1  0  0  0  0
 34 33  1  0  0  0  0
 35 38  1  0  0  0  0
 35 36  1  0  0  0  0
 36 42  1  0  0  0  0
 37 34  1  1  0  0  0
 38 40  1  0  0  0  0
 40 39  1  1  0  0  0
 40 37  1  0  0  0  0
 42 37  1  0  0  0  0
 42 41  2  0  0  0  0
 43 44  1  0  0  0  0
 45 46  1  6  0  0  0
 45 48  1  0  0  0  0
 47 44  1  1  0  0  0
 47 45  1  0  0  0  0
 47 48  1  0  0  0  0
 49 55  1  6  0  0  0
 49 53  1  0  0  0  0
 52 51  1  1  0  0  0
 53 50  1  1  0  0  0
 53 54  1  0  0  0  0
 53 52  1  0  0  0  0
 54 52  1  0  0  0  0
 56 59  1  0  0  0  0
 56 60  2  0  0  0  0
 57 61  2  0  0  0  0
 58 55  1  0  0  0  0
 59 61  1  0  0  0  0
 60 57  1  0  0  0  0
 61 58  1  0  0  0  0
 62 60  1  0  0  0  0
 63 65  1  6  0  0  0
 63 56  1  0  0  0  0
 65 64  1  0  0  0  0
 66 63  1  0  0  0  0
 67 66  1  0  0  0  0
 68 67  1  0  0  0  0
 68 70  1  0  0  0  0
 69 70  1  0  0  0  0
M  END
>  <MODEL>
8

>  <REMARK>
 VINA RESULT:       5.0      3.424      8.883
  Name = 
  23 active torsions:
  status: ('A' for Active; 'I' for Inactive)
    1  A    between atoms: C_1  and  C_60
    2  A    between atoms: C_1  and  C_62
    3  A    between atoms: C_2  and  C_8
    4  A    between atoms: C_2  and  C_66
    5  A    between atoms: C_2  and  C_68
    6  A    between atoms: C_7  and  C_43
    7  A    between atoms: C_7  and  C_48
    8  A    between atoms: C_8  and  N_35
    9  A    between atoms: C_9  and  C_47
   10  A    between atoms: C_14  and  C_49
   11  A    between atoms: C_14  and  C_51
   12  A    between atoms: C_17  and  CA_40
   13  A    between atoms: C_20  and  O_36
   14  A    between atoms: C_21  and  CA_40
   15  A    between atoms: C_25  and  O_38
   16  A    between atoms: C_25  and  C_48
   17  A    between atoms: C_27  and  C_33
   18  A    between atoms: C_29  and  C_56
   19  A    between atoms: C_30  and  C_43
   20  A    between atoms: O_38  and  C_56
   21  A    between atoms: C_39  and  C_51
   22  A    between atoms: CA_40  and  N_42
   23  A    between atoms: N_42  and  C_60
                            x       y       z     vdW  Elec       q    Type
                         _______ _______ _______ _____ _____    ______ ____

>  <TORSDO>
F 23

$$$$
=
 OpenBabel11042420173D

 70 78  0  0  1  0  0  0  0  0999 V2000
  160.8180  212.3820  151.5750 C   0  0  0  0  0  2  0  0  0  0  0  0
  160.0810  207.7790  151.0190 C   0  0  0  0  0  2  0  0  0  0  0  0
  161.7860  210.2900  151.3510 C   0  0  1  0  0  3  0  0  0  0  0  0
  159.9910  208.5350  152.3350 C   0  0  0  0  0  2  0  0  0  0  0  0
  160.3910  210.9250  151.5910 C   0  0  1  0  0  3  0  0  0  0  0  0
  161.6500  211.5800  149.2690 C   0  0  0  0  0  0  0  0  0  0  0  0
  161.4580  207.1490  150.8480 C   0  0  2  0  0  3  0  0  0  0  0  0
  161.7580  206.9470  149.3690 C   0  0  0  0  0  2  0  0  0  0  0  0
  160.8590  209.7990  152.4650 C   0  0  2  0  0  0  0  0  0  0  0  0
  161.0590  212.7440  150.0890 C   0  0  1  0  0  3  0  0  0  0  0  0
  162.5620  209.2890  149.0800 C   0  0  0  0  0  2  0  0  0  0  0  0
  161.8460  210.3650  149.8420 C   0  0  0  0  0  0  0  0  0  0  0  0
  161.5870  208.2410  148.5670 C   0  0  1  0  0  3  0  0  0  0  0  0
  162.4240  211.0700  155.5820 N   0  0  0  0  0  2  0  0  0  0  0  0
  162.3890  210.8080  154.1910 C   0  0  0  0  0  3  0  0  0  0  0  0
  161.2940  210.1410  153.8620 C   0  0  0  0  0  0  0  0  0  0  0  0
  160.4420  209.8750  155.0570 C   0  0  0  0  0  2  0  0  0  0  0  0
  161.1830  210.5990  156.1840 C   0  0  2  0  0  3  0  0  0  0  0  0
  160.3660  211.7780  156.7250 C   0  0  0  0  0  3  0  0  0  0  0  0
  158.5050  213.4020  156.0810 C   0  0  0  0  0  2  0  0  0  0  0  0
  160.3440  214.3260  156.9680 C   0  0  0  0  0  2  0  0  0  0  0  0
  161.2100  213.0590  156.8920 C   0  0  0  0  0  2  0  0  0  0  0  0
  159.0990  212.0010  155.8800 C   0  0  0  0  0  2  0  0  0  0  0  0
  159.0070  214.0050  157.2490 O   0  0  0  0  0  0  0  0  0  0  0  0
  162.0000  211.7650  147.9240 O   0  0  0  0  0  0  0  0  0  0  0  0
  163.1420  212.5040  147.5180 C   0  0  0  0  0  1  0  0  0  0  0  0
  161.5350  205.8250  151.5930 C   0  0  0  0  0  2  0  0  0  0  0  0
  161.4800  204.6660  150.6030 C   0  0  0  0  0  2  0  0  0  0  0  0
  160.4420  203.6200  152.5000 F   0  0  0  0  0  0  0  0  0  0  0  0
  160.6540  203.4930  151.1350 C   0  0  2  0  0  3  0  0  0  0  0  0
  161.3110  202.1400  150.7970 C   0  0  1  0  0  3  0  0  0  0  0  0
  162.6420  201.9280  151.5260 C   0  0  0  0  0  1  0  0  0  0  0  0
  160.4290  201.0380  150.9430 O   0  0  0  0  0  0  0  0  0  0  0  0
  160.8390  200.0210  150.0620 C   0  0  0  0  0  2  0  0  0  0  0  0
  160.5170  202.7030  146.6360 C   0  0  0  0  0  2  0  0  0  0  0  0
  162.0980  202.1100  147.3640 S   0  0  0  0  0  0  0  0  0  0  0  0
  160.3300  200.2860  148.6580 C   0  0  1  0  0  3  0  0  0  0  0  0
  159.2510  202.0120  147.1680 C   0  0  0  0  0  2  0  0  0  0  0  0
  158.0250  201.1490  149.1360 C   0  0  0  0  0  1  0  0  0  0  0  0
  159.4030  201.5100  148.6070 C   0  0  1  0  0  3  0  0  0  0  0  0
  162.0350  199.4870  147.2380 O   0  0  0  0  0  0  0  0  0  0  0  0
  161.5050  200.4620  147.7450 C   0  0  0  0  0  0  0  0  0  0  0  0
  159.7430  213.1960  149.4660 C   0  0  0  0  0  2  0  0  0  0  0  0
  159.9910  213.9660  148.1770 C   0  0  0  0  0  2  0  0  0  0  0  0
  158.0120  213.2990  146.8560 C   0  0  1  0  0  3  0  0  0  0  0  0
  157.1220  213.8290  145.8400 N   0  0  0  0  0  1  0  0  0  0  0  0
  158.6820  214.4520  147.5780 C   0  0  1  0  0  3  0  0  0  0  0  0
  157.5280  213.7180  148.2260 C   0  0  0  0  0  2  0  0  0  0  0  0
  161.7650  208.0260  147.0580 C   0  0  1  0  0  3  0  0  0  0  0  0
  160.8500  205.6650  147.1650 F   0  0  0  0  0  0  0  0  0  0  0  0
  162.2290  204.8050  144.9560 C   0  0  0  0  0  1  0  0  0  0  0  0
  162.6400  206.1570  145.5120 C   0  0  1  0  0  3  0  0  0  0  0  0
  161.8200  206.5380  146.6890 C   0  0  1  0  0  0  0  0  0  0  0  0
  163.1120  206.0020  146.8330 O   0  0  0  0  0  0  0  0  0  0  0  0
  160.6170  208.7180  146.3240 C   0  0  0  0  0  2  0  0  0  0  0  0
  160.2240  212.1180  143.1970 C   0  0  0  0  0  0  0  0  0  0  0  0
  160.8010  212.3570  145.4370 N   0  0  0  0  0  0  0  0  0  0  0  0
  160.6750  210.1620  146.4870 N   0  0  0  0  0  2  0  0  0  0  0  0
  160.0350  210.5670  143.8270 S   0  0  0  0  0  0  0  0  0  0  0  0
  160.6340  212.9620  144.2280 C   0  0  0  0  0  0  0  0  0  0  0  0
  160.5130  211.0410  145.3720 C   0  0  0  0  0  0  0  0  0  0  0  0
  160.9140  214.4120  144.0440 C   0  0  0  0  0  1  0  0  0  0  0  0
  159.9880  212.5100  141.7710 C   0  0  2  0  0  3  0  0  0  0  0  0
  158.5710  213.7700  140.3240 O   0  0  0  0  0  1  0  0  0  0  0  0
  158.7380  213.3610  141.6500 C   0  0  0  0  0  2  0  0  0  0  0  0
  159.8540  211.3230  140.9430 N   0  0  0  0  0  2  0  0  0  0  0  0
  160.4130  211.6450  139.6440 C   0  0  0  0  0  2  0  0  0  0  0  0
  161.8100  212.2160  139.8260 C   0  0  0  0  0  2  0  0  0  0  0  0
  162.6490  210.6330  138.2480 O   0  0  0  0  0  1  0  0  0  0  0  0
  162.6430  211.9890  138.5770 C   0  0  0  0  0  2  0  0  0  0  0  0
  2  4  1  0  0  0  0
  3 12  1  6  0  0  0
  3  5  1  0  0  0  0
  3  9  1  0  0  0  0
  4  9  1  0  0  0  0
  5  1  1  1  0  0  0
  5  9  1  0  0  0  0
  6 12  2  0  0  0  0
  6 10  1  0  0  0  0
  7  2  1  0  0  0  0
  7 27  1  1  0  0  0
  8  7  1  0  0  0  0
  9 16  1  1  0  0  0
 10 43  1  6  0  0  0
 10  1  1  0  0  0  0
 11 12  1  0  0  0  0
 13 49  1  6  0  0  0
 13 11  1  0  0  0  0
 13  8  1  0  0  0  0
 14 18  1  0  0  0  0
 15 14  1  0  0  0  0
 16 15  2  0  0  0  0
 16 17  1  0  0  0  0
 17 18  1  0  0  0  0
 18 19  1  6  0  0  0
 19 22  1  0  0  0  0
 20 24  1  0  0  0  0
 21 24  1  0  0  0  0
 22 21  1  0  0  0  0
 23 20  1  0  0  0  0
 23 19  1  0  0  0  0
 25  6  1  0  0  0  0
 26 25  1  0  0  0  0
 28 30  1  0  0  0  0
 28 27  1  0  0  0  0
 30 29  1  1  0  0  0
 31 33  1  0  0  0  0
 31 30  1  0  0  0  0
 31 32  1  1  0  0  0
 34 33  1  0  0  0  0
 35 38  1  0  0  0  0
 35 36  1  0  0  0  0
 36 42  1  0  0  0  0
 37 34  1  1  0  0  0
 38 40  1  0  0  0  0
 40 37  1  0  0  0  0
 40 39  1  6  0  0  0
 41 42  2  0  0  0  0
 42 37  1  0  0  0  0
 44 43  1  0  0  0  0
 45 46  1  6  0  0  0
 45 47  1  0  0  0  0
 45 48  1  0  0  0  0
 47 44  1  1  0  0  0
 47 48  1  0  0  0  0
 49 55  1  6  0  0  0
 52 51  1  1  0  0  0
 52 53  1  0  0  0  0
 52 54  1  0  0  0  0
 53 54  1  0  0  0  0
 53 49  1  0  0  0  0
 53 50  1  1  0  0  0
 55 58  1  0  0  0  0
 56 59  1  0  0  0  0
 56 60  2  0  0  0  0
 59 61  1  0  0  0  0
 60 57  1  0  0  0  0
 61 57  2  0  0  0  0
 61 58  1  0  0  0  0
 62 60  1  0  0  0  0
 63 65  1  1  0  0  0
 63 56  1  0  0  0  0
 64 65  1  0  0  0  0
 66 63  1  0  0  0  0
 67 68  1  0  0  0  0
 67 66  1  0  0  0  0
 69 70  1  0  0  0  0
 70 68  1  0  0  0  0
M  END
>  <MODEL>
9

>  <REMARK>
 VINA RESULT:       5.0      3.327     10.640
  Name = 
  23 active torsions:
  status: ('A' for Active; 'I' for Inactive)
    1  A    between atoms: C_1  and  C_60
    2  A    between atoms: C_1  and  C_62
    3  A    between atoms: C_2  and  C_8
    4  A    between atoms: C_2  and  C_66
    5  A    between atoms: C_2  and  C_68
    6  A    between atoms: C_7  and  C_43
    7  A    between atoms: C_7  and  C_48
    8  A    between atoms: C_8  and  N_35
    9  A    between atoms: C_9  and  C_47
   10  A    between atoms: C_14  and  C_49
   11  A    between atoms: C_14  and  C_51
   12  A    between atoms: C_17  and  CA_40
   13  A    between atoms: C_20  and  O_36
   14  A    between atoms: C_21  and  CA_40
   15  A    between atoms: C_25  and  O_38
   16  A    between atoms: C_25  and  C_48
   17  A    between atoms: C_27  and  C_33
   18  A    between atoms: C_29  and  C_56
   19  A    between atoms: C_30  and  C_43
   20  A    between atoms: O_38  and  C_56
   21  A    between atoms: C_39  and  C_51
   22  A    between atoms: CA_40  and  N_42
   23  A    between atoms: N_42  and  C_60
                            x       y       z     vdW  Elec       q    Type
                         _______ _______ _______ _____ _____    ______ ____

>  <TORSDO>
F 23

$$$$
