=
 OpenBabel11052411413D

 42 46  0  0  1  0  0  0  0  0999 V2000
  161.0860  205.7060  152.1250 C   0  0  1  0  0  3  0  0  0  0  0  0
  162.3120  208.4140  148.5280 O   0  0  0  0  0  0  0  0  0  0  0  0
  161.3920  212.0640  148.6510 C   0  0  0  0  0  0  0  0  0  0  0  0
  161.9200  209.6190  149.1410 C   0  0  0  0  0  0  0  0  0  0  0  0
  161.7370  209.5920  150.4400 C   0  0  0  0  0  3  0  0  0  0  0  0
  160.9230  207.5650  153.6780 C   0  0  0  0  0  0  0  0  0  0  0  0
  161.2240  212.5210  150.0060 N   0  0  0  0  0  2  0  0  0  0  0  0
  161.1300  206.3000  153.4690 N   0  0  0  0  0  0  0  0  0  0  0  0
  161.0530  211.8260  151.2490 C   0  0  0  0  0  3  0  0  0  0  0  0
  161.6240  206.6740  150.1580 C   0  0  0  0  0  2  0  0  0  0  0  0
  160.6760  208.4360  152.5910 N   0  0  0  0  0  2  0  0  0  0  0  0
  161.0840  208.1890  154.9990 C   0  0  0  0  0  3  0  0  0  0  0  0
  161.6890  210.8010  148.3050 C   0  0  0  0  0  3  0  0  0  0  0  0
  161.2430  210.5260  151.4340 C   0  0  0  0  0  0  0  0  0  0  0  0
  162.7370  207.2480  149.2620 C   0  0  0  0  0  2  0  0  0  0  0  0
  161.1990  210.3480  153.9120 C   0  0  0  0  0  3  0  0  0  0  0  0
  162.1720  206.1580  151.3460 O   0  0  0  0  0  0  0  0  0  0  0  0
  161.1840  209.4910  155.0790 N   0  0  0  0  0  0  0  0  0  0  0  0
  160.9580  209.8320  152.6980 C   0  0  0  0  0  0  0  0  0  0  0  0
  161.3260  214.3530  147.9290 F   0  0  0  0  0  0  0  0  0  0  0  0
  161.2470  213.0420  147.6080 N   0  0  0  0  0  0  0  0  0  0  0  0
  159.4730  213.2820  145.9480 C   0  0  0  0  0  2  0  0  0  0  0  0
  161.8580  213.1690  145.2380 C   0  0  0  0  0  2  0  0  0  0  0  0
  160.0100  212.9450  143.5340 C   0  0  0  0  0  0  0  0  0  0  0  0
  159.6310  213.0550  142.3390 O   0  0  0  0  0  0  0  0  0  0  0  0
  161.4170  212.9150  143.8670 N   0  0  0  0  0  0  0  0  0  0  0  0
  162.4450  212.8180  142.8730 C   0  0  0  0  0  3  0  0  0  0  0  0
  160.8350  212.6760  146.2560 C   0  0  1  0  0  3  0  0  0  0  0  0
  158.9720  212.7750  144.6010 C   0  0  0  0  0  2  0  0  0  0  0  0
  162.1770  212.6490  141.6540 O   0  0  0  0  0  0  0  0  0  0  0  0
  161.1370  204.1890  152.2600 C   0  0  0  0  0  2  0  0  0  0  0  0
  160.4240  203.4920  151.1120 C   0  0  0  0  0  2  0  0  0  0  0  0
  161.0390  202.1290  150.8610 C   0  0  0  0  0  2  0  0  0  0  0  0
  160.4000  201.5010  149.6370 C   0  0  0  0  0  2  0  0  0  0  0  0
  161.3370  201.4230  148.6020 O   0  0  0  0  0  0  0  0  0  0  0  0
  160.6950  202.4730  145.2090 C   0  0  0  0  0  3  0  0  0  0  0  0
  160.9220  202.3680  147.6600 C   0  0  2  0  0  3  0  0  0  0  0  0
  161.6620  204.4150  146.4030 C   0  0  0  0  0  0  0  0  0  0  0  0
  162.1960  205.5110  146.3300 O   0  0  0  0  0  0  0  0  0  0  0  0
  160.7870  201.7150  146.3100 C   0  0  0  0  0  3  0  0  0  0  0  0
  161.9140  203.5380  147.6060 C   0  0  0  0  0  2  0  0  0  0  0  0
  160.7260  203.9730  145.3060 C   0  0  0  0  0  2  0  0  0  0  0  0
  1 31  1  1  0  0  0
  1  8  1  0  0  0  0
  2  4  1  0  0  0  0
  2 15  1  0  0  0  0
  3  7  1  0  0  0  0
  4  5  2  0  0  0  0
  5 14  1  0  0  0  0
  6 12  1  0  0  0  0
  7  9  1  0  0  0  0
  8  6  2  0  0  0  0
  9 14  2  0  0  0  0
 10 17  1  0  0  0  0
 11 19  1  0  0  0  0
 11  6  1  0  0  0  0
 12 18  2  0  0  0  0
 13  3  2  0  0  0  0
 13  4  1  0  0  0  0
 14 19  1  0  0  0  0
 15 10  1  0  0  0  0
 16 18  1  0  0  0  0
 17  1  1  0  0  0  0
 19 16  2  0  0  0  0
 21 20  1  0  0  0  0
 21  3  1  0  0  0  0
 22 28  1  0  0  0  0
 23 28  1  0  0  0  0
 24 26  1  0  0  0  0
 24 29  1  0  0  0  0
 25 24  2  0  0  0  0
 26 23  1  0  0  0  0
 27 26  1  0  0  0  0
 28 21  1  1  0  0  0
 29 22  1  0  0  0  0
 30 27  2  0  0  0  0
 32 31  1  0  0  0  0
 33 32  1  0  0  0  0
 34 33  1  0  0  0  0
 35 34  1  0  0  0  0
 36 42  1  0  0  0  0
 36 40  2  0  0  0  0
 37 35  1  1  0  0  0
 38 41  1  0  0  0  0
 39 38  2  0  0  0  0
 40 37  1  0  0  0  0
 41 37  1  0  0  0  0
 42 38  1  0  0  0  0
M  END
>  <MODEL>
1

>  <REMARK>
 VINA RESULT:      -8.9      0.000      0.000
  Name = 
  8 active torsions:
  status: ('A' for Active; 'I' for Inactive)
    1  A    between atoms: C_2  and  C_20
    2  A    between atoms: C_4  and  O_33
    3  A    between atoms: C_5  and  N_27
    4  A    between atoms: C_12  and  O_33
    5  A    between atoms: C_12  and  C_37
    6  A    between atoms: C_20  and  C_24
    7  A    between atoms: C_24  and  C_37
    8  A    between atoms: N_27  and  C_34
                            x       y       z     vdW  Elec       q    Type
                         _______ _______ _______ _____ _____    ______ ____

>  <TORSDO>
F 8

$$$$
=
 OpenBabel11052411413D

 42 46  0  0  1  0  0  0  0  0999 V2000
  160.8880  206.3610  148.1940 C   0  0  1  0  0  3  0  0  0  0  0  0
  162.0700  210.0360  150.8150 O   0  0  0  0  0  0  0  0  0  0  0  0
  161.3000  209.9180  154.5000 C   0  0  0  0  0  0  0  0  0  0  0  0
  161.7520  209.4220  152.0410 C   0  0  0  0  0  0  0  0  0  0  0  0
  161.6220  208.1160  152.0350 C   0  0  0  0  0  3  0  0  0  0  0  0
  160.8630  204.8240  150.0740 C   0  0  0  0  0  0  0  0  0  0  0  0
  161.2070  208.5630  154.9770 N   0  0  0  0  0  2  0  0  0  0  0  0
  161.0110  205.0270  148.8000 N   0  0  0  0  0  0  0  0  0  0  0  0
  161.0600  207.3070  154.3020 C   0  0  0  0  0  3  0  0  0  0  0  0
  161.3830  208.3590  149.1200 C   0  0  0  0  0  2  0  0  0  0  0  0
  160.6060  205.9100  150.9430 N   0  0  0  0  0  2  0  0  0  0  0  0
  161.1030  203.5190  150.7050 C   0  0  0  0  0  3  0  0  0  0  0  0
  161.5330  210.2610  153.2220 C   0  0  0  0  0  3  0  0  0  0  0  0
  161.2060  207.1140  152.9970 C   0  0  0  0  0  0  0  0  0  0  0  0
  162.4790  209.3070  149.6410 C   0  0  0  0  0  2  0  0  0  0  0  0
  161.2570  204.6350  152.8460 C   0  0  0  0  0  3  0  0  0  0  0  0
  161.9590  207.1880  148.5950 O   0  0  0  0  0  0  0  0  0  0  0  0
  161.2580  203.4580  152.0030 N   0  0  0  0  0  0  0  0  0  0  0  0
  160.9460  205.8310  152.3280 C   0  0  0  0  0  0  0  0  0  0  0  0
  162.2130  211.2960  156.2410 F   0  0  0  0  0  0  0  0  0  0  0  0
  161.1510  210.9670  155.4720 N   0  0  0  0  0  0  0  0  0  0  0  0
  159.7980  212.9910  155.2880 C   0  0  0  0  0  2  0  0  0  0  0  0
  158.7340  210.7430  155.1340 C   0  0  0  0  0  2  0  0  0  0  0  0
  157.3110  212.8080  155.4140 C   0  0  0  0  0  0  0  0  0  0  0  0
  156.1990  213.3760  155.2620 O   0  0  0  0  0  0  0  0  0  0  0  0
  157.4280  211.3690  155.3360 N   0  0  0  0  0  0  0  0  0  0  0  0
  156.2890  210.5030  155.2730 C   0  0  0  0  0  3  0  0  0  0  0  0
  159.8520  211.5530  155.7850 C   0  0  1  0  0  3  0  0  0  0  0  0
  158.5050  213.6510  155.7490 C   0  0  0  0  0  2  0  0  0  0  0  0
  155.1130  210.9420  155.3850 O   0  0  0  0  0  0  0  0  0  0  0  0
  160.8860  206.2100  146.6780 C   0  0  0  0  0  2  0  0  0  0  0  0
  162.2870  206.0110  146.1250 C   0  0  0  0  0  2  0  0  0  0  0  0
  162.4310  204.6180  145.5440 C   0  0  0  0  0  2  0  0  0  0  0  0
  161.2480  204.3170  144.6440 C   0  0  0  0  0  2  0  0  0  0  0  0
  160.2820  203.6000  145.3550 O   0  0  0  0  0  0  0  0  0  0  0  0
  160.4710  199.9960  145.4290 C   0  0  0  0  0  3  0  0  0  0  0  0
  160.9070  202.4030  145.7180 C   0  0  2  0  0  3  0  0  0  0  0  0
  161.2470  200.8130  147.6340 C   0  0  0  0  0  0  0  0  0  0  0  0
  161.4900  200.5570  148.8030 O   0  0  0  0  0  0  0  0  0  0  0  0
  160.2450  201.2490  145.0130 C   0  0  0  0  0  3  0  0  0  0  0  0
  160.8570  202.2180  147.2400 C   0  0  0  0  0  2  0  0  0  0  0  0
  161.3810  199.7280  146.5960 C   0  0  0  0  0  2  0  0  0  0  0  0
  1 31  1  6  0  0  0
  1 17  1  0  0  0  0
  1  8  1  0  0  0  0
  2  4  1  0  0  0  0
  3  7  1  0  0  0  0
  3 21  1  0  0  0  0
  4 13  1  0  0  0  0
  5  4  2  0  0  0  0
  5 14  1  0  0  0  0
  6 12  1  0  0  0  0
  6 11  1  0  0  0  0
  8  6  2  0  0  0  0
  9  7  1  0  0  0  0
 10 15  1  0  0  0  0
 11 19  1  0  0  0  0
 12 18  2  0  0  0  0
 13  3  2  0  0  0  0
 14  9  2  0  0  0  0
 15  2  1  0  0  0  0
 17 10  1  0  0  0  0
 18 16  1  0  0  0  0
 19 16  2  0  0  0  0
 19 14  1  0  0  0  0
 21 20  1  0  0  0  0
 22 29  1  0  0  0  0
 22 28  1  0  0  0  0
 23 26  1  0  0  0  0
 23 28  1  0  0  0  0
 24 29  1  0  0  0  0
 25 24  2  0  0  0  0
 26 24  1  0  0  0  0
 27 26  1  0  0  0  0
 27 30  2  0  0  0  0
 28 21  1  6  0  0  0
 32 31  1  0  0  0  0
 33 32  1  0  0  0  0
 34 35  1  0  0  0  0
 34 33  1  0  0  0  0
 36 42  1  0  0  0  0
 37 35  1  1  0  0  0
 37 41  1  0  0  0  0
 38 39  2  0  0  0  0
 40 36  2  0  0  0  0
 40 37  1  0  0  0  0
 41 38  1  0  0  0  0
 42 38  1  0  0  0  0
M  END
>  <MODEL>
2

>  <REMARK>
 VINA RESULT:      -8.6      4.241      7.085
  Name = 
  8 active torsions:
  status: ('A' for Active; 'I' for Inactive)
    1  A    between atoms: C_2  and  C_20
    2  A    between atoms: C_4  and  O_33
    3  A    between atoms: C_5  and  N_27
    4  A    between atoms: C_12  and  O_33
    5  A    between atoms: C_12  and  C_37
    6  A    between atoms: C_20  and  C_24
    7  A    between atoms: C_24  and  C_37
    8  A    between atoms: N_27  and  C_34
                            x       y       z     vdW  Elec       q    Type
                         _______ _______ _______ _____ _____    ______ ____

>  <TORSDO>
F 8

$$$$
=
 OpenBabel11052411413D

 42 46  0  0  1  0  0  0  0  0999 V2000
  160.9660  205.4490  152.2640 C   0  0  1  0  0  3  0  0  0  0  0  0
  162.3830  207.9610  148.5960 O   0  0  0  0  0  0  0  0  0  0  0  0
  161.7210  211.6690  148.6140 C   0  0  0  0  0  0  0  0  0  0  0  0
  162.0760  209.2080  149.1740 C   0  0  0  0  0  0  0  0  0  0  0  0
  161.8900  209.2310  150.4730 C   0  0  0  0  0  3  0  0  0  0  0  0
  160.9320  207.3590  153.7640 C   0  0  0  0  0  0  0  0  0  0  0  0
  161.5850  212.1750  149.9540 N   0  0  0  0  0  2  0  0  0  0  0  0
  161.0500  206.0770  153.5910 N   0  0  0  0  0  0  0  0  0  0  0  0
  161.3640  211.5300  151.2160 C   0  0  0  0  0  3  0  0  0  0  0  0
  161.5730  206.3210  150.2720 C   0  0  0  0  0  2  0  0  0  0  0  0
  160.7480  208.2130  152.6520 N   0  0  0  0  0  2  0  0  0  0  0  0
  161.1350  208.0070  155.0670 C   0  0  0  0  0  3  0  0  0  0  0  0
  161.9290  210.3790  148.3040 C   0  0  0  0  0  3  0  0  0  0  0  0
  161.4610  210.2250  151.4380 C   0  0  0  0  0  0  0  0  0  0  0  0
  162.7240  206.7900  149.3640 C   0  0  0  0  0  2  0  0  0  0  0  0
  161.4030  210.1210  153.9200 C   0  0  0  0  0  3  0  0  0  0  0  0
  162.0820  205.8020  151.4770 O   0  0  0  0  0  0  0  0  0  0  0  0
  161.3270  209.3010  155.1100 N   0  0  0  0  0  0  0  0  0  0  0  0
  161.1270  209.5890  152.7210 C   0  0  0  0  0  0  0  0  0  0  0  0
  162.7880  213.2000  147.1040 F   0  0  0  0  0  0  0  0  0  0  0  0
  161.6470  212.6250  147.5420 N   0  0  0  0  0  0  0  0  0  0  0  0
  159.8880  212.2710  145.8860 C   0  0  0  0  0  2  0  0  0  0  0  0
  159.3280  213.1250  148.1580 C   0  0  0  0  0  2  0  0  0  0  0  0
  157.6110  213.2010  146.3100 C   0  0  0  0  0  0  0  0  0  0  0  0
  156.4000  213.2350  145.9690 O   0  0  0  0  0  0  0  0  0  0  0  0
  158.0100  213.5220  147.6620 N   0  0  0  0  0  0  0  0  0  0  0  0
  157.1040  214.0710  148.6270 C   0  0  0  0  0  3  0  0  0  0  0  0
  160.3710  213.1310  147.0450 C   0  0  1  0  0  3  0  0  0  0  0  0
  158.6400  212.8870  145.2670 C   0  0  0  0  0  2  0  0  0  0  0  0
  155.9280  214.4020  148.3200 O   0  0  0  0  0  0  0  0  0  0  0  0
  160.9100  203.9370  152.4420 C   0  0  0  0  0  2  0  0  0  0  0  0
  161.3600  203.2010  151.1910 C   0  0  0  0  0  2  0  0  0  0  0  0
  160.1750  202.9270  150.2860 C   0  0  0  0  0  2  0  0  0  0  0  0
  160.5770  201.9470  149.2010 C   0  0  0  0  0  2  0  0  0  0  0  0
  161.7010  202.4270  148.5230 O   0  0  0  0  0  0  0  0  0  0  0  0
  160.6860  202.7090  145.0710 C   0  0  0  0  0  3  0  0  0  0  0  0
  161.1950  203.1520  147.4400 C   0  0  2  0  0  3  0  0  0  0  0  0
  161.8190  204.8270  145.6740 C   0  0  0  0  0  0  0  0  0  0  0  0
  162.3590  205.8540  145.2930 O   0  0  0  0  0  0  0  0  0  0  0  0
  160.8920  202.2170  146.2990 C   0  0  0  0  0  3  0  0  0  0  0  0
  162.1940  204.2350  147.0110 C   0  0  0  0  0  2  0  0  0  0  0  0
  160.7540  204.1910  144.8170 C   0  0  0  0  0  2  0  0  0  0  0  0
  1 31  1  1  0  0  0
  1  8  1  0  0  0  0
  2  4  1  0  0  0  0
  2 15  1  0  0  0  0
  3  7  1  0  0  0  0
  4  5  2  0  0  0  0
  5 14  1  0  0  0  0
  6 12  1  0  0  0  0
  7  9  1  0  0  0  0
  8  6  2  0  0  0  0
  9 14  2  0  0  0  0
 10 17  1  0  0  0  0
 11 19  1  0  0  0  0
 11  6  1  0  0  0  0
 12 18  2  0  0  0  0
 13  3  2  0  0  0  0
 13  4  1  0  0  0  0
 14 19  1  0  0  0  0
 15 10  1  0  0  0  0
 16 18  1  0  0  0  0
 17  1  1  0  0  0  0
 19 16  2  0  0  0  0
 20 21  1  0  0  0  0
 21  3  1  0  0  0  0
 22 28  1  0  0  0  0
 24 26  1  0  0  0  0
 25 24  2  0  0  0  0
 26 23  1  0  0  0  0
 26 27  1  0  0  0  0
 28 21  1  1  0  0  0
 28 23  1  0  0  0  0
 29 22  1  0  0  0  0
 29 24  1  0  0  0  0
 30 27  2  0  0  0  0
 32 31  1  0  0  0  0
 33 32  1  0  0  0  0
 34 33  1  0  0  0  0
 35 34  1  0  0  0  0
 36 40  2  0  0  0  0
 37 35  1  1  0  0  0
 38 41  1  0  0  0  0
 39 38  2  0  0  0  0
 40 37  1  0  0  0  0
 41 37  1  0  0  0  0
 42 36  1  0  0  0  0
 42 38  1  0  0  0  0
M  END
>  <MODEL>
3

>  <REMARK>
 VINA RESULT:      -8.2      1.783      2.425
  Name = 
  8 active torsions:
  status: ('A' for Active; 'I' for Inactive)
    1  A    between atoms: C_2  and  C_20
    2  A    between atoms: C_4  and  O_33
    3  A    between atoms: C_5  and  N_27
    4  A    between atoms: C_12  and  O_33
    5  A    between atoms: C_12  and  C_37
    6  A    between atoms: C_20  and  C_24
    7  A    between atoms: C_24  and  C_37
    8  A    between atoms: N_27  and  C_34
                            x       y       z     vdW  Elec       q    Type
                         _______ _______ _______ _____ _____    ______ ____

>  <TORSDO>
F 8

$$$$
=
 OpenBabel11052411413D

 42 46  0  0  1  0  0  0  0  0999 V2000
  159.8320  210.8050  154.6220 C   0  0  1  0  0  3  0  0  0  0  0  0
  160.9770  206.2840  154.7550 O   0  0  0  0  0  0  0  0  0  0  0  0
  161.2760  204.4250  151.4930 C   0  0  0  0  0  0  0  0  0  0  0  0
  161.1250  206.1520  153.3610 C   0  0  0  0  0  0  0  0  0  0  0  0
  161.2440  207.2610  152.6690 C   0  0  0  0  0  3  0  0  0  0  0  0
  160.6060  211.1000  152.3390 C   0  0  0  0  0  0  0  0  0  0  0  0
  161.5710  205.3160  150.4020 N   0  0  0  0  0  0  0  0  0  0  0  0
  160.3610  211.6080  153.5090 N   0  0  0  0  0  0  0  0  0  0  0  0
  161.4820  206.7410  150.2640 C   0  0  0  0  0  3  0  0  0  0  0  0
  160.1790  208.6150  155.0450 C   0  0  0  0  0  2  0  0  0  0  0  0
  160.3980  209.7220  152.1030 N   0  0  0  0  0  2  0  0  0  0  0  0
  161.2480  211.8640  151.2600 C   0  0  0  0  0  3  0  0  0  0  0  0
  161.0840  204.8140  152.7640 C   0  0  0  0  0  2  0  0  0  0  0  0
  161.3000  207.5990  151.2600 C   0  0  0  0  0  0  0  0  0  0  0  0
  161.1790  207.5230  155.4640 C   0  0  0  0  0  2  0  0  0  0  0  0
  161.7690  209.7750  150.1560 C   0  0  0  0  0  3  0  0  0  0  0  0
  160.7970  209.8780  155.0680 O   0  0  0  0  0  0  0  0  0  0  0  0
  161.7590  211.2200  150.2420 N   0  0  0  0  0  0  0  0  0  0  0  0
  161.1120  209.0440  151.0680 C   0  0  0  0  0  0  0  0  0  0  0  0
  161.0410  202.1440  152.2060 F   0  0  0  0  0  0  0  0  0  0  0  0
  161.2060  203.0210  151.1910 N   0  0  0  0  0  0  0  0  0  0  0  0
  160.7550  201.1880  149.6420 C   0  0  0  0  0  2  0  0  0  0  0  0
  161.0670  203.5090  148.7930 C   0  0  0  0  0  2  0  0  0  0  0  0
  161.0700  201.5580  147.1930 C   0  0  0  0  0  0  0  0  0  0  0  0
  160.8910  201.1250  146.0260 O   0  0  0  0  0  0  0  0  0  0  0  0
  161.2390  202.9720  147.4440 N   0  0  0  0  0  0  0  0  0  0  0  0
  161.4020  203.9300  146.3910 C   0  0  0  0  0  3  0  0  0  0  0  0
  161.4930  202.5020  149.8570 C   0  0  1  0  0  3  0  0  0  0  0  0
  161.1740  200.5690  148.3150 C   0  0  0  0  0  2  0  0  0  0  0  0
  161.5100  203.5800  145.1860 O   0  0  0  0  0  0  0  0  0  0  0  0
  159.4440  211.7420  155.7580 C   0  0  0  0  0  2  0  0  0  0  0  0
  158.7260  212.9830  155.2520 C   0  0  0  0  0  2  0  0  0  0  0  0
  157.4190  212.6000  154.5870 C   0  0  0  0  0  2  0  0  0  0  0  0
  156.9290  213.7490  153.7280 C   0  0  0  0  0  2  0  0  0  0  0  0
  157.9400  214.1480  152.8500 O   0  0  0  0  0  0  0  0  0  0  0  0
  154.9900  214.2700  150.7730 C   0  0  0  0  0  3  0  0  0  0  0  0
  157.2970  214.3820  151.6310 C   0  0  2  0  0  3  0  0  0  0  0  0
  156.8290  213.3720  149.3770 C   0  0  0  0  0  0  0  0  0  0  0  0
  157.1590  212.7750  148.3650 O   0  0  0  0  0  0  0  0  0  0  0  0
  155.8050  214.3680  151.8310 C   0  0  0  0  0  3  0  0  0  0  0  0
  157.7210  213.3310  150.5960 C   0  0  0  0  0  2  0  0  0  0  0  0
  155.5520  214.1730  149.3800 C   0  0  0  0  0  2  0  0  0  0  0  0
  1 17  1  0  0  0  0
  1 31  1  1  0  0  0
  2 15  1  0  0  0  0
  3 13  1  0  0  0  0
  4  2  1  0  0  0  0
  5  4  2  0  0  0  0
  6  8  2  0  0  0  0
  7  3  2  0  0  0  0
  8  1  1  0  0  0  0
  9  7  1  0  0  0  0
  9 14  2  0  0  0  0
 10 17  1  0  0  0  0
 10 15  1  0  0  0  0
 11  6  1  0  0  0  0
 12  6  1  0  0  0  0
 13  4  1  0  0  0  0
 14  5  1  0  0  0  0
 16 18  1  0  0  0  0
 16 19  2  0  0  0  0
 18 12  2  0  0  0  0
 19 14  1  0  0  0  0
 19 11  1  0  0  0  0
 21  3  1  0  0  0  0
 21 20  1  0  0  0  0
 22 28  1  0  0  0  0
 23 28  1  0  0  0  0
 24 26  1  0  0  0  0
 24 29  1  0  0  0  0
 25 24  2  0  0  0  0
 26 23  1  0  0  0  0
 27 26  1  0  0  0  0
 28 21  1  1  0  0  0
 29 22  1  0  0  0  0
 30 27  2  0  0  0  0
 32 31  1  0  0  0  0
 33 32  1  0  0  0  0
 34 33  1  0  0  0  0
 35 34  1  0  0  0  0
 36 40  2  0  0  0  0
 37 40  1  0  0  0  0
 37 35  1  1  0  0  0
 38 42  1  0  0  0  0
 38 41  1  0  0  0  0
 39 38  2  0  0  0  0
 41 37  1  0  0  0  0
 42 36  1  0  0  0  0
M  END
>  <MODEL>
4

>  <REMARK>
 VINA RESULT:      -7.5      3.998      9.421
  Name = 
  8 active torsions:
  status: ('A' for Active; 'I' for Inactive)
    1  A    between atoms: C_2  and  C_20
    2  A    between atoms: C_4  and  O_33
    3  A    between atoms: C_5  and  N_27
    4  A    between atoms: C_12  and  O_33
    5  A    between atoms: C_12  and  C_37
    6  A    between atoms: C_20  and  C_24
    7  A    between atoms: C_24  and  C_37
    8  A    between atoms: N_27  and  C_34
                            x       y       z     vdW  Elec       q    Type
                         _______ _______ _______ _____ _____    ______ ____

>  <TORSDO>
F 8

$$$$
=
 OpenBabel11052411413D

 42 46  0  0  1  0  0  0  0  0999 V2000
  162.4150  210.2610  149.4180 C   0  0  1  0  0  3  0  0  0  0  0  0
  161.1220  206.1620  147.6020 O   0  0  0  0  0  0  0  0  0  0  0  0
  161.0590  203.1520  149.8650 C   0  0  0  0  0  0  0  0  0  0  0  0
  161.0960  205.4830  148.8350 C   0  0  0  0  0  0  0  0  0  0  0  0
  161.0740  206.2220  149.9190 C   0  0  0  0  0  3  0  0  0  0  0  0
  161.8570  209.6130  151.6910 C   0  0  0  0  0  0  0  0  0  0  0  0
  160.8910  203.5300  151.2430 N   0  0  0  0  0  2  0  0  0  0  0  0
  162.0120  210.5480  150.8030 N   0  0  0  0  0  0  0  0  0  0  0  0
  161.0360  204.7820  151.9290 C   0  0  0  0  0  3  0  0  0  0  0  0
  161.9630  208.4210  148.1920 C   0  0  0  0  0  2  0  0  0  0  0  0
  162.0430  208.2570  151.3370 N   0  0  0  0  0  2  0  0  0  0  0  0
  161.3390  209.8770  153.0410 C   0  0  0  0  0  3  0  0  0  0  0  0
  161.1490  204.0180  148.8420 C   0  0  0  0  0  3  0  0  0  0  0  0
  161.1550  205.9680  151.3450 C   0  0  0  0  0  0  0  0  0  0  0  0
  160.8970  207.5790  147.4680 C   0  0  0  0  0  2  0  0  0  0  0  0
  160.8530  207.5170  153.2640 C   0  0  0  0  0  3  0  0  0  0  0  0
  161.3850  209.5830  148.7320 O   0  0  0  0  0  0  0  0  0  0  0  0
  160.9010  208.8760  153.7600 N   0  0  0  0  0  0  0  0  0  0  0  0
  161.4040  207.2170  152.0790 C   0  0  0  0  0  0  0  0  0  0  0  0
  161.7990  200.9340  150.4100 F   0  0  0  0  0  0  0  0  0  0  0  0
  161.1130  201.7450  149.5740 N   0  0  0  0  0  0  0  0  0  0  0  0
  160.3750  202.3190  147.3180 C   0  0  0  0  0  2  0  0  0  0  0  0
  161.6210  200.2030  147.7380 C   0  0  0  0  0  2  0  0  0  0  0  0
  160.4570  200.5800  145.5300 C   0  0  0  0  0  0  0  0  0  0  0  0
  160.3710  200.3180  144.3030 O   0  0  0  0  0  0  0  0  0  0  0  0
  161.2020  199.7200  146.4230 N   0  0  0  0  0  0  0  0  0  0  0  0
  161.7180  198.4450  146.0180 C   0  0  0  0  0  3  0  0  0  0  0  0
  160.6160  201.1950  148.3160 C   0  0  1  0  0  3  0  0  0  0  0  0
  159.7120  201.7660  146.0630 C   0  0  0  0  0  2  0  0  0  0  0  0
  161.4610  197.9540  144.8860 O   0  0  0  0  0  0  0  0  0  0  0  0
  162.7280  211.5780  148.7180 C   0  0  0  0  0  2  0  0  0  0  0  0
  161.5300  212.5130  148.7050 C   0  0  0  0  0  2  0  0  0  0  0  0
  161.9480  213.8970  148.2490 C   0  0  0  0  0  2  0  0  0  0  0  0
  161.3310  214.1940  146.8950 C   0  0  0  0  0  2  0  0  0  0  0  0
  162.3060  214.0950  145.8990 O   0  0  0  0  0  0  0  0  0  0  0  0
  159.7650  212.2050  144.1680 C   0  0  0  0  0  3  0  0  0  0  0  0
  161.6130  213.7300  144.7420 C   0  0  2  0  0  3  0  0  0  0  0  0
  161.7470  212.2900  142.6850 C   0  0  0  0  0  0  0  0  0  0  0  0
  162.3320  211.8320  141.7160 O   0  0  0  0  0  0  0  0  0  0  0  0
  160.4040  212.9100  145.1100 C   0  0  0  0  0  3  0  0  0  0  0  0
  162.5340  212.9520  143.7920 C   0  0  0  0  0  2  0  0  0  0  0  0
  160.2420  212.2210  142.7410 C   0  0  0  0  0  2  0  0  0  0  0  0
  1 31  1  6  0  0  0
  1  8  1  0  0  0  0
  2  4  1  0  0  0  0
  3  7  1  0  0  0  0
  4 13  1  0  0  0  0
  4  5  2  0  0  0  0
  5 14  1  0  0  0  0
  6 12  1  0  0  0  0
  7  9  1  0  0  0  0
  8  6  2  0  0  0  0
 10 17  1  0  0  0  0
 11  6  1  0  0  0  0
 11 19  1  0  0  0  0
 12 18  2  0  0  0  0
 13  3  2  0  0  0  0
 14  9  2  0  0  0  0
 14 19  1  0  0  0  0
 15  2  1  0  0  0  0
 15 10  1  0  0  0  0
 16 18  1  0  0  0  0
 17  1  1  0  0  0  0
 19 16  2  0  0  0  0
 21  3  1  0  0  0  0
 21 20  1  0  0  0  0
 22 28  1  0  0  0  0
 23 28  1  0  0  0  0
 24 29  1  0  0  0  0
 24 26  1  0  0  0  0
 25 24  2  0  0  0  0
 26 23  1  0  0  0  0
 27 26  1  0  0  0  0
 28 21  1  1  0  0  0
 29 22  1  0  0  0  0
 30 27  2  0  0  0  0
 32 31  1  0  0  0  0
 33 32  1  0  0  0  0
 34 33  1  0  0  0  0
 35 34  1  0  0  0  0
 36 40  2  0  0  0  0
 37 40  1  0  0  0  0
 37 35  1  1  0  0  0
 38 42  1  0  0  0  0
 38 41  1  0  0  0  0
 39 38  2  0  0  0  0
 41 37  1  0  0  0  0
 42 36  1  0  0  0  0
M  END
>  <MODEL>
5

>  <REMARK>
 VINA RESULT:      -6.6      3.351      9.242
  Name = 
  8 active torsions:
  status: ('A' for Active; 'I' for Inactive)
    1  A    between atoms: C_2  and  C_20
    2  A    between atoms: C_4  and  O_33
    3  A    between atoms: C_5  and  N_27
    4  A    between atoms: C_12  and  O_33
    5  A    between atoms: C_12  and  C_37
    6  A    between atoms: C_20  and  C_24
    7  A    between atoms: C_24  and  C_37
    8  A    between atoms: N_27  and  C_34
                            x       y       z     vdW  Elec       q    Type
                         _______ _______ _______ _____ _____    ______ ____

>  <TORSDO>
F 8

$$$$
=
 OpenBabel11052411413D

 42 46  0  0  1  0  0  0  0  0999 V2000
  159.3750  213.3700  151.6080 C   0  0  1  0  0  3  0  0  0  0  0  0
  160.4040  208.9500  152.6950 O   0  0  0  0  0  0  0  0  0  0  0  0
  161.7190  206.7060  149.9710 C   0  0  0  0  0  0  0  0  0  0  0  0
  160.9870  208.6490  151.4490 C   0  0  0  0  0  0  0  0  0  0  0  0
  161.3240  209.6650  150.6900 C   0  0  0  0  0  3  0  0  0  0  0  0
  160.8370  213.4030  149.6690 C   0  0  0  0  0  0  0  0  0  0  0  0
  162.3490  207.4630  148.9210 N   0  0  0  0  0  0  0  0  0  0  0  0
  160.2340  214.0450  150.6240 N   0  0  0  0  0  0  0  0  0  0  0  0
  162.3130  208.8540  148.5740 C   0  0  0  0  0  3  0  0  0  0  0  0
  159.5620  211.2660  152.4050 C   0  0  0  0  0  2  0  0  0  0  0  0
  160.7100  211.9990  149.5640 N   0  0  0  0  0  2  0  0  0  0  0  0
  161.7910  214.0490  148.7560 C   0  0  0  0  0  3  0  0  0  0  0  0
  161.1340  207.2460  151.0530 C   0  0  0  0  0  2  0  0  0  0  0  0
  161.8260  209.8230  149.3390 C   0  0  0  0  0  0  0  0  0  0  0  0
  160.3730  210.2760  153.2600 C   0  0  0  0  0  2  0  0  0  0  0  0
  162.6300  211.8580  148.1610 C   0  0  0  0  0  3  0  0  0  0  0  0
  160.1450  212.5450  152.4550 O   0  0  0  0  0  0  0  0  0  0  0  0
  162.5970  213.3010  148.0470 N   0  0  0  0  0  0  0  0  0  0  0  0
  161.7140  211.2240  148.9070 C   0  0  0  0  0  0  0  0  0  0  0  0
  161.8570  204.5280  150.9740 F   0  0  0  0  0  0  0  0  0  0  0  0
  161.7440  205.2740  149.8510 N   0  0  0  0  0  0  0  0  0  0  0  0
  161.1080  203.2750  148.6010 C   0  0  0  0  0  2  0  0  0  0  0  0
  161.2440  205.4860  147.4620 C   0  0  0  0  0  2  0  0  0  0  0  0
  161.0510  203.3660  146.1070 C   0  0  0  0  0  0  0  0  0  0  0  0
  160.7110  202.8030  145.0340 O   0  0  0  0  0  0  0  0  0  0  0  0
  161.2260  204.8000  146.1700 N   0  0  0  0  0  0  0  0  0  0  0  0
  161.2130  205.6330  145.0050 C   0  0  0  0  0  3  0  0  0  0  0  0
  161.8420  204.6080  148.5560 C   0  0  1  0  0  3  0  0  0  0  0  0
  161.3400  202.5110  147.3040 C   0  0  0  0  0  2  0  0  0  0  0  0
  161.1490  205.1500  143.8430 O   0  0  0  0  0  0  0  0  0  0  0  0
  158.6490  214.4270  152.4290 C   0  0  0  0  0  2  0  0  0  0  0  0
  159.0840  214.4140  153.8850 C   0  0  0  0  0  2  0  0  0  0  0  0
  158.0250  213.7550  154.7460 C   0  0  0  0  0  2  0  0  0  0  0  0
  158.6780  213.1090  155.9520 C   0  0  0  0  0  2  0  0  0  0  0  0
  158.3990  211.7390  155.9650 O   0  0  0  0  0  0  0  0  0  0  0  0
  161.9260  211.1780  156.4890 C   0  0  0  0  0  3  0  0  0  0  0  0
  159.4670  211.1530  156.6490 C   0  0  2  0  0  3  0  0  0  0  0  0
  160.7770  209.0200  156.8870 C   0  0  0  0  0  0  0  0  0  0  0  0
  160.8660  207.8070  156.9970 O   0  0  0  0  0  0  0  0  0  0  0  0
  160.7630  211.7760  156.2000 C   0  0  0  0  0  3  0  0  0  0  0  0
  159.4790  209.6360  156.4180 C   0  0  0  0  0  2  0  0  0  0  0  0
  161.9530  209.8860  157.2600 C   0  0  0  0  0  2  0  0  0  0  0  0
  1 31  1  1  0  0  0
  1 17  1  0  0  0  0
  2 15  1  0  0  0  0
  3 13  1  0  0  0  0
  4  2  1  0  0  0  0
  5  4  2  0  0  0  0
  6  8  2  0  0  0  0
  7  3  2  0  0  0  0
  8  1  1  0  0  0  0
  9  7  1  0  0  0  0
  9 14  2  0  0  0  0
 10 17  1  0  0  0  0
 10 15  1  0  0  0  0
 11  6  1  0  0  0  0
 12  6  1  0  0  0  0
 13  4  1  0  0  0  0
 14  5  1  0  0  0  0
 16 19  2  0  0  0  0
 18 16  1  0  0  0  0
 18 12  2  0  0  0  0
 19 14  1  0  0  0  0
 19 11  1  0  0  0  0
 21  3  1  0  0  0  0
 21 20  1  0  0  0  0
 23 28  1  0  0  0  0
 24 26  1  0  0  0  0
 24 29  1  0  0  0  0
 25 24  2  0  0  0  0
 26 23  1  0  0  0  0
 27 26  1  0  0  0  0
 28 22  1  0  0  0  0
 28 21  1  1  0  0  0
 29 22  1  0  0  0  0
 30 27  2  0  0  0  0
 31 32  1  0  0  0  0
 32 33  1  0  0  0  0
 33 34  1  0  0  0  0
 34 35  1  0  0  0  0
 36 42  1  0  0  0  0
 37 35  1  6  0  0  0
 38 39  2  0  0  0  0
 38 42  1  0  0  0  0
 40 36  2  0  0  0  0
 40 37  1  0  0  0  0
 41 37  1  0  0  0  0
 41 38  1  0  0  0  0
M  END
>  <MODEL>
6

>  <REMARK>
 VINA RESULT:      -6.5      3.656      9.046
  Name = 
  8 active torsions:
  status: ('A' for Active; 'I' for Inactive)
    1  A    between atoms: C_2  and  C_20
    2  A    between atoms: C_4  and  O_33
    3  A    between atoms: C_5  and  N_27
    4  A    between atoms: C_12  and  O_33
    5  A    between atoms: C_12  and  C_37
    6  A    between atoms: C_20  and  C_24
    7  A    between atoms: C_24  and  C_37
    8  A    between atoms: N_27  and  C_34
                            x       y       z     vdW  Elec       q    Type
                         _______ _______ _______ _____ _____    ______ ____

>  <TORSDO>
F 8

$$$$
=
 OpenBabel11052411413D

 42 46  0  0  1  0  0  0  0  0999 V2000
  161.7560  204.4670  151.0030 C   0  0  1  0  0  3  0  0  0  0  0  0
  160.4640  206.7180  154.8800 O   0  0  0  0  0  0  0  0  0  0  0  0
  161.3160  210.3740  155.1850 C   0  0  0  0  0  0  0  0  0  0  0  0
  160.8360  207.9930  154.4130 C   0  0  0  0  0  0  0  0  0  0  0  0
  161.0240  208.1200  153.1210 C   0  0  0  0  0  3  0  0  0  0  0  0
  161.8890  206.4960  149.6750 C   0  0  0  0  0  0  0  0  0  0  0  0
  161.4790  210.9880  153.8930 N   0  0  0  0  0  0  0  0  0  0  0  0
  161.7060  205.2110  149.7360 N   0  0  0  0  0  0  0  0  0  0  0  0
  161.6690  210.4450  152.5800 C   0  0  0  0  0  3  0  0  0  0  0  0
  161.1910  205.1910  153.0650 C   0  0  0  0  0  2  0  0  0  0  0  0
  162.1160  207.2390  150.8570 N   0  0  0  0  0  2  0  0  0  0  0  0
  161.7220  207.2650  148.4350 C   0  0  0  0  0  3  0  0  0  0  0  0
  161.0410  209.0740  155.3810 C   0  0  0  0  0  2  0  0  0  0  0  0
  161.5050  209.1710  152.2450 C   0  0  0  0  0  0  0  0  0  0  0  0
  160.0650  205.6370  154.0150 C   0  0  0  0  0  2  0  0  0  0  0  0
  161.5610  209.2810  149.7630 C   0  0  0  0  0  3  0  0  0  0  0  0
  160.6580  204.8060  151.8220 O   0  0  0  0  0  0  0  0  0  0  0  0
  161.5960  208.5660  148.5050 N   0  0  0  0  0  0  0  0  0  0  0  0
  161.8070  208.6330  150.9100 C   0  0  0  0  0  0  0  0  0  0  0  0
  162.5850  211.1980  157.0490 F   0  0  0  0  0  0  0  0  0  0  0  0
  161.4370  211.2280  156.3350 N   0  0  0  0  0  0  0  0  0  0  0  0
  160.4670  213.4580  156.5460 C   0  0  0  0  0  2  0  0  0  0  0  0
  158.9990  211.4660  156.2590 C   0  0  0  0  0  2  0  0  0  0  0  0
  158.0130  213.6860  156.9420 C   0  0  0  0  0  0  0  0  0  0  0  0
  157.0140  214.4500  156.9870 O   0  0  0  0  0  0  0  0  0  0  0  0
  157.8550  212.2720  156.6850 N   0  0  0  0  0  0  0  0  0  0  0  0
  156.5750  211.6290  156.6560 C   0  0  0  0  0  3  0  0  0  0  0  0
  160.3030  211.9790  156.8640 C   0  0  1  0  0  3  0  0  0  0  0  0
  159.3670  214.2610  157.2290 C   0  0  0  0  0  2  0  0  0  0  0  0
  155.5160  212.2430  156.9550 O   0  0  0  0  0  0  0  0  0  0  0  0
  161.7340  202.9750  150.6940 C   0  0  0  0  0  2  0  0  0  0  0  0
  160.4870  202.5730  149.9240 C   0  0  0  0  0  2  0  0  0  0  0  0
  160.6880  201.2230  149.2640 C   0  0  0  0  0  2  0  0  0  0  0  0
  161.2740  201.4150  147.8790 C   0  0  0  0  0  2  0  0  0  0  0  0
  160.4940  202.3220  147.1560 O   0  0  0  0  0  0  0  0  0  0  0  0
  163.1310  204.6990  146.5060 C   0  0  0  0  0  3  0  0  0  0  0  0
  161.3850  202.9730  146.2990 C   0  0  2  0  0  3  0  0  0  0  0  0
  161.5580  204.8130  144.5960 C   0  0  0  0  0  0  0  0  0  0  0  0
  161.1600  205.4330  143.6220 O   0  0  0  0  0  0  0  0  0  0  0  0
  162.3790  203.7670  147.1050 C   0  0  0  0  0  3  0  0  0  0  0  0
  160.6220  203.8790  145.3240 C   0  0  0  0  0  2  0  0  0  0  0  0
  162.9940  204.9630  145.0310 C   0  0  0  0  0  2  0  0  0  0  0  0
  1 31  1  6  0  0  0
  1 17  1  0  0  0  0
  3 13  1  0  0  0  0
  3 21  1  0  0  0  0
  4  2  1  0  0  0  0
  4 13  1  0  0  0  0
  5  4  2  0  0  0  0
  6  8  2  0  0  0  0
  6 11  1  0  0  0  0
  7  3  2  0  0  0  0
  8  1  1  0  0  0  0
  9  7  1  0  0  0  0
 10 15  1  0  0  0  0
 11 19  1  0  0  0  0
 12 18  2  0  0  0  0
 12  6  1  0  0  0  0
 14  9  2  0  0  0  0
 14  5  1  0  0  0  0
 15  2  1  0  0  0  0
 16 19  2  0  0  0  0
 17 10  1  0  0  0  0
 18 16  1  0  0  0  0
 19 14  1  0  0  0  0
 21 20  1  0  0  0  0
 22 28  1  0  0  0  0
 22 29  1  0  0  0  0
 23 26  1  0  0  0  0
 23 28  1  0  0  0  0
 24 25  2  0  0  0  0
 24 29  1  0  0  0  0
 26 24  1  0  0  0  0
 27 26  1  0  0  0  0
 27 30  2  0  0  0  0
 28 21  1  6  0  0  0
 32 31  1  0  0  0  0
 33 32  1  0  0  0  0
 34 33  1  0  0  0  0
 35 34  1  0  0  0  0
 36 40  2  0  0  0  0
 37 40  1  0  0  0  0
 37 35  1  1  0  0  0
 38 42  1  0  0  0  0
 38 41  1  0  0  0  0
 39 38  2  0  0  0  0
 41 37  1  0  0  0  0
 42 36  1  0  0  0  0
M  END
>  <MODEL>
7

>  <REMARK>
 VINA RESULT:      -6.4      3.933      7.342
  Name = 
  8 active torsions:
  status: ('A' for Active; 'I' for Inactive)
    1  A    between atoms: C_2  and  C_20
    2  A    between atoms: C_4  and  O_33
    3  A    between atoms: C_5  and  N_27
    4  A    between atoms: C_12  and  O_33
    5  A    between atoms: C_12  and  C_37
    6  A    between atoms: C_20  and  C_24
    7  A    between atoms: C_24  and  C_37
    8  A    between atoms: N_27  and  C_34
                            x       y       z     vdW  Elec       q    Type
                         _______ _______ _______ _____ _____    ______ ____

>  <TORSDO>
F 8

$$$$
=
 OpenBabel11052411413D

 42 46  0  0  1  0  0  0  0  0999 V2000
  162.5500  210.2110  149.3790 C   0  0  1  0  0  3  0  0  0  0  0  0
  161.2100  206.1230  147.5740 O   0  0  0  0  0  0  0  0  0  0  0  0
  161.0260  203.1380  149.8640 C   0  0  0  0  0  0  0  0  0  0  0  0
  161.1390  205.4580  148.8120 C   0  0  0  0  0  0  0  0  0  0  0  0
  161.1080  206.2080  149.8880 C   0  0  0  0  0  3  0  0  0  0  0  0
  161.9250  209.6000  151.6450 C   0  0  0  0  0  0  0  0  0  0  0  0
  160.8340  203.5350  151.2340 N   0  0  0  0  0  2  0  0  0  0  0  0
  162.1210  210.5210  150.7510 N   0  0  0  0  0  0  0  0  0  0  0  0
  160.9900  204.7900  151.9100 C   0  0  0  0  0  3  0  0  0  0  0  0
  162.0870  208.3680  148.1610 C   0  0  0  0  0  2  0  0  0  0  0  0
  162.0880  208.2360  151.3090 N   0  0  0  0  0  2  0  0  0  0  0  0
  161.3810  209.8890  152.9790 C   0  0  0  0  0  3  0  0  0  0  0  0
  161.1590  203.9920  148.8350 C   0  0  0  0  0  3  0  0  0  0  0  0
  161.1490  205.9670  151.3180 C   0  0  0  0  0  0  0  0  0  0  0  0
  161.0190  207.5430  147.4200 C   0  0  0  0  0  2  0  0  0  0  0  0
  160.8370  207.5420  153.2140 C   0  0  0  0  0  3  0  0  0  0  0  0
  161.5220  209.5490  148.6760 O   0  0  0  0  0  0  0  0  0  0  0  0
  160.9040  208.9050  153.6980 N   0  0  0  0  0  0  0  0  0  0  0  0
  161.4090  207.2180  152.0450 C   0  0  0  0  0  0  0  0  0  0  0  0
  161.6990  200.9100  150.4500 F   0  0  0  0  0  0  0  0  0  0  0  0
  161.0550  201.7280  149.5880 N   0  0  0  0  0  0  0  0  0  0  0  0
  160.3310  202.3010  147.3280 C   0  0  0  0  0  2  0  0  0  0  0  0
  161.6050  200.2030  147.7500 C   0  0  0  0  0  2  0  0  0  0  0  0
  160.4580  200.5720  145.5330 C   0  0  0  0  0  0  0  0  0  0  0  0
  160.3880  200.3150  144.3030 O   0  0  0  0  0  0  0  0  0  0  0  0
  161.2080  199.7190  146.4290 N   0  0  0  0  0  0  0  0  0  0  0  0
  161.7470  198.4550  146.0230 C   0  0  0  0  0  3  0  0  0  0  0  0
  160.5800  201.1770  148.3230 C   0  0  1  0  0  3  0  0  0  0  0  0
  159.6900  201.7440  146.0640 C   0  0  0  0  0  2  0  0  0  0  0  0
  161.5100  197.9660  144.8860 O   0  0  0  0  0  0  0  0  0  0  0  0
  162.9100  211.5130  148.6740 C   0  0  0  0  0  2  0  0  0  0  0  0
  161.7030  212.1460  148.0000 C   0  0  0  0  0  2  0  0  0  0  0  0
  161.8420  213.6550  147.9810 C   0  0  0  0  0  2  0  0  0  0  0  0
  160.7340  214.2790  148.8090 C   0  0  0  0  0  2  0  0  0  0  0  0
  159.8670  213.2830  149.2660 O   0  0  0  0  0  0  0  0  0  0  0  0
  159.0390  213.1680  152.7780 C   0  0  0  0  0  3  0  0  0  0  0  0
  159.2680  213.8150  150.4120 C   0  0  2  0  0  3  0  0  0  0  0  0
  157.0650  214.0790  151.5920 C   0  0  0  0  0  0  0  0  0  0  0  0
  155.8710  214.3360  151.6190 O   0  0  0  0  0  0  0  0  0  0  0  0
  159.7060  213.0360  151.6240 C   0  0  0  0  0  3  0  0  0  0  0  0
  157.7400  213.7970  150.2700 C   0  0  0  0  0  2  0  0  0  0  0  0
  157.8530  214.0890  152.8770 C   0  0  0  0  0  2  0  0  0  0  0  0
  1 31  1  6  0  0  0
  1  8  1  0  0  0  0
  2  4  1  0  0  0  0
  3  7  1  0  0  0  0
  4 13  1  0  0  0  0
  4  5  2  0  0  0  0
  5 14  1  0  0  0  0
  6 12  1  0  0  0  0
  7  9  1  0  0  0  0
  8  6  2  0  0  0  0
 10 17  1  0  0  0  0
 11  6  1  0  0  0  0
 11 19  1  0  0  0  0
 12 18  2  0  0  0  0
 13  3  2  0  0  0  0
 14  9  2  0  0  0  0
 14 19  1  0  0  0  0
 15  2  1  0  0  0  0
 15 10  1  0  0  0  0
 16 18  1  0  0  0  0
 17  1  1  0  0  0  0
 19 16  2  0  0  0  0
 21  3  1  0  0  0  0
 21 20  1  0  0  0  0
 22 28  1  0  0  0  0
 23 28  1  0  0  0  0
 24 29  1  0  0  0  0
 24 26  1  0  0  0  0
 25 24  2  0  0  0  0
 26 23  1  0  0  0  0
 27 26  1  0  0  0  0
 28 21  1  1  0  0  0
 29 22  1  0  0  0  0
 30 27  2  0  0  0  0
 32 31  1  0  0  0  0
 33 32  1  0  0  0  0
 33 34  1  0  0  0  0
 34 35  1  0  0  0  0
 36 42  1  0  0  0  0
 37 35  1  6  0  0  0
 37 40  1  0  0  0  0
 38 39  2  0  0  0  0
 38 42  1  0  0  0  0
 40 36  2  0  0  0  0
 41 37  1  0  0  0  0
 41 38  1  0  0  0  0
M  END
>  <MODEL>
8

>  <REMARK>
 VINA RESULT:      -6.1      3.899      9.679
  Name = 
  8 active torsions:
  status: ('A' for Active; 'I' for Inactive)
    1  A    between atoms: C_2  and  C_20
    2  A    between atoms: C_4  and  O_33
    3  A    between atoms: C_5  and  N_27
    4  A    between atoms: C_12  and  O_33
    5  A    between atoms: C_12  and  C_37
    6  A    between atoms: C_20  and  C_24
    7  A    between atoms: C_24  and  C_37
    8  A    between atoms: N_27  and  C_34
                            x       y       z     vdW  Elec       q    Type
                         _______ _______ _______ _____ _____    ______ ____

>  <TORSDO>
F 8

$$$$
=
 OpenBabel11052411413D

 42 46  0  0  1  0  0  0  0  0999 V2000
  160.6470  207.0940  154.4310 C   0  0  1  0  0  3  0  0  0  0  0  0
  161.3910  204.2730  150.7890 O   0  0  0  0  0  0  0  0  0  0  0  0
  161.3810  205.7800  147.3370 C   0  0  0  0  0  0  0  0  0  0  0  0
  161.4650  205.3110  149.8410 C   0  0  0  0  0  0  0  0  0  0  0  0
  161.6520  206.5250  150.3040 C   0  0  0  0  0  3  0  0  0  0  0  0
  161.3450  209.0890  153.2340 C   0  0  0  0  0  0  0  0  0  0  0  0
  161.7060  207.1820  147.3720 N   0  0  0  0  0  0  0  0  0  0  0  0
  161.1970  208.4560  154.3590 N   0  0  0  0  0  0  0  0  0  0  0  0
  161.7390  208.1420  148.4360 C   0  0  0  0  0  3  0  0  0  0  0  0
  160.8160  205.4440  152.9000 C   0  0  0  0  0  2  0  0  0  0  0  0
  161.0050  208.4610  152.0140 N   0  0  0  0  0  2  0  0  0  0  0  0
  162.0040  210.3990  153.1400 C   0  0  0  0  0  3  0  0  0  0  0  0
  161.2800  204.9950  148.4220 C   0  0  0  0  0  2  0  0  0  0  0  0
  161.6770  207.8570  149.7300 C   0  0  0  0  0  0  0  0  0  0  0  0
  161.7320  204.4380  152.1800 C   0  0  0  0  0  2  0  0  0  0  0  0
  162.2900  210.0310  150.7660 C   0  0  0  0  0  3  0  0  0  0  0  0
  161.5440  206.1660  153.8620 O   0  0  0  0  0  0  0  0  0  0  0  0
  162.4110  210.8230  151.9710 N   0  0  0  0  0  0  0  0  0  0  0  0
  161.6100  208.8760  150.7880 C   0  0  0  0  0  0  0  0  0  0  0  0
  161.3940  205.9380  144.9420 F   0  0  0  0  0  0  0  0  0  0  0  0
  161.1740  205.1870  146.0440 N   0  0  0  0  0  0  0  0  0  0  0  0
  160.0770  203.6970  144.4510 C   0  0  0  0  0  2  0  0  0  0  0  0
  161.5530  202.7740  146.2320 C   0  0  0  0  0  2  0  0  0  0  0  0
  160.0620  201.2400  144.8930 C   0  0  0  0  0  0  0  0  0  0  0  0
  159.8270  200.0860  144.4510 O   0  0  0  0  0  0  0  0  0  0  0  0
  160.9990  201.4450  145.9760 N   0  0  0  0  0  0  0  0  0  0  0  0
  161.5630  200.3620  146.7250 C   0  0  0  0  0  3  0  0  0  0  0  0
  160.5560  203.8750  145.8850 C   0  0  1  0  0  3  0  0  0  0  0  0
  159.2970  202.3950  144.3220 C   0  0  0  0  0  2  0  0  0  0  0  0
  161.1950  199.1700  146.5500 O   0  0  0  0  0  0  0  0  0  0  0  0
  160.3930  206.7460  155.8920 C   0  0  0  0  0  2  0  0  0  0  0  0
  159.5390  207.7950  156.5860 C   0  0  0  0  0  2  0  0  0  0  0  0
  160.4200  208.8300  157.2590 C   0  0  0  0  0  2  0  0  0  0  0  0
  159.7300  210.1800  157.2330 C   0  0  0  0  0  2  0  0  0  0  0  0
  160.1350  210.8970  156.1030 O   0  0  0  0  0  0  0  0  0  0  0  0
  156.6770  211.4930  155.2570 C   0  0  0  0  0  3  0  0  0  0  0  0
  159.0660  211.7460  155.8050 C   0  0  2  0  0  3  0  0  0  0  0  0
  158.0340  213.1110  153.9640 C   0  0  0  0  0  0  0  0  0  0  0  0
  158.0930  213.8960  153.0300 O   0  0  0  0  0  0  0  0  0  0  0  0
  157.7790  210.9640  155.8040 C   0  0  0  0  0  3  0  0  0  0  0  0
  159.2920  212.4310  154.4500 C   0  0  0  0  0  2  0  0  0  0  0  0
  156.7100  212.8650  154.6410 C   0  0  0  0  0  2  0  0  0  0  0  0
  1 31  1  1  0  0  0
  2 15  1  0  0  0  0
  3  7  2  0  0  0  0
  3 13  1  0  0  0  0
  4  5  2  0  0  0  0
  4  2  1  0  0  0  0
  6  8  2  0  0  0  0
  7  9  1  0  0  0  0
  8  1  1  0  0  0  0
  9 14  2  0  0  0  0
 10 17  1  0  0  0  0
 11  6  1  0  0  0  0
 12  6  1  0  0  0  0
 13  4  1  0  0  0  0
 14  5  1  0  0  0  0
 14 19  1  0  0  0  0
 15 10  1  0  0  0  0
 16 19  2  0  0  0  0
 16 18  1  0  0  0  0
 17  1  1  0  0  0  0
 18 12  2  0  0  0  0
 19 11  1  0  0  0  0
 20 21  1  0  0  0  0
 21  3  1  0  0  0  0
 22 28  1  0  0  0  0
 24 26  1  0  0  0  0
 25 24  2  0  0  0  0
 26 23  1  0  0  0  0
 26 27  1  0  0  0  0
 28 21  1  6  0  0  0
 28 23  1  0  0  0  0
 29 22  1  0  0  0  0
 29 24  1  0  0  0  0
 30 27  2  0  0  0  0
 31 32  1  0  0  0  0
 32 33  1  0  0  0  0
 34 33  1  0  0  0  0
 35 34  1  0  0  0  0
 36 40  2  0  0  0  0
 37 35  1  6  0  0  0
 38 41  1  0  0  0  0
 38 42  1  0  0  0  0
 39 38  2  0  0  0  0
 40 37  1  0  0  0  0
 41 37  1  0  0  0  0
 42 36  1  0  0  0  0
M  END
>  <MODEL>
9

>  <REMARK>
 VINA RESULT:      -5.9      4.375      8.745
  Name = 
  8 active torsions:
  status: ('A' for Active; 'I' for Inactive)
    1  A    between atoms: C_2  and  C_20
    2  A    between atoms: C_4  and  O_33
    3  A    between atoms: C_5  and  N_27
    4  A    between atoms: C_12  and  O_33
    5  A    between atoms: C_12  and  C_37
    6  A    between atoms: C_20  and  C_24
    7  A    between atoms: C_24  and  C_37
    8  A    between atoms: N_27  and  C_34
                            x       y       z     vdW  Elec       q    Type
                         _______ _______ _______ _____ _____    ______ ____

>  <TORSDO>
F 8

$$$$
