=
 OpenBabel11052410533D

 30 33  0  0  1  0  0  0  0  0999 V2000
  161.0950  207.2040  155.3480 N   0  0  0  0  0  0  0  0  0  0  0  0
  161.8740  204.5480  151.2190 C   0  0  0  0  0  2  0  0  0  0  0  0
  161.0150  204.7010  148.9770 N   0  0  0  0  0  0  0  0  0  0  0  0
  160.7820  208.1600  153.2670 C   0  0  0  0  0  0  0  0  0  0  0  0
  161.1340  206.9380  151.1090 C   0  0  0  0  0  0  0  0  0  0  0  0
  160.7260  208.4140  155.5070 N   0  0  0  0  0  2  0  0  0  0  0  0
  160.7560  208.2550  151.7760 C   0  0  0  0  0  3  0  0  0  0  0  0
  161.1260  206.9850  149.7000 O   0  0  0  0  0  0  0  0  0  0  0  0
  161.1710  205.9660  148.7270 C   0  0  0  0  0  0  0  0  0  0  0  0
  161.1540  206.9690  153.9530 C   0  0  0  0  0  0  0  0  0  0  0  0
  160.7760  204.1150  150.2810 C   0  0  1  0  0  3  0  0  0  0  0  0
  160.5230  209.0410  154.2300 C   0  0  0  0  0  0  0  0  0  0  0  0
  161.4820  205.8360  151.8420 C   0  0  0  0  0  0  0  0  0  0  0  0
  161.4910  205.8540  153.3260 C   0  0  0  0  0  3  0  0  0  0  0  0
  159.7130  212.6720  154.9740 C   0  0  0  0  0  3  0  0  0  0  0  0
  160.1190  211.3460  155.1480 C   0  0  0  0  0  3  0  0  0  0  0  0
  159.2570  212.2220  152.6400 C   0  0  0  0  0  3  0  0  0  0  0  0
  159.6630  210.8960  152.8160 C   0  0  0  0  0  3  0  0  0  0  0  0
  160.0980  210.4460  154.0700 C   0  0  0  0  0  0  0  0  0  0  0  0
  159.2810  213.1090  153.7190 C   0  0  0  0  0  3  0  0  0  0  0  0
  160.7420  202.6240  150.1690 C   0  0  0  0  0  3  0  0  0  0  0  0
  159.8990  202.0630  149.4860 O   0  0  0  0  0  0  0  0  0  0  0  0
  161.4020  206.3740  147.3170 C   0  0  0  0  0  2  0  0  0  0  0  0
  162.2650  205.4030  146.6640 N   0  0  0  0  0  2  0  0  0  0  0  0
  161.8330  205.3110  145.2800 C   0  0  0  0  0  2  0  0  0  0  0  0
  160.9980  204.0570  145.0840 C   0  0  0  0  0  2  0  0  0  0  0  0
  161.5010  202.9390  145.9810 C   0  0  0  0  0  2  0  0  0  0  0  0
  160.5100  201.7860  146.0280 C   0  0  0  0  0  3  0  0  0  0  0  0
  160.0110  201.5540  144.7470 O   0  0  0  0  0  1  0  0  0  0  0  0
  161.1440  200.6340  146.4930 O   0  0  0  0  0  1  0  0  0  0  0  0
  1  6  1  0  0  0  0
  2 13  1  0  0  0  0
  3 11  1  0  0  0  0
  4 10  1  0  0  0  0
  4 12  2  0  0  0  0
  5  7  2  0  0  0  0
  5 13  1  0  0  0  0
  7  4  1  0  0  0  0
  8  5  1  0  0  0  0
  9  3  2  0  0  0  0
  9  8  1  0  0  0  0
 10  1  2  0  0  0  0
 11 21  1  6  0  0  0
 11  2  1  0  0  0  0
 12  6  1  0  0  0  0
 13 14  2  0  0  0  0
 14 10  1  0  0  0  0
 15 16  1  0  0  0  0
 17 18  2  0  0  0  0
 17 20  1  0  0  0  0
 18 19  1  0  0  0  0
 19 12  1  0  0  0  0
 19 16  2  0  0  0  0
 20 15  2  0  0  0  0
 22 21  2  0  0  0  0
 23  9  1  0  0  0  0
 24 23  1  0  0  0  0
 25 24  1  0  0  0  0
 26 25  1  0  0  0  0
 26 27  1  0  0  0  0
 27 28  1  0  0  0  0
 28 30  1  0  0  0  0
 29 28  1  0  0  0  0
M  END
>  <MODEL>
1

>  <REMARK>
 VINA RESULT:      -8.4      0.000      0.000
  Name = 
  8 active torsions:
  status: ('A' for Active; 'I' for Inactive)
    1  A    between atoms: C_6  and  N_15
    2  A    between atoms: C_6  and  C_20
    3  A    between atoms: C_10  and  CA_23
    4  A    between atoms: C_14  and  C_25
    5  A    between atoms: N_15  and  C_19
    6  A    between atoms: C_18  and  C_19
    7  A    between atoms: C_18  and  C_21
    8  A    between atoms: C_21  and  C_24
                            x       y       z     vdW  Elec       q    Type
                         _______ _______ _______ _____ _____    ______ ____

>  <TORSDO>
F 8

$$$$
=
 OpenBabel11052410533D

 30 33  0  0  1  0  0  0  0  0999 V2000
  161.6690  207.0090  147.4880 N   0  0  0  0  0  0  0  0  0  0  0  0
  161.6560  209.8280  151.5820 C   0  0  0  0  0  2  0  0  0  0  0  0
  160.6580  209.5680  153.7560 N   0  0  0  0  0  0  0  0  0  0  0  0
  161.3570  206.0480  149.5660 C   0  0  0  0  0  0  0  0  0  0  0  0
  161.3230  207.3490  151.7080 C   0  0  0  0  0  0  0  0  0  0  0  0
  161.5240  205.7510  147.3380 N   0  0  0  0  0  0  0  0  0  0  0  0
  161.2280  205.9760  151.0530 C   0  0  0  0  0  3  0  0  0  0  0  0
  161.2110  207.3250  153.1130 O   0  0  0  0  0  0  0  0  0  0  0  0
  161.0050  208.3520  154.0550 C   0  0  0  0  0  0  0  0  0  0  0  0
  161.5760  207.2740  148.8760 C   0  0  1  0  0  3  0  0  0  0  0  0
  160.4280  210.0820  152.4200 C   0  0  1  0  0  3  0  0  0  0  0  0
  161.3290  205.1210  148.6140 C   0  0  0  0  0  0  0  0  0  0  0  0
  161.5370  208.4810  150.9700 C   0  0  0  0  0  0  0  0  0  0  0  0
  161.6690  208.4410  149.4920 C   0  0  0  0  0  3  0  0  0  0  0  0
  160.6870  201.7230  150.1750 C   0  0  0  0  0  3  0  0  0  0  0  0
  160.8670  203.1020  150.0400 C   0  0  0  0  0  3  0  0  0  0  0  0
  161.0440  201.4450  147.7980 C   0  0  0  0  0  3  0  0  0  0  0  0
  161.2240  202.8250  147.6640 C   0  0  0  0  0  3  0  0  0  0  0  0
  161.1360  203.6660  148.7820 C   0  0  0  0  0  0  0  0  0  0  0  0
  160.7760  200.8950  149.0540 C   0  0  0  0  0  3  0  0  0  0  0  0
  160.1340  211.5470  152.4850 C   0  0  0  0  0  3  0  0  0  0  0  0
  159.0020  211.9700  152.3080 O   0  0  0  0  0  0  0  0  0  0  0  0
  161.1880  208.0140  155.4900 C   0  0  0  0  0  2  0  0  0  0  0  0
  161.7410  209.1580  156.1950 N   0  0  0  0  0  2  0  0  0  0  0  0
  160.8130  209.4930  157.2610 C   0  0  0  0  0  2  0  0  0  0  0  0
  160.4440  210.9640  157.1800 C   0  0  0  0  0  2  0  0  0  0  0  0
  159.0260  211.1280  156.6570 C   0  0  0  0  0  2  0  0  0  0  0  0
  158.7660  212.5590  156.2150 C   0  0  0  0  0  3  0  0  0  0  0  0
  159.9160  213.0730  155.6160 O   0  0  0  0  0  1  0  0  0  0  0  0
  157.7150  212.5910  155.2990 O   0  0  0  0  0  1  0  0  0  0  0  0
  1 10  1  0  0  0  0
  2 11  1  0  0  0  0
  3  9  2  0  0  0  0
  4  7  1  0  0  0  0
  5  8  1  0  0  0  0
  6  1  2  0  0  0  0
  6 12  1  0  0  0  0
  7  5  2  0  0  0  0
  8  9  1  0  0  0  0
  9 23  1  0  0  0  0
 10 14  1  1  0  0  0
 10  4  1  0  0  0  0
 11 21  1  1  0  0  0
 11  3  1  0  0  0  0
 12 19  1  0  0  0  0
 12  4  2  0  0  0  0
 13  2  1  0  0  0  0
 13  5  1  0  0  0  0
 14 13  2  0  0  0  0
 16 15  1  0  0  0  0
 17 20  1  0  0  0  0
 18 17  2  0  0  0  0
 18 19  1  0  0  0  0
 19 16  2  0  0  0  0
 20 15  2  0  0  0  0
 22 21  2  0  0  0  0
 23 24  1  0  0  0  0
 24 25  1  0  0  0  0
 26 25  1  0  0  0  0
 27 26  1  0  0  0  0
 28 27  1  0  0  0  0
 29 28  1  0  0  0  0
 30 28  1  0  0  0  0
M  END
>  <MODEL>
2

>  <REMARK>
 VINA RESULT:      -8.4      3.266      9.601
  Name = 
  8 active torsions:
  status: ('A' for Active; 'I' for Inactive)
    1  A    between atoms: C_6  and  N_15
    2  A    between atoms: C_6  and  C_20
    3  A    between atoms: C_10  and  CA_23
    4  A    between atoms: C_14  and  C_25
    5  A    between atoms: N_15  and  C_19
    6  A    between atoms: C_18  and  C_19
    7  A    between atoms: C_18  and  C_21
    8  A    between atoms: C_21  and  C_24
                            x       y       z     vdW  Elec       q    Type
                         _______ _______ _______ _____ _____    ______ ____

>  <TORSDO>
F 8

$$$$
=
 OpenBabel11052410533D

 30 33  0  0  1  0  0  0  0  0999 V2000
  161.4090  204.3440  152.5120 N   0  0  0  0  0  0  0  0  0  0  0  0
  160.7810  208.7060  154.8110 C   0  0  0  0  0  2  0  0  0  0  0  0
  161.1970  210.9840  154.1610 N   0  0  0  0  0  0  0  0  0  0  0  0
  161.1050  206.2780  151.2850 C   0  0  0  0  0  0  0  0  0  0  0  0
  160.7820  208.5400  152.3130 C   0  0  0  0  0  0  0  0  0  0  0  0
  161.4380  204.0480  151.2720 N   0  0  0  0  0  0  0  0  0  0  0  0
  160.8690  207.7300  151.0240 C   0  0  0  0  0  2  0  0  0  0  0  0
  160.5550  209.9170  152.1110 O   0  0  0  0  0  0  0  0  0  0  0  0
  160.6500  211.0200  152.9830 C   0  0  0  0  0  0  0  0  0  0  0  0
  161.2010  205.7410  152.6000 C   0  0  0  0  0  0  0  0  0  0  0  0
  161.7960  209.8200  154.7850 C   0  0  1  0  0  3  0  0  0  0  0  0
  161.2500  205.2300  150.4780 C   0  0  0  0  0  0  0  0  0  0  0  0
  160.8830  207.9460  153.5410 C   0  0  0  0  0  0  0  0  0  0  0  0
  161.1020  206.4850  153.6890 C   0  0  0  0  0  3  0  0  0  0  0  0
  160.8370  206.3330  146.8710 C   0  0  0  0  0  3  0  0  0  0  0  0
  160.8510  206.3620  148.2680 C   0  0  0  0  0  3  0  0  0  0  0  0
  161.5710  204.0270  146.9140 C   0  0  0  0  0  3  0  0  0  0  0  0
  161.5850  204.0580  148.3110 C   0  0  0  0  0  3  0  0  0  0  0  0
  161.2260  205.2240  149.0010 C   0  0  0  0  0  0  0  0  0  0  0  0
  161.1970  205.1650  146.1940 C   0  0  0  0  0  3  0  0  0  0  0  0
  162.2350  210.1600  156.1730 C   0  0  0  0  0  3  0  0  0  0  0  0
  163.3280  210.6650  156.3830 O   0  0  0  0  0  0  0  0  0  0  0  0
  160.0940  212.3160  152.5130 C   0  0  0  0  0  2  0  0  0  0  0  0
  160.2700  212.4300  151.0750 N   0  0  0  0  0  2  0  0  0  0  0  0
  159.5820  213.6380  150.6550 C   0  0  0  0  0  2  0  0  0  0  0  0
  159.8060  213.8690  149.1710 C   0  0  0  0  0  2  0  0  0  0  0  0
  161.2680  213.6510  148.8140 C   0  0  0  0  0  2  0  0  0  0  0  0
  161.4140  212.6060  147.7190 C   0  0  0  0  0  3  0  0  0  0  0  0
  162.0310  211.4710  148.2430 O   0  0  0  0  0  1  0  0  0  0  0  0
  160.1580  212.2610  147.2210 O   0  0  0  0  0  1  0  0  0  0  0  0
  1 10  1  0  0  0  0
  3 11  1  0  0  0  0
  4 10  1  0  0  0  0
  5 13  2  0  0  0  0
  6  1  2  0  0  0  0
  7  4  1  0  0  0  0
  7  5  1  0  0  0  0
  8  5  1  0  0  0  0
  8  9  1  0  0  0  0
  9  3  2  0  0  0  0
 10 14  2  0  0  0  0
 11  2  1  0  0  0  0
 11 21  1  1  0  0  0
 12  6  1  0  0  0  0
 12  4  2  0  0  0  0
 13 14  1  0  0  0  0
 13  2  1  0  0  0  0
 15 16  1  0  0  0  0
 16 19  2  0  0  0  0
 17 18  2  0  0  0  0
 18 19  1  0  0  0  0
 19 12  1  0  0  0  0
 20 15  2  0  0  0  0
 20 17  1  0  0  0  0
 21 22  2  0  0  0  0
 23  9  1  0  0  0  0
 24 23  1  0  0  0  0
 25 24  1  0  0  0  0
 26 25  1  0  0  0  0
 27 26  1  0  0  0  0
 28 29  1  0  0  0  0
 28 27  1  0  0  0  0
 30 28  1  0  0  0  0
M  END
>  <MODEL>
3

>  <REMARK>
 VINA RESULT:      -8.3      3.715      8.018
  Name = 
  8 active torsions:
  status: ('A' for Active; 'I' for Inactive)
    1  A    between atoms: C_6  and  N_15
    2  A    between atoms: C_6  and  C_20
    3  A    between atoms: C_10  and  CA_23
    4  A    between atoms: C_14  and  C_25
    5  A    between atoms: N_15  and  C_19
    6  A    between atoms: C_18  and  C_19
    7  A    between atoms: C_18  and  C_21
    8  A    between atoms: C_21  and  C_24
                            x       y       z     vdW  Elec       q    Type
                         _______ _______ _______ _____ _____    ______ ____

>  <TORSDO>
F 8

$$$$
=
 OpenBabel11052410533D

 30 33  0  0  1  0  0  0  0  0999 V2000
  161.3860  204.2370  152.3860 N   0  0  0  0  0  0  0  0  0  0  0  0
  160.7560  208.5610  154.7550 C   0  0  0  0  0  2  0  0  0  0  0  0
  161.1790  210.8490  154.1450 N   0  0  0  0  0  0  0  0  0  0  0  0
  161.0910  206.1930  151.1900 C   0  0  0  0  0  0  0  0  0  0  0  0
  160.7670  208.4370  152.2540 C   0  0  0  0  0  0  0  0  0  0  0  0
  161.4200  203.9630  151.1410 N   0  0  0  0  0  0  0  0  0  0  0  0
  160.8580  207.6500  150.9530 C   0  0  0  0  0  2  0  0  0  0  0  0
  160.5430  209.8180  152.0750 O   0  0  0  0  0  0  0  0  0  0  0  0
  160.6370  210.9060  152.9650 C   0  0  0  0  0  0  0  0  0  0  0  0
  161.1800  205.6340  152.4960 C   0  0  0  0  0  0  0  0  0  0  0  0
  161.7730  209.6740  154.7520 C   0  0  1  0  0  3  0  0  0  0  0  0
  161.2370  205.1590  150.3660 C   0  0  0  0  0  0  0  0  0  0  0  0
  160.8620  207.8220  153.4720 C   0  0  0  0  0  0  0  0  0  0  0  0
  161.0780  206.3590  153.5970 C   0  0  0  0  0  3  0  0  0  0  0  0
  160.8160  206.3140  146.7770 C   0  0  0  0  0  3  0  0  0  0  0  0
  160.8240  206.3200  148.1740 C   0  0  0  0  0  3  0  0  0  0  0  0
  161.5990  204.0240  146.7830 C   0  0  0  0  0  3  0  0  0  0  0  0
  161.6060  204.0310  148.1810 C   0  0  0  0  0  3  0  0  0  0  0  0
  161.2200  205.1780  148.8890 C   0  0  0  0  0  0  0  0  0  0  0  0
  161.2030  205.1660  146.0820 C   0  0  0  0  0  3  0  0  0  0  0  0
  162.2060  209.9900  156.1480 C   0  0  0  0  0  3  0  0  0  0  0  0
  163.2130  210.6480  156.3610 O   0  0  0  0  0  0  0  0  0  0  0  0
  160.0850  212.2100  152.5160 C   0  0  0  0  0  2  0  0  0  0  0  0
  158.6330  212.1470  152.5010 N   0  0  0  0  0  2  0  0  0  0  0  0
  158.1440  213.4110  153.0250 C   0  0  0  0  0  2  0  0  0  0  0  0
  157.6430  213.2200  154.4460 C   0  0  0  0  0  2  0  0  0  0  0  0
  156.3490  212.4230  154.4500 C   0  0  0  0  0  2  0  0  0  0  0  0
  156.3990  211.3020  155.4760 C   0  0  0  0  0  3  0  0  0  0  0  0
  155.4380  210.3430  155.1590 O   0  0  0  0  0  1  0  0  0  0  0  0
  157.6610  210.7100  155.4720 O   0  0  0  0  0  1  0  0  0  0  0  0
  1 10  1  0  0  0  0
  3 11  1  0  0  0  0
  4 10  1  0  0  0  0
  5 13  2  0  0  0  0
  6  1  2  0  0  0  0
  7  4  1  0  0  0  0
  7  5  1  0  0  0  0
  8  5  1  0  0  0  0
  8  9  1  0  0  0  0
  9  3  2  0  0  0  0
 10 14  2  0  0  0  0
 11  2  1  0  0  0  0
 11 21  1  1  0  0  0
 12  6  1  0  0  0  0
 12  4  2  0  0  0  0
 13 14  1  0  0  0  0
 13  2  1  0  0  0  0
 15 16  1  0  0  0  0
 16 19  2  0  0  0  0
 17 18  2  0  0  0  0
 18 19  1  0  0  0  0
 19 12  1  0  0  0  0
 20 15  2  0  0  0  0
 20 17  1  0  0  0  0
 21 22  2  0  0  0  0
 23  9  1  0  0  0  0
 24 23  1  0  0  0  0
 24 25  1  0  0  0  0
 25 26  1  0  0  0  0
 26 27  1  0  0  0  0
 27 28  1  0  0  0  0
 29 28  1  0  0  0  0
 30 28  1  0  0  0  0
M  END
>  <MODEL>
4

>  <REMARK>
 VINA RESULT:      -8.3      3.703      8.843
  Name = 
  8 active torsions:
  status: ('A' for Active; 'I' for Inactive)
    1  A    between atoms: C_6  and  N_15
    2  A    between atoms: C_6  and  C_20
    3  A    between atoms: C_10  and  CA_23
    4  A    between atoms: C_14  and  C_25
    5  A    between atoms: N_15  and  C_19
    6  A    between atoms: C_18  and  C_19
    7  A    between atoms: C_18  and  C_21
    8  A    between atoms: C_21  and  C_24
                            x       y       z     vdW  Elec       q    Type
                         _______ _______ _______ _____ _____    ______ ____

>  <TORSDO>
F 8

$$$$
=
 OpenBabel11052410533D

 30 33  0  0  1  0  0  0  0  0999 V2000
  161.2760  203.9160  152.3160 N   0  0  0  0  0  0  0  0  0  0  0  0
  160.7360  208.0020  155.0950 C   0  0  0  0  0  2  0  0  0  0  0  0
  161.2490  210.3230  154.7250 N   0  0  0  0  0  0  0  0  0  0  0  0
  161.0730  205.9900  151.3170 C   0  0  0  0  0  0  0  0  0  0  0  0
  160.8000  208.1280  152.5950 C   0  0  0  0  0  0  0  0  0  0  0  0
  161.3280  203.7650  151.0510 N   0  0  0  0  0  0  0  0  0  0  0  0
  160.8940  207.4700  151.2230 C   0  0  0  0  0  2  0  0  0  0  0  0
  160.6260  209.5260  152.5510 O   0  0  0  0  0  0  0  0  0  0  0  0
  160.7350  210.5160  153.5470 C   0  0  0  0  0  0  0  0  0  0  0  0
  161.1140  205.3010  152.5620 C   0  0  0  0  0  0  0  0  0  0  0  0
  161.7890  209.0730  155.2220 C   0  0  1  0  0  3  0  0  0  0  0  0
  161.2030  205.0380  150.3960 C   0  0  0  0  0  0  0  0  0  0  0  0
  160.8460  207.3910  153.7470 C   0  0  0  0  0  0  0  0  0  0  0  0
  161.0110  205.9160  153.7280 C   0  0  0  0  0  3  0  0  0  0  0  0
  160.8620  206.5470  146.9320 C   0  0  0  0  0  3  0  0  0  0  0  0
  160.8380  206.4130  148.3230 C   0  0  0  0  0  3  0  0  0  0  0  0
  161.6480  204.2670  146.7270 C   0  0  0  0  0  3  0  0  0  0  0  0
  161.6230  204.1340  148.1190 C   0  0  0  0  0  3  0  0  0  0  0  0
  161.2190  205.2050  148.9290 C   0  0  0  0  0  0  0  0  0  0  0  0
  161.2670  205.4740  146.1350 C   0  0  0  0  0  3  0  0  0  0  0  0
  162.2020  209.2320  156.6510 C   0  0  0  0  0  3  0  0  0  0  0  0
  163.0490  210.0520  156.9740 O   0  0  0  0  0  0  0  0  0  0  0  0
  160.2370  211.8770  153.2200 C   0  0  0  0  0  2  0  0  0  0  0  0
  159.0550  211.7760  152.3820 N   0  0  0  0  0  2  0  0  0  0  0  0
  159.0580  212.9280  151.4970 C   0  0  0  0  0  2  0  0  0  0  0  0
  157.7500  213.6870  151.6340 C   0  0  0  0  0  2  0  0  0  0  0  0
  157.4270  214.4260  150.3460 C   0  0  0  0  0  2  0  0  0  0  0  0
  156.4770  213.6180  149.4750 C   0  0  0  0  0  3  0  0  0  0  0  0
  155.1620  213.9810  149.7660 O   0  0  0  0  0  1  0  0  0  0  0  0
  156.7380  213.8700  148.1280 O   0  0  0  0  0  1  0  0  0  0  0  0
  1 10  1  0  0  0  0
  2 11  1  0  0  0  0
  3 11  1  0  0  0  0
  4 10  1  0  0  0  0
  5 13  2  0  0  0  0
  6  1  2  0  0  0  0
  7  4  1  0  0  0  0
  7  5  1  0  0  0  0
  8  5  1  0  0  0  0
  8  9  1  0  0  0  0
  9  3  2  0  0  0  0
 10 14  2  0  0  0  0
 11 21  1  1  0  0  0
 12  6  1  0  0  0  0
 12  4  2  0  0  0  0
 13  2  1  0  0  0  0
 14 13  1  0  0  0  0
 15 16  1  0  0  0  0
 16 19  2  0  0  0  0
 17 18  2  0  0  0  0
 18 19  1  0  0  0  0
 19 12  1  0  0  0  0
 20 17  1  0  0  0  0
 20 15  2  0  0  0  0
 21 22  2  0  0  0  0
 23  9  1  0  0  0  0
 24 23  1  0  0  0  0
 25 26  1  0  0  0  0
 25 24  1  0  0  0  0
 27 26  1  0  0  0  0
 28 29  1  0  0  0  0
 28 27  1  0  0  0  0
 30 28  1  0  0  0  0
M  END
>  <MODEL>
5

>  <REMARK>
 VINA RESULT:      -8.0      3.681      8.563
  Name = 
  8 active torsions:
  status: ('A' for Active; 'I' for Inactive)
    1  A    between atoms: C_6  and  N_15
    2  A    between atoms: C_6  and  C_20
    3  A    between atoms: C_10  and  CA_23
    4  A    between atoms: C_14  and  C_25
    5  A    between atoms: N_15  and  C_19
    6  A    between atoms: C_18  and  C_19
    7  A    between atoms: C_18  and  C_21
    8  A    between atoms: C_21  and  C_24
                            x       y       z     vdW  Elec       q    Type
                         _______ _______ _______ _____ _____    ______ ____

>  <TORSDO>
F 8

$$$$
=
 OpenBabel11052410533D

 30 33  0  0  1  0  0  0  0  0999 V2000
  160.6750  208.2350  156.0200 N   0  0  0  0  0  0  0  0  0  0  0  0
  161.8490  205.5620  151.9970 C   0  0  0  0  0  2  0  0  0  0  0  0
  161.0990  205.6120  149.7120 N   0  0  0  0  0  0  0  0  0  0  0  0
  160.4060  209.1270  153.9060 C   0  0  0  0  0  0  0  0  0  0  0  0
  160.9530  207.8920  151.7960 C   0  0  0  0  0  0  0  0  0  0  0  0
  160.2160  209.4190  156.1330 N   0  0  0  0  0  2  0  0  0  0  0  0
  160.4510  209.1910  152.4130 C   0  0  0  0  0  3  0  0  0  0  0  0
  161.0150  207.9110  150.3880 O   0  0  0  0  0  0  0  0  0  0  0  0
  161.1800  206.8800  149.4410 C   0  0  0  0  0  0  0  0  0  0  0  0
  160.8220  207.9780  154.6360 C   0  0  0  0  0  0  0  0  0  0  0  0
  160.8330  205.0360  151.0150 C   0  0  1  0  0  3  0  0  0  0  0  0
  160.0370  210.0060  154.8340 C   0  0  0  0  0  0  0  0  0  0  0  0
  161.3370  206.8320  152.5710 C   0  0  0  0  0  0  0  0  0  0  0  0
  161.2680  206.8770  154.0530 C   0  0  0  0  0  3  0  0  0  0  0  0
  158.2300  212.9920  153.3480 C   0  0  0  0  0  3  0  0  0  0  0  0
  158.7030  211.6900  153.5290 C   0  0  0  0  0  3  0  0  0  0  0  0
  159.3950  213.6900  155.3520 C   0  0  0  0  0  3  0  0  0  0  0  0
  159.8680  212.3870  155.5300 C   0  0  0  0  0  3  0  0  0  0  0  0
  159.5260  211.3750  154.6220 C   0  0  0  0  0  0  0  0  0  0  0  0
  158.5770  213.9920  154.2600 C   0  0  0  0  0  3  0  0  0  0  0  0
  160.9080  203.5450  150.9350 C   0  0  0  0  0  3  0  0  0  0  0  0
  160.8560  202.8560  151.9430 O   0  0  0  0  0  0  0  0  0  0  0  0
  161.4560  207.2760  148.0360 C   0  0  0  0  0  2  0  0  0  0  0  0
  161.1490  206.1680  147.1480 N   0  0  0  0  0  2  0  0  0  0  0  0
  162.3720  205.8350  146.4390 C   0  0  0  0  0  2  0  0  0  0  0  0
  162.4470  204.3350  146.2150 C   0  0  0  0  0  2  0  0  0  0  0  0
  161.5580  203.6050  147.2090 C   0  0  0  0  0  2  0  0  0  0  0  0
  161.2210  202.2060  146.7180 C   0  0  0  0  0  3  0  0  0  0  0  0
  160.4310  201.5610  147.6690 O   0  0  0  0  0  1  0  0  0  0  0  0
  160.5230  202.2810  145.5130 O   0  0  0  0  0  1  0  0  0  0  0  0
  1  6  1  0  0  0  0
  2 13  1  0  0  0  0
  3 11  1  0  0  0  0
  4 10  1  0  0  0  0
  4 12  2  0  0  0  0
  5  7  2  0  0  0  0
  5 13  1  0  0  0  0
  7  4  1  0  0  0  0
  8  5  1  0  0  0  0
  9  3  2  0  0  0  0
  9  8  1  0  0  0  0
 10  1  2  0  0  0  0
 11 21  1  6  0  0  0
 11  2  1  0  0  0  0
 12  6  1  0  0  0  0
 13 14  2  0  0  0  0
 14 10  1  0  0  0  0
 15 16  2  0  0  0  0
 15 20  1  0  0  0  0
 16 19  1  0  0  0  0
 17 18  1  0  0  0  0
 19 12  1  0  0  0  0
 19 18  2  0  0  0  0
 20 17  2  0  0  0  0
 21 22  2  0  0  0  0
 23  9  1  0  0  0  0
 24 23  1  0  0  0  0
 25 24  1  0  0  0  0
 26 25  1  0  0  0  0
 26 27  1  0  0  0  0
 28 27  1  0  0  0  0
 28 29  1  0  0  0  0
 30 28  1  0  0  0  0
M  END
>  <MODEL>
6

>  <REMARK>
 VINA RESULT:      -7.9      1.193      1.699
  Name = 
  8 active torsions:
  status: ('A' for Active; 'I' for Inactive)
    1  A    between atoms: C_6  and  N_15
    2  A    between atoms: C_6  and  C_20
    3  A    between atoms: C_10  and  CA_23
    4  A    between atoms: C_14  and  C_25
    5  A    between atoms: N_15  and  C_19
    6  A    between atoms: C_18  and  C_19
    7  A    between atoms: C_18  and  C_21
    8  A    between atoms: C_21  and  C_24
                            x       y       z     vdW  Elec       q    Type
                         _______ _______ _______ _____ _____    ______ ____

>  <TORSDO>
F 8

$$$$
=
 OpenBabel11052410533D

 30 33  0  0  1  0  0  0  0  0999 V2000
  160.5760  207.8460  156.6860 N   0  0  0  0  0  0  0  0  0  0  0  0
  161.9220  205.7070  152.4060 C   0  0  0  0  0  2  0  0  0  0  0  0
  161.2180  206.0040  150.1250 N   0  0  0  0  0  0  0  0  0  0  0  0
  160.3200  208.9740  154.6860 C   0  0  0  0  0  0  0  0  0  0  0  0
  160.9520  208.0150  152.4590 C   0  0  0  0  0  0  0  0  0  0  0  0
  160.0750  208.9940  156.9270 N   0  0  0  0  0  2  0  0  0  0  0  0
  160.3930  209.2160  153.2130 C   0  0  0  0  0  3  0  0  0  0  0  0
  161.0410  208.2040  151.0640 O   0  0  0  0  0  0  0  0  0  0  0  0
  161.2610  207.2980  150.0080 C   0  0  0  0  0  0  0  0  0  0  0  0
  160.7600  207.7600  155.2850 C   0  0  0  0  0  0  0  0  0  0  0  0
  160.9450  205.2700  151.3440 C   0  0  1  0  0  3  0  0  0  0  0  0
  159.9030  209.7240  155.7020 C   0  0  0  0  0  0  0  0  0  0  0  0
  161.3550  206.8830  153.1120 C   0  0  0  0  0  0  0  0  0  0  0  0
  161.2550  206.7510  154.5870 C   0  0  0  0  0  3  0  0  0  0  0  0
  159.6060  213.5050  155.8110 C   0  0  0  0  0  3  0  0  0  0  0  0
  160.1510  212.2200  155.8750 C   0  0  0  0  0  3  0  0  0  0  0  0
  157.4440  212.5580  155.2750 C   0  0  0  0  0  3  0  0  0  0  0  0
  157.9910  211.2730  155.3400 C   0  0  0  0  0  3  0  0  0  0  0  0
  159.3490  211.0920  155.6400 C   0  0  0  0  0  0  0  0  0  0  0  0
  158.2510  213.6730  155.5110 C   0  0  0  0  0  3  0  0  0  0  0  0
  161.0720  203.8020  151.0910 C   0  0  0  0  0  3  0  0  0  0  0  0
  160.7380  203.3160  150.0200 O   0  0  0  0  0  0  0  0  0  0  0  0
  161.5520  207.8660  148.6660 C   0  0  0  0  0  2  0  0  0  0  0  0
  162.5320  207.0350  147.9860 N   0  0  0  0  0  2  0  0  0  0  0  0
  161.8550  206.4070  146.8650 C   0  0  0  0  0  2  0  0  0  0  0  0
  162.7100  205.2780  146.3140 C   0  0  0  0  0  2  0  0  0  0  0  0
  161.8300  204.1610  145.7760 C   0  0  0  0  0  2  0  0  0  0  0  0
  160.7900  204.7010  144.8080 C   0  0  0  0  0  3  0  0  0  0  0  0
  161.4330  205.3300  143.7420 O   0  0  0  0  0  1  0  0  0  0  0  0
  160.0050  203.6560  144.3220 O   0  0  0  0  0  1  0  0  0  0  0  0
  1  6  1  0  0  0  0
  2 13  1  0  0  0  0
  3 11  1  0  0  0  0
  4 10  1  0  0  0  0
  4 12  2  0  0  0  0
  5 13  1  0  0  0  0
  5  7  2  0  0  0  0
  7  4  1  0  0  0  0
  8  5  1  0  0  0  0
  9  3  2  0  0  0  0
  9  8  1  0  0  0  0
 10  1  2  0  0  0  0
 11 21  1  6  0  0  0
 11  2  1  0  0  0  0
 12  6  1  0  0  0  0
 13 14  2  0  0  0  0
 14 10  1  0  0  0  0
 15 16  1  0  0  0  0
 17 18  2  0  0  0  0
 17 20  1  0  0  0  0
 18 19  1  0  0  0  0
 19 12  1  0  0  0  0
 19 16  2  0  0  0  0
 20 15  2  0  0  0  0
 22 21  2  0  0  0  0
 23  9  1  0  0  0  0
 24 23  1  0  0  0  0
 25 24  1  0  0  0  0
 26 25  1  0  0  0  0
 27 26  1  0  0  0  0
 28 27  1  0  0  0  0
 29 28  1  0  0  0  0
 30 28  1  0  0  0  0
M  END
>  <MODEL>
7

>  <REMARK>
 VINA RESULT:      -7.8      1.674      2.143
  Name = 
  8 active torsions:
  status: ('A' for Active; 'I' for Inactive)
    1  A    between atoms: C_6  and  N_15
    2  A    between atoms: C_6  and  C_20
    3  A    between atoms: C_10  and  CA_23
    4  A    between atoms: C_14  and  C_25
    5  A    between atoms: N_15  and  C_19
    6  A    between atoms: C_18  and  C_19
    7  A    between atoms: C_18  and  C_21
    8  A    between atoms: C_21  and  C_24
                            x       y       z     vdW  Elec       q    Type
                         _______ _______ _______ _____ _____    ______ ____

>  <TORSDO>
F 8

$$$$
=
 OpenBabel11052410533D

 30 33  0  0  1  0  0  0  0  0999 V2000
  161.7730  210.0860  151.2610 N   0  0  0  0  0  0  0  0  0  0  0  0
  161.2850  206.3440  148.0260 C   0  0  0  0  0  2  0  0  0  0  0  0
  161.5460  203.9600  148.2150 N   0  0  0  0  0  0  0  0  0  0  0  0
  161.2620  207.9580  152.0050 C   0  0  0  0  0  0  0  0  0  0  0  0
  160.9910  205.9830  150.4870 C   0  0  0  0  0  0  0  0  0  0  0  0
  161.6620  210.1140  152.5310 N   0  0  0  0  0  2  0  0  0  0  0  0
  160.9490  206.4990  151.9200 C   0  0  0  0  0  3  0  0  0  0  0  0
  160.6970  204.6100  150.3620 O   0  0  0  0  0  0  0  0  0  0  0  0
  160.8600  203.7100  149.2900 C   0  0  0  0  0  0  0  0  0  0  0  0
  161.5320  208.7520  150.8540 C   0  0  0  0  0  0  0  0  0  0  0  0
  162.2520  205.1920  147.9250 C   0  0  1  0  0  3  0  0  0  0  0  0
  161.3420  208.8040  153.0280 C   0  0  0  0  0  0  0  0  0  0  0  0
  161.2580  206.8150  149.4330 C   0  0  0  0  0  0  0  0  0  0  0  0
  161.5400  208.2590  149.6260 C   0  0  0  0  0  3  0  0  0  0  0  0
  161.4130  209.0560  156.8130 C   0  0  0  0  0  3  0  0  0  0  0  0
  161.6150  209.3620  155.4650 C   0  0  0  0  0  3  0  0  0  0  0  0
  160.2590  207.0250  156.1780 C   0  0  0  0  0  3  0  0  0  0  0  0
  160.4630  207.3320  154.8290 C   0  0  0  0  0  3  0  0  0  0  0  0
  161.1410  208.5020  154.4600 C   0  0  0  0  0  0  0  0  0  0  0  0
  160.7350  207.8880  157.1690 C   0  0  0  0  0  3  0  0  0  0  0  0
  162.8440  205.1260  146.5530 C   0  0  0  0  0  3  0  0  0  0  0  0
  162.4100  205.8190  145.6460 O   0  0  0  0  0  0  0  0  0  0  0  0
  160.2100  202.3790  149.4070 C   0  0  0  0  0  2  0  0  0  0  0  0
  161.1620  201.4150  149.9320 N   0  0  0  0  0  2  0  0  0  0  0  0
  161.5810  200.5790  148.8210 C   0  0  0  0  0  2  0  0  0  0  0  0
  160.5330  200.6180  147.7230 C   0  0  0  0  0  2  0  0  0  0  0  0
  161.1680  201.0100  146.3980 C   0  0  0  0  0  2  0  0  0  0  0  0
  160.1860  201.7760  145.5260 C   0  0  0  0  0  3  0  0  0  0  0  0
  160.8320  202.8750  144.9600 O   0  0  0  0  0  1  0  0  0  0  0  0
  159.7080  200.9490  144.5100 O   0  0  0  0  0  1  0  0  0  0  0  0
  1  6  1  0  0  0  0
  2 13  1  0  0  0  0
  3  9  2  0  0  0  0
  4 12  2  0  0  0  0
  5  7  2  0  0  0  0
  6 12  1  0  0  0  0
  7  4  1  0  0  0  0
  8  5  1  0  0  0  0
  9 23  1  0  0  0  0
  9  8  1  0  0  0  0
 10  1  2  0  0  0  0
 10  4  1  0  0  0  0
 11 21  1  6  0  0  0
 11  2  1  0  0  0  0
 11  3  1  0  0  0  0
 12 19  1  0  0  0  0
 13 14  2  0  0  0  0
 13  5  1  0  0  0  0
 14 10  1  0  0  0  0
 15 20  1  0  0  0  0
 16 15  2  0  0  0  0
 17 20  2  0  0  0  0
 18 17  1  0  0  0  0
 19 18  2  0  0  0  0
 19 16  1  0  0  0  0
 22 21  2  0  0  0  0
 23 24  1  0  0  0  0
 25 24  1  0  0  0  0
 26 25  1  0  0  0  0
 27 26  1  0  0  0  0
 28 27  1  0  0  0  0
 29 28  1  0  0  0  0
 30 28  1  0  0  0  0
M  END
>  <MODEL>
8

>  <REMARK>
 VINA RESULT:      -7.7      2.274      3.772
  Name = 
  8 active torsions:
  status: ('A' for Active; 'I' for Inactive)
    1  A    between atoms: C_6  and  N_15
    2  A    between atoms: C_6  and  C_20
    3  A    between atoms: C_10  and  CA_23
    4  A    between atoms: C_14  and  C_25
    5  A    between atoms: N_15  and  C_19
    6  A    between atoms: C_18  and  C_19
    7  A    between atoms: C_18  and  C_21
    8  A    between atoms: C_21  and  C_24
                            x       y       z     vdW  Elec       q    Type
                         _______ _______ _______ _____ _____    ______ ____

>  <TORSDO>
F 8

$$$$
=
 OpenBabel11052410533D

 30 33  0  0  1  0  0  0  0  0999 V2000
  162.0840  207.0450  147.2180 N   0  0  0  0  0  0  0  0  0  0  0  0
  161.6970  209.2330  151.6640 C   0  0  0  0  0  2  0  0  0  0  0  0
  160.4470  208.7100  153.6520 N   0  0  0  0  0  0  0  0  0  0  0  0
  161.5020  205.8080  149.0810 C   0  0  0  0  0  0  0  0  0  0  0  0
  161.2660  206.7820  151.3770 C   0  0  0  0  0  0  0  0  0  0  0  0
  161.9140  205.8310  146.8650 N   0  0  0  0  0  0  0  0  0  0  0  0
  161.1990  205.5260  150.5170 C   0  0  0  0  0  3  0  0  0  0  0  0
  160.9920  206.5590  152.7420 O   0  0  0  0  0  0  0  0  0  0  0  0
  160.7140  207.4470  153.8010 C   0  0  0  0  0  0  0  0  0  0  0  0
  161.8410  207.1090  148.6110 C   0  0  1  0  0  3  0  0  0  0  0  0
  160.3900  209.4250  152.3920 C   0  0  1  0  0  3  0  0  0  0  0  0
  161.5510  205.0320  148.0020 C   0  0  0  0  0  0  0  0  0  0  0  0
  161.6030  207.9970  150.8460 C   0  0  0  0  0  0  0  0  0  0  0  0
  161.9020  208.1670  149.4020 C   0  0  0  0  0  3  0  0  0  0  0  0
  160.5540  201.6070  146.7100 C   0  0  0  0  0  3  0  0  0  0  0  0
  160.7940  202.9830  146.7570 C   0  0  0  0  0  3  0  0  0  0  0  0
  161.3030  201.4000  149.0030 C   0  0  0  0  0  3  0  0  0  0  0  0
  161.5410  202.7770  149.0490 C   0  0  0  0  0  3  0  0  0  0  0  0
  161.2900  203.5800  147.9270 C   0  0  0  0  0  0  0  0  0  0  0  0
  160.8090  200.8160  147.8330 C   0  0  0  0  0  3  0  0  0  0  0  0
  160.1420  210.8780  152.6450 C   0  0  0  0  0  3  0  0  0  0  0  0
  159.1320  211.2530  153.2210 O   0  0  0  0  0  0  0  0  0  0  0  0
  160.7190  206.8940  155.1800 C   0  0  0  0  0  2  0  0  0  0  0  0
  159.6500  207.5040  155.9530 N   0  0  0  0  0  2  0  0  0  0  0  0
  160.2190  207.8990  157.2300 C   0  0  0  0  0  2  0  0  0  0  0  0
  160.5350  209.3840  157.2150 C   0  0  0  0  0  2  0  0  0  0  0  0
  162.0380  209.6070  157.2610 C   0  0  0  0  0  2  0  0  0  0  0  0
  162.4630  210.6840  156.2740 C   0  0  0  0  0  3  0  0  0  0  0  0
  161.7610  211.8580  156.5430 O   0  0  0  0  0  1  0  0  0  0  0  0
  163.8310  210.9250  156.3950 O   0  0  0  0  0  1  0  0  0  0  0  0
  1 10  1  0  0  0  0
  2 11  1  0  0  0  0
  3  9  2  0  0  0  0
  4  7  1  0  0  0  0
  5  8  1  0  0  0  0
  6  1  2  0  0  0  0
  6 12  1  0  0  0  0
  7  5  2  0  0  0  0
  8  9  1  0  0  0  0
  9 23  1  0  0  0  0
 10  4  1  0  0  0  0
 10 14  1  1  0  0  0
 11 21  1  1  0  0  0
 11  3  1  0  0  0  0
 12  4  2  0  0  0  0
 13  5  1  0  0  0  0
 13  2  1  0  0  0  0
 14 13  2  0  0  0  0
 15 16  2  0  0  0  0
 15 20  1  0  0  0  0
 16 19  1  0  0  0  0
 17 18  1  0  0  0  0
 19 12  1  0  0  0  0
 19 18  2  0  0  0  0
 20 17  2  0  0  0  0
 21 22  2  0  0  0  0
 23 24  1  0  0  0  0
 24 25  1  0  0  0  0
 26 25  1  0  0  0  0
 26 27  1  0  0  0  0
 28 30  1  0  0  0  0
 28 29  1  0  0  0  0
 28 27  1  0  0  0  0
M  END
>  <MODEL>
9

>  <REMARK>
 VINA RESULT:      -7.4      3.036      9.541
  Name = 
  8 active torsions:
  status: ('A' for Active; 'I' for Inactive)
    1  A    between atoms: C_6  and  N_15
    2  A    between atoms: C_6  and  C_20
    3  A    between atoms: C_10  and  CA_23
    4  A    between atoms: C_14  and  C_25
    5  A    between atoms: N_15  and  C_19
    6  A    between atoms: C_18  and  C_19
    7  A    between atoms: C_18  and  C_21
    8  A    between atoms: C_21  and  C_24
                            x       y       z     vdW  Elec       q    Type
                         _______ _______ _______ _____ _____    ______ ____

>  <TORSDO>
F 8

$$$$
