=
 OpenBabel11042422173D

 52 55  0  0  1  0  0  0  0  0999 V2000
  160.1590  210.7440  153.7390 C   0  0  0  0  0  0  0  0  0  0  0  0
  162.3530  207.6340  151.4400 C   0  0  1  0  0  3  0  0  0  0  0  0
  161.0870  209.7200  155.6880 N   0  0  0  0  0  0  0  0  0  0  0  0
  160.0720  211.8360  155.8640 N   0  0  0  0  0  0  0  0  0  0  0  0
  159.9390  207.4640  151.1860 O   0  0  0  0  0  1  0  0  0  0  0  0
  162.1370  208.7090  152.4650 C   0  0  0  0  0  0  0  0  0  0  0  0
  161.0430  206.0270  153.6820 C   0  0  0  0  0  3  0  0  0  0  0  0
  161.0680  205.6180  152.2280 C   0  0  1  0  0  3  0  0  0  0  0  0
  161.1350  206.7420  151.2070 C   0  0  2  0  0  3  0  0  0  0  0  0
  159.7850  211.8290  154.5370 C   0  0  0  0  0  3  0  0  0  0  0  0
  162.7910  209.7850  152.3620 O   0  0  0  0  0  0  0  0  0  0  0  0
  161.1020  207.2400  154.2470 C   0  0  0  0  0  3  0  0  0  0  0  0
  160.8320  209.6660  154.3500 C   0  0  0  0  0  0  0  0  0  0  0  0
  161.2580  208.5160  153.5950 N   0  0  0  0  0  0  0  0  0  0  0  0
  160.7160  210.7890  156.4390 C   0  0  0  0  0  3  0  0  0  0  0  0
  162.9000  208.1260  150.2120 O   0  0  0  0  0  0  0  0  0  0  0  0
  161.5690  207.8240  148.1290 C   0  0  0  0  0  1  0  0  0  0  0  0
  161.9730  209.9450  149.1130 O   0  0  0  0  0  0  0  0  0  0  0  0
  162.1530  208.7010  149.1770 C   0  0  0  0  0  0  0  0  0  0  0  0
  159.7880  210.7350  152.2920 C   0  0  0  0  0  2  0  0  0  0  0  0
  160.4290  211.9070  151.5700 C   0  0  0  0  0  2  0  0  0  0  0  0
  159.4220  213.0340  151.4490 C   0  0  0  0  0  2  0  0  0  0  0  0
  159.5730  213.7010  150.1650 N   0  0  0  0  0  2  0  0  0  0  0  0
  158.5930  213.6130  149.1300 C   0  0  0  0  0  0  0  0  0  0  0  0
  157.4920  213.0370  149.3470 O   0  0  0  0  0  0  0  0  0  0  0  0
  158.8710  214.1790  147.8850 O   0  0  0  0  0  0  0  0  0  0  0  0
  158.2610  212.4930  145.7640 O   0  0  0  0  0  0  0  0  0  0  0  0
  160.4680  212.2260  147.1550 O   0  0  0  0  0  1  0  0  0  0  0  0
  159.5260  213.2660  146.5850 P   0  0  2  0  0  0  0  0  0  0  0  0
  160.3720  214.3240  145.5500 O   0  0  0  0  0  0  0  0  0  0  0  0
  160.5850  214.4450  142.7700 O   0  0  0  0  0  0  0  0  0  0  0  0
  160.7750  213.4640  144.1370 P   0  0  0  0  0  0  0  0  0  0  0  0
  162.3960  212.9900  144.2390 O   0  0  0  0  0  1  0  0  0  0  0  0
  159.9160  212.2250  143.9990 O   0  0  0  0  0  1  0  0  0  0  0  0
  162.1790  204.6090  151.9730 C   0  0  0  0  0  2  0  0  0  0  0  0
  160.8430  203.2730  150.4870 N   0  0  0  0  0  0  0  0  0  0  0  0
  161.6240  203.3060  151.5150 C   0  0  0  0  0  3  0  0  0  0  0  0
  160.0390  201.0890  150.7600 O   0  0  0  0  0  0  0  0  0  0  0  0
  160.2720  202.0600  149.9900 C   0  0  0  0  0  0  0  0  0  0  0  0
  159.9180  201.9620  148.5420 C   0  0  0  0  0  2  0  0  0  0  0  0
  161.2640  200.1310  147.8000 O   0  0  0  0  0  1  0  0  0  0  0  0
  160.8820  201.8450  146.3070 O   0  0  0  0  0  0  0  0  0  0  0  0
  161.1030  201.5120  147.6830 C   0  0  1  0  0  0  0  0  0  0  0  0
  161.3930  205.5420  143.9730 N   0  0  0  0  0  0  0  0  0  0  0  0
  162.3700  202.2030  148.1960 C   0  0  0  0  0  2  0  0  0  0  0  0
  162.4510  205.6520  144.7150 C   0  0  0  0  0  3  0  0  0  0  0  0
  162.3810  203.5910  147.8500 O   0  0  0  0  0  0  0  0  0  0  0  0
  160.1290  204.9840  144.4210 C   0  0  0  0  0  2  0  0  0  0  0  0
  161.9880  204.0220  146.5810 C   0  0  0  0  0  0  0  0  0  0  0  0
  160.2610  203.5600  144.8390 C   0  0  0  0  0  3  0  0  0  0  0  0
  162.5870  205.1090  146.0810 C   0  0  0  0  0  3  0  0  0  0  0  0
  161.0370  203.1540  145.8440 C   0  0  0  0  0  0  0  0  0  0  0  0
  1 13  2  0  0  0  0
  1 10  1  0  0  0  0
  2 16  1  6  0  0  0
  2  6  1  0  0  0  0
  3 15  2  0  0  0  0
  4 15  1  0  0  0  0
  6 14  1  0  0  0  0
  7 12  2  0  0  0  0
  8 35  1  1  0  0  0
  8  7  1  0  0  0  0
  9  5  1  1  0  0  0
  9  2  1  0  0  0  0
  9  8  1  0  0  0  0
 10  4  2  0  0  0  0
 11  6  2  0  0  0  0
 13  3  1  0  0  0  0
 14 12  1  0  0  0  0
 14 13  1  0  0  0  0
 17 19  1  0  0  0  0
 18 19  2  0  0  0  0
 19 16  1  0  0  0  0
 20  1  1  0  0  0  0
 21 20  1  0  0  0  0
 22 21  1  0  0  0  0
 23 22  1  0  0  0  0
 24 25  2  0  0  0  0
 24 23  1  0  0  0  0
 26 24  1  0  0  0  0
 29 27  2  6  0  0  0
 29 28  1  0  0  0  0
 29 26  1  0  0  0  0
 30 29  1  0  0  0  0
 31 32  2  0  0  0  0
 32 33  1  0  0  0  0
 32 30  1  0  0  0  0
 34 32  1  0  0  0  0
 36 37  2  0  0  0  0
 37 35  1  0  0  0  0
 39 36  1  0  0  0  0
 39 38  2  0  0  0  0
 40 39  1  0  0  0  0
 42 43  1  0  0  0  0
 43 41  1  1  0  0  0
 43 45  1  0  0  0  0
 43 40  1  0  0  0  0
 44 48  1  0  0  0  0
 44 46  2  0  0  0  0
 46 51  1  0  0  0  0
 47 45  1  0  0  0  0
 48 50  1  0  0  0  0
 49 47  1  0  0  0  0
 50 52  2  0  0  0  0
 51 49  2  0  0  0  0
 52 42  1  0  0  0  0
 52 49  1  0  0  0  0
M  END
>  <MODEL>
1

>  <REMARK>
 VINA RESULT:      -5.6      0.000      0.000
  Name = 
  15 active torsions:
  status: ('A' for Active; 'I' for Inactive)
    1  A    between atoms: C_1  and  C_22
    2  A    between atoms: C_2  and  O_13
    3  A    between atoms: C_6  and  C_45
    4  A    between atoms: N_11  and  C_21
    5  A    between atoms: O_12  and  P_18
    6  A    between atoms: O_12  and  P_31
    7  A    between atoms: O_13  and  C_49
    8  A    between atoms: C_16  and  O_34
    9  A    between atoms: C_21  and  C_25
   10  A    between atoms: C_22  and  C_25
   11  A    between atoms: N_29  and  C_41
   12  A    between atoms: C_30  and  C_44
   13  A    between atoms: P_31  and  O_34
   14  A    between atoms: C_41  and  C_45
   15  A    between atoms: C_44  and  C_52
                            x       y       z     vdW  Elec       q    Type
                         _______ _______ _______ _____ _____    ______ ____

>  <TORSDO>
F 15

$$$$
=
 OpenBabel11042422173D

 52 55  0  0  1  0  0  0  0  0999 V2000
  161.9230  204.5830  147.6830 C   0  0  0  0  0  0  0  0  0  0  0  0
  160.7310  206.9200  151.2740 C   0  0  1  0  0  3  0  0  0  0  0  0
  160.4170  202.9080  148.4800 N   0  0  0  0  0  0  0  0  0  0  0  0
  161.2520  202.7650  146.2840 N   0  0  0  0  0  0  0  0  0  0  0  0
  163.0910  206.3290  151.2770 O   0  0  0  0  0  1  0  0  0  0  0  0
  160.5540  206.0780  150.0430 C   0  0  0  0  0  0  0  0  0  0  0  0
  161.2450  204.1340  152.4140 C   0  0  0  0  0  3  0  0  0  0  0  0
  161.7270  205.4230  153.0350 C   0  0  1  0  0  3  0  0  0  0  0  0
  161.9800  206.5830  152.0850 C   0  0  2  0  0  3  0  0  0  0  0  0
  161.9730  203.9020  146.4640 C   0  0  0  0  0  3  0  0  0  0  0  0
  159.9440  206.5710  149.0530 O   0  0  0  0  0  0  0  0  0  0  0  0
  160.9630  203.8330  151.1390 C   0  0  0  0  0  3  0  0  0  0  0  0
  161.1140  204.0570  148.7110 C   0  0  0  0  0  0  0  0  0  0  0  0
  161.0020  204.7050  149.9920 N   0  0  0  0  0  0  0  0  0  0  0  0
  160.4810  202.2680  147.2840 C   0  0  0  0  0  3  0  0  0  0  0  0
  160.6200  208.3240  151.0170 O   0  0  0  0  0  0  0  0  0  0  0  0
  162.1090  209.8460  152.3090 C   0  0  0  0  0  1  0  0  0  0  0  0
  159.7540  209.7900  152.5910 O   0  0  0  0  0  0  0  0  0  0  0  0
  160.7550  209.3270  151.9850 C   0  0  0  0  0  0  0  0  0  0  0  0
  162.7640  205.8030  147.8770 C   0  0  0  0  0  2  0  0  0  0  0  0
  161.9840  207.0530  147.5090 C   0  0  0  0  0  2  0  0  0  0  0  0
  162.5310  208.2340  148.2860 C   0  0  0  0  0  2  0  0  0  0  0  0
  162.0330  209.4770  147.7200 N   0  0  0  0  0  2  0  0  0  0  0  0
  161.9530  210.6890  148.4700 C   0  0  0  0  0  0  0  0  0  0  0  0
  162.4290  210.7460  149.6360 O   0  0  0  0  0  0  0  0  0  0  0  0
  161.3480  211.8050  147.8900 O   0  0  0  0  0  0  0  0  0  0  0  0
  163.8550  213.0020  147.9200 O   0  0  0  0  0  0  0  0  0  0  0  0
  161.6560  214.3820  148.2960 O   0  0  0  0  0  1  0  0  0  0  0  0
  162.2280  213.2290  147.4990 P   0  0  2  0  0  0  0  0  0  0  0  0
  162.0640  213.5280  145.8290 O   0  0  0  0  0  0  0  0  0  0  0  0
  159.4260  214.4000  146.0970 O   0  0  0  0  0  1  0  0  0  0  0  0
  160.4400  213.2360  145.4020 P   0  0  0  0  0  0  0  0  0  0  0  0
  160.3000  213.3340  143.7190 O   0  0  0  0  0  0  0  0  0  0  0  0
  160.0090  211.8540  145.8450 O   0  0  0  0  0  1  0  0  0  0  0  0
  160.7990  205.8580  154.1600 C   0  0  0  0  0  2  0  0  0  0  0  0
  160.7360  207.4800  155.9340 N   0  0  0  0  0  0  0  0  0  0  0  0
  161.4150  206.9390  154.9760 C   0  0  0  0  0  3  0  0  0  0  0  0
  162.4200  208.4410  157.2500 O   0  0  0  0  0  0  0  0  0  0  0  0
  161.2610  208.5220  156.7590 C   0  0  0  0  0  0  0  0  0  0  0  0
  160.4300  209.7380  157.0130 C   0  0  0  0  0  2  0  0  0  0  0  0
  161.9130  210.5850  155.3400 O   0  0  0  0  0  1  0  0  0  0  0  0
  159.6570  210.9680  155.0570 O   0  0  0  0  0  0  0  0  0  0  0  0
  160.7210  210.8590  156.0110 C   0  0  1  0  0  0  0  0  0  0  0  0
  155.7090  212.9130  155.1430 N   0  0  0  0  0  0  0  0  0  0  0  0
  160.8770  212.1750  156.7810 C   0  0  0  0  0  2  0  0  0  0  0  0
  156.3710  213.8240  155.7880 C   0  0  0  0  0  3  0  0  0  0  0  0
  159.6160  212.6490  157.2600 O   0  0  0  0  0  0  0  0  0  0  0  0
  155.9590  211.4860  155.2470 C   0  0  0  0  0  2  0  0  0  0  0  0
  158.4760  212.6080  156.4540 C   0  0  0  0  0  0  0  0  0  0  0  0
  157.3360  211.1240  154.8030 C   0  0  0  0  0  3  0  0  0  0  0  0
  157.5630  213.5730  156.6210 C   0  0  0  0  0  3  0  0  0  0  0  0
  158.4440  211.5750  155.3910 C   0  0  0  0  0  0  0  0  0  0  0  0
  1 20  1  0  0  0  0
  1 13  1  0  0  0  0
  2 16  1  6  0  0  0
  2  9  1  0  0  0  0
  3 13  2  0  0  0  0
  4 10  1  0  0  0  0
  4 15  2  0  0  0  0
  6  2  1  0  0  0  0
  7  8  1  0  0  0  0
  8 35  1  1  0  0  0
  9  5  1  6  0  0  0
  9  8  1  0  0  0  0
 10  1  2  0  0  0  0
 11  6  2  0  0  0  0
 12  7  2  0  0  0  0
 13 14  1  0  0  0  0
 14  6  1  0  0  0  0
 14 12  1  0  0  0  0
 15  3  1  0  0  0  0
 16 19  1  0  0  0  0
 19 17  1  0  0  0  0
 19 18  2  0  0  0  0
 21 20  1  0  0  0  0
 21 22  1  0  0  0  0
 23 22  1  0  0  0  0
 23 24  1  0  0  0  0
 24 25  2  0  0  0  0
 26 24  1  0  0  0  0
 29 26  1  0  0  0  0
 29 27  2  1  0  0  0
 29 28  1  0  0  0  0
 30 29  1  0  0  0  0
 32 30  1  0  0  0  0
 32 34  1  0  0  0  0
 32 31  1  0  0  0  0
 33 32  2  0  0  0  0
 35 37  1  0  0  0  0
 36 39  1  0  0  0  0
 37 36  2  0  0  0  0
 39 40  1  0  0  0  0
 39 38  2  0  0  0  0
 42 52  1  0  0  0  0
 42 43  1  0  0  0  0
 43 41  1  6  0  0  0
 43 45  1  0  0  0  0
 43 40  1  0  0  0  0
 44 48  1  0  0  0  0
 44 46  2  0  0  0  0
 45 47  1  0  0  0  0
 46 51  1  0  0  0  0
 49 51  2  0  0  0  0
 49 47  1  0  0  0  0
 50 48  1  0  0  0  0
 50 52  2  0  0  0  0
 52 49  1  0  0  0  0
M  END
>  <MODEL>
2

>  <REMARK>
 VINA RESULT:      -5.2      2.626      8.509
  Name = 
  15 active torsions:
  status: ('A' for Active; 'I' for Inactive)
    1  A    between atoms: C_1  and  C_22
    2  A    between atoms: C_2  and  O_13
    3  A    between atoms: C_6  and  C_45
    4  A    between atoms: N_11  and  C_21
    5  A    between atoms: O_12  and  P_18
    6  A    between atoms: O_12  and  P_31
    7  A    between atoms: O_13  and  C_49
    8  A    between atoms: C_16  and  O_34
    9  A    between atoms: C_21  and  C_25
   10  A    between atoms: C_22  and  C_25
   11  A    between atoms: N_29  and  C_41
   12  A    between atoms: C_30  and  C_44
   13  A    between atoms: P_31  and  O_34
   14  A    between atoms: C_41  and  C_45
   15  A    between atoms: C_44  and  C_52
                            x       y       z     vdW  Elec       q    Type
                         _______ _______ _______ _____ _____    ______ ____

>  <TORSDO>
F 15

$$$$
=
 OpenBabel11042422173D

 52 55  0  0  1  0  0  0  0  0999 V2000
  160.3690  211.1130  153.8580 C   0  0  0  0  0  0  0  0  0  0  0  0
  162.2450  207.8180  151.5350 C   0  0  1  0  0  3  0  0  0  0  0  0
  161.2940  210.0540  155.7890 N   0  0  0  0  0  0  0  0  0  0  0  0
  160.4400  212.2400  155.9640 N   0  0  0  0  0  0  0  0  0  0  0  0
  159.8180  207.8190  151.3730 O   0  0  0  0  0  1  0  0  0  0  0  0
  162.1460  208.9210  152.5480 C   0  0  0  0  0  0  0  0  0  0  0  0
  160.9090  206.3440  153.8520 C   0  0  0  0  0  3  0  0  0  0  0  0
  160.8490  205.9120  152.4060 C   0  0  1  0  0  3  0  0  0  0  0  0
  160.9590  207.0130  151.3630 C   0  0  2  0  0  3  0  0  0  0  0  0
  160.1040  212.2340  154.6490 C   0  0  0  0  0  3  0  0  0  0  0  0
  162.8720  209.9450  152.4030 O   0  0  0  0  0  0  0  0  0  0  0  0
  161.0760  207.5580  154.3930 C   0  0  0  0  0  3  0  0  0  0  0  0
  160.9850  209.9980  154.4620 C   0  0  0  0  0  0  0  0  0  0  0  0
  161.2990  208.8090  153.7130 N   0  0  0  0  0  0  0  0  0  0  0  0
  161.0280  211.1580  156.5340 C   0  0  0  0  0  3  0  0  0  0  0  0
  162.7800  208.2500  150.2800 O   0  0  0  0  0  0  0  0  0  0  0  0
  161.5570  207.6920  148.1830 C   0  0  0  0  0  1  0  0  0  0  0  0
  161.7120  209.8980  149.0470 O   0  0  0  0  0  0  0  0  0  0  0  0
  162.0140  208.6840  149.1910 C   0  0  0  0  0  0  0  0  0  0  0  0
  159.9440  211.1090  152.4250 C   0  0  0  0  0  2  0  0  0  0  0  0
  160.6010  212.2510  151.6700 C   0  0  0  0  0  2  0  0  0  0  0  0
  159.5350  213.0730  150.9740 C   0  0  0  0  0  2  0  0  0  0  0  0
  158.4760  213.4120  151.9110 N   0  0  0  0  0  2  0  0  0  0  0  0
  157.2130  213.9320  151.4940 C   0  0  0  0  0  0  0  0  0  0  0  0
  156.9320  214.0050  150.2670 O   0  0  0  0  0  0  0  0  0  0  0  0
  156.2990  214.3490  152.4620 O   0  0  0  0  0  0  0  0  0  0  0  0
  154.8630  214.2110  154.8360 O   0  0  0  0  0  1  0  0  0  0  0  0
  157.4840  214.1320  154.7960 O   0  0  0  0  0  0  0  0  0  0  0  0
  156.2570  213.6680  154.0400 P   0  0  2  0  0  0  0  0  0  0  0  0
  156.2590  211.9690  153.8980 O   0  0  0  0  0  0  0  0  0  0  0  0
  154.9800  210.0090  155.4190 O   0  0  0  0  0  0  0  0  0  0  0  0
  156.0600  211.3130  155.4570 P   0  0  0  0  0  0  0  0  0  0  0  0
  157.5610  210.7530  156.0020 O   0  0  0  0  0  1  0  0  0  0  0  0
  155.5560  212.3650  156.4220 O   0  0  0  0  0  1  0  0  0  0  0  0
  161.8750  204.8220  152.1280 C   0  0  0  0  0  2  0  0  0  0  0  0
  161.1640  203.2660  150.4390 N   0  0  0  0  0  0  0  0  0  0  0  0
  161.2120  203.5610  151.6960 C   0  0  0  0  0  3  0  0  0  0  0  0
  160.3660  201.0790  150.7020 O   0  0  0  0  0  0  0  0  0  0  0  0
  160.5440  202.0740  149.9490 C   0  0  0  0  0  0  0  0  0  0  0  0
  160.0740  202.0280  148.5320 C   0  0  0  0  0  2  0  0  0  0  0  0
  161.2620  200.1450  147.6640 O   0  0  0  0  0  1  0  0  0  0  0  0
  160.8450  201.8980  146.2250 O   0  0  0  0  0  0  0  0  0  0  0  0
  161.1610  201.5340  147.5740 C   0  0  1  0  0  0  0  0  0  0  0  0
  161.3490  205.5990  143.8960 N   0  0  0  0  0  0  0  0  0  0  0  0
  162.4990  202.1550  147.9890 C   0  0  0  0  0  2  0  0  0  0  0  0
  162.4680  205.6460  144.5500 C   0  0  0  0  0  3  0  0  0  0  0  0
  162.5500  203.5460  147.6590 O   0  0  0  0  0  0  0  0  0  0  0  0
  160.0990  205.0970  144.4400 C   0  0  0  0  0  2  0  0  0  0  0  0
  162.0770  204.0140  146.4300 C   0  0  0  0  0  0  0  0  0  0  0  0
  160.1940  203.6610  144.8310 C   0  0  0  0  0  3  0  0  0  0  0  0
  162.6870  205.0780  145.8950 C   0  0  0  0  0  3  0  0  0  0  0  0
  161.0280  203.2040  145.7640 C   0  0  0  0  0  0  0  0  0  0  0  0
  1 13  2  0  0  0  0
  1 10  1  0  0  0  0
  2 16  1  6  0  0  0
  2  6  1  0  0  0  0
  3 15  2  0  0  0  0
  4 15  1  0  0  0  0
  6 14  1  0  0  0  0
  7 12  2  0  0  0  0
  8 35  1  6  0  0  0
  8  7  1  0  0  0  0
  9  5  1  1  0  0  0
  9  2  1  0  0  0  0
  9  8  1  0  0  0  0
 10  4  2  0  0  0  0
 11  6  2  0  0  0  0
 13  3  1  0  0  0  0
 14 12  1  0  0  0  0
 14 13  1  0  0  0  0
 17 19  1  0  0  0  0
 18 19  2  0  0  0  0
 19 16  1  0  0  0  0
 20  1  1  0  0  0  0
 21 20  1  0  0  0  0
 22 21  1  0  0  0  0
 22 23  1  0  0  0  0
 24 23  1  0  0  0  0
 24 26  1  0  0  0  0
 25 24  2  0  0  0  0
 26 29  1  0  0  0  0
 29 28  2  1  0  0  0
 29 27  1  0  0  0  0
 30 29  1  0  0  0  0
 30 32  1  0  0  0  0
 31 32  2  0  0  0  0
 32 33  1  0  0  0  0
 32 34  1  0  0  0  0
 36 37  2  0  0  0  0
 37 35  1  0  0  0  0
 39 36  1  0  0  0  0
 39 38  2  0  0  0  0
 40 39  1  0  0  0  0
 42 43  1  0  0  0  0
 43 41  1  1  0  0  0
 43 45  1  0  0  0  0
 43 40  1  0  0  0  0
 44 48  1  0  0  0  0
 44 46  2  0  0  0  0
 46 51  1  0  0  0  0
 47 45  1  0  0  0  0
 48 50  1  0  0  0  0
 49 47  1  0  0  0  0
 50 52  2  0  0  0  0
 51 49  2  0  0  0  0
 52 42  1  0  0  0  0
 52 49  1  0  0  0  0
M  END
>  <MODEL>
3

>  <REMARK>
 VINA RESULT:      -4.9      2.861      4.554
  Name = 
  15 active torsions:
  status: ('A' for Active; 'I' for Inactive)
    1  A    between atoms: C_1  and  C_22
    2  A    between atoms: C_2  and  O_13
    3  A    between atoms: C_6  and  C_45
    4  A    between atoms: N_11  and  C_21
    5  A    between atoms: O_12  and  P_18
    6  A    between atoms: O_12  and  P_31
    7  A    between atoms: O_13  and  C_49
    8  A    between atoms: C_16  and  O_34
    9  A    between atoms: C_21  and  C_25
   10  A    between atoms: C_22  and  C_25
   11  A    between atoms: N_29  and  C_41
   12  A    between atoms: C_30  and  C_44
   13  A    between atoms: P_31  and  O_34
   14  A    between atoms: C_41  and  C_45
   15  A    between atoms: C_44  and  C_52
                            x       y       z     vdW  Elec       q    Type
                         _______ _______ _______ _____ _____    ______ ____

>  <TORSDO>
F 15

$$$$
=
 OpenBabel11042422173D

 52 55  0  0  1  0  0  0  0  0999 V2000
  160.5730  202.8870  149.1480 C   0  0  0  0  0  0  0  0  0  0  0  0
  162.2690  206.1220  146.6120 C   0  0  1  0  0  3  0  0  0  0  0  0
  161.7060  201.3760  147.6860 N   0  0  0  0  0  0  0  0  0  0  0  0
  160.8330  200.5820  149.7230 N   0  0  0  0  0  0  0  0  0  0  0  0
  159.8380  206.0550  146.5490 O   0  0  0  0  0  1  0  0  0  0  0  0
  162.2510  204.8610  147.4260 C   0  0  0  0  0  0  0  0  0  0  0  0
  161.2000  204.1340  144.5560 C   0  0  0  0  0  3  0  0  0  0  0  0
  161.0040  205.6300  144.4920 C   0  0  1  0  0  3  0  0  0  0  0  0
  160.9870  206.3710  145.8200 C   0  0  2  0  0  3  0  0  0  0  0  0
  160.3670  201.8210  150.0270 C   0  0  0  0  0  3  0  0  0  0  0  0
  162.9390  204.8130  148.4850 O   0  0  0  0  0  0  0  0  0  0  0  0
  161.3970  203.3250  145.6050 C   0  0  0  0  0  3  0  0  0  0  0  0
  161.2670  202.6400  147.9460 C   0  0  0  0  0  0  0  0  0  0  0  0
  161.5260  203.6890  146.9930 N   0  0  0  0  0  0  0  0  0  0  0  0
  161.4960  200.3570  148.5600 C   0  0  0  0  0  3  0  0  0  0  0  0
  162.6670  207.2740  147.3640 O   0  0  0  0  0  0  0  0  0  0  0  0
  162.1530  209.3730  148.6010 C   0  0  0  0  0  1  0  0  0  0  0  0
  160.8740  207.3870  148.8300 O   0  0  0  0  0  0  0  0  0  0  0  0
  161.8510  207.9550  148.2760 C   0  0  0  0  0  0  0  0  0  0  0  0
  160.0070  204.2300  149.4790 C   0  0  0  0  0  2  0  0  0  0  0  0
  160.1110  204.5000  150.9700 C   0  0  0  0  0  2  0  0  0  0  0  0
  161.4380  205.1700  151.2680 C   0  0  0  0  0  2  0  0  0  0  0  0
  161.2140  206.4680  151.8820 N   0  0  0  0  0  2  0  0  0  0  0  0
  161.1030  206.6460  153.2950 C   0  0  0  0  0  0  0  0  0  0  0  0
  161.3160  205.6770  154.0730 O   0  0  0  0  0  0  0  0  0  0  0  0
  160.7650  207.9040  153.7950 O   0  0  0  0  0  0  0  0  0  0  0  0
  161.9770  208.0700  156.2890 O   0  0  0  0  0  1  0  0  0  0  0  0
  159.5480  207.1290  155.9890 O   0  0  0  0  0  0  0  0  0  0  0  0
  160.4980  208.1860  155.4690 P   0  0  2  0  0  0  0  0  0  0  0  0
  159.8140  209.7370  155.6550 O   0  0  0  0  0  0  0  0  0  0  0  0
  160.0400  210.4500  152.9660 O   0  0  0  0  0  0  0  0  0  0  0  0
  160.5700  210.7800  154.5410 P   0  0  0  0  0  0  0  0  0  0  0  0
  160.1550  212.3730  154.9270 O   0  0  0  0  0  1  0  0  0  0  0  0
  162.0760  210.6410  154.6120 O   0  0  0  0  0  1  0  0  0  0  0  0
  162.0160  206.2650  143.5500 C   0  0  0  0  0  2  0  0  0  0  0  0
  162.1790  206.8890  141.2340 N   0  0  0  0  0  0  0  0  0  0  0  0
  161.5240  206.2490  142.1450 C   0  0  0  0  0  3  0  0  0  0  0  0
  162.2270  206.0940  139.0310 O   0  0  0  0  0  0  0  0  0  0  0  0
  161.7680  206.9200  139.8650 C   0  0  0  0  0  0  0  0  0  0  0  0
  160.7550  207.9280  139.4310 C   0  0  0  0  0  2  0  0  0  0  0  0
  162.2930  208.7930  137.8190 O   0  0  0  0  0  1  0  0  0  0  0  0
  160.4000  210.0340  138.2570 O   0  0  0  0  0  0  0  0  0  0  0  0
  161.4000  209.1760  138.8210 C   0  0  1  0  0  0  0  0  0  0  0  0
  157.6840  213.0410  139.9750 N   0  0  0  0  0  0  0  0  0  0  0  0
  162.1730  209.9140  139.9170 C   0  0  0  0  0  2  0  0  0  0  0  0
  158.7270  213.3100  140.6980 C   0  0  0  0  0  3  0  0  0  0  0  0
  161.2850  210.5680  140.8290 O   0  0  0  0  0  0  0  0  0  0  0  0
  157.3110  211.7080  139.5330 C   0  0  0  0  0  2  0  0  0  0  0  0
  160.1660  211.2670  140.3690 C   0  0  0  0  0  0  0  0  0  0  0  0
  158.3530  211.0940  138.6630 C   0  0  0  0  0  3  0  0  0  0  0  0
  159.7720  212.3360  141.0710 C   0  0  0  0  0  3  0  0  0  0  0  0
  159.5980  210.8400  139.0670 C   0  0  0  0  0  0  0  0  0  0  0  0
  1 20  1  0  0  0  0
  1 10  1  0  0  0  0
  2 16  1  1  0  0  0
  2  6  1  0  0  0  0
  3 13  1  0  0  0  0
  3 15  2  0  0  0  0
  4 10  2  0  0  0  0
  6 11  2  0  0  0  0
  7 12  2  0  0  0  0
  8 35  1  6  0  0  0
  8  7  1  0  0  0  0
  8  9  1  0  0  0  0
  9  5  1  1  0  0  0
  9  2  1  0  0  0  0
 12 14  1  0  0  0  0
 13  1  2  0  0  0  0
 14  6  1  0  0  0  0
 14 13  1  0  0  0  0
 15  4  1  0  0  0  0
 16 19  1  0  0  0  0
 19 17  1  0  0  0  0
 19 18  2  0  0  0  0
 20 21  1  0  0  0  0
 21 22  1  0  0  0  0
 22 23  1  0  0  0  0
 23 24  1  0  0  0  0
 24 26  1  0  0  0  0
 24 25  2  0  0  0  0
 26 29  1  0  0  0  0
 29 30  1  0  0  0  0
 29 28  2  1  0  0  0
 29 27  1  0  0  0  0
 31 32  2  0  0  0  0
 32 34  1  0  0  0  0
 32 33  1  0  0  0  0
 32 30  1  0  0  0  0
 36 37  2  0  0  0  0
 37 35  1  0  0  0  0
 38 39  2  0  0  0  0
 39 36  1  0  0  0  0
 40 39  1  0  0  0  0
 42 43  1  0  0  0  0
 42 52  1  0  0  0  0
 43 41  1  6  0  0  0
 43 40  1  0  0  0  0
 43 45  1  0  0  0  0
 44 46  2  0  0  0  0
 45 47  1  0  0  0  0
 46 51  1  0  0  0  0
 48 44  1  0  0  0  0
 49 47  1  0  0  0  0
 49 51  2  0  0  0  0
 50 52  2  0  0  0  0
 50 48  1  0  0  0  0
 52 49  1  0  0  0  0
M  END
>  <MODEL>
4

>  <REMARK>
 VINA RESULT:      -4.8      4.861      9.474
  Name = 
  15 active torsions:
  status: ('A' for Active; 'I' for Inactive)
    1  A    between atoms: C_1  and  C_22
    2  A    between atoms: C_2  and  O_13
    3  A    between atoms: C_6  and  C_45
    4  A    between atoms: N_11  and  C_21
    5  A    between atoms: O_12  and  P_18
    6  A    between atoms: O_12  and  P_31
    7  A    between atoms: O_13  and  C_49
    8  A    between atoms: C_16  and  O_34
    9  A    between atoms: C_21  and  C_25
   10  A    between atoms: C_22  and  C_25
   11  A    between atoms: N_29  and  C_41
   12  A    between atoms: C_30  and  C_44
   13  A    between atoms: P_31  and  O_34
   14  A    between atoms: C_41  and  C_45
   15  A    between atoms: C_44  and  C_52
                            x       y       z     vdW  Elec       q    Type
                         _______ _______ _______ _____ _____    ______ ____

>  <TORSDO>
F 15

$$$$
=
 OpenBabel11042422173D

 52 55  0  0  1  0  0  0  0  0999 V2000
  160.5790  202.8720  149.1400 C   0  0  0  0  0  0  0  0  0  0  0  0
  162.2880  206.1070  146.6120 C   0  0  1  0  0  3  0  0  0  0  0  0
  161.7050  201.3600  147.6730 N   0  0  0  0  0  0  0  0  0  0  0  0
  160.8300  200.5640  149.7080 N   0  0  0  0  0  0  0  0  0  0  0  0
  159.8570  206.0500  146.5500 O   0  0  0  0  0  1  0  0  0  0  0  0
  162.2660  204.8430  147.4230 C   0  0  0  0  0  0  0  0  0  0  0  0
  161.2090  204.1290  144.5510 C   0  0  0  0  0  3  0  0  0  0  0  0
  161.0200  205.6270  144.4920 C   0  0  1  0  0  3  0  0  0  0  0  0
  161.0070  206.3640  145.8220 C   0  0  2  0  0  3  0  0  0  0  0  0
  160.3700  201.8040  150.0160 C   0  0  0  0  0  3  0  0  0  0  0  0
  162.9540  204.7890  148.4810 O   0  0  0  0  0  0  0  0  0  0  0  0
  161.4030  203.3160  145.5970 C   0  0  0  0  0  3  0  0  0  0  0  0
  161.2720  202.6250  147.9370 C   0  0  0  0  0  0  0  0  0  0  0  0
  161.5350  203.6750  146.9870 N   0  0  0  0  0  0  0  0  0  0  0  0
  161.4910  200.3400  148.5440 C   0  0  0  0  0  3  0  0  0  0  0  0
  162.6920  207.2540  147.3670 O   0  0  0  0  0  0  0  0  0  0  0  0
  162.1620  209.3800  148.5510 C   0  0  0  0  0  1  0  0  0  0  0  0
  160.9020  207.3890  148.8340 O   0  0  0  0  0  0  0  0  0  0  0  0
  161.8730  207.9510  148.2630 C   0  0  0  0  0  0  0  0  0  0  0  0
  160.0200  204.2170  149.4760 C   0  0  0  0  0  2  0  0  0  0  0  0
  160.0550  204.4500  150.9760 C   0  0  0  0  0  2  0  0  0  0  0  0
  161.2010  205.3830  151.3120 C   0  0  0  0  0  2  0  0  0  0  0  0
  160.9010  206.1220  152.5280 N   0  0  0  0  0  2  0  0  0  0  0  0
  161.3430  207.4630  152.7460 C   0  0  0  0  0  0  0  0  0  0  0  0
  161.9200  208.0970  151.8220 O   0  0  0  0  0  0  0  0  0  0  0  0
  161.1190  208.0560  153.9890 O   0  0  0  0  0  0  0  0  0  0  0  0
  162.1470  210.6220  154.2570 O   0  0  0  0  0  0  0  0  0  0  0  0
  159.9160  209.8950  155.4280 O   0  0  0  0  0  1  0  0  0  0  0  0
  160.7170  209.7190  154.1550 P   0  0  2  0  0  0  0  0  0  0  0  0
  159.7890  210.1900  152.8040 O   0  0  0  0  0  0  0  0  0  0  0  0
  159.9320  212.6020  154.2000 O   0  0  0  0  0  1  0  0  0  0  0  0
  158.9670  211.6250  153.2090 P   0  0  0  0  0  0  0  0  0  0  0  0
  158.6280  212.4720  151.7840 O   0  0  0  0  0  0  0  0  0  0  0  0
  157.6620  211.3170  153.9110 O   0  0  0  0  0  1  0  0  0  0  0  0
  162.0350  206.2590  143.5500 C   0  0  0  0  0  2  0  0  0  0  0  0
  162.1880  206.9050  141.2400 N   0  0  0  0  0  0  0  0  0  0  0  0
  161.5420  206.2490  142.1460 C   0  0  0  0  0  3  0  0  0  0  0  0
  162.2360  206.1210  139.0320 O   0  0  0  0  0  0  0  0  0  0  0  0
  161.7760  206.9420  139.8710 C   0  0  0  0  0  0  0  0  0  0  0  0
  160.7590  207.9510  139.4440 C   0  0  0  0  0  2  0  0  0  0  0  0
  162.2940  208.8150  137.8290 O   0  0  0  0  0  1  0  0  0  0  0  0
  160.3980  210.0510  138.2630 O   0  0  0  0  0  0  0  0  0  0  0  0
  161.4000  209.1980  138.8290 C   0  0  1  0  0  0  0  0  0  0  0  0
  157.6720  213.0550  139.9720 N   0  0  0  0  0  0  0  0  0  0  0  0
  162.1710  209.9430  139.9240 C   0  0  0  0  0  2  0  0  0  0  0  0
  158.7140  213.3290  140.6930 C   0  0  0  0  0  3  0  0  0  0  0  0
  161.2810  210.5960  140.8330 O   0  0  0  0  0  0  0  0  0  0  0  0
  157.3030  211.7190  139.5340 C   0  0  0  0  0  2  0  0  0  0  0  0
  160.1600  211.2900  140.3720 C   0  0  0  0  0  0  0  0  0  0  0  0
  158.3480  211.1060  138.6660 C   0  0  0  0  0  3  0  0  0  0  0  0
  159.7620  212.3600  141.0700 C   0  0  0  0  0  3  0  0  0  0  0  0
  159.5930  210.8580  139.0710 C   0  0  0  0  0  0  0  0  0  0  0  0
  1 20  1  0  0  0  0
  1 10  1  0  0  0  0
  2 16  1  1  0  0  0
  2  6  1  0  0  0  0
  3 13  1  0  0  0  0
  3 15  2  0  0  0  0
  4 10  2  0  0  0  0
  6 11  2  0  0  0  0
  7 12  2  0  0  0  0
  8 35  1  6  0  0  0
  8  7  1  0  0  0  0
  8  9  1  0  0  0  0
  9  5  1  1  0  0  0
  9  2  1  0  0  0  0
 12 14  1  0  0  0  0
 13  1  2  0  0  0  0
 14  6  1  0  0  0  0
 14 13  1  0  0  0  0
 15  4  1  0  0  0  0
 16 19  1  0  0  0  0
 19 17  1  0  0  0  0
 19 18  2  0  0  0  0
 20 21  1  0  0  0  0
 21 22  1  0  0  0  0
 22 23  1  0  0  0  0
 23 24  1  0  0  0  0
 24 26  1  0  0  0  0
 25 24  2  0  0  0  0
 26 29  1  0  0  0  0
 29 27  2  1  0  0  0
 29 28  1  0  0  0  0
 30 32  1  0  0  0  0
 30 29  1  0  0  0  0
 32 34  1  0  0  0  0
 32 31  1  0  0  0  0
 33 32  2  0  0  0  0
 36 37  2  0  0  0  0
 37 35  1  0  0  0  0
 38 39  2  0  0  0  0
 39 36  1  0  0  0  0
 40 39  1  0  0  0  0
 42 43  1  0  0  0  0
 42 52  1  0  0  0  0
 43 41  1  6  0  0  0
 43 40  1  0  0  0  0
 43 45  1  0  0  0  0
 44 46  2  0  0  0  0
 45 47  1  0  0  0  0
 46 51  1  0  0  0  0
 48 44  1  0  0  0  0
 49 47  1  0  0  0  0
 49 51  2  0  0  0  0
 50 52  2  0  0  0  0
 50 48  1  0  0  0  0
 52 49  1  0  0  0  0
M  END
>  <MODEL>
5

>  <REMARK>
 VINA RESULT:      -4.7      4.701      9.175
  Name = 
  15 active torsions:
  status: ('A' for Active; 'I' for Inactive)
    1  A    between atoms: C_1  and  C_22
    2  A    between atoms: C_2  and  O_13
    3  A    between atoms: C_6  and  C_45
    4  A    between atoms: N_11  and  C_21
    5  A    between atoms: O_12  and  P_18
    6  A    between atoms: O_12  and  P_31
    7  A    between atoms: O_13  and  C_49
    8  A    between atoms: C_16  and  O_34
    9  A    between atoms: C_21  and  C_25
   10  A    between atoms: C_22  and  C_25
   11  A    between atoms: N_29  and  C_41
   12  A    between atoms: C_30  and  C_44
   13  A    between atoms: P_31  and  O_34
   14  A    between atoms: C_41  and  C_45
   15  A    between atoms: C_44  and  C_52
                            x       y       z     vdW  Elec       q    Type
                         _______ _______ _______ _____ _____    ______ ____

>  <TORSDO>
F 15

$$$$
=
 OpenBabel11042422173D

 52 55  0  0  1  0  0  0  0  0999 V2000
  161.8620  204.0060  147.1450 C   0  0  0  0  0  0  0  0  0  0  0  0
  160.8380  206.7620  150.4810 C   0  0  1  0  0  3  0  0  0  0  0  0
  160.4440  202.4240  148.2390 N   0  0  0  0  0  0  0  0  0  0  0  0
  161.1480  202.0160  146.0300 N   0  0  0  0  0  0  0  0  0  0  0  0
  163.2060  206.2100  150.4110 O   0  0  0  0  0  1  0  0  0  0  0  0
  160.6060  205.7690  149.3800 C   0  0  0  0  0  0  0  0  0  0  0  0
  161.4810  204.1510  151.9270 C   0  0  0  0  0  3  0  0  0  0  0  0
  161.9720  205.5160  152.3510 C   0  0  1  0  0  3  0  0  0  0  0  0
  162.1400  206.5500  151.2480 C   0  0  2  0  0  3  0  0  0  0  0  0
  161.8530  203.1770  146.0210 C   0  0  0  0  0  3  0  0  0  0  0  0
  159.9260  206.1230  148.3750 O   0  0  0  0  0  0  0  0  0  0  0  0
  161.1300  203.6870  150.7210 C   0  0  0  0  0  3  0  0  0  0  0  0
  161.1280  203.6030  148.2800 C   0  0  0  0  0  0  0  0  0  0  0  0
  161.0800  204.4070  149.4740 N   0  0  0  0  0  0  0  0  0  0  0  0
  160.4500  201.6390  147.1310 C   0  0  0  0  0  3  0  0  0  0  0  0
  160.6800  208.1210  150.0570 O   0  0  0  0  0  0  0  0  0  0  0  0
  162.1600  209.9870  150.7840 C   0  0  0  0  0  1  0  0  0  0  0  0
  162.3210  208.9600  148.6510 O   0  0  0  0  0  0  0  0  0  0  0  0
  161.7340  208.9940  149.7630 C   0  0  0  0  0  0  0  0  0  0  0  0
  162.6860  205.2530  147.1300 C   0  0  0  0  0  2  0  0  0  0  0  0
  162.2320  206.1790  146.0160 C   0  0  0  0  0  2  0  0  0  0  0  0
  161.9800  205.3700  144.7600 C   0  0  0  0  0  2  0  0  0  0  0  0
  161.3500  206.2030  143.7480 N   0  0  0  0  0  2  0  0  0  0  0  0
  161.7860  206.2280  142.3880 C   0  0  0  0  0  0  0  0  0  0  0  0
  162.6740  205.4250  141.9930 O   0  0  0  0  0  0  0  0  0  0  0  0
  161.2100  207.1470  141.5100 O   0  0  0  0  0  0  0  0  0  0  0  0
  162.6080  206.2160  139.2970 O   0  0  0  0  0  0  0  0  0  0  0  0
  163.0750  208.5770  140.3380 O   0  0  0  0  0  1  0  0  0  0  0  0
  161.9610  207.6000  140.0320 P   0  0  2  0  0  0  0  0  0  0  0  0
  160.7900  208.3340  139.0320 O   0  0  0  0  0  0  0  0  0  0  0  0
  161.2080  210.4860  140.7590 O   0  0  0  0  0  1  0  0  0  0  0  0
  160.9890  210.0220  139.1450 P   0  0  0  0  0  0  0  0  0  0  0  0
  162.3670  210.4620  138.2670 O   0  0  0  0  0  0  0  0  0  0  0  0
  159.7930  210.7440  138.5640 O   0  0  0  0  0  1  0  0  0  0  0  0
  161.1030  206.0760  153.4680 C   0  0  0  0  0  2  0  0  0  0  0  0
  161.1100  207.9220  155.0080 N   0  0  0  0  0  0  0  0  0  0  0  0
  161.6410  207.3710  153.9660 C   0  0  0  0  0  3  0  0  0  0  0  0
  162.3780  209.1930  156.5140 O   0  0  0  0  0  0  0  0  0  0  0  0
  161.5720  209.1640  155.5440 C   0  0  0  0  0  0  0  0  0  0  0  0
  161.1150  210.4420  154.9200 C   0  0  0  0  0  2  0  0  0  0  0  0
  161.4710  211.7130  156.9120 O   0  0  0  0  0  1  0  0  0  0  0  0
  160.0860  212.6160  155.3060 O   0  0  0  0  0  0  0  0  0  0  0  0
  160.5130  211.4070  155.9450 C   0  0  1  0  0  0  0  0  0  0  0  0
  156.4680  213.7310  153.0590 N   0  0  0  0  0  0  0  0  0  0  0  0
  159.3240  210.7200  156.6250 C   0  0  0  0  0  2  0  0  0  0  0  0
  155.8970  212.9990  153.9650 C   0  0  0  0  0  3  0  0  0  0  0  0
  158.2020  210.6310  155.7430 O   0  0  0  0  0  0  0  0  0  0  0  0
  157.7770  213.4610  152.4890 C   0  0  0  0  0  2  0  0  0  0  0  0
  157.8330  211.7080  154.9330 C   0  0  0  0  0  0  0  0  0  0  0  0
  158.8540  213.4930  153.5190 C   0  0  0  0  0  3  0  0  0  0  0  0
  156.5320  211.8620  154.6590 C   0  0  0  0  0  3  0  0  0  0  0  0
  158.9050  212.6640  154.5620 C   0  0  0  0  0  0  0  0  0  0  0  0
  1 13  1  0  0  0  0
  2 16  1  6  0  0  0
  2  9  1  0  0  0  0
  3 13  2  0  0  0  0
  4 15  2  0  0  0  0
  6 14  1  0  0  0  0
  6  2  1  0  0  0  0
  7  8  1  0  0  0  0
  8 35  1  1  0  0  0
  9  5  1  6  0  0  0
  9  8  1  0  0  0  0
 10  4  1  0  0  0  0
 10  1  2  0  0  0  0
 11  6  2  0  0  0  0
 12  7  2  0  0  0  0
 13 14  1  0  0  0  0
 14 12  1  0  0  0  0
 15  3  1  0  0  0  0
 18 19  2  0  0  0  0
 19 16  1  0  0  0  0
 19 17  1  0  0  0  0
 20  1  1  0  0  0  0
 21 20  1  0  0  0  0
 22 21  1  0  0  0  0
 23 22  1  0  0  0  0
 24 23  1  0  0  0  0
 25 24  2  0  0  0  0
 26 24  1  0  0  0  0
 29 27  2  6  0  0  0
 29 28  1  0  0  0  0
 29 26  1  0  0  0  0
 30 32  1  0  0  0  0
 30 29  1  0  0  0  0
 32 31  1  0  0  0  0
 33 32  2  0  0  0  0
 34 32  1  0  0  0  0
 35 37  1  0  0  0  0
 36 39  1  0  0  0  0
 37 36  2  0  0  0  0
 39 38  2  0  0  0  0
 40 39  1  0  0  0  0
 40 43  1  0  0  0  0
 42 43  1  0  0  0  0
 43 45  1  0  0  0  0
 43 41  1  1  0  0  0
 44 46  2  0  0  0  0
 46 51  1  0  0  0  0
 47 45  1  0  0  0  0
 48 44  1  0  0  0  0
 48 50  1  0  0  0  0
 49 47  1  0  0  0  0
 50 52  2  0  0  0  0
 51 49  2  0  0  0  0
 52 49  1  0  0  0  0
 52 42  1  0  0  0  0
M  END
>  <MODEL>
6

>  <REMARK>
 VINA RESULT:      -4.2      3.467      9.281
  Name = 
  15 active torsions:
  status: ('A' for Active; 'I' for Inactive)
    1  A    between atoms: C_1  and  C_22
    2  A    between atoms: C_2  and  O_13
    3  A    between atoms: C_6  and  C_45
    4  A    between atoms: N_11  and  C_21
    5  A    between atoms: O_12  and  P_18
    6  A    between atoms: O_12  and  P_31
    7  A    between atoms: O_13  and  C_49
    8  A    between atoms: C_16  and  O_34
    9  A    between atoms: C_21  and  C_25
   10  A    between atoms: C_22  and  C_25
   11  A    between atoms: N_29  and  C_41
   12  A    between atoms: C_30  and  C_44
   13  A    between atoms: P_31  and  O_34
   14  A    between atoms: C_41  and  C_45
   15  A    between atoms: C_44  and  C_52
                            x       y       z     vdW  Elec       q    Type
                         _______ _______ _______ _____ _____    ______ ____

>  <TORSDO>
F 15

$$$$
=
 OpenBabel11042422173D

 52 55  0  0  1  0  0  0  0  0999 V2000
  161.5690  203.4390  147.9600 C   0  0  0  0  0  0  0  0  0  0  0  0
  160.8640  206.9000  150.6620 C   0  0  1  0  0  3  0  0  0  0  0  0
  159.9960  202.2680  149.3250 N   0  0  0  0  0  0  0  0  0  0  0  0
  160.6400  201.3530  147.2530 N   0  0  0  0  0  0  0  0  0  0  0  0
  163.1590  206.0970  150.7410 O   0  0  0  0  0  1  0  0  0  0  0  0
  160.5210  205.7360  149.7770 C   0  0  0  0  0  0  0  0  0  0  0  0
  161.2330  204.5780  152.6100 C   0  0  0  0  0  3  0  0  0  0  0  0
  161.8690  205.9400  152.7600 C   0  0  1  0  0  3  0  0  0  0  0  0
  162.1410  206.7080  151.4770 C   0  0  2  0  0  3  0  0  0  0  0  0
  161.4650  202.4070  147.0240 C   0  0  0  0  0  3  0  0  0  0  0  0
  159.8770  205.9520  148.7120 O   0  0  0  0  0  0  0  0  0  0  0  0
  160.8270  203.9210  151.5150 C   0  0  0  0  0  3  0  0  0  0  0  0
  160.8030  203.3520  149.1400 C   0  0  0  0  0  0  0  0  0  0  0  0
  160.8480  204.3790  150.1490 N   0  0  0  0  0  0  0  0  0  0  0  0
  159.9120  201.2800  148.3960 C   0  0  0  0  0  3  0  0  0  0  0  0
  160.8500  208.1550  149.9730 O   0  0  0  0  0  0  0  0  0  0  0  0
  162.2960  210.0430  149.2330 C   0  0  0  0  0  1  0  0  0  0  0  0
  162.4370  207.8620  148.3080 O   0  0  0  0  0  0  0  0  0  0  0  0
  161.8730  208.6210  149.1390 C   0  0  0  0  0  0  0  0  0  0  0  0
  162.5210  204.5630  147.7100 C   0  0  0  0  0  2  0  0  0  0  0  0
  163.0000  204.5470  146.2690 C   0  0  0  0  0  2  0  0  0  0  0  0
  162.6250  205.8540  145.6000 C   0  0  0  0  0  2  0  0  0  0  0  0
  162.6710  205.7050  144.1540 N   0  0  0  0  0  2  0  0  0  0  0  0
  161.5830  206.0730  143.3050 C   0  0  0  0  0  0  0  0  0  0  0  0
  160.5740  206.6580  143.7860 O   0  0  0  0  0  0  0  0  0  0  0  0
  161.6590  205.7820  141.9420 O   0  0  0  0  0  0  0  0  0  0  0  0
  162.2860  206.1800  139.2650 O   0  0  0  0  0  0  0  0  0  0  0  0
  163.6420  207.3330  141.1920 O   0  0  0  0  0  1  0  0  0  0  0  0
  162.2420  206.9170  140.7910 P   0  0  2  0  0  0  0  0  0  0  0  0
  161.2030  208.2700  140.7890 O   0  0  0  0  0  0  0  0  0  0  0  0
  160.7320  210.5560  139.2580 O   0  0  0  0  0  1  0  0  0  0  0  0
  161.2090  208.9310  139.2190 P   0  0  0  0  0  0  0  0  0  0  0  0
  162.7830  208.8460  138.6040 O   0  0  0  0  0  1  0  0  0  0  0  0
  160.2890  208.1510  138.3050 O   0  0  0  0  0  0  0  0  0  0  0  0
  161.0710  206.8010  153.7290 C   0  0  0  0  0  2  0  0  0  0  0  0
  160.6600  209.1450  154.0700 N   0  0  0  0  0  0  0  0  0  0  0  0
  161.4530  208.2350  153.6100 C   0  0  0  0  0  3  0  0  0  0  0  0
  161.9860  210.9520  153.3870 O   0  0  0  0  0  0  0  0  0  0  0  0
  160.9580  210.5410  153.9910 C   0  0  0  0  0  0  0  0  0  0  0  0
  160.0160  211.5230  154.6080 C   0  0  0  0  0  2  0  0  0  0  0  0
  159.1650  211.4270  152.3760 O   0  0  0  0  0  1  0  0  0  0  0  0
  157.6340  211.4370  154.1000 O   0  0  0  0  0  0  0  0  0  0  0  0
  158.8980  211.9380  153.6470 C   0  0  1  0  0  0  0  0  0  0  0  0
  154.7280  212.8350  157.0960 N   0  0  0  0  0  0  0  0  0  0  0  0
  158.8620  213.4670  153.5680 C   0  0  0  0  0  2  0  0  0  0  0  0
  155.0630  213.9930  156.6170 C   0  0  0  0  0  3  0  0  0  0  0  0
  158.3260  214.0370  154.7660 O   0  0  0  0  0  0  0  0  0  0  0  0
  155.6410  211.7140  157.2500 C   0  0  0  0  0  2  0  0  0  0  0  0
  157.2020  213.4850  155.3860 C   0  0  0  0  0  0  0  0  0  0  0  0
  156.2040  211.2670  155.9450 C   0  0  0  0  0  3  0  0  0  0  0  0
  156.3760  214.3190  156.0300 C   0  0  0  0  0  3  0  0  0  0  0  0
  156.9530  212.0400  155.1590 C   0  0  0  0  0  0  0  0  0  0  0  0
  1 13  1  0  0  0  0
  2 16  1  6  0  0  0
  2  9  1  0  0  0  0
  4 15  2  0  0  0  0
  6 14  1  0  0  0  0
  6  2  1  0  0  0  0
  7  8  1  0  0  0  0
  8 35  1  1  0  0  0
  9  5  1  6  0  0  0
  9  8  1  0  0  0  0
 10  4  1  0  0  0  0
 10  1  2  0  0  0  0
 11  6  2  0  0  0  0
 12  7  2  0  0  0  0
 13  3  2  0  0  0  0
 13 14  1  0  0  0  0
 14 12  1  0  0  0  0
 15  3  1  0  0  0  0
 18 19  2  0  0  0  0
 19 17  1  0  0  0  0
 19 16  1  0  0  0  0
 20  1  1  0  0  0  0
 21 20  1  0  0  0  0
 22 21  1  0  0  0  0
 23 22  1  0  0  0  0
 24 25  2  0  0  0  0
 24 23  1  0  0  0  0
 26 24  1  0  0  0  0
 29 27  2  6  0  0  0
 29 28  1  0  0  0  0
 29 26  1  0  0  0  0
 30 29  1  0  0  0  0
 32 31  1  0  0  0  0
 32 30  1  0  0  0  0
 33 32  1  0  0  0  0
 34 32  2  0  0  0  0
 37 35  1  0  0  0  0
 37 36  2  0  0  0  0
 38 39  2  0  0  0  0
 39 36  1  0  0  0  0
 39 40  1  0  0  0  0
 42 52  1  0  0  0  0
 43 41  1  6  0  0  0
 43 42  1  0  0  0  0
 43 40  1  0  0  0  0
 44 48  1  0  0  0  0
 45 43  1  0  0  0  0
 45 47  1  0  0  0  0
 46 44  2  0  0  0  0
 47 49  1  0  0  0  0
 49 51  2  0  0  0  0
 50 48  1  0  0  0  0
 51 46  1  0  0  0  0
 52 49  1  0  0  0  0
 52 50  2  0  0  0  0
M  END
>  <MODEL>
7

>  <REMARK>
 VINA RESULT:      -4.0      3.699      9.601
  Name = 
  15 active torsions:
  status: ('A' for Active; 'I' for Inactive)
    1  A    between atoms: C_1  and  C_22
    2  A    between atoms: C_2  and  O_13
    3  A    between atoms: C_6  and  C_45
    4  A    between atoms: N_11  and  C_21
    5  A    between atoms: O_12  and  P_18
    6  A    between atoms: O_12  and  P_31
    7  A    between atoms: O_13  and  C_49
    8  A    between atoms: C_16  and  O_34
    9  A    between atoms: C_21  and  C_25
   10  A    between atoms: C_22  and  C_25
   11  A    between atoms: N_29  and  C_41
   12  A    between atoms: C_30  and  C_44
   13  A    between atoms: P_31  and  O_34
   14  A    between atoms: C_41  and  C_45
   15  A    between atoms: C_44  and  C_52
                            x       y       z     vdW  Elec       q    Type
                         _______ _______ _______ _____ _____    ______ ____

>  <TORSDO>
F 15

$$$$
=
 OpenBabel11042422173D

 52 55  0  0  1  0  0  0  0  0999 V2000
  160.5550  202.9700  149.3170 C   0  0  0  0  0  0  0  0  0  0  0  0
  162.5000  205.9360  146.6360 C   0  0  1  0  0  3  0  0  0  0  0  0
  161.5140  201.3060  147.8960 N   0  0  0  0  0  0  0  0  0  0  0  0
  160.6080  200.6720  149.9740 N   0  0  0  0  0  0  0  0  0  0  0  0
  160.0730  206.0970  146.6120 O   0  0  0  0  0  1  0  0  0  0  0  0
  162.3790  204.7120  147.4970 C   0  0  0  0  0  0  0  0  0  0  0  0
  161.2110  203.9850  144.6720 C   0  0  0  0  0  3  0  0  0  0  0  0
  161.1550  205.4900  144.5550 C   0  0  1  0  0  3  0  0  0  0  0  0
  161.2340  206.2760  145.8550 C   0  0  2  0  0  3  0  0  0  0  0  0
  160.2660  201.9600  150.2380 C   0  0  0  0  0  3  0  0  0  0  0  0
  163.0790  204.6370  148.5460 O   0  0  0  0  0  0  0  0  0  0  0  0
  161.3500  203.1990  145.7480 C   0  0  0  0  0  3  0  0  0  0  0  0
  161.2000  202.6150  148.1150 C   0  0  0  0  0  0  0  0  0  0  0  0
  161.5390  203.5990  147.1200 N   0  0  0  0  0  0  0  0  0  0  0  0
  161.2250  200.3440  148.8100 C   0  0  0  0  0  3  0  0  0  0  0  0
  163.0190  207.0710  147.3380 O   0  0  0  0  0  0  0  0  0  0  0  0
  162.6790  207.7500  149.7090 C   0  0  0  0  0  1  0  0  0  0  0  0
  161.3460  208.5660  147.9240 O   0  0  0  0  0  0  0  0  0  0  0  0
  162.3040  207.8280  148.2740 C   0  0  0  0  0  0  0  0  0  0  0  0
  160.1240  204.3710  149.6060 C   0  0  0  0  0  2  0  0  0  0  0  0
  160.1700  204.6460  151.0990 C   0  0  0  0  0  2  0  0  0  0  0  0
  161.1510  205.7690  151.3730 C   0  0  0  0  0  2  0  0  0  0  0  0
  161.2510  206.0040  152.8050 N   0  0  0  0  0  2  0  0  0  0  0  0
  161.1340  207.3040  153.3830 C   0  0  0  0  0  0  0  0  0  0  0  0
  160.8200  208.2920  152.6650 O   0  0  0  0  0  0  0  0  0  0  0  0
  161.3660  207.4610  154.7510 O   0  0  0  0  0  0  0  0  0  0  0  0
  161.9530  210.1730  154.6170 O   0  0  0  0  0  0  0  0  0  0  0  0
  161.8610  208.8860  156.9000 O   0  0  0  0  0  1  0  0  0  0  0  0
  161.1930  208.9750  155.5450 P   0  0  2  0  0  0  0  0  0  0  0  0
  159.5300  209.3040  155.7280 O   0  0  0  0  0  0  0  0  0  0  0  0
  160.6230  211.6830  156.6950 O   0  0  0  0  0  1  0  0  0  0  0  0
  159.3390  210.9940  155.8320 P   0  0  0  0  0  0  0  0  0  0  0  0
  159.3390  211.6330  154.2660 O   0  0  0  0  0  0  0  0  0  0  0  0
  158.0280  211.3460  156.5000 O   0  0  0  0  0  1  0  0  0  0  0  0
  162.2060  205.9920  143.5740 C   0  0  0  0  0  2  0  0  0  0  0  0
  162.3750  206.6080  141.2570 N   0  0  0  0  0  0  0  0  0  0  0  0
  161.6210  206.1930  142.2200 C   0  0  0  0  0  3  0  0  0  0  0  0
  162.0590  205.9640  139.0270 O   0  0  0  0  0  0  0  0  0  0  0  0
  161.8860  206.8260  139.9320 C   0  0  0  0  0  0  0  0  0  0  0  0
  161.1310  208.0790  139.6300 C   0  0  0  0  0  2  0  0  0  0  0  0
  162.1930  207.6680  137.5290 O   0  0  0  0  0  1  0  0  0  0  0  0
  160.0420  208.4960  137.4910 O   0  0  0  0  0  0  0  0  0  0  0  0
  161.3010  208.5240  138.1750 C   0  0  1  0  0  0  0  0  0  0  0  0
  156.6460  211.2900  137.2980 N   0  0  0  0  0  0  0  0  0  0  0  0
  161.8780  209.9430  138.1620 C   0  0  0  0  0  2  0  0  0  0  0  0
  157.6000  212.1680  137.2880 C   0  0  0  0  0  3  0  0  0  0  0  0
  160.8980  210.9070  138.5580 O   0  0  0  0  0  0  0  0  0  0  0  0
  156.6830  210.0420  138.0420 C   0  0  0  0  0  2  0  0  0  0  0  0
  159.5850  210.8360  138.0870 C   0  0  0  0  0  0  0  0  0  0  0  0
  157.8000  209.1600  137.6010 C   0  0  0  0  0  3  0  0  0  0  0  0
  158.9240  211.9870  137.9150 C   0  0  0  0  0  3  0  0  0  0  0  0
  159.0870  209.4960  137.6900 C   0  0  0  0  0  0  0  0  0  0  0  0
  1 20  1  0  0  0  0
  1 10  1  0  0  0  0
  2 16  1  1  0  0  0
  2  6  1  0  0  0  0
  3 13  1  0  0  0  0
  3 15  2  0  0  0  0
  4 10  2  0  0  0  0
  6 11  2  0  0  0  0
  7 12  2  0  0  0  0
  8 35  1  6  0  0  0
  8  7  1  0  0  0  0
  8  9  1  0  0  0  0
  9  5  1  1  0  0  0
  9  2  1  0  0  0  0
 12 14  1  0  0  0  0
 13  1  2  0  0  0  0
 14  6  1  0  0  0  0
 14 13  1  0  0  0  0
 15  4  1  0  0  0  0
 16 19  1  0  0  0  0
 18 19  2  0  0  0  0
 19 17  1  0  0  0  0
 20 21  1  0  0  0  0
 21 22  1  0  0  0  0
 22 23  1  0  0  0  0
 23 24  1  0  0  0  0
 24 26  1  0  0  0  0
 25 24  2  0  0  0  0
 26 29  1  0  0  0  0
 29 27  2  6  0  0  0
 29 30  1  0  0  0  0
 29 28  1  0  0  0  0
 30 32  1  0  0  0  0
 32 34  1  0  0  0  0
 32 31  1  0  0  0  0
 33 32  2  0  0  0  0
 36 37  2  0  0  0  0
 37 35  1  0  0  0  0
 38 39  2  0  0  0  0
 39 36  1  0  0  0  0
 40 39  1  0  0  0  0
 42 52  1  0  0  0  0
 42 43  1  0  0  0  0
 43 41  1  6  0  0  0
 43 40  1  0  0  0  0
 44 48  1  0  0  0  0
 45 43  1  0  0  0  0
 45 47  1  0  0  0  0
 46 44  2  0  0  0  0
 46 51  1  0  0  0  0
 49 47  1  0  0  0  0
 50 52  2  0  0  0  0
 50 48  1  0  0  0  0
 51 49  2  0  0  0  0
 52 49  1  0  0  0  0
M  END
>  <MODEL>
8

>  <REMARK>
 VINA RESULT:      -3.6      5.267      9.673
  Name = 
  15 active torsions:
  status: ('A' for Active; 'I' for Inactive)
    1  A    between atoms: C_1  and  C_22
    2  A    between atoms: C_2  and  O_13
    3  A    between atoms: C_6  and  C_45
    4  A    between atoms: N_11  and  C_21
    5  A    between atoms: O_12  and  P_18
    6  A    between atoms: O_12  and  P_31
    7  A    between atoms: O_13  and  C_49
    8  A    between atoms: C_16  and  O_34
    9  A    between atoms: C_21  and  C_25
   10  A    between atoms: C_22  and  C_25
   11  A    between atoms: N_29  and  C_41
   12  A    between atoms: C_30  and  C_44
   13  A    between atoms: P_31  and  O_34
   14  A    between atoms: C_41  and  C_45
   15  A    between atoms: C_44  and  C_52
                            x       y       z     vdW  Elec       q    Type
                         _______ _______ _______ _____ _____    ______ ____

>  <TORSDO>
F 15

$$$$
=
 OpenBabel11042422173D

 52 55  0  0  1  0  0  0  0  0999 V2000
  160.4730  203.3000  149.4790 C   0  0  0  0  0  0  0  0  0  0  0  0
  162.5060  205.8870  146.4880 C   0  0  1  0  0  3  0  0  0  0  0  0
  161.3040  201.4580  148.2030 N   0  0  0  0  0  0  0  0  0  0  0  0
  160.4190  201.0750  150.3500 N   0  0  0  0  0  0  0  0  0  0  0  0
  160.0910  206.1810  146.4980 O   0  0  0  0  0  1  0  0  0  0  0  0
  162.3420  204.7580  147.4640 C   0  0  0  0  0  0  0  0  0  0  0  0
  161.0630  203.8360  144.7460 C   0  0  0  0  0  3  0  0  0  0  0  0
  161.0860  205.3240  144.4870 C   0  0  1  0  0  3  0  0  0  0  0  0
  161.2400  206.2230  145.7040 C   0  0  2  0  0  3  0  0  0  0  0  0
  160.1540  202.3980  150.4980 C   0  0  0  0  0  3  0  0  0  0  0  0
  163.0630  204.7420  148.5010 O   0  0  0  0  0  0  0  0  0  0  0  0
  161.1880  203.1470  145.8880 C   0  0  0  0  0  3  0  0  0  0  0  0
  161.0670  202.7980  148.3030 C   0  0  0  0  0  0  0  0  0  0  0  0
  161.4340  203.6630  147.2120 N   0  0  0  0  0  0  0  0  0  0  0  0
  160.9870  200.6050  149.2110 C   0  0  0  0  0  3  0  0  0  0  0  0
  163.1030  207.0520  147.0680 O   0  0  0  0  0  0  0  0  0  0  0  0
  161.5220  208.5810  148.2350 C   0  0  0  0  0  1  0  0  0  0  0  0
  163.2790  207.4360  149.3480 O   0  0  0  0  0  0  0  0  0  0  0  0
  162.6850  207.6560  148.2600 C   0  0  0  0  0  0  0  0  0  0  0  0
  160.1260  204.7440  149.6420 C   0  0  0  0  0  2  0  0  0  0  0  0
  160.3430  205.1860  151.0780 C   0  0  0  0  0  2  0  0  0  0  0  0
  161.2070  206.4320  151.0950 C   0  0  0  0  0  2  0  0  0  0  0  0
  160.4760  207.5370  151.6950 N   0  0  0  0  0  2  0  0  0  0  0  0
  161.0820  208.7960  151.9870 C   0  0  0  0  0  0  0  0  0  0  0  0
  162.2660  209.0290  151.6190 O   0  0  0  0  0  0  0  0  0  0  0  0
  160.3450  209.7600  152.6750 O   0  0  0  0  0  0  0  0  0  0  0  0
  160.4110  211.8660  154.4850 O   0  0  0  0  0  0  0  0  0  0  0  0
  162.1630  209.9160  154.5640 O   0  0  0  0  0  1  0  0  0  0  0  0
  160.7020  210.2070  154.2960 P   0  0  2  0  0  0  0  0  0  0  0  0
  159.7150  209.2890  155.3410 O   0  0  0  0  0  0  0  0  0  0  0  0
  159.7240  206.9710  156.8950 O   0  0  0  0  0  1  0  0  0  0  0  0
  160.6830  208.0750  156.0410 P   0  0  0  0  0  0  0  0  0  0  0  0
  161.4860  207.2460  154.8040 O   0  0  0  0  0  0  0  0  0  0  0  0
  161.7150  208.6790  156.9690 O   0  0  0  0  0  1  0  0  0  0  0  0
  162.1370  205.6710  143.4420 C   0  0  0  0  0  2  0  0  0  0  0  0
  162.2530  206.6490  141.2490 N   0  0  0  0  0  0  0  0  0  0  0  0
  161.5050  206.2070  142.2050 C   0  0  0  0  0  3  0  0  0  0  0  0
  161.9590  206.6280  138.9240 O   0  0  0  0  0  0  0  0  0  0  0  0
  161.7190  207.1790  140.0330 C   0  0  0  0  0  0  0  0  0  0  0  0
  160.8380  208.3840  140.0890 C   0  0  0  0  0  2  0  0  0  0  0  0
  161.2480  208.9730  137.8090 O   0  0  0  0  0  1  0  0  0  0  0  0
  160.4160  210.6120  139.1990 O   0  0  0  0  0  0  0  0  0  0  0  0
  161.2820  209.4750  139.1110 C   0  0  1  0  0  0  0  0  0  0  0  0
  160.2010  214.0390  141.9540 N   0  0  0  0  0  0  0  0  0  0  0  0
  162.7210  209.8790  139.4480 C   0  0  0  0  0  2  0  0  0  0  0  0
  161.4930  213.9580  141.8710 C   0  0  0  0  0  3  0  0  0  0  0  0
  162.7750  210.6480  140.6530 O   0  0  0  0  0  0  0  0  0  0  0  0
  159.3030  212.8970  141.9410 C   0  0  0  0  0  2  0  0  0  0  0  0
  161.8400  211.6540  140.9090 C   0  0  0  0  0  0  0  0  0  0  0  0
  159.4000  212.1220  140.6720 C   0  0  0  0  0  3  0  0  0  0  0  0
  162.2480  212.7160  141.6140 C   0  0  0  0  0  3  0  0  0  0  0  0
  160.5140  211.5170  140.2590 C   0  0  0  0  0  0  0  0  0  0  0  0
  1 20  1  0  0  0  0
  1 10  1  0  0  0  0
  2 16  1  1  0  0  0
  2  6  1  0  0  0  0
  3 13  1  0  0  0  0
  3 15  2  0  0  0  0
  4 10  2  0  0  0  0
  6 11  2  0  0  0  0
  7 12  2  0  0  0  0
  8 35  1  6  0  0  0
  8  7  1  0  0  0  0
  8  9  1  0  0  0  0
  9  2  1  0  0  0  0
  9  5  1  1  0  0  0
 12 14  1  0  0  0  0
 13  1  2  0  0  0  0
 14  6  1  0  0  0  0
 14 13  1  0  0  0  0
 15  4  1  0  0  0  0
 16 19  1  0  0  0  0
 17 19  1  0  0  0  0
 19 18  2  0  0  0  0
 20 21  1  0  0  0  0
 21 22  1  0  0  0  0
 22 23  1  0  0  0  0
 23 24  1  0  0  0  0
 24 26  1  0  0  0  0
 25 24  2  0  0  0  0
 26 29  1  0  0  0  0
 29 27  2  1  0  0  0
 29 28  1  0  0  0  0
 29 30  1  0  0  0  0
 30 32  1  0  0  0  0
 32 31  1  0  0  0  0
 32 34  1  0  0  0  0
 33 32  2  0  0  0  0
 36 37  2  0  0  0  0
 37 35  1  0  0  0  0
 38 39  2  0  0  0  0
 39 40  1  0  0  0  0
 39 36  1  0  0  0  0
 42 52  1  0  0  0  0
 43 41  1  6  0  0  0
 43 42  1  0  0  0  0
 43 45  1  0  0  0  0
 43 40  1  0  0  0  0
 45 47  1  0  0  0  0
 46 44  2  0  0  0  0
 47 49  1  0  0  0  0
 48 44  1  0  0  0  0
 49 51  2  0  0  0  0
 50 48  1  0  0  0  0
 51 46  1  0  0  0  0
 52 50  2  0  0  0  0
 52 49  1  0  0  0  0
M  END
>  <MODEL>
9

>  <REMARK>
 VINA RESULT:      -3.4      4.660      9.317
  Name = 
  15 active torsions:
  status: ('A' for Active; 'I' for Inactive)
    1  A    between atoms: C_1  and  C_22
    2  A    between atoms: C_2  and  O_13
    3  A    between atoms: C_6  and  C_45
    4  A    between atoms: N_11  and  C_21
    5  A    between atoms: O_12  and  P_18
    6  A    between atoms: O_12  and  P_31
    7  A    between atoms: O_13  and  C_49
    8  A    between atoms: C_16  and  O_34
    9  A    between atoms: C_21  and  C_25
   10  A    between atoms: C_22  and  C_25
   11  A    between atoms: N_29  and  C_41
   12  A    between atoms: C_30  and  C_44
   13  A    between atoms: P_31  and  O_34
   14  A    between atoms: C_41  and  C_45
   15  A    between atoms: C_44  and  C_52
                            x       y       z     vdW  Elec       q    Type
                         _______ _______ _______ _____ _____    ______ ____

>  <TORSDO>
F 15

$$$$
