=
 OpenBabel11042422293D

 34 37  0  0  0  0  0  0  0  0999 V2000
  161.1390  205.9410  153.5710 C   0  0  0  0  0  3  0  0  0  0  0  0
  161.1370  205.4670  149.9760 C   0  0  0  0  0  0  0  0  0  0  0  0
  161.1290  208.1780  152.5650 C   0  0  0  0  0  0  0  0  0  0  0  0
  161.1650  204.1020  150.2070 C   0  0  0  0  0  0  0  0  0  0  0  0
  161.1400  203.6380  147.9040 C   0  0  0  0  0  3  0  0  0  0  0  0
  161.1390  206.2080  151.1590 C   0  0  0  0  0  0  0  0  0  0  0  0
  161.1030  205.9480  148.6670 C   0  0  0  0  0  3  0  0  0  0  0  0
  161.1930  203.7680  151.8600 S   0  0  0  0  0  0  0  0  0  0  0  0
  161.1710  203.1980  149.1960 N   0  0  0  0  0  0  0  0  0  0  0  0
  161.1650  205.4030  152.2900 C   0  0  0  0  0  0  0  0  0  0  0  0
  161.1020  207.3400  153.7230 C   0  0  0  0  0  0  0  0  0  0  0  0
  161.1040  205.0160  147.6170 C   0  0  0  0  0  3  0  0  0  0  0  0
  161.1280  207.5950  151.2810 C   0  0  0  0  0  3  0  0  0  0  0  0
  159.7910  208.6090  155.4580 N   0  0  0  0  0  2  0  0  0  0  0  0
  161.9020  207.7250  155.9360 O   0  0  0  0  0  0  0  0  0  0  0  0
  160.9680  207.8760  155.0960 C   0  0  0  0  0  0  0  0  0  0  0  0
  159.6060  209.1500  156.7930 C   0  0  0  0  0  2  0  0  0  0  0  0
  159.7830  210.6500  156.7630 C   0  0  0  0  0  2  0  0  0  0  0  0
  161.1680  211.0010  157.2600 C   0  0  0  0  0  2  0  0  0  0  0  0
  162.0430  211.0760  156.1810 O   0  0  0  0  0  0  0  0  0  0  0  0
  163.3060  210.8750  156.7420 C   0  0  0  0  0  1  0  0  0  0  0  0
  162.4750  210.2930  152.5200 C   0  0  0  0  0  1  0  0  0  0  0  0
  161.1950  209.6120  152.6680 N   0  0  0  0  0  0  0  0  0  0  0  0
  159.9930  210.4280  152.5900 C   0  0  0  0  0  2  0  0  0  0  0  0
  160.2470  211.7940  153.2100 C   0  0  0  0  0  2  0  0  0  0  0  0
  159.4940  212.8340  152.5210 N   0  0  0  0  0  0  0  0  0  0  0  0
  156.4610  213.9760  149.6720 C   0  0  0  0  0  1  0  0  0  0  0  0
  158.7640  213.4410  150.2480 C   0  0  0  0  0  3  0  0  0  0  0  0
  156.1280  214.2460  152.5310 O   0  0  0  0  0  0  0  0  0  0  0  0
  157.5390  213.7570  150.6750 C   0  0  0  0  0  0  0  0  0  0  0  0
  159.9230  213.2750  151.1910 C   0  0  0  0  0  2  0  0  0  0  0  0
  158.2570  213.3320  153.0660 C   0  0  0  0  0  0  0  0  0  0  0  0
  157.9240  213.2230  154.6750 S   0  0  0  0  0  0  0  0  0  0  0  0
  157.2430  213.8210  152.1200 C   0  0  0  0  0  0  0  0  0  0  0  0
  1 11  1  0  0  0  0
  2  4  1  0  0  0  0
  2  6  1  0  0  0  0
  3 23  1  0  0  0  0
  3 11  2  0  0  0  0
  4  8  1  0  0  0  0
  5  9  1  0  0  0  0
  6 13  2  0  0  0  0
  6 10  1  0  0  0  0
  7  2  2  0  0  0  0
  8 10  1  0  0  0  0
  9  4  2  0  0  0  0
 10  1  2  0  0  0  0
 11 16  1  0  0  0  0
 12  5  2  0  0  0  0
 12  7  1  0  0  0  0
 13  3  1  0  0  0  0
 14 17  1  0  0  0  0
 16 14  1  0  0  0  0
 16 15  2  0  0  0  0
 18 17  1  0  0  0  0
 18 19  1  0  0  0  0
 20 21  1  0  0  0  0
 20 19  1  0  0  0  0
 22 23  1  0  0  0  0
 24 23  1  0  0  0  0
 24 25  1  0  0  0  0
 26 32  1  0  0  0  0
 26 25  1  0  0  0  0
 27 30  1  0  0  0  0
 28 30  2  0  0  0  0
 28 31  1  0  0  0  0
 30 34  1  0  0  0  0
 31 26  1  0  0  0  0
 32 33  2  0  0  0  0
 34 29  2  0  0  0  0
 34 32  1  0  0  0  0
M  END
>  <MODEL>
1

>  <REMARK>
 VINA RESULT:      -7.3      0.000      0.000
  Name = 
  9 active torsions:
  status: ('A' for Active; 'I' for Inactive)
    1  A    between atoms: N_1  and  C_26
    2  A    between atoms: C_2  and  C_9
    3  A    between atoms: C_2  and  C_28
    4  A    between atoms: N_8  and  C_28
    5  A    between atoms: C_9  and  O_24
    6  A    between atoms: C_12  and  C_26
    7  A    between atoms: C_12  and  N_29
    8  A    between atoms: C_16  and  N_29
    9  A    between atoms: C_22  and  C_31
                            x       y       z     vdW  Elec       q    Type
                         _______ _______ _______ _____ _____    ______ ____

>  <TORSDO>
F 9

$$$$
=
 OpenBabel11042422293D

 34 37  0  0  0  0  0  0  0  0999 V2000
  161.8430  207.2340  148.0720 C   0  0  0  0  0  3  0  0  0  0  0  0
  161.1770  203.6700  148.0920 C   0  0  0  0  0  0  0  0  0  0  0  0
  161.4340  206.6060  150.4070 C   0  0  0  0  0  0  0  0  0  0  0  0
  161.3300  203.6850  146.7150 C   0  0  0  0  0  0  0  0  0  0  0  0
  160.9410  201.3720  146.5730 C   0  0  0  0  0  3  0  0  0  0  0  0
  161.3380  204.9350  148.6590 C   0  0  0  0  0  0  0  0  0  0  0  0
  160.9030  202.4680  148.7450 C   0  0  0  0  0  3  0  0  0  0  0  0
  161.6630  205.2430  146.1600 S   0  0  0  0  0  0  0  0  0  0  0  0
  161.2120  202.5640  145.9620 N   0  0  0  0  0  0  0  0  0  0  0  0
  161.6160  205.9110  147.7120 C   0  0  0  0  0  0  0  0  0  0  0  0
  161.7720  207.5950  149.4310 C   0  0  0  0  0  0  0  0  0  0  0  0
  160.7850  201.3040  147.9710 C   0  0  0  0  0  3  0  0  0  0  0  0
  161.2370  205.2690  150.0070 C   0  0  0  0  0  3  0  0  0  0  0  0
  161.8240  210.0490  148.8760 N   0  0  0  0  0  2  0  0  0  0  0  0
  162.7220  209.2370  150.8750 O   0  0  0  0  0  0  0  0  0  0  0  0
  162.1240  208.9870  149.7880 C   0  0  0  0  0  0  0  0  0  0  0  0
  162.1420  211.4340  149.1810 C   0  0  0  0  0  2  0  0  0  0  0  0
  162.2170  212.2320  147.9000 C   0  0  0  0  0  2  0  0  0  0  0  0
  160.8700  212.2000  147.2100 C   0  0  0  0  0  2  0  0  0  0  0  0
  160.9900  212.7400  145.9330 O   0  0  0  0  0  0  0  0  0  0  0  0
  162.2640  213.3110  145.9140 C   0  0  0  0  0  1  0  0  0  0  0  0
  162.0740  206.3060  152.8130 C   0  0  0  0  0  1  0  0  0  0  0  0
  161.2490  206.9430  151.7940 N   0  0  0  0  0  0  0  0  0  0  0  0
  160.5000  208.1280  152.1870 C   0  0  0  0  0  2  0  0  0  0  0  0
  160.9370  208.5870  153.5700 C   0  0  0  0  0  2  0  0  0  0  0  0
  160.3190  209.8590  153.9230 N   0  0  0  0  0  0  0  0  0  0  0  0
  156.7840  212.2990  154.3390 C   0  0  0  0  0  1  0  0  0  0  0  0
  158.6650  211.4590  153.0430 C   0  0  0  0  0  3  0  0  0  0  0  0
  158.2670  211.2630  156.5950 O   0  0  0  0  0  0  0  0  0  0  0  0
  158.0970  211.6020  154.2440 C   0  0  0  0  0  0  0  0  0  0  0  0
  160.0210  210.8320  152.8700 C   0  0  0  0  0  2  0  0  0  0  0  0
  159.8690  210.1120  155.2680 C   0  0  0  0  0  0  0  0  0  0  0  0
  160.5090  209.3030  156.5520 S   0  0  0  0  0  0  0  0  0  0  0  0
  158.7270  211.0210  155.4450 C   0  0  0  0  0  0  0  0  0  0  0  0
  1 11  1  0  0  0  0
  2  6  1  0  0  0  0
  2  7  1  0  0  0  0
  3 23  1  0  0  0  0
  4  2  2  0  0  0  0
  5 12  1  0  0  0  0
  6 13  2  0  0  0  0
  8  4  1  0  0  0  0
  8 10  1  0  0  0  0
  9  5  2  0  0  0  0
  9  4  1  0  0  0  0
 10  1  2  0  0  0  0
 10  6  1  0  0  0  0
 11 16  1  0  0  0  0
 11  3  2  0  0  0  0
 12  7  2  0  0  0  0
 13  3  1  0  0  0  0
 14 17  1  0  0  0  0
 14 16  1  0  0  0  0
 16 15  2  0  0  0  0
 18 17  1  0  0  0  0
 19 18  1  0  0  0  0
 20 19  1  0  0  0  0
 21 20  1  0  0  0  0
 23 24  1  0  0  0  0
 23 22  1  0  0  0  0
 24 25  1  0  0  0  0
 25 26  1  0  0  0  0
 26 32  1  0  0  0  0
 28 30  2  0  0  0  0
 30 27  1  0  0  0  0
 30 34  1  0  0  0  0
 31 28  1  0  0  0  0
 31 26  1  0  0  0  0
 32 34  1  0  0  0  0
 32 33  2  0  0  0  0
 34 29  2  0  0  0  0
M  END
>  <MODEL>
2

>  <REMARK>
 VINA RESULT:      -7.3      3.146      5.433
  Name = 
  9 active torsions:
  status: ('A' for Active; 'I' for Inactive)
    1  A    between atoms: N_1  and  C_26
    2  A    between atoms: C_2  and  C_9
    3  A    between atoms: C_2  and  C_28
    4  A    between atoms: N_8  and  C_28
    5  A    between atoms: C_9  and  O_24
    6  A    between atoms: C_12  and  C_26
    7  A    between atoms: C_12  and  N_29
    8  A    between atoms: C_16  and  N_29
    9  A    between atoms: C_22  and  C_31
                            x       y       z     vdW  Elec       q    Type
                         _______ _______ _______ _____ _____    ______ ____

>  <TORSDO>
F 9

$$$$
=
 OpenBabel11042422293D

 34 37  0  0  0  0  0  0  0  0999 V2000
  161.7920  210.7520  151.4380 C   0  0  0  0  0  3  0  0  0  0  0  0
  160.9670  208.3200  153.9970 C   0  0  0  0  0  0  0  0  0  0  0  0
  161.5220  208.5960  150.3010 C   0  0  0  0  0  0  0  0  0  0  0  0
  161.0650  209.3410  154.9280 C   0  0  0  0  0  0  0  0  0  0  0  0
  160.5160  207.8870  156.6900 C   0  0  0  0  0  3  0  0  0  0  0  0
  161.2320  208.7560  152.6980 C   0  0  0  0  0  0  0  0  0  0  0  0
  160.6260  207.0320  154.4140 C   0  0  0  0  0  3  0  0  0  0  0  0
  161.4780  210.7990  154.1870 S   0  0  0  0  0  0  0  0  0  0  0  0
  160.8500  209.1360  156.2510 N   0  0  0  0  0  0  0  0  0  0  0  0
  161.5290  210.1110  152.6430 C   0  0  0  0  0  0  0  0  0  0  0  0
  161.7740  210.0030  150.2470 C   0  0  0  0  0  0  0  0  0  0  0  0
  160.3970  206.8170  155.7820 C   0  0  0  0  0  3  0  0  0  0  0  0
  161.2320  207.9860  151.5380 C   0  0  0  0  0  3  0  0  0  0  0  0
  162.8680  211.8370  148.9150 N   0  0  0  0  0  2  0  0  0  0  0  0
  161.2740  210.4230  147.9540 O   0  0  0  0  0  0  0  0  0  0  0  0
  161.9530  210.7360  148.9750 C   0  0  0  0  0  0  0  0  0  0  0  0
  163.0860  212.5860  147.6890 C   0  0  0  0  0  2  0  0  0  0  0  0
  162.5700  213.9970  147.8570 C   0  0  0  0  0  2  0  0  0  0  0  0
  161.3030  214.1650  147.0470 C   0  0  0  0  0  2  0  0  0  0  0  0
  160.2270  213.6330  147.7530 O   0  0  0  0  0  0  0  0  0  0  0  0
  159.3770  213.1310  146.7670 C   0  0  0  0  0  1  0  0  0  0  0  0
  162.8600  207.6040  148.4270 C   0  0  0  0  0  1  0  0  0  0  0  0
  161.5920  207.7680  149.1250 N   0  0  0  0  0  0  0  0  0  0  0  0
  160.5240  206.8350  148.7990 C   0  0  0  0  0  2  0  0  0  0  0  0
  160.9700  205.9030  147.6810 C   0  0  0  0  0  2  0  0  0  0  0  0
  161.2970  204.5800  148.1980 N   0  0  0  0  0  0  0  0  0  0  0  0
  160.0250  200.8050  149.8560 C   0  0  0  0  0  1  0  0  0  0  0  0
  160.7560  203.1130  150.1010 C   0  0  0  0  0  3  0  0  0  0  0  0
  161.0330  201.0900  147.1620 O   0  0  0  0  0  0  0  0  0  0  0  0
  160.6310  202.0480  149.3050 C   0  0  0  0  0  0  0  0  0  0  0  0
  161.4220  204.3800  149.6430 C   0  0  0  0  0  2  0  0  0  0  0  0
  161.3580  203.4400  147.3190 C   0  0  0  0  0  0  0  0  0  0  0  0
  161.6430  203.6160  145.7060 S   0  0  0  0  0  0  0  0  0  0  0  0
  161.0250  202.1250  147.8840 C   0  0  0  0  0  0  0  0  0  0  0  0
  1 10  1  0  0  0  0
  2  7  2  0  0  0  0
  2  4  1  0  0  0  0
  3 13  2  0  0  0  0
  4  9  2  0  0  0  0
  6  2  1  0  0  0  0
  7 12  1  0  0  0  0
  8  4  1  0  0  0  0
  9  5  1  0  0  0  0
 10  6  2  0  0  0  0
 10  8  1  0  0  0  0
 11  3  1  0  0  0  0
 11  1  2  0  0  0  0
 12  5  2  0  0  0  0
 13  6  1  0  0  0  0
 14 16  1  0  0  0  0
 15 16  2  0  0  0  0
 16 11  1  0  0  0  0
 17 18  1  0  0  0  0
 17 14  1  0  0  0  0
 19 20  1  0  0  0  0
 19 18  1  0  0  0  0
 21 20  1  0  0  0  0
 22 23  1  0  0  0  0
 23  3  1  0  0  0  0
 24 23  1  0  0  0  0
 25 26  1  0  0  0  0
 25 24  1  0  0  0  0
 26 31  1  0  0  0  0
 29 34  2  0  0  0  0
 30 27  1  0  0  0  0
 30 28  2  0  0  0  0
 31 28  1  0  0  0  0
 32 34  1  0  0  0  0
 32 26  1  0  0  0  0
 33 32  2  0  0  0  0
 34 30  1  0  0  0  0
M  END
>  <MODEL>
3

>  <REMARK>
 VINA RESULT:      -6.9      3.665      8.871
  Name = 
  9 active torsions:
  status: ('A' for Active; 'I' for Inactive)
    1  A    between atoms: N_1  and  C_26
    2  A    between atoms: C_2  and  C_9
    3  A    between atoms: C_2  and  C_28
    4  A    between atoms: N_8  and  C_28
    5  A    between atoms: C_9  and  O_24
    6  A    between atoms: C_12  and  C_26
    7  A    between atoms: C_12  and  N_29
    8  A    between atoms: C_16  and  N_29
    9  A    between atoms: C_22  and  C_31
                            x       y       z     vdW  Elec       q    Type
                         _______ _______ _______ _____ _____    ______ ____

>  <TORSDO>
F 9

$$$$
=
 OpenBabel11042422293D

 34 37  0  0  0  0  0  0  0  0999 V2000
  160.8620  206.4590  151.8640 C   0  0  0  0  0  3  0  0  0  0  0  0
  161.3590  204.9700  148.5950 C   0  0  0  0  0  0  0  0  0  0  0  0
  161.5420  208.2730  150.3580 C   0  0  0  0  0  0  0  0  0  0  0  0
  161.0290  203.7480  149.1580 C   0  0  0  0  0  0  0  0  0  0  0  0
  161.2880  202.6470  147.0990 C   0  0  0  0  0  3  0  0  0  0  0  0
  161.3320  206.0100  149.5260 C   0  0  0  0  0  0  0  0  0  0  0  0
  161.6590  205.0480  147.2350 C   0  0  0  0  0  3  0  0  0  0  0  0
  160.6990  203.9090  150.8050 S   0  0  0  0  0  0  0  0  0  0  0  0
  160.9960  202.6030  148.4320 N   0  0  0  0  0  0  0  0  0  0  0  0
  160.9790  205.5760  150.7970 C   0  0  0  0  0  0  0  0  0  0  0  0
  161.1260  207.8260  151.6520 C   0  0  0  0  0  0  0  0  0  0  0  0
  161.6210  203.8660  146.4780 C   0  0  0  0  0  3  0  0  0  0  0  0
  161.6230  207.3520  149.2940 C   0  0  0  0  0  3  0  0  0  0  0  0
  159.9820  209.8490  152.6180 N   0  0  0  0  0  2  0  0  0  0  0  0
  161.5120  208.6030  153.8720 O   0  0  0  0  0  0  0  0  0  0  0  0
  160.8890  208.7520  152.7810 C   0  0  0  0  0  0  0  0  0  0  0  0
  159.7090  210.7830  153.6970 C   0  0  0  0  0  2  0  0  0  0  0  0
  158.5080  211.6300  153.3430 C   0  0  0  0  0  2  0  0  0  0  0  0
  157.6040  211.7440  154.5510 C   0  0  0  0  0  2  0  0  0  0  0  0
  156.8350  212.9010  154.4470 O   0  0  0  0  0  0  0  0  0  0  0  0
  157.1940  213.4480  153.2140 C   0  0  0  0  0  1  0  0  0  0  0  0
  162.7390  210.3510  151.0880 C   0  0  0  0  0  1  0  0  0  0  0  0
  161.9210  209.6400  150.1140 N   0  0  0  0  0  0  0  0  0  0  0  0
  161.7920  210.2310  148.7910 C   0  0  0  0  0  2  0  0  0  0  0  0
  162.1100  211.7180  148.8510 C   0  0  0  0  0  2  0  0  0  0  0  0
  161.1130  212.4990  148.1280 N   0  0  0  0  0  0  0  0  0  0  0  0
  157.3390  212.7180  146.0470 C   0  0  0  0  0  1  0  0  0  0  0  0
  159.7490  212.3810  146.0800 C   0  0  0  0  0  3  0  0  0  0  0  0
  157.7680  213.8520  148.6710 O   0  0  0  0  0  0  0  0  0  0  0  0
  158.6620  212.8150  146.7230 C   0  0  0  0  0  0  0  0  0  0  0  0
  161.1290  212.5090  146.6630 C   0  0  0  0  0  2  0  0  0  0  0  0
  160.0320  213.1420  148.8270 C   0  0  0  0  0  0  0  0  0  0  0  0
  160.1550  213.5330  150.4230 S   0  0  0  0  0  0  0  0  0  0  0  0
  158.7630  213.3200  148.1060 C   0  0  0  0  0  0  0  0  0  0  0  0
  2  4  1  0  0  0  0
  2  6  1  0  0  0  0
  3 11  2  0  0  0  0
  4  8  1  0  0  0  0
  5  9  1  0  0  0  0
  6 10  1  0  0  0  0
  7  2  2  0  0  0  0
  9  4  2  0  0  0  0
 10  8  1  0  0  0  0
 10  1  2  0  0  0  0
 11  1  1  0  0  0  0
 11 16  1  0  0  0  0
 12  5  2  0  0  0  0
 12  7  1  0  0  0  0
 13  6  2  0  0  0  0
 13  3  1  0  0  0  0
 14 16  1  0  0  0  0
 14 17  1  0  0  0  0
 16 15  2  0  0  0  0
 18 17  1  0  0  0  0
 18 19  1  0  0  0  0
 20 19  1  0  0  0  0
 21 20  1  0  0  0  0
 23  3  1  0  0  0  0
 23 22  1  0  0  0  0
 24 25  1  0  0  0  0
 24 23  1  0  0  0  0
 26 32  1  0  0  0  0
 26 25  1  0  0  0  0
 27 30  1  0  0  0  0
 28 31  1  0  0  0  0
 28 30  2  0  0  0  0
 30 34  1  0  0  0  0
 31 26  1  0  0  0  0
 32 33  2  0  0  0  0
 34 29  2  0  0  0  0
 34 32  1  0  0  0  0
M  END
>  <MODEL>
4

>  <REMARK>
 VINA RESULT:      -6.8      2.502      3.519
  Name = 
  9 active torsions:
  status: ('A' for Active; 'I' for Inactive)
    1  A    between atoms: N_1  and  C_26
    2  A    between atoms: C_2  and  C_9
    3  A    between atoms: C_2  and  C_28
    4  A    between atoms: N_8  and  C_28
    5  A    between atoms: C_9  and  O_24
    6  A    between atoms: C_12  and  C_26
    7  A    between atoms: C_12  and  N_29
    8  A    between atoms: C_16  and  N_29
    9  A    between atoms: C_22  and  C_31
                            x       y       z     vdW  Elec       q    Type
                         _______ _______ _______ _____ _____    ______ ____

>  <TORSDO>
F 9

$$$$
=
 OpenBabel11042422293D

 34 37  0  0  0  0  0  0  0  0999 V2000
  160.8910  206.2650  151.2050 C   0  0  0  0  0  3  0  0  0  0  0  0
  161.6320  205.2390  147.8070 C   0  0  0  0  0  0  0  0  0  0  0  0
  161.6170  208.2760  150.0040 C   0  0  0  0  0  0  0  0  0  0  0  0
  161.3000  203.9460  148.1790 C   0  0  0  0  0  0  0  0  0  0  0  0
  161.7170  203.1380  146.0130 C   0  0  0  0  0  3  0  0  0  0  0  0
  161.5190  206.1430  148.8650 C   0  0  0  0  0  0  0  0  0  0  0  0
  162.0160  205.5050  146.4920 C   0  0  0  0  0  3  0  0  0  0  0  0
  160.8630  203.8780  149.8070 S   0  0  0  0  0  0  0  0  0  0  0  0
  161.3440  202.9100  147.3060 N   0  0  0  0  0  0  0  0  0  0  0  0
  161.0980  205.5360  150.0410 C   0  0  0  0  0  0  0  0  0  0  0  0
  161.1320  207.6520  151.1960 C   0  0  0  0  0  0  0  0  0  0  0  0
  162.0570  204.4360  145.5840 C   0  0  0  0  0  3  0  0  0  0  0  0
  161.7880  207.5090  148.8340 C   0  0  0  0  0  3  0  0  0  0  0  0
  161.3010  207.9690  153.6870 N   0  0  0  0  0  2  0  0  0  0  0  0
  160.0440  209.4260  152.3600 O   0  0  0  0  0  0  0  0  0  0  0  0
  160.8000  208.4130  152.4200 C   0  0  0  0  0  0  0  0  0  0  0  0
  161.0110  208.6830  154.9190 C   0  0  0  0  0  2  0  0  0  0  0  0
  162.0580  209.7490  155.1470 C   0  0  0  0  0  2  0  0  0  0  0  0
  161.3780  211.0380  155.5530 C   0  0  0  0  0  2  0  0  0  0  0  0
  160.8350  211.6510  154.4270 O   0  0  0  0  0  0  0  0  0  0  0  0
  159.6930  212.3000  154.9000 C   0  0  0  0  0  1  0  0  0  0  0  0
  162.6740  210.2680  151.1000 C   0  0  0  0  0  1  0  0  0  0  0  0
  161.9740  209.6700  149.9700 N   0  0  0  0  0  0  0  0  0  0  0  0
  161.9530  210.4220  148.7240 C   0  0  0  0  0  2  0  0  0  0  0  0
  162.0020  211.9150  149.0150 C   0  0  0  0  0  2  0  0  0  0  0  0
  161.0010  212.6360  148.2370 N   0  0  0  0  0  0  0  0  0  0  0  0
  157.2450  212.6740  146.1150 C   0  0  0  0  0  1  0  0  0  0  0  0
  159.6580  212.3740  146.1890 C   0  0  0  0  0  3  0  0  0  0  0  0
  157.6330  213.9720  148.6680 O   0  0  0  0  0  0  0  0  0  0  0  0
  158.5600  212.8310  146.7950 C   0  0  0  0  0  0  0  0  0  0  0  0
  161.0310  212.5570  146.7740 C   0  0  0  0  0  2  0  0  0  0  0  0
  159.9040  213.3050  148.8870 C   0  0  0  0  0  0  0  0  0  0  0  0
  160.0070  213.7940  150.4570 S   0  0  0  0  0  0  0  0  0  0  0  0
  158.6400  213.4210  148.1460 C   0  0  0  0  0  0  0  0  0  0  0  0
  2  4  1  0  0  0  0
  2  6  1  0  0  0  0
  3 11  2  0  0  0  0
  4  8  1  0  0  0  0
  5  9  1  0  0  0  0
  6 10  1  0  0  0  0
  7  2  2  0  0  0  0
  8 10  1  0  0  0  0
  9  4  2  0  0  0  0
 10  1  2  0  0  0  0
 11  1  1  0  0  0  0
 11 16  1  0  0  0  0
 12  5  2  0  0  0  0
 12  7  1  0  0  0  0
 13  6  2  0  0  0  0
 13  3  1  0  0  0  0
 14 17  1  0  0  0  0
 15 16  2  0  0  0  0
 16 14  1  0  0  0  0
 17 18  1  0  0  0  0
 18 19  1  0  0  0  0
 20 21  1  0  0  0  0
 20 19  1  0  0  0  0
 23  3  1  0  0  0  0
 23 22  1  0  0  0  0
 24 25  1  0  0  0  0
 24 23  1  0  0  0  0
 26 32  1  0  0  0  0
 26 25  1  0  0  0  0
 27 30  1  0  0  0  0
 28 31  1  0  0  0  0
 28 30  2  0  0  0  0
 30 34  1  0  0  0  0
 31 26  1  0  0  0  0
 32 33  2  0  0  0  0
 34 29  2  0  0  0  0
 34 32  1  0  0  0  0
M  END
>  <MODEL>
5

>  <REMARK>
 VINA RESULT:      -6.8      2.618      3.258
  Name = 
  9 active torsions:
  status: ('A' for Active; 'I' for Inactive)
    1  A    between atoms: N_1  and  C_26
    2  A    between atoms: C_2  and  C_9
    3  A    between atoms: C_2  and  C_28
    4  A    between atoms: N_8  and  C_28
    5  A    between atoms: C_9  and  O_24
    6  A    between atoms: C_12  and  C_26
    7  A    between atoms: C_12  and  N_29
    8  A    between atoms: C_16  and  N_29
    9  A    between atoms: C_22  and  C_31
                            x       y       z     vdW  Elec       q    Type
                         _______ _______ _______ _____ _____    ______ ____

>  <TORSDO>
F 9

$$$$
=
 OpenBabel11042422293D

 34 37  0  0  0  0  0  0  0  0999 V2000
  160.9010  206.2220  151.3110 C   0  0  0  0  0  3  0  0  0  0  0  0
  161.5490  205.3260  147.8570 C   0  0  0  0  0  0  0  0  0  0  0  0
  161.5980  208.2780  150.1670 C   0  0  0  0  0  0  0  0  0  0  0  0
  161.2240  204.0200  148.1890 C   0  0  0  0  0  0  0  0  0  0  0  0
  161.5810  203.2950  145.9830 C   0  0  0  0  0  3  0  0  0  0  0  0
  161.4660  206.1890  148.9510 C   0  0  0  0  0  0  0  0  0  0  0  0
  161.8970  205.6420  146.5440 C   0  0  0  0  0  3  0  0  0  0  0  0
  160.8310  203.8900  149.8240 S   0  0  0  0  0  0  0  0  0  0  0  0
  161.2420  203.0170  147.2760 N   0  0  0  0  0  0  0  0  0  0  0  0
  161.0760  205.5380  150.1140 C   0  0  0  0  0  0  0  0  0  0  0  0
  161.1440  207.6090  151.3470 C   0  0  0  0  0  0  0  0  0  0  0  0
  161.9120  204.6080  145.5950 C   0  0  0  0  0  3  0  0  0  0  0  0
  161.7370  207.5550  148.9650 C   0  0  0  0  0  3  0  0  0  0  0  0
  160.0820  209.5330  152.5720 N   0  0  0  0  0  2  0  0  0  0  0  0
  161.2970  207.8920  153.7090 O   0  0  0  0  0  0  0  0  0  0  0  0
  160.8470  208.3220  152.6080 C   0  0  0  0  0  0  0  0  0  0  0  0
  159.7560  210.2700  153.7820 C   0  0  0  0  0  2  0  0  0  0  0  0
  160.0010  211.7450  153.5610 C   0  0  0  0  0  2  0  0  0  0  0  0
  158.7950  212.5280  154.0290 C   0  0  0  0  0  2  0  0  0  0  0  0
  157.6530  211.7430  153.8980 O   0  0  0  0  0  0  0  0  0  0  0  0
  156.5970  212.6560  153.9330 C   0  0  0  0  0  1  0  0  0  0  0  0
  162.7730  210.2040  151.2610 C   0  0  0  0  0  1  0  0  0  0  0  0
  161.9570  209.6710  150.1770 N   0  0  0  0  0  0  0  0  0  0  0  0
  161.8110  210.4940  148.9850 C   0  0  0  0  0  2  0  0  0  0  0  0
  161.5830  211.9460  149.3780 C   0  0  0  0  0  2  0  0  0  0  0  0
  161.6320  212.8210  148.2120 N   0  0  0  0  0  0  0  0  0  0  0  0
  161.4820  213.3410  143.9310 C   0  0  0  0  0  1  0  0  0  0  0  0
  162.7050  212.9530  145.9990 C   0  0  0  0  0  3  0  0  0  0  0  0
  159.3540  214.1740  145.7020 O   0  0  0  0  0  0  0  0  0  0  0  0
  161.5650  213.3370  145.4180 C   0  0  0  0  0  0  0  0  0  0  0  0
  162.8950  212.9900  147.4900 C   0  0  0  0  0  2  0  0  0  0  0  0
  160.4290  213.4060  147.6790 C   0  0  0  0  0  0  0  0  0  0  0  0
  159.0900  213.6170  148.6160 S   0  0  0  0  0  0  0  0  0  0  0  0
  160.3880  213.6860  146.2370 C   0  0  0  0  0  0  0  0  0  0  0  0
  1 11  1  0  0  0  0
  2  4  1  0  0  0  0
  2  6  1  0  0  0  0
  3 23  1  0  0  0  0
  3 11  2  0  0  0  0
  4  8  1  0  0  0  0
  5  9  1  0  0  0  0
  6 13  2  0  0  0  0
  6 10  1  0  0  0  0
  7  2  2  0  0  0  0
  8 10  1  0  0  0  0
  9  4  2  0  0  0  0
 10  1  2  0  0  0  0
 11 16  1  0  0  0  0
 12  5  2  0  0  0  0
 12  7  1  0  0  0  0
 13  3  1  0  0  0  0
 14 16  1  0  0  0  0
 14 17  1  0  0  0  0
 16 15  2  0  0  0  0
 18 17  1  0  0  0  0
 18 19  1  0  0  0  0
 20 21  1  0  0  0  0
 20 19  1  0  0  0  0
 23 22  1  0  0  0  0
 24 25  1  0  0  0  0
 24 23  1  0  0  0  0
 26 25  1  0  0  0  0
 27 30  1  0  0  0  0
 28 31  1  0  0  0  0
 29 34  2  0  0  0  0
 30 28  2  0  0  0  0
 30 34  1  0  0  0  0
 31 26  1  0  0  0  0
 32 26  1  0  0  0  0
 32 33  2  0  0  0  0
 34 32  1  0  0  0  0
M  END
>  <MODEL>
6

>  <REMARK>
 VINA RESULT:      -6.1      3.256      4.210
  Name = 
  9 active torsions:
  status: ('A' for Active; 'I' for Inactive)
    1  A    between atoms: N_1  and  C_26
    2  A    between atoms: C_2  and  C_9
    3  A    between atoms: C_2  and  C_28
    4  A    between atoms: N_8  and  C_28
    5  A    between atoms: C_9  and  O_24
    6  A    between atoms: C_12  and  C_26
    7  A    between atoms: C_12  and  N_29
    8  A    between atoms: C_16  and  N_29
    9  A    between atoms: C_22  and  C_31
                            x       y       z     vdW  Elec       q    Type
                         _______ _______ _______ _____ _____    ______ ____

>  <TORSDO>
F 9

$$$$
=
 OpenBabel11042422293D

 34 37  0  0  0  0  0  0  0  0999 V2000
  161.0030  207.1380  153.9120 C   0  0  0  0  0  3  0  0  0  0  0  0
  160.0140  210.6240  154.0500 C   0  0  0  0  0  0  0  0  0  0  0  0
  161.0730  207.9830  151.6100 C   0  0  0  0  0  0  0  0  0  0  0  0
  159.8520  210.4720  155.4170 C   0  0  0  0  0  0  0  0  0  0  0  0
  159.2180  212.7200  155.6670 C   0  0  0  0  0  3  0  0  0  0  0  0
  160.4220  209.4440  153.4270 C   0  0  0  0  0  0  0  0  0  0  0  0
  159.7790  211.8660  153.4580 C   0  0  0  0  0  3  0  0  0  0  0  0
  160.2020  208.8920  155.8960 S   0  0  0  0  0  0  0  0  0  0  0  0
  159.4570  211.4930  156.2170 N   0  0  0  0  0  0  0  0  0  0  0  0
  160.5720  208.3940  154.3230 C   0  0  0  0  0  0  0  0  0  0  0  0
  161.2770  206.9230  152.5480 C   0  0  0  0  0  0  0  0  0  0  0  0
  159.3750  212.9280  154.2830 C   0  0  0  0  0  3  0  0  0  0  0  0
  160.6620  209.2510  152.0690 C   0  0  0  0  0  3  0  0  0  0  0  0
  161.0390  204.4270  152.3220 N   0  0  0  0  0  2  0  0  0  0  0  0
  163.0200  205.5170  151.7300 O   0  0  0  0  0  0  0  0  0  0  0  0
  161.8340  205.6080  152.1620 C   0  0  0  0  0  0  0  0  0  0  0  0
  161.5350  203.1130  151.9520 C   0  0  0  0  0  2  0  0  0  0  0  0
  160.6860  202.5430  150.8390 C   0  0  0  0  0  2  0  0  0  0  0  0
  161.1580  201.1430  150.5160 C   0  0  0  0  0  2  0  0  0  0  0  0
  160.4240  200.6410  149.4450 O   0  0  0  0  0  0  0  0  0  0  0  0
  159.2200  201.3460  149.4880 C   0  0  0  0  0  1  0  0  0  0  0  0
  162.2020  208.5960  149.4560 C   0  0  0  0  0  1  0  0  0  0  0  0
  161.2410  207.7850  150.1940 N   0  0  0  0  0  0  0  0  0  0  0  0
  160.7280  206.5930  149.5360 C   0  0  0  0  0  2  0  0  0  0  0  0
  160.7300  206.7900  148.0270 C   0  0  0  0  0  2  0  0  0  0  0  0
  161.2680  205.6200  147.3440 N   0  0  0  0  0  0  0  0  0  0  0  0
  160.9060  201.4750  146.1970 C   0  0  0  0  0  1  0  0  0  0  0  0
  161.6400  203.2160  147.7320 C   0  0  0  0  0  3  0  0  0  0  0  0
  160.6220  203.6640  144.3310 O   0  0  0  0  0  0  0  0  0  0  0  0
  161.1910  202.9020  146.5130 C   0  0  0  0  0  0  0  0  0  0  0  0
  162.0200  204.6210  148.1080 C   0  0  0  0  0  2  0  0  0  0  0  0
  160.9510  205.3620  145.9630 C   0  0  0  0  0  0  0  0  0  0  0  0
  160.4950  206.5750  144.9470 S   0  0  0  0  0  0  0  0  0  0  0  0
  160.9190  203.9600  145.5210 C   0  0  0  0  0  0  0  0  0  0  0  0
  1 10  1  0  0  0  0
  2  4  1  0  0  0  0
  3 13  2  0  0  0  0
  3 11  1  0  0  0  0
  4  8  1  0  0  0  0
  4  9  2  0  0  0  0
  5  9  1  0  0  0  0
  6  2  1  0  0  0  0
  6 10  2  0  0  0  0
  7  2  2  0  0  0  0
  7 12  1  0  0  0  0
 10  8  1  0  0  0  0
 11  1  2  0  0  0  0
 12  5  2  0  0  0  0
 13  6  1  0  0  0  0
 15 16  2  0  0  0  0
 16 14  1  0  0  0  0
 16 11  1  0  0  0  0
 17 14  1  0  0  0  0
 18 17  1  0  0  0  0
 19 18  1  0  0  0  0
 20 21  1  0  0  0  0
 20 19  1  0  0  0  0
 22 23  1  0  0  0  0
 23  3  1  0  0  0  0
 24 23  1  0  0  0  0
 25 24  1  0  0  0  0
 26 25  1  0  0  0  0
 26 31  1  0  0  0  0
 27 30  1  0  0  0  0
 28 31  1  0  0  0  0
 29 34  2  0  0  0  0
 30 28  2  0  0  0  0
 32 26  1  0  0  0  0
 33 32  2  0  0  0  0
 34 32  1  0  0  0  0
 34 30  1  0  0  0  0
M  END
>  <MODEL>
7

>  <REMARK>
 VINA RESULT:      -6.1      3.708      8.861
  Name = 
  9 active torsions:
  status: ('A' for Active; 'I' for Inactive)
    1  A    between atoms: N_1  and  C_26
    2  A    between atoms: C_2  and  C_9
    3  A    between atoms: C_2  and  C_28
    4  A    between atoms: N_8  and  C_28
    5  A    between atoms: C_9  and  O_24
    6  A    between atoms: C_12  and  C_26
    7  A    between atoms: C_12  and  N_29
    8  A    between atoms: C_16  and  N_29
    9  A    between atoms: C_22  and  C_31
                            x       y       z     vdW  Elec       q    Type
                         _______ _______ _______ _____ _____    ______ ____

>  <TORSDO>
F 9

$$$$
=
 OpenBabel11042422293D

 34 37  0  0  0  0  0  0  0  0999 V2000
  158.2960  213.5600  147.7330 C   0  0  0  0  0  3  0  0  0  0  0  0
  158.3190  213.7730  151.3530 C   0  0  0  0  0  0  0  0  0  0  0  0
  160.6080  213.1620  148.4480 C   0  0  0  0  0  0  0  0  0  0  0  0
  156.9620  214.0500  151.2940 C   0  0  0  0  0  0  0  0  0  0  0  0
  156.8170  214.1940  153.6350 C   0  0  0  0  0  3  0  0  0  0  0  0
  158.8800  213.5930  150.0880 C   0  0  0  0  0  0  0  0  0  0  0  0
  158.9570  213.6940  152.5910 C   0  0  0  0  0  3  0  0  0  0  0  0
  156.4190  214.0830  149.6970 S   0  0  0  0  0  0  0  0  0  0  0  0
  156.2190  214.2620  152.4090 N   0  0  0  0  0  0  0  0  0  0  0  0
  157.9490  213.7320  149.0680 C   0  0  0  0  0  0  0  0  0  0  0  0
  159.6310  213.2540  147.4080 C   0  0  0  0  0  0  0  0  0  0  0  0
  158.1910  213.9080  153.7470 C   0  0  0  0  0  3  0  0  0  0  0  0
  160.2130  213.3160  149.7920 C   0  0  0  0  0  3  0  0  0  0  0  0
  160.4720  214.0160  145.1610 N   0  0  0  0  0  2  0  0  0  0  0  0
  159.7060  211.8330  145.4960 O   0  0  0  0  0  0  0  0  0  0  0  0
  159.9420  212.9730  145.9890 C   0  0  0  0  0  0  0  0  0  0  0  0
  160.8020  213.7910  143.7640 C   0  0  0  0  0  2  0  0  0  0  0  0
  162.0610  212.9620  143.6650 C   0  0  0  0  0  2  0  0  0  0  0  0
  162.1480  212.3460  142.2860 C   0  0  0  0  0  2  0  0  0  0  0  0
  161.0020  211.5950  142.0410 O   0  0  0  0  0  0  0  0  0  0  0  0
  161.3250  210.8210  140.9250 C   0  0  0  0  0  1  0  0  0  0  0  0
  162.8340  214.0730  147.7380 C   0  0  0  0  0  1  0  0  0  0  0  0
  162.0030  212.9530  148.1610 N   0  0  0  0  0  0  0  0  0  0  0  0
  162.6840  211.7410  148.5890 C   0  0  0  0  0  2  0  0  0  0  0  0
  161.7020  210.5790  148.6380 C   0  0  0  0  0  2  0  0  0  0  0  0
  162.0340  209.6540  149.7150 N   0  0  0  0  0  0  0  0  0  0  0  0
  160.8180  207.3310  153.1420 C   0  0  0  0  0  1  0  0  0  0  0  0
  161.6770  209.3740  152.1360 C   0  0  0  0  0  3  0  0  0  0  0  0
  161.4860  206.1530  150.5880 O   0  0  0  0  0  0  0  0  0  0  0  0
  161.4040  208.0740  151.9930 C   0  0  0  0  0  0  0  0  0  0  0  0
  162.3340  210.1780  151.0490 C   0  0  0  0  0  2  0  0  0  0  0  0
  161.9310  208.2310  149.5210 C   0  0  0  0  0  0  0  0  0  0  0  0
  162.0150  207.5620  148.0180 S   0  0  0  0  0  0  0  0  0  0  0  0
  161.6160  207.4040  150.6950 C   0  0  0  0  0  0  0  0  0  0  0  0
  1 10  1  0  0  0  0
  2  7  1  0  0  0  0
  3 13  2  0  0  0  0
  4  2  2  0  0  0  0
  4  9  1  0  0  0  0
  5 12  1  0  0  0  0
  6  2  1  0  0  0  0
  7 12  2  0  0  0  0
  8  4  1  0  0  0  0
  9  5  2  0  0  0  0
 10  8  1  0  0  0  0
 10  6  2  0  0  0  0
 11  1  2  0  0  0  0
 11  3  1  0  0  0  0
 13  6  1  0  0  0  0
 14 16  1  0  0  0  0
 15 16  2  0  0  0  0
 16 11  1  0  0  0  0
 17 14  1  0  0  0  0
 18 17  1  0  0  0  0
 19 18  1  0  0  0  0
 20 19  1  0  0  0  0
 21 20  1  0  0  0  0
 22 23  1  0  0  0  0
 23  3  1  0  0  0  0
 23 24  1  0  0  0  0
 24 25  1  0  0  0  0
 25 26  1  0  0  0  0
 26 31  1  0  0  0  0
 29 34  2  0  0  0  0
 30 28  2  0  0  0  0
 30 27  1  0  0  0  0
 31 28  1  0  0  0  0
 32 26  1  0  0  0  0
 32 34  1  0  0  0  0
 33 32  2  0  0  0  0
 34 30  1  0  0  0  0
M  END
>  <MODEL>
8

>  <REMARK>
 VINA RESULT:      -5.8      4.766      9.870
  Name = 
  9 active torsions:
  status: ('A' for Active; 'I' for Inactive)
    1  A    between atoms: N_1  and  C_26
    2  A    between atoms: C_2  and  C_9
    3  A    between atoms: C_2  and  C_28
    4  A    between atoms: N_8  and  C_28
    5  A    between atoms: C_9  and  O_24
    6  A    between atoms: C_12  and  C_26
    7  A    between atoms: C_12  and  N_29
    8  A    between atoms: C_16  and  N_29
    9  A    between atoms: C_22  and  C_31
                            x       y       z     vdW  Elec       q    Type
                         _______ _______ _______ _____ _____    ______ ____

>  <TORSDO>
F 9

$$$$
=
 OpenBabel11042422293D

 34 37  0  0  0  0  0  0  0  0999 V2000
  159.6940  213.2790  150.6140 C   0  0  0  0  0  3  0  0  0  0  0  0
  158.1940  212.2180  153.7400 C   0  0  0  0  0  0  0  0  0  0  0  0
  160.8170  211.1980  151.2640 C   0  0  0  0  0  0  0  0  0  0  0  0
  157.3960  213.3500  153.6820 C   0  0  0  0  0  0  0  0  0  0  0  0
  156.3150  212.7780  155.6880 C   0  0  0  0  0  3  0  0  0  0  0  0
  159.0710  212.1290  152.6570 C   0  0  0  0  0  0  0  0  0  0  0  0
  158.0520  211.3230  154.8010 C   0  0  0  0  0  3  0  0  0  0  0  0
  157.7440  214.2670  152.3100 S   0  0  0  0  0  0  0  0  0  0  0  0
  156.4750  213.6340  154.6360 N   0  0  0  0  0  0  0  0  0  0  0  0
  158.9360  213.1930  151.7750 C   0  0  0  0  0  0  0  0  0  0  0  0
  160.6350  212.2690  150.3350 C   0  0  0  0  0  0  0  0  0  0  0  0
  157.0960  211.6110  155.7880 C   0  0  0  0  0  3  0  0  0  0  0  0
  160.0100  211.1300  152.4180 C   0  0  0  0  0  3  0  0  0  0  0  0
  160.6410  212.7510  147.8650 N   0  0  0  0  0  2  0  0  0  0  0  0
  162.5620  211.9910  148.9590 O   0  0  0  0  0  0  0  0  0  0  0  0
  161.3470  212.3360  149.0400 C   0  0  0  0  0  0  0  0  0  0  0  0
  161.2950  212.8410  146.5700 C   0  0  0  0  0  2  0  0  0  0  0  0
  160.3450  213.4460  145.5620 C   0  0  0  0  0  2  0  0  0  0  0  0
  159.2430  212.4550  145.2560 C   0  0  0  0  0  2  0  0  0  0  0  0
  158.0100  213.0990  145.3160 O   0  0  0  0  0  0  0  0  0  0  0  0
  157.3240  212.4420  146.3390 C   0  0  0  0  0  1  0  0  0  0  0  0
  162.9610  210.1240  151.9980 C   0  0  0  0  0  1  0  0  0  0  0  0
  161.8340  210.1960  151.0770 N   0  0  0  0  0  0  0  0  0  0  0  0
  161.6130  209.0550  150.2020 C   0  0  0  0  0  2  0  0  0  0  0  0
  162.2390  207.8060  150.8050 C   0  0  0  0  0  2  0  0  0  0  0  0
  161.3770  206.6440  150.6240 N   0  0  0  0  0  0  0  0  0  0  0  0
  160.8580  202.5420  149.3900 C   0  0  0  0  0  1  0  0  0  0  0  0
  160.8520  204.9320  148.9320 C   0  0  0  0  0  3  0  0  0  0  0  0
  160.8160  203.3800  152.1560 O   0  0  0  0  0  0  0  0  0  0  0  0
  160.8600  203.9590  149.8470 C   0  0  0  0  0  0  0  0  0  0  0  0
  160.7820  206.3860  149.3100 C   0  0  0  0  0  2  0  0  0  0  0  0
  161.2180  205.6740  151.6760 C   0  0  0  0  0  0  0  0  0  0  0  0
  161.4830  206.0670  153.2530 S   0  0  0  0  0  0  0  0  0  0  0  0
  160.9400  204.2840  151.2850 C   0  0  0  0  0  0  0  0  0  0  0  0
  1 10  1  0  0  0  0
  2  7  1  0  0  0  0
  3 13  2  0  0  0  0
  4  2  2  0  0  0  0
  4  9  1  0  0  0  0
  5 12  1  0  0  0  0
  6  2  1  0  0  0  0
  7 12  2  0  0  0  0
  8  4  1  0  0  0  0
  9  5  2  0  0  0  0
 10  8  1  0  0  0  0
 10  6  2  0  0  0  0
 11  1  2  0  0  0  0
 11  3  1  0  0  0  0
 13  6  1  0  0  0  0
 14 16  1  0  0  0  0
 15 16  2  0  0  0  0
 16 11  1  0  0  0  0
 17 14  1  0  0  0  0
 18 17  1  0  0  0  0
 19 20  1  0  0  0  0
 19 18  1  0  0  0  0
 20 21  1  0  0  0  0
 23  3  1  0  0  0  0
 23 22  1  0  0  0  0
 24 25  1  0  0  0  0
 24 23  1  0  0  0  0
 26 25  1  0  0  0  0
 26 32  1  0  0  0  0
 27 30  1  0  0  0  0
 28 31  1  0  0  0  0
 28 30  2  0  0  0  0
 30 34  1  0  0  0  0
 31 26  1  0  0  0  0
 32 33  2  0  0  0  0
 34 32  1  0  0  0  0
 34 29  2  0  0  0  0
M  END
>  <MODEL>
9

>  <REMARK>
 VINA RESULT:      -5.7      3.238      9.091
  Name = 
  9 active torsions:
  status: ('A' for Active; 'I' for Inactive)
    1  A    between atoms: N_1  and  C_26
    2  A    between atoms: C_2  and  C_9
    3  A    between atoms: C_2  and  C_28
    4  A    between atoms: N_8  and  C_28
    5  A    between atoms: C_9  and  O_24
    6  A    between atoms: C_12  and  C_26
    7  A    between atoms: C_12  and  N_29
    8  A    between atoms: C_16  and  N_29
    9  A    between atoms: C_22  and  C_31
                            x       y       z     vdW  Elec       q    Type
                         _______ _______ _______ _____ _____    ______ ____

>  <TORSDO>
F 9

$$$$
