=
 OpenBabel11052409373D

 44 51  0  0  1  0  0  0  0  0999 V2000
  160.1200  213.1590  151.3430 C   0  0  0  0  0  0  0  0  0  0  0  0
  160.7720  203.6060  150.3770 C   0  0  0  0  0  0  0  0  0  0  0  0
  161.3410  205.6370  151.5630 C   0  0  0  0  0  3  0  0  0  0  0  0
  160.1890  212.3370  152.4430 C   0  0  0  0  0  3  0  0  0  0  0  0
  161.1730  204.9610  150.3510 C   0  0  0  0  0  0  0  0  0  0  0  0
  162.3990  206.6350  154.0850 N   0  0  0  0  0  2  0  0  0  0  0  0
  161.0450  207.2160  153.8820 C   0  0  2  0  0  0  0  0  0  0  0  0
  160.4640  209.5810  153.8900 C   0  0  1  0  0  3  0  0  0  0  0  0
  160.5890  202.9720  151.6170 C   0  0  0  0  0  3  0  0  0  0  0  0
  161.5580  209.1330  148.1590 N   0  0  0  0  0  2  0  0  0  0  0  0
  161.7760  210.4630  148.5860 C   0  0  0  0  0  0  0  0  0  0  0  0
  161.3750  210.2710  152.9680 N   0  0  0  0  0  2  0  0  0  0  0  0
  160.7590  203.6670  152.8180 C   0  0  0  0  0  3  0  0  0  0  0  0
  160.9550  211.2880  152.0930 N   0  0  0  0  0  0  0  0  0  0  0  0
  162.2950  210.6490  149.9810 C   0  0  2  0  0  3  0  0  0  0  0  0
  161.5430  211.4370  147.8240 O   0  0  0  0  0  0  0  0  0  0  0  0
  159.3890  214.4530  151.2900 C   0  0  0  0  0  1  0  0  0  0  0  0
  161.1270  205.0150  152.8000 C   0  0  0  0  0  0  0  0  0  0  0  0
  160.3330  207.5170  155.0760 O   0  0  0  0  0  0  0  0  0  0  0  0
  161.2520  205.7630  154.0970 C   0  0  1  0  0  3  0  0  0  0  0  0
  162.0220  208.2240  149.1310 C   0  0  0  0  0  0  0  0  0  0  0  0
  161.4050  205.6880  149.0830 C   0  0  0  0  0  3  0  0  0  0  0  0
  161.7150  206.9580  149.0720 C   0  0  0  0  0  0  0  0  0  0  0  0
  160.8420  212.6550  150.3270 N   0  0  0  0  0  0  0  0  0  0  0  0
  162.6420  208.9650  150.6380 S   0  0  0  0  0  0  0  0  0  0  0  0
  161.2070  208.4910  154.6510 C   0  0  1  0  0  3  0  0  0  0  0  0
  161.3390  211.4930  150.8070 C   0  0  0  0  0  0  0  0  0  0  0  0
  160.8360  203.4460  147.7690 C   0  0  0  0  0  1  0  0  0  0  0  0
  160.5800  202.8050  149.1220 C   0  0  0  0  0  0  0  0  0  0  0  0
  160.9340  201.3470  149.2150 C   0  0  0  0  0  2  0  0  0  0  0  0
  159.4860  201.7760  149.1380 C   0  0  0  0  0  2  0  0  0  0  0  0
  159.6590  210.5340  154.7810 C   0  0  2  0  0  3  0  0  0  0  0  0
  157.1660  210.5370  155.0140 C   0  0  0  0  0  2  0  0  0  0  0  0
  155.8380  211.0050  154.4240 C   0  0  0  0  0  2  0  0  0  0  0  0
  155.8320  212.5000  154.2880 C   0  0  0  0  0  0  0  0  0  0  0  0
  154.7090  213.1420  154.3770 N   0  0  0  0  0  2  0  0  0  0  0  0
  156.9450  212.9510  152.2380 O   0  0  0  0  0  1  0  0  0  0  0  0
  157.0010  213.1610  153.6180 C   0  0  2  0  0  3  0  0  0  0  0  0
  158.3140  212.6250  154.1720 C   0  0  0  0  0  2  0  0  0  0  0  0
  158.3510  211.0870  154.2090 C   0  0  1  0  0  3  0  0  0  0  0  0
  160.5430  211.5000  155.5370 C   0  0  0  0  0  0  0  0  0  0  0  0
  160.0580  212.5570  156.0180 O   0  0  0  0  0  0  0  0  0  0  0  0
  162.5230  210.9740  156.9070 C   0  0  0  0  0  1  0  0  0  0  0  0
  161.9160  211.2720  155.6620 O   0  0  0  0  0  0  0  0  0  0  0  0
  1  4  2  0  0  0  0
  2  9  1  0  0  0  0
  3 18  2  0  0  0  0
  5  2  2  0  0  0  0
  5  3  1  0  0  0  0
  6 20  1  0  0  0  0
  7  6  1  1  0  0  0
  7 20  1  0  0  0  0
  7 26  1  0  0  0  0
  7 19  1  0  0  0  0
  8 26  1  0  0  0  0
  8 32  1  1  0  0  0
  9 13  2  0  0  0  0
 10 11  1  0  0  0  0
 10 21  1  0  0  0  0
 12  8  1  0  0  0  0
 14  4  1  0  0  0  0
 14 12  1  0  0  0  0
 15 11  1  6  0  0  0
 15 25  1  0  0  0  0
 15 27  1  0  0  0  0
 16 11  2  0  0  0  0
 17  1  1  0  0  0  0
 18 13  1  0  0  0  0
 20 18  1  6  0  0  0
 21 25  1  0  0  0  0
 22  5  1  0  0  0  0
 23 22  2  0  0  0  0
 23 21  2  0  0  0  0
 24 27  2  0  0  0  0
 24  1  1  0  0  0  0
 26 19  1  1  0  0  0
 27 14  1  0  0  0  0
 28 29  1  0  0  0  0
 29 31  1  0  0  0  0
 29 30  1  0  0  0  0
 29  2  1  0  0  0  0
 31 30  1  0  0  0  0
 32 41  1  6  0  0  0
 34 33  1  0  0  0  0
 35 36  2  0  0  0  0
 35 34  1  0  0  0  0
 38 37  1  6  0  0  0
 38 39  1  0  0  0  0
 38 35  1  0  0  0  0
 39 40  1  0  0  0  0
 40 32  1  1  0  0  0
 40 33  1  0  0  0  0
 41 44  1  0  0  0  0
 41 42  2  0  0  0  0
 44 43  1  0  0  0  0
M  END
>  <MODEL>
1

>  <REMARK>
 VINA RESULT:      -7.0      0.000      0.000
  Name = 
  5 active torsions:
  status: ('A' for Active; 'I' for Inactive)
    1  A    between atoms: C_1  and  C_38
    2  A    between atoms: C_1  and  O_43
    3  A    between atoms: C_5  and  C_12
    4  A    between atoms: C_13  and  C_38
    5  A    between atoms: C_38  and  C_42
                            x       y       z     vdW  Elec       q    Type
                         _______ _______ _______ _____ _____    ______ ____

>  <TORSDO>
F 5

$$$$
