=
 OpenBabel11042421243D

 33 38  0  0  1  0  0  0  0  0999 V2000
  161.2260  207.6990  150.4030 C   0  0  1  0  0  3  0  0  0  0  0  0
  161.8160  206.1230  152.1120 C   0  0  2  0  0  0  0  0  0  0  0  0
  161.8820  205.4700  150.8380 C   0  0  2  0  0  3  0  0  0  0  0  0
  161.4690  206.3340  149.9260 C   0  0  2  0  0  3  0  0  0  0  0  0
  160.7290  205.3020  152.7870 C   0  0  1  0  0  3  0  0  0  0  0  0
  161.5950  207.6280  151.8970 C   0  0  2  0  0  3  0  0  0  0  0  0
  161.8770  207.8230  147.7700 S   0  0  0  0  0  0  0  0  0  0  0  0
  161.3720  204.0920  150.9280 C   0  0  2  0  0  3  0  0  0  0  0  0
  160.5480  203.6560  149.7050 C   0  0  1  0  0  3  0  0  0  0  0  0
  160.6150  204.0410  152.1250 O   0  0  0  0  0  0  0  0  0  0  0  0
  161.4250  203.6910  148.4470 C   0  0  0  0  0  2  0  0  0  0  0  0
  161.5680  205.0610  147.8200 C   0  0  0  0  0  3  0  0  0  0  0  0
  161.6140  206.2110  148.5030 C   0  0  0  0  0  0  0  0  0  0  0  0
  162.0970  205.4540  153.4450 C   0  0  0  0  0  2  0  0  0  0  0  0
  162.0810  208.5510  149.4690 C   0  0  1  0  0  3  0  0  0  0  0  0
  160.0920  202.3540  149.9060 O   0  0  0  0  0  1  0  0  0  0  0  0
  161.6660  210.0260  149.4980 C   0  0  1  0  0  3  0  0  0  0  0  0
  162.0290  210.6150  150.7120 O   0  0  0  0  0  1  0  0  0  0  0  0
  162.2670  210.8270  148.3350 C   0  0  0  0  0  2  0  0  0  0  0  0
  162.7340  213.1230  147.8780 O   0  0  0  0  0  1  0  0  0  0  0  0
  161.7020  212.2410  148.2010 C   0  0  1  0  0  3  0  0  0  0  0  0
  160.6040  212.3100  147.1390 C   0  0  0  0  0  2  0  0  0  0  0  0
  159.5020  213.4370  148.9180 O   0  0  0  0  0  1  0  0  0  0  0  0
  159.4500  213.2240  147.5430 C   0  0  0  0  0  0  0  0  0  0  0  0
  158.2300  212.6260  147.2200 O   0  0  0  0  0  1  0  0  0  0  0  0
  159.5570  214.4530  146.8890 O   0  0  0  0  0  1  0  0  0  0  0  0
  160.5720  208.2990  152.8310 C   0  0  0  0  0  2  0  0  0  0  0  0
  161.2220  209.1770  156.5120 C   0  0  0  0  0  2  0  0  0  0  0  0
  160.6610  210.4660  156.4270 O   0  0  0  0  0  0  0  0  0  0  0  0
  161.2010  208.9960  154.0290 C   0  0  0  0  0  3  0  0  0  0  0  0
  160.8230  210.4760  154.0280 C   0  0  0  0  0  2  0  0  0  0  0  0
  160.7520  208.3270  155.3300 C   0  0  0  0  0  2  0  0  0  0  0  0
  161.2880  211.1080  155.3410 C   0  0  0  0  0  2  0  0  0  0  0  0
  1  6  1  0  0  0  0
  2  5  1  0  0  0  0
  2 14  1  0  0  0  0
  3  8  1  0  0  0  0
  3  2  1  0  0  0  0
  4  1  1  0  0  0  0
  4  3  1  0  0  0  0
  5 14  1  0  0  0  0
  6  2  1  0  0  0  0
  6 27  1  0  0  0  0
  7 13  1  0  0  0  0
  7 15  1  0  0  0  0
  8 10  1  0  0  0  0
  9 16  1  0  0  0  0
  9  8  1  0  0  0  0
 10  5  1  0  0  0  0
 11  9  1  0  0  0  0
 12 11  1  0  0  0  0
 12 13  2  0  0  0  0
 13  4  1  0  0  0  0
 15 17  1  0  0  0  0
 15  1  1  0  0  0  0
 17 18  1  0  0  0  0
 19 17  1  0  0  0  0
 20 21  1  0  0  0  0
 21 19  1  0  0  0  0
 22 24  1  0  0  0  0
 22 21  1  0  0  0  0
 24 23  1  0  0  0  0
 25 24  1  0  0  0  0
 26 24  1  0  0  0  0
 27 30  1  0  0  0  0
 29 28  1  0  0  0  0
 30 32  1  0  0  0  0
 31 30  1  0  0  0  0
 31 33  1  0  0  0  0
 32 28  1  0  0  0  0
 33 29  1  0  0  0  0
M  END
>  <MODEL>
1

>  <REMARK>
 VINA RESULT:      -7.3      0.000      0.000
  Name = 
  7 active torsions:
  status: ('A' for Active; 'I' for Inactive)
    1  A    between atoms: C_3  and  C_15
    2  A    between atoms: C_6  and  C_31
    3  A    between atoms: C_6  and  C_32
    4  A    between atoms: C_10  and  C_15
    5  A    between atoms: C_10  and  C_31
    6  A    between atoms: C_11  and  C_12
    7  A    between atoms: C_11  and  C_18
                            x       y       z     vdW  Elec       q    Type
                         _______ _______ _______ _____ _____    ______ ____

>  <TORSDO>
F 7

$$$$
=
 OpenBabel11042421243D

 33 38  0  0  1  0  0  0  0  0999 V2000
  161.5250  205.1590  150.7120 C   0  0  1  0  0  3  0  0  0  0  0  0
  160.7740  205.6330  148.4850 C   0  0  2  0  0  0  0  0  0  0  0  0
  160.5910  204.2360  148.7470 C   0  0  2  0  0  3  0  0  0  0  0  0
  161.0920  203.9870  149.9450 C   0  0  2  0  0  3  0  0  0  0  0  0
  161.7600  205.5710  147.3290 C   0  0  1  0  0  3  0  0  0  0  0  0
  161.1860  206.3410  149.7850 C   0  0  2  0  0  3  0  0  0  0  0  0
  160.8310  203.2050  152.4650 S   0  0  0  0  0  0  0  0  0  0  0  0
  160.9180  203.4330  147.5570 C   0  0  2  0  0  3  0  0  0  0  0  0
  161.6470  202.1170  147.8800 C   0  0  1  0  0  3  0  0  0  0  0  0
  161.6910  204.2790  146.7230 O   0  0  0  0  0  0  0  0  0  0  0  0
  160.7520  201.2250  148.7480 C   0  0  0  0  0  2  0  0  0  0  0  0
  160.7750  201.5610  150.2230 C   0  0  0  0  0  3  0  0  0  0  0  0
  160.8980  202.7960  150.7230 C   0  0  0  0  0  0  0  0  0  0  0  0
  160.4400  206.3210  147.1730 C   0  0  0  0  0  2  0  0  0  0  0  0
  160.7660  205.0110  152.0290 C   0  0  1  0  0  3  0  0  0  0  0  0
  161.9330  201.4530  146.6870 O   0  0  0  0  0  1  0  0  0  0  0  0
  161.3720  205.8750  153.1400 C   0  0  1  0  0  3  0  0  0  0  0  0
  162.7660  205.8960  153.0430 O   0  0  0  0  0  1  0  0  0  0  0  0
  160.8310  207.3120  153.1260 C   0  0  0  0  0  2  0  0  0  0  0  0
  160.6830  206.8530  155.4640 O   0  0  0  0  0  1  0  0  0  0  0  0
  160.4500  207.8420  154.5090 C   0  0  1  0  0  3  0  0  0  0  0  0
  161.2340  209.1060  154.8630 C   0  0  0  0  0  2  0  0  0  0  0  0
  159.2800  210.1280  155.7490 O   0  0  0  0  0  1  0  0  0  0  0  0
  160.3560  210.3540  154.8960 C   0  0  0  0  0  0  0  0  0  0  0  0
  159.8730  210.6330  153.6150 O   0  0  0  0  0  1  0  0  0  0  0  0
  161.0890  211.4450  155.3670 O   0  0  0  0  0  1  0  0  0  0  0  0
  162.3110  207.3840  149.6570 C   0  0  0  0  0  2  0  0  0  0  0  0
  161.9570  210.9570  148.2960 C   0  0  0  0  0  2  0  0  0  0  0  0
  162.6020  211.5640  149.3910 O   0  0  0  0  0  0  0  0  0  0  0  0
  161.8090  208.8180  149.5610 C   0  0  0  0  0  3  0  0  0  0  0  0
  162.2910  209.6200  150.7700 C   0  0  0  0  0  2  0  0  0  0  0  0
  162.2900  209.4640  148.2610 C   0  0  0  0  0  2  0  0  0  0  0  0
  161.9560  211.0960  150.5510 C   0  0  0  0  0  2  0  0  0  0  0  0
  1 15  1  0  0  0  0
  2  3  1  0  0  0  0
  2  6  1  0  0  0  0
  3  4  1  0  0  0  0
  4  1  1  0  0  0  0
  4 13  1  0  0  0  0
  5  2  1  0  0  0  0
  6  1  1  0  0  0  0
  8  9  1  0  0  0  0
  8  3  1  0  0  0  0
  9 11  1  0  0  0  0
 10  5  1  0  0  0  0
 10  8  1  0  0  0  0
 11 12  1  0  0  0  0
 12 13  2  0  0  0  0
 13  7  1  0  0  0  0
 14  5  1  0  0  0  0
 14  2  1  0  0  0  0
 15  7  1  0  0  0  0
 15 17  1  0  0  0  0
 16  9  1  0  0  0  0
 18 17  1  0  0  0  0
 19 17  1  0  0  0  0
 19 21  1  0  0  0  0
 21 22  1  0  0  0  0
 21 20  1  0  0  0  0
 22 24  1  0  0  0  0
 24 26  1  0  0  0  0
 24 23  1  0  0  0  0
 25 24  1  0  0  0  0
 27  6  1  0  0  0  0
 28 29  1  0  0  0  0
 29 33  1  0  0  0  0
 30 27  1  0  0  0  0
 30 31  1  0  0  0  0
 32 28  1  0  0  0  0
 32 30  1  0  0  0  0
 33 31  1  0  0  0  0
M  END
>  <MODEL>
2

>  <REMARK>
 VINA RESULT:      -7.1      2.336      5.816
  Name = 
  7 active torsions:
  status: ('A' for Active; 'I' for Inactive)
    1  A    between atoms: C_3  and  C_15
    2  A    between atoms: C_6  and  C_31
    3  A    between atoms: C_6  and  C_32
    4  A    between atoms: C_10  and  C_15
    5  A    between atoms: C_10  and  C_31
    6  A    between atoms: C_11  and  C_12
    7  A    between atoms: C_11  and  C_18
                            x       y       z     vdW  Elec       q    Type
                         _______ _______ _______ _____ _____    ______ ____

>  <TORSDO>
F 7

$$$$
=
 OpenBabel11042421243D

 33 38  0  0  1  0  0  0  0  0999 V2000
  160.9090  205.7330  150.7100 C   0  0  1  0  0  3  0  0  0  0  0  0
  162.0400  207.7380  150.0370 C   0  0  2  0  0  0  0  0  0  0  0  0
  162.0000  207.6870  151.4690 C   0  0  2  0  0  3  0  0  0  0  0  0
  161.2970  206.6210  151.8100 C   0  0  2  0  0  3  0  0  0  0  0  0
  161.2380  209.0050  149.7820 C   0  0  1  0  0  3  0  0  0  0  0  0
  161.5320  206.4020  149.4710 C   0  0  2  0  0  3  0  0  0  0  0  0
  161.0750  204.2510  152.9790 S   0  0  0  0  0  0  0  0  0  0  0  0
  161.7540  209.0250  152.0340 C   0  0  2  0  0  3  0  0  0  0  0  0
  160.8220  209.0180  153.2570 C   0  0  1  0  0  3  0  0  0  0  0  0
  161.2300  209.8000  150.9690 O   0  0  0  0  0  0  0  0  0  0  0  0
  161.4540  208.2000  154.3900 C   0  0  0  0  0  2  0  0  0  0  0  0
  161.2540  206.7060  154.2710 C   0  0  0  0  0  3  0  0  0  0  0  0
  161.2180  206.0300  153.1160 C   0  0  0  0  0  0  0  0  0  0  0  0
  162.6510  208.8650  149.2250 C   0  0  0  0  0  2  0  0  0  0  0  0
  161.4370  204.3720  151.1590 C   0  0  1  0  0  3  0  0  0  0  0  0
  160.6350  210.3300  153.6910 O   0  0  0  0  0  1  0  0  0  0  0  0
  160.7880  203.2210  150.3830 C   0  0  1  0  0  3  0  0  0  0  0  0
  159.4480  203.5060  150.1080 O   0  0  0  0  0  1  0  0  0  0  0  0
  161.5280  202.9040  149.0760 C   0  0  0  0  0  2  0  0  0  0  0  0
  160.8250  200.6670  149.5250 O   0  0  0  0  0  1  0  0  0  0  0  0
  161.1920  201.5310  148.4930 C   0  0  1  0  0  3  0  0  0  0  0  0
  160.0680  201.6180  147.4600 C   0  0  0  0  0  2  0  0  0  0  0  0
  161.3840  202.3510  145.6210 O   0  0  0  0  0  1  0  0  0  0  0  0
  160.5480  201.3210  146.0410 C   0  0  0  0  0  0  0  0  0  0  0  0
  159.4560  201.2360  145.1740 O   0  0  0  0  0  1  0  0  0  0  0  0
  161.2600  200.1190  146.0160 O   0  0  0  0  0  1  0  0  0  0  0  0
  160.5820  206.5000  148.2630 C   0  0  0  0  0  2  0  0  0  0  0  0
  162.9560  204.9850  145.6530 C   0  0  0  0  0  2  0  0  0  0  0  0
  162.4350  205.7260  144.5750 O   0  0  0  0  0  0  0  0  0  0  0  0
  161.0250  205.6690  147.0670 C   0  0  0  0  0  3  0  0  0  0  0  0
  160.4220  206.2410  145.7840 C   0  0  0  0  0  2  0  0  0  0  0  0
  162.5510  205.6380  146.9760 C   0  0  0  0  0  2  0  0  0  0  0  0
  161.0410  205.5250  144.5830 C   0  0  0  0  0  2  0  0  0  0  0  0
  1 15  1  0  0  0  0
  1  4  1  0  0  0  0
  2  3  1  0  0  0  0
  3  4  1  0  0  0  0
  3  8  1  0  0  0  0
  4 13  1  0  0  0  0
  5  2  1  0  0  0  0
  5 10  1  0  0  0  0
  6  2  1  0  0  0  0
  6  1  1  0  0  0  0
  7 13  1  0  0  0  0
  8  9  1  0  0  0  0
  9 16  1  0  0  0  0
  9 11  1  0  0  0  0
 10  8  1  0  0  0  0
 12 11  1  0  0  0  0
 13 12  2  0  0  0  0
 14  5  1  0  0  0  0
 14  2  1  0  0  0  0
 15  7  1  0  0  0  0
 17 15  1  0  0  0  0
 18 17  1  0  0  0  0
 19 17  1  0  0  0  0
 21 19  1  0  0  0  0
 21 20  1  0  0  0  0
 22 21  1  0  0  0  0
 23 24  1  0  0  0  0
 24 22  1  0  0  0  0
 25 24  1  0  0  0  0
 26 24  1  0  0  0  0
 27  6  1  0  0  0  0
 28 32  1  0  0  0  0
 29 33  1  0  0  0  0
 29 28  1  0  0  0  0
 30 27  1  0  0  0  0
 31 30  1  0  0  0  0
 32 30  1  0  0  0  0
 33 31  1  0  0  0  0
M  END
>  <MODEL>
3

>  <REMARK>
 VINA RESULT:      -7.0      2.837      8.407
  Name = 
  7 active torsions:
  status: ('A' for Active; 'I' for Inactive)
    1  A    between atoms: C_3  and  C_15
    2  A    between atoms: C_6  and  C_31
    3  A    between atoms: C_6  and  C_32
    4  A    between atoms: C_10  and  C_15
    5  A    between atoms: C_10  and  C_31
    6  A    between atoms: C_11  and  C_12
    7  A    between atoms: C_11  and  C_18
                            x       y       z     vdW  Elec       q    Type
                         _______ _______ _______ _____ _____    ______ ____

>  <TORSDO>
F 7

$$$$
=
 OpenBabel11042421243D

 33 38  0  0  1  0  0  0  0  0999 V2000
  161.2790  206.1730  149.2280 C   0  0  1  0  0  3  0  0  0  0  0  0
  161.5160  204.8140  151.1890 C   0  0  2  0  0  0  0  0  0  0  0  0
  161.5800  203.9710  150.0310 C   0  0  2  0  0  3  0  0  0  0  0  0
  161.3590  204.7310  148.9720 C   0  0  2  0  0  3  0  0  0  0  0  0
  160.2770  204.2540  151.8710 C   0  0  1  0  0  3  0  0  0  0  0  0
  161.5260  206.2840  150.7430 C   0  0  2  0  0  3  0  0  0  0  0  0
  162.1280  205.8080  146.6750 S   0  0  0  0  0  0  0  0  0  0  0  0
  160.8740  202.7010  150.2680 C   0  0  2  0  0  3  0  0  0  0  0  0
  160.0860  202.1940  149.0480 C   0  0  1  0  0  3  0  0  0  0  0  0
  160.0330  202.9320  151.3860 O   0  0  0  0  0  0  0  0  0  0  0  0
  161.0460  201.9220  147.8840 C   0  0  0  0  0  2  0  0  0  0  0  0
  161.4270  203.1500  147.0860 C   0  0  0  0  0  3  0  0  0  0  0  0
  161.5870  204.3750  147.6000 C   0  0  0  0  0  0  0  0  0  0  0  0
  161.6020  204.3250  152.6240 C   0  0  0  0  0  2  0  0  0  0  0  0
  162.3110  206.7540  148.2650 C   0  0  1  0  0  3  0  0  0  0  0  0
  159.4360  201.0080  149.3890 O   0  0  0  0  0  1  0  0  0  0  0  0
  162.1090  208.2580  148.0460 C   0  0  1  0  0  3  0  0  0  0  0  0
  160.8310  208.5140  147.5420 O   0  0  0  0  0  1  0  0  0  0  0  0
  162.3330  209.0720  149.3280 C   0  0  0  0  0  2  0  0  0  0  0  0
  161.8780  211.1010  150.5010 O   0  0  0  0  0  1  0  0  0  0  0  0
  161.8520  210.5200  149.2330 C   0  0  1  0  0  3  0  0  0  0  0  0
  162.7120  211.3360  148.2670 C   0  0  0  0  0  2  0  0  0  0  0  0
  160.7130  211.9610  147.1440 O   0  0  0  0  0  1  0  0  0  0  0  0
  161.9320  212.4610  147.5910 C   0  0  0  0  0  0  0  0  0  0  0  0
  162.6520  212.9530  146.4990 O   0  0  0  0  0  1  0  0  0  0  0  0
  161.6940  213.4950  148.4990 O   0  0  0  0  0  1  0  0  0  0  0  0
  160.5450  207.2170  151.4750 C   0  0  0  0  0  2  0  0  0  0  0  0
  161.2700  208.0520  155.1520 C   0  0  0  0  0  2  0  0  0  0  0  0
  160.5870  209.2840  155.1300 O   0  0  0  0  0  0  0  0  0  0  0  0
  161.1580  207.9380  152.6680 C   0  0  0  0  0  3  0  0  0  0  0  0
  160.6420  209.3750  152.7290 C   0  0  0  0  0  2  0  0  0  0  0  0
  160.8310  207.1950  153.9640 C   0  0  0  0  0  2  0  0  0  0  0  0
  161.1020  210.0120  154.0400 C   0  0  0  0  0  2  0  0  0  0  0  0
  1  6  1  0  0  0  0
  2  5  1  0  0  0  0
  2 14  1  0  0  0  0
  3  8  1  0  0  0  0
  3  2  1  0  0  0  0
  4  1  1  0  0  0  0
  4  3  1  0  0  0  0
  5 14  1  0  0  0  0
  6  2  1  0  0  0  0
  6 27  1  0  0  0  0
  7 13  1  0  0  0  0
  7 15  1  0  0  0  0
  8 10  1  0  0  0  0
  9 16  1  0  0  0  0
  9  8  1  0  0  0  0
 10  5  1  0  0  0  0
 11  9  1  0  0  0  0
 12 13  2  0  0  0  0
 12 11  1  0  0  0  0
 13  4  1  0  0  0  0
 15  1  1  0  0  0  0
 17 15  1  0  0  0  0
 17 19  1  0  0  0  0
 18 17  1  0  0  0  0
 21 19  1  0  0  0  0
 21 20  1  0  0  0  0
 22 21  1  0  0  0  0
 23 24  1  0  0  0  0
 24 22  1  0  0  0  0
 24 26  1  0  0  0  0
 25 24  1  0  0  0  0
 27 30  1  0  0  0  0
 29 28  1  0  0  0  0
 30 31  1  0  0  0  0
 30 32  1  0  0  0  0
 31 33  1  0  0  0  0
 32 28  1  0  0  0  0
 33 29  1  0  0  0  0
M  END
>  <MODEL>
4

>  <REMARK>
 VINA RESULT:      -6.6      1.435      2.224
  Name = 
  7 active torsions:
  status: ('A' for Active; 'I' for Inactive)
    1  A    between atoms: C_3  and  C_15
    2  A    between atoms: C_6  and  C_31
    3  A    between atoms: C_6  and  C_32
    4  A    between atoms: C_10  and  C_15
    5  A    between atoms: C_10  and  C_31
    6  A    between atoms: C_11  and  C_12
    7  A    between atoms: C_11  and  C_18
                            x       y       z     vdW  Elec       q    Type
                         _______ _______ _______ _____ _____    ______ ____

>  <TORSDO>
F 7

$$$$
=
 OpenBabel11042421243D

 33 38  0  0  1  0  0  0  0  0999 V2000
  161.2410  208.0470  151.0170 C   0  0  1  0  0  3  0  0  0  0  0  0
  161.8260  205.8860  151.8760 C   0  0  2  0  0  0  0  0  0  0  0  0
  161.9870  205.8770  150.4520 C   0  0  2  0  0  3  0  0  0  0  0  0
  161.5760  207.0480  149.9970 C   0  0  2  0  0  3  0  0  0  0  0  0
  160.7490  204.8250  152.0400 C   0  0  1  0  0  3  0  0  0  0  0  0
  161.5410  207.3220  152.3420 C   0  0  2  0  0  3  0  0  0  0  0  0
  162.0130  209.3560  148.7660 S   0  0  0  0  0  0  0  0  0  0  0  0
  161.5430  204.5940  149.8820 C   0  0  2  0  0  3  0  0  0  0  0  0
  160.8020  204.7350  148.5420 C   0  0  1  0  0  3  0  0  0  0  0  0
  160.7310  203.9930  150.8770 O   0  0  0  0  0  0  0  0  0  0  0  0
  161.7360  205.3510  147.4930 C   0  0  0  0  0  2  0  0  0  0  0  0
  161.8400  206.8590  147.5560 C   0  0  0  0  0  3  0  0  0  0  0  0
  161.7950  207.5810  148.6820 C   0  0  0  0  0  0  0  0  0  0  0  0
  162.0750  204.6960  152.7850 C   0  0  0  0  0  2  0  0  0  0  0  0
  162.0980  209.2480  150.6200 C   0  0  1  0  0  3  0  0  0  0  0  0
  160.4020  203.4710  148.1100 O   0  0  0  0  0  1  0  0  0  0  0  0
  161.6080  210.5430  151.2780 C   0  0  1  0  0  3  0  0  0  0  0  0
  161.5320  211.5740  150.3380 O   0  0  0  0  0  1  0  0  0  0  0  0
  160.2490  210.3720  151.9700 C   0  0  0  0  0  2  0  0  0  0  0  0
  159.3210  212.5720  151.9730 O   0  0  0  0  0  1  0  0  0  0  0  0
  159.8280  211.5780  152.8110 C   0  0  1  0  0  3  0  0  0  0  0  0
  158.7820  211.1950  153.8590 C   0  0  0  0  0  2  0  0  0  0  0  0
  160.2170  212.4160  155.3080 O   0  0  0  0  0  1  0  0  0  0  0  0
  158.8920  212.0300  155.1320 C   0  0  0  0  0  0  0  0  0  0  0  0
  158.4850  211.2770  156.2350 O   0  0  0  0  0  1  0  0  0  0  0  0
  158.0960  213.1740  155.0270 O   0  0  0  0  0  1  0  0  0  0  0  0
  160.4410  207.4790  153.4080 C   0  0  0  0  0  2  0  0  0  0  0  0
  160.3850  207.7600  157.2360 C   0  0  0  0  0  2  0  0  0  0  0  0
  160.7050  209.1310  157.2590 O   0  0  0  0  0  0  0  0  0  0  0  0
  160.9780  207.6530  154.8210 C   0  0  0  0  0  3  0  0  0  0  0  0
  161.5240  209.0690  155.0000 C   0  0  0  0  0  2  0  0  0  0  0  0
  159.8800  207.3680  155.8470 C   0  0  0  0  0  2  0  0  0  0  0  0
  161.8640  209.2870  156.4750 C   0  0  0  0  0  2  0  0  0  0  0  0
  1  6  1  0  0  0  0
  2  5  1  0  0  0  0
  2  6  1  0  0  0  0
  2 14  1  0  0  0  0
  3  2  1  0  0  0  0
  4  3  1  0  0  0  0
  4  1  1  0  0  0  0
  5 14  1  0  0  0  0
  6 27  1  0  0  0  0
  7 15  1  0  0  0  0
  8  3  1  0  0  0  0
  8 10  1  0  0  0  0
  9  8  1  0  0  0  0
 10  5  1  0  0  0  0
 11 12  1  0  0  0  0
 11  9  1  0  0  0  0
 12 13  2  0  0  0  0
 13  7  1  0  0  0  0
 13  4  1  0  0  0  0
 15  1  1  0  0  0  0
 15 17  1  0  0  0  0
 16  9  1  0  0  0  0
 17 19  1  0  0  0  0
 18 17  1  0  0  0  0
 19 21  1  0  0  0  0
 20 21  1  0  0  0  0
 21 22  1  0  0  0  0
 22 24  1  0  0  0  0
 24 23  1  0  0  0  0
 24 25  1  0  0  0  0
 26 24  1  0  0  0  0
 27 30  1  0  0  0  0
 28 29  1  0  0  0  0
 30 31  1  0  0  0  0
 30 32  1  0  0  0  0
 31 33  1  0  0  0  0
 32 28  1  0  0  0  0
 33 29  1  0  0  0  0
M  END
>  <MODEL>
5

>  <REMARK>
 VINA RESULT:      -6.5      2.269      3.602
  Name = 
  7 active torsions:
  status: ('A' for Active; 'I' for Inactive)
    1  A    between atoms: C_3  and  C_15
    2  A    between atoms: C_6  and  C_31
    3  A    between atoms: C_6  and  C_32
    4  A    between atoms: C_10  and  C_15
    5  A    between atoms: C_10  and  C_31
    6  A    between atoms: C_11  and  C_12
    7  A    between atoms: C_11  and  C_18
                            x       y       z     vdW  Elec       q    Type
                         _______ _______ _______ _____ _____    ______ ____

>  <TORSDO>
F 7

$$$$
=
 OpenBabel11042421243D

 33 38  0  0  1  0  0  0  0  0999 V2000
  161.6820  207.5330  150.7460 C   0  0  1  0  0  3  0  0  0  0  0  0
  160.7590  206.8200  148.6510 C   0  0  2  0  0  0  0  0  0  0  0  0
  160.6160  205.7590  149.6040 C   0  0  2  0  0  3  0  0  0  0  0  0
  161.2100  206.1450  150.7210 C   0  0  2  0  0  3  0  0  0  0  0  0
  161.6550  206.1490  147.6220 C   0  0  1  0  0  3  0  0  0  0  0  0
  161.2570  208.0820  149.3720 C   0  0  2  0  0  3  0  0  0  0  0  0
  161.1510  206.7700  153.2970 S   0  0  0  0  0  0  0  0  0  0  0  0
  160.8630  204.4510  148.9740 C   0  0  2  0  0  3  0  0  0  0  0  0
  161.6330  203.4680  149.8720 C   0  0  1  0  0  3  0  0  0  0  0  0
  161.5590  204.7310  147.7710 O   0  0  0  0  0  0  0  0  0  0  0  0
  160.8190  203.1700  151.1370 C   0  0  0  0  0  2  0  0  0  0  0  0
  160.9490  204.2130  152.2250 C   0  0  0  0  0  3  0  0  0  0  0  0
  161.0910  205.5260  152.0110 C   0  0  0  0  0  0  0  0  0  0  0  0
  160.3170  206.7480  147.2000 C   0  0  0  0  0  2  0  0  0  0  0  0
  161.0270  208.0990  152.0040 C   0  0  1  0  0  3  0  0  0  0  0  0
  161.8370  202.2800  149.1710 O   0  0  0  0  0  1  0  0  0  0  0  0
  161.7030  209.3940  152.4680 C   0  0  1  0  0  3  0  0  0  0  0  0
  161.2200  210.4880  151.7450 O   0  0  0  0  0  1  0  0  0  0  0  0
  161.5200  209.6450  153.9710 C   0  0  0  0  0  2  0  0  0  0  0  0
  159.6830  209.5010  155.4890 O   0  0  0  0  0  1  0  0  0  0  0  0
  160.1310  210.1640  154.3460 C   0  0  1  0  0  3  0  0  0  0  0  0
  160.1410  211.6740  154.5880 C   0  0  0  0  0  2  0  0  0  0  0  0
  159.5720  213.1440  152.8100 O   0  0  0  0  0  1  0  0  0  0  0  0
  159.0200  212.3960  153.8450 C   0  0  0  0  0  0  0  0  0  0  0  0
  158.3430  213.2530  154.7170 O   0  0  0  0  0  1  0  0  0  0  0  0
  158.1230  211.4700  153.3090 O   0  0  0  0  0  1  0  0  0  0  0  0
  162.3550  208.8820  148.6470 C   0  0  0  0  0  2  0  0  0  0  0  0
  160.9260  212.2520  147.4890 C   0  0  0  0  0  2  0  0  0  0  0  0
  162.1560  212.7430  147.0090 O   0  0  0  0  0  0  0  0  0  0  0  0
  162.1090  210.3840  148.6320 C   0  0  0  0  0  3  0  0  0  0  0  0
  163.4000  211.1190  148.2710 C   0  0  0  0  0  2  0  0  0  0  0  0
  160.9980  210.7320  147.6400 C   0  0  0  0  0  2  0  0  0  0  0  0
  163.0840  212.6000  148.0580 C   0  0  0  0  0  2  0  0  0  0  0  0
  1 15  1  0  0  0  0
  2  6  1  0  0  0  0
  2  3  1  0  0  0  0
  3  4  1  0  0  0  0
  4  1  1  0  0  0  0
  4 13  1  0  0  0  0
  5 10  1  0  0  0  0
  5  2  1  0  0  0  0
  6  1  1  0  0  0  0
  8  3  1  0  0  0  0
  8  9  1  0  0  0  0
  9 11  1  0  0  0  0
 10  8  1  0  0  0  0
 11 12  1  0  0  0  0
 13 12  2  0  0  0  0
 13  7  1  0  0  0  0
 14  5  1  0  0  0  0
 14  2  1  0  0  0  0
 15 17  1  0  0  0  0
 15  7  1  0  0  0  0
 16  9  1  0  0  0  0
 17 19  1  0  0  0  0
 18 17  1  0  0  0  0
 19 21  1  0  0  0  0
 21 22  1  0  0  0  0
 21 20  1  0  0  0  0
 23 24  1  0  0  0  0
 24 22  1  0  0  0  0
 24 25  1  0  0  0  0
 26 24  1  0  0  0  0
 27  6  1  0  0  0  0
 28 32  1  0  0  0  0
 29 28  1  0  0  0  0
 29 33  1  0  0  0  0
 30 27  1  0  0  0  0
 31 30  1  0  0  0  0
 32 30  1  0  0  0  0
 33 31  1  0  0  0  0
M  END
>  <MODEL>
6

>  <REMARK>
 VINA RESULT:      -6.1      2.041      5.509
  Name = 
  7 active torsions:
  status: ('A' for Active; 'I' for Inactive)
    1  A    between atoms: C_3  and  C_15
    2  A    between atoms: C_6  and  C_31
    3  A    between atoms: C_6  and  C_32
    4  A    between atoms: C_10  and  C_15
    5  A    between atoms: C_10  and  C_31
    6  A    between atoms: C_11  and  C_12
    7  A    between atoms: C_11  and  C_18
                            x       y       z     vdW  Elec       q    Type
                         _______ _______ _______ _____ _____    ______ ____

>  <TORSDO>
F 7

$$$$
=
 OpenBabel11042421243D

 33 38  0  0  1  0  0  0  0  0999 V2000
  161.2650  205.3120  148.9070 C   0  0  1  0  0  3  0  0  0  0  0  0
  161.4660  203.0380  149.6420 C   0  0  2  0  0  0  0  0  0  0  0  0
  161.4910  203.0660  148.2090 C   0  0  2  0  0  3  0  0  0  0  0  0
  161.2910  204.3160  147.8310 C   0  0  2  0  0  3  0  0  0  0  0  0
  160.2120  202.2110  149.8820 C   0  0  1  0  0  3  0  0  0  0  0  0
  161.5280  204.4780  150.1750 C   0  0  2  0  0  3  0  0  0  0  0  0
  162.0820  206.5440  146.6290 S   0  0  0  0  0  0  0  0  0  0  0  0
  160.7400  201.9280  147.6510 C   0  0  2  0  0  3  0  0  0  0  0  0
  159.9250  202.2820  146.3950 C   0  0  1  0  0  3  0  0  0  0  0  0
  159.9160  201.4580  148.7040 O   0  0  0  0  0  0  0  0  0  0  0  0
  160.8670  202.7450  145.2760 C   0  0  0  0  0  2  0  0  0  0  0  0
  161.2870  204.1960  145.3720 C   0  0  0  0  0  3  0  0  0  0  0  0
  161.4950  204.8570  146.5170 C   0  0  0  0  0  0  0  0  0  0  0  0
  161.5450  201.7800  150.4880 C   0  0  0  0  0  2  0  0  0  0  0  0
  162.3120  206.3310  148.4620 C   0  0  1  0  0  3  0  0  0  0  0  0
  159.2350  201.1480  145.9680 O   0  0  0  0  0  1  0  0  0  0  0  0
  162.1630  207.6660  149.2020 C   0  0  1  0  0  3  0  0  0  0  0  0
  163.0750  207.7460  150.2580 O   0  0  0  0  0  1  0  0  0  0  0  0
  162.3400  208.8740  148.2720 C   0  0  0  0  0  2  0  0  0  0  0  0
  161.9550  210.1470  150.2550 O   0  0  0  0  0  1  0  0  0  0  0  0
  161.8350  210.1900  148.8660 C   0  0  1  0  0  3  0  0  0  0  0  0
  162.6040  211.3890  148.3120 C   0  0  0  0  0  2  0  0  0  0  0  0
  162.3740  213.1130  146.6920 O   0  0  0  0  0  1  0  0  0  0  0  0
  161.6870  212.4450  147.7010 C   0  0  0  0  0  0  0  0  0  0  0  0
  161.3020  213.3670  148.6780 O   0  0  0  0  0  1  0  0  0  0  0  0
  160.5520  211.8410  147.1560 O   0  0  0  0  0  1  0  0  0  0  0  0
  160.5860  204.8030  151.3480 C   0  0  0  0  0  2  0  0  0  0  0  0
  161.2150  206.5860  154.6900 C   0  0  0  0  0  2  0  0  0  0  0  0
  160.4820  207.7400  154.3480 O   0  0  0  0  0  0  0  0  0  0  0  0
  161.1490  205.8320  152.3190 C   0  0  0  0  0  3  0  0  0  0  0  0
  160.5740  207.2130  152.0050 C   0  0  0  0  0  2  0  0  0  0  0  0
  160.8310  205.4340  153.7610 C   0  0  0  0  0  2  0  0  0  0  0  0
  160.9850  208.1850  153.1110 C   0  0  0  0  0  2  0  0  0  0  0  0
  1  6  1  0  0  0  0
  2  5  1  0  0  0  0
  2  6  1  0  0  0  0
  2 14  1  0  0  0  0
  3  2  1  0  0  0  0
  4  3  1  0  0  0  0
  4  1  1  0  0  0  0
  5 14  1  0  0  0  0
  6 27  1  0  0  0  0
  7 15  1  0  0  0  0
  8  3  1  0  0  0  0
  8 10  1  0  0  0  0
  9  8  1  0  0  0  0
 10  5  1  0  0  0  0
 11 12  1  0  0  0  0
 11  9  1  0  0  0  0
 12 13  2  0  0  0  0
 13  7  1  0  0  0  0
 13  4  1  0  0  0  0
 15  1  1  0  0  0  0
 15 17  1  0  0  0  0
 16  9  1  0  0  0  0
 17 18  1  0  0  0  0
 19 21  1  0  0  0  0
 19 17  1  0  0  0  0
 21 20  1  0  0  0  0
 22 21  1  0  0  0  0
 23 24  1  0  0  0  0
 24 22  1  0  0  0  0
 24 25  1  0  0  0  0
 26 24  1  0  0  0  0
 27 30  1  0  0  0  0
 29 28  1  0  0  0  0
 30 32  1  0  0  0  0
 31 30  1  0  0  0  0
 31 33  1  0  0  0  0
 32 28  1  0  0  0  0
 33 29  1  0  0  0  0
M  END
>  <MODEL>
7

>  <REMARK>
 VINA RESULT:      -6.0      1.847      3.348
  Name = 
  7 active torsions:
  status: ('A' for Active; 'I' for Inactive)
    1  A    between atoms: C_3  and  C_15
    2  A    between atoms: C_6  and  C_31
    3  A    between atoms: C_6  and  C_32
    4  A    between atoms: C_10  and  C_15
    5  A    between atoms: C_10  and  C_31
    6  A    between atoms: C_11  and  C_12
    7  A    between atoms: C_11  and  C_18
                            x       y       z     vdW  Elec       q    Type
                         _______ _______ _______ _____ _____    ______ ____

>  <TORSDO>
F 7

$$$$
=
 OpenBabel11042421243D

 33 38  0  0  1  0  0  0  0  0999 V2000
  161.1140  208.4360  151.3530 C   0  0  1  0  0  3  0  0  0  0  0  0
  161.6760  209.8820  153.1810 C   0  0  2  0  0  0  0  0  0  0  0  0
  161.6080  208.5340  153.6620 C   0  0  2  0  0  3  0  0  0  0  0  0
  161.2120  207.7720  152.6570 C   0  0  2  0  0  3  0  0  0  0  0  0
  160.5680  210.5250  154.0010 C   0  0  1  0  0  3  0  0  0  0  0  0
  161.5690  209.8770  151.6490 C   0  0  2  0  0  3  0  0  0  0  0  0
  161.6080  205.8000  150.9280 S   0  0  0  0  0  0  0  0  0  0  0  0
  160.9900  208.4840  154.9980 C   0  0  2  0  0  3  0  0  0  0  0  0
  160.0580  207.2780  155.2040 C   0  0  1  0  0  3  0  0  0  0  0  0
  160.3070  209.7170  155.1510 O   0  0  0  0  0  0  0  0  0  0  0  0
  160.8550  205.9750  155.0680 C   0  0  0  0  0  2  0  0  0  0  0  0
  161.0730  205.5200  153.6420 C   0  0  0  0  0  3  0  0  0  0  0  0
  161.2570  206.3380  152.5990 C   0  0  0  0  0  0  0  0  0  0  0  0
  161.9820  211.0950  154.0410 C   0  0  0  0  0  2  0  0  0  0  0  0
  161.9780  207.5580  150.4500 C   0  0  1  0  0  3  0  0  0  0  0  0
  159.5080  207.3450  156.4840 O   0  0  0  0  0  1  0  0  0  0  0  0
  161.6910  207.8050  148.9650 C   0  0  1  0  0  3  0  0  0  0  0  0
  162.8780  207.8040  148.2280 O   0  0  0  0  0  1  0  0  0  0  0  0
  160.7160  206.7760  148.3780 C   0  0  0  0  0  2  0  0  0  0  0  0
  161.2120  204.5080  147.8230 O   0  0  0  0  0  1  0  0  0  0  0  0
  161.3580  205.8190  147.3720 C   0  0  1  0  0  3  0  0  0  0  0  0
  160.7390  205.9660  145.9810 C   0  0  0  0  0  2  0  0  0  0  0  0
  161.3960  205.7780  143.7050 O   0  0  0  0  0  1  0  0  0  0  0  0
  161.4490  205.1180  144.9290 C   0  0  0  0  0  0  0  0  0  0  0  0
  160.8160  203.8790  144.8070 O   0  0  0  0  0  1  0  0  0  0  0  0
  162.7860  204.9280  145.2860 O   0  0  0  0  0  1  0  0  0  0  0  0
  160.6660  210.9610  151.0330 C   0  0  0  0  0  2  0  0  0  0  0  0
  161.2210  214.0510  148.8220 C   0  0  0  0  0  2  0  0  0  0  0  0
  161.6010  213.3140  147.6830 O   0  0  0  0  0  0  0  0  0  0  0  0
  161.4240  212.0040  150.2230 C   0  0  0  0  0  3  0  0  0  0  0  0
  162.0540  211.3500  148.9940 C   0  0  0  0  0  2  0  0  0  0  0  0
  160.4880  213.1400  149.8080 C   0  0  0  0  0  2  0  0  0  0  0  0
  162.6290  212.4430  148.0920 C   0  0  0  0  0  2  0  0  0  0  0  0
  1  6  1  0  0  0  0
  1  4  1  0  0  0  0
  2  3  1  0  0  0  0
  2  5  1  0  0  0  0
  2 14  1  0  0  0  0
  3  8  1  0  0  0  0
  4  3  1  0  0  0  0
  5 14  1  0  0  0  0
  5 10  1  0  0  0  0
  6  2  1  0  0  0  0
  7 13  1  0  0  0  0
  8 10  1  0  0  0  0
  8  9  1  0  0  0  0
  9 16  1  0  0  0  0
 11  9  1  0  0  0  0
 12 11  1  0  0  0  0
 13  4  1  0  0  0  0
 13 12  2  0  0  0  0
 15  7  1  0  0  0  0
 15  1  1  0  0  0  0
 17 15  1  0  0  0  0
 18 17  1  0  0  0  0
 19 17  1  0  0  0  0
 21 20  1  0  0  0  0
 21 19  1  0  0  0  0
 22 21  1  0  0  0  0
 23 24  1  0  0  0  0
 24 26  1  0  0  0  0
 24 22  1  0  0  0  0
 25 24  1  0  0  0  0
 27  6  1  0  0  0  0
 28 32  1  0  0  0  0
 29 33  1  0  0  0  0
 29 28  1  0  0  0  0
 30 27  1  0  0  0  0
 31 30  1  0  0  0  0
 32 30  1  0  0  0  0
 33 31  1  0  0  0  0
M  END
>  <MODEL>
8

>  <REMARK>
 VINA RESULT:      -6.0      2.605      6.309
  Name = 
  7 active torsions:
  status: ('A' for Active; 'I' for Inactive)
    1  A    between atoms: C_3  and  C_15
    2  A    between atoms: C_6  and  C_31
    3  A    between atoms: C_6  and  C_32
    4  A    between atoms: C_10  and  C_15
    5  A    between atoms: C_10  and  C_31
    6  A    between atoms: C_11  and  C_12
    7  A    between atoms: C_11  and  C_18
                            x       y       z     vdW  Elec       q    Type
                         _______ _______ _______ _____ _____    ______ ____

>  <TORSDO>
F 7

$$$$
=
 OpenBabel11042421243D

 33 38  0  0  1  0  0  0  0  0999 V2000
  161.9320  207.4450  150.9290 C   0  0  1  0  0  3  0  0  0  0  0  0
  160.5570  206.1670  152.4200 C   0  0  2  0  0  0  0  0  0  0  0  0
  160.7310  207.4810  152.9630 C   0  0  2  0  0  3  0  0  0  0  0  0
  161.5610  208.1340  152.1690 C   0  0  2  0  0  3  0  0  0  0  0  0
  161.2060  205.3290  153.5110 C   0  0  1  0  0  3  0  0  0  0  0  0
  161.1380  206.1280  150.9980 C   0  0  2  0  0  3  0  0  0  0  0  0
  162.1160  210.1200  150.5010 S   0  0  0  0  0  0  0  0  0  0  0  0
  160.8950  207.4270  154.4260 C   0  0  2  0  0  3  0  0  0  0  0  0
  161.9310  208.4260  154.9700 C   0  0  1  0  0  3  0  0  0  0  0  0
  161.2440  206.0850  154.7230 O   0  0  0  0  0  0  0  0  0  0  0  0
  161.4850  209.8600  154.6570 C   0  0  0  0  0  2  0  0  0  0  0  0
  161.8180  210.3280  153.2570 C   0  0  0  0  0  3  0  0  0  0  0  0
  161.8150  209.5480  152.1700 C   0  0  0  0  0  0  0  0  0  0  0  0
  159.7680  205.0510  153.0820 C   0  0  0  0  0  2  0  0  0  0  0  0
  161.5820  208.4640  149.8470 C   0  0  1  0  0  3  0  0  0  0  0  0
  162.0280  208.2700  156.3520 O   0  0  0  0  0  1  0  0  0  0  0  0
  162.2670  208.1430  148.5140 C   0  0  1  0  0  3  0  0  0  0  0  0
  163.0810  207.0140  148.6380 O   0  0  0  0  0  1  0  0  0  0  0  0
  161.2610  207.9330  147.3740 C   0  0  0  0  0  2  0  0  0  0  0  0
  159.8080  206.1390  147.9810 O   0  0  0  0  0  1  0  0  0  0  0  0
  160.8780  206.4700  147.1490 C   0  0  1  0  0  3  0  0  0  0  0  0
  160.5060  206.2030  145.6900 C   0  0  0  0  0  2  0  0  0  0  0  0
  161.5810  205.5160  143.6850 O   0  0  0  0  0  1  0  0  0  0  0  0
  161.4240  205.1800  145.0260 C   0  0  0  0  0  0  0  0  0  0  0  0
  160.8630  203.9050  145.1160 O   0  0  0  0  0  1  0  0  0  0  0  0
  162.6770  205.1850  145.6450 O   0  0  0  0  0  1  0  0  0  0  0  0
  161.9610  204.8770  150.6410 C   0  0  0  0  0  2  0  0  0  0  0  0
  160.5860  201.3160  150.2200 C   0  0  0  0  0  2  0  0  0  0  0  0
  161.2240  201.0890  148.9840 O   0  0  0  0  0  0  0  0  0  0  0  0
  161.1290  203.7410  150.0620 C   0  0  0  0  0  3  0  0  0  0  0  0
  161.5810  203.4400  148.6340 C   0  0  0  0  0  2  0  0  0  0  0  0
  161.2510  202.4920  150.9380 C   0  0  0  0  0  2  0  0  0  0  0  0
  160.8820  202.1700  148.1490 C   0  0  0  0  0  2  0  0  0  0  0  0
  1  6  1  0  0  0  0
  1  4  1  0  0  0  0
  2  3  1  0  0  0  0
  2 14  1  0  0  0  0
  2  5  1  0  0  0  0
  3  8  1  0  0  0  0
  4 13  1  0  0  0  0
  4  3  1  0  0  0  0
  5 10  1  0  0  0  0
  6  2  1  0  0  0  0
  7 13  1  0  0  0  0
  8 10  1  0  0  0  0
  8  9  1  0  0  0  0
  9 16  1  0  0  0  0
 11  9  1  0  0  0  0
 12 11  1  0  0  0  0
 13 12  2  0  0  0  0
 14  5  1  0  0  0  0
 15  7  1  0  0  0  0
 15  1  1  0  0  0  0
 17 18  1  0  0  0  0
 17 15  1  0  0  0  0
 19 17  1  0  0  0  0
 21 19  1  0  0  0  0
 21 20  1  0  0  0  0
 22 21  1  0  0  0  0
 23 24  1  0  0  0  0
 24 25  1  0  0  0  0
 24 26  1  0  0  0  0
 24 22  1  0  0  0  0
 27  6  1  0  0  0  0
 28 32  1  0  0  0  0
 29 28  1  0  0  0  0
 30 27  1  0  0  0  0
 30 32  1  0  0  0  0
 31 30  1  0  0  0  0
 33 31  1  0  0  0  0
 33 29  1  0  0  0  0
M  END
>  <MODEL>
9

>  <REMARK>
 VINA RESULT:      -5.8      3.312      6.654
  Name = 
  7 active torsions:
  status: ('A' for Active; 'I' for Inactive)
    1  A    between atoms: C_3  and  C_15
    2  A    between atoms: C_6  and  C_31
    3  A    between atoms: C_6  and  C_32
    4  A    between atoms: C_10  and  C_15
    5  A    between atoms: C_10  and  C_31
    6  A    between atoms: C_11  and  C_12
    7  A    between atoms: C_11  and  C_18
                            x       y       z     vdW  Elec       q    Type
                         _______ _______ _______ _____ _____    ______ ____

>  <TORSDO>
F 7

$$$$
