=
 OpenBabel11052410583D

 37 39  0  0  1  0  0  0  0  0999 V2000
  160.7520  210.7920  154.1010 C   0  0  2  0  0  3  0  0  0  0  0  0
  161.2850  208.7930  155.4520 C   0  0  0  0  0  1  0  0  0  0  0  0
  161.1810  209.8550  151.9090 C   0  0  2  0  0  3  0  0  0  0  0  0
  160.8190  211.1410  152.6280 C   0  0  0  0  0  2  0  0  0  0  0  0
  161.6240  208.8850  152.9960 C   0  0  1  0  0  3  0  0  0  0  0  0
  161.6050  209.6090  154.2780 N   0  0  0  0  0  0  0  0  0  0  0  0
  162.2520  210.1040  151.0090 O   0  0  0  0  0  0  0  0  0  0  0  0
  161.5220  211.5760  149.3860 O   0  0  0  0  0  0  0  0  0  0  0  0
  162.0430  210.4650  149.6740 C   0  0  0  0  0  0  0  0  0  0  0  0
  162.4130  209.6010  148.6420 O   0  0  0  0  0  0  0  0  0  0  0  0
  162.4380  207.6340  147.4530 F   0  0  0  0  0  0  0  0  0  0  0  0
  162.9910  207.6250  149.6360 F   0  0  0  0  0  0  0  0  0  0  0  0
  162.1680  208.1990  148.6870 C   0  0  0  0  0  0  0  0  0  0  0  0
  160.8490  207.9600  149.0280 F   0  0  0  0  0  0  0  0  0  0  0  0
  160.8200  207.5710  152.9580 C   0  0  0  0  0  2  0  0  0  0  0  0
  161.2300  206.6500  151.8150 C   0  0  0  0  0  2  0  0  0  0  0  0
  161.1370  205.1950  152.2480 C   0  0  0  0  0  2  0  0  0  0  0  0
  161.6080  204.1730  145.0280 F   0  0  0  0  0  0  0  0  0  0  0  0
  161.4680  204.5180  147.3820 C   0  0  0  0  0  3  0  0  0  0  0  0
  161.2520  204.0020  148.6610 C   0  0  0  0  0  0  0  0  0  0  0  0
  161.3160  204.8270  149.7830 C   0  0  0  0  0  3  0  0  0  0  0  0
  161.1040  204.2920  151.0560 C   0  0  0  0  0  0  0  0  0  0  0  0
  160.6310  202.4080  152.3200 O   0  0  0  0  0  0  0  0  0  0  0  0
  161.1070  202.3150  146.4350 C   0  0  0  0  0  3  0  0  0  0  0  0
  160.8240  202.9190  151.1850 C   0  0  0  0  0  0  0  0  0  0  0  0
  160.8920  201.7940  147.7150 C   0  0  0  0  0  3  0  0  0  0  0  0
  160.9640  202.6320  148.8310 C   0  0  0  0  0  0  0  0  0  0  0  0
  160.7610  202.1290  150.0780 N   0  0  0  0  0  2  0  0  0  0  0  0
  161.3950  203.6750  146.2690 C   0  0  0  0  0  0  0  0  0  0  0  0
  159.2860  210.5710  154.4860 C   0  0  0  0  0  2  0  0  0  0  0  0
  160.0410  212.0610  156.1880 O   0  0  0  0  0  1  0  0  0  0  0  0
  158.9580  211.2730  155.7920 C   0  0  1  0  0  3  0  0  0  0  0  0
  157.7380  212.1520  155.5910 C   0  0  0  0  0  2  0  0  0  0  0  0
  155.6440  213.0520  153.8930 O   0  0  0  0  0  0  0  0  0  0  0  0
  157.9180  212.9920  154.4190 N   0  0  0  0  0  2  0  0  0  0  0  0
  156.8190  213.4020  153.6070 C   0  0  0  0  0  0  0  0  0  0  0  0
  157.0640  214.2500  152.4110 C   0  0  0  0  0  1  0  0  0  0  0  0
  1  6  1  0  0  0  0
  1 30  1  6  0  0  0
  3  7  1  6  0  0  0
  3  4  1  0  0  0  0
  3  5  1  0  0  0  0
  4  1  1  0  0  0  0
  5 15  1  1  0  0  0
  5  6  1  0  0  0  0
  6  2  1  0  0  0  0
  8  9  2  0  0  0  0
  9  7  1  0  0  0  0
 10 13  1  0  0  0  0
 10  9  1  0  0  0  0
 11 13  1  0  0  0  0
 13 14  1  0  0  0  0
 13 12  1  0  0  0  0
 16 17  1  0  0  0  0
 16 15  1  0  0  0  0
 18 29  1  0  0  0  0
 19 20  1  0  0  0  0
 20 27  2  0  0  0  0
 20 21  1  0  0  0  0
 21 22  2  0  0  0  0
 22 25  1  0  0  0  0
 22 17  1  0  0  0  0
 24 26  2  0  0  0  0
 25 23  2  0  0  0  0
 26 27  1  0  0  0  0
 27 28  1  0  0  0  0
 28 25  1  0  0  0  0
 29 24  1  0  0  0  0
 29 19  2  0  0  0  0
 30 32  1  0  0  0  0
 32 31  1  6  0  0  0
 33 32  1  0  0  0  0
 35 33  1  0  0  0  0
 36 34  2  0  0  0  0
 36 35  1  0  0  0  0
 37 36  1  0  0  0  0
M  END
>  <MODEL>
1

>  <REMARK>
 VINA RESULT:      -8.0      0.000      0.000
  Name = 
  12 active torsions:
  status: ('A' for Active; 'I' for Inactive)
    1  A    between atoms: C_1  and  C_31
    2  A    between atoms: O_4  and  C_7
    3  A    between atoms: O_4  and  C_11
    4  A    between atoms: C_11  and  O_28
    5  A    between atoms: C_13  and  C_17
    6  A    between atoms: C_16  and  C_18
    7  A    between atoms: C_17  and  C_34
    8  A    between atoms: C_18  and  C_34
    9  A    between atoms: N_20  and  C_29
   10  A    between atoms: C_24  and  C_29
   11  A    between atoms: C_24  and  C_31
   12  A    between atoms: C_25  and  O_28
                            x       y       z     vdW  Elec       q    Type
                         _______ _______ _______ _____ _____    ______ ____

>  <TORSDO>
F 12

$$$$
=
 OpenBabel11052410583D

 37 39  0  0  1  0  0  0  0  0999 V2000
  160.7610  211.0740  153.6550 C   0  0  2  0  0  3  0  0  0  0  0  0
  161.4740  209.2100  155.1110 C   0  0  0  0  0  1  0  0  0  0  0  0
  161.1630  210.0150  151.5140 C   0  0  2  0  0  3  0  0  0  0  0  0
  160.7470  211.3230  152.1600 C   0  0  0  0  0  2  0  0  0  0  0  0
  161.7100  209.1520  152.6430 C   0  0  1  0  0  3  0  0  0  0  0  0
  161.6950  209.9610  153.8730 N   0  0  0  0  0  0  0  0  0  0  0  0
  162.1800  210.2680  150.5540 O   0  0  0  0  0  0  0  0  0  0  0  0
  162.3230  208.6730  148.8890 O   0  0  0  0  0  0  0  0  0  0  0  0
  162.0700  209.8620  149.2190 C   0  0  0  0  0  0  0  0  0  0  0  0
  161.6730  210.7700  148.2360 O   0  0  0  0  0  0  0  0  0  0  0  0
  161.7890  212.7190  147.0230 F   0  0  0  0  0  0  0  0  0  0  0  0
  161.3520  212.8030  149.2300 F   0  0  0  0  0  0  0  0  0  0  0  0
  162.0620  212.1390  148.2490 C   0  0  0  0  0  0  0  0  0  0  0  0
  163.4150  212.2440  148.5210 F   0  0  0  0  0  0  0  0  0  0  0  0
  160.9920  207.7920  152.7270 C   0  0  0  0  0  2  0  0  0  0  0  0
  161.7860  206.6530  152.0990 C   0  0  0  0  0  2  0  0  0  0  0  0
  160.9520  205.3830  152.0610 C   0  0  0  0  0  2  0  0  0  0  0  0
  161.5560  205.7390  144.7880 F   0  0  0  0  0  0  0  0  0  0  0  0
  161.3710  205.6370  147.1620 C   0  0  0  0  0  3  0  0  0  0  0  0
  161.2600  204.8750  148.3260 C   0  0  0  0  0  0  0  0  0  0  0  0
  161.1800  205.4900  149.5750 C   0  0  0  0  0  3  0  0  0  0  0  0
  161.0760  204.7110  150.7300 C   0  0  0  0  0  0  0  0  0  0  0  0
  160.9610  202.5810  151.6370 O   0  0  0  0  0  0  0  0  0  0  0  0
  161.4100  203.6050  145.8390 C   0  0  0  0  0  3  0  0  0  0  0  0
  161.0510  203.3090  150.6130 C   0  0  0  0  0  0  0  0  0  0  0  0
  161.3010  202.8380  147.0040 C   0  0  0  0  0  3  0  0  0  0  0  0
  161.2270  203.4670  148.2490 C   0  0  0  0  0  0  0  0  0  0  0  0
  161.1260  202.7270  149.3850 N   0  0  0  0  0  2  0  0  0  0  0  0
  161.4450  205.0020  145.9180 C   0  0  0  0  0  0  0  0  0  0  0  0
  159.3280  210.7910  154.1180 C   0  0  0  0  0  2  0  0  0  0  0  0
  159.9130  212.5840  155.5760 O   0  0  0  0  0  1  0  0  0  0  0  0
  159.0240  211.5190  155.4150 C   0  0  1  0  0  3  0  0  0  0  0  0
  157.6030  212.0480  155.3660 C   0  0  0  0  0  2  0  0  0  0  0  0
  155.3570  213.6930  154.7940 O   0  0  0  0  0  0  0  0  0  0  0  0
  157.3690  212.7300  154.1040 N   0  0  0  0  0  2  0  0  0  0  0  0
  156.2140  213.5370  153.8850 C   0  0  0  0  0  0  0  0  0  0  0  0
  156.0200  214.2010  152.5690 C   0  0  0  0  0  1  0  0  0  0  0  0
  1  6  1  0  0  0  0
  1 30  1  6  0  0  0
  3  7  1  6  0  0  0
  3  4  1  0  0  0  0
  3  5  1  0  0  0  0
  4  1  1  0  0  0  0
  5 15  1  1  0  0  0
  5  6  1  0  0  0  0
  6  2  1  0  0  0  0
  8  9  2  0  0  0  0
  9  7  1  0  0  0  0
 10 13  1  0  0  0  0
 10  9  1  0  0  0  0
 11 13  1  0  0  0  0
 13 14  1  0  0  0  0
 13 12  1  0  0  0  0
 16 15  1  0  0  0  0
 17 16  1  0  0  0  0
 18 29  1  0  0  0  0
 19 20  1  0  0  0  0
 20 21  1  0  0  0  0
 21 22  2  0  0  0  0
 22 17  1  0  0  0  0
 24 29  1  0  0  0  0
 24 26  2  0  0  0  0
 25 22  1  0  0  0  0
 25 23  2  0  0  0  0
 26 27  1  0  0  0  0
 27 20  2  0  0  0  0
 27 28  1  0  0  0  0
 28 25  1  0  0  0  0
 29 19  2  0  0  0  0
 30 32  1  0  0  0  0
 32 31  1  6  0  0  0
 33 32  1  0  0  0  0
 35 33  1  0  0  0  0
 36 35  1  0  0  0  0
 36 34  2  0  0  0  0
 37 36  1  0  0  0  0
M  END
>  <MODEL>
2

>  <REMARK>
 VINA RESULT:      -7.8      1.635      1.877
  Name = 
  12 active torsions:
  status: ('A' for Active; 'I' for Inactive)
    1  A    between atoms: C_1  and  C_31
    2  A    between atoms: O_4  and  C_7
    3  A    between atoms: O_4  and  C_11
    4  A    between atoms: C_11  and  O_28
    5  A    between atoms: C_13  and  C_17
    6  A    between atoms: C_16  and  C_18
    7  A    between atoms: C_17  and  C_34
    8  A    between atoms: C_18  and  C_34
    9  A    between atoms: N_20  and  C_29
   10  A    between atoms: C_24  and  C_29
   11  A    between atoms: C_24  and  C_31
   12  A    between atoms: C_25  and  O_28
                            x       y       z     vdW  Elec       q    Type
                         _______ _______ _______ _____ _____    ______ ____

>  <TORSDO>
F 12

$$$$
=
 OpenBabel11052410583D

 37 39  0  0  1  0  0  0  0  0999 V2000
  160.8350  211.2940  154.0460 C   0  0  2  0  0  3  0  0  0  0  0  0
  161.3870  209.3510  155.4680 C   0  0  0  0  0  1  0  0  0  0  0  0
  161.2180  210.2660  151.8870 C   0  0  2  0  0  3  0  0  0  0  0  0
  160.8740  211.5820  152.5590 C   0  0  0  0  0  2  0  0  0  0  0  0
  161.6790  209.3400  153.0050 C   0  0  1  0  0  3  0  0  0  0  0  0
  161.6880  210.1160  154.2560 N   0  0  0  0  0  0  0  0  0  0  0  0
  162.2720  210.4740  150.9570 O   0  0  0  0  0  0  0  0  0  0  0  0
  162.1570  209.9090  148.7210 O   0  0  0  0  0  0  0  0  0  0  0  0
  162.0380  210.7890  149.6150 C   0  0  0  0  0  0  0  0  0  0  0  0
  161.6640  212.0830  149.2480 O   0  0  0  0  0  0  0  0  0  0  0  0
  162.1630  214.1480  148.3710 F   0  0  0  0  0  0  0  0  0  0  0  0
  163.6100  212.4440  148.1060 F   0  0  0  0  0  0  0  0  0  0  0  0
  162.2730  212.7840  148.1690 C   0  0  0  0  0  0  0  0  0  0  0  0
  161.6630  212.4400  146.9760 F   0  0  0  0  0  0  0  0  0  0  0  0
  160.8710  208.0290  153.0360 C   0  0  0  0  0  2  0  0  0  0  0  0
  161.4370  206.9520  152.1190 C   0  0  0  0  0  2  0  0  0  0  0  0
  161.0210  207.2090  150.6800 C   0  0  0  0  0  2  0  0  0  0  0  0
  160.8760  199.9080  150.4020 F   0  0  0  0  0  0  0  0  0  0  0  0
  160.9110  202.2890  150.5060 C   0  0  0  0  0  3  0  0  0  0  0  0
  160.9900  203.5190  149.8500 C   0  0  0  0  0  0  0  0  0  0  0  0
  160.9510  204.7130  150.5680 C   0  0  0  0  0  3  0  0  0  0  0  0
  161.0250  205.9350  149.8940 C   0  0  0  0  0  0  0  0  0  0  0  0
  161.2090  207.0260  147.8580 O   0  0  0  0  0  0  0  0  0  0  0  0
  161.0820  201.1450  148.3750 C   0  0  0  0  0  3  0  0  0  0  0  0
  161.1430  205.9400  148.4920 C   0  0  0  0  0  0  0  0  0  0  0  0
  161.1600  202.3750  147.7140 C   0  0  0  0  0  3  0  0  0  0  0  0
  161.1140  203.5640  148.4460 C   0  0  0  0  0  0  0  0  0  0  0  0
  161.1840  204.7630  147.8080 N   0  0  0  0  0  2  0  0  0  0  0  0
  160.9570  201.1020  149.7680 C   0  0  0  0  0  0  0  0  0  0  0  0
  159.3750  211.0960  154.4690 C   0  0  0  0  0  2  0  0  0  0  0  0
  159.8590  213.1920  155.4970 O   0  0  0  0  0  1  0  0  0  0  0  0
  158.9740  212.1110  155.5240 C   0  0  1  0  0  3  0  0  0  0  0  0
  157.5670  212.5990  155.2340 C   0  0  0  0  0  2  0  0  0  0  0  0
  155.4470  211.5310  156.7970 O   0  0  0  0  0  0  0  0  0  0  0  0
  156.7250  211.4820  154.8430 N   0  0  0  0  0  2  0  0  0  0  0  0
  155.6790  210.9930  155.6820 C   0  0  0  0  0  0  0  0  0  0  0  0
  154.8580  209.8380  155.2360 C   0  0  0  0  0  1  0  0  0  0  0  0
  1  6  1  0  0  0  0
  1 30  1  6  0  0  0
  3  7  1  6  0  0  0
  3  4  1  0  0  0  0
  3  5  1  0  0  0  0
  4  1  1  0  0  0  0
  5 15  1  1  0  0  0
  5  6  1  0  0  0  0
  6  2  1  0  0  0  0
  8  9  2  0  0  0  0
  9  7  1  0  0  0  0
 10  9  1  0  0  0  0
 12 13  1  0  0  0  0
 13 11  1  0  0  0  0
 13 10  1  0  0  0  0
 14 13  1  0  0  0  0
 16 15  1  0  0  0  0
 17 16  1  0  0  0  0
 20 19  1  0  0  0  0
 20 21  1  0  0  0  0
 22 21  2  0  0  0  0
 22 17  1  0  0  0  0
 23 25  2  0  0  0  0
 24 29  1  0  0  0  0
 25 22  1  0  0  0  0
 26 24  2  0  0  0  0
 26 27  1  0  0  0  0
 27 20  2  0  0  0  0
 28 27  1  0  0  0  0
 28 25  1  0  0  0  0
 29 18  1  0  0  0  0
 29 19  2  0  0  0  0
 30 32  1  0  0  0  0
 32 31  1  6  0  0  0
 33 32  1  0  0  0  0
 35 33  1  0  0  0  0
 35 36  1  0  0  0  0
 36 34  2  0  0  0  0
 37 36  1  0  0  0  0
M  END
>  <MODEL>
3

>  <REMARK>
 VINA RESULT:      -7.5      2.505      3.126
  Name = 
  12 active torsions:
  status: ('A' for Active; 'I' for Inactive)
    1  A    between atoms: C_1  and  C_31
    2  A    between atoms: O_4  and  C_7
    3  A    between atoms: O_4  and  C_11
    4  A    between atoms: C_11  and  O_28
    5  A    between atoms: C_13  and  C_17
    6  A    between atoms: C_16  and  C_18
    7  A    between atoms: C_17  and  C_34
    8  A    between atoms: C_18  and  C_34
    9  A    between atoms: N_20  and  C_29
   10  A    between atoms: C_24  and  C_29
   11  A    between atoms: C_24  and  C_31
   12  A    between atoms: C_25  and  O_28
                            x       y       z     vdW  Elec       q    Type
                         _______ _______ _______ _____ _____    ______ ____

>  <TORSDO>
F 12

$$$$
=
 OpenBabel11052410583D

 37 39  0  0  1  0  0  0  0  0999 V2000
  160.8640  205.5350  148.2230 C   0  0  2  0  0  3  0  0  0  0  0  0
  160.3580  203.9440  150.0450 C   0  0  0  0  0  1  0  0  0  0  0  0
  161.8310  207.3040  149.5650 C   0  0  2  0  0  3  0  0  0  0  0  0
  161.4130  206.9450  148.1520 C   0  0  0  0  0  2  0  0  0  0  0  0
  161.2260  206.2300  150.4600 C   0  0  1  0  0  3  0  0  0  0  0  0
  160.4170  205.3410  149.6090 N   0  0  0  0  0  0  0  0  0  0  0  0
  161.3020  208.5790  149.9030 O   0  0  0  0  0  0  0  0  0  0  0  0
  162.6650  210.2010  150.8230 O   0  0  0  0  0  0  0  0  0  0  0  0
  162.0580  209.7530  149.8140 C   0  0  0  0  0  0  0  0  0  0  0  0
  162.1530  210.4410  148.6030 O   0  0  0  0  0  0  0  0  0  0  0  0
  163.1470  212.5070  148.4410 F   0  0  0  0  0  0  0  0  0  0  0  0
  161.2250  212.1030  147.3390 F   0  0  0  0  0  0  0  0  0  0  0  0
  161.9340  211.8430  148.4950 C   0  0  0  0  0  0  0  0  0  0  0  0
  161.2070  212.2940  149.5820 F   0  0  0  0  0  0  0  0  0  0  0  0
  162.2920  205.5370  151.3290 C   0  0  0  0  0  2  0  0  0  0  0  0
  162.4740  206.1920  152.6930 C   0  0  0  0  0  2  0  0  0  0  0  0
  161.2000  206.0690  153.5140 C   0  0  0  0  0  2  0  0  0  0  0  0
  159.9050  213.1830  152.4600 F   0  0  0  0  0  0  0  0  0  0  0  0
  160.3200  210.8580  152.7870 C   0  0  0  0  0  3  0  0  0  0  0  0
  160.3750  209.7570  153.6440 C   0  0  0  0  0  0  0  0  0  0  0  0
  160.7330  208.4990  153.1630 C   0  0  0  0  0  3  0  0  0  0  0  0
  160.7760  207.4070  154.0340 C   0  0  0  0  0  0  0  0  0  0  0  0
  160.4870  206.6310  156.1980 O   0  0  0  0  0  0  0  0  0  0  0  0
  159.6610  212.2680  154.6470 C   0  0  0  0  0  3  0  0  0  0  0  0
  160.4590  207.5970  155.3910 C   0  0  0  0  0  0  0  0  0  0  0  0
  159.7130  211.1670  155.5080 C   0  0  0  0  0  3  0  0  0  0  0  0
  160.0690  209.9100  155.0120 C   0  0  0  0  0  0  0  0  0  0  0  0
  160.1160  208.8350  155.8430 N   0  0  0  0  0  2  0  0  0  0  0  0
  159.9630  212.1140  153.2900 C   0  0  0  0  0  0  0  0  0  0  0  0
  161.9590  204.5600  147.7760 C   0  0  0  0  0  2  0  0  0  0  0  0
  163.7830  204.3930  146.2490 O   0  0  0  0  0  1  0  0  0  0  0  0
  162.5180  204.9590  146.4210 C   0  0  1  0  0  3  0  0  0  0  0  0
  161.5850  204.4600  145.3330 C   0  0  0  0  0  2  0  0  0  0  0  0
  159.4260  203.0360  144.1550 O   0  0  0  0  0  0  0  0  0  0  0  0
  161.3260  203.0410  145.5130 N   0  0  0  0  0  2  0  0  0  0  0  0
  160.2160  202.3920  144.8950 C   0  0  0  0  0  0  0  0  0  0  0  0
  159.9920  200.9410  145.1250 C   0  0  0  0  0  1  0  0  0  0  0  0
  1 30  1  1  0  0  0
  1  6  1  0  0  0  0
  3  7  1  1  0  0  0
  3  5  1  0  0  0  0
  4  1  1  0  0  0  0
  4  3  1  0  0  0  0
  5 15  1  6  0  0  0
  6  2  1  0  0  0  0
  6  5  1  0  0  0  0
  9  7  1  0  0  0  0
  9  8  2  0  0  0  0
 10  9  1  0  0  0  0
 11 13  1  0  0  0  0
 12 13  1  0  0  0  0
 13 10  1  0  0  0  0
 13 14  1  0  0  0  0
 15 16  1  0  0  0  0
 16 17  1  0  0  0  0
 17 22  1  0  0  0  0
 18 29  1  0  0  0  0
 19 29  2  0  0  0  0
 19 20  1  0  0  0  0
 20 27  2  0  0  0  0
 21 20  1  0  0  0  0
 21 22  2  0  0  0  0
 22 25  1  0  0  0  0
 24 26  2  0  0  0  0
 25 28  1  0  0  0  0
 25 23  2  0  0  0  0
 27 26  1  0  0  0  0
 27 28  1  0  0  0  0
 29 24  1  0  0  0  0
 32 31  1  6  0  0  0
 32 30  1  0  0  0  0
 33 35  1  0  0  0  0
 33 32  1  0  0  0  0
 34 36  2  0  0  0  0
 36 37  1  0  0  0  0
 36 35  1  0  0  0  0
M  END
>  <MODEL>
4

>  <REMARK>
 VINA RESULT:      -7.5      3.192      8.630
  Name = 
  12 active torsions:
  status: ('A' for Active; 'I' for Inactive)
    1  A    between atoms: C_1  and  C_31
    2  A    between atoms: O_4  and  C_7
    3  A    between atoms: O_4  and  C_11
    4  A    between atoms: C_11  and  O_28
    5  A    between atoms: C_13  and  C_17
    6  A    between atoms: C_16  and  C_18
    7  A    between atoms: C_17  and  C_34
    8  A    between atoms: C_18  and  C_34
    9  A    between atoms: N_20  and  C_29
   10  A    between atoms: C_24  and  C_29
   11  A    between atoms: C_24  and  C_31
   12  A    between atoms: C_25  and  O_28
                            x       y       z     vdW  Elec       q    Type
                         _______ _______ _______ _____ _____    ______ ____

>  <TORSDO>
F 12

$$$$
=
 OpenBabel11052410583D

 37 39  0  0  1  0  0  0  0  0999 V2000
  160.7710  205.8120  147.8000 C   0  0  2  0  0  3  0  0  0  0  0  0
  160.3730  204.7520  149.9950 C   0  0  0  0  0  1  0  0  0  0  0  0
  161.8600  207.8290  148.5800 C   0  0  2  0  0  3  0  0  0  0  0  0
  161.3350  207.1390  147.3350 C   0  0  0  0  0  2  0  0  0  0  0  0
  161.3050  207.0380  149.7560 C   0  0  1  0  0  3  0  0  0  0  0  0
  160.4220  205.9910  149.2160 N   0  0  0  0  0  0  0  0  0  0  0  0
  161.3770  209.1650  148.6160 O   0  0  0  0  0  0  0  0  0  0  0  0
  162.4150  210.3110  150.3320 O   0  0  0  0  0  0  0  0  0  0  0  0
  162.1450  210.2280  149.1040 C   0  0  0  0  0  0  0  0  0  0  0  0
  162.6260  211.2090  148.2350 O   0  0  0  0  0  0  0  0  0  0  0  0
  162.6290  213.1920  147.0720 F   0  0  0  0  0  0  0  0  0  0  0  0
  160.7340  211.9840  147.2140 F   0  0  0  0  0  0  0  0  0  0  0  0
  161.8750  212.3680  147.8890 C   0  0  0  0  0  0  0  0  0  0  0  0
  161.5140  213.0560  149.0340 F   0  0  0  0  0  0  0  0  0  0  0  0
  162.4200  206.5520  150.7010 C   0  0  0  0  0  2  0  0  0  0  0  0
  162.4360  207.2830  152.0380 C   0  0  0  0  0  2  0  0  0  0  0  0
  161.1290  207.0580  152.7800 C   0  0  0  0  0  2  0  0  0  0  0  0
  158.8870  214.0010  152.3730 F   0  0  0  0  0  0  0  0  0  0  0  0
  159.6080  211.7320  152.4910 C   0  0  0  0  0  3  0  0  0  0  0  0
  159.9510  210.6200  153.2610 C   0  0  0  0  0  0  0  0  0  0  0  0
  160.3410  209.4270  152.6550 C   0  0  0  0  0  3  0  0  0  0  0  0
  160.6740  208.3220  153.4420 C   0  0  0  0  0  0  0  0  0  0  0  0
  160.9070  207.4520  155.5780 O   0  0  0  0  0  0  0  0  0  0  0  0
  159.1820  212.9980  154.5150 C   0  0  0  0  0  3  0  0  0  0  0  0
  160.6140  208.4330  154.8440 C   0  0  0  0  0  0  0  0  0  0  0  0
  159.5230  211.8850  155.2910 C   0  0  0  0  0  3  0  0  0  0  0  0
  159.9080  210.6950  154.6690 C   0  0  0  0  0  0  0  0  0  0  0  0
  160.2350  209.6070  155.4180 N   0  0  0  0  0  2  0  0  0  0  0  0
  159.2230  212.9220  153.1180 C   0  0  0  0  0  0  0  0  0  0  0  0
  161.8150  204.7190  147.5440 C   0  0  0  0  0  2  0  0  0  0  0  0
  162.7470  204.1540  145.4230 O   0  0  0  0  0  1  0  0  0  0  0  0
  161.5880  204.0590  146.1950 C   0  0  1  0  0  3  0  0  0  0  0  0
  161.2380  202.5990  146.4100 C   0  0  0  0  0  2  0  0  0  0  0  0
  161.5320  200.0560  147.6460 O   0  0  0  0  0  0  0  0  0  0  0  0
  161.0540  202.3350  147.8270 N   0  0  0  0  0  2  0  0  0  0  0  0
  161.2130  201.0290  148.3800 C   0  0  0  0  0  0  0  0  0  0  0  0
  160.9990  200.8160  149.8350 C   0  0  0  0  0  1  0  0  0  0  0  0
  1 30  1  1  0  0  0
  1  6  1  0  0  0  0
  3  7  1  1  0  0  0
  3  5  1  0  0  0  0
  4  1  1  0  0  0  0
  4  3  1  0  0  0  0
  5 15  1  6  0  0  0
  6  5  1  0  0  0  0
  6  2  1  0  0  0  0
  7  9  1  0  0  0  0
  9  8  2  0  0  0  0
 10  9  1  0  0  0  0
 11 13  1  0  0  0  0
 12 13  1  0  0  0  0
 13 10  1  0  0  0  0
 13 14  1  0  0  0  0
 15 16  1  0  0  0  0
 16 17  1  0  0  0  0
 17 22  1  0  0  0  0
 18 29  1  0  0  0  0
 19 29  2  0  0  0  0
 19 20  1  0  0  0  0
 20 27  2  0  0  0  0
 21 20  1  0  0  0  0
 21 22  2  0  0  0  0
 22 25  1  0  0  0  0
 24 26  2  0  0  0  0
 25 28  1  0  0  0  0
 25 23  2  0  0  0  0
 27 26  1  0  0  0  0
 27 28  1  0  0  0  0
 29 24  1  0  0  0  0
 32 31  1  6  0  0  0
 32 33  1  0  0  0  0
 32 30  1  0  0  0  0
 33 35  1  0  0  0  0
 34 36  2  0  0  0  0
 35 36  1  0  0  0  0
 36 37  1  0  0  0  0
M  END
>  <MODEL>
5

>  <REMARK>
 VINA RESULT:      -7.3      2.965      8.837
  Name = 
  12 active torsions:
  status: ('A' for Active; 'I' for Inactive)
    1  A    between atoms: C_1  and  C_31
    2  A    between atoms: O_4  and  C_7
    3  A    between atoms: O_4  and  C_11
    4  A    between atoms: C_11  and  O_28
    5  A    between atoms: C_13  and  C_17
    6  A    between atoms: C_16  and  C_18
    7  A    between atoms: C_17  and  C_34
    8  A    between atoms: C_18  and  C_34
    9  A    between atoms: N_20  and  C_29
   10  A    between atoms: C_24  and  C_29
   11  A    between atoms: C_24  and  C_31
   12  A    between atoms: C_25  and  O_28
                            x       y       z     vdW  Elec       q    Type
                         _______ _______ _______ _____ _____    ______ ____

>  <TORSDO>
F 12

$$$$
=
 OpenBabel11052410583D

 37 39  0  0  1  0  0  0  0  0999 V2000
  161.8800  209.0040  152.0570 C   0  0  2  0  0  3  0  0  0  0  0  0
  162.7060  206.8920  151.0770 C   0  0  0  0  0  1  0  0  0  0  0  0
  161.6300  210.2660  150.0060 C   0  0  2  0  0  3  0  0  0  0  0  0
  161.5340  210.3760  151.5160 C   0  0  0  0  0  2  0  0  0  0  0  0
  162.3310  208.9420  149.7320 C   0  0  1  0  0  3  0  0  0  0  0  0
  162.7060  208.3560  151.0290 N   0  0  0  0  0  0  0  0  0  0  0  0
  162.4080  211.3450  149.5040 O   0  0  0  0  0  0  0  0  0  0  0  0
  163.2090  212.4280  147.6280 O   0  0  0  0  0  0  0  0  0  0  0  0
  162.2550  211.8390  148.2040 C   0  0  0  0  0  0  0  0  0  0  0  0
  161.0460  211.6810  147.5250 O   0  0  0  0  0  0  0  0  0  0  0  0
  160.6230  213.6930  146.4960 F   0  0  0  0  0  0  0  0  0  0  0  0
  158.9400  212.2350  146.8320 F   0  0  0  0  0  0  0  0  0  0  0  0
  160.1110  212.7410  147.3610 C   0  0  0  0  0  0  0  0  0  0  0  0
  159.8380  213.3260  148.5850 F   0  0  0  0  0  0  0  0  0  0  0  0
  161.5050  208.0350  148.8010 C   0  0  0  0  0  2  0  0  0  0  0  0
  162.3310  207.4110  147.6830 C   0  0  0  0  0  2  0  0  0  0  0  0
  161.4400  206.5990  146.7560 C   0  0  0  0  0  2  0  0  0  0  0  0
  160.6610  201.7950  152.2070 F   0  0  0  0  0  0  0  0  0  0  0  0
  160.9030  203.3730  150.4370 C   0  0  0  0  0  3  0  0  0  0  0  0
  161.0760  203.6350  149.0770 C   0  0  0  0  0  0  0  0  0  0  0  0
  161.1530  204.9450  148.6080 C   0  0  0  0  0  3  0  0  0  0  0  0
  161.3200  205.1880  147.2420 C   0  0  0  0  0  0  0  0  0  0  0  0
  161.5610  204.2880  145.1200 O   0  0  0  0  0  0  0  0  0  0  0  0
  160.9360  200.9920  149.9800 C   0  0  0  0  0  3  0  0  0  0  0  0
  161.4130  204.0990  146.3570 C   0  0  0  0  0  0  0  0  0  0  0  0
  161.1080  201.2500  148.6160 C   0  0  0  0  0  3  0  0  0  0  0  0
  161.1780  202.5680  148.1590 C   0  0  0  0  0  0  0  0  0  0  0  0
  161.3400  202.8260  146.8340 N   0  0  0  0  0  2  0  0  0  0  0  0
  160.8330  202.0510  150.8890 C   0  0  0  0  0  0  0  0  0  0  0  0
  160.5780  208.2610  152.3760 C   0  0  0  0  0  2  0  0  0  0  0  0
  161.4100  206.8460  154.1050 O   0  0  0  0  0  1  0  0  0  0  0  0
  160.5150  207.8860  153.8460 C   0  0  1  0  0  3  0  0  0  0  0  0
  160.8860  209.0950  154.6840 C   0  0  0  0  0  2  0  0  0  0  0  0
  159.3720  211.3940  153.9770 O   0  0  0  0  0  0  0  0  0  0  0  0
  159.7190  209.5780  155.4030 N   0  0  0  0  0  2  0  0  0  0  0  0
  159.0090  210.7460  154.9940 C   0  0  0  0  0  0  0  0  0  0  0  0
  157.8300  211.2010  155.7760 C   0  0  0  0  0  1  0  0  0  0  0  0
  1 30  1  6  0  0  0
  3  7  1  1  0  0  0
  3  4  1  0  0  0  0
  4  1  1  0  0  0  0
  5 15  1  1  0  0  0
  5  3  1  0  0  0  0
  5  6  1  0  0  0  0
  6  2  1  0  0  0  0
  6  1  1  0  0  0  0
  8  9  2  0  0  0  0
  9  7  1  0  0  0  0
 10  9  1  0  0  0  0
 11 13  1  0  0  0  0
 12 13  1  0  0  0  0
 13 10  1  0  0  0  0
 13 14  1  0  0  0  0
 16 15  1  0  0  0  0
 17 22  1  0  0  0  0
 17 16  1  0  0  0  0
 19 29  1  0  0  0  0
 20 19  2  0  0  0  0
 21 20  1  0  0  0  0
 22 21  2  0  0  0  0
 23 25  2  0  0  0  0
 24 29  2  0  0  0  0
 25 28  1  0  0  0  0
 25 22  1  0  0  0  0
 26 24  1  0  0  0  0
 27 26  2  0  0  0  0
 27 20  1  0  0  0  0
 28 27  1  0  0  0  0
 29 18  1  0  0  0  0
 30 32  1  0  0  0  0
 32 31  1  6  0  0  0
 32 33  1  0  0  0  0
 33 35  1  0  0  0  0
 34 36  2  0  0  0  0
 36 35  1  0  0  0  0
 36 37  1  0  0  0  0
M  END
>  <MODEL>
6

>  <REMARK>
 VINA RESULT:      -7.1      2.897      4.248
  Name = 
  12 active torsions:
  status: ('A' for Active; 'I' for Inactive)
    1  A    between atoms: C_1  and  C_31
    2  A    between atoms: O_4  and  C_7
    3  A    between atoms: O_4  and  C_11
    4  A    between atoms: C_11  and  O_28
    5  A    between atoms: C_13  and  C_17
    6  A    between atoms: C_16  and  C_18
    7  A    between atoms: C_17  and  C_34
    8  A    between atoms: C_18  and  C_34
    9  A    between atoms: N_20  and  C_29
   10  A    between atoms: C_24  and  C_29
   11  A    between atoms: C_24  and  C_31
   12  A    between atoms: C_25  and  O_28
                            x       y       z     vdW  Elec       q    Type
                         _______ _______ _______ _____ _____    ______ ____

>  <TORSDO>
F 12

$$$$
=
 OpenBabel11052410583D

 37 39  0  0  1  0  0  0  0  0999 V2000
  160.3800  203.2690  150.0800 C   0  0  2  0  0  3  0  0  0  0  0  0
  160.3640  203.3960  152.5470 C   0  0  0  0  0  1  0  0  0  0  0  0
  161.5000  205.3680  149.6300 C   0  0  2  0  0  3  0  0  0  0  0  0
  160.8150  204.1910  148.9600 C   0  0  0  0  0  2  0  0  0  0  0  0
  161.1620  205.2540  151.1100 C   0  0  1  0  0  3  0  0  0  0  0  0
  160.2460  204.1130  151.2750 N   0  0  0  0  0  0  0  0  0  0  0  0
  160.9780  206.5790  149.1000 O   0  0  0  0  0  0  0  0  0  0  0  0
  162.3580  208.2300  148.2600 O   0  0  0  0  0  0  0  0  0  0  0  0
  161.5870  207.2580  148.0390 C   0  0  0  0  0  0  0  0  0  0  0  0
  161.3520  206.8640  146.7210 O   0  0  0  0  0  0  0  0  0  0  0  0
  161.1810  204.7240  145.9000 F   0  0  0  0  0  0  0  0  0  0  0  0
  162.5420  206.2030  144.8850 F   0  0  0  0  0  0  0  0  0  0  0  0
  162.0450  205.7850  146.1040 C   0  0  0  0  0  0  0  0  0  0  0  0
  163.0970  205.3790  146.9060 F   0  0  0  0  0  0  0  0  0  0  0  0
  162.4260  205.2300  151.9890 C   0  0  0  0  0  2  0  0  0  0  0  0
  162.5000  206.3960  152.9680 C   0  0  0  0  0  2  0  0  0  0  0  0
  161.3510  206.3270  153.9610 C   0  0  0  0  0  2  0  0  0  0  0  0
  160.0270  213.1810  151.8010 F   0  0  0  0  0  0  0  0  0  0  0  0
  160.4540  210.9390  152.4890 C   0  0  0  0  0  3  0  0  0  0  0  0
  160.3970  209.9550  153.4770 C   0  0  0  0  0  0  0  0  0  0  0  0
  160.8730  208.6680  153.2290 C   0  0  0  0  0  3  0  0  0  0  0  0
  160.8020  207.6940  154.2270 C   0  0  0  0  0  0  0  0  0  0  0  0
  160.1710  207.1710  156.3960 O   0  0  0  0  0  0  0  0  0  0  0  0
  159.4410  212.5260  154.0170 C   0  0  0  0  0  3  0  0  0  0  0  0
  160.2500  208.0300  155.4780 C   0  0  0  0  0  0  0  0  0  0  0  0
  159.3800  211.5420  155.0090 C   0  0  0  0  0  3  0  0  0  0  0  0
  159.8560  210.2560  154.7450 C   0  0  0  0  0  0  0  0  0  0  0  0
  159.7950  209.2930  155.7030 N   0  0  0  0  0  2  0  0  0  0  0  0
  159.9760  212.2260  152.7600 C   0  0  0  0  0  0  0  0  0  0  0  0
  161.4120  202.1440  150.2180 C   0  0  0  0  0  2  0  0  0  0  0  0
  159.5060  200.9560  149.4160 O   0  0  0  0  0  1  0  0  0  0  0  0
  160.8810  200.8480  149.6310 C   0  0  1  0  0  3  0  0  0  0  0  0
  161.5810  200.5770  148.3120 C   0  0  0  0  0  2  0  0  0  0  0  0
  161.1290  199.5880  145.6860 O   0  0  0  0  0  0  0  0  0  0  0  0
  160.9300  201.3170  147.2430 N   0  0  0  0  0  2  0  0  0  0  0  0
  160.7410  200.7580  145.9440 C   0  0  0  0  0  0  0  0  0  0  0  0
  160.0800  201.5660  144.8860 C   0  0  0  0  0  1  0  0  0  0  0  0
  1 30  1  1  0  0  0
  1  6  1  0  0  0  0
  3  7  1  6  0  0  0
  3  5  1  0  0  0  0
  4  3  1  0  0  0  0
  4  1  1  0  0  0  0
  5  6  1  0  0  0  0
  5 15  1  1  0  0  0
  6  2  1  0  0  0  0
  9  8  2  0  0  0  0
  9  7  1  0  0  0  0
 10  9  1  0  0  0  0
 11 13  1  0  0  0  0
 12 13  1  0  0  0  0
 13 10  1  0  0  0  0
 13 14  1  0  0  0  0
 15 16  1  0  0  0  0
 16 17  1  0  0  0  0
 17 22  1  0  0  0  0
 18 29  1  0  0  0  0
 19 29  2  0  0  0  0
 19 20  1  0  0  0  0
 20 27  2  0  0  0  0
 21 20  1  0  0  0  0
 21 22  2  0  0  0  0
 22 25  1  0  0  0  0
 24 26  2  0  0  0  0
 25 28  1  0  0  0  0
 25 23  2  0  0  0  0
 27 26  1  0  0  0  0
 27 28  1  0  0  0  0
 29 24  1  0  0  0  0
 32 31  1  6  0  0  0
 32 30  1  0  0  0  0
 33 32  1  0  0  0  0
 34 36  2  0  0  0  0
 35 33  1  0  0  0  0
 36 35  1  0  0  0  0
 37 36  1  0  0  0  0
M  END
>  <MODEL>
7

>  <REMARK>
 VINA RESULT:      -7.1      2.622      8.925
  Name = 
  12 active torsions:
  status: ('A' for Active; 'I' for Inactive)
    1  A    between atoms: C_1  and  C_31
    2  A    between atoms: O_4  and  C_7
    3  A    between atoms: O_4  and  C_11
    4  A    between atoms: C_11  and  O_28
    5  A    between atoms: C_13  and  C_17
    6  A    between atoms: C_16  and  C_18
    7  A    between atoms: C_17  and  C_34
    8  A    between atoms: C_18  and  C_34
    9  A    between atoms: N_20  and  C_29
   10  A    between atoms: C_24  and  C_29
   11  A    between atoms: C_24  and  C_31
   12  A    between atoms: C_25  and  O_28
                            x       y       z     vdW  Elec       q    Type
                         _______ _______ _______ _____ _____    ______ ____

>  <TORSDO>
F 12

$$$$
=
 OpenBabel11052410583D

 37 39  0  0  1  0  0  0  0  0999 V2000
  160.5350  204.0650  149.2510 C   0  0  2  0  0  3  0  0  0  0  0  0
  160.4540  203.4920  151.6530 C   0  0  0  0  0  1  0  0  0  0  0  0
  161.6440  206.2090  149.4420 C   0  0  2  0  0  3  0  0  0  0  0  0
  160.9900  205.2670  148.4490 C   0  0  0  0  0  2  0  0  0  0  0  0
  161.2690  205.6820  150.8200 C   0  0  1  0  0  3  0  0  0  0  0  0
  160.3620  204.5380  150.6310 N   0  0  0  0  0  0  0  0  0  0  0  0
  161.1240  207.5190  149.2600 O   0  0  0  0  0  0  0  0  0  0  0  0
  162.5230  208.8860  150.4880 O   0  0  0  0  0  0  0  0  0  0  0  0
  161.9100  208.6670  149.4090 C   0  0  0  0  0  0  0  0  0  0  0  0
  162.0290  209.5820  148.3620 O   0  0  0  0  0  0  0  0  0  0  0  0
  161.5900  211.2640  149.8660 F   0  0  0  0  0  0  0  0  0  0  0  0
  163.1550  211.5700  148.2750 F   0  0  0  0  0  0  0  0  0  0  0  0
  161.9330  210.9890  148.5540 C   0  0  0  0  0  0  0  0  0  0  0  0
  160.9770  211.5180  147.7050 F   0  0  0  0  0  0  0  0  0  0  0  0
  162.5110  205.4150  151.6920 C   0  0  0  0  0  2  0  0  0  0  0  0
  162.5850  206.3120  152.9220 C   0  0  0  0  0  2  0  0  0  0  0  0
  161.3090  206.1940  153.7410 C   0  0  0  0  0  2  0  0  0  0  0  0
  159.9450  213.2230  152.2820 F   0  0  0  0  0  0  0  0  0  0  0  0
  160.3830  210.9250  152.7410 C   0  0  0  0  0  3  0  0  0  0  0  0
  160.4110  209.8670  153.6510 C   0  0  0  0  0  0  0  0  0  0  0  0
  160.8180  208.5950  153.2510 C   0  0  0  0  0  3  0  0  0  0  0  0
  160.8340  207.5460  154.1730 C   0  0  0  0  0  0  0  0  0  0  0  0
  160.4410  206.8650  156.3540 O   0  0  0  0  0  0  0  0  0  0  0  0
  159.5980  212.4060  154.4940 C   0  0  0  0  0  3  0  0  0  0  0  0
  160.4390  207.7920  155.5010 C   0  0  0  0  0  0  0  0  0  0  0  0
  159.6230  211.3470  155.4080 C   0  0  0  0  0  3  0  0  0  0  0  0
  160.0280  210.0770  154.9920 C   0  0  0  0  0  0  0  0  0  0  0  0
  160.0490  209.0420  155.8740 N   0  0  0  0  0  2  0  0  0  0  0  0
  159.9760  212.1950  153.1630 C   0  0  0  0  0  0  0  0  0  0  0  0
  161.5750  202.9500  149.0960 C   0  0  0  0  0  2  0  0  0  0  0  0
  159.5290  201.7380  148.9330 O   0  0  0  0  0  1  0  0  0  0  0  0
  160.9080  201.6330  148.7420 C   0  0  1  0  0  3  0  0  0  0  0  0
  161.1960  201.3050  147.2890 C   0  0  0  0  0  2  0  0  0  0  0  0
  159.7390  201.7040  144.8810 O   0  0  0  0  0  0  0  0  0  0  0  0
  161.2110  202.5240  146.4980 N   0  0  0  0  0  2  0  0  0  0  0  0
  160.4570  202.6530  145.2930 C   0  0  0  0  0  0  0  0  0  0  0  0
  160.5210  203.9190  144.5180 C   0  0  0  0  0  1  0  0  0  0  0  0
  1 30  1  1  0  0  0
  1  6  1  0  0  0  0
  3  7  1  6  0  0  0
  3  5  1  0  0  0  0
  4  1  1  0  0  0  0
  4  3  1  0  0  0  0
  5 15  1  6  0  0  0
  6  5  1  0  0  0  0
  6  2  1  0  0  0  0
  7  9  1  0  0  0  0
  9  8  2  0  0  0  0
 10 13  1  0  0  0  0
 10  9  1  0  0  0  0
 12 13  1  0  0  0  0
 13 11  1  0  0  0  0
 14 13  1  0  0  0  0
 15 16  1  0  0  0  0
 16 17  1  0  0  0  0
 17 22  1  0  0  0  0
 18 29  1  0  0  0  0
 19 29  2  0  0  0  0
 19 20  1  0  0  0  0
 20 27  2  0  0  0  0
 21 20  1  0  0  0  0
 21 22  2  0  0  0  0
 22 25  1  0  0  0  0
 24 26  2  0  0  0  0
 25 28  1  0  0  0  0
 25 23  2  0  0  0  0
 27 26  1  0  0  0  0
 27 28  1  0  0  0  0
 29 24  1  0  0  0  0
 32 31  1  6  0  0  0
 32 30  1  0  0  0  0
 33 32  1  0  0  0  0
 34 36  2  0  0  0  0
 35 33  1  0  0  0  0
 36 35  1  0  0  0  0
 37 36  1  0  0  0  0
M  END
>  <MODEL>
8

>  <REMARK>
 VINA RESULT:      -7.1      2.891      8.601
  Name = 
  12 active torsions:
  status: ('A' for Active; 'I' for Inactive)
    1  A    between atoms: C_1  and  C_31
    2  A    between atoms: O_4  and  C_7
    3  A    between atoms: O_4  and  C_11
    4  A    between atoms: C_11  and  O_28
    5  A    between atoms: C_13  and  C_17
    6  A    between atoms: C_16  and  C_18
    7  A    between atoms: C_17  and  C_34
    8  A    between atoms: C_18  and  C_34
    9  A    between atoms: N_20  and  C_29
   10  A    between atoms: C_24  and  C_29
   11  A    between atoms: C_24  and  C_31
   12  A    between atoms: C_25  and  O_28
                            x       y       z     vdW  Elec       q    Type
                         _______ _______ _______ _____ _____    ______ ____

>  <TORSDO>
F 12

$$$$
=
 OpenBabel11052410583D

 37 39  0  0  1  0  0  0  0  0999 V2000
  159.8840  210.0840  154.9250 C   0  0  2  0  0  3  0  0  0  0  0  0
  159.7930  211.1290  152.6890 C   0  0  0  0  0  1  0  0  0  0  0  0
  161.1200  208.0900  154.3270 C   0  0  2  0  0  3  0  0  0  0  0  0
  160.4010  208.7710  155.4760 C   0  0  0  0  0  2  0  0  0  0  0  0
  160.7290  208.8650  153.0770 C   0  0  1  0  0  3  0  0  0  0  0  0
  159.7530  209.8940  153.4740 N   0  0  0  0  0  0  0  0  0  0  0  0
  160.6770  206.7430  154.2270 O   0  0  0  0  0  0  0  0  0  0  0  0
  162.5490  206.0040  153.0940 O   0  0  0  0  0  0  0  0  0  0  0  0
  161.3810  205.7720  153.5070 C   0  0  0  0  0  0  0  0  0  0  0  0
  160.8010  204.5310  153.2400 O   0  0  0  0  0  0  0  0  0  0  0  0
  161.1480  202.4280  152.3800 F   0  0  0  0  0  0  0  0  0  0  0  0
  160.1140  203.9890  151.1290 F   0  0  0  0  0  0  0  0  0  0  0  0
  161.1000  203.7760  152.0710 C   0  0  0  0  0  0  0  0  0  0  0  0
  162.3180  204.1760  151.5490 F   0  0  0  0  0  0  0  0  0  0  0  0
  161.9610  209.3740  152.3050 C   0  0  0  0  0  2  0  0  0  0  0  0
  162.2920  208.5320  151.0790 C   0  0  0  0  0  2  0  0  0  0  0  0
  161.0380  207.8570  150.5460 C   0  0  0  0  0  2  0  0  0  0  0  0
  160.8760  201.6480  146.6970 F   0  0  0  0  0  0  0  0  0  0  0  0
  160.9110  203.6700  147.9590 C   0  0  0  0  0  3  0  0  0  0  0  0
  161.2810  205.0110  148.0660 C   0  0  0  0  0  0  0  0  0  0  0  0
  160.9710  205.7460  149.2100 C   0  0  0  0  0  3  0  0  0  0  0  0
  161.3430  207.0900  149.2970 C   0  0  0  0  0  0  0  0  0  0  0  0
  162.3780  208.8930  148.2740 O   0  0  0  0  0  0  0  0  0  0  0  0
  161.9300  203.5690  145.7600 C   0  0  0  0  0  3  0  0  0  0  0  0
  162.0330  207.6830  148.2240 C   0  0  0  0  0  0  0  0  0  0  0  0
  162.3000  204.9140  145.8630 C   0  0  0  0  0  3  0  0  0  0  0  0
  161.9780  205.6390  147.0130 C   0  0  0  0  0  0  0  0  0  0  0  0
  162.3310  206.9480  147.1170 N   0  0  0  0  0  2  0  0  0  0  0  0
  161.2360  202.9480  146.8050 C   0  0  0  0  0  0  0  0  0  0  0  0
  160.8530  211.2000  155.3270 C   0  0  0  0  0  2  0  0  0  0  0  0
  161.2200  212.5830  157.2350 O   0  0  0  0  0  1  0  0  0  0  0  0
  160.2300  212.1090  156.3720 C   0  0  1  0  0  3  0  0  0  0  0  0
  159.5600  213.2790  155.6760 C   0  0  0  0  0  2  0  0  0  0  0  0
  157.0950  212.1950  154.7670 O   0  0  0  0  0  0  0  0  0  0  0  0
  158.2630  213.5380  156.2790 N   0  0  0  0  0  2  0  0  0  0  0  0
  157.0630  212.9630  155.7650 C   0  0  0  0  0  0  0  0  0  0  0  0
  155.7620  213.2730  156.4140 C   0  0  0  0  0  1  0  0  0  0  0  0
  1 30  1  6  0  0  0
  1  4  1  0  0  0  0
  2  6  1  0  0  0  0
  3  7  1  6  0  0  0
  3  4  1  0  0  0  0
  5 15  1  1  0  0  0
  5  6  1  0  0  0  0
  5  3  1  0  0  0  0
  6  1  1  0  0  0  0
  8  9  2  0  0  0  0
  9  7  1  0  0  0  0
 10  9  1  0  0  0  0
 12 13  1  0  0  0  0
 13 11  1  0  0  0  0
 13 10  1  0  0  0  0
 14 13  1  0  0  0  0
 16 15  1  0  0  0  0
 17 16  1  0  0  0  0
 18 29  1  0  0  0  0
 19 20  1  0  0  0  0
 20 21  1  0  0  0  0
 21 22  2  0  0  0  0
 22 17  1  0  0  0  0
 24 26  2  0  0  0  0
 24 29  1  0  0  0  0
 25 23  2  0  0  0  0
 25 22  1  0  0  0  0
 26 27  1  0  0  0  0
 27 28  1  0  0  0  0
 27 20  2  0  0  0  0
 28 25  1  0  0  0  0
 29 19  2  0  0  0  0
 30 32  1  0  0  0  0
 32 31  1  1  0  0  0
 33 35  1  0  0  0  0
 33 32  1  0  0  0  0
 34 36  2  0  0  0  0
 36 35  1  0  0  0  0
 36 37  1  0  0  0  0
M  END
>  <MODEL>
9

>  <REMARK>
 VINA RESULT:      -7.0      2.447      3.972
  Name = 
  12 active torsions:
  status: ('A' for Active; 'I' for Inactive)
    1  A    between atoms: C_1  and  C_31
    2  A    between atoms: O_4  and  C_7
    3  A    between atoms: O_4  and  C_11
    4  A    between atoms: C_11  and  O_28
    5  A    between atoms: C_13  and  C_17
    6  A    between atoms: C_16  and  C_18
    7  A    between atoms: C_17  and  C_34
    8  A    between atoms: C_18  and  C_34
    9  A    between atoms: N_20  and  C_29
   10  A    between atoms: C_24  and  C_29
   11  A    between atoms: C_24  and  C_31
   12  A    between atoms: C_25  and  O_28
                            x       y       z     vdW  Elec       q    Type
                         _______ _______ _______ _____ _____    ______ ____

>  <TORSDO>
F 12

$$$$
