=
 OpenBabel11042422123D

 50 55  0  0  1  0  0  0  0  0999 V2000
  161.6910  210.0560  154.5840 N   0  0  0  0  0  2  0  0  0  0  0  0
  160.5630  211.6570  150.6040 C   0  0  1  0  0  3  0  0  0  0  0  0
  162.1250  210.4210  155.8970 C   0  0  0  0  0  0  0  0  0  0  0  0
  163.1640  209.9030  156.3790 O   0  0  0  0  0  0  0  0  0  0  0  0
  159.1650  212.5010  153.7790 N   0  0  0  0  0  2  0  0  0  0  0  0
  161.3640  207.1220  150.6040 O   0  0  0  0  0  0  0  0  0  0  0  0
  161.1660  210.6630  151.6230 C   0  0  1  0  0  3  0  0  0  0  0  0
  160.5620  212.3710  155.8140 C   0  0  2  0  0  3  0  0  0  0  0  0
  159.6600  211.6120  154.8330 C   0  0  2  0  0  3  0  0  0  0  0  0
  160.4860  210.6210  154.0630 C   0  0  1  0  0  3  0  0  0  0  0  0
  161.8200  209.0870  149.7110 C   0  0  0  0  0  0  0  0  0  0  0  0
  162.7490  211.4010  149.3080 C   0  0  0  0  0  2  0  0  0  0  0  0
  159.4310  211.9340  152.6500 C   0  0  2  0  0  3  0  0  0  0  0  0
  161.3300  211.3980  156.7170 C   0  0  0  0  0  2  0  0  0  0  0  0
  162.2070  210.1150  148.6790 C   0  0  0  0  0  2  0  0  0  0  0  0
  161.0330  208.0360  151.4910 C   0  0  0  0  0  0  0  0  0  0  0  0
  161.8280  207.7200  149.5300 C   0  0  0  0  0  0  0  0  0  0  0  0
  160.2430  210.7820  152.7750 C   0  0  1  0  0  3  0  0  0  0  0  0
  161.2800  209.3060  150.9730 C   0  0  0  0  0  0  0  0  0  0  0  0
  159.6230  212.6220  151.3570 C   0  0  2  0  0  3  0  0  0  0  0  0
  158.2980  212.7240  150.6280 C   0  0  0  0  0  1  0  0  0  0  0  0
  161.6420  212.3650  149.7780 C   0  0  1  0  0  3  0  0  0  0  0  0
  161.5000  206.1610  147.6830 C   0  0  0  0  0  3  0  0  0  0  0  0
  162.2840  207.0230  148.3240 C   0  0  0  0  0  3  0  0  0  0  0  0
  161.9280  205.4220  146.4420 C   0  0  1  0  0  0  0  0  0  0  0  0
  163.2780  205.7120  146.2270 O   0  0  0  0  0  1  0  0  0  0  0  0
  161.7890  203.8970  146.6320 C   0  0  2  0  0  3  0  0  0  0  0  0
  160.7190  203.4030  145.8820 O   0  0  0  0  0  1  0  0  0  0  0  0
  161.6130  203.4750  148.0870 C   0  0  0  0  0  1  0  0  0  0  0  0
  160.0240  206.6500  145.6090 O   0  0  0  0  0  1  0  0  0  0  0  0
  161.1280  205.8920  145.2200 C   0  0  0  0  0  2  0  0  0  0  0  0
  160.4880  207.7160  152.8150 C   0  0  0  0  0  3  0  0  0  0  0  0
  160.9920  206.7370  153.5540 C   0  0  0  0  0  2  0  0  0  0  0  0
  159.7670  213.3660  156.6490 C   0  0  0  0  0  2  0  0  0  0  0  0
  158.5300  212.8050  157.0690 O   0  0  0  0  0  0  0  0  0  0  0  0
  156.1260  212.8150  157.1760 O   0  0  0  0  0  1  0  0  0  0  0  0
  157.2680  214.4530  156.0560 O   0  0  0  0  0  0  0  0  0  0  0  0
  157.3090  213.3970  156.7430 C   0  0  0  0  0  0  0  0  0  0  0  0
  161.0070  213.0660  148.5840 C   0  0  0  0  0  2  0  0  0  0  0  0
  160.6710  212.0960  147.5550 N   0  0  0  0  0  2  0  0  0  0  0  0
  158.2610  213.5090  147.3630 O   0  0  0  0  0  1  0  0  0  0  0  0
  158.9790  211.8150  145.5090 O   0  0  0  0  0  0  0  0  0  0  0  0
  159.5320  212.8540  146.4600 P   0  0  2  0  0  0  0  0  0  0  0  0
  160.3400  214.1840  145.5110 C   0  0  0  0  0  2  0  0  0  0  0  0
  162.4040  214.2300  144.3750 C   0  0  0  0  0  2  0  0  0  0  0  0
  161.0990  213.5890  141.8990 C   0  0  0  0  0  2  0  0  0  0  0  0
  162.4270  212.8920  142.2040 C   0  0  0  0  0  2  0  0  0  0  0  0
  163.2550  213.6950  143.2110 C   0  0  0  0  0  2  0  0  0  0  0  0
  160.3690  214.0450  143.1740 C   0  0  0  0  0  2  0  0  0  0  0  0
  161.0720  213.6220  144.3870 N   0  0  0  0  0  0  0  0  0  0  0  0
  1  3  1  0  0  0  0
  2 20  1  0  0  0  0
  2  7  1  0  0  0  0
  3  4  2  0  0  0  0
  3 14  1  0  0  0  0
  5  9  1  0  0  0  0
  6 16  1  0  0  0  0
  7 18  1  0  0  0  0
  8 34  1  0  0  0  0
  8 14  1  0  0  0  0
  9  8  1  0  0  0  0
 10  1  1  0  0  0  0
 10  9  1  0  0  0  0
 11 19  1  0  0  0  0
 12 22  1  0  0  0  0
 13 18  1  0  0  0  0
 13  5  1  0  0  0  0
 15 12  1  0  0  0  0
 15 11  1  0  0  0  0
 16 32  1  0  0  0  0
 17 11  2  0  0  0  0
 17  6  1  0  0  0  0
 18 10  1  0  0  0  0
 19 16  2  0  0  0  0
 19  7  1  0  0  0  0
 20 13  1  0  0  0  0
 21 20  1  0  0  0  0
 22  2  1  0  0  0  0
 23 24  2  0  0  0  0
 24 17  1  0  0  0  0
 25 27  1  0  0  0  0
 25 23  1  0  0  0  0
 26 25  1  0  0  0  0
 27 29  1  0  0  0  0
 28 27  1  0  0  0  0
 31 30  1  0  0  0  0
 31 25  1  0  0  0  0
 32 33  2  0  0  0  0
 34 35  1  0  0  0  0
 37 38  2  0  0  0  0
 38 35  1  0  0  0  0
 38 36  1  0  0  0  0
 39 22  1  0  0  0  0
 40 39  1  0  0  0  0
 42 43  2  0  0  0  0
 43 41  1  0  0  0  0
 43 40  1  0  0  0  0
 44 43  1  0  0  0  0
 45 50  1  0  0  0  0
 46 47  1  0  0  0  0
 46 49  1  0  0  0  0
 47 48  1  0  0  0  0
 48 45  1  0  0  0  0
 49 50  1  0  0  0  0
 50 44  1  0  0  0  0
M  END
>  <MODEL>
1

>  <REMARK>
 VINA RESULT:      -5.4      0.000      0.000
  Name = 
  13 active torsions:
  status: ('A' for Active; 'I' for Inactive)
    1  A    between atoms: C_1  and  C_12
    2  A    between atoms: C_1  and  C_13
    3  A    between atoms: C_1  and  C_19
    4  A    between atoms: O_8  and  C_37
    5  A    between atoms: O_8  and  C_38
    6  A    between atoms: C_15  and  N_48
    7  A    between atoms: C_15  and  P_49
    8  A    between atoms: C_17  and  C_37
    9  A    between atoms: C_20  and  C_40
   10  A    between atoms: N_23  and  C_47
   11  A    between atoms: N_23  and  P_49
   12  A    between atoms: C_29  and  C_39
   13  A    between atoms: C_45  and  C_47
                            x       y       z     vdW  Elec       q    Type
                         _______ _______ _______ _____ _____    ______ ____

>  <TORSDO>
F 13

$$$$
