=
 OpenBabel11042420023D

 42 44  0  0  1  0  0  0  0  0999 V2000
  160.9260  205.2670  148.6790 C   0  0  2  0  0  3  0  0  0  0  0  0
  161.6150  205.1360  147.3520 C   0  0  0  0  0  0  0  0  0  0  0  0
  161.5850  205.2300  144.9200 C   0  0  0  0  0  0  0  0  0  0  0  0
  162.9370  204.8470  144.9010 C   0  0  0  0  0  3  0  0  0  0  0  0
  160.9320  205.3700  146.1490 C   0  0  0  0  0  3  0  0  0  0  0  0
  163.6200  204.6080  146.0960 C   0  0  0  0  0  3  0  0  0  0  0  0
  162.9590  204.7520  147.3190 C   0  0  0  0  0  3  0  0  0  0  0  0
  160.8700  205.4730  143.7430 O   0  0  0  0  0  0  0  0  0  0  0  0
  161.9920  206.3040  141.5780 C   0  0  0  0  0  0  0  0  0  0  0  0
  161.4670  205.9140  142.5910 C   0  0  0  0  0  0  0  0  0  0  0  0
  162.7560  206.8760  140.0960 S   0  0  0  0  0  0  0  0  0  0  0  0
  161.3030  207.8720  139.6570 C   0  0  0  0  0  2  0  0  0  0  0  0
  161.6790  209.3150  139.5760 C   0  0  0  0  0  0  0  0  0  0  0  0
  162.1660  209.7590  138.5040 O   0  0  0  0  0  0  0  0  0  0  0  0
  161.4920  210.1920  140.6540 O   0  0  0  0  0  0  0  0  0  0  0  0
  159.8880  211.8550  140.8980 O   0  0  0  0  0  1  0  0  0  0  0  0
  161.2090  211.5870  140.5290 C   0  0  1  0  0  3  0  0  0  0  0  0
  162.1830  212.4180  141.3100 C   0  0  0  0  0  0  0  0  0  0  0  0
  162.3430  212.1910  142.6700 O   0  0  0  0  0  1  0  0  0  0  0  0
  162.8690  213.3100  140.7430 O   0  0  0  0  0  0  0  0  0  0  0  0
  161.5260  208.8040  151.0920 C   0  0  2  0  0  3  0  0  0  0  0  0
  161.7110  207.4550  151.7850 C   0  0  0  0  0  2  0  0  0  0  0  0
  162.0210  208.7020  149.6510 C   0  0  0  0  0  2  0  0  0  0  0  0
  161.2620  207.6840  148.9300 N   0  0  0  0  0  2  0  0  0  0  0  0
  161.0270  206.3520  150.9850 C   0  0  0  0  0  2  0  0  0  0  0  0
  161.5340  206.3800  149.5370 C   0  0  1  0  0  3  0  0  0  0  0  0
  162.2780  209.8300  151.7920 N   0  0  0  0  0  2  0  0  0  0  0  0
  160.9890  210.9040  153.4530 C   0  0  0  0  0  0  0  0  0  0  0  0
  161.9990  210.1390  153.1530 C   0  0  0  0  0  3  0  0  0  0  0  0
  159.9770  211.6700  153.7510 C   0  0  0  0  0  3  0  0  0  0  0  0
  158.9560  211.9900  152.7160 C   0  0  0  0  0  2  0  0  0  0  0  0
  156.8820  212.6360  155.5330 C   0  0  0  0  0  2  0  0  0  0  0  0
  157.5640  213.9660  155.3280 C   0  0  0  0  0  2  0  0  0  0  0  0
  157.8310  212.6760  153.3280 N   0  0  0  0  0  0  0  0  0  0  0  0
  158.3750  213.8090  154.0610 C   0  0  0  0  0  2  0  0  0  0  0  0
  157.2840  211.7890  154.3450 C   0  0  0  0  0  2  0  0  0  0  0  0
  160.8130  203.9340  149.4230 C   0  0  0  0  0  2  0  0  0  0  0  0
  160.7870  201.1790  150.1590 O   0  0  0  0  0  0  0  0  0  0  0  0
  161.0240  201.4560  148.9510 C   0  0  0  0  0  0  0  0  0  0  0  0
  161.0590  202.8180  148.5190 N   0  0  0  0  0  2  0  0  0  0  0  0
  161.0290  200.6290  146.6350 C   0  0  0  0  0  1  0  0  0  0  0  0
  161.2580  200.4420  148.0230 O   0  0  0  0  0  0  0  0  0  0  0  0
  1 37  1  1  0  0  0
  2  1  1  0  0  0  0
  3  5  1  0  0  0  0
  4  3  2  0  0  0  0
  4  6  1  0  0  0  0
  5  2  2  0  0  0  0
  6  7  2  0  0  0  0
  7  2  1  0  0  0  0
  8  3  1  0  0  0  0
  9 10  3  0  0  0  0
 10  8  1  0  0  0  0
 11  9  1  0  0  0  0
 12 11  1  0  0  0  0
 13 12  1  0  0  0  0
 13 15  1  0  0  0  0
 14 13  2  0  0  0  0
 17 15  1  0  0  0  0
 17 16  1  1  0  0  0
 17 18  1  0  0  0  0
 18 19  1  0  0  0  0
 20 18  2  0  0  0  0
 21 22  1  0  0  0  0
 21 27  1  1  0  0  0
 23 21  1  0  0  0  0
 24 26  1  0  0  0  0
 24 23  1  0  0  0  0
 25 22  1  0  0  0  0
 26  1  1  6  0  0  0
 26 25  1  0  0  0  0
 27 29  1  0  0  0  0
 28 30  2  0  0  0  0
 29 28  2  0  0  0  0
 31 34  1  0  0  0  0
 31 30  1  0  0  0  0
 33 32  1  0  0  0  0
 34 35  1  0  0  0  0
 34 36  1  0  0  0  0
 35 33  1  0  0  0  0
 36 32  1  0  0  0  0
 39 38  2  0  0  0  0
 40 39  1  0  0  0  0
 40 37  1  0  0  0  0
 41 42  1  0  0  0  0
 42 39  1  0  0  0  0
M  END
>  <MODEL>
1

>  <REMARK>
 VINA RESULT:      -6.5      0.000      0.000
  Name = 
  17 active torsions:
  status: ('A' for Active; 'I' for Inactive)
    1  A    between atoms: C_4  and  S_42
    2  A    between atoms: O_5  and  C_12
    3  A    between atoms: O_5  and  C_14
    4  A    between atoms: C_6  and  C_8
    5  A    between atoms: C_8  and  C_35
    6  A    between atoms: C_8  and  C_40
    7  A    between atoms: C_9  and  N_16
    8  A    between atoms: N_10  and  C_11
    9  A    between atoms: C_11  and  C_38
   10  A    between atoms: C_13  and  C_32
   11  A    between atoms: C_13  and  O_37
   12  A    between atoms: N_16  and  C_31
   13  A    between atoms: C_18  and  C_26
   14  A    between atoms: C_26  and  O_37
   15  A    between atoms: C_29  and  O_34
   16  A    between atoms: C_32  and  S_42
   17  A    between atoms: C_35  and  N_41
                            x       y       z     vdW  Elec       q    Type
                         _______ _______ _______ _____ _____    ______ ____

>  <TORSDO>
F 17

$$$$
=
 OpenBabel11042420023D

 42 44  0  0  1  0  0  0  0  0999 V2000
  160.6220  205.4900  148.6600 C   0  0  2  0  0  3  0  0  0  0  0  0
  161.3810  205.3320  147.3740 C   0  0  0  0  0  0  0  0  0  0  0  0
  161.4740  205.3520  144.9430 C   0  0  0  0  0  0  0  0  0  0  0  0
  162.8310  204.9940  145.0040 C   0  0  0  0  0  3  0  0  0  0  0  0
  160.7560  205.5170  146.1310 C   0  0  0  0  0  3  0  0  0  0  0  0
  163.4560  204.8040  146.2390 C   0  0  0  0  0  3  0  0  0  0  0  0
  162.7310  204.9720  147.4220 C   0  0  0  0  0  3  0  0  0  0  0  0
  160.8160  205.5460  143.7240 O   0  0  0  0  0  0  0  0  0  0  0  0
  162.0330  206.3260  141.5910 C   0  0  0  0  0  0  0  0  0  0  0  0
  161.4640  205.9610  142.5900 C   0  0  0  0  0  0  0  0  0  0  0  0
  162.8670  206.8560  140.1310 S   0  0  0  0  0  0  0  0  0  0  0  0
  161.4280  207.8180  139.5840 C   0  0  0  0  0  2  0  0  0  0  0  0
  161.8490  209.2060  139.2270 C   0  0  0  0  0  0  0  0  0  0  0  0
  161.8520  209.5510  138.0170 O   0  0  0  0  0  0  0  0  0  0  0  0
  162.2270  210.1410  140.2020 O   0  0  0  0  0  0  0  0  0  0  0  0
  160.2770  210.9750  141.1510 O   0  0  0  0  0  1  0  0  0  0  0  0
  161.4840  211.3150  140.5350 C   0  0  1  0  0  3  0  0  0  0  0  0
  162.2920  212.2560  141.3790 C   0  0  0  0  0  0  0  0  0  0  0  0
  163.0940  213.2110  140.7690 O   0  0  0  0  0  0  0  0  0  0  0  0
  162.2390  212.2000  142.6360 O   0  0  0  0  0  1  0  0  0  0  0  0
  162.1510  209.0200  150.6320 C   0  0  2  0  0  3  0  0  0  0  0  0
  161.8980  209.1240  149.1290 C   0  0  0  0  0  2  0  0  0  0  0  0
  161.0850  208.1280  151.2630 C   0  0  0  0  0  2  0  0  0  0  0  0
  161.1360  206.7920  150.6740 N   0  0  0  0  0  2  0  0  0  0  0  0
  161.8270  207.7330  148.5090 C   0  0  0  0  0  2  0  0  0  0  0  0
  160.7850  206.8900  149.2570 C   0  0  1  0  0  3  0  0  0  0  0  0
  162.0980  210.3390  151.2370 N   0  0  0  0  0  2  0  0  0  0  0  0
  160.3950  211.9530  151.5080 C   0  0  0  0  0  0  0  0  0  0  0  0
  160.9080  210.8090  151.8620 C   0  0  0  0  0  3  0  0  0  0  0  0
  159.8840  213.0980  151.1540 C   0  0  0  0  0  3  0  0  0  0  0  0
  160.3670  213.7790  149.9210 C   0  0  0  0  0  2  0  0  0  0  0  0
  160.6440  212.8630  146.4950 C   0  0  0  0  0  2  0  0  0  0  0  0
  162.0740  212.7740  146.9640 C   0  0  0  0  0  2  0  0  0  0  0  0
  160.6560  212.7930  148.8940 N   0  0  0  0  0  0  0  0  0  0  0  0
  162.0220  213.0280  148.4550 C   0  0  0  0  0  2  0  0  0  0  0  0
  159.8230  213.1090  147.7420 C   0  0  0  0  0  2  0  0  0  0  0  0
  160.9200  204.3740  149.6650 C   0  0  0  0  0  2  0  0  0  0  0  0
  161.1590  201.8640  150.9970 O   0  0  0  0  0  0  0  0  0  0  0  0
  160.9690  201.8450  149.7490 C   0  0  0  0  0  0  0  0  0  0  0  0
  160.8490  203.0690  149.0220 N   0  0  0  0  0  2  0  0  0  0  0  0
  161.3070  200.5030  147.7170 C   0  0  0  0  0  1  0  0  0  0  0  0
  160.8790  200.6340  149.0640 O   0  0  0  0  0  0  0  0  0  0  0  0
  1 37  1  1  0  0  0
  2  7  1  0  0  0  0
  2  1  1  0  0  0  0
  3  4  2  0  0  0  0
  3  5  1  0  0  0  0
  4  6  1  0  0  0  0
  5  2  2  0  0  0  0
  6  7  2  0  0  0  0
  8  3  1  0  0  0  0
  9 10  3  0  0  0  0
 10  8  1  0  0  0  0
 11  9  1  0  0  0  0
 12 11  1  0  0  0  0
 13 12  1  0  0  0  0
 13 15  1  0  0  0  0
 14 13  2  0  0  0  0
 15 17  1  0  0  0  0
 17 16  1  1  0  0  0
 17 18  1  0  0  0  0
 18 20  1  0  0  0  0
 19 18  2  0  0  0  0
 21 27  1  1  0  0  0
 21 23  1  0  0  0  0
 22 21  1  0  0  0  0
 24 23  1  0  0  0  0
 25 22  1  0  0  0  0
 25 26  1  0  0  0  0
 26  1  1  6  0  0  0
 26 24  1  0  0  0  0
 27 29  1  0  0  0  0
 28 29  2  0  0  0  0
 30 28  2  0  0  0  0
 31 30  1  0  0  0  0
 32 33  1  0  0  0  0
 32 36  1  0  0  0  0
 33 35  1  0  0  0  0
 34 31  1  0  0  0  0
 35 34  1  0  0  0  0
 36 34  1  0  0  0  0
 39 38  2  0  0  0  0
 40 37  1  0  0  0  0
 40 39  1  0  0  0  0
 41 42  1  0  0  0  0
 42 39  1  0  0  0  0
M  END
>  <MODEL>
2

>  <REMARK>
 VINA RESULT:      -6.5      1.958      3.047
  Name = 
  17 active torsions:
  status: ('A' for Active; 'I' for Inactive)
    1  A    between atoms: C_4  and  S_42
    2  A    between atoms: O_5  and  C_12
    3  A    between atoms: O_5  and  C_14
    4  A    between atoms: C_6  and  C_8
    5  A    between atoms: C_8  and  C_35
    6  A    between atoms: C_8  and  C_40
    7  A    between atoms: C_9  and  N_16
    8  A    between atoms: N_10  and  C_11
    9  A    between atoms: C_11  and  C_38
   10  A    between atoms: C_13  and  C_32
   11  A    between atoms: C_13  and  O_37
   12  A    between atoms: N_16  and  C_31
   13  A    between atoms: C_18  and  C_26
   14  A    between atoms: C_26  and  O_37
   15  A    between atoms: C_29  and  O_34
   16  A    between atoms: C_32  and  S_42
   17  A    between atoms: C_35  and  N_41
                            x       y       z     vdW  Elec       q    Type
                         _______ _______ _______ _____ _____    ______ ____

>  <TORSDO>
F 17

$$$$
=
 OpenBabel11042420023D

 42 44  0  0  1  0  0  0  0  0999 V2000
  160.6510  205.1600  148.6290 C   0  0  2  0  0  3  0  0  0  0  0  0
  161.4130  205.1190  147.3360 C   0  0  0  0  0  0  0  0  0  0  0  0
  161.4930  205.2630  144.9090 C   0  0  0  0  0  0  0  0  0  0  0  0
  162.8730  205.0000  144.9500 C   0  0  0  0  0  3  0  0  0  0  0  0
  160.7710  205.3190  146.1050 C   0  0  0  0  0  3  0  0  0  0  0  0
  163.5150  204.7960  146.1740 C   0  0  0  0  0  3  0  0  0  0  0  0
  162.7860  204.8540  147.3640 C   0  0  0  0  0  3  0  0  0  0  0  0
  160.8180  205.4690  143.7010 O   0  0  0  0  0  0  0  0  0  0  0  0
  161.9980  206.2970  141.5660 C   0  0  0  0  0  0  0  0  0  0  0  0
  161.4460  205.9090  142.5650 C   0  0  0  0  0  0  0  0  0  0  0  0
  162.8030  206.8650  140.1050 S   0  0  0  0  0  0  0  0  0  0  0  0
  161.4380  207.9980  139.7190 C   0  0  0  0  0  2  0  0  0  0  0  0
  161.9800  209.3120  139.2600 C   0  0  0  0  0  0  0  0  0  0  0  0
  161.9620  209.5830  138.0310 O   0  0  0  0  0  0  0  0  0  0  0  0
  162.4960  210.2570  140.1580 O   0  0  0  0  0  0  0  0  0  0  0  0
  161.3430  211.5320  141.7210 O   0  0  0  0  0  1  0  0  0  0  0  0
  161.8980  211.5240  140.4380 C   0  0  1  0  0  3  0  0  0  0  0  0
  162.8740  212.6470  140.2500 C   0  0  0  0  0  0  0  0  0  0  0  0
  163.6750  212.6780  139.1160 O   0  0  0  0  0  0  0  0  0  0  0  0
  162.9660  213.5710  141.1010 O   0  0  0  0  0  1  0  0  0  0  0  0
  162.3780  208.4340  150.8620 C   0  0  2  0  0  3  0  0  0  0  0  0
  161.9370  208.7320  149.4300 C   0  0  0  0  0  2  0  0  0  0  0  0
  161.4100  207.4360  151.4910 C   0  0  0  0  0  2  0  0  0  0  0  0
  161.4010  206.1940  150.7230 N   0  0  0  0  0  2  0  0  0  0  0  0
  161.8040  207.4350  148.6390 C   0  0  0  0  0  2  0  0  0  0  0  0
  160.8730  206.4720  149.3870 C   0  0  1  0  0  3  0  0  0  0  0  0
  162.3880  209.6590  151.6430 N   0  0  0  0  0  2  0  0  0  0  0  0
  160.7490  211.0320  152.6450 C   0  0  0  0  0  0  0  0  0  0  0  0
  161.3120  210.5870  151.5580 C   0  0  0  0  0  3  0  0  0  0  0  0
  160.1870  211.4760  153.7340 C   0  0  0  0  0  3  0  0  0  0  0  0
  160.8340  211.2430  155.0540 C   0  0  0  0  0  2  0  0  0  0  0  0
  161.8460  208.4580  157.0230 C   0  0  0  0  0  2  0  0  0  0  0  0
  160.5020  208.0110  156.5060 C   0  0  0  0  0  2  0  0  0  0  0  0
  161.2400  209.8520  155.1650 N   0  0  0  0  0  0  0  0  0  0  0  0
  160.0590  209.0960  155.5500 C   0  0  0  0  0  2  0  0  0  0  0  0
  162.1450  209.7540  156.3020 C   0  0  0  0  0  2  0  0  0  0  0  0
  160.8890  203.9220  149.4970 C   0  0  0  0  0  2  0  0  0  0  0  0
  161.1280  201.2510  150.4690 O   0  0  0  0  0  0  0  0  0  0  0  0
  161.1510  201.4190  149.2180 C   0  0  0  0  0  0  0  0  0  0  0  0
  161.0440  202.7340  148.6680 N   0  0  0  0  0  2  0  0  0  0  0  0
  161.2480  200.4810  146.9480 C   0  0  0  0  0  1  0  0  0  0  0  0
  161.2850  200.3300  148.3590 O   0  0  0  0  0  0  0  0  0  0  0  0
  1 37  1  1  0  0  0
  2  7  1  0  0  0  0
  2  1  1  0  0  0  0
  3  4  2  0  0  0  0
  3  5  1  0  0  0  0
  4  6  1  0  0  0  0
  5  2  2  0  0  0  0
  6  7  2  0  0  0  0
  8  3  1  0  0  0  0
  9 10  3  0  0  0  0
 10  8  1  0  0  0  0
 11  9  1  0  0  0  0
 12 11  1  0  0  0  0
 13 12  1  0  0  0  0
 13 15  1  0  0  0  0
 14 13  2  0  0  0  0
 15 17  1  0  0  0  0
 17 16  1  1  0  0  0
 18 17  1  0  0  0  0
 18 20  1  0  0  0  0
 19 18  2  0  0  0  0
 21 23  1  0  0  0  0
 21 27  1  1  0  0  0
 22 21  1  0  0  0  0
 24 23  1  0  0  0  0
 25 26  1  0  0  0  0
 25 22  1  0  0  0  0
 26  1  1  6  0  0  0
 26 24  1  0  0  0  0
 28 30  2  0  0  0  0
 29 27  1  0  0  0  0
 29 28  2  0  0  0  0
 30 31  1  0  0  0  0
 31 34  1  0  0  0  0
 33 32  1  0  0  0  0
 34 35  1  0  0  0  0
 34 36  1  0  0  0  0
 35 33  1  0  0  0  0
 36 32  1  0  0  0  0
 39 38  2  0  0  0  0
 40 39  1  0  0  0  0
 40 37  1  0  0  0  0
 41 42  1  0  0  0  0
 42 39  1  0  0  0  0
M  END
>  <MODEL>
3

>  <REMARK>
 VINA RESULT:      -6.4      1.520      2.363
  Name = 
  17 active torsions:
  status: ('A' for Active; 'I' for Inactive)
    1  A    between atoms: C_4  and  S_42
    2  A    between atoms: O_5  and  C_12
    3  A    between atoms: O_5  and  C_14
    4  A    between atoms: C_6  and  C_8
    5  A    between atoms: C_8  and  C_35
    6  A    between atoms: C_8  and  C_40
    7  A    between atoms: C_9  and  N_16
    8  A    between atoms: N_10  and  C_11
    9  A    between atoms: C_11  and  C_38
   10  A    between atoms: C_13  and  C_32
   11  A    between atoms: C_13  and  O_37
   12  A    between atoms: N_16  and  C_31
   13  A    between atoms: C_18  and  C_26
   14  A    between atoms: C_26  and  O_37
   15  A    between atoms: C_29  and  O_34
   16  A    between atoms: C_32  and  S_42
   17  A    between atoms: C_35  and  N_41
                            x       y       z     vdW  Elec       q    Type
                         _______ _______ _______ _____ _____    ______ ____

>  <TORSDO>
F 17

$$$$
=
 OpenBabel11042420023D

 42 44  0  0  1  0  0  0  0  0999 V2000
  161.6890  205.0010  148.8180 C   0  0  2  0  0  3  0  0  0  0  0  0
  161.5810  206.0260  149.9090 C   0  0  0  0  0  0  0  0  0  0  0  0
  161.1850  206.6250  152.2340 C   0  0  0  0  0  0  0  0  0  0  0  0
  161.3590  207.9790  151.9030 C   0  0  0  0  0  3  0  0  0  0  0  0
  161.2960  205.6560  151.2320 C   0  0  0  0  0  3  0  0  0  0  0  0
  161.6390  208.3530  150.5860 C   0  0  0  0  0  3  0  0  0  0  0  0
  161.7490  207.3770  149.5920 C   0  0  0  0  0  3  0  0  0  0  0  0
  160.9000  206.2160  153.5410 O   0  0  0  0  0  0  0  0  0  0  0  0
  161.0930  207.7940  155.5680 C   0  0  0  0  0  0  0  0  0  0  0  0
  161.0030  207.0550  154.6200 C   0  0  0  0  0  0  0  0  0  0  0  0
  161.2290  208.8760  156.9530 S   0  0  0  0  0  0  0  0  0  0  0  0
  161.3390  210.3370  155.8810 C   0  0  0  0  0  2  0  0  0  0  0  0
  159.9780  210.7150  155.3950 C   0  0  0  0  0  0  0  0  0  0  0  0
  159.1060  211.0640  156.2330 O   0  0  0  0  0  0  0  0  0  0  0  0
  159.6480  210.7080  154.0320 O   0  0  0  0  0  0  0  0  0  0  0  0
  160.5750  211.4610  152.0390 O   0  0  0  0  0  1  0  0  0  0  0  0
  159.8070  211.8210  153.1500 C   0  0  1  0  0  3  0  0  0  0  0  0
  158.4820  212.3950  152.7460 C   0  0  0  0  0  0  0  0  0  0  0  0
  158.2790  212.7970  151.4320 O   0  0  0  0  0  0  0  0  0  0  0  0
  157.5450  212.5040  153.5800 O   0  0  0  0  0  1  0  0  0  0  0  0
  161.2710  205.6770  144.5690 C   0  0  2  0  0  3  0  0  0  0  0  0
  160.2350  206.3360  145.4780 C   0  0  0  0  0  2  0  0  0  0  0  0
  162.6280  205.6780  145.2670 C   0  0  0  0  0  2  0  0  0  0  0  0
  162.5470  204.9330  146.5210 N   0  0  0  0  0  2  0  0  0  0  0  0
  160.2160  205.6500  146.8400 C   0  0  0  0  0  2  0  0  0  0  0  0
  161.6350  205.6340  147.4250 C   0  0  1  0  0  3  0  0  0  0  0  0
  161.3700  206.4080  143.3170 N   0  0  0  0  0  2  0  0  0  0  0  0
  162.0180  206.4730  141.0470 C   0  0  0  0  0  0  0  0  0  0  0  0
  161.9180  205.7950  142.1550 C   0  0  0  0  0  3  0  0  0  0  0  0
  162.1160  207.1530  139.9400 C   0  0  0  0  0  3  0  0  0  0  0  0
  161.9250  208.6290  139.9530 C   0  0  0  0  0  2  0  0  0  0  0  0
  159.6120  208.7110  137.2520 C   0  0  0  0  0  2  0  0  0  0  0  0
  159.5780  210.1360  137.7430 C   0  0  0  0  0  2  0  0  0  0  0  0
  161.5410  209.0890  138.6300 N   0  0  0  0  0  0  0  0  0  0  0  0
  160.6390  210.2140  138.8190 C   0  0  0  0  0  2  0  0  0  0  0  0
  160.7270  208.0420  138.0260 C   0  0  0  0  0  2  0  0  0  0  0  0
  160.6980  203.8470  148.9880 C   0  0  0  0  0  2  0  0  0  0  0  0
  160.4980  201.2030  150.0380 O   0  0  0  0  0  0  0  0  0  0  0  0
  161.0560  201.3420  148.9140 C   0  0  0  0  0  0  0  0  0  0  0  0
  161.1950  202.6420  148.3370 N   0  0  0  0  0  2  0  0  0  0  0  0
  161.3540  200.0770  146.8270 C   0  0  0  0  0  1  0  0  0  0  0  0
  161.5480  200.2350  148.2250 O   0  0  0  0  0  0  0  0  0  0  0  0
  1 37  1  6  0  0  0
  1  2  1  0  0  0  0
  2  5  1  0  0  0  0
  3  8  1  0  0  0  0
  4  3  1  0  0  0  0
  5  3  2  0  0  0  0
  6  4  2  0  0  0  0
  7  2  2  0  0  0  0
  7  6  1  0  0  0  0
  8 10  1  0  0  0  0
  9 11  1  0  0  0  0
 10  9  3  0  0  0  0
 12 11  1  0  0  0  0
 13 12  1  0  0  0  0
 13 14  2  0  0  0  0
 15 13  1  0  0  0  0
 17 16  1  6  0  0  0
 17 15  1  0  0  0  0
 18 17  1  0  0  0  0
 18 20  1  0  0  0  0
 19 18  2  0  0  0  0
 21 27  1  6  0  0  0
 21 23  1  0  0  0  0
 21 22  1  0  0  0  0
 22 25  1  0  0  0  0
 23 24  1  0  0  0  0
 24 26  1  0  0  0  0
 25 26  1  0  0  0  0
 26  1  1  1  0  0  0
 28 29  2  0  0  0  0
 29 27  1  0  0  0  0
 30 31  1  0  0  0  0
 30 28  2  0  0  0  0
 32 33  1  0  0  0  0
 32 36  1  0  0  0  0
 33 35  1  0  0  0  0
 34 35  1  0  0  0  0
 34 31  1  0  0  0  0
 36 34  1  0  0  0  0
 39 38  2  0  0  0  0
 40 39  1  0  0  0  0
 40 37  1  0  0  0  0
 41 42  1  0  0  0  0
 42 39  1  0  0  0  0
M  END
>  <MODEL>
4

>  <REMARK>
 VINA RESULT:      -6.3      5.488     11.037
  Name = 
  17 active torsions:
  status: ('A' for Active; 'I' for Inactive)
    1  A    between atoms: C_4  and  S_42
    2  A    between atoms: O_5  and  C_12
    3  A    between atoms: O_5  and  C_14
    4  A    between atoms: C_6  and  C_8
    5  A    between atoms: C_8  and  C_35
    6  A    between atoms: C_8  and  C_40
    7  A    between atoms: C_9  and  N_16
    8  A    between atoms: N_10  and  C_11
    9  A    between atoms: C_11  and  C_38
   10  A    between atoms: C_13  and  C_32
   11  A    between atoms: C_13  and  O_37
   12  A    between atoms: N_16  and  C_31
   13  A    between atoms: C_18  and  C_26
   14  A    between atoms: C_26  and  O_37
   15  A    between atoms: C_29  and  O_34
   16  A    between atoms: C_32  and  S_42
   17  A    between atoms: C_35  and  N_41
                            x       y       z     vdW  Elec       q    Type
                         _______ _______ _______ _____ _____    ______ ____

>  <TORSDO>
F 17

$$$$
=
 OpenBabel11042420023D

 42 44  0  0  1  0  0  0  0  0999 V2000
  161.3150  212.6340  149.0380 C   0  0  2  0  0  3  0  0  0  0  0  0
  161.4050  212.8520  147.5560 C   0  0  0  0  0  0  0  0  0  0  0  0
  160.3880  212.9000  145.3460 C   0  0  0  0  0  0  0  0  0  0  0  0
  161.6330  213.2400  144.7930 C   0  0  0  0  0  3  0  0  0  0  0  0
  160.2830  212.7060  146.7270 C   0  0  0  0  0  3  0  0  0  0  0  0
  162.7550  213.3820  145.6140 C   0  0  0  0  0  3  0  0  0  0  0  0
  162.6400  213.1870  146.9930 C   0  0  0  0  0  3  0  0  0  0  0  0
  159.2450  212.7460  144.5540 O   0  0  0  0  0  0  0  0  0  0  0  0
  159.2780  213.0220  141.9920 C   0  0  0  0  0  0  0  0  0  0  0  0
  159.2630  212.8920  143.1910 C   0  0  0  0  0  0  0  0  0  0  0  0
  159.2960  213.2090  140.2400 S   0  0  0  0  0  0  0  0  0  0  0  0
  159.7830  211.4770  139.9970 C   0  0  0  0  0  2  0  0  0  0  0  0
  161.2000  211.4060  139.5330 C   0  0  0  0  0  0  0  0  0  0  0  0
  161.8510  212.4750  139.3950 O   0  0  0  0  0  0  0  0  0  0  0  0
  161.8320  210.1840  139.2610 O   0  0  0  0  0  0  0  0  0  0  0  0
  162.3580  209.7060  137.0480 O   0  0  0  0  0  1  0  0  0  0  0  0
  161.5480  209.3550  138.1330 C   0  0  1  0  0  3  0  0  0  0  0  0
  161.6780  207.9000  138.4730 C   0  0  0  0  0  0  0  0  0  0  0  0
  161.5460  207.4890  139.7930 O   0  0  0  0  0  1  0  0  0  0  0  0
  161.8910  207.0440  137.5740 O   0  0  0  0  0  0  0  0  0  0  0  0
  161.9220  208.5520  150.3270 C   0  0  2  0  0  3  0  0  0  0  0  0
  162.3690  208.9020  148.9080 C   0  0  0  0  0  2  0  0  0  0  0  0
  162.1750  209.7450  151.2450 C   0  0  0  0  0  2  0  0  0  0  0  0
  161.4220  210.9060  150.7770 N   0  0  0  0  0  2  0  0  0  0  0  0
  161.6840  210.1810  148.4410 C   0  0  0  0  0  2  0  0  0  0  0  0
  161.9340  211.2990  149.4630 C   0  0  1  0  0  3  0  0  0  0  0  0
  162.6660  207.4020  150.8120 N   0  0  0  0  0  2  0  0  0  0  0  0
  161.3940  205.4500  151.1960 C   0  0  0  0  0  0  0  0  0  0  0  0
  162.0590  206.4570  151.6870 C   0  0  0  0  0  3  0  0  0  0  0  0
  160.7290  204.4430  150.7040 C   0  0  0  0  0  3  0  0  0  0  0  0
  160.8350  204.1180  149.2550 C   0  0  0  0  0  2  0  0  0  0  0  0
  162.0850  205.5640  146.2540 C   0  0  0  0  0  2  0  0  0  0  0  0
  160.9260  206.4690  146.5850 C   0  0  0  0  0  2  0  0  0  0  0  0
  161.4750  205.2160  148.5490 N   0  0  0  0  0  0  0  0  0  0  0  0
  160.4150  205.9930  147.9270 C   0  0  0  0  0  2  0  0  0  0  0  0
  162.2290  204.6400  147.4440 C   0  0  0  0  0  2  0  0  0  0  0  0
  159.8970  212.8340  149.5820 C   0  0  0  0  0  2  0  0  0  0  0  0
  158.1520  212.6410  151.8290 O   0  0  0  0  0  0  0  0  0  0  0  0
  159.0120  213.5660  151.8370 C   0  0  0  0  0  0  0  0  0  0  0  0
  159.9100  213.7220  150.7370 N   0  0  0  0  0  2  0  0  0  0  0  0
  158.6770  214.0800  154.2190 C   0  0  0  0  0  1  0  0  0  0  0  0
  159.0930  214.4490  152.9130 O   0  0  0  0  0  0  0  0  0  0  0  0
  1 37  1  6  0  0  0
  2  1  1  0  0  0  0
  3  5  1  0  0  0  0
  4  3  2  0  0  0  0
  4  6  1  0  0  0  0
  5  2  2  0  0  0  0
  6  7  2  0  0  0  0
  7  2  1  0  0  0  0
  8  3  1  0  0  0  0
  9 10  3  0  0  0  0
 10  8  1  0  0  0  0
 11  9  1  0  0  0  0
 12 11  1  0  0  0  0
 13 12  1  0  0  0  0
 14 13  2  0  0  0  0
 15 13  1  0  0  0  0
 17 16  1  6  0  0  0
 17 18  1  0  0  0  0
 17 15  1  0  0  0  0
 18 19  1  0  0  0  0
 20 18  2  0  0  0  0
 21 27  1  1  0  0  0
 21 23  1  0  0  0  0
 22 21  1  0  0  0  0
 24 23  1  0  0  0  0
 25 22  1  0  0  0  0
 25 26  1  0  0  0  0
 26  1  1  6  0  0  0
 26 24  1  0  0  0  0
 27 29  1  0  0  0  0
 28 29  2  0  0  0  0
 30 28  2  0  0  0  0
 31 30  1  0  0  0  0
 32 33  1  0  0  0  0
 32 36  1  0  0  0  0
 33 35  1  0  0  0  0
 34 31  1  0  0  0  0
 35 34  1  0  0  0  0
 36 34  1  0  0  0  0
 37 40  1  0  0  0  0
 38 39  2  0  0  0  0
 39 42  1  0  0  0  0
 40 39  1  0  0  0  0
 42 41  1  0  0  0  0
M  END
>  <MODEL>
5

>  <REMARK>
 VINA RESULT:      -6.3      3.607      8.038
  Name = 
  17 active torsions:
  status: ('A' for Active; 'I' for Inactive)
    1  A    between atoms: C_4  and  S_42
    2  A    between atoms: O_5  and  C_12
    3  A    between atoms: O_5  and  C_14
    4  A    between atoms: C_6  and  C_8
    5  A    between atoms: C_8  and  C_35
    6  A    between atoms: C_8  and  C_40
    7  A    between atoms: C_9  and  N_16
    8  A    between atoms: N_10  and  C_11
    9  A    between atoms: C_11  and  C_38
   10  A    between atoms: C_13  and  C_32
   11  A    between atoms: C_13  and  O_37
   12  A    between atoms: N_16  and  C_31
   13  A    between atoms: C_18  and  C_26
   14  A    between atoms: C_26  and  O_37
   15  A    between atoms: C_29  and  O_34
   16  A    between atoms: C_32  and  S_42
   17  A    between atoms: C_35  and  N_41
                            x       y       z     vdW  Elec       q    Type
                         _______ _______ _______ _____ _____    ______ ____

>  <TORSDO>
F 17

$$$$
=
 OpenBabel11042420023D

 42 44  0  0  1  0  0  0  0  0999 V2000
  161.8820  210.4280  150.7470 C   0  0  2  0  0  3  0  0  0  0  0  0
  161.7510  209.0100  150.2710 C   0  0  0  0  0  0  0  0  0  0  0  0
  161.3450  206.6500  150.7030 C   0  0  0  0  0  0  0  0  0  0  0  0
  161.5490  206.3780  149.3400 C   0  0  0  0  0  3  0  0  0  0  0  0
  161.4500  207.9670  151.1600 C   0  0  0  0  0  3  0  0  0  0  0  0
  161.8530  207.4130  148.4510 C   0  0  0  0  0  3  0  0  0  0  0  0
  161.9550  208.7260  148.9180 C   0  0  0  0  0  3  0  0  0  0  0  0
  161.0430  205.6380  151.6200 O   0  0  0  0  0  0  0  0  0  0  0  0
  160.9240  203.1500  150.9630 C   0  0  0  0  0  0  0  0  0  0  0  0
  160.9800  204.3150  151.2700 C   0  0  0  0  0  0  0  0  0  0  0  0
  160.8400  201.4470  150.5160 S   0  0  0  0  0  0  0  0  0  0  0  0
  159.9810  201.8310  148.9640 C   0  0  0  0  0  2  0  0  0  0  0  0
  160.9690  201.9550  147.8510 C   0  0  0  0  0  0  0  0  0  0  0  0
  161.5500  200.9200  147.4330 O   0  0  0  0  0  0  0  0  0  0  0  0
  161.2580  203.1880  147.2490 O   0  0  0  0  0  0  0  0  0  0  0  0
  160.4690  202.7130  145.1160 O   0  0  0  0  0  1  0  0  0  0  0  0
  161.4540  203.3830  145.8470 C   0  0  1  0  0  3  0  0  0  0  0  0
  161.5100  204.8400  145.4970 C   0  0  0  0  0  0  0  0  0  0  0  0
  162.7230  205.5140  145.5540 O   0  0  0  0  0  1  0  0  0  0  0  0
  160.4730  205.4570  145.1370 O   0  0  0  0  0  0  0  0  0  0  0  0
  160.4990  209.7130  154.7800 C   0  0  2  0  0  3  0  0  0  0  0  0
  161.9270  210.2340  154.6220 C   0  0  0  0  0  2  0  0  0  0  0  0
  159.6100  210.3440  153.7100 C   0  0  0  0  0  2  0  0  0  0  0  0
  160.1040  209.9950  152.3800 N   0  0  0  0  0  2  0  0  0  0  0  0
  162.4220  209.9890  153.2010 C   0  0  0  0  0  2  0  0  0  0  0  0
  161.4280  210.5930  152.2000 C   0  0  1  0  0  3  0  0  0  0  0  0
  159.9890  210.0550  156.0960 N   0  0  0  0  0  2  0  0  0  0  0  0
  159.4300  212.3110  156.5150 C   0  0  0  0  0  0  0  0  0  0  0  0
  160.2640  211.3240  156.6790 C   0  0  0  0  0  3  0  0  0  0  0  0
  158.5950  213.2970  156.3490 C   0  0  0  0  0  3  0  0  0  0  0  0
  157.2350  213.0360  155.8020 C   0  0  0  0  0  2  0  0  0  0  0  0
  156.7260  214.0880  152.4410 C   0  0  0  0  0  2  0  0  0  0  0  0
  155.3350  214.1720  153.0150 C   0  0  0  0  0  2  0  0  0  0  0  0
  156.8860  214.0650  154.8360 N   0  0  0  0  0  0  0  0  0  0  0  0
  155.4890  213.8600  154.4870 C   0  0  0  0  0  2  0  0  0  0  0  0
  157.6310  213.7850  153.6160 C   0  0  0  0  0  2  0  0  0  0  0  0
  161.2250  211.4350  149.7990 C   0  0  0  0  0  2  0  0  0  0  0  0
  160.5980  212.5710  147.2600 O   0  0  0  0  0  0  0  0  0  0  0  0
  161.8150  212.5160  147.5870 C   0  0  0  0  0  0  0  0  0  0  0  0
  162.1970  211.9500  148.8430 N   0  0  0  0  0  2  0  0  0  0  0  0
  162.5250  213.3310  145.3790 C   0  0  0  0  0  1  0  0  0  0  0  0
  162.8030  213.0000  146.7310 O   0  0  0  0  0  0  0  0  0  0  0  0
  1 37  1  6  0  0  0
  2  1  1  0  0  0  0
  2  5  1  0  0  0  0
  3  5  2  0  0  0  0
  3  8  1  0  0  0  0
  4  3  1  0  0  0  0
  6  7  1  0  0  0  0
  6  4  2  0  0  0  0
  7  2  2  0  0  0  0
  9 10  3  0  0  0  0
 10  8  1  0  0  0  0
 11  9  1  0  0  0  0
 12 11  1  0  0  0  0
 13 12  1  0  0  0  0
 14 13  2  0  0  0  0
 15 13  1  0  0  0  0
 17 16  1  6  0  0  0
 17 15  1  0  0  0  0
 18 19  1  0  0  0  0
 18 17  1  0  0  0  0
 20 18  2  0  0  0  0
 21 27  1  1  0  0  0
 22 21  1  0  0  0  0
 23 21  1  0  0  0  0
 24 23  1  0  0  0  0
 25 22  1  0  0  0  0
 26  1  1  6  0  0  0
 26 24  1  0  0  0  0
 26 25  1  0  0  0  0
 27 29  1  0  0  0  0
 28 29  2  0  0  0  0
 30 28  2  0  0  0  0
 31 30  1  0  0  0  0
 32 33  1  0  0  0  0
 32 36  1  0  0  0  0
 33 35  1  0  0  0  0
 34 31  1  0  0  0  0
 35 34  1  0  0  0  0
 36 34  1  0  0  0  0
 38 39  2  0  0  0  0
 39 40  1  0  0  0  0
 40 37  1  0  0  0  0
 41 42  1  0  0  0  0
 42 39  1  0  0  0  0
M  END
>  <MODEL>
6

>  <REMARK>
 VINA RESULT:      -5.9      3.973      7.632
  Name = 
  17 active torsions:
  status: ('A' for Active; 'I' for Inactive)
    1  A    between atoms: C_4  and  S_42
    2  A    between atoms: O_5  and  C_12
    3  A    between atoms: O_5  and  C_14
    4  A    between atoms: C_6  and  C_8
    5  A    between atoms: C_8  and  C_35
    6  A    between atoms: C_8  and  C_40
    7  A    between atoms: C_9  and  N_16
    8  A    between atoms: N_10  and  C_11
    9  A    between atoms: C_11  and  C_38
   10  A    between atoms: C_13  and  C_32
   11  A    between atoms: C_13  and  O_37
   12  A    between atoms: N_16  and  C_31
   13  A    between atoms: C_18  and  C_26
   14  A    between atoms: C_26  and  O_37
   15  A    between atoms: C_29  and  O_34
   16  A    between atoms: C_32  and  S_42
   17  A    between atoms: C_35  and  N_41
                            x       y       z     vdW  Elec       q    Type
                         _______ _______ _______ _____ _____    ______ ____

>  <TORSDO>
F 17

$$$$
=
 OpenBabel11042420023D

 42 44  0  0  1  0  0  0  0  0999 V2000
  161.1690  206.3970  151.9150 C   0  0  2  0  0  3  0  0  0  0  0  0
  161.4130  207.1600  150.6460 C   0  0  0  0  0  0  0  0  0  0  0  0
  161.9680  209.2200  149.4750 C   0  0  0  0  0  0  0  0  0  0  0  0
  161.8270  208.5480  148.2490 C   0  0  0  0  0  3  0  0  0  0  0  0
  161.7580  208.5200  150.6670 C   0  0  0  0  0  3  0  0  0  0  0  0
  161.4790  207.1940  148.2230 C   0  0  0  0  0  3  0  0  0  0  0  0
  161.2720  206.5030  149.4200 C   0  0  0  0  0  3  0  0  0  0  0  0
  162.3100  210.5750  149.5380 O   0  0  0  0  0  0  0  0  0  0  0  0
  161.6280  212.2710  147.7230 C   0  0  0  0  0  0  0  0  0  0  0  0
  161.9470  211.4770  148.5730 C   0  0  0  0  0  0  0  0  0  0  0  0
  161.1640  213.4350  146.4840 S   0  0  0  0  0  0  0  0  0  0  0  0
  159.9890  212.2680  145.7400 C   0  0  0  0  0  2  0  0  0  0  0  0
  159.7660  212.6150  144.3040 C   0  0  0  0  0  0  0  0  0  0  0  0
  158.9500  213.5290  144.0170 O   0  0  0  0  0  0  0  0  0  0  0  0
  160.4490  211.9620  143.2690 O   0  0  0  0  0  0  0  0  0  0  0  0
  162.6860  212.5880  143.3270 O   0  0  0  0  0  1  0  0  0  0  0  0
  161.5380  212.5210  142.5320 C   0  0  1  0  0  3  0  0  0  0  0  0
  161.7880  211.7650  141.2610 C   0  0  0  0  0  0  0  0  0  0  0  0
  162.6970  212.2600  140.3350 O   0  0  0  0  0  0  0  0  0  0  0  0
  161.1940  210.6790  141.0300 O   0  0  0  0  0  1  0  0  0  0  0  0
  161.0580  208.6810  155.5840 C   0  0  2  0  0  3  0  0  0  0  0  0
  161.0920  209.4740  154.2780 C   0  0  0  0  0  2  0  0  0  0  0  0
  160.2310  207.4140  155.3840 C   0  0  0  0  0  2  0  0  0  0  0  0
  160.8250  206.5870  154.3360 N   0  0  0  0  0  2  0  0  0  0  0  0
  161.5960  208.5930  153.1400 C   0  0  0  0  0  2  0  0  0  0  0  0
  160.7510  207.3140  153.0680 C   0  0  1  0  0  3  0  0  0  0  0  0
  160.4650  209.4860  156.6380 N   0  0  0  0  0  2  0  0  0  0  0  0
  160.5930  211.8370  156.8090 C   0  0  0  0  0  0  0  0  0  0  0  0
  161.1030  210.6730  157.0960 C   0  0  0  0  0  3  0  0  0  0  0  0
  160.0830  213.0010  156.5210 C   0  0  0  0  0  3  0  0  0  0  0  0
  158.7040  213.0920  155.9660 C   0  0  0  0  0  2  0  0  0  0  0  0
  158.2610  212.8840  152.4420 C   0  0  0  0  0  2  0  0  0  0  0  0
  157.1750  213.8500  152.8430 C   0  0  0  0  0  2  0  0  0  0  0  0
  158.7420  213.7010  154.6470 N   0  0  0  0  0  0  0  0  0  0  0  0
  157.3790  214.0910  154.3220 C   0  0  0  0  0  2  0  0  0  0  0  0
  159.0790  212.6520  153.6950 C   0  0  0  0  0  2  0  0  0  0  0  0
  162.3300  205.4680  152.2820 C   0  0  0  0  0  2  0  0  0  0  0  0
  160.4280  203.3900  152.7230 O   0  0  0  0  0  0  0  0  0  0  0  0
  161.2660  203.2240  151.7940 C   0  0  0  0  0  0  0  0  0  0  0  0
  162.2510  204.2240  151.5280 N   0  0  0  0  0  2  0  0  0  0  0  0
  160.7910  202.0670  149.6770 C   0  0  0  0  0  1  0  0  0  0  0  0
  161.2470  202.0640  151.0210 O   0  0  0  0  0  0  0  0  0  0  0  0
  1 37  1  1  0  0  0
  2  5  1  0  0  0  0
  2  1  1  0  0  0  0
  3  8  1  0  0  0  0
  3  5  2  0  0  0  0
  4  3  1  0  0  0  0
  6  4  2  0  0  0  0
  6  7  1  0  0  0  0
  7  2  2  0  0  0  0
  9 10  3  0  0  0  0
 10  8  1  0  0  0  0
 11  9  1  0  0  0  0
 12 11  1  0  0  0  0
 13 12  1  0  0  0  0
 14 13  2  0  0  0  0
 15 13  1  0  0  0  0
 17 15  1  0  0  0  0
 17 16  1  1  0  0  0
 18 17  1  0  0  0  0
 19 18  2  0  0  0  0
 20 18  1  0  0  0  0
 21 27  1  1  0  0  0
 22 21  1  0  0  0  0
 23 21  1  0  0  0  0
 24 23  1  0  0  0  0
 25 22  1  0  0  0  0
 26  1  1  6  0  0  0
 26 25  1  0  0  0  0
 26 24  1  0  0  0  0
 27 29  1  0  0  0  0
 28 29  2  0  0  0  0
 30 28  2  0  0  0  0
 31 30  1  0  0  0  0
 32 33  1  0  0  0  0
 32 36  1  0  0  0  0
 33 35  1  0  0  0  0
 34 31  1  0  0  0  0
 35 34  1  0  0  0  0
 36 34  1  0  0  0  0
 39 38  2  0  0  0  0
 40 39  1  0  0  0  0
 40 37  1  0  0  0  0
 41 42  1  0  0  0  0
 42 39  1  0  0  0  0
M  END
>  <MODEL>
7

>  <REMARK>
 VINA RESULT:      -5.9      3.107      4.706
  Name = 
  17 active torsions:
  status: ('A' for Active; 'I' for Inactive)
    1  A    between atoms: C_4  and  S_42
    2  A    between atoms: O_5  and  C_12
    3  A    between atoms: O_5  and  C_14
    4  A    between atoms: C_6  and  C_8
    5  A    between atoms: C_8  and  C_35
    6  A    between atoms: C_8  and  C_40
    7  A    between atoms: C_9  and  N_16
    8  A    between atoms: N_10  and  C_11
    9  A    between atoms: C_11  and  C_38
   10  A    between atoms: C_13  and  C_32
   11  A    between atoms: C_13  and  O_37
   12  A    between atoms: N_16  and  C_31
   13  A    between atoms: C_18  and  C_26
   14  A    between atoms: C_26  and  O_37
   15  A    between atoms: C_29  and  O_34
   16  A    between atoms: C_32  and  S_42
   17  A    between atoms: C_35  and  N_41
                            x       y       z     vdW  Elec       q    Type
                         _______ _______ _______ _____ _____    ______ ____

>  <TORSDO>
F 17

$$$$
=
 OpenBabel11042420023D

 42 44  0  0  1  0  0  0  0  0999 V2000
  161.6740  206.5760  149.6120 C   0  0  2  0  0  3  0  0  0  0  0  0
  161.4770  206.0190  150.9920 C   0  0  0  0  0  0  0  0  0  0  0  0
  161.2470  206.3220  153.3960 C   0  0  0  0  0  0  0  0  0  0  0  0
  161.1400  204.9290  153.5490 C   0  0  0  0  0  3  0  0  0  0  0  0
  161.4170  206.8580  152.1160 C   0  0  0  0  0  3  0  0  0  0  0  0
  161.2040  204.0900  152.4340 C   0  0  0  0  0  3  0  0  0  0  0  0
  161.3730  204.6350  151.1580 C   0  0  0  0  0  3  0  0  0  0  0  0
  161.1920  207.1910  154.4910 O   0  0  0  0  0  0  0  0  0  0  0  0
  160.7370  209.7150  154.2470 C   0  0  0  0  0  0  0  0  0  0  0  0
  160.9500  208.5340  154.3600 C   0  0  0  0  0  0  0  0  0  0  0  0
  160.4250  211.4420  154.0840 S   0  0  0  0  0  0  0  0  0  0  0  0
  159.9170  211.5780  155.8220 C   0  0  0  0  0  2  0  0  0  0  0  0
  159.0590  212.7850  156.0090 C   0  0  0  0  0  0  0  0  0  0  0  0
  159.5430  213.9220  155.7670 O   0  0  0  0  0  0  0  0  0  0  0  0
  157.7260  212.6900  156.4330 O   0  0  0  0  0  0  0  0  0  0  0  0
  157.0430  212.2140  154.2630 O   0  0  0  0  0  1  0  0  0  0  0  0
  156.6100  212.4720  155.5670 C   0  0  1  0  0  3  0  0  0  0  0  0
  155.7200  211.3800  156.0820 C   0  0  0  0  0  0  0  0  0  0  0  0
  155.3920  210.3140  155.2540 O   0  0  0  0  0  0  0  0  0  0  0  0
  155.2780  211.4100  157.2610 O   0  0  0  0  0  1  0  0  0  0  0  0
  162.3580  210.8440  149.5340 C   0  0  2  0  0  3  0  0  0  0  0  0
  161.7480  210.2200  148.2800 C   0  0  0  0  0  2  0  0  0  0  0  0
  161.8220  210.1250  150.7690 C   0  0  0  0  0  2  0  0  0  0  0  0
  162.1760  208.7080  150.7170 N   0  0  0  0  0  2  0  0  0  0  0  0
  162.0020  208.7160  148.2640 C   0  0  0  0  0  2  0  0  0  0  0  0
  161.4970  208.0970  149.5740 C   0  0  1  0  0  3  0  0  0  0  0  0
  162.0120  212.2530  149.6060 N   0  0  0  0  0  2  0  0  0  0  0  0
  160.6820  213.3910  148.0210 C   0  0  0  0  0  0  0  0  0  0  0  0
  160.7520  212.7200  149.1360 C   0  0  0  0  0  3  0  0  0  0  0  0
  160.6130  214.0620  146.9060 C   0  0  0  0  0  3  0  0  0  0  0  0
  161.7840  214.1010  145.9880 C   0  0  0  0  0  2  0  0  0  0  0  0
  160.7230  212.4870  143.0000 C   0  0  0  0  0  2  0  0  0  0  0  0
  162.2100  212.6090  142.7850 C   0  0  0  0  0  2  0  0  0  0  0  0
  161.7650  212.9400  145.1150 N   0  0  0  0  0  0  0  0  0  0  0  0
  162.7570  213.1750  144.0770 C   0  0  0  0  0  2  0  0  0  0  0  0
  160.4820  212.9360  144.4250 C   0  0  0  0  0  2  0  0  0  0  0  0
  160.8380  205.8510  148.5550 C   0  0  0  0  0  2  0  0  0  0  0  0
  160.0340  206.2190  145.8440 O   0  0  0  0  0  0  0  0  0  0  0  0
  161.1880  205.7520  146.0500 C   0  0  0  0  0  0  0  0  0  0  0  0
  161.6480  205.5360  147.3860 N   0  0  0  0  0  2  0  0  0  0  0  0
  161.5450  205.3550  143.6500 C   0  0  0  0  0  1  0  0  0  0  0  0
  162.0270  205.4360  144.9820 O   0  0  0  0  0  0  0  0  0  0  0  0
  1 37  1  6  0  0  0
  1  2  1  0  0  0  0
  2  7  2  0  0  0  0
  2  5  1  0  0  0  0
  3  4  1  0  0  0  0
  3  8  1  0  0  0  0
  5  3  2  0  0  0  0
  6  4  2  0  0  0  0
  7  6  1  0  0  0  0
  9 10  3  0  0  0  0
 10  8  1  0  0  0  0
 11  9  1  0  0  0  0
 11 12  1  0  0  0  0
 12 13  1  0  0  0  0
 13 15  1  0  0  0  0
 14 13  2  0  0  0  0
 17 16  1  6  0  0  0
 17 18  1  0  0  0  0
 17 15  1  0  0  0  0
 18 20  1  0  0  0  0
 19 18  2  0  0  0  0
 21 27  1  1  0  0  0
 21 23  1  0  0  0  0
 22 21  1  0  0  0  0
 24 23  1  0  0  0  0
 25 22  1  0  0  0  0
 25 26  1  0  0  0  0
 26  1  1  6  0  0  0
 26 24  1  0  0  0  0
 28 29  2  0  0  0  0
 29 27  1  0  0  0  0
 30 28  2  0  0  0  0
 31 30  1  0  0  0  0
 32 36  1  0  0  0  0
 33 32  1  0  0  0  0
 33 35  1  0  0  0  0
 34 31  1  0  0  0  0
 35 34  1  0  0  0  0
 36 34  1  0  0  0  0
 38 39  2  0  0  0  0
 39 40  1  0  0  0  0
 40 37  1  0  0  0  0
 41 42  1  0  0  0  0
 42 39  1  0  0  0  0
M  END
>  <MODEL>
8

>  <REMARK>
 VINA RESULT:      -5.9      5.732     10.209
  Name = 
  17 active torsions:
  status: ('A' for Active; 'I' for Inactive)
    1  A    between atoms: C_4  and  S_42
    2  A    between atoms: O_5  and  C_12
    3  A    between atoms: O_5  and  C_14
    4  A    between atoms: C_6  and  C_8
    5  A    between atoms: C_8  and  C_35
    6  A    between atoms: C_8  and  C_40
    7  A    between atoms: C_9  and  N_16
    8  A    between atoms: N_10  and  C_11
    9  A    between atoms: C_11  and  C_38
   10  A    between atoms: C_13  and  C_32
   11  A    between atoms: C_13  and  O_37
   12  A    between atoms: N_16  and  C_31
   13  A    between atoms: C_18  and  C_26
   14  A    between atoms: C_26  and  O_37
   15  A    between atoms: C_29  and  O_34
   16  A    between atoms: C_32  and  S_42
   17  A    between atoms: C_35  and  N_41
                            x       y       z     vdW  Elec       q    Type
                         _______ _______ _______ _____ _____    ______ ____

>  <TORSDO>
F 17

$$$$
=
 OpenBabel11042420023D

 42 44  0  0  1  0  0  0  0  0999 V2000
  161.4980  203.7250  148.2400 C   0  0  2  0  0  3  0  0  0  0  0  0
  161.3470  204.5070  149.5110 C   0  0  0  0  0  0  0  0  0  0  0  0
  161.2260  206.6240  150.7060 C   0  0  0  0  0  0  0  0  0  0  0  0
  161.0930  205.9210  151.9150 C   0  0  0  0  0  3  0  0  0  0  0  0
  161.3530  205.9100  149.5100 C   0  0  0  0  0  3  0  0  0  0  0  0
  161.0900  204.5230  151.9210 C   0  0  0  0  0  3  0  0  0  0  0  0
  161.2180  203.8190  150.7220 C   0  0  0  0  0  3  0  0  0  0  0  0
  161.2370  208.0220  150.6630 O   0  0  0  0  0  0  0  0  0  0  0  0
  161.0460  209.4840  152.7750 C   0  0  0  0  0  0  0  0  0  0  0  0
  161.1350  208.7990  151.7870 C   0  0  0  0  0  0  0  0  0  0  0  0
  160.9180  210.4870  154.2190 S   0  0  0  0  0  0  0  0  0  0  0  0
  159.8890  211.7080  153.3550 C   0  0  0  0  0  2  0  0  0  0  0  0
  159.2880  212.6570  154.3400 C   0  0  0  0  0  0  0  0  0  0  0  0
  159.9540  212.9830  155.3570 O   0  0  0  0  0  0  0  0  0  0  0  0
  158.0110  213.2060  154.1580 O   0  0  0  0  0  0  0  0  0  0  0  0
  155.7820  213.7020  154.5890 O   0  0  0  0  0  1  0  0  0  0  0  0
  156.8990  212.9850  155.0270 C   0  0  1  0  0  3  0  0  0  0  0  0
  156.5970  211.5230  155.1740 C   0  0  0  0  0  0  0  0  0  0  0  0
  157.4330  210.7220  155.9410 O   0  0  0  0  0  1  0  0  0  0  0  0
  155.5850  211.0150  154.6220 O   0  0  0  0  0  0  0  0  0  0  0  0
  161.5180  205.2780  144.2050 C   0  0  2  0  0  3  0  0  0  0  0  0
  160.4000  205.7640  145.1260 C   0  0  0  0  0  2  0  0  0  0  0  0
  162.7980  205.0940  145.0170 C   0  0  0  0  0  2  0  0  0  0  0  0
  162.5840  204.1090  146.0740 N   0  0  0  0  0  2  0  0  0  0  0  0
  160.2380  204.8110  146.3060 C   0  0  0  0  0  2  0  0  0  0  0  0
  161.5900  204.6340  147.0110 C   0  0  1  0  0  3  0  0  0  0  0  0
  161.7490  206.2490  143.1500 N   0  0  0  0  0  2  0  0  0  0  0  0
  161.9590  206.7070  140.8430 C   0  0  0  0  0  0  0  0  0  0  0  0
  161.9610  205.8300  141.8060 C   0  0  0  0  0  3  0  0  0  0  0  0
  161.9560  207.5850  139.8800 C   0  0  0  0  0  3  0  0  0  0  0  0
  162.0140  209.0380  140.1990 C   0  0  0  0  0  2  0  0  0  0  0  0
  160.3290  211.7990  138.7170 C   0  0  0  0  0  2  0  0  0  0  0  0
  161.7770  212.1410  138.4720 C   0  0  0  0  0  2  0  0  0  0  0  0
  161.6450  209.8160  139.0280 N   0  0  0  0  0  0  0  0  0  0  0  0
  162.5600  210.9440  138.9650 C   0  0  0  0  0  2  0  0  0  0  0  0
  160.3350  210.3980  139.2890 C   0  0  0  0  0  2  0  0  0  0  0  0
  160.4430  202.6250  148.0900 C   0  0  0  0  0  2  0  0  0  0  0  0
  160.4610  201.2580  145.5880 O   0  0  0  0  0  0  0  0  0  0  0  0
  161.0550  200.7070  146.5560 C   0  0  0  0  0  0  0  0  0  0  0  0
  161.0750  201.3370  147.8390 N   0  0  0  0  0  2  0  0  0  0  0  0
  161.2100  198.5000  145.4830 C   0  0  0  0  0  1  0  0  0  0  0  0
  161.6930  199.4780  146.3910 O   0  0  0  0  0  0  0  0  0  0  0  0
  1 37  1  6  0  0  0
  1  2  1  0  0  0  0
  2  7  1  0  0  0  0
  3  4  2  0  0  0  0
  4  6  1  0  0  0  0
  5  2  2  0  0  0  0
  5  3  1  0  0  0  0
  7  6  2  0  0  0  0
  8  3  1  0  0  0  0
  8 10  1  0  0  0  0
  9 11  1  0  0  0  0
 10  9  3  0  0  0  0
 12 11  1  0  0  0  0
 12 13  1  0  0  0  0
 13 14  2  0  0  0  0
 15 13  1  0  0  0  0
 15 17  1  0  0  0  0
 17 16  1  6  0  0  0
 17 18  1  0  0  0  0
 18 19  1  0  0  0  0
 20 18  2  0  0  0  0
 21 27  1  6  0  0  0
 21 23  1  0  0  0  0
 21 22  1  0  0  0  0
 22 25  1  0  0  0  0
 23 24  1  0  0  0  0
 24 26  1  0  0  0  0
 25 26  1  0  0  0  0
 26  1  1  1  0  0  0
 28 29  2  0  0  0  0
 29 27  1  0  0  0  0
 30 31  1  0  0  0  0
 30 28  2  0  0  0  0
 32 36  1  0  0  0  0
 33 32  1  0  0  0  0
 33 35  1  0  0  0  0
 34 36  1  0  0  0  0
 34 31  1  0  0  0  0
 35 34  1  0  0  0  0
 38 39  2  0  0  0  0
 39 40  1  0  0  0  0
 40 37  1  0  0  0  0
 41 42  1  0  0  0  0
 42 39  1  0  0  0  0
M  END
>  <MODEL>
9

>  <REMARK>
 VINA RESULT:      -5.8      5.469     11.005
  Name = 
  17 active torsions:
  status: ('A' for Active; 'I' for Inactive)
    1  A    between atoms: C_4  and  S_42
    2  A    between atoms: O_5  and  C_12
    3  A    between atoms: O_5  and  C_14
    4  A    between atoms: C_6  and  C_8
    5  A    between atoms: C_8  and  C_35
    6  A    between atoms: C_8  and  C_40
    7  A    between atoms: C_9  and  N_16
    8  A    between atoms: N_10  and  C_11
    9  A    between atoms: C_11  and  C_38
   10  A    between atoms: C_13  and  C_32
   11  A    between atoms: C_13  and  O_37
   12  A    between atoms: N_16  and  C_31
   13  A    between atoms: C_18  and  C_26
   14  A    between atoms: C_26  and  O_37
   15  A    between atoms: C_29  and  O_34
   16  A    between atoms: C_32  and  S_42
   17  A    between atoms: C_35  and  N_41
                            x       y       z     vdW  Elec       q    Type
                         _______ _______ _______ _____ _____    ______ ____

>  <TORSDO>
F 17

$$$$
