=
 OpenBabel11042421403D

 45 48  0  0  1  0  0  0  0  0999 V2000
  161.4630  208.6670  150.8420 C   0  0  1  0  0  3  0  0  0  0  0  0
  160.5580  208.1680  151.9650 C   0  0  0  0  0  2  0  0  0  0  0  0
  161.2870  204.8830  153.2140 C   0  0  0  0  0  3  0  0  0  0  0  0
  161.3330  206.1870  153.1350 C   0  0  0  0  0  0  0  0  0  0  0  0
  161.3520  207.4880  153.0310 C   0  0  0  0  0  3  0  0  0  0  0  0
  160.6050  204.3110  149.6010 C   0  0  0  0  0  3  0  0  0  0  0  0
  160.9700  201.8800  149.7890 C   0  0  0  0  0  0  0  0  0  0  0  0
  160.6720  200.8520  148.9560 F   0  0  0  0  0  0  0  0  0  0  0  0
  160.8910  201.6740  151.1050 C   0  0  0  0  0  3  0  0  0  0  0  0
  160.4260  204.6940  150.8660 C   0  0  0  0  0  3  0  0  0  0  0  0
  161.5550  203.0870  147.8420 F   0  0  0  0  0  0  0  0  0  0  0  0
  161.4800  203.1660  149.2190 C   0  0  1  0  0  3  0  0  0  0  0  0
  161.1500  202.6860  152.1500 C   0  0  0  0  0  3  0  0  0  0  0  0
  160.9950  204.0210  152.0530 C   0  0  0  0  0  0  0  0  0  0  0  0
  161.9560  210.0150  151.1180 N   0  0  0  0  0  2  0  0  0  0  0  0
  161.4440  211.8370  149.5740 C   0  0  0  0  0  3  0  0  0  0  0  0
  160.4050  211.8440  151.7480 C   0  0  0  0  0  3  0  0  0  0  0  0
  160.7630  213.0200  149.2590 C   0  0  0  0  0  0  0  0  0  0  0  0
  161.2640  211.2360  150.8220 C   0  0  0  0  0  0  0  0  0  0  0  0
  159.9140  213.5870  150.2100 C   0  0  0  0  0  3  0  0  0  0  0  0
  159.7560  212.9950  151.4260 N   0  0  0  0  0  0  0  0  0  0  0  0
  160.9270  213.6590  147.9890 N   0  0  0  0  0  2  0  0  0  0  0  0
  161.9740  213.3080  147.0380 C   0  0  2  0  0  3  0  0  0  0  0  0
  162.9650  214.4530  146.8980 C   0  0  0  0  0  1  0  0  0  0  0  0
  161.6070  212.6900  143.3420 C   0  0  0  0  0  0  0  0  0  0  0  0
  160.2980  212.3410  143.2370 C   0  0  0  0  0  0  0  0  0  0  0  0
  162.1910  212.6580  142.0910 O   0  0  0  0  0  0  0  0  0  0  0  0
  161.3770  212.9670  145.7110 C   0  0  0  0  0  0  0  0  0  0  0  0
  160.0110  212.6060  145.5980 C   0  0  0  0  0  3  0  0  0  0  0  0
  159.4560  212.2850  144.3460 C   0  0  0  0  0  3  0  0  0  0  0  0
  162.1920  213.0140  144.5630 C   0  0  0  0  0  3  0  0  0  0  0  0
  159.9960  212.0780  141.9150 O   0  0  0  0  0  0  0  0  0  0  0  0
  161.1900  212.2650  141.1410 C   0  0  0  0  0  2  0  0  0  0  0  0
  162.6180  207.7080  150.5880 C   0  0  0  0  0  2  0  0  0  0  0  0
  162.6240  207.2280  149.1380 C   0  0  0  0  0  2  0  0  0  0  0  0
  161.4380  207.7910  148.3650 C   0  0  0  0  0  2  0  0  0  0  0  0
  160.9780  206.8220  147.2910 C   0  0  0  0  0  2  0  0  0  0  0  0
  162.1610  206.0330  146.7590 C   0  0  0  0  0  2  0  0  0  0  0  0
  162.0800  205.9230  145.2430 C   0  0  0  0  0  2  0  0  0  0  0  0
  160.1710  202.7790  144.7780 N   0  0  0  0  0  2  0  0  0  0  0  0
  161.0710  204.9520  144.8470 N   0  0  0  0  0  0  0  0  0  0  0  0
  161.1780  203.7070  145.1750 C   0  0  0  0  0  3  0  0  0  0  0  0
  160.2480  201.4250  145.1310 N   0  0  0  0  0  0  0  0  0  0  0  0
  159.7250  200.4530  144.3080 O   0  0  0  0  0  0  0  0  0  0  0  0
  160.8120  201.0970  146.1940 O   0  0  0  0  0  0  0  0  0  0  0  0
  1 34  1  1  0  0  0
  1 15  1  0  0  0  0
  1  2  1  0  0  0  0
  2  5  1  0  0  0  0
  4  3  2  0  0  0  0
  5  4  2  0  0  0  0
  6 10  2  0  0  0  0
  7  9  2  0  0  0  0
  8  7  1  0  0  0  0
  9 13  1  0  0  0  0
 10 14  1  0  0  0  0
 12 11  1  6  0  0  0
 12  6  1  0  0  0  0
 12  7  1  0  0  0  0
 14 13  2  0  0  0  0
 14  3  1  0  0  0  0
 16 19  1  0  0  0  0
 18 16  2  0  0  0  0
 18 20  1  0  0  0  0
 19 15  1  0  0  0  0
 19 17  2  0  0  0  0
 20 21  2  0  0  0  0
 21 17  1  0  0  0  0
 22 18  1  0  0  0  0
 23 24  1  6  0  0  0
 23 22  1  0  0  0  0
 25 31  1  0  0  0  0
 26 25  2  0  0  0  0
 26 30  1  0  0  0  0
 27 25  1  0  0  0  0
 28 23  1  0  0  0  0
 29 28  1  0  0  0  0
 30 29  2  0  0  0  0
 31 28  2  0  0  0  0
 32 26  1  0  0  0  0
 33 32  1  0  0  0  0
 33 27  1  0  0  0  0
 35 34  1  0  0  0  0
 36 35  1  0  0  0  0
 37 36  1  0  0  0  0
 38 37  1  0  0  0  0
 39 38  1  0  0  0  0
 40 43  1  0  0  0  0
 40 42  1  0  0  0  0
 41 42  2  0  0  0  0
 41 39  1  0  0  0  0
 43 45  2  0  0  0  0
 44 43  2  0  0  0  0
M  END
>  <MODEL>
1

>  <REMARK>
 VINA RESULT:      -7.7      0.000      0.000
  Name = 
  16 active torsions:
  status: ('A' for Active; 'I' for Inactive)
    1  A    between atoms: C_1  and  C_44
    2  A    between atoms: C_2  and  C_31
    3  A    between atoms: C_2  and  C_39
    4  A    between atoms: C_4  and  N_8
    5  A    between atoms: C_4  and  C_21
    6  A    between atoms: C_5  and  N_25
    7  A    between atoms: C_5  and  C_34
    8  A    between atoms: N_6  and  N_11
    9  A    between atoms: C_7  and  C_27
   10  A    between atoms: C_7  and  C_34
   11  A    between atoms: N_8  and  C_26
   12  A    between atoms: C_27  and  C_39
   13  A    between atoms: C_30  and  C_42
   14  A    between atoms: C_31  and  N_37
   15  A    between atoms: C_31  and  C_42
   16  A    between atoms: C_36  and  N_37
                            x       y       z     vdW  Elec       q    Type
                         _______ _______ _______ _____ _____    ______ ____

>  <TORSDO>
F 16

$$$$
=
 OpenBabel11042421403D

 45 48  0  0  1  0  0  0  0  0999 V2000
  161.1890  209.4610  151.5570 C   0  0  1  0  0  3  0  0  0  0  0  0
  160.3960  208.2260  151.9750 C   0  0  0  0  0  2  0  0  0  0  0  0
  161.2220  204.9460  153.1750 C   0  0  0  0  0  3  0  0  0  0  0  0
  161.1380  206.2510  153.1740 C   0  0  0  0  0  0  0  0  0  0  0  0
  161.0330  207.5520  153.1440 C   0  0  0  0  0  3  0  0  0  0  0  0
  161.5540  201.7470  151.3050 C   0  0  0  0  0  3  0  0  0  0  0  0
  160.7170  202.7390  149.2100 C   0  0  0  0  0  0  0  0  0  0  0  0
  160.7490  202.3050  147.9250 F   0  0  0  0  0  0  0  0  0  0  0  0
  160.8310  204.0480  149.4410 C   0  0  0  0  0  3  0  0  0  0  0  0
  161.8830  202.8100  152.0400 C   0  0  0  0  0  3  0  0  0  0  0  0
  160.2710  200.4920  149.7960 F   0  0  0  0  0  0  0  0  0  0  0  0
  160.4440  201.7620  150.3110 C   0  0  1  0  0  3  0  0  0  0  0  0
  160.8460  204.6880  150.7730 C   0  0  0  0  0  3  0  0  0  0  0  0
  161.2630  204.1470  151.9360 C   0  0  0  0  0  0  0  0  0  0  0  0
  161.2370  210.4500  152.6320 N   0  0  0  0  0  2  0  0  0  0  0  0
  160.2650  212.4480  151.6160 C   0  0  0  0  0  3  0  0  0  0  0  0
  159.7400  211.9540  153.9150 C   0  0  0  0  0  3  0  0  0  0  0  0
  159.4500  213.5840  151.6870 C   0  0  0  0  0  0  0  0  0  0  0  0
  160.4110  211.6190  152.7310 C   0  0  0  0  0  0  0  0  0  0  0  0
  158.7960  213.8750  152.8850 C   0  0  0  0  0  3  0  0  0  0  0  0
  158.9560  213.0650  153.9660 N   0  0  0  0  0  0  0  0  0  0  0  0
  159.2810  214.4530  150.5620 N   0  0  0  0  0  2  0  0  0  0  0  0
  158.2870  214.2350  149.5170 C   0  0  2  0  0  3  0  0  0  0  0  0
  157.2640  213.2040  149.9690 C   0  0  0  0  0  1  0  0  0  0  0  0
  160.8760  213.7480  146.8280 C   0  0  0  0  0  0  0  0  0  0  0  0
  160.2070  212.9930  145.9170 C   0  0  0  0  0  0  0  0  0  0  0  0
  162.1580  213.9840  146.3740 O   0  0  0  0  0  0  0  0  0  0  0  0
  158.9510  213.7950  148.2530 C   0  0  0  0  0  0  0  0  0  0  0  0
  158.2540  213.0100  147.2990 C   0  0  0  0  0  3  0  0  0  0  0  0
  158.8850  212.5980  146.1120 C   0  0  0  0  0  3  0  0  0  0  0  0
  160.2850  214.1740  148.0140 C   0  0  0  0  0  3  0  0  0  0  0  0
  161.0360  212.7230  144.8460 O   0  0  0  0  0  0  0  0  0  0  0  0
  162.3070  213.3390  145.1000 C   0  0  0  0  0  2  0  0  0  0  0  0
  162.5930  209.0940  151.0950 C   0  0  0  0  0  2  0  0  0  0  0  0
  162.6110  207.7180  150.4340 C   0  0  0  0  0  2  0  0  0  0  0  0
  162.5340  207.8320  148.9160 C   0  0  0  0  0  2  0  0  0  0  0  0
  161.1000  207.7110  148.4330 C   0  0  0  0  0  2  0  0  0  0  0  0
  160.9970  206.6310  147.3710 C   0  0  0  0  0  2  0  0  0  0  0  0
  162.3750  206.3190  146.8030 C   0  0  0  0  0  2  0  0  0  0  0  0
  161.3010  203.1980  145.1150 N   0  0  0  0  0  2  0  0  0  0  0  0
  162.3760  205.0330  146.1220 N   0  0  0  0  0  0  0  0  0  0  0  0
  161.2700  204.4540  145.7870 C   0  0  0  0  0  3  0  0  0  0  0  0
  160.1210  202.5510  144.7240 N   0  0  0  0  0  0  0  0  0  0  0  0
  159.9320  201.2120  144.9860 O   0  0  0  0  0  0  0  0  0  0  0  0
  159.2250  203.2000  144.1460 O   0  0  0  0  0  0  0  0  0  0  0  0
  1 34  1  1  0  0  0
  1  2  1  0  0  0  0
  1 15  1  0  0  0  0
  2  5  1  0  0  0  0
  4  3  2  0  0  0  0
  5  4  2  0  0  0  0
  6 10  2  0  0  0  0
  7  9  2  0  0  0  0
  7 12  1  0  0  0  0
  8  7  1  0  0  0  0
  9 13  1  0  0  0  0
 12 11  1  6  0  0  0
 12  6  1  0  0  0  0
 13 14  2  0  0  0  0
 14 10  1  0  0  0  0
 14  3  1  0  0  0  0
 15 19  1  0  0  0  0
 16 18  2  0  0  0  0
 16 19  1  0  0  0  0
 17 21  1  0  0  0  0
 18 20  1  0  0  0  0
 19 17  2  0  0  0  0
 20 21  2  0  0  0  0
 22 18  1  0  0  0  0
 23 24  1  1  0  0  0
 23 22  1  0  0  0  0
 25 31  1  0  0  0  0
 26 30  1  0  0  0  0
 26 25  2  0  0  0  0
 27 25  1  0  0  0  0
 28 23  1  0  0  0  0
 29 28  1  0  0  0  0
 30 29  2  0  0  0  0
 31 28  2  0  0  0  0
 32 33  1  0  0  0  0
 32 26  1  0  0  0  0
 33 27  1  0  0  0  0
 35 34  1  0  0  0  0
 36 35  1  0  0  0  0
 37 36  1  0  0  0  0
 38 37  1  0  0  0  0
 39 38  1  0  0  0  0
 40 42  1  0  0  0  0
 41 39  1  0  0  0  0
 42 41  2  0  0  0  0
 43 44  2  0  0  0  0
 43 40  1  0  0  0  0
 45 43  2  0  0  0  0
M  END
>  <MODEL>
2

>  <REMARK>
 VINA RESULT:      -7.6      1.572      2.631
  Name = 
  16 active torsions:
  status: ('A' for Active; 'I' for Inactive)
    1  A    between atoms: C_1  and  C_44
    2  A    between atoms: C_2  and  C_31
    3  A    between atoms: C_2  and  C_39
    4  A    between atoms: C_4  and  N_8
    5  A    between atoms: C_4  and  C_21
    6  A    between atoms: C_5  and  N_25
    7  A    between atoms: C_5  and  C_34
    8  A    between atoms: N_6  and  N_11
    9  A    between atoms: C_7  and  C_27
   10  A    between atoms: C_7  and  C_34
   11  A    between atoms: N_8  and  C_26
   12  A    between atoms: C_27  and  C_39
   13  A    between atoms: C_30  and  C_42
   14  A    between atoms: C_31  and  N_37
   15  A    between atoms: C_31  and  C_42
   16  A    between atoms: C_36  and  N_37
                            x       y       z     vdW  Elec       q    Type
                         _______ _______ _______ _____ _____    ______ ____

>  <TORSDO>
F 16

$$$$
=
 OpenBabel11042421403D

 45 48  0  0  1  0  0  0  0  0999 V2000
  161.6430  211.8950  148.2970 C   0  0  1  0  0  3  0  0  0  0  0  0
  161.8050  210.4040  148.5770 C   0  0  0  0  0  2  0  0  0  0  0  0
  161.5450  208.0170  151.2450 C   0  0  0  0  0  3  0  0  0  0  0  0
  161.9320  209.0990  150.6190 C   0  0  0  0  0  0  0  0  0  0  0  0
  162.2940  210.1700  149.9680 C   0  0  0  0  0  3  0  0  0  0  0  0
  160.8430  206.0360  148.1750 C   0  0  0  0  0  3  0  0  0  0  0  0
  160.8610  203.8970  149.4010 C   0  0  0  0  0  0  0  0  0  0  0  0
  160.4350  202.6550  149.0620 F   0  0  0  0  0  0  0  0  0  0  0  0
  160.7360  204.2870  150.6700 C   0  0  0  0  0  3  0  0  0  0  0  0
  160.7020  206.9440  149.1420 C   0  0  0  0  0  3  0  0  0  0  0  0
  161.6390  204.0700  147.1750 F   0  0  0  0  0  0  0  0  0  0  0  0
  161.5560  204.7420  148.3790 C   0  0  1  0  0  3  0  0  0  0  0  0
  161.1180  205.6110  151.2050 C   0  0  0  0  0  3  0  0  0  0  0  0
  161.1530  206.7820  150.5400 C   0  0  0  0  0  0  0  0  0  0  0  0
  161.3790  212.6400  149.5260 N   0  0  0  0  0  2  0  0  0  0  0  0
  159.7720  212.9730  151.3360 C   0  0  0  0  0  3  0  0  0  0  0  0
  159.1360  213.6080  149.1000 C   0  0  0  0  0  3  0  0  0  0  0  0
  158.5240  213.4100  151.8000 C   0  0  0  0  0  0  0  0  0  0  0  0
  160.0900  213.0760  149.9790 C   0  0  0  0  0  0  0  0  0  0  0  0
  157.6090  213.9380  150.8890 C   0  0  0  0  0  3  0  0  0  0  0  0
  157.9290  214.0230  149.5690 N   0  0  0  0  0  0  0  0  0  0  0  0
  158.1690  213.3170  153.1840 N   0  0  0  0  0  2  0  0  0  0  0  0
  157.9130  212.0560  153.8680 C   0  0  2  0  0  3  0  0  0  0  0  0
  156.9020  212.2580  154.9850 C   0  0  0  0  0  1  0  0  0  0  0  0
  160.9270  211.5070  156.0580 C   0  0  0  0  0  0  0  0  0  0  0  0
  161.5480  210.4690  155.4390 C   0  0  0  0  0  0  0  0  0  0  0  0
  161.6540  211.8770  157.1720 O   0  0  0  0  0  0  0  0  0  0  0  0
  159.1870  211.4920  154.4110 C   0  0  0  0  0  0  0  0  0  0  0  0
  159.8380  210.4110  153.7650 C   0  0  0  0  0  3  0  0  0  0  0  0
  161.0360  209.8850  154.2820 C   0  0  0  0  0  3  0  0  0  0  0  0
  159.7410  212.0550  155.5770 C   0  0  0  0  0  3  0  0  0  0  0  0
  162.6960  210.1390  156.1320 O   0  0  0  0  0  0  0  0  0  0  0  0
  162.8010  211.0190  157.2610 C   0  0  0  0  0  2  0  0  0  0  0  0
  162.8560  212.4610  147.5700 C   0  0  0  0  0  2  0  0  0  0  0  0
  162.4720  213.6720  146.7220 C   0  0  0  0  0  2  0  0  0  0  0  0
  162.0200  213.2500  145.3290 C   0  0  0  0  0  2  0  0  0  0  0  0
  163.1360  213.4290  144.3160 C   0  0  0  0  0  2  0  0  0  0  0  0
  162.6760  212.9670  142.9460 C   0  0  0  0  0  2  0  0  0  0  0  0
  161.1600  213.0540  142.8430 C   0  0  0  0  0  2  0  0  0  0  0  0
  160.9180  210.4670  140.1990 N   0  0  0  0  0  2  0  0  0  0  0  0
  160.6600  212.1750  141.7970 N   0  0  0  0  0  0  0  0  0  0  0  0
  161.4360  211.3200  141.2160 C   0  0  0  0  0  3  0  0  0  0  0  0
  161.7280  209.5190  139.5600 N   0  0  0  0  0  0  0  0  0  0  0  0
  161.9480  208.2840  140.1270 O   0  0  0  0  0  0  0  0  0  0  0  0
  162.2420  209.7920  138.4560 O   0  0  0  0  0  0  0  0  0  0  0  0
  1 34  1  1  0  0  0
  1  2  1  0  0  0  0
  1 15  1  0  0  0  0
  2  5  1  0  0  0  0
  4  3  2  0  0  0  0
  5  4  2  0  0  0  0
  6 12  1  0  0  0  0
  6 10  2  0  0  0  0
  7  9  2  0  0  0  0
  8  7  1  0  0  0  0
  9 13  1  0  0  0  0
 10 14  1  0  0  0  0
 12 11  1  6  0  0  0
 12  7  1  0  0  0  0
 14 13  2  0  0  0  0
 14  3  1  0  0  0  0
 15 19  1  0  0  0  0
 16 18  1  0  0  0  0
 17 21  2  0  0  0  0
 17 19  1  0  0  0  0
 18 22  1  0  0  0  0
 19 16  2  0  0  0  0
 20 18  2  0  0  0  0
 21 20  1  0  0  0  0
 22 23  1  0  0  0  0
 23 28  1  0  0  0  0
 23 24  1  1  0  0  0
 25 27  1  0  0  0  0
 26 25  2  0  0  0  0
 26 32  1  0  0  0  0
 27 33  1  0  0  0  0
 28 31  2  0  0  0  0
 29 30  2  0  0  0  0
 29 28  1  0  0  0  0
 30 26  1  0  0  0  0
 31 25  1  0  0  0  0
 32 33  1  0  0  0  0
 35 34  1  0  0  0  0
 36 35  1  0  0  0  0
 37 36  1  0  0  0  0
 38 37  1  0  0  0  0
 39 38  1  0  0  0  0
 40 42  1  0  0  0  0
 41 39  1  0  0  0  0
 42 41  2  0  0  0  0
 43 44  2  0  0  0  0
 43 40  1  0  0  0  0
 45 43  2  0  0  0  0
M  END
>  <MODEL>
3

>  <REMARK>
 VINA RESULT:      -7.4      4.209      7.664
  Name = 
  16 active torsions:
  status: ('A' for Active; 'I' for Inactive)
    1  A    between atoms: C_1  and  C_44
    2  A    between atoms: C_2  and  C_31
    3  A    between atoms: C_2  and  C_39
    4  A    between atoms: C_4  and  N_8
    5  A    between atoms: C_4  and  C_21
    6  A    between atoms: C_5  and  N_25
    7  A    between atoms: C_5  and  C_34
    8  A    between atoms: N_6  and  N_11
    9  A    between atoms: C_7  and  C_27
   10  A    between atoms: C_7  and  C_34
   11  A    between atoms: N_8  and  C_26
   12  A    between atoms: C_27  and  C_39
   13  A    between atoms: C_30  and  C_42
   14  A    between atoms: C_31  and  N_37
   15  A    between atoms: C_31  and  C_42
   16  A    between atoms: C_36  and  N_37
                            x       y       z     vdW  Elec       q    Type
                         _______ _______ _______ _____ _____    ______ ____

>  <TORSDO>
F 16

$$$$
=
 OpenBabel11042421403D

 45 48  0  0  1  0  0  0  0  0999 V2000
  161.5010  207.3780  149.5080 C   0  0  1  0  0  3  0  0  0  0  0  0
  161.7790  208.6020  148.6420 C   0  0  0  0  0  2  0  0  0  0  0  0
  162.4070  212.1260  148.3690 C   0  0  0  0  0  3  0  0  0  0  0  0
  162.2960  210.9550  148.9410 C   0  0  0  0  0  0  0  0  0  0  0  0
  162.1800  209.7710  149.4790 C   0  0  0  0  0  3  0  0  0  0  0  0
  162.1680  213.4070  144.8840 C   0  0  0  0  0  3  0  0  0  0  0  0
  159.8470  212.6180  144.6200 C   0  0  0  0  0  0  0  0  0  0  0  0
  158.8930  212.9020  143.7000 F   0  0  0  0  0  0  0  0  0  0  0  0
  159.4690  212.4000  145.8810 C   0  0  0  0  0  3  0  0  0  0  0  0
  162.3500  213.3910  146.2050 C   0  0  0  0  0  3  0  0  0  0  0  0
  161.3750  212.6360  142.8160 F   0  0  0  0  0  0  0  0  0  0  0  0
  161.2680  212.4480  144.1810 C   0  0  1  0  0  3  0  0  0  0  0  0
  160.3730  212.1080  147.0120 C   0  0  0  0  0  3  0  0  0  0  0  0
  161.6560  212.4970  147.1550 C   0  0  0  0  0  0  0  0  0  0  0  0
  160.5780  207.6960  150.5960 N   0  0  0  0  0  2  0  0  0  0  0  0
  160.9020  208.8930  152.7010 C   0  0  0  0  0  3  0  0  0  0  0  0
  161.2040  206.5020  152.6770 C   0  0  0  0  0  3  0  0  0  0  0  0
  161.1950  208.9030  154.0710 C   0  0  0  0  0  0  0  0  0  0  0  0
  160.8980  207.6870  151.9940 C   0  0  0  0  0  0  0  0  0  0  0  0
  161.4880  207.6980  154.7100 C   0  0  0  0  0  3  0  0  0  0  0  0
  161.4900  206.5330  154.0070 N   0  0  0  0  0  0  0  0  0  0  0  0
  161.2060  210.1210  154.8220 N   0  0  0  0  0  2  0  0  0  0  0  0
  160.0780  210.5880  155.6190 C   0  0  2  0  0  3  0  0  0  0  0  0
  159.2750  209.4060  156.1390 C   0  0  0  0  0  1  0  0  0  0  0  0
  157.0580  212.4430  154.3460 C   0  0  0  0  0  0  0  0  0  0  0  0
  157.5760  213.1670  153.3200 C   0  0  0  0  0  0  0  0  0  0  0  0
  155.7070  212.7060  154.4570 O   0  0  0  0  0  0  0  0  0  0  0  0
  159.2100  211.4950  154.8080 C   0  0  0  0  0  0  0  0  0  0  0  0
  159.7470  212.2500  153.7340 C   0  0  0  0  0  3  0  0  0  0  0  0
  158.9240  213.1020  152.9750 C   0  0  0  0  0  3  0  0  0  0  0  0
  157.8400  211.5890  155.1200 C   0  0  0  0  0  3  0  0  0  0  0  0
  156.5750  213.9170  152.7350 O   0  0  0  0  0  0  0  0  0  0  0  0
  155.3530  213.6550  153.4400 C   0  0  0  0  0  2  0  0  0  0  0  0
  160.9800  206.2120  148.6780 C   0  0  0  0  0  2  0  0  0  0  0  0
  161.5490  204.8860  149.1750 C   0  0  0  0  0  2  0  0  0  0  0  0
  160.5420  204.1420  150.0440 C   0  0  0  0  0  2  0  0  0  0  0  0
  160.8790  202.6650  150.1270 C   0  0  0  0  0  2  0  0  0  0  0  0
  160.1060  201.8940  149.0720 C   0  0  0  0  0  2  0  0  0  0  0  0
  161.0640  201.2990  148.0490 C   0  0  0  0  0  2  0  0  0  0  0  0
  161.1910  203.6510  145.1860 N   0  0  0  0  0  2  0  0  0  0  0  0
  160.8780  201.9160  146.7450 N   0  0  0  0  0  0  0  0  0  0  0  0
  161.3840  203.0740  146.4750 C   0  0  0  0  0  3  0  0  0  0  0  0
  161.7400  204.8970  144.8560 N   0  0  0  0  0  0  0  0  0  0  0  0
  161.3280  205.5710  143.7280 O   0  0  0  0  0  0  0  0  0  0  0  0
  162.5990  205.4090  145.6020 O   0  0  0  0  0  0  0  0  0  0  0  0
  1  2  1  6  0  0  0
  1 15  1  0  0  0  0
  2  5  1  0  0  0  0
  3  4  2  0  0  0  0
  4  5  2  0  0  0  0
  6 10  2  0  0  0  0
  7  9  2  0  0  0  0
  8  7  1  0  0  0  0
  9 13  1  0  0  0  0
 10 14  1  0  0  0  0
 12 11  1  6  0  0  0
 12  7  1  0  0  0  0
 12  6  1  0  0  0  0
 13 14  2  0  0  0  0
 14  3  1  0  0  0  0
 15 19  1  0  0  0  0
 16 18  1  0  0  0  0
 17 21  2  0  0  0  0
 18 20  2  0  0  0  0
 18 22  1  0  0  0  0
 19 17  1  0  0  0  0
 19 16  2  0  0  0  0
 21 20  1  0  0  0  0
 22 23  1  0  0  0  0
 23 24  1  6  0  0  0
 25 27  1  0  0  0  0
 25 31  1  0  0  0  0
 26 25  2  0  0  0  0
 28 31  2  0  0  0  0
 28 23  1  0  0  0  0
 29 28  1  0  0  0  0
 30 26  1  0  0  0  0
 30 29  2  0  0  0  0
 32 26  1  0  0  0  0
 32 33  1  0  0  0  0
 33 27  1  0  0  0  0
 34 35  1  0  0  0  0
 34  1  1  0  0  0  0
 35 36  1  0  0  0  0
 36 37  1  0  0  0  0
 38 37  1  0  0  0  0
 39 38  1  0  0  0  0
 40 42  1  0  0  0  0
 41 39  1  0  0  0  0
 42 41  2  0  0  0  0
 43 40  1  0  0  0  0
 43 45  2  0  0  0  0
 44 43  2  0  0  0  0
M  END
>  <MODEL>
4

>  <REMARK>
 VINA RESULT:      -7.4      4.248      8.273
  Name = 
  16 active torsions:
  status: ('A' for Active; 'I' for Inactive)
    1  A    between atoms: C_1  and  C_44
    2  A    between atoms: C_2  and  C_31
    3  A    between atoms: C_2  and  C_39
    4  A    between atoms: C_4  and  N_8
    5  A    between atoms: C_4  and  C_21
    6  A    between atoms: C_5  and  N_25
    7  A    between atoms: C_5  and  C_34
    8  A    between atoms: N_6  and  N_11
    9  A    between atoms: C_7  and  C_27
   10  A    between atoms: C_7  and  C_34
   11  A    between atoms: N_8  and  C_26
   12  A    between atoms: C_27  and  C_39
   13  A    between atoms: C_30  and  C_42
   14  A    between atoms: C_31  and  N_37
   15  A    between atoms: C_31  and  C_42
   16  A    between atoms: C_36  and  N_37
                            x       y       z     vdW  Elec       q    Type
                         _______ _______ _______ _____ _____    ______ ____

>  <TORSDO>
F 16

$$$$
=
 OpenBabel11042421403D

 45 48  0  0  1  0  0  0  0  0999 V2000
  161.5400  207.4150  149.0870 C   0  0  1  0  0  3  0  0  0  0  0  0
  161.9340  208.6650  148.3060 C   0  0  0  0  0  2  0  0  0  0  0  0
  162.1480  212.2460  148.2140 C   0  0  0  0  0  3  0  0  0  0  0  0
  162.1250  211.0460  148.7330 C   0  0  0  0  0  0  0  0  0  0  0  0
  162.1030  209.8350  149.2180 C   0  0  0  0  0  3  0  0  0  0  0  0
  162.1480  213.4280  144.6860 C   0  0  0  0  0  3  0  0  0  0  0  0
  159.8540  212.6200  144.2840 C   0  0  0  0  0  0  0  0  0  0  0  0
  158.9660  212.8730  143.2910 F   0  0  0  0  0  0  0  0  0  0  0  0
  159.3890  212.4350  145.5200 C   0  0  0  0  0  3  0  0  0  0  0  0
  162.2380  213.4510  146.0170 C   0  0  0  0  0  3  0  0  0  0  0  0
  161.5050  212.5950  142.5910 F   0  0  0  0  0  0  0  0  0  0  0  0
  161.3030  212.4460  143.9490 C   0  0  1  0  0  3  0  0  0  0  0  0
  160.2140  212.1800  146.7200 C   0  0  0  0  0  3  0  0  0  0  0  0
  161.4830  212.5790  146.9400 C   0  0  0  0  0  0  0  0  0  0  0  0
  160.7070  207.7500  150.2410 N   0  0  0  0  0  2  0  0  0  0  0  0
  161.0750  208.5190  152.5300 C   0  0  0  0  0  3  0  0  0  0  0  0
  161.2800  206.1650  152.0590 C   0  0  0  0  0  3  0  0  0  0  0  0
  161.3650  208.2610  153.8760 C   0  0  0  0  0  0  0  0  0  0  0  0
  161.0240  207.4680  151.6110 C   0  0  0  0  0  0  0  0  0  0  0  0
  161.6070  206.9470  154.2780 C   0  0  0  0  0  3  0  0  0  0  0  0
  161.5640  205.9350  153.3690 N   0  0  0  0  0  0  0  0  0  0  0  0
  161.4250  209.3160  154.8420 N   0  0  0  0  0  2  0  0  0  0  0  0
  160.3200  209.6600  155.7290 C   0  0  2  0  0  3  0  0  0  0  0  0
  159.4830  208.4280  156.0310 C   0  0  0  0  0  1  0  0  0  0  0  0
  157.3480  211.8000  154.8550 C   0  0  0  0  0  0  0  0  0  0  0  0
  157.8860  212.7020  153.9940 C   0  0  0  0  0  0  0  0  0  0  0  0
  156.0030  212.0660  155.0170 O   0  0  0  0  0  0  0  0  0  0  0  0
  159.4760  210.7300  155.1160 C   0  0  0  0  0  0  0  0  0  0  0  0
  160.0340  211.6720  154.2150 C   0  0  0  0  0  3  0  0  0  0  0  0
  159.2340  212.6770  153.6420 C   0  0  0  0  0  3  0  0  0  0  0  0
  158.1070  210.7910  155.4410 C   0  0  0  0  0  3  0  0  0  0  0  0
  156.9040  213.5770  153.5710 O   0  0  0  0  0  0  0  0  0  0  0  0
  155.6740  213.2070  154.2100 C   0  0  0  0  0  2  0  0  0  0  0  0
  160.8450  206.3940  148.1950 C   0  0  0  0  0  2  0  0  0  0  0  0
  161.7180  206.0270  146.9980 C   0  0  0  0  0  2  0  0  0  0  0  0
  160.9320  206.1050  145.6950 C   0  0  0  0  0  2  0  0  0  0  0  0
  160.8230  204.7400  145.0420 C   0  0  0  0  0  2  0  0  0  0  0  0
  161.6390  203.7220  145.8180 C   0  0  0  0  0  2  0  0  0  0  0  0
  160.9900  202.3490  145.7280 C   0  0  0  0  0  2  0  0  0  0  0  0
  160.8430  201.8220  149.3950 N   0  0  0  0  0  2  0  0  0  0  0  0
  160.8890  201.7350  147.0440 N   0  0  0  0  0  0  0  0  0  0  0  0
  160.9510  202.4490  148.1190 C   0  0  0  0  0  3  0  0  0  0  0  0
  160.8910  202.5690  150.5800 N   0  0  0  0  0  0  0  0  0  0  0  0
  161.7540  202.2230  151.5950 O   0  0  0  0  0  0  0  0  0  0  0  0
  160.1540  203.5670  150.7090 O   0  0  0  0  0  0  0  0  0  0  0  0
  1 34  1  6  0  0  0
  1 15  1  0  0  0  0
  2  1  1  0  0  0  0
  2  5  1  0  0  0  0
  3  4  2  0  0  0  0
  4  5  2  0  0  0  0
  6 10  2  0  0  0  0
  7  9  2  0  0  0  0
  8  7  1  0  0  0  0
  9 13  1  0  0  0  0
 10 14  1  0  0  0  0
 12 11  1  6  0  0  0
 12  7  1  0  0  0  0
 12  6  1  0  0  0  0
 13 14  2  0  0  0  0
 14  3  1  0  0  0  0
 15 19  1  0  0  0  0
 16 18  1  0  0  0  0
 17 21  2  0  0  0  0
 18 20  2  0  0  0  0
 18 22  1  0  0  0  0
 19 17  1  0  0  0  0
 19 16  2  0  0  0  0
 21 20  1  0  0  0  0
 22 23  1  0  0  0  0
 23 24  1  6  0  0  0
 25 27  1  0  0  0  0
 25 31  1  0  0  0  0
 26 25  2  0  0  0  0
 28 31  2  0  0  0  0
 28 23  1  0  0  0  0
 29 28  1  0  0  0  0
 30 26  1  0  0  0  0
 30 29  2  0  0  0  0
 32 26  1  0  0  0  0
 32 33  1  0  0  0  0
 33 27  1  0  0  0  0
 35 34  1  0  0  0  0
 36 35  1  0  0  0  0
 37 36  1  0  0  0  0
 37 38  1  0  0  0  0
 39 38  1  0  0  0  0
 39 41  1  0  0  0  0
 40 43  1  0  0  0  0
 41 42  2  0  0  0  0
 42 40  1  0  0  0  0
 43 45  2  0  0  0  0
 43 44  2  0  0  0  0
M  END
>  <MODEL>
5

>  <REMARK>
 VINA RESULT:      -7.3      4.462      8.546
  Name = 
  16 active torsions:
  status: ('A' for Active; 'I' for Inactive)
    1  A    between atoms: C_1  and  C_44
    2  A    between atoms: C_2  and  C_31
    3  A    between atoms: C_2  and  C_39
    4  A    between atoms: C_4  and  N_8
    5  A    between atoms: C_4  and  C_21
    6  A    between atoms: C_5  and  N_25
    7  A    between atoms: C_5  and  C_34
    8  A    between atoms: N_6  and  N_11
    9  A    between atoms: C_7  and  C_27
   10  A    between atoms: C_7  and  C_34
   11  A    between atoms: N_8  and  C_26
   12  A    between atoms: C_27  and  C_39
   13  A    between atoms: C_30  and  C_42
   14  A    between atoms: C_31  and  N_37
   15  A    between atoms: C_31  and  C_42
   16  A    between atoms: C_36  and  N_37
                            x       y       z     vdW  Elec       q    Type
                         _______ _______ _______ _____ _____    ______ ____

>  <TORSDO>
F 16

$$$$
=
 OpenBabel11042421403D

 45 48  0  0  1  0  0  0  0  0999 V2000
  161.7960  207.4050  151.6970 C   0  0  1  0  0  3  0  0  0  0  0  0
  162.6220  206.1610  152.0110 C   0  0  0  0  0  2  0  0  0  0  0  0
  160.6170  204.0480  149.9150 C   0  0  0  0  0  3  0  0  0  0  0  0
  161.1820  204.4840  151.0110 C   0  0  0  0  0  0  0  0  0  0  0  0
  161.7560  204.9480  152.0870 C   0  0  0  0  0  3  0  0  0  0  0  0
  161.2870  203.0940  146.3820 C   0  0  0  0  0  3  0  0  0  0  0  0
  161.9840  205.3780  145.7660 C   0  0  0  0  0  0  0  0  0  0  0  0
  162.6400  205.8640  144.6840 F   0  0  0  0  0  0  0  0  0  0  0  0
  162.2090  205.9430  146.9530 C   0  0  0  0  0  3  0  0  0  0  0  0
  161.3540  203.1000  147.7140 C   0  0  0  0  0  3  0  0  0  0  0  0
  160.8470  203.9640  144.2500 F   0  0  0  0  0  0  0  0  0  0  0  0
  160.9520  204.3080  145.5830 C   0  0  1  0  0  3  0  0  0  0  0  0
  161.6050  205.5230  148.2350 C   0  0  0  0  0  3  0  0  0  0  0  0
  161.1820  204.2890  148.5740 C   0  0  0  0  0  0  0  0  0  0  0  0
  161.8970  208.3940  152.7680 N   0  0  0  0  0  2  0  0  0  0  0  0
  160.7270  209.5730  154.5590 C   0  0  0  0  0  3  0  0  0  0  0  0
  160.8680  207.1700  154.6630 C   0  0  0  0  0  3  0  0  0  0  0  0
  159.9950  209.5690  155.7540 C   0  0  0  0  0  0  0  0  0  0  0  0
  161.1640  208.3690  154.0010 C   0  0  0  0  0  0  0  0  0  0  0  0
  159.7180  208.3500  156.3740 C   0  0  0  0  0  3  0  0  0  0  0  0
  160.1590  207.1860  155.8240 N   0  0  0  0  0  0  0  0  0  0  0  0
  159.5340  210.7850  156.3500 N   0  0  0  0  0  2  0  0  0  0  0  0
  159.9150  212.1110  155.8780 C   0  0  2  0  0  3  0  0  0  0  0  0
  160.0900  213.0600  157.0530 C   0  0  0  0  0  1  0  0  0  0  0  0
  158.2610  213.3060  152.7130 C   0  0  0  0  0  0  0  0  0  0  0  0
  157.0090  213.6130  153.1410 C   0  0  0  0  0  0  0  0  0  0  0  0
  158.3580  213.5580  151.3600 O   0  0  0  0  0  0  0  0  0  0  0  0
  158.8900  212.6370  154.9270 C   0  0  0  0  0  0  0  0  0  0  0  0
  157.5830  212.9620  155.3720 C   0  0  0  0  0  3  0  0  0  0  0  0
  156.6220  213.4570  154.4710 C   0  0  0  0  0  3  0  0  0  0  0  0
  159.2390  212.8140  153.5740 C   0  0  0  0  0  3  0  0  0  0  0  0
  156.2600  214.0770  152.0780 O   0  0  0  0  0  0  0  0  0  0  0  0
  157.0890  214.0540  150.9070 C   0  0  0  0  0  2  0  0  0  0  0  0
  162.1900  208.0140  150.3570 C   0  0  0  0  0  2  0  0  0  0  0  0
  161.4650  209.3360  150.1200 C   0  0  0  0  0  2  0  0  0  0  0  0
  162.3950  210.3760  149.5090 C   0  0  0  0  0  2  0  0  0  0  0  0
  161.7190  211.1070  148.3640 C   0  0  0  0  0  2  0  0  0  0  0  0
  162.5330  212.3260  147.9700 C   0  0  0  0  0  2  0  0  0  0  0  0
  161.6410  213.5590  147.9170 C   0  0  0  0  0  2  0  0  0  0  0  0
  160.9870  213.2760  144.2790 N   0  0  0  0  0  2  0  0  0  0  0  0
  161.0920  213.7450  146.5820 N   0  0  0  0  0  0  0  0  0  0  0  0
  161.5490  213.0780  145.5740 C   0  0  0  0  0  3  0  0  0  0  0  0
  161.4480  212.5580  143.1670 N   0  0  0  0  0  0  0  0  0  0  0  0
  160.5740  211.8410  142.3810 O   0  0  0  0  0  0  0  0  0  0  0  0
  162.6610  212.5830  142.8770 O   0  0  0  0  0  0  0  0  0  0  0  0
  1 34  1  6  0  0  0
  1  2  1  0  0  0  0
  1 15  1  0  0  0  0
  2  5  1  0  0  0  0
  3  4  2  0  0  0  0
  4  5  2  0  0  0  0
  6 10  2  0  0  0  0
  7  9  2  0  0  0  0
  8  7  1  0  0  0  0
  9 13  1  0  0  0  0
 10 14  1  0  0  0  0
 12 11  1  6  0  0  0
 12  7  1  0  0  0  0
 12  6  1  0  0  0  0
 13 14  2  0  0  0  0
 14  3  1  0  0  0  0
 15 19  1  0  0  0  0
 16 18  1  0  0  0  0
 17 21  2  0  0  0  0
 18 22  1  0  0  0  0
 18 20  2  0  0  0  0
 19 16  2  0  0  0  0
 19 17  1  0  0  0  0
 21 20  1  0  0  0  0
 23 22  1  0  0  0  0
 23 24  1  1  0  0  0
 25 26  2  0  0  0  0
 25 31  1  0  0  0  0
 26 30  1  0  0  0  0
 27 25  1  0  0  0  0
 28 29  1  0  0  0  0
 28 23  1  0  0  0  0
 30 29  2  0  0  0  0
 31 28  2  0  0  0  0
 32 26  1  0  0  0  0
 33 27  1  0  0  0  0
 33 32  1  0  0  0  0
 35 34  1  0  0  0  0
 36 35  1  0  0  0  0
 37 36  1  0  0  0  0
 38 37  1  0  0  0  0
 39 38  1  0  0  0  0
 40 42  1  0  0  0  0
 41 39  1  0  0  0  0
 42 41  2  0  0  0  0
 43 40  1  0  0  0  0
 44 43  2  0  0  0  0
 45 43  2  0  0  0  0
M  END
>  <MODEL>
6

>  <REMARK>
 VINA RESULT:      -7.2      4.014      7.531
  Name = 
  16 active torsions:
  status: ('A' for Active; 'I' for Inactive)
    1  A    between atoms: C_1  and  C_44
    2  A    between atoms: C_2  and  C_31
    3  A    between atoms: C_2  and  C_39
    4  A    between atoms: C_4  and  N_8
    5  A    between atoms: C_4  and  C_21
    6  A    between atoms: C_5  and  N_25
    7  A    between atoms: C_5  and  C_34
    8  A    between atoms: N_6  and  N_11
    9  A    between atoms: C_7  and  C_27
   10  A    between atoms: C_7  and  C_34
   11  A    between atoms: N_8  and  C_26
   12  A    between atoms: C_27  and  C_39
   13  A    between atoms: C_30  and  C_42
   14  A    between atoms: C_31  and  N_37
   15  A    between atoms: C_31  and  C_42
   16  A    between atoms: C_36  and  N_37
                            x       y       z     vdW  Elec       q    Type
                         _______ _______ _______ _____ _____    ______ ____

>  <TORSDO>
F 16

$$$$
=
 OpenBabel11042421403D

 45 48  0  0  1  0  0  0  0  0999 V2000
  161.7840  207.4490  151.1910 C   0  0  1  0  0  3  0  0  0  0  0  0
  162.6460  206.6540  152.1680 C   0  0  0  0  0  2  0  0  0  0  0  0
  160.4440  203.8360  151.8630 C   0  0  0  0  0  3  0  0  0  0  0  0
  161.1230  204.7860  152.4520 C   0  0  0  0  0  0  0  0  0  0  0  0
  161.8090  205.7480  153.0080 C   0  0  0  0  0  3  0  0  0  0  0  0
  161.2360  200.9520  149.6500 C   0  0  0  0  0  3  0  0  0  0  0  0
  161.1670  202.3360  147.6110 C   0  0  0  0  0  0  0  0  0  0  0  0
  161.5970  202.1080  146.3460 F   0  0  0  0  0  0  0  0  0  0  0  0
  161.2530  203.5750  148.0970 C   0  0  0  0  0  3  0  0  0  0  0  0
  161.3510  201.8500  150.6290 C   0  0  0  0  0  3  0  0  0  0  0  0
  160.4630  200.0790  147.6160 F   0  0  0  0  0  0  0  0  0  0  0  0
  160.5110  201.2300  148.3780 C   0  0  1  0  0  3  0  0  0  0  0  0
  160.8600  203.9940  149.4590 C   0  0  0  0  0  3  0  0  0  0  0  0
  160.8530  203.2410  150.5770 C   0  0  0  0  0  0  0  0  0  0  0  0
  161.8110  208.8770  151.5010 N   0  0  0  0  0  2  0  0  0  0  0  0
  160.0960  210.4890  152.1530 C   0  0  0  0  0  3  0  0  0  0  0  0
  161.1990  209.2210  153.8790 C   0  0  0  0  0  3  0  0  0  0  0  0
  159.3190  211.1220  153.1320 C   0  0  0  0  0  0  0  0  0  0  0  0
  161.0390  209.5260  152.5200 C   0  0  0  0  0  0  0  0  0  0  0  0
  159.5090  210.7820  154.4710 C   0  0  0  0  0  3  0  0  0  0  0  0
  160.4380  209.8490  154.8160 N   0  0  0  0  0  0  0  0  0  0  0  0
  158.3450  212.1120  152.7860 N   0  0  0  0  0  2  0  0  0  0  0  0
  158.6850  213.4650  152.3610 C   0  0  2  0  0  3  0  0  0  0  0  0
  157.6450  214.4530  152.8650 C   0  0  0  0  0  1  0  0  0  0  0  0
  160.1250  213.7370  148.8920 C   0  0  0  0  0  0  0  0  0  0  0  0
  159.0150  213.6520  148.1130 C   0  0  0  0  0  0  0  0  0  0  0  0
  161.2390  213.8770  148.0900 O   0  0  0  0  0  0  0  0  0  0  0  0
  158.7900  213.5290  150.8720 C   0  0  0  0  0  0  0  0  0  0  0  0
  157.6340  213.4440  150.0550 C   0  0  0  0  0  3  0  0  0  0  0  0
  157.7400  213.5040  148.6540 C   0  0  0  0  0  3  0  0  0  0  0  0
  160.0600  213.6820  150.2820 C   0  0  0  0  0  3  0  0  0  0  0  0
  159.3800  213.7380  146.7830 O   0  0  0  0  0  0  0  0  0  0  0  0
  160.8060  213.8800  146.7210 C   0  0  0  0  0  2  0  0  0  0  0  0
  162.1990  207.1980  149.7470 C   0  0  0  0  0  2  0  0  0  0  0  0
  161.1680  207.7640  148.7740 C   0  0  0  0  0  2  0  0  0  0  0  0
  161.1810  207.0050  147.4520 C   0  0  0  0  0  2  0  0  0  0  0  0
  162.5790  206.5180  147.1180 C   0  0  0  0  0  2  0  0  0  0  0  0
  162.5510  205.6850  145.8490 C   0  0  0  0  0  2  0  0  0  0  0  0
  161.1260  205.5730  145.3250 C   0  0  0  0  0  2  0  0  0  0  0  0
  161.5830  205.8270  141.6540 N   0  0  0  0  0  2  0  0  0  0  0  0
  161.1200  205.2880  143.8980 N   0  0  0  0  0  0  0  0  0  0  0  0
  161.5970  206.1350  143.0460 C   0  0  0  0  0  3  0  0  0  0  0  0
  162.1070  206.7160  140.7060 N   0  0  0  0  0  0  0  0  0  0  0  0
  161.5830  207.9820  140.5630 O   0  0  0  0  0  0  0  0  0  0  0  0
  163.0690  206.3630  139.9950 O   0  0  0  0  0  0  0  0  0  0  0  0
  1 34  1  6  0  0  0
  1 15  1  0  0  0  0
  1  2  1  0  0  0  0
  2  5  1  0  0  0  0
  3  4  2  0  0  0  0
  4  5  2  0  0  0  0
  6 10  2  0  0  0  0
  7  9  2  0  0  0  0
  7 12  1  0  0  0  0
  8  7  1  0  0  0  0
  9 13  1  0  0  0  0
 12 11  1  6  0  0  0
 12  6  1  0  0  0  0
 13 14  2  0  0  0  0
 14 10  1  0  0  0  0
 14  3  1  0  0  0  0
 15 19  1  0  0  0  0
 16 19  2  0  0  0  0
 16 18  1  0  0  0  0
 17 21  2  0  0  0  0
 18 20  2  0  0  0  0
 19 17  1  0  0  0  0
 20 21  1  0  0  0  0
 22 18  1  0  0  0  0
 23 22  1  0  0  0  0
 23 24  1  6  0  0  0
 25 31  1  0  0  0  0
 26 30  1  0  0  0  0
 26 25  2  0  0  0  0
 27 25  1  0  0  0  0
 28 23  1  0  0  0  0
 29 28  1  0  0  0  0
 30 29  2  0  0  0  0
 31 28  2  0  0  0  0
 32 26  1  0  0  0  0
 33 32  1  0  0  0  0
 33 27  1  0  0  0  0
 35 34  1  0  0  0  0
 36 35  1  0  0  0  0
 37 36  1  0  0  0  0
 38 37  1  0  0  0  0
 39 38  1  0  0  0  0
 40 42  1  0  0  0  0
 41 39  1  0  0  0  0
 42 41  2  0  0  0  0
 43 40  1  0  0  0  0
 44 43  2  0  0  0  0
 45 43  2  0  0  0  0
M  END
>  <MODEL>
7

>  <REMARK>
 VINA RESULT:      -7.0      2.898      4.337
  Name = 
  16 active torsions:
  status: ('A' for Active; 'I' for Inactive)
    1  A    between atoms: C_1  and  C_44
    2  A    between atoms: C_2  and  C_31
    3  A    between atoms: C_2  and  C_39
    4  A    between atoms: C_4  and  N_8
    5  A    between atoms: C_4  and  C_21
    6  A    between atoms: C_5  and  N_25
    7  A    between atoms: C_5  and  C_34
    8  A    between atoms: N_6  and  N_11
    9  A    between atoms: C_7  and  C_27
   10  A    between atoms: C_7  and  C_34
   11  A    between atoms: N_8  and  C_26
   12  A    between atoms: C_27  and  C_39
   13  A    between atoms: C_30  and  C_42
   14  A    between atoms: C_31  and  N_37
   15  A    between atoms: C_31  and  C_42
   16  A    between atoms: C_36  and  N_37
                            x       y       z     vdW  Elec       q    Type
                         _______ _______ _______ _____ _____    ______ ____

>  <TORSDO>
F 16

$$$$
=
 OpenBabel11042421403D

 45 48  0  0  1  0  0  0  0  0999 V2000
  160.8430  212.4360  147.6000 C   0  0  1  0  0  3  0  0  0  0  0  0
  160.2860  212.1130  146.2170 C   0  0  0  0  0  2  0  0  0  0  0  0
  159.0320  213.8300  143.3260 C   0  0  0  0  0  3  0  0  0  0  0  0
  159.1150  213.4680  144.5800 C   0  0  0  0  0  0  0  0  0  0  0  0
  159.2280  213.0900  145.8240 C   0  0  0  0  0  3  0  0  0  0  0  0
  159.0800  212.7770  139.7580 C   0  0  0  0  0  3  0  0  0  0  0  0
  161.0960  211.3900  140.0650 C   0  0  0  0  0  0  0  0  0  0  0  0
  161.6630  210.4330  139.2900 F   0  0  0  0  0  0  0  0  0  0  0  0
  161.1550  211.2530  141.3900 C   0  0  0  0  0  3  0  0  0  0  0  0
  158.6440  212.9670  141.0040 C   0  0  0  0  0  3  0  0  0  0  0  0
  160.6710  212.5530  138.0500 F   0  0  0  0  0  0  0  0  0  0  0  0
  160.5240  212.6160  139.4220 C   0  0  1  0  0  3  0  0  0  0  0  0
  160.5670  212.1810  142.3790 C   0  0  0  0  0  3  0  0  0  0  0  0
  159.4910  212.9760  142.2150 C   0  0  0  0  0  0  0  0  0  0  0  0
  161.9300  211.5270  147.9600 N   0  0  0  0  0  2  0  0  0  0  0  0
  162.0850  209.2700  148.8810 C   0  0  0  0  0  3  0  0  0  0  0  0
  161.8170  211.1190  150.4030 C   0  0  0  0  0  3  0  0  0  0  0  0
  162.1160  208.3930  149.9730 C   0  0  0  0  0  0  0  0  0  0  0  0
  161.9410  210.6440  149.0900 C   0  0  0  0  0  0  0  0  0  0  0  0
  161.9950  208.9120  151.2630 C   0  0  0  0  0  3  0  0  0  0  0  0
  161.8460  210.2510  151.4500 N   0  0  0  0  0  0  0  0  0  0  0  0
  162.2610  206.9810  149.7910 N   0  0  0  0  0  2  0  0  0  0  0  0
  161.1550  206.0370  149.8890 C   0  0  2  0  0  3  0  0  0  0  0  0
  161.2300  205.2690  151.1990 C   0  0  0  0  0  1  0  0  0  0  0  0
  160.9530  202.8740  147.8550 C   0  0  0  0  0  0  0  0  0  0  0  0
  161.2010  203.3240  146.5970 C   0  0  0  0  0  0  0  0  0  0  0  0
  160.7440  201.5100  147.8210 O   0  0  0  0  0  0  0  0  0  0  0  0
  161.1730  205.0940  148.7290 C   0  0  0  0  0  0  0  0  0  0  0  0
  161.4350  205.5610  147.4160 C   0  0  0  0  0  3  0  0  0  0  0  0
  161.4490  204.6690  146.3280 C   0  0  0  0  0  3  0  0  0  0  0  0
  160.9310  203.7260  148.9560 C   0  0  0  0  0  3  0  0  0  0  0  0
  161.1630  202.2640  145.7130 O   0  0  0  0  0  0  0  0  0  0  0  0
  160.8670  201.0740  146.4580 C   0  0  0  0  0  2  0  0  0  0  0  0
  161.2960  213.8880  147.6950 C   0  0  0  0  0  2  0  0  0  0  0  0
  161.0460  214.4510  149.0920 C   0  0  0  0  0  2  0  0  0  0  0  0
  159.6150  214.1900  149.5450 C   0  0  0  0  0  2  0  0  0  0  0  0
  159.5090  214.2190  151.0580 C   0  0  0  0  0  2  0  0  0  0  0  0
  158.6490  213.0650  151.5430 C   0  0  0  0  0  2  0  0  0  0  0  0
  158.2720  213.2690  153.0040 C   0  0  0  0  0  2  0  0  0  0  0  0
  159.7100  210.3080  154.7100 N   0  0  0  0  0  2  0  0  0  0  0  0
  158.4240  212.0330  153.7560 N   0  0  0  0  0  0  0  0  0  0  0  0
  159.5910  211.5170  153.9640 C   0  0  0  0  0  3  0  0  0  0  0  0
  160.9610  209.7310  154.9670 N   0  0  0  0  0  0  0  0  0  0  0  0
  161.1430  208.3700  154.8650 O   0  0  0  0  0  0  0  0  0  0  0  0
  161.9250  210.4610  155.2750 O   0  0  0  0  0  0  0  0  0  0  0  0
  1  2  1  6  0  0  0
  1 34  1  0  0  0  0
  1 15  1  0  0  0  0
  3  4  2  0  0  0  0
  4  5  2  0  0  0  0
  5  2  1  0  0  0  0
  6 10  2  0  0  0  0
  7  9  2  0  0  0  0
  8  7  1  0  0  0  0
  9 13  1  0  0  0  0
 10 14  1  0  0  0  0
 12 11  1  6  0  0  0
 12  6  1  0  0  0  0
 12  7  1  0  0  0  0
 14 13  2  0  0  0  0
 14  3  1  0  0  0  0
 15 19  1  0  0  0  0
 16 19  2  0  0  0  0
 16 18  1  0  0  0  0
 17 21  2  0  0  0  0
 18 20  2  0  0  0  0
 19 17  1  0  0  0  0
 20 21  1  0  0  0  0
 22 23  1  0  0  0  0
 22 18  1  0  0  0  0
 23 24  1  1  0  0  0
 25 31  1  0  0  0  0
 26 25  2  0  0  0  0
 27 25  1  0  0  0  0
 28 31  2  0  0  0  0
 28 23  1  0  0  0  0
 29 28  1  0  0  0  0
 30 26  1  0  0  0  0
 30 29  2  0  0  0  0
 32 33  1  0  0  0  0
 32 26  1  0  0  0  0
 33 27  1  0  0  0  0
 34 35  1  0  0  0  0
 35 36  1  0  0  0  0
 36 37  1  0  0  0  0
 37 38  1  0  0  0  0
 38 39  1  0  0  0  0
 39 41  1  0  0  0  0
 40 43  1  0  0  0  0
 41 42  2  0  0  0  0
 42 40  1  0  0  0  0
 43 45  2  0  0  0  0
 44 43  2  0  0  0  0
M  END
>  <MODEL>
8

>  <REMARK>
 VINA RESULT:      -6.9      4.196     10.255
  Name = 
  16 active torsions:
  status: ('A' for Active; 'I' for Inactive)
    1  A    between atoms: C_1  and  C_44
    2  A    between atoms: C_2  and  C_31
    3  A    between atoms: C_2  and  C_39
    4  A    between atoms: C_4  and  N_8
    5  A    between atoms: C_4  and  C_21
    6  A    between atoms: C_5  and  N_25
    7  A    between atoms: C_5  and  C_34
    8  A    between atoms: N_6  and  N_11
    9  A    between atoms: C_7  and  C_27
   10  A    between atoms: C_7  and  C_34
   11  A    between atoms: N_8  and  C_26
   12  A    between atoms: C_27  and  C_39
   13  A    between atoms: C_30  and  C_42
   14  A    between atoms: C_31  and  N_37
   15  A    between atoms: C_31  and  C_42
   16  A    between atoms: C_36  and  N_37
                            x       y       z     vdW  Elec       q    Type
                         _______ _______ _______ _____ _____    ______ ____

>  <TORSDO>
F 16

$$$$
=
 OpenBabel11042421403D

 45 48  0  0  1  0  0  0  0  0999 V2000
  161.9320  208.6760  149.3790 C   0  0  1  0  0  3  0  0  0  0  0  0
  162.3190  208.3270  150.8130 C   0  0  0  0  0  2  0  0  0  0  0  0
  161.0070  207.1020  153.9220 C   0  0  0  0  0  3  0  0  0  0  0  0
  161.2190  207.1550  152.6320 C   0  0  0  0  0  0  0  0  0  0  0  0
  161.4550  207.2350  151.3510 C   0  0  0  0  0  3  0  0  0  0  0  0
  162.2770  208.9930  156.8630 C   0  0  0  0  0  3  0  0  0  0  0  0
  161.3690  211.1320  156.0370 C   0  0  0  0  0  0  0  0  0  0  0  0
  161.1720  212.3270  156.6450 F   0  0  0  0  0  0  0  0  0  0  0  0
  160.4950  210.7380  155.1100 C   0  0  0  0  0  3  0  0  0  0  0  0
  161.6160  208.0820  156.1480 C   0  0  0  0  0  3  0  0  0  0  0  0
  163.3910  211.0180  157.2580 F   0  0  0  0  0  0  0  0  0  0  0  0
  162.6090  210.3480  156.3370 C   0  0  1  0  0  3  0  0  0  0  0  0
  160.5400  209.4590  154.3720 C   0  0  0  0  0  3  0  0  0  0  0  0
  161.0680  208.2910  154.7920 C   0  0  0  0  0  0  0  0  0  0  0  0
  162.5910  209.9030  148.9350 N   0  0  0  0  0  2  0  0  0  0  0  0
  162.0360  211.7890  147.4850 C   0  0  0  0  0  3  0  0  0  0  0  0
  161.2340  211.8090  149.7570 C   0  0  0  0  0  3  0  0  0  0  0  0
  161.4030  213.0190  147.2650 C   0  0  0  0  0  0  0  0  0  0  0  0
  161.9500  211.1700  148.7350 C   0  0  0  0  0  0  0  0  0  0  0  0
  160.6960  213.6140  148.3100 C   0  0  0  0  0  3  0  0  0  0  0  0
  160.6290  213.0050  149.5250 N   0  0  0  0  0  0  0  0  0  0  0  0
  161.4720  213.6770  145.9950 N   0  0  0  0  0  2  0  0  0  0  0  0
  162.3900  213.2840  144.9330 C   0  0  2  0  0  3  0  0  0  0  0  0
  163.2960  214.4480  144.5620 C   0  0  0  0  0  1  0  0  0  0  0  0
  161.5930  211.8110  141.5600 C   0  0  0  0  0  0  0  0  0  0  0  0
  160.2410  211.9310  141.5060 C   0  0  0  0  0  0  0  0  0  0  0  0
  162.0480  211.2230  140.3970 O   0  0  0  0  0  0  0  0  0  0  0  0
  161.6280  212.8130  143.7370 C   0  0  0  0  0  0  0  0  0  0  0  0
  160.2170  212.9390  143.6760 C   0  0  0  0  0  3  0  0  0  0  0  0
  159.5050  212.4910  142.5480 C   0  0  0  0  0  3  0  0  0  0  0  0
  162.3320  212.2420  142.6590 C   0  0  0  0  0  3  0  0  0  0  0  0
  159.7820  211.4260  140.3050 O   0  0  0  0  0  0  0  0  0  0  0  0
  160.9130  210.9540  139.5600 C   0  0  0  0  0  2  0  0  0  0  0  0
  162.2280  207.5250  148.4260 C   0  0  0  0  0  2  0  0  0  0  0  0
  160.9430  206.8160  148.0050 C   0  0  0  0  0  2  0  0  0  0  0  0
  160.9110  206.5770  146.5000 C   0  0  0  0  0  2  0  0  0  0  0  0
  162.1540  205.8400  146.0390 C   0  0  0  0  0  2  0  0  0  0  0  0
  161.8270  204.9580  144.8480 C   0  0  0  0  0  2  0  0  0  0  0  0
  161.3570  203.5900  145.3220 C   0  0  0  0  0  2  0  0  0  0  0  0
  161.2200  202.4040  148.8320 N   0  0  0  0  0  2  0  0  0  0  0  0
  161.6090  203.4190  146.7440 N   0  0  0  0  0  0  0  0  0  0  0  0
  160.9470  202.5550  147.4410 C   0  0  0  0  0  3  0  0  0  0  0  0
  160.5310  201.4670  149.6120 N   0  0  0  0  0  0  0  0  0  0  0  0
  161.2140  200.5970  150.4340 O   0  0  0  0  0  0  0  0  0  0  0  0
  159.2850  201.4300  149.5750 O   0  0  0  0  0  0  0  0  0  0  0  0
  1 34  1  6  0  0  0
  1  2  1  0  0  0  0
  2  5  1  0  0  0  0
  3 14  1  0  0  0  0
  4  3  2  0  0  0  0
  5  4  2  0  0  0  0
  7 12  1  0  0  0  0
  7  8  1  0  0  0  0
  9  7  2  0  0  0  0
 10  6  2  0  0  0  0
 12  6  1  0  0  0  0
 12 11  1  1  0  0  0
 13 14  2  0  0  0  0
 13  9  1  0  0  0  0
 14 10  1  0  0  0  0
 15  1  1  0  0  0  0
 16 19  1  0  0  0  0
 18 16  2  0  0  0  0
 18 20  1  0  0  0  0
 19 15  1  0  0  0  0
 19 17  2  0  0  0  0
 20 21  2  0  0  0  0
 21 17  1  0  0  0  0
 22 18  1  0  0  0  0
 23 24  1  6  0  0  0
 23 22  1  0  0  0  0
 25 31  1  0  0  0  0
 26 25  2  0  0  0  0
 26 30  1  0  0  0  0
 27 25  1  0  0  0  0
 28 23  1  0  0  0  0
 29 28  1  0  0  0  0
 30 29  2  0  0  0  0
 31 28  2  0  0  0  0
 32 26  1  0  0  0  0
 33 32  1  0  0  0  0
 33 27  1  0  0  0  0
 35 34  1  0  0  0  0
 36 35  1  0  0  0  0
 37 36  1  0  0  0  0
 38 39  1  0  0  0  0
 38 37  1  0  0  0  0
 39 41  1  0  0  0  0
 40 43  1  0  0  0  0
 41 42  2  0  0  0  0
 42 40  1  0  0  0  0
 43 44  2  0  0  0  0
 45 43  2  0  0  0  0
M  END
>  <MODEL>
9

>  <REMARK>
 VINA RESULT:      -6.8      3.450      4.943
  Name = 
  16 active torsions:
  status: ('A' for Active; 'I' for Inactive)
    1  A    between atoms: C_1  and  C_44
    2  A    between atoms: C_2  and  C_31
    3  A    between atoms: C_2  and  C_39
    4  A    between atoms: C_4  and  N_8
    5  A    between atoms: C_4  and  C_21
    6  A    between atoms: C_5  and  N_25
    7  A    between atoms: C_5  and  C_34
    8  A    between atoms: N_6  and  N_11
    9  A    between atoms: C_7  and  C_27
   10  A    between atoms: C_7  and  C_34
   11  A    between atoms: N_8  and  C_26
   12  A    between atoms: C_27  and  C_39
   13  A    between atoms: C_30  and  C_42
   14  A    between atoms: C_31  and  N_37
   15  A    between atoms: C_31  and  C_42
   16  A    between atoms: C_36  and  N_37
                            x       y       z     vdW  Elec       q    Type
                         _______ _______ _______ _____ _____    ______ ____

>  <TORSDO>
F 16

$$$$
