=
 OpenBabel11042422433D

 66 75  0  0  1  0  0  0  0  0999 V2000
  161.3280  210.9250  150.9120 C   0  0  0  0  0  0  0  0  0  0  0  0
  159.6980  212.5830  151.6180 C   0  0  0  0  0  0  0  0  0  0  0  0
  157.6500  213.3290  153.4140 C   0  0  0  0  0  0  0  0  0  0  0  0
  160.7240  212.1950  150.7360 C   0  0  0  0  0  0  0  0  0  0  0  0
  158.0340  214.1840  152.3670 C   0  0  0  0  0  3  0  0  0  0  0  0
  159.3260  211.7220  152.6750 C   0  0  0  0  0  0  0  0  0  0  0  0
  159.9450  210.5230  152.8280 N   0  0  0  0  0  0  0  0  0  0  0  0
  159.0470  213.8160  151.4780 C   0  0  0  0  0  3  0  0  0  0  0  0
  158.3150  212.1000  153.5620 C   0  0  0  0  0  3  0  0  0  0  0  0
  160.9170  210.1120  151.9750 C   0  0  0  0  0  3  0  0  0  0  0  0
  154.4880  214.4530  156.1040 C   0  0  0  0  0  3  0  0  0  0  0  0
  154.2750  214.4130  154.7270 C   0  0  0  0  0  3  0  0  0  0  0  0
  155.3160  214.0500  153.8730 C   0  0  0  0  0  3  0  0  0  0  0  0
  156.8020  213.7700  155.7780 C   0  0  0  0  0  0  0  0  0  0  0  0
  155.7410  214.1360  156.6250 C   0  0  0  0  0  3  0  0  0  0  0  0
  156.5860  213.7180  154.3770 C   0  0  0  0  0  0  0  0  0  0  0  0
  158.0630  213.4780  156.3130 O   0  0  0  0  0  0  0  0  0  0  0  0
  159.2180  214.2640  156.0510 C   0  0  0  0  0  1  0  0  0  0  0  0
  161.1120  213.1000  149.6870 N   0  0  0  0  0  2  0  0  0  0  0  0
  162.1000  214.1720  146.9380 C   0  0  0  0  0  2  0  0  0  0  0  0
  161.1690  212.7690  148.2710 C   0  0  2  0  0  3  0  0  0  0  0  0
  162.5820  212.9890  147.7590 C   0  0  0  0  0  2  0  0  0  0  0  0
  160.6880  213.9530  147.4460 C   0  0  2  0  0  3  0  0  0  0  0  0
  159.8040  213.5050  146.3220 C   0  0  0  0  0  0  0  0  0  0  0  0
  158.6010  213.2110  146.5670 O   0  0  0  0  0  0  0  0  0  0  0  0
  160.2970  213.4470  145.0150 O   0  0  0  0  0  0  0  0  0  0  0  0
  160.5740  212.6650  142.7640 C   0  0  1  0  0  3  0  0  0  0  0  0
  159.1160  212.9940  142.9930 C   0  0  0  0  0  2  0  0  0  0  0  0
  159.9420  212.4070  144.1170 C   0  0  2  0  0  3  0  0  0  0  0  0
  160.6510  211.3700  141.9660 C   0  0  0  0  0  2  0  0  0  0  0  0
  163.1180  212.6840  139.6740 C   0  0  0  0  0  2  0  0  0  0  0  0
  160.8680  211.5780  140.4680 C   0  0  2  0  0  0  0  0  0  0  0  0
  159.7820  211.9110  138.1930 C   0  0  0  0  0  2  0  0  0  0  0  0
  161.7830  210.4590  138.3680 C   0  0  0  0  0  2  0  0  0  0  0  0
  159.5280  211.7190  139.7130 C   0  0  0  0  0  2  0  0  0  0  0  0
  161.2900  211.8360  137.8780 C   0  0  2  0  0  3  0  0  0  0  0  0
  161.5600  210.3180  139.8930 C   0  0  0  0  0  2  0  0  0  0  0  0
  161.9930  212.9570  138.6850 C   0  0  2  0  0  0  0  0  0  0  0  0
  161.9100  214.2610  138.2020 O   0  0  0  0  0  1  0  0  0  0  0  0
  161.6880  212.8770  140.1890 C   0  0  2  0  0  3  0  0  0  0  0  0
  162.3280  210.3710  149.9480 C   0  0  0  0  0  2  0  0  0  0  0  0
  161.6490  209.5220  148.8840 C   0  0  0  0  0  2  0  0  0  0  0  0
  161.8380  208.1080  149.1730 N   0  0  0  0  0  0  0  0  0  0  0  0
  161.2570  206.8180  151.1180 C   0  0  0  0  0  0  0  0  0  0  0  0
  160.9110  207.3800  149.9900 C   0  0  0  0  0  3  0  0  0  0  0  0
  161.5850  206.2500  152.2470 C   0  0  0  0  0  3  0  0  0  0  0  0
  161.2720  206.8660  153.5410 C   0  0  0  0  0  0  0  0  0  0  0  0
  160.2750  206.5020  154.2810 N   0  0  0  0  0  0  0  0  0  0  0  0
  162.0630  207.9060  154.1000 N   0  0  0  0  0  0  0  0  0  0  0  0
  161.4980  208.1670  155.2260 C   0  0  0  0  0  0  0  0  0  0  0  0
  160.3010  207.3220  155.4810 C   0  0  0  0  0  2  0  0  0  0  0  0
  161.9900  209.1570  156.1220 N   0  0  0  0  0  1  0  0  0  0  0  0
  162.8100  207.3920  148.4570 N   0  0  0  0  0  2  0  0  0  0  0  0
  162.1850  206.8720  147.3130 N   0  0  0  0  0  2  0  0  0  0  0  0
  162.7870  205.5790  147.0550 C   0  0  0  0  0  2  0  0  0  0  0  0
  161.9290  204.5290  147.5860 N   0  0  0  0  0  2  0  0  0  0  0  0
  161.1010  204.0700  146.4850 C   0  0  1  0  0  3  0  0  0  0  0  0
  160.8150  204.3250  144.1270 O   0  0  0  0  0  1  0  0  0  0  0  0
  161.7520  204.4220  145.1560 C   0  0  0  0  0  2  0  0  0  0  0  0
  160.8320  202.5710  146.6120 C   0  0  0  0  0  2  0  0  0  0  0  0
  161.2680  202.0170  147.9600 C   0  0  2  0  0  3  0  0  0  0  0  0
  160.3730  201.0040  148.3460 O   0  0  0  0  0  0  0  0  0  0  0  0
  160.2090  202.2570  148.9660 C   0  0  1  0  0  3  0  0  0  0  0  0
  161.3890  201.0040  150.8140 N   0  0  0  0  0  1  0  0  0  0  0  0
  160.7690  202.1980  150.3470 C   0  0  0  0  0  0  0  0  0  0  0  0
  160.6710  203.1930  151.1130 O   0  0  0  0  0  0  0  0  0  0  0  0
  1 10  1  0  0  0  0
  2  6  1  0  0  0  0
  3  9  1  0  0  0  0
  3 16  1  0  0  0  0
  4  1  2  0  0  0  0
  4  2  1  0  0  0  0
  5  3  2  0  0  0  0
  6  7  1  0  0  0  0
  6  9  2  0  0  0  0
  8  2  2  0  0  0  0
  8  5  1  0  0  0  0
 10  7  2  0  0  0  0
 11 15  1  0  0  0  0
 12 11  2  0  0  0  0
 13 16  2  0  0  0  0
 13 12  1  0  0  0  0
 14 17  1  0  0  0  0
 14 15  2  0  0  0  0
 16 14  1  0  0  0  0
 18 17  1  0  0  0  0
 19  4  1  0  0  0  0
 20 23  1  0  0  0  0
 20 22  1  0  0  0  0
 21 19  1  1  0  0  0
 22 21  1  0  0  0  0
 23 24  1  6  0  0  0
 23 21  1  0  0  0  0
 24 25  2  0  0  0  0
 26 24  1  0  0  0  0
 27 30  1  6  0  0  0
 27 28  1  0  0  0  0
 27 29  1  0  0  0  0
 28 29  1  0  0  0  0
 29 26  1  1  0  0  0
 32 30  1  1  0  0  0
 33 35  1  0  0  0  0
 34 37  1  0  0  0  0
 35 32  1  0  0  0  0
 36 33  1  1  0  0  0
 36 34  1  0  0  0  0
 36 38  1  0  0  0  0
 37 32  1  0  0  0  0
 38 39  1  6  0  0  0
 38 31  1  0  0  0  0
 38 40  1  0  0  0  0
 40 31  1  1  0  0  0
 40 32  1  0  0  0  0
 41  1  1  0  0  0  0
 42 43  1  0  0  0  0
 42 41  1  0  0  0  0
 43 45  1  0  0  0  0
 44 46  2  0  0  0  0
 45 44  2  0  0  0  0
 46 47  1  0  0  0  0
 47 49  1  0  0  0  0
 47 48  2  0  0  0  0
 48 51  1  0  0  0  0
 49 50  2  0  0  0  0
 50 51  1  0  0  0  0
 50 52  1  0  0  0  0
 53 43  1  0  0  0  0
 54 53  1  0  0  0  0
 55 54  1  0  0  0  0
 55 56  1  0  0  0  0
 57 59  1  6  0  0  0
 57 60  1  0  0  0  0
 57 56  1  0  0  0  0
 58 59  1  0  0  0  0
 61 60  1  6  0  0  0
 61 62  1  0  0  0  0
 61 63  1  0  0  0  0
 62 63  1  0  0  0  0
 63 65  1  1  0  0  0
 65 64  1  0  0  0  0
 65 66  2  0  0  0  0
M  END
>  <MODEL>
1

>  <REMARK>
 VINA RESULT:      -6.0      0.000      0.000
  Name = 
  23 active torsions:
  status: ('A' for Active; 'I' for Inactive)
    1  A    between atoms: C_1  and  C_19
    2  A    between atoms: C_3  and  C_45
    3  A    between atoms: C_4  and  C_45
    4  A    between atoms: C_5  and  C_6
    5  A    between atoms: C_6  and  CA_58
    6  A    between atoms: C_8  and  O_18
    7  A    between atoms: C_8  and  C_62
    8  A    between atoms: C_11  and  C_53
    9  A    between atoms: C_12  and  N_61
   10  A    between atoms: C_14  and  N_33
   11  A    between atoms: C_15  and  C_43
   12  A    between atoms: O_18  and  C_28
   13  A    between atoms: C_19  and  C_22
   14  A    between atoms: C_22  and  N_33
   15  A    between atoms: C_24  and  N_61
   16  A    between atoms: C_25  and  C_60
   17  A    between atoms: C_30  and  N_31
   18  A    between atoms: C_30  and  N_39
   19  A    between atoms: N_31  and  CA_58
   20  A    between atoms: N_33  and  N_57
   21  A    between atoms: O_36  and  C_42
   22  A    between atoms: N_39  and  N_57
   23  A    between atoms: C_54  and  CA_58
                            x       y       z     vdW  Elec       q    Type
                         _______ _______ _______ _____ _____    ______ ____

>  <TORSDO>
F 23

$$$$
=
 OpenBabel11042422433D

 66 75  0  0  1  0  0  0  0  0999 V2000
  161.5400  210.2040  150.2910 C   0  0  0  0  0  0  0  0  0  0  0  0
  160.4140  212.0700  151.3660 C   0  0  0  0  0  0  0  0  0  0  0  0
  158.8210  213.0120  153.4980 C   0  0  0  0  0  0  0  0  0  0  0  0
  161.2120  211.5830  150.3140 C   0  0  0  0  0  0  0  0  0  0  0  0
  159.2480  213.8830  152.4820 C   0  0  0  0  0  3  0  0  0  0  0  0
  159.9980  211.1900  152.3890 C   0  0  0  0  0  0  0  0  0  0  0  0
  160.3540  209.8800  152.3490 N   0  0  0  0  0  0  0  0  0  0  0  0
  160.0370  213.4180  151.4270 C   0  0  0  0  0  3  0  0  0  0  0  0
  159.2130  211.6640  153.4440 C   0  0  0  0  0  3  0  0  0  0  0  0
  161.0970  209.3780  151.3310 C   0  0  0  0  0  3  0  0  0  0  0  0
  156.5420  214.4430  156.8550 C   0  0  0  0  0  3  0  0  0  0  0  0
  157.9130  214.2150  156.9660 C   0  0  0  0  0  3  0  0  0  0  0  0
  158.6310  213.7460  155.8650 C   0  0  0  0  0  3  0  0  0  0  0  0
  156.6000  213.7230  154.5290 C   0  0  0  0  0  0  0  0  0  0  0  0
  155.8910  214.1960  155.6470 C   0  0  0  0  0  3  0  0  0  0  0  0
  157.9960  213.5000  154.6360 C   0  0  0  0  0  0  0  0  0  0  0  0
  155.9280  213.4560  153.3290 O   0  0  0  0  0  0  0  0  0  0  0  0
  155.2350  214.4530  152.5910 C   0  0  0  0  0  1  0  0  0  0  0  0
  161.6550  212.5020  149.2990 N   0  0  0  0  0  2  0  0  0  0  0  0
  161.6070  214.2460  146.7230 C   0  0  0  0  0  2  0  0  0  0  0  0
  161.2030  212.5070  147.9160 C   0  0  2  0  0  3  0  0  0  0  0  0
  162.3430  212.9500  147.0160 C   0  0  0  0  0  2  0  0  0  0  0  0
  160.4670  213.8040  147.6190 C   0  0  2  0  0  3  0  0  0  0  0  0
  159.2390  213.5540  146.7980 C   0  0  0  0  0  0  0  0  0  0  0  0
  158.2040  213.1050  147.3640 O   0  0  0  0  0  0  0  0  0  0  0  0
  159.2310  213.8470  145.4310 O   0  0  0  0  0  0  0  0  0  0  0  0
  160.0580  213.1630  143.2850 C   0  0  1  0  0  3  0  0  0  0  0  0
  158.5770  213.4460  143.1720 C   0  0  0  0  0  2  0  0  0  0  0  0
  159.1330  212.8350  144.4400 C   0  0  2  0  0  3  0  0  0  0  0  0
  160.3650  211.9040  142.4860 C   0  0  0  0  0  2  0  0  0  0  0  0
  161.9920  210.1850  139.7530 C   0  0  0  0  0  2  0  0  0  0  0  0
  160.9020  212.1770  141.0820 C   0  0  2  0  0  0  0  0  0  0  0  0
  161.8420  213.9020  139.4680 C   0  0  0  0  0  2  0  0  0  0  0  0
  160.2430  212.2090  138.6190 C   0  0  0  0  0  2  0  0  0  0  0  0
  161.3180  213.6550  140.9080 C   0  0  0  0  0  2  0  0  0  0  0  0
  161.7290  212.6200  138.6170 C   0  0  2  0  0  3  0  0  0  0  0  0
  159.7640  211.9230  140.0630 C   0  0  0  0  0  2  0  0  0  0  0  0
  162.5720  211.5210  139.3140 C   0  0  2  0  0  0  0  0  0  0  0  0
  163.9560  211.5610  139.1550 O   0  0  0  0  0  1  0  0  0  0  0  0
  162.1650  211.3090  140.7790 C   0  0  2  0  0  3  0  0  0  0  0  0
  162.2670  209.5700  149.1480 C   0  0  0  0  0  2  0  0  0  0  0  0
  162.4330  208.0740  149.3700 C   0  0  0  0  0  2  0  0  0  0  0  0
  161.5160  207.3350  148.5140 N   0  0  0  0  0  0  0  0  0  0  0  0
  162.1160  205.7240  146.8320 C   0  0  0  0  0  0  0  0  0  0  0  0
  161.8770  206.9620  147.1770 C   0  0  0  0  0  3  0  0  0  0  0  0
  162.3580  204.4930  146.4700 C   0  0  0  0  0  3  0  0  0  0  0  0
  161.3630  203.6890  145.7530 C   0  0  0  0  0  0  0  0  0  0  0  0
  160.5600  204.1750  144.8620 N   0  0  0  0  0  0  0  0  0  0  0  0
  161.2170  202.2910  145.9670 N   0  0  0  0  0  0  0  0  0  0  0  0
  160.2770  201.9400  145.1600 C   0  0  0  0  0  0  0  0  0  0  0  0
  159.7430  203.0790  144.3670 C   0  0  0  0  0  2  0  0  0  0  0  0
  159.8220  200.5970  145.0480 N   0  0  0  0  0  1  0  0  0  0  0  0
  160.3580  206.7780  149.0790 N   0  0  0  0  0  2  0  0  0  0  0  0
  160.7680  205.7390  149.9290 N   0  0  0  0  0  2  0  0  0  0  0  0
  162.1180  206.0520  150.3560 C   0  0  0  0  0  2  0  0  0  0  0  0
  162.3510  205.4890  151.6780 N   0  0  0  0  0  2  0  0  0  0  0  0
  161.1670  204.7220  152.0210 C   0  0  1  0  0  3  0  0  0  0  0  0
  160.9090  202.7360  150.7180 O   0  0  0  0  0  1  0  0  0  0  0  0
  161.4540  203.2330  151.9020 C   0  0  0  0  0  2  0  0  0  0  0  0
  160.6740  205.1010  153.4170 C   0  0  0  0  0  2  0  0  0  0  0  0
  160.8800  206.5770  153.7230 C   0  0  2  0  0  3  0  0  0  0  0  0
  162.0350  206.7190  154.5110 O   0  0  0  0  0  0  0  0  0  0  0  0
  160.8020  206.7990  155.1850 C   0  0  1  0  0  3  0  0  0  0  0  0
  161.5600  209.1700  155.6120 N   0  0  0  0  0  1  0  0  0  0  0  0
  160.5000  208.2290  155.4850 C   0  0  0  0  0  0  0  0  0  0  0  0
  159.3090  208.6010  155.6540 O   0  0  0  0  0  0  0  0  0  0  0  0
  1  4  2  0  0  0  0
  1 10  1  0  0  0  0
  2  8  2  0  0  0  0
  2  6  1  0  0  0  0
  3 16  1  0  0  0  0
  4  2  1  0  0  0  0
  5  3  2  0  0  0  0
  6  9  2  0  0  0  0
  7  6  1  0  0  0  0
  8  5  1  0  0  0  0
  9  3  1  0  0  0  0
 10  7  2  0  0  0  0
 11 12  1  0  0  0  0
 13 12  2  0  0  0  0
 14 16  2  0  0  0  0
 14 15  1  0  0  0  0
 15 11  2  0  0  0  0
 16 13  1  0  0  0  0
 17 14  1  0  0  0  0
 18 17  1  0  0  0  0
 19  4  1  0  0  0  0
 20 22  1  0  0  0  0
 20 23  1  0  0  0  0
 21 19  1  1  0  0  0
 22 21  1  0  0  0  0
 23 24  1  6  0  0  0
 23 21  1  0  0  0  0
 24 25  2  0  0  0  0
 26 24  1  0  0  0  0
 27 30  1  6  0  0  0
 27 29  1  0  0  0  0
 28 27  1  0  0  0  0
 28 29  1  0  0  0  0
 29 26  1  1  0  0  0
 32 30  1  1  0  0  0
 33 35  1  0  0  0  0
 34 37  1  0  0  0  0
 35 32  1  0  0  0  0
 36 34  1  1  0  0  0
 36 38  1  0  0  0  0
 36 33  1  0  0  0  0
 37 32  1  0  0  0  0
 38 39  1  6  0  0  0
 38 31  1  0  0  0  0
 38 40  1  0  0  0  0
 40 31  1  6  0  0  0
 40 32  1  0  0  0  0
 41 42  1  0  0  0  0
 41  1  1  0  0  0  0
 43 53  1  0  0  0  0
 43 42  1  0  0  0  0
 44 45  2  0  0  0  0
 45 43  1  0  0  0  0
 46 44  2  0  0  0  0
 47 49  1  0  0  0  0
 47 46  1  0  0  0  0
 48 47  2  0  0  0  0
 50 49  2  0  0  0  0
 51 48  1  0  0  0  0
 51 50  1  0  0  0  0
 52 50  1  0  0  0  0
 53 54  1  0  0  0  0
 54 55  1  0  0  0  0
 55 56  1  0  0  0  0
 56 57  1  0  0  0  0
 57 59  1  1  0  0  0
 57 60  1  0  0  0  0
 58 59  1  0  0  0  0
 61 60  1  1  0  0  0
 61 62  1  0  0  0  0
 61 63  1  0  0  0  0
 62 63  1  0  0  0  0
 63 65  1  6  0  0  0
 65 64  1  0  0  0  0
 65 66  2  0  0  0  0
M  END
>  <MODEL>
2

>  <REMARK>
 VINA RESULT:      -5.8      1.789      4.914
  Name = 
  23 active torsions:
  status: ('A' for Active; 'I' for Inactive)
    1  A    between atoms: C_1  and  C_19
    2  A    between atoms: C_3  and  C_45
    3  A    between atoms: C_4  and  C_45
    4  A    between atoms: C_5  and  C_6
    5  A    between atoms: C_6  and  CA_58
    6  A    between atoms: C_8  and  O_18
    7  A    between atoms: C_8  and  C_62
    8  A    between atoms: C_11  and  C_53
    9  A    between atoms: C_12  and  N_61
   10  A    between atoms: C_14  and  N_33
   11  A    between atoms: C_15  and  C_43
   12  A    between atoms: O_18  and  C_28
   13  A    between atoms: C_19  and  C_22
   14  A    between atoms: C_22  and  N_33
   15  A    between atoms: C_24  and  N_61
   16  A    between atoms: C_25  and  C_60
   17  A    between atoms: C_30  and  N_31
   18  A    between atoms: C_30  and  N_39
   19  A    between atoms: N_31  and  CA_58
   20  A    between atoms: N_33  and  N_57
   21  A    between atoms: O_36  and  C_42
   22  A    between atoms: N_39  and  N_57
   23  A    between atoms: C_54  and  CA_58
                            x       y       z     vdW  Elec       q    Type
                         _______ _______ _______ _____ _____    ______ ____

>  <TORSDO>
F 23

$$$$
=
 OpenBabel11042422433D

 66 75  0  0  1  0  0  0  0  0999 V2000
  161.6370  210.7320  150.4510 C   0  0  0  0  0  0  0  0  0  0  0  0
  160.0140  212.2810  151.3860 C   0  0  0  0  0  0  0  0  0  0  0  0
  158.5070  213.1270  153.6190 C   0  0  0  0  0  0  0  0  0  0  0  0
  160.7780  211.8480  150.2860 C   0  0  0  0  0  0  0  0  0  0  0  0
  158.3840  213.7800  152.3800 C   0  0  0  0  0  3  0  0  0  0  0  0
  160.1520  211.6260  152.6300 C   0  0  0  0  0  0  0  0  0  0  0  0
  161.0050  210.5780  152.7580 N   0  0  0  0  0  0  0  0  0  0  0  0
  159.1300  213.3620  151.2760 C   0  0  0  0  0  3  0  0  0  0  0  0
  159.4060  212.0540  153.7320 C   0  0  0  0  0  3  0  0  0  0  0  0
  161.7310  210.1210  151.7070 C   0  0  0  0  0  3  0  0  0  0  0  0
  156.3740  214.4530  157.1110 C   0  0  0  0  0  3  0  0  0  0  0  0
  157.7640  214.3500  157.1180 C   0  0  0  0  0  3  0  0  0  0  0  0
  158.4350  213.9130  155.9760 C   0  0  0  0  0  3  0  0  0  0  0  0
  156.3170  213.6710  154.8060 C   0  0  0  0  0  0  0  0  0  0  0  0
  155.6560  214.1130  155.9650 C   0  0  0  0  0  3  0  0  0  0  0  0
  157.7320  213.5750  154.8070 C   0  0  0  0  0  0  0  0  0  0  0  0
  155.5810  213.3100  153.6690 O   0  0  0  0  0  0  0  0  0  0  0  0
  155.2220  214.2350  152.6520 C   0  0  0  0  0  1  0  0  0  0  0  0
  160.6490  212.5490  149.0360 N   0  0  0  0  0  2  0  0  0  0  0  0
  162.3380  214.4530  147.2460 C   0  0  0  0  0  2  0  0  0  0  0  0
  161.6410  212.5560  147.9710 C   0  0  2  0  0  3  0  0  0  0  0  0
  162.7730  213.4980  148.3430 C   0  0  0  0  0  2  0  0  0  0  0  0
  161.2090  213.5130  146.8710 C   0  0  2  0  0  3  0  0  0  0  0  0
  161.4600  212.9280  145.5150 C   0  0  0  0  0  0  0  0  0  0  0  0
  162.6500  212.7090  145.1520 O   0  0  0  0  0  0  0  0  0  0  0  0
  160.3900  212.5960  144.6790 O   0  0  0  0  0  0  0  0  0  0  0  0
  160.4380  211.8900  142.3860 C   0  0  1  0  0  3  0  0  0  0  0  0
  161.6220  212.7950  142.6460 C   0  0  0  0  0  2  0  0  0  0  0  0
  160.3030  213.0600  143.3400 C   0  0  2  0  0  3  0  0  0  0  0  0
  159.8510  212.2500  141.0280 C   0  0  0  0  0  2  0  0  0  0  0  0
  158.7980  211.0510  137.7840 C   0  0  0  0  0  2  0  0  0  0  0  0
  160.3510  211.3700  139.8840 C   0  0  2  0  0  0  0  0  0  0  0  0
  161.8560  209.4410  139.1930 C   0  0  0  0  0  2  0  0  0  0  0  0
  161.6800  211.4180  137.7090 C   0  0  0  0  0  2  0  0  0  0  0  0
  161.3540  210.3050  140.3800 C   0  0  0  0  0  2  0  0  0  0  0  0
  161.2590  209.9420  137.8610 C   0  0  2  0  0  3  0  0  0  0  0  0
  161.1240  212.2610  138.8810 C   0  0  0  0  0  2  0  0  0  0  0  0
  159.7150  209.8520  137.9770 C   0  0  2  0  0  0  0  0  0  0  0  0
  159.1220  208.6010  137.8260 O   0  0  0  0  0  1  0  0  0  0  0  0
  159.1730  210.6050  139.2010 C   0  0  2  0  0  3  0  0  0  0  0  0
  162.3830  210.1170  149.3100 C   0  0  0  0  0  2  0  0  0  0  0  0
  161.5580  209.0290  148.6420 C   0  0  0  0  0  2  0  0  0  0  0  0
  161.7400  207.7620  149.3370 N   0  0  0  0  0  0  0  0  0  0  0  0
  160.9850  206.6240  151.3160 C   0  0  0  0  0  0  0  0  0  0  0  0
  160.7170  207.2200  150.1850 C   0  0  0  0  0  3  0  0  0  0  0  0
  161.2330  206.0250  152.4500 C   0  0  0  0  0  3  0  0  0  0  0  0
  161.0600  206.7050  153.7370 C   0  0  0  0  0  0  0  0  0  0  0  0
  160.2740  206.2750  154.6720 N   0  0  0  0  0  0  0  0  0  0  0  0
  161.7690  207.8900  154.0730 N   0  0  0  0  0  0  0  0  0  0  0  0
  161.3750  208.1720  155.2660 C   0  0  0  0  0  0  0  0  0  0  0  0
  160.3840  207.1960  155.7910 C   0  0  0  0  0  2  0  0  0  0  0  0
  161.8590  209.2970  155.9900 N   0  0  0  0  0  1  0  0  0  0  0  0
  162.8300  206.9490  148.9930 N   0  0  0  0  0  2  0  0  0  0  0  0
  162.7080  206.6450  147.6280 N   0  0  0  0  0  2  0  0  0  0  0  0
  163.6750  205.6050  147.3390 C   0  0  0  0  0  2  0  0  0  0  0  0
  163.0080  204.4900  146.6830 N   0  0  0  0  0  2  0  0  0  0  0  0
  161.6420  204.9120  146.4280 C   0  0  1  0  0  3  0  0  0  0  0  0
  159.9790  204.9640  144.7130 O   0  0  0  0  0  1  0  0  0  0  0  0
  161.1430  204.3120  145.1210 C   0  0  0  0  0  2  0  0  0  0  0  0
  160.7430  204.5430  147.6070 C   0  0  0  0  0  2  0  0  0  0  0  0
  161.1710  203.2460  148.2780 C   0  0  2  0  0  3  0  0  0  0  0  0
  160.0630  202.3850  148.3470 O   0  0  0  0  0  0  0  0  0  0  0  0
  160.4100  203.0580  149.5340 C   0  0  1  0  0  3  0  0  0  0  0  0
  161.4480  202.5120  151.7710 N   0  0  0  0  0  1  0  0  0  0  0  0
  161.1200  202.1130  150.4440 C   0  0  0  0  0  0  0  0  0  0  0  0
  161.4560  200.9710  150.0320 O   0  0  0  0  0  0  0  0  0  0  0  0
  1 10  1  0  0  0  0
  2  6  1  0  0  0  0
  3  9  1  0  0  0  0
  3 16  1  0  0  0  0
  4  1  2  0  0  0  0
  4  2  1  0  0  0  0
  5  3  2  0  0  0  0
  6  7  1  0  0  0  0
  6  9  2  0  0  0  0
  8  2  2  0  0  0  0
  8  5  1  0  0  0  0
 10  7  2  0  0  0  0
 11 12  1  0  0  0  0
 13 12  2  0  0  0  0
 14 16  2  0  0  0  0
 14 15  1  0  0  0  0
 15 11  2  0  0  0  0
 16 13  1  0  0  0  0
 17 14  1  0  0  0  0
 18 17  1  0  0  0  0
 19  4  1  0  0  0  0
 20 22  1  0  0  0  0
 21 22  1  0  0  0  0
 21 19  1  1  0  0  0
 23 24  1  6  0  0  0
 23 20  1  0  0  0  0
 23 21  1  0  0  0  0
 25 24  2  0  0  0  0
 26 24  1  0  0  0  0
 27 30  1  6  0  0  0
 27 28  1  0  0  0  0
 27 29  1  0  0  0  0
 28 29  1  0  0  0  0
 29 26  1  1  0  0  0
 31 38  1  0  0  0  0
 32 35  1  0  0  0  0
 32 30  1  1  0  0  0
 33 35  1  0  0  0  0
 34 37  1  0  0  0  0
 36 34  1  1  0  0  0
 36 38  1  0  0  0  0
 36 33  1  0  0  0  0
 37 32  1  0  0  0  0
 38 39  1  6  0  0  0
 38 40  1  0  0  0  0
 40 31  1  6  0  0  0
 40 32  1  0  0  0  0
 41  1  1  0  0  0  0
 42 41  1  0  0  0  0
 42 43  1  0  0  0  0
 43 45  1  0  0  0  0
 44 46  2  0  0  0  0
 45 44  2  0  0  0  0
 46 47  1  0  0  0  0
 47 49  1  0  0  0  0
 47 48  2  0  0  0  0
 48 51  1  0  0  0  0
 49 50  2  0  0  0  0
 50 51  1  0  0  0  0
 50 52  1  0  0  0  0
 53 43  1  0  0  0  0
 54 53  1  0  0  0  0
 55 54  1  0  0  0  0
 56 55  1  0  0  0  0
 57 59  1  6  0  0  0
 57 56  1  0  0  0  0
 57 60  1  0  0  0  0
 58 59  1  0  0  0  0
 61 60  1  6  0  0  0
 61 62  1  0  0  0  0
 61 63  1  0  0  0  0
 62 63  1  0  0  0  0
 63 65  1  1  0  0  0
 65 64  1  0  0  0  0
 66 65  2  0  0  0  0
M  END
>  <MODEL>
3

>  <REMARK>
 VINA RESULT:      -4.5      1.377      2.030
  Name = 
  23 active torsions:
  status: ('A' for Active; 'I' for Inactive)
    1  A    between atoms: C_1  and  C_19
    2  A    between atoms: C_3  and  C_45
    3  A    between atoms: C_4  and  C_45
    4  A    between atoms: C_5  and  C_6
    5  A    between atoms: C_6  and  CA_58
    6  A    between atoms: C_8  and  O_18
    7  A    between atoms: C_8  and  C_62
    8  A    between atoms: C_11  and  C_53
    9  A    between atoms: C_12  and  N_61
   10  A    between atoms: C_14  and  N_33
   11  A    between atoms: C_15  and  C_43
   12  A    between atoms: O_18  and  C_28
   13  A    between atoms: C_19  and  C_22
   14  A    between atoms: C_22  and  N_33
   15  A    between atoms: C_24  and  N_61
   16  A    between atoms: C_25  and  C_60
   17  A    between atoms: C_30  and  N_31
   18  A    between atoms: C_30  and  N_39
   19  A    between atoms: N_31  and  CA_58
   20  A    between atoms: N_33  and  N_57
   21  A    between atoms: O_36  and  C_42
   22  A    between atoms: N_39  and  N_57
   23  A    between atoms: C_54  and  CA_58
                            x       y       z     vdW  Elec       q    Type
                         _______ _______ _______ _____ _____    ______ ____

>  <TORSDO>
F 23

$$$$
=
 OpenBabel11042422433D

 66 75  0  0  1  0  0  0  0  0999 V2000
  161.9140  209.6360  149.8610 C   0  0  0  0  0  0  0  0  0  0  0  0
  160.7210  211.2280  151.2560 C   0  0  0  0  0  0  0  0  0  0  0  0
  159.2300  211.7240  153.6030 C   0  0  0  0  0  0  0  0  0  0  0  0
  161.4700  210.9620  150.0950 C   0  0  0  0  0  0  0  0  0  0  0  0
  159.4980  212.7580  152.6890 C   0  0  0  0  0  3  0  0  0  0  0  0
  160.4660  210.1850  152.1750 C   0  0  0  0  0  0  0  0  0  0  0  0
  160.9290  208.9320  151.9300 N   0  0  0  0  0  0  0  0  0  0  0  0
  160.2350  212.5140  151.5290 C   0  0  0  0  0  3  0  0  0  0  0  0
  159.7310  210.4390  153.3350 C   0  0  0  0  0  3  0  0  0  0  0  0
  161.6290  208.6410  150.8040 C   0  0  0  0  0  3  0  0  0  0  0  0
  156.9100  212.5010  157.1410 C   0  0  0  0  0  3  0  0  0  0  0  0
  156.4890  212.9610  155.8940 C   0  0  0  0  0  3  0  0  0  0  0  0
  157.2590  212.7010  154.7610 C   0  0  0  0  0  3  0  0  0  0  0  0
  158.8910  211.5190  156.1210 C   0  0  0  0  0  0  0  0  0  0  0  0
  158.1020  211.7880  157.2530 C   0  0  0  0  0  3  0  0  0  0  0  0
  158.4600  211.9770  154.8500 C   0  0  0  0  0  0  0  0  0  0  0  0
  160.0990  210.8220  156.2530 O   0  0  0  0  0  0  0  0  0  0  0  0
  161.3280  211.4560  156.5850 C   0  0  0  0  0  1  0  0  0  0  0  0
  161.7490  212.0440  149.1900 N   0  0  0  0  0  2  0  0  0  0  0  0
  161.3170  214.1320  146.9230 C   0  0  0  0  0  2  0  0  0  0  0  0
  161.1510  212.2140  147.8740 C   0  0  2  0  0  3  0  0  0  0  0  0
  162.1570  212.8670  146.9430 C   0  0  0  0  0  2  0  0  0  0  0  0
  160.3090  213.4800  147.8500 C   0  0  2  0  0  3  0  0  0  0  0  0
  159.0170  213.2580  147.1250 C   0  0  0  0  0  0  0  0  0  0  0  0
  158.0650  212.6900  147.7290 O   0  0  0  0  0  0  0  0  0  0  0  0
  158.8580  213.7040  145.8100 O   0  0  0  0  0  0  0  0  0  0  0  0
  159.8450  213.2770  143.6650 C   0  0  1  0  0  3  0  0  0  0  0  0
  158.3730  213.5660  143.4790 C   0  0  0  0  0  2  0  0  0  0  0  0
  158.8440  212.8140  144.7040 C   0  0  2  0  0  3  0  0  0  0  0  0
  160.2240  212.1200  142.7500 C   0  0  0  0  0  2  0  0  0  0  0  0
  161.8190  210.7260  139.8210 C   0  0  0  0  0  2  0  0  0  0  0  0
  160.7720  212.5580  141.3930 C   0  0  2  0  0  0  0  0  0  0  0  0
  161.7570  214.4520  140.0140 C   0  0  0  0  0  2  0  0  0  0  0  0
  160.1220  212.9200  138.9550 C   0  0  0  0  0  2  0  0  0  0  0  0
  161.2230  214.0350  141.4100 C   0  0  0  0  0  2  0  0  0  0  0  0
  161.6180  213.2920  139.0060 C   0  0  2  0  0  3  0  0  0  0  0  0
  159.6320  212.4630  140.3500 C   0  0  0  0  0  2  0  0  0  0  0  0
  162.4330  212.0940  139.5560 C   0  0  2  0  0  0  0  0  0  0  0  0
  163.8170  212.1210  139.4050 O   0  0  0  0  0  1  0  0  0  0  0  0
  162.0150  211.7060  140.9830 C   0  0  2  0  0  3  0  0  0  0  0  0
  162.5970  209.2300  148.5940 C   0  0  0  0  0  2  0  0  0  0  0  0
  162.6640  207.7160  148.4720 C   0  0  0  0  0  2  0  0  0  0  0  0
  161.3730  207.1880  148.0520 N   0  0  0  0  0  0  0  0  0  0  0  0
  161.7480  205.5720  146.3110 C   0  0  0  0  0  0  0  0  0  0  0  0
  161.1720  206.6670  146.7310 C   0  0  0  0  0  3  0  0  0  0  0  0
  162.3150  204.4790  145.8750 C   0  0  0  0  0  3  0  0  0  0  0  0
  161.5890  203.2060  145.8070 C   0  0  0  0  0  0  0  0  0  0  0  0
  161.7880  202.2270  146.6290 N   0  0  0  0  0  0  0  0  0  0  0  0
  160.5830  202.9560  144.8350 N   0  0  0  0  0  0  0  0  0  0  0  0
  160.1720  201.7650  145.1000 C   0  0  0  0  0  0  0  0  0  0  0  0
  160.8790  201.1550  146.2570 C   0  0  0  0  0  2  0  0  0  0  0  0
  159.1400  201.1250  144.3580 N   0  0  0  0  0  1  0  0  0  0  0  0
  160.3810  206.9710  149.0200 N   0  0  0  0  0  2  0  0  0  0  0  0
  160.1980  205.5840  149.1240 N   0  0  0  0  0  2  0  0  0  0  0  0
  161.4560  205.0250  149.5770 C   0  0  0  0  0  2  0  0  0  0  0  0
  161.4590  203.5870  149.3490 N   0  0  0  0  0  2  0  0  0  0  0  0
  160.6330  202.9980  150.3870 C   0  0  1  0  0  3  0  0  0  0  0  0
  160.7630  200.7950  149.4710 O   0  0  0  0  0  1  0  0  0  0  0  0
  159.8690  201.8030  149.8340 C   0  0  0  0  0  2  0  0  0  0  0  0
  161.4870  202.6210  151.5970 C   0  0  0  0  0  2  0  0  0  0  0  0
  161.2560  203.5490  152.7800 C   0  0  2  0  0  3  0  0  0  0  0  0
  160.0080  204.1780  152.6260 O   0  0  0  0  0  0  0  0  0  0  0  0
  161.1430  204.9470  152.3040 C   0  0  1  0  0  3  0  0  0  0  0  0
  160.3440  206.3960  154.2120 N   0  0  0  0  0  1  0  0  0  0  0  0
  161.4160  205.9050  153.4130 C   0  0  0  0  0  0  0  0  0  0  0  0
  162.5910  206.3050  153.6290 O   0  0  0  0  0  0  0  0  0  0  0  0
  1  4  2  0  0  0  0
  1 10  1  0  0  0  0
  2  8  2  0  0  0  0
  2  6  1  0  0  0  0
  3 16  1  0  0  0  0
  4  2  1  0  0  0  0
  5  3  2  0  0  0  0
  6  9  2  0  0  0  0
  7  6  1  0  0  0  0
  8  5  1  0  0  0  0
  9  3  1  0  0  0  0
 10  7  2  0  0  0  0
 11 15  1  0  0  0  0
 12 11  2  0  0  0  0
 13 16  2  0  0  0  0
 13 12  1  0  0  0  0
 14 17  1  0  0  0  0
 14 15  2  0  0  0  0
 16 14  1  0  0  0  0
 17 18  1  0  0  0  0
 19  4  1  0  0  0  0
 20 22  1  0  0  0  0
 20 23  1  0  0  0  0
 21 19  1  1  0  0  0
 22 21  1  0  0  0  0
 23 24  1  6  0  0  0
 23 21  1  0  0  0  0
 24 25  2  0  0  0  0
 26 24  1  0  0  0  0
 27 30  1  6  0  0  0
 27 29  1  0  0  0  0
 28 27  1  0  0  0  0
 28 29  1  0  0  0  0
 29 26  1  1  0  0  0
 32 35  1  0  0  0  0
 32 30  1  1  0  0  0
 33 35  1  0  0  0  0
 34 37  1  0  0  0  0
 36 34  1  1  0  0  0
 36 38  1  0  0  0  0
 36 33  1  0  0  0  0
 37 32  1  0  0  0  0
 38 39  1  6  0  0  0
 38 31  1  0  0  0  0
 38 40  1  0  0  0  0
 40 31  1  6  0  0  0
 40 32  1  0  0  0  0
 41  1  1  0  0  0  0
 42 41  1  0  0  0  0
 43 42  1  0  0  0  0
 43 53  1  0  0  0  0
 44 45  2  0  0  0  0
 45 43  1  0  0  0  0
 46 44  2  0  0  0  0
 47 46  1  0  0  0  0
 47 48  2  0  0  0  0
 49 50  2  0  0  0  0
 49 47  1  0  0  0  0
 50 51  1  0  0  0  0
 51 48  1  0  0  0  0
 52 50  1  0  0  0  0
 53 54  1  0  0  0  0
 54 55  1  0  0  0  0
 56 55  1  0  0  0  0
 56 57  1  0  0  0  0
 57 59  1  6  0  0  0
 57 60  1  0  0  0  0
 58 59  1  0  0  0  0
 61 60  1  6  0  0  0
 62 61  1  0  0  0  0
 63 62  1  0  0  0  0
 63 61  1  0  0  0  0
 63 65  1  1  0  0  0
 65 66  2  0  0  0  0
 65 64  1  0  0  0  0
M  END
>  <MODEL>
4

>  <REMARK>
 VINA RESULT:      -4.5      1.837      4.497
  Name = 
  23 active torsions:
  status: ('A' for Active; 'I' for Inactive)
    1  A    between atoms: C_1  and  C_19
    2  A    between atoms: C_3  and  C_45
    3  A    between atoms: C_4  and  C_45
    4  A    between atoms: C_5  and  C_6
    5  A    between atoms: C_6  and  CA_58
    6  A    between atoms: C_8  and  O_18
    7  A    between atoms: C_8  and  C_62
    8  A    between atoms: C_11  and  C_53
    9  A    between atoms: C_12  and  N_61
   10  A    between atoms: C_14  and  N_33
   11  A    between atoms: C_15  and  C_43
   12  A    between atoms: O_18  and  C_28
   13  A    between atoms: C_19  and  C_22
   14  A    between atoms: C_22  and  N_33
   15  A    between atoms: C_24  and  N_61
   16  A    between atoms: C_25  and  C_60
   17  A    between atoms: C_30  and  N_31
   18  A    between atoms: C_30  and  N_39
   19  A    between atoms: N_31  and  CA_58
   20  A    between atoms: N_33  and  N_57
   21  A    between atoms: O_36  and  C_42
   22  A    between atoms: N_39  and  N_57
   23  A    between atoms: C_54  and  CA_58
                            x       y       z     vdW  Elec       q    Type
                         _______ _______ _______ _____ _____    ______ ____

>  <TORSDO>
F 23

$$$$
