=
 OpenBabel11052410453D

 35 38  0  0  1  0  0  0  0  0999 V2000
  161.5270  208.4630  156.1100 C   0  0  0  0  0  3  0  0  0  0  0  0
  161.1890  209.1770  153.7930 C   0  0  2  0  0  3  0  0  0  0  0  0
  161.7270  210.5000  154.1260 C   0  0  0  0  0  3  0  0  0  0  0  0
  160.8500  206.9190  154.2350 C   0  0  0  0  0  2  0  0  0  0  0  0
  161.1950  207.0910  152.9620 C   0  0  0  0  0  0  0  0  0  0  0  0
  162.1390  209.5960  156.3330 N   0  0  0  0  0  0  0  0  0  0  0  0
  162.1600  210.6820  155.3790 C   0  0  0  0  0  3  0  0  0  0  0  0
  160.6970  208.2680  154.8700 C   0  0  1  0  0  3  0  0  0  0  0  0
  161.4170  208.5060  152.6750 C   0  0  0  0  0  0  0  0  0  0  0  0
  161.7560  210.3470  149.3190 C   0  0  2  0  0  3  0  0  0  0  0  0
  161.3430  210.6950  151.0290 S   0  0  0  0  0  0  0  0  0  0  0  0
  161.9980  209.0710  149.0560 C   0  0  0  0  0  2  0  0  0  0  0  0
  161.8850  208.1760  150.2350 C   0  0  0  0  0  2  0  0  0  0  0  0
  162.0620  209.0790  151.4500 C   0  0  2  0  0  3  0  0  0  0  0  0
  163.1630  212.0690  148.1990 C   0  0  0  0  0  3  0  0  0  0  0  0
  161.9300  211.4160  148.3150 C   0  0  0  0  0  0  0  0  0  0  0  0
  161.0670  212.7820  146.4950 C   0  0  0  0  0  0  0  0  0  0  0  0
  160.8830  211.7810  147.4560 C   0  0  0  0  0  3  0  0  0  0  0  0
  160.0120  213.1310  145.6610 O   0  0  0  0  0  1  0  0  0  0  0  0
  163.3510  213.0640  147.2360 C   0  0  0  0  0  3  0  0  0  0  0  0
  162.3060  213.4240  146.3750 C   0  0  0  0  0  0  0  0  0  0  0  0
  162.4870  214.4460  145.3880 N   0  0  0  0  0  2  0  0  0  0  0  0
  163.1970  214.2200  144.1380 C   0  0  0  0  0  2  0  0  0  0  0  0
  162.7830  212.8850  143.5520 C   0  0  0  0  0  1  0  0  0  0  0  0
  161.4680  206.0310  152.0420 N   0  0  0  0  0  2  0  0  0  0  0  0
  161.2210  204.6380  152.3650 C   0  0  0  0  0  2  0  0  0  0  0  0
  161.6770  203.7630  151.2140 C   0  0  0  0  0  2  0  0  0  0  0  0
  160.5190  203.5380  150.2660 C   0  0  0  0  0  2  0  0  0  0  0  0
  161.4610  204.4620  148.1190 N   0  0  0  0  0  2  0  0  0  0  0  0
  161.0260  203.3360  148.8840 C   0  0  0  0  0  0  0  0  0  0  0  0
  161.0420  202.1770  148.3900 O   0  0  0  0  0  0  0  0  0  0  0  0
  162.0490  204.3300  146.7920 C   0  0  0  0  0  2  0  0  0  0  0  0
  161.6640  205.4940  145.9380 C   0  0  0  0  0  0  0  0  0  0  0  0
  162.2200  205.6580  144.7950 N   0  0  0  0  0  2  0  0  0  0  0  0
  160.5340  206.3710  146.3420 C   0  0  0  0  0  1  0  0  0  0  0  0
  1  6  2  0  0  0  0
  2  3  1  1  0  0  0
  2  8  1  0  0  0  0
  3  7  2  0  0  0  0
  5  4  1  0  0  0  0
  7  6  1  0  0  0  0
  8  4  1  6  0  0  0
  8  1  1  0  0  0  0
  9  5  2  0  0  0  0
  9  2  1  0  0  0  0
 10 16  1  1  0  0  0
 10 11  1  0  0  0  0
 11 14  1  0  0  0  0
 12 10  1  0  0  0  0
 12 13  1  0  0  0  0
 13 14  1  0  0  0  0
 14  9  1  1  0  0  0
 15 16  1  0  0  0  0
 17 18  1  0  0  0  0
 18 16  2  0  0  0  0
 19 17  1  0  0  0  0
 20 15  2  0  0  0  0
 21 17  2  0  0  0  0
 21 20  1  0  0  0  0
 22 21  1  0  0  0  0
 23 22  1  0  0  0  0
 24 23  1  0  0  0  0
 25 26  1  0  0  0  0
 25  5  1  0  0  0  0
 27 26  1  0  0  0  0
 28 27  1  0  0  0  0
 29 30  1  0  0  0  0
 30 28  1  0  0  0  0
 31 30  2  0  0  0  0
 32 29  1  0  0  0  0
 33 35  1  0  0  0  0
 33 32  1  0  0  0  0
 34 33  2  0  0  0  0
M  END
>  <MODEL>
1

>  <REMARK>
 VINA RESULT:      -7.8      0.000      0.000
  Name = 
  11 active torsions:
  status: ('A' for Active; 'I' for Inactive)
    1  A    between atoms: C_3  and  C_8
    2  A    between atoms: C_4  and  N_9
    3  A    between atoms: N_6  and  C_26
    4  A    between atoms: C_7  and  C_30
    5  A    between atoms: N_9  and  C_25
    6  A    between atoms: C_12  and  C_17
    7  A    between atoms: C_12  and  N_19
    8  A    between atoms: C_14  and  C_26
    9  A    between atoms: C_17  and  C_30
   10  A    between atoms: N_19  and  C_27
   11  A    between atoms: C_32  and  C_35
                            x       y       z     vdW  Elec       q    Type
                         _______ _______ _______ _____ _____    ______ ____

>  <TORSDO>
F 11

$$$$
=
 OpenBabel11052410453D

 35 38  0  0  1  0  0  0  0  0999 V2000
  160.4150  209.6190  156.9430 C   0  0  0  0  0  3  0  0  0  0  0  0
  161.2230  208.9150  154.7420 C   0  0  2  0  0  3  0  0  0  0  0  0
  160.9420  207.5180  155.0880 C   0  0  0  0  0  3  0  0  0  0  0  0
  161.0010  211.2060  155.0740 C   0  0  0  0  0  2  0  0  0  0  0  0
  160.8840  210.9160  153.7800 C   0  0  0  0  0  0  0  0  0  0  0  0
  160.0380  208.3870  157.1590 N   0  0  0  0  0  0  0  0  0  0  0  0
  160.3870  207.2900  156.2840 C   0  0  0  0  0  3  0  0  0  0  0  0
  161.3510  209.9490  155.8100 C   0  0  1  0  0  3  0  0  0  0  0  0
  161.0160  209.4780  153.5620 C   0  0  0  0  0  0  0  0  0  0  0  0
  161.3730  206.9610  150.6800 C   0  0  2  0  0  3  0  0  0  0  0  0
  161.1240  206.9730  152.4560 S   0  0  0  0  0  0  0  0  0  0  0  0
  161.5210  208.1590  150.1330 C   0  0  0  0  0  2  0  0  0  0  0  0
  161.4460  209.2820  151.1010 C   0  0  0  0  0  2  0  0  0  0  0  0
  160.6890  208.7320  152.3040 C   0  0  2  0  0  3  0  0  0  0  0  0
  161.5770  205.7590  148.5090 C   0  0  0  0  0  3  0  0  0  0  0  0
  161.2980  205.7210  149.8810 C   0  0  0  0  0  0  0  0  0  0  0  0
  160.9210  203.3230  149.7100 C   0  0  0  0  0  0  0  0  0  0  0  0
  160.9690  204.4940  150.4740 C   0  0  0  0  0  3  0  0  0  0  0  0
  160.5850  202.1210  150.3200 O   0  0  0  0  0  1  0  0  0  0  0  0
  161.5360  204.5900  147.7440 C   0  0  0  0  0  3  0  0  0  0  0  0
  161.2120  203.3640  148.3400 C   0  0  0  0  0  0  0  0  0  0  0  0
  161.1630  202.1610  147.5650 N   0  0  0  0  0  2  0  0  0  0  0  0
  160.7910  202.1420  146.1580 C   0  0  0  0  0  2  0  0  0  0  0  0
  160.5140  200.7160  145.7260 C   0  0  0  0  0  1  0  0  0  0  0  0
  160.5210  211.8550  152.7650 N   0  0  0  0  0  2  0  0  0  0  0  0
  159.1520  212.0230  152.3140 C   0  0  0  0  0  2  0  0  0  0  0  0
  158.8240  213.5010  152.2350 C   0  0  0  0  0  2  0  0  0  0  0  0
  157.6960  213.7110  151.2480 C   0  0  0  0  0  2  0  0  0  0  0  0
  159.6460  213.8680  149.6600 N   0  0  0  0  0  2  0  0  0  0  0  0
  158.2470  214.0260  149.9040 C   0  0  0  0  0  0  0  0  0  0  0  0
  157.4810  214.4530  149.0000 O   0  0  0  0  0  0  0  0  0  0  0  0
  160.2420  214.0740  148.3460 C   0  0  0  0  0  2  0  0  0  0  0  0
  161.5580  213.3700  148.2590 C   0  0  0  0  0  0  0  0  0  0  0  0
  162.6440  214.0500  148.2340 N   0  0  0  0  0  2  0  0  0  0  0  0
  161.6160  211.8890  148.3570 C   0  0  0  0  0  1  0  0  0  0  0  0
  1  6  2  0  0  0  0
  2  3  1  1  0  0  0
  2  8  1  0  0  0  0
  3  7  2  0  0  0  0
  5  4  1  0  0  0  0
  7  6  1  0  0  0  0
  8  4  1  6  0  0  0
  8  1  1  0  0  0  0
  9  5  2  0  0  0  0
  9  2  1  0  0  0  0
 10 16  1  6  0  0  0
 10 11  1  0  0  0  0
 12 10  1  0  0  0  0
 12 13  1  0  0  0  0
 13 14  1  0  0  0  0
 14 11  1  0  0  0  0
 14  9  1  1  0  0  0
 15 16  1  0  0  0  0
 16 18  2  0  0  0  0
 17 19  1  0  0  0  0
 17 18  1  0  0  0  0
 20 21  1  0  0  0  0
 20 15  2  0  0  0  0
 21 17  2  0  0  0  0
 22 21  1  0  0  0  0
 23 22  1  0  0  0  0
 24 23  1  0  0  0  0
 25  5  1  0  0  0  0
 26 25  1  0  0  0  0
 27 26  1  0  0  0  0
 28 27  1  0  0  0  0
 29 30  1  0  0  0  0
 30 28  1  0  0  0  0
 31 30  2  0  0  0  0
 32 29  1  0  0  0  0
 33 32  1  0  0  0  0
 33 35  1  0  0  0  0
 34 33  2  0  0  0  0
M  END
>  <MODEL>
2

>  <REMARK>
 VINA RESULT:      -7.2      2.664      7.796
  Name = 
  11 active torsions:
  status: ('A' for Active; 'I' for Inactive)
    1  A    between atoms: C_3  and  C_8
    2  A    between atoms: C_4  and  N_9
    3  A    between atoms: N_6  and  C_26
    4  A    between atoms: C_7  and  C_30
    5  A    between atoms: N_9  and  C_25
    6  A    between atoms: C_12  and  C_17
    7  A    between atoms: C_12  and  N_19
    8  A    between atoms: C_14  and  C_26
    9  A    between atoms: C_17  and  C_30
   10  A    between atoms: N_19  and  C_27
   11  A    between atoms: C_32  and  C_35
                            x       y       z     vdW  Elec       q    Type
                         _______ _______ _______ _____ _____    ______ ____

>  <TORSDO>
F 11

$$$$
=
 OpenBabel11052410453D

 35 38  0  0  1  0  0  0  0  0999 V2000
  160.8550  203.6210  151.1420 C   0  0  0  0  0  3  0  0  0  0  0  0
  161.6820  205.8970  150.7830 C   0  0  2  0  0  3  0  0  0  0  0  0
  161.4450  205.7530  149.3430 C   0  0  0  0  0  3  0  0  0  0  0  0
  161.3880  205.2460  152.9960 C   0  0  0  0  0  2  0  0  0  0  0  0
  161.2780  206.5670  152.8880 C   0  0  0  0  0  0  0  0  0  0  0  0
  160.5170  203.5830  149.8810 N   0  0  0  0  0  0  0  0  0  0  0  0
  160.8990  204.6030  148.9300 C   0  0  0  0  0  3  0  0  0  0  0  0
  161.7780  204.6930  151.6590 C   0  0  1  0  0  3  0  0  0  0  0  0
  161.4550  206.9870  151.5000 C   0  0  0  0  0  0  0  0  0  0  0  0
  161.9820  210.2970  149.6200 C   0  0  2  0  0  3  0  0  0  0  0  0
  161.8990  208.5370  149.2850 S   0  0  0  0  0  0  0  0  0  0  0  0
  161.8660  210.6230  150.8990 C   0  0  0  0  0  2  0  0  0  0  0  0
  161.6840  209.4630  151.8080 C   0  0  0  0  0  2  0  0  0  0  0  0
  161.1500  208.3380  150.9290 C   0  0  2  0  0  3  0  0  0  0  0  0
  163.2610  211.9600  148.2800 C   0  0  0  0  0  3  0  0  0  0  0  0
  162.0520  211.3040  148.5420 C   0  0  0  0  0  0  0  0  0  0  0  0
  161.0160  212.5470  146.7240 C   0  0  0  0  0  0  0  0  0  0  0  0
  160.9310  211.6060  147.7570 C   0  0  0  0  0  3  0  0  0  0  0  0
  159.8880  212.8340  145.9650 O   0  0  0  0  0  1  0  0  0  0  0  0
  163.3520  212.8960  147.2460 C   0  0  0  0  0  3  0  0  0  0  0  0
  162.2310  213.1920  146.4590 C   0  0  0  0  0  0  0  0  0  0  0  0
  162.3110  214.1520  145.4000 N   0  0  0  0  0  2  0  0  0  0  0  0
  163.1080  213.9410  144.2000 C   0  0  0  0  0  2  0  0  0  0  0  0
  162.5180  212.8030  143.3920 C   0  0  0  0  0  1  0  0  0  0  0  0
  160.8850  207.4410  153.9490 N   0  0  0  0  0  2  0  0  0  0  0  0
  160.3550  206.9470  155.2070 C   0  0  0  0  0  2  0  0  0  0  0  0
  159.9720  208.1190  156.0890 C   0  0  0  0  0  2  0  0  0  0  0  0
  160.9130  209.2740  155.8230 C   0  0  0  0  0  2  0  0  0  0  0  0
  160.3900  211.5290  154.8250 N   0  0  0  0  0  2  0  0  0  0  0  0
  160.1620  210.5570  155.8470 C   0  0  0  0  0  0  0  0  0  0  0  0
  159.3500  210.7860  156.7830 O   0  0  0  0  0  0  0  0  0  0  0  0
  159.6300  212.7690  154.7370 C   0  0  0  0  0  2  0  0  0  0  0  0
  158.5890  212.6630  153.6700 C   0  0  0  0  0  0  0  0  0  0  0  0
  157.7150  213.5910  153.5370 N   0  0  0  0  0  2  0  0  0  0  0  0
  158.6590  211.5660  152.6710 C   0  0  0  0  0  1  0  0  0  0  0  0
  2  3  1  6  0  0  0
  2  9  1  0  0  0  0
  2  8  1  0  0  0  0
  5  4  1  0  0  0  0
  5 25  1  0  0  0  0
  6  1  2  0  0  0  0
  7  3  2  0  0  0  0
  7  6  1  0  0  0  0
  8  1  1  6  0  0  0
  8  4  1  0  0  0  0
  9  5  2  0  0  0  0
 10 16  1  6  0  0  0
 10 12  1  0  0  0  0
 11 10  1  0  0  0  0
 11 14  1  0  0  0  0
 12 13  1  0  0  0  0
 14  9  1  1  0  0  0
 14 13  1  0  0  0  0
 15 16  1  0  0  0  0
 17 18  1  0  0  0  0
 18 16  2  0  0  0  0
 19 17  1  0  0  0  0
 20 15  2  0  0  0  0
 21 17  2  0  0  0  0
 21 20  1  0  0  0  0
 22 21  1  0  0  0  0
 23 22  1  0  0  0  0
 24 23  1  0  0  0  0
 25 26  1  0  0  0  0
 26 27  1  0  0  0  0
 28 30  1  0  0  0  0
 28 27  1  0  0  0  0
 29 30  1  0  0  0  0
 30 31  2  0  0  0  0
 32 29  1  0  0  0  0
 33 32  1  0  0  0  0
 34 33  2  0  0  0  0
 35 33  1  0  0  0  0
M  END
>  <MODEL>
3

>  <REMARK>
 VINA RESULT:      -7.2      2.771      6.080
  Name = 
  11 active torsions:
  status: ('A' for Active; 'I' for Inactive)
    1  A    between atoms: C_3  and  C_8
    2  A    between atoms: C_4  and  N_9
    3  A    between atoms: N_6  and  C_26
    4  A    between atoms: C_7  and  C_30
    5  A    between atoms: N_9  and  C_25
    6  A    between atoms: C_12  and  C_17
    7  A    between atoms: C_12  and  N_19
    8  A    between atoms: C_14  and  C_26
    9  A    between atoms: C_17  and  C_30
   10  A    between atoms: N_19  and  C_27
   11  A    between atoms: C_32  and  C_35
                            x       y       z     vdW  Elec       q    Type
                         _______ _______ _______ _____ _____    ______ ____

>  <TORSDO>
F 11

$$$$
=
 OpenBabel11052410453D

 35 38  0  0  1  0  0  0  0  0999 V2000
  161.6940  201.4090  147.4510 C   0  0  0  0  0  3  0  0  0  0  0  0
  160.4910  202.8860  148.9890 C   0  0  2  0  0  3  0  0  0  0  0  0
  160.1920  201.7380  149.8520 C   0  0  0  0  0  3  0  0  0  0  0  0
  161.6740  203.9240  147.2770 C   0  0  0  0  0  2  0  0  0  0  0  0
  161.5540  204.7460  148.3160 C   0  0  0  0  0  0  0  0  0  0  0  0
  161.5410  200.4410  148.3160 N   0  0  0  0  0  0  0  0  0  0  0  0
  160.6970  200.5550  149.4850 C   0  0  0  0  0  3  0  0  0  0  0  0
  160.8930  202.6780  147.5670 C   0  0  1  0  0  3  0  0  0  0  0  0
  160.8180  204.1000  149.4010 C   0  0  0  0  0  0  0  0  0  0  0  0
  161.2580  206.3720  152.4690 C   0  0  2  0  0  3  0  0  0  0  0  0
  160.4510  206.3850  150.8670 S   0  0  0  0  0  0  0  0  0  0  0  0
  161.9680  205.2820  152.7220 C   0  0  0  0  0  2  0  0  0  0  0  0
  161.9520  204.2790  151.6280 C   0  0  0  0  0  2  0  0  0  0  0  0
  160.7010  204.5850  150.8130 C   0  0  2  0  0  3  0  0  0  0  0  0
  160.7410  207.1000  154.7930 C   0  0  0  0  0  3  0  0  0  0  0  0
  161.0460  207.4380  153.4690 C   0  0  0  0  0  0  0  0  0  0  0  0
  160.9800  209.7920  154.0840 C   0  0  0  0  0  0  0  0  0  0  0  0
  161.1630  208.7910  153.1220 C   0  0  0  0  0  3  0  0  0  0  0  0
  161.0940  211.1260  153.7130 O   0  0  0  0  0  1  0  0  0  0  0  0
  160.5640  208.0960  155.7570 C   0  0  0  0  0  3  0  0  0  0  0  0
  160.6870  209.4480  155.4100 C   0  0  0  0  0  0  0  0  0  0  0  0
  160.5030  210.4770  156.3880 N   0  0  0  0  0  2  0  0  0  0  0  0
  159.2160  210.7590  157.0070 C   0  0  0  0  0  2  0  0  0  0  0  0
  158.2590  211.3010  155.9640 C   0  0  0  0  0  1  0  0  0  0  0  0
  162.1920  206.0210  148.4230 N   0  0  0  0  0  2  0  0  0  0  0  0
  161.7900  207.1620  147.6210 C   0  0  0  0  0  2  0  0  0  0  0  0
  162.5380  208.3950  148.0850 C   0  0  0  0  0  2  0  0  0  0  0  0
  161.9810  208.8470  149.4170 C   0  0  0  0  0  2  0  0  0  0  0  0
  162.0390  211.1160  148.3220 N   0  0  0  0  0  2  0  0  0  0  0  0
  162.0340  210.3290  149.5150 C   0  0  0  0  0  0  0  0  0  0  0  0
  162.1010  210.8770  150.6470 O   0  0  0  0  0  0  0  0  0  0  0  0
  162.0040  212.5730  148.3420 C   0  0  0  0  0  2  0  0  0  0  0  0
  161.6090  213.0980  147.0000 C   0  0  0  0  0  0  0  0  0  0  0  0
  162.4860  213.1950  146.0700 N   0  0  0  0  0  2  0  0  0  0  0  0
  160.1790  213.3610  146.6960 C   0  0  0  0  0  1  0  0  0  0  0  0
  1  8  1  0  0  0  0
  1  6  2  0  0  0  0
  2  9  1  0  0  0  0
  2  3  1  1  0  0  0
  4  5  1  0  0  0  0
  5 25  1  0  0  0  0
  5  9  2  0  0  0  0
  6  7  1  0  0  0  0
  7  3  2  0  0  0  0
  8  4  1  1  0  0  0
  8  2  1  0  0  0  0
 10 12  1  0  0  0  0
 10 16  1  1  0  0  0
 11 10  1  0  0  0  0
 13 12  1  0  0  0  0
 14  9  1  6  0  0  0
 14 11  1  0  0  0  0
 14 13  1  0  0  0  0
 15 20  1  0  0  0  0
 16 15  2  0  0  0  0
 17 21  1  0  0  0  0
 18 16  1  0  0  0  0
 18 17  2  0  0  0  0
 19 17  1  0  0  0  0
 21 20  2  0  0  0  0
 21 22  1  0  0  0  0
 22 23  1  0  0  0  0
 24 23  1  0  0  0  0
 26 27  1  0  0  0  0
 26 25  1  0  0  0  0
 27 28  1  0  0  0  0
 28 30  1  0  0  0  0
 29 32  1  0  0  0  0
 29 30  1  0  0  0  0
 30 31  2  0  0  0  0
 33 32  1  0  0  0  0
 34 33  2  0  0  0  0
 35 33  1  0  0  0  0
M  END
>  <MODEL>
4

>  <REMARK>
 VINA RESULT:      -7.1      2.603      8.310
  Name = 
  11 active torsions:
  status: ('A' for Active; 'I' for Inactive)
    1  A    between atoms: C_3  and  C_8
    2  A    between atoms: C_4  and  N_9
    3  A    between atoms: N_6  and  C_26
    4  A    between atoms: C_7  and  C_30
    5  A    between atoms: N_9  and  C_25
    6  A    between atoms: C_12  and  C_17
    7  A    between atoms: C_12  and  N_19
    8  A    between atoms: C_14  and  C_26
    9  A    between atoms: C_17  and  C_30
   10  A    between atoms: N_19  and  C_27
   11  A    between atoms: C_32  and  C_35
                            x       y       z     vdW  Elec       q    Type
                         _______ _______ _______ _____ _____    ______ ____

>  <TORSDO>
F 11

$$$$
=
 OpenBabel11052410453D

 35 38  0  0  1  0  0  0  0  0999 V2000
  159.7970  210.1480  154.9230 C   0  0  0  0  0  3  0  0  0  0  0  0
  161.4200  208.5510  154.0260 C   0  0  2  0  0  3  0  0  0  0  0  0
  160.8940  207.5160  154.9220 C   0  0  0  0  0  3  0  0  0  0  0  0
  161.2780  210.5990  152.9340 C   0  0  0  0  0  2  0  0  0  0  0  0
  161.7130  209.6610  152.0960 C   0  0  0  0  0  0  0  0  0  0  0  0
  159.2550  209.1660  155.5950 N   0  0  0  0  0  0  0  0  0  0  0  0
  159.8530  207.8540  155.6930 C   0  0  0  0  0  3  0  0  0  0  0  0
  161.1580  209.9940  154.2990 C   0  0  1  0  0  3  0  0  0  0  0  0
  161.8000  208.3680  152.7710 C   0  0  0  0  0  0  0  0  0  0  0  0
  161.1900  205.4010  150.4060 C   0  0  2  0  0  3  0  0  0  0  0  0
  161.6790  207.1250  150.3320 S   0  0  0  0  0  0  0  0  0  0  0  0
  160.9040  204.9580  151.6220 C   0  0  0  0  0  2  0  0  0  0  0  0
  161.0480  205.9790  152.6900 C   0  0  0  0  0  2  0  0  0  0  0  0
  161.9920  207.0320  152.1210 C   0  0  2  0  0  3  0  0  0  0  0  0
  160.8080  203.1870  149.3340 C   0  0  0  0  0  3  0  0  0  0  0  0
  161.2230  204.5200  149.2220 C   0  0  0  0  0  0  0  0  0  0  0  0
  161.6550  204.1570  146.8540 C   0  0  0  0  0  0  0  0  0  0  0  0
  161.6470  204.9970  147.9730 C   0  0  0  0  0  3  0  0  0  0  0  0
  162.0870  204.6530  145.6300 O   0  0  0  0  0  1  0  0  0  0  0  0
  160.8080  202.3470  148.2160 C   0  0  0  0  0  3  0  0  0  0  0  0
  161.2270  202.8280  146.9690 C   0  0  0  0  0  0  0  0  0  0  0  0
  161.2350  201.9750  145.8180 N   0  0  0  0  0  2  0  0  0  0  0  0
  160.0190  201.4380  145.2240 C   0  0  0  0  0  2  0  0  0  0  0  0
  159.2930  202.5350  144.4730 C   0  0  0  0  0  1  0  0  0  0  0  0
  161.9150  209.8520  150.6930 N   0  0  0  0  0  2  0  0  0  0  0  0
  162.0300  211.1700  150.0970 C   0  0  0  0  0  2  0  0  0  0  0  0
  162.0720  211.0390  148.5870 C   0  0  0  0  0  2  0  0  0  0  0  0
  162.3330  212.3980  147.9740 C   0  0  0  0  0  2  0  0  0  0  0  0
  160.0010  212.3510  147.0190 N   0  0  0  0  0  2  0  0  0  0  0  0
  161.3910  212.6370  146.8500 C   0  0  0  0  0  0  0  0  0  0  0  0
  161.8300  213.0670  145.7490 O   0  0  0  0  0  0  0  0  0  0  0  0
  159.0090  212.6410  145.9920 C   0  0  0  0  0  2  0  0  0  0  0  0
  157.6970  212.9780  146.6220 C   0  0  0  0  0  0  0  0  0  0  0  0
  157.4970  212.7120  147.8610 N   0  0  0  0  0  2  0  0  0  0  0  0
  156.6850  213.7570  145.8630 C   0  0  0  0  0  1  0  0  0  0  0  0
  1  6  2  0  0  0  0
  2  8  1  0  0  0  0
  2  3  1  6  0  0  0
  3  7  2  0  0  0  0
  5  9  2  0  0  0  0
  5  4  1  0  0  0  0
  6  7  1  0  0  0  0
  8  4  1  6  0  0  0
  8  1  1  0  0  0  0
  9  2  1  0  0  0  0
 10 16  1  1  0  0  0
 10 12  1  0  0  0  0
 11 10  1  0  0  0  0
 11 14  1  0  0  0  0
 12 13  1  0  0  0  0
 14 13  1  0  0  0  0
 14  9  1  1  0  0  0
 16 15  1  0  0  0  0
 17 21  2  0  0  0  0
 17 18  1  0  0  0  0
 18 16  2  0  0  0  0
 19 17  1  0  0  0  0
 20 15  2  0  0  0  0
 21 20  1  0  0  0  0
 22 21  1  0  0  0  0
 23 22  1  0  0  0  0
 24 23  1  0  0  0  0
 25  5  1  0  0  0  0
 26 25  1  0  0  0  0
 27 26  1  0  0  0  0
 28 27  1  0  0  0  0
 30 29  1  0  0  0  0
 30 28  1  0  0  0  0
 31 30  2  0  0  0  0
 32 33  1  0  0  0  0
 32 29  1  0  0  0  0
 33 34  2  0  0  0  0
 35 33  1  0  0  0  0
M  END
>  <MODEL>
5

>  <REMARK>
 VINA RESULT:      -7.0      2.460      7.493
  Name = 
  11 active torsions:
  status: ('A' for Active; 'I' for Inactive)
    1  A    between atoms: C_3  and  C_8
    2  A    between atoms: C_4  and  N_9
    3  A    between atoms: N_6  and  C_26
    4  A    between atoms: C_7  and  C_30
    5  A    between atoms: N_9  and  C_25
    6  A    between atoms: C_12  and  C_17
    7  A    between atoms: C_12  and  N_19
    8  A    between atoms: C_14  and  C_26
    9  A    between atoms: C_17  and  C_30
   10  A    between atoms: N_19  and  C_27
   11  A    between atoms: C_32  and  C_35
                            x       y       z     vdW  Elec       q    Type
                         _______ _______ _______ _____ _____    ______ ____

>  <TORSDO>
F 11

$$$$
=
 OpenBabel11052410453D

 35 38  0  0  1  0  0  0  0  0999 V2000
  159.6690  210.6070  154.8330 C   0  0  0  0  0  3  0  0  0  0  0  0
  161.3800  209.0660  154.0050 C   0  0  2  0  0  3  0  0  0  0  0  0
  161.0200  208.1060  155.0540 C   0  0  0  0  0  3  0  0  0  0  0  0
  160.9640  210.9420  152.6960 C   0  0  0  0  0  2  0  0  0  0  0  0
  161.4340  209.9510  151.9420 C   0  0  0  0  0  0  0  0  0  0  0  0
  159.2730  209.6720  155.6550 N   0  0  0  0  0  0  0  0  0  0  0  0
  160.0040  208.4410  155.8590 C   0  0  0  0  0  3  0  0  0  0  0  0
  160.9950  210.5020  154.1280 C   0  0  1  0  0  3  0  0  0  0  0  0
  161.6930  208.7650  152.7550 C   0  0  0  0  0  0  0  0  0  0  0  0
  161.1100  205.3790  151.0330 C   0  0  2  0  0  3  0  0  0  0  0  0
  161.2300  207.1190  150.6140 S   0  0  0  0  0  0  0  0  0  0  0  0
  161.2110  205.1130  152.3270 C   0  0  0  0  0  2  0  0  0  0  0  0
  161.4110  206.3110  153.1800 C   0  0  0  0  0  2  0  0  0  0  0  0
  161.9740  207.3820  152.2520 C   0  0  2  0  0  3  0  0  0  0  0  0
  161.4000  204.6050  148.6850 C   0  0  0  0  0  3  0  0  0  0  0  0
  161.0250  204.3230  150.0040 C   0  0  0  0  0  0  0  0  0  0  0  0
  160.5350  202.0320  149.3460 C   0  0  0  0  0  0  0  0  0  0  0  0
  160.5910  203.0290  150.3260 C   0  0  0  0  0  3  0  0  0  0  0  0
  160.0940  200.7600  149.6890 O   0  0  0  0  0  1  0  0  0  0  0  0
  161.3510  203.6100  147.7050 C   0  0  0  0  0  3  0  0  0  0  0  0
  160.9230  202.3160  148.0300 C   0  0  0  0  0  0  0  0  0  0  0  0
  160.8640  201.2900  147.0330 N   0  0  0  0  0  2  0  0  0  0  0  0
  161.5580  200.0170  147.1670 C   0  0  0  0  0  2  0  0  0  0  0  0
  161.4530  199.2420  145.8690 C   0  0  0  0  0  1  0  0  0  0  0  0
  161.5240  209.9850  150.5160 N   0  0  0  0  0  2  0  0  0  0  0  0
  162.3480  210.9490  149.8110 C   0  0  0  0  0  2  0  0  0  0  0  0
  161.6230  211.4200  148.5660 C   0  0  0  0  0  2  0  0  0  0  0  0
  162.5290  212.3400  147.7760 C   0  0  0  0  0  2  0  0  0  0  0  0
  162.4480  213.3050  145.4490 N   0  0  0  0  0  2  0  0  0  0  0  0
  161.7710  212.9650  146.6610 C   0  0  0  0  0  0  0  0  0  0  0  0
  160.5440  213.2130  146.8030 O   0  0  0  0  0  0  0  0  0  0  0  0
  161.7530  213.8390  144.2850 C   0  0  0  0  0  2  0  0  0  0  0  0
  161.3210  212.7270  143.3860 C   0  0  0  0  0  0  0  0  0  0  0  0
  162.1540  212.2180  142.5550 N   0  0  0  0  0  2  0  0  0  0  0  0
  159.9810  212.1090  143.5580 C   0  0  0  0  0  1  0  0  0  0  0  0
  1  6  2  0  0  0  0
  2  8  1  0  0  0  0
  2  3  1  6  0  0  0
  3  7  2  0  0  0  0
  5  4  1  0  0  0  0
  5  9  2  0  0  0  0
  6  7  1  0  0  0  0
  8  4  1  6  0  0  0
  8  1  1  0  0  0  0
  9  2  1  0  0  0  0
 10 16  1  6  0  0  0
 10 12  1  0  0  0  0
 11 10  1  0  0  0  0
 11 14  1  0  0  0  0
 12 13  1  0  0  0  0
 14  9  1  1  0  0  0
 14 13  1  0  0  0  0
 15 16  1  0  0  0  0
 16 18  2  0  0  0  0
 17 19  1  0  0  0  0
 17 18  1  0  0  0  0
 20 21  1  0  0  0  0
 20 15  2  0  0  0  0
 21 17  2  0  0  0  0
 22 23  1  0  0  0  0
 22 21  1  0  0  0  0
 24 23  1  0  0  0  0
 25  5  1  0  0  0  0
 26 25  1  0  0  0  0
 27 26  1  0  0  0  0
 28 27  1  0  0  0  0
 29 30  1  0  0  0  0
 30 31  2  0  0  0  0
 30 28  1  0  0  0  0
 32 29  1  0  0  0  0
 33 35  1  0  0  0  0
 33 32  1  0  0  0  0
 34 33  2  0  0  0  0
M  END
>  <MODEL>
6

>  <REMARK>
 VINA RESULT:      -6.9      2.082      7.971
  Name = 
  11 active torsions:
  status: ('A' for Active; 'I' for Inactive)
    1  A    between atoms: C_3  and  C_8
    2  A    between atoms: C_4  and  N_9
    3  A    between atoms: N_6  and  C_26
    4  A    between atoms: C_7  and  C_30
    5  A    between atoms: N_9  and  C_25
    6  A    between atoms: C_12  and  C_17
    7  A    between atoms: C_12  and  N_19
    8  A    between atoms: C_14  and  C_26
    9  A    between atoms: C_17  and  C_30
   10  A    between atoms: N_19  and  C_27
   11  A    between atoms: C_32  and  C_35
                            x       y       z     vdW  Elec       q    Type
                         _______ _______ _______ _____ _____    ______ ____

>  <TORSDO>
F 11

$$$$
=
 OpenBabel11052410453D

 35 38  0  0  1  0  0  0  0  0999 V2000
  161.8330  210.7430  151.7560 C   0  0  0  0  0  3  0  0  0  0  0  0
  161.0580  208.4840  151.2190 C   0  0  2  0  0  3  0  0  0  0  0  0
  161.5410  208.6480  149.8440 C   0  0  0  0  0  3  0  0  0  0  0  0
  160.9730  209.0960  153.4610 C   0  0  0  0  0  2  0  0  0  0  0  0
  161.0870  207.7750  153.3500 C   0  0  0  0  0  0  0  0  0  0  0  0
  162.3840  210.7970  150.5720 N   0  0  0  0  0  0  0  0  0  0  0  0
  162.1610  209.7970  149.5520 C   0  0  0  0  0  3  0  0  0  0  0  0
  160.8250  209.6750  152.0870 C   0  0  1  0  0  3  0  0  0  0  0  0
  161.1480  207.3800  151.9450 C   0  0  0  0  0  0  0  0  0  0  0  0
  160.8680  204.0560  150.0370 C   0  0  2  0  0  3  0  0  0  0  0  0
  160.9460  205.8170  149.7040 S   0  0  0  0  0  0  0  0  0  0  0  0
  160.8690  203.7350  151.3230 C   0  0  0  0  0  2  0  0  0  0  0  0
  160.9400  204.9000  152.2400 C   0  0  0  0  0  2  0  0  0  0  0  0
  161.5320  206.0350  151.4110 C   0  0  2  0  0  3  0  0  0  0  0  0
  160.8260  201.6850  149.2790 C   0  0  0  0  0  3  0  0  0  0  0  0
  160.9210  203.0460  148.9610 C   0  0  0  0  0  0  0  0  0  0  0  0
  161.0730  202.4570  146.6050 C   0  0  0  0  0  0  0  0  0  0  0  0
  161.0450  203.4230  147.6170 C   0  0  0  0  0  3  0  0  0  0  0  0
  161.2050  202.8570  145.2810 O   0  0  0  0  0  1  0  0  0  0  0  0
  160.8470  200.7180  148.2700 C   0  0  0  0  0  3  0  0  0  0  0  0
  160.9660  201.0980  146.9260 C   0  0  0  0  0  0  0  0  0  0  0  0
  160.9930  200.1150  145.8850 N   0  0  0  0  0  2  0  0  0  0  0  0
  161.5820  198.7950  146.0590 C   0  0  0  0  0  2  0  0  0  0  0  0
  161.2210  197.9190  144.8760 C   0  0  0  0  0  1  0  0  0  0  0  0
  161.2830  206.8800  154.4470 N   0  0  0  0  0  2  0  0  0  0  0  0
  160.2470  206.6120  155.4270 C   0  0  0  0  0  2  0  0  0  0  0  0
  160.1560  207.7720  156.3980 C   0  0  0  0  0  2  0  0  0  0  0  0
  161.5280  208.0540  156.9720 C   0  0  0  0  0  2  0  0  0  0  0  0
  160.6830  210.4260  157.0820 N   0  0  0  0  0  2  0  0  0  0  0  0
  161.7820  209.5180  156.9860 C   0  0  0  0  0  0  0  0  0  0  0  0
  162.9630  209.9460  156.8860 O   0  0  0  0  0  0  0  0  0  0  0  0
  160.8620  211.8680  157.1870 C   0  0  0  0  0  2  0  0  0  0  0  0
  159.9130  212.5750  156.2740 C   0  0  0  0  0  0  0  0  0  0  0  0
  159.2250  213.5640  156.7120 N   0  0  0  0  0  2  0  0  0  0  0  0
  159.8780  212.2340  154.8290 C   0  0  0  0  0  1  0  0  0  0  0  0
  2  3  1  1  0  0  0
  2  9  1  0  0  0  0
  2  8  1  0  0  0  0
  5  4  1  0  0  0  0
  5 25  1  0  0  0  0
  6  1  2  0  0  0  0
  7  3  2  0  0  0  0
  7  6  1  0  0  0  0
  8  1  1  6  0  0  0
  8  4  1  0  0  0  0
  9  5  2  0  0  0  0
 10 16  1  6  0  0  0
 10 12  1  0  0  0  0
 11 10  1  0  0  0  0
 11 14  1  0  0  0  0
 12 13  1  0  0  0  0
 14  9  1  1  0  0  0
 14 13  1  0  0  0  0
 16 15  1  0  0  0  0
 17 21  2  0  0  0  0
 17 18  1  0  0  0  0
 18 16  2  0  0  0  0
 19 17  1  0  0  0  0
 20 15  2  0  0  0  0
 21 20  1  0  0  0  0
 22 23  1  0  0  0  0
 22 21  1  0  0  0  0
 24 23  1  0  0  0  0
 25 26  1  0  0  0  0
 26 27  1  0  0  0  0
 27 28  1  0  0  0  0
 28 30  1  0  0  0  0
 29 32  1  0  0  0  0
 30 29  1  0  0  0  0
 31 30  2  0  0  0  0
 33 34  2  0  0  0  0
 33 32  1  0  0  0  0
 35 33  1  0  0  0  0
M  END
>  <MODEL>
7

>  <REMARK>
 VINA RESULT:      -6.9      3.657      9.050
  Name = 
  11 active torsions:
  status: ('A' for Active; 'I' for Inactive)
    1  A    between atoms: C_3  and  C_8
    2  A    between atoms: C_4  and  N_9
    3  A    between atoms: N_6  and  C_26
    4  A    between atoms: C_7  and  C_30
    5  A    between atoms: N_9  and  C_25
    6  A    between atoms: C_12  and  C_17
    7  A    between atoms: C_12  and  N_19
    8  A    between atoms: C_14  and  C_26
    9  A    between atoms: C_17  and  C_30
   10  A    between atoms: N_19  and  C_27
   11  A    between atoms: C_32  and  C_35
                            x       y       z     vdW  Elec       q    Type
                         _______ _______ _______ _____ _____    ______ ____

>  <TORSDO>
F 11

$$$$
=
 OpenBabel11052410453D

 35 38  0  0  1  0  0  0  0  0999 V2000
  162.1490  208.8210  148.6620 C   0  0  0  0  0  3  0  0  0  0  0  0
  162.1600  208.9770  151.1040 C   0  0  2  0  0  3  0  0  0  0  0  0
  162.0560  210.4370  151.0090 C   0  0  0  0  0  3  0  0  0  0  0  0
  162.0040  206.8360  150.2100 C   0  0  0  0  0  2  0  0  0  0  0  0
  161.4520  206.8690  151.4200 C   0  0  0  0  0  0  0  0  0  0  0  0
  161.9050  210.1040  148.6160 N   0  0  0  0  0  0  0  0  0  0  0  0
  161.9580  210.9580  149.7810 C   0  0  0  0  0  3  0  0  0  0  0  0
  162.6230  208.1730  149.9360 C   0  0  1  0  0  3  0  0  0  0  0  0
  161.5400  208.2120  151.9890 C   0  0  0  0  0  0  0  0  0  0  0  0
  159.9990  210.7050  154.4750 C   0  0  2  0  0  3  0  0  0  0  0  0
  159.7700  210.1460  152.7860 S   0  0  0  0  0  0  0  0  0  0  0  0
  161.0220  210.1500  155.1080 C   0  0  0  0  0  2  0  0  0  0  0  0
  161.7790  209.1660  154.2940 C   0  0  0  0  0  2  0  0  0  0  0  0
  160.8170  208.7180  153.2000 C   0  0  2  0  0  3  0  0  0  0  0  0
  159.3170  212.9940  155.1770 C   0  0  0  0  0  3  0  0  0  0  0  0
  159.0490  211.6200  155.1390 C   0  0  0  0  0  0  0  0  0  0  0  0
  156.9650  212.0220  156.3290 C   0  0  0  0  0  0  0  0  0  0  0  0
  157.8670  211.1420  155.7200 C   0  0  0  0  0  3  0  0  0  0  0  0
  155.8030  211.5210  156.9050 O   0  0  0  0  0  1  0  0  0  0  0  0
  158.4160  213.8770  155.7790 C   0  0  0  0  0  3  0  0  0  0  0  0
  157.2320  213.3970  156.3550 C   0  0  0  0  0  0  0  0  0  0  0  0
  156.3030  214.2920  156.9770 N   0  0  0  0  0  2  0  0  0  0  0  0
  154.8850  214.3120  156.6500 C   0  0  0  0  0  2  0  0  0  0  0  0
  154.7120  214.4530  155.1510 C   0  0  0  0  0  1  0  0  0  0  0  0
  160.7330  205.7870  152.0170 N   0  0  0  0  0  2  0  0  0  0  0  0
  161.4000  204.6550  152.6320 C   0  0  0  0  0  2  0  0  0  0  0  0
  161.4950  203.5200  151.6330 C   0  0  0  0  0  2  0  0  0  0  0  0
  160.3870  203.6580  150.6110 C   0  0  0  0  0  2  0  0  0  0  0  0
  161.0020  204.0260  148.1950 N   0  0  0  0  0  2  0  0  0  0  0  0
  160.8390  203.1310  149.2970 C   0  0  0  0  0  0  0  0  0  0  0  0
  161.0500  201.8970  149.1590 O   0  0  0  0  0  0  0  0  0  0  0  0
  161.5230  203.5960  146.9040 C   0  0  0  0  0  2  0  0  0  0  0  0
  161.3460  204.6780  145.8880 C   0  0  0  0  0  0  0  0  0  0  0  0
  161.1200  204.3720  144.6640 N   0  0  0  0  0  2  0  0  0  0  0  0
  161.2770  206.0980  146.3190 C   0  0  0  0  0  1  0  0  0  0  0  0
  2  3  1  6  0  0  0
  2  9  1  0  0  0  0
  4  5  1  0  0  0  0
  5  9  2  0  0  0  0
  5 25  1  0  0  0  0
  6  1  2  0  0  0  0
  6  7  1  0  0  0  0
  7  3  2  0  0  0  0
  8  1  1  6  0  0  0
  8  4  1  0  0  0  0
  8  2  1  0  0  0  0
 10 12  1  0  0  0  0
 10 16  1  1  0  0  0
 11 14  1  0  0  0  0
 11 10  1  0  0  0  0
 13 12  1  0  0  0  0
 14  9  1  6  0  0  0
 14 13  1  0  0  0  0
 15 20  1  0  0  0  0
 16 15  2  0  0  0  0
 16 18  1  0  0  0  0
 17 21  1  0  0  0  0
 17 19  1  0  0  0  0
 18 17  2  0  0  0  0
 20 21  2  0  0  0  0
 21 22  1  0  0  0  0
 23 22  1  0  0  0  0
 24 23  1  0  0  0  0
 25 26  1  0  0  0  0
 27 26  1  0  0  0  0
 28 27  1  0  0  0  0
 29 30  1  0  0  0  0
 30 28  1  0  0  0  0
 31 30  2  0  0  0  0
 32 29  1  0  0  0  0
 33 35  1  0  0  0  0
 33 32  1  0  0  0  0
 34 33  2  0  0  0  0
M  END
>  <MODEL>
8

>  <REMARK>
 VINA RESULT:      -6.5      3.853      6.761
  Name = 
  11 active torsions:
  status: ('A' for Active; 'I' for Inactive)
    1  A    between atoms: C_3  and  C_8
    2  A    between atoms: C_4  and  N_9
    3  A    between atoms: N_6  and  C_26
    4  A    between atoms: C_7  and  C_30
    5  A    between atoms: N_9  and  C_25
    6  A    between atoms: C_12  and  C_17
    7  A    between atoms: C_12  and  N_19
    8  A    between atoms: C_14  and  C_26
    9  A    between atoms: C_17  and  C_30
   10  A    between atoms: N_19  and  C_27
   11  A    between atoms: C_32  and  C_35
                            x       y       z     vdW  Elec       q    Type
                         _______ _______ _______ _____ _____    ______ ____

>  <TORSDO>
F 11

$$$$
=
 OpenBabel11052410453D

 35 38  0  0  1  0  0  0  0  0999 V2000
  161.7780  206.8050  147.7650 C   0  0  0  0  0  3  0  0  0  0  0  0
  161.9980  206.9660  150.1970 C   0  0  2  0  0  3  0  0  0  0  0  0
  162.0400  208.4290  150.0940 C   0  0  0  0  0  3  0  0  0  0  0  0
  161.5490  204.8510  149.3420 C   0  0  0  0  0  2  0  0  0  0  0  0
  161.1000  204.9460  150.5910 C   0  0  0  0  0  0  0  0  0  0  0  0
  161.6670  208.1060  147.7240 N   0  0  0  0  0  0  0  0  0  0  0  0
  161.9000  208.9540  148.8710 C   0  0  0  0  0  3  0  0  0  0  0  0
  162.2800  206.1140  149.0050 C   0  0  1  0  0  3  0  0  0  0  0  0
  161.3720  206.2740  151.1360 C   0  0  0  0  0  0  0  0  0  0  0  0
  160.8790  208.7130  154.0640 C   0  0  2  0  0  3  0  0  0  0  0  0
  160.6900  208.6680  152.2810 S   0  0  0  0  0  0  0  0  0  0  0  0
  161.3680  207.6030  154.5980 C   0  0  0  0  0  2  0  0  0  0  0  0
  161.6600  206.5330  153.6120 C   0  0  0  0  0  2  0  0  0  0  0  0
  160.8030  206.8560  152.3930 C   0  0  2  0  0  3  0  0  0  0  0  0
  160.3220  209.7230  156.2700 C   0  0  0  0  0  3  0  0  0  0  0  0
  160.4120  209.8530  154.8790 C   0  0  0  0  0  0  0  0  0  0  0  0
  159.6520  212.1570  155.0710 C   0  0  0  0  0  0  0  0  0  0  0  0
  160.0730  211.0770  154.2860 C   0  0  0  0  0  3  0  0  0  0  0  0
  159.3140  213.3570  154.4590 O   0  0  0  0  0  1  0  0  0  0  0  0
  159.9080  210.8020  157.0580 C   0  0  0  0  0  3  0  0  0  0  0  0
  159.5740  212.0260  156.4640 C   0  0  0  0  0  0  0  0  0  0  0  0
  159.1450  213.1350  157.2610 N   0  0  0  0  0  2  0  0  0  0  0  0
  157.7760  213.6320  157.2530 C   0  0  0  0  0  2  0  0  0  0  0  0
  156.8120  212.4630  157.2480 C   0  0  0  0  0  1  0  0  0  0  0  0
  160.3210  203.9470  151.2540 N   0  0  0  0  0  2  0  0  0  0  0  0
  160.8820  202.6780  151.6800 C   0  0  0  0  0  2  0  0  0  0  0  0
  161.5010  201.9740  150.4890 C   0  0  0  0  0  2  0  0  0  0  0  0
  160.4040  201.4900  149.5670 C   0  0  0  0  0  2  0  0  0  0  0  0
  160.7190  202.3280  147.2110 N   0  0  0  0  0  2  0  0  0  0  0  0
  160.9370  201.3120  148.1910 C   0  0  0  0  0  0  0  0  0  0  0  0
  161.5550  200.2550  147.8940 O   0  0  0  0  0  0  0  0  0  0  0  0
  161.2850  202.2610  145.8700 C   0  0  0  0  0  2  0  0  0  0  0  0
  161.5400  203.6380  145.3480 C   0  0  0  0  0  0  0  0  0  0  0  0
  160.5740  204.3230  144.8570 N   0  0  0  0  0  2  0  0  0  0  0  0
  162.8720  204.2700  145.5360 C   0  0  0  0  0  1  0  0  0  0  0  0
  2  3  1  6  0  0  0
  2  9  1  0  0  0  0
  4  5  1  0  0  0  0
  5  9  2  0  0  0  0
  5 25  1  0  0  0  0
  6  1  2  0  0  0  0
  6  7  1  0  0  0  0
  7  3  2  0  0  0  0
  8  1  1  6  0  0  0
  8  4  1  0  0  0  0
  8  2  1  0  0  0  0
 10 12  1  0  0  0  0
 10 16  1  1  0  0  0
 11 14  1  0  0  0  0
 11 10  1  0  0  0  0
 13 12  1  0  0  0  0
 14  9  1  6  0  0  0
 14 13  1  0  0  0  0
 15 20  1  0  0  0  0
 16 15  2  0  0  0  0
 17 21  1  0  0  0  0
 18 16  1  0  0  0  0
 18 17  2  0  0  0  0
 19 17  1  0  0  0  0
 21 20  2  0  0  0  0
 21 22  1  0  0  0  0
 23 22  1  0  0  0  0
 24 23  1  0  0  0  0
 25 26  1  0  0  0  0
 27 26  1  0  0  0  0
 28 27  1  0  0  0  0
 29 30  1  0  0  0  0
 30 28  1  0  0  0  0
 31 30  2  0  0  0  0
 32 29  1  0  0  0  0
 33 35  1  0  0  0  0
 33 32  1  0  0  0  0
 34 33  2  0  0  0  0
M  END
>  <MODEL>
9

>  <REMARK>
 VINA RESULT:      -6.5      3.410      6.758
  Name = 
  11 active torsions:
  status: ('A' for Active; 'I' for Inactive)
    1  A    between atoms: C_3  and  C_8
    2  A    between atoms: C_4  and  N_9
    3  A    between atoms: N_6  and  C_26
    4  A    between atoms: C_7  and  C_30
    5  A    between atoms: N_9  and  C_25
    6  A    between atoms: C_12  and  C_17
    7  A    between atoms: C_12  and  N_19
    8  A    between atoms: C_14  and  C_26
    9  A    between atoms: C_17  and  C_30
   10  A    between atoms: N_19  and  C_27
   11  A    between atoms: C_32  and  C_35
                            x       y       z     vdW  Elec       q    Type
                         _______ _______ _______ _____ _____    ______ ____

>  <TORSDO>
F 11

$$$$
