=
 OpenBabel11052410333D

 40 41  0  0  1  0  0  0  0  0999 V2000
  162.3380  208.5020  150.5570 C   0  0  1  0  0  3  0  0  0  0  0  0
  160.4710  206.4370  148.2770 C   0  0  0  0  0  3  0  0  0  0  0  0
  160.5810  207.1340  149.4230 N   0  0  0  0  0  2  0  0  0  0  0  0
  161.6530  206.5390  147.5750 C   0  0  0  0  0  0  0  0  0  0  0  0
  162.5300  207.3280  148.2860 C   0  0  0  0  0  3  0  0  0  0  0  0
  161.8160  207.6730  149.4200 C   0  0  0  0  0  0  0  0  0  0  0  0
  161.9200  205.9370  146.2370 C   0  0  0  0  0  2  0  0  0  0  0  0
  163.4870  204.3900  145.3010 O   0  0  0  0  0  1  0  0  0  0  0  0
  162.6210  204.5950  146.3770 C   0  0  0  0  0  2  0  0  0  0  0  0
  161.3570  210.6020  151.4010 C   0  0  0  0  0  0  0  0  0  0  0  0
  159.4500  210.0970  152.7250 O   0  0  0  0  0  1  0  0  0  0  0  0
  160.7460  211.8640  152.0010 C   0  0  0  0  0  2  0  0  0  0  0  0
  160.7170  210.6720  152.7860 C   0  0  2  0  0  3  0  0  0  0  0  0
  161.9710  209.9480  150.4150 C   0  0  0  0  0  0  0  0  0  0  0  0
  162.3130  210.6180  149.2000 N   0  0  0  0  0  2  0  0  0  0  0  0
  161.3650  210.8640  148.1920 N   0  0  0  0  0  2  0  0  0  0  0  0
  162.9080  212.7500  147.8800 C   0  0  0  0  0  1  0  0  0  0  0  0
  161.4720  212.2590  147.7700 C   0  0  1  0  0  3  0  0  0  0  0  0
  158.7180  212.5200  147.0370 O   0  0  0  0  0  0  0  0  0  0  0  0
  160.9690  212.4290  146.4120 N   0  0  0  0  0  2  0  0  0  0  0  0
  159.5780  212.5860  146.1200 C   0  0  0  0  0  0  0  0  0  0  0  0
  159.1470  212.8590  144.7220 C   0  0  0  0  0  2  0  0  0  0  0  0
  160.3060  213.4440  143.9390 C   0  0  0  0  0  2  0  0  0  0  0  0
  160.9270  212.4020  143.1400 N   0  0  0  0  0  2  0  0  0  0  0  0
  159.4220  212.6310  141.3680 O   0  0  0  0  0  0  0  0  0  0  0  0
  160.4300  212.0490  141.8500 C   0  0  0  0  0  0  0  0  0  0  0  0
  161.1080  210.9840  141.0660 C   0  0  0  0  0  1  0  0  0  0  0  0
  161.9050  207.9840  151.8520 N   0  0  0  0  0  2  0  0  0  0  0  0
  162.5520  206.7550  152.0500 N   0  0  0  0  0  2  0  0  0  0  0  0
  161.8160  206.0340  153.0790 C   0  0  1  0  0  3  0  0  0  0  0  0
  160.8110  206.9590  153.7570 C   0  0  0  0  0  2  0  0  0  0  0  0
  161.3230  207.3910  155.0440 N   0  0  0  0  0  1  0  0  0  0  0  0
  161.1370  204.8040  152.4790 C   0  0  0  0  0  2  0  0  0  0  0  0
  161.7660  204.3920  151.1530 C   0  0  0  0  0  2  0  0  0  0  0  0
  160.7530  202.0680  151.2900 C   0  0  0  0  0  1  0  0  0  0  0  0
  160.9080  203.3390  150.4640 C   0  0  2  0  0  3  0  0  0  0  0  0
  161.2620  203.1230  149.1100 O   0  0  0  0  0  0  0  0  0  0  0  0
  160.3950  201.8820  146.7820 O   0  0  0  0  0  0  0  0  0  0  0  0
  161.6880  200.6440  148.5910 O   0  0  0  0  0  1  0  0  0  0  0  0
  160.5730  201.6730  148.4650 S   0  0  1  0  0  0  0  0  0  0  0  0
  1 14  1  6  0  0  0
  1 28  1  0  0  0  0
  2  3  1  0  0  0  0
  4  2  2  0  0  0  0
  4  5  1  0  0  0  0
  5  6  2  0  0  0  0
  6  3  1  0  0  0  0
  6  1  1  0  0  0  0
  7  9  1  0  0  0  0
  7  4  1  0  0  0  0
  8  9  1  0  0  0  0
 10 12  1  0  0  0  0
 10 13  1  0  0  0  0
 12 13  1  0  0  0  0
 13 11  1  6  0  0  0
 14 10  2  0  0  0  0
 15 14  1  0  0  0  0
 16 15  1  0  0  0  0
 18 17  1  6  0  0  0
 18 16  1  0  0  0  0
 20 18  1  0  0  0  0
 21 20  1  0  0  0  0
 21 19  2  0  0  0  0
 22 21  1  0  0  0  0
 23 22  1  0  0  0  0
 24 23  1  0  0  0  0
 25 26  2  0  0  0  0
 26 24  1  0  0  0  0
 27 26  1  0  0  0  0
 28 29  1  0  0  0  0
 29 30  1  0  0  0  0
 30 33  1  6  0  0  0
 30 31  1  0  0  0  0
 31 32  1  0  0  0  0
 34 33  1  0  0  0  0
 36 34  1  0  0  0  0
 36 35  1  1  0  0  0
 37 36  1  0  0  0  0
 40 38  2  6  0  0  0
 40 39  1  0  0  0  0
 40 37  1  0  0  0  0
M  END
>  <MODEL>
1

>  <REMARK>
 VINA RESULT:      -6.2      0.000      0.000
  Name = 
  20 active torsions:
  status: ('A' for Active; 'I' for Inactive)
    1  A    between atoms: N_2  and  C_22
    2  A    between atoms: C_4  and  C_27
    3  A    between atoms: C_4  and  C_33
    4  A    between atoms: C_5  and  C_14
    5  A    between atoms: C_5  and  C_28
    6  A    between atoms: C_6  and  N_18
    7  A    between atoms: C_6  and  C_37
    8  A    between atoms: C_6  and  C_40
    9  A    between atoms: C_11  and  N_12
   10  A    between atoms: C_11  and  N_34
   11  A    between atoms: C_14  and  O_20
   12  A    between atoms: C_16  and  C_21
   13  A    between atoms: C_16  and  C_28
   14  A    between atoms: C_16  and  N_30
   15  A    between atoms: N_18  and  N_30
   16  A    between atoms: S_19  and  O_20
   17  A    between atoms: C_22  and  C_26
   18  A    between atoms: C_25  and  C_26
   19  A    between atoms: N_31  and  N_34
   20  A    between atoms: N_31  and  C_37
                            x       y       z     vdW  Elec       q    Type
                         _______ _______ _______ _____ _____    ______ ____

>  <TORSDO>
F 20

$$$$
=
 OpenBabel11052410333D

 40 41  0  0  1  0  0  0  0  0999 V2000
  161.4610  208.8630  149.5920 C   0  0  1  0  0  3  0  0  0  0  0  0
  160.6530  205.9230  147.6810 C   0  0  0  0  0  3  0  0  0  0  0  0
  160.3790  206.8170  148.6480 N   0  0  0  0  0  2  0  0  0  0  0  0
  161.8420  206.2680  147.0760 C   0  0  0  0  0  0  0  0  0  0  0  0
  162.3290  207.4140  147.6630 C   0  0  0  0  0  3  0  0  0  0  0  0
  161.3850  207.7140  148.6280 C   0  0  0  0  0  0  0  0  0  0  0  0
  162.4730  205.5460  145.9330 C   0  0  0  0  0  2  0  0  0  0  0  0
  160.9360  204.3200  144.5700 O   0  0  0  0  0  1  0  0  0  0  0  0
  161.5630  205.5590  144.7150 C   0  0  0  0  0  2  0  0  0  0  0  0
  161.1500  209.0160  152.0340 C   0  0  1  0  0  3  0  0  0  0  0  0
  160.9730  211.3020  152.6570 O   0  0  0  0  0  1  0  0  0  0  0  0
  160.8930  209.1660  153.5300 C   0  0  0  0  0  2  0  0  0  0  0  0
  160.2690  210.1000  152.6490 C   0  0  2  0  0  3  0  0  0  0  0  0
  161.7190  208.4040  150.9950 C   0  0  0  0  0  0  0  0  0  0  0  0
  162.5780  207.2790  151.1940 N   0  0  0  0  0  0  0  0  0  0  0  0
  162.7510  206.6880  152.4570 N   0  0  0  0  0  2  0  0  0  0  0  0
  160.7390  205.5100  153.2350 C   0  0  0  0  0  1  0  0  0  0  0  0
  162.0560  205.4020  152.4790 C   0  0  1  0  0  3  0  0  0  0  0  0
  161.1160  202.7880  151.7920 O   0  0  0  0  0  0  0  0  0  0  0  0
  161.8360  204.9100  151.1240 N   0  0  0  0  0  2  0  0  0  0  0  0
  161.3330  203.6000  150.8530 C   0  0  0  0  0  0  0  0  0  0  0  0
  161.0340  203.2020  149.4510 C   0  0  0  0  0  2  0  0  0  0  0  0
  160.1820  201.9480  149.4490 C   0  0  0  0  0  2  0  0  0  0  0  0
  160.8810  200.8880  148.7440 N   0  0  0  0  0  2  0  0  0  0  0  0
  160.3100  201.6920  146.6260 O   0  0  0  0  0  0  0  0  0  0  0  0
  160.9070  200.8240  147.3190 C   0  0  0  0  0  0  0  0  0  0  0  0
  161.6460  199.7260  146.6440 C   0  0  0  0  0  1  0  0  0  0  0  0
  162.4520  209.8530  149.1820 N   0  0  0  0  0  2  0  0  0  0  0  0
  161.9130  211.1210  149.4480 N   0  0  0  0  0  2  0  0  0  0  0  0
  161.5830  211.7340  148.1690 C   0  0  1  0  0  3  0  0  0  0  0  0
  160.5080  212.7990  148.3540 C   0  0  0  0  0  2  0  0  0  0  0  0
  160.3970  213.1550  149.7560 N   0  0  0  0  0  1  0  0  0  0  0  0
  162.8410  212.3060  147.5170 C   0  0  0  0  0  2  0  0  0  0  0  0
  162.5570  213.6000  146.7630 C   0  0  0  0  0  2  0  0  0  0  0  0
  163.2430  213.3520  144.3300 C   0  0  0  0  0  1  0  0  0  0  0  0
  162.1040  213.2950  145.3410 C   0  0  2  0  0  3  0  0  0  0  0  0
  160.9390  214.0040  144.9580 O   0  0  0  0  0  0  0  0  0  0  0  0
  158.5500  213.8150  143.5550 O   0  0  0  0  0  0  0  0  0  0  0  0
  160.2370  211.9100  143.6450 O   0  0  0  0  0  1  0  0  0  0  0  0
  159.6200  212.9550  144.5670 S   0  0  1  0  0  0  0  0  0  0  0  0
  1 28  1  6  0  0  0
  1 14  1  0  0  0  0
  2  3  1  0  0  0  0
  4  5  1  0  0  0  0
  4  2  2  0  0  0  0
  5  6  2  0  0  0  0
  6  3  1  0  0  0  0
  6  1  1  0  0  0  0
  7  4  1  0  0  0  0
  8  9  1  0  0  0  0
  9  7  1  0  0  0  0
 10 14  1  1  0  0  0
 10 13  1  0  0  0  0
 10 12  1  0  0  0  0
 13 11  1  1  0  0  0
 13 12  1  0  0  0  0
 14 15  2  0  0  0  0
 15 16  1  0  0  0  0
 16 18  1  0  0  0  0
 18 17  1  6  0  0  0
 20 18  1  0  0  0  0
 21 20  1  0  0  0  0
 21 19  2  0  0  0  0
 22 21  1  0  0  0  0
 23 22  1  0  0  0  0
 24 23  1  0  0  0  0
 25 26  2  0  0  0  0
 26 24  1  0  0  0  0
 27 26  1  0  0  0  0
 28 29  1  0  0  0  0
 30 33  1  1  0  0  0
 30 31  1  0  0  0  0
 30 29  1  0  0  0  0
 31 32  1  0  0  0  0
 34 33  1  0  0  0  0
 36 35  1  6  0  0  0
 36 34  1  0  0  0  0
 37 36  1  0  0  0  0
 39 40  1  0  0  0  0
 40 38  2  6  0  0  0
 40 37  1  0  0  0  0
M  END
>  <MODEL>
2

>  <REMARK>
 VINA RESULT:      -6.1      2.893      8.318
  Name = 
  20 active torsions:
  status: ('A' for Active; 'I' for Inactive)
    1  A    between atoms: N_2  and  C_22
    2  A    between atoms: C_4  and  C_27
    3  A    between atoms: C_4  and  C_33
    4  A    between atoms: C_5  and  C_14
    5  A    between atoms: C_5  and  C_28
    6  A    between atoms: C_6  and  N_18
    7  A    between atoms: C_6  and  C_37
    8  A    between atoms: C_6  and  C_40
    9  A    between atoms: C_11  and  N_12
   10  A    between atoms: C_11  and  N_34
   11  A    between atoms: C_14  and  O_20
   12  A    between atoms: C_16  and  C_21
   13  A    between atoms: C_16  and  C_28
   14  A    between atoms: C_16  and  N_30
   15  A    between atoms: N_18  and  N_30
   16  A    between atoms: S_19  and  O_20
   17  A    between atoms: C_22  and  C_26
   18  A    between atoms: C_25  and  C_26
   19  A    between atoms: N_31  and  N_34
   20  A    between atoms: N_31  and  C_37
                            x       y       z     vdW  Elec       q    Type
                         _______ _______ _______ _____ _____    ______ ____

>  <TORSDO>
F 20

$$$$
=
 OpenBabel11052410333D

 40 41  0  0  1  0  0  0  0  0999 V2000
  161.4450  209.2440  152.4900 C   0  0  1  0  0  3  0  0  0  0  0  0
  160.1240  212.0410  154.3290 C   0  0  0  0  0  3  0  0  0  0  0  0
  161.1240  211.1970  154.0160 N   0  0  0  0  0  2  0  0  0  0  0  0
  159.0110  211.7120  153.5840 C   0  0  0  0  0  0  0  0  0  0  0  0
  159.3140  210.6420  152.7720 C   0  0  0  0  0  3  0  0  0  0  0  0
  160.6350  210.3640  153.0760 C   0  0  0  0  0  0  0  0  0  0  0  0
  157.7050  212.4320  153.6150 C   0  0  0  0  0  2  0  0  0  0  0  0
  156.0260  212.8210  155.2730 O   0  0  0  0  0  1  0  0  0  0  0  0
  156.7730  211.8210  154.6470 C   0  0  0  0  0  2  0  0  0  0  0  0
  160.8380  207.8160  154.4070 C   0  0  1  0  0  3  0  0  0  0  0  0
  161.9630  208.5950  156.3490 O   0  0  0  0  0  1  0  0  0  0  0  0
  160.4490  207.0040  155.6380 C   0  0  0  0  0  2  0  0  0  0  0  0
  160.6930  208.4000  155.8100 C   0  0  2  0  0  3  0  0  0  0  0  0
  161.1050  207.9210  153.1050 C   0  0  0  0  0  0  0  0  0  0  0  0
  161.0550  206.7720  152.2560 N   0  0  0  0  0  0  0  0  0  0  0  0
  160.8550  205.4770  152.7670 N   0  0  0  0  0  2  0  0  0  0  0  0
  161.0440  203.1190  152.1030 C   0  0  0  0  0  1  0  0  0  0  0  0
  161.6070  204.5250  151.9520 C   0  0  1  0  0  3  0  0  0  0  0  0
  160.5230  203.0140  149.7770 O   0  0  0  0  0  0  0  0  0  0  0  0
  161.6130  204.9320  150.5520 N   0  0  0  0  0  2  0  0  0  0  0  0
  161.0240  204.1410  149.5180 C   0  0  0  0  0  0  0  0  0  0  0  0
  160.9750  204.6670  148.1270 C   0  0  0  0  0  2  0  0  0  0  0  0
  161.9380  203.8860  147.2550 C   0  0  0  0  0  2  0  0  0  0  0  0
  161.2120  203.2840  146.1490 N   0  0  0  0  0  2  0  0  0  0  0  0
  161.0370  201.1960  147.1810 O   0  0  0  0  0  0  0  0  0  0  0  0
  160.7850  201.9240  146.1830 C   0  0  0  0  0  0  0  0  0  0  0  0
  160.0350  201.3580  145.0320 C   0  0  0  0  0  1  0  0  0  0  0  0
  161.3210  209.1860  151.0370 N   0  0  0  0  0  2  0  0  0  0  0  0
  162.1220  210.2080  150.5050 N   0  0  0  0  0  2  0  0  0  0  0  0
  162.3310  209.9110  149.0950 C   0  0  1  0  0  3  0  0  0  0  0  0
  161.6710  208.5870  148.7280 C   0  0  0  0  0  2  0  0  0  0  0  0
  162.6730  207.6410  148.2730 N   0  0  0  0  0  1  0  0  0  0  0  0
  161.8130  211.0600  148.2310 C   0  0  0  0  0  2  0  0  0  0  0  0
  161.8560  212.3950  148.9660 C   0  0  0  0  0  2  0  0  0  0  0  0
  159.7690  213.4410  149.9640 C   0  0  0  0  0  1  0  0  0  0  0  0
  160.5830  213.1860  148.7020 C   0  0  2  0  0  3  0  0  0  0  0  0
  159.8320  212.6940  147.6060 O   0  0  0  0  0  0  0  0  0  0  0  0
  161.5840  213.4840  145.6010 O   0  0  0  0  0  1  0  0  0  0  0  0
  159.1290  212.9800  145.1520 O   0  0  0  0  0  0  0  0  0  0  0  0
  159.9950  213.6780  146.1920 S   0  0  1  0  0  0  0  0  0  0  0  0
  1 28  1  6  0  0  0
  1  6  1  0  0  0  0
  1 14  1  0  0  0  0
  3  2  1  0  0  0  0
  4  7  1  0  0  0  0
  4  2  2  0  0  0  0
  5  6  2  0  0  0  0
  5  4  1  0  0  0  0
  6  3  1  0  0  0  0
  7  9  1  0  0  0  0
  9  8  1  0  0  0  0
 10 14  1  1  0  0  0
 10 12  1  0  0  0  0
 10 13  1  0  0  0  0
 12 13  1  0  0  0  0
 13 11  1  1  0  0  0
 15 16  1  0  0  0  0
 15 14  2  0  0  0  0
 18 17  1  6  0  0  0
 18 16  1  0  0  0  0
 20 18  1  0  0  0  0
 21 19  2  0  0  0  0
 21 20  1  0  0  0  0
 22 21  1  0  0  0  0
 23 22  1  0  0  0  0
 24 26  1  0  0  0  0
 24 23  1  0  0  0  0
 26 25  2  0  0  0  0
 27 26  1  0  0  0  0
 29 28  1  0  0  0  0
 30 33  1  6  0  0  0
 30 29  1  0  0  0  0
 31 30  1  0  0  0  0
 32 31  1  0  0  0  0
 33 34  1  0  0  0  0
 36 34  1  0  0  0  0
 36 35  1  1  0  0  0
 37 36  1  0  0  0  0
 38 40  1  0  0  0  0
 40 39  2  6  0  0  0
 40 37  1  0  0  0  0
M  END
>  <MODEL>
3

>  <REMARK>
 VINA RESULT:      -6.0      3.545      8.780
  Name = 
  20 active torsions:
  status: ('A' for Active; 'I' for Inactive)
    1  A    between atoms: N_2  and  C_22
    2  A    between atoms: C_4  and  C_27
    3  A    between atoms: C_4  and  C_33
    4  A    between atoms: C_5  and  C_14
    5  A    between atoms: C_5  and  C_28
    6  A    between atoms: C_6  and  N_18
    7  A    between atoms: C_6  and  C_37
    8  A    between atoms: C_6  and  C_40
    9  A    between atoms: C_11  and  N_12
   10  A    between atoms: C_11  and  N_34
   11  A    between atoms: C_14  and  O_20
   12  A    between atoms: C_16  and  C_21
   13  A    between atoms: C_16  and  C_28
   14  A    between atoms: C_16  and  N_30
   15  A    between atoms: N_18  and  N_30
   16  A    between atoms: S_19  and  O_20
   17  A    between atoms: C_22  and  C_26
   18  A    between atoms: C_25  and  C_26
   19  A    between atoms: N_31  and  N_34
   20  A    between atoms: N_31  and  C_37
                            x       y       z     vdW  Elec       q    Type
                         _______ _______ _______ _____ _____    ______ ____

>  <TORSDO>
F 20

$$$$
=
 OpenBabel11052410333D

 40 41  0  0  1  0  0  0  0  0999 V2000
  161.4210  208.8760  152.8200 C   0  0  1  0  0  3  0  0  0  0  0  0
  160.9120  211.7210  154.9630 C   0  0  0  0  0  3  0  0  0  0  0  0
  161.6810  210.7310  154.4740 N   0  0  0  0  0  2  0  0  0  0  0  0
  159.6730  211.6640  154.3630 C   0  0  0  0  0  0  0  0  0  0  0  0
  159.6570  210.6220  153.4640 C   0  0  0  0  0  3  0  0  0  0  0  0
  160.9250  210.0790  153.5680 C   0  0  0  0  0  0  0  0  0  0  0  0
  158.5470  212.6110  154.6090 C   0  0  0  0  0  2  0  0  0  0  0  0
  156.1960  212.8970  154.2760 O   0  0  0  0  0  1  0  0  0  0  0  0
  157.2080  211.9390  154.3580 C   0  0  0  0  0  2  0  0  0  0  0  0
  160.6830  207.5100  154.7370 C   0  0  0  0  0  0  0  0  0  0  0  0
  161.9170  208.1400  156.6660 O   0  0  0  0  0  1  0  0  0  0  0  0
  160.2220  206.7380  155.9680 C   0  0  0  0  0  2  0  0  0  0  0  0
  160.6260  208.0950  156.1450 C   0  0  2  0  0  3  0  0  0  0  0  0
  160.9420  207.5950  153.4320 C   0  0  0  0  0  0  0  0  0  0  0  0
  160.7490  206.4660  152.5760 N   0  0  0  0  0  2  0  0  0  0  0  0
  161.8150  205.8650  151.8850 N   0  0  0  0  0  2  0  0  0  0  0  0
  160.7900  203.9750  153.0770 C   0  0  0  0  0  1  0  0  0  0  0  0
  161.6190  204.4160  151.8790 C   0  0  1  0  0  3  0  0  0  0  0  0
  161.4170  201.7090  150.9750 O   0  0  0  0  0  0  0  0  0  0  0  0
  160.9970  203.9830  150.6320 N   0  0  0  0  0  2  0  0  0  0  0  0
  160.9030  202.6070  150.2570 C   0  0  0  0  0  0  0  0  0  0  0  0
  160.1640  202.2320  149.0210 C   0  0  0  0  0  2  0  0  0  0  0  0
  161.1180  202.2160  147.8440 C   0  0  0  0  0  2  0  0  0  0  0  0
  161.3350  200.8460  147.4140 N   0  0  0  0  0  2  0  0  0  0  0  0
  160.3900  201.1820  145.3030 O   0  0  0  0  0  0  0  0  0  0  0  0
  160.9470  200.3960  146.1170 C   0  0  0  0  0  0  0  0  0  0  0  0
  161.2020  198.9870  145.7190 C   0  0  0  0  0  1  0  0  0  0  0  0
  161.0730  208.9340  151.4040 N   0  0  0  0  0  2  0  0  0  0  0  0
  162.2130  209.3670  150.7080 N   0  0  0  0  0  2  0  0  0  0  0  0
  161.7670  209.9150  149.4350 C   0  0  1  0  0  3  0  0  0  0  0  0
  162.2890  211.3370  149.2580 C   0  0  0  0  0  2  0  0  0  0  0  0
  161.5130  212.0280  148.2460 N   0  0  0  0  0  1  0  0  0  0  0  0
  162.2020  209.0060  148.2870 C   0  0  0  0  0  2  0  0  0  0  0  0
  162.3690  207.5580  148.7350 C   0  0  0  0  0  2  0  0  0  0  0  0
  160.1260  206.3670  148.7710 C   0  0  0  0  0  1  0  0  0  0  0  0
  161.3980  206.6570  147.9840 C   0  0  2  0  0  3  0  0  0  0  0  0
  162.0150  205.5130  147.4190 O   0  0  0  0  0  0  0  0  0  0  0  0
  162.8500  204.1580  145.1440 O   0  0  0  0  0  0  0  0  0  0  0  0
  160.6880  205.5000  145.2200 O   0  0  0  0  0  1  0  0  0  0  0  0
  162.1310  205.6030  145.6950 S   0  0  1  0  0  0  0  0  0  0  0  0
  1 28  1  6  0  0  0
  1 14  1  0  0  0  0
  1  6  1  0  0  0  0
  3  2  1  0  0  0  0
  4  7  1  0  0  0  0
  4  2  2  0  0  0  0
  5  6  2  0  0  0  0
  5  4  1  0  0  0  0
  6  3  1  0  0  0  0
  8  9  1  0  0  0  0
  9  7  1  0  0  0  0
 10 12  1  0  0  0  0
 10 13  1  0  0  0  0
 12 13  1  0  0  0  0
 13 11  1  1  0  0  0
 14 10  2  0  0  0  0
 15 14  1  0  0  0  0
 16 15  1  0  0  0  0
 18 16  1  0  0  0  0
 18 17  1  1  0  0  0
 20 18  1  0  0  0  0
 21 20  1  0  0  0  0
 21 19  2  0  0  0  0
 22 21  1  0  0  0  0
 23 22  1  0  0  0  0
 24 23  1  0  0  0  0
 25 26  2  0  0  0  0
 26 24  1  0  0  0  0
 27 26  1  0  0  0  0
 29 28  1  0  0  0  0
 30 33  1  6  0  0  0
 30 29  1  0  0  0  0
 31 30  1  0  0  0  0
 32 31  1  0  0  0  0
 33 34  1  0  0  0  0
 36 34  1  0  0  0  0
 36 35  1  1  0  0  0
 37 36  1  0  0  0  0
 39 40  1  0  0  0  0
 40 38  2  6  0  0  0
 40 37  1  0  0  0  0
M  END
>  <MODEL>
4

>  <REMARK>
 VINA RESULT:      -5.9      3.472      8.203
  Name = 
  20 active torsions:
  status: ('A' for Active; 'I' for Inactive)
    1  A    between atoms: N_2  and  C_22
    2  A    between atoms: C_4  and  C_27
    3  A    between atoms: C_4  and  C_33
    4  A    between atoms: C_5  and  C_14
    5  A    between atoms: C_5  and  C_28
    6  A    between atoms: C_6  and  N_18
    7  A    between atoms: C_6  and  C_37
    8  A    between atoms: C_6  and  C_40
    9  A    between atoms: C_11  and  N_12
   10  A    between atoms: C_11  and  N_34
   11  A    between atoms: C_14  and  O_20
   12  A    between atoms: C_16  and  C_21
   13  A    between atoms: C_16  and  C_28
   14  A    between atoms: C_16  and  N_30
   15  A    between atoms: N_18  and  N_30
   16  A    between atoms: S_19  and  O_20
   17  A    between atoms: C_22  and  C_26
   18  A    between atoms: C_25  and  C_26
   19  A    between atoms: N_31  and  N_34
   20  A    between atoms: N_31  and  C_37
                            x       y       z     vdW  Elec       q    Type
                         _______ _______ _______ _____ _____    ______ ____

>  <TORSDO>
F 20

$$$$
=
 OpenBabel11052410333D

 40 41  0  0  1  0  0  0  0  0999 V2000
  160.9000  210.8490  152.8380 C   0  0  1  0  0  3  0  0  0  0  0  0
  158.4950  213.4350  153.5270 C   0  0  0  0  0  3  0  0  0  0  0  0
  159.6030  212.9840  152.9120 N   0  0  0  0  0  0  0  0  0  0  0  0
  157.9660  212.4220  154.2970 C   0  0  2  0  0  3  0  0  0  0  0  0
  158.7500  211.2980  154.1600 C   0  0  0  0  0  3  0  0  0  0  0  0
  159.7480  211.6980  153.2900 C   0  0  0  0  0  0  0  0  0  0  0  0
  156.7170  212.5110  155.1070 C   0  0  0  0  0  2  0  0  0  0  0  0
  155.4580  210.6930  156.0190 O   0  0  0  0  0  1  0  0  0  0  0  0
  155.8020  211.3310  154.8260 C   0  0  0  0  0  2  0  0  0  0  0  0
  161.6330  209.8230  154.9580 C   0  0  0  0  0  0  0  0  0  0  0  0
  163.5440  210.9810  155.7660 O   0  0  0  0  0  1  0  0  0  0  0  0
  162.0920  209.2680  156.3020 C   0  0  0  0  0  2  0  0  0  0  0  0
  162.2220  210.6720  156.0810 C   0  0  2  0  0  3  0  0  0  0  0  0
  161.1190  209.6700  153.7370 C   0  0  0  0  0  0  0  0  0  0  0  0
  160.7430  208.3760  153.2620 N   0  0  0  0  0  2  0  0  0  0  0  0
  161.6980  207.4100  152.9000 N   0  0  0  0  0  2  0  0  0  0  0  0
  160.5850  206.3270  154.8050 C   0  0  0  0  0  1  0  0  0  0  0  0
  161.3200  206.1260  153.4860 C   0  0  1  0  0  3  0  0  0  0  0  0
  162.3120  204.1650  151.6530 O   0  0  0  0  0  0  0  0  0  0  0  0
  160.5090  205.3500  152.5560 N   0  0  0  0  0  2  0  0  0  0  0  0
  161.0680  204.3610  151.6870 C   0  0  0  0  0  0  0  0  0  0  0  0
  160.1670  203.5350  150.8390 C   0  0  0  0  0  2  0  0  0  0  0  0
  160.9780  202.4740  150.1210 C   0  0  0  0  0  2  0  0  0  0  0  0
  160.7750  202.5950  148.6880 N   0  0  0  0  0  2  0  0  0  0  0  0
  161.3980  200.3870  148.2450 O   0  0  0  0  0  0  0  0  0  0  0  0
  161.0010  201.4990  147.8030 C   0  0  0  0  0  0  0  0  0  0  0  0
  160.7680  201.6690  146.3450 C   0  0  0  0  0  1  0  0  0  0  0  0
  160.7480  210.4190  151.4510 N   0  0  0  0  0  2  0  0  0  0  0  0
  162.0140  210.4870  150.8490 N   0  0  0  0  0  2  0  0  0  0  0  0
  161.8160  210.4570  149.4070 C   0  0  1  0  0  3  0  0  0  0  0  0
  162.2140  211.7930  148.7900 C   0  0  0  0  0  2  0  0  0  0  0  0
  161.0580  212.6660  148.7060 N   0  0  0  0  0  1  0  0  0  0  0  0
  162.5920  209.2950  148.7900 C   0  0  0  0  0  2  0  0  0  0  0  0
  162.0500  207.9420  149.2370 C   0  0  0  0  0  2  0  0  0  0  0  0
  160.2810  206.2540  148.5520 C   0  0  0  0  0  1  0  0  0  0  0  0
  161.3320  207.2530  148.0850 C   0  0  2  0  0  3  0  0  0  0  0  0
  162.2100  206.7620  147.0880 O   0  0  0  0  0  0  0  0  0  0  0  0
  160.6530  205.9050  144.9550 O   0  0  0  0  0  0  0  0  0  0  0  0
  162.8100  204.7330  145.6320 O   0  0  0  0  0  1  0  0  0  0  0  0
  161.5850  205.3670  146.2780 S   0  0  1  0  0  0  0  0  0  0  0  0
  1 28  1  6  0  0  0
  1  6  1  0  0  0  0
  1 14  1  0  0  0  0
  2  4  1  0  0  0  0
  3  6  1  0  0  0  0
  3  2  2  0  0  0  0
  4  7  1  6  0  0  0
  5  4  1  0  0  0  0
  6  5  2  0  0  0  0
  9  7  1  0  0  0  0
  9  8  1  0  0  0  0
 10 13  1  0  0  0  0
 10 12  1  0  0  0  0
 13 11  1  6  0  0  0
 13 12  1  0  0  0  0
 14 10  2  0  0  0  0
 15 14  1  0  0  0  0
 16 15  1  0  0  0  0
 16 18  1  0  0  0  0
 18 17  1  1  0  0  0
 19 21  2  0  0  0  0
 20 18  1  0  0  0  0
 21 20  1  0  0  0  0
 22 21  1  0  0  0  0
 23 22  1  0  0  0  0
 24 23  1  0  0  0  0
 26 25  2  0  0  0  0
 26 24  1  0  0  0  0
 27 26  1  0  0  0  0
 29 28  1  0  0  0  0
 30 31  1  6  0  0  0
 30 29  1  0  0  0  0
 32 31  1  0  0  0  0
 33 34  1  0  0  0  0
 33 30  1  0  0  0  0
 36 35  1  1  0  0  0
 36 34  1  0  0  0  0
 37 36  1  0  0  0  0
 39 40  1  0  0  0  0
 40 38  2  6  0  0  0
 40 37  1  0  0  0  0
M  END
>  <MODEL>
5

>  <REMARK>
 VINA RESULT:      -5.9      3.358      8.223
  Name = 
  20 active torsions:
  status: ('A' for Active; 'I' for Inactive)
    1  A    between atoms: N_2  and  C_22
    2  A    between atoms: C_4  and  C_27
    3  A    between atoms: C_4  and  C_33
    4  A    between atoms: C_5  and  C_14
    5  A    between atoms: C_5  and  C_28
    6  A    between atoms: C_6  and  N_18
    7  A    between atoms: C_6  and  C_37
    8  A    between atoms: C_6  and  C_40
    9  A    between atoms: C_11  and  N_12
   10  A    between atoms: C_11  and  N_34
   11  A    between atoms: C_14  and  O_20
   12  A    between atoms: C_16  and  C_21
   13  A    between atoms: C_16  and  C_28
   14  A    between atoms: C_16  and  N_30
   15  A    between atoms: N_18  and  N_30
   16  A    between atoms: S_19  and  O_20
   17  A    between atoms: C_22  and  C_26
   18  A    between atoms: C_25  and  C_26
   19  A    between atoms: N_31  and  N_34
   20  A    between atoms: N_31  and  C_37
                            x       y       z     vdW  Elec       q    Type
                         _______ _______ _______ _____ _____    ______ ____

>  <TORSDO>
F 20

$$$$
=
 OpenBabel11052410333D

 40 41  0  0  1  0  0  0  0  0999 V2000
  160.8790  208.7990  153.0250 C   0  0  1  0  0  3  0  0  0  0  0  0
  162.4340  208.3700  149.8090 C   0  0  0  0  0  3  0  0  0  0  0  0
  162.4110  208.8830  151.0530 N   0  0  0  0  0  2  0  0  0  0  0  0
  161.3070  207.6000  149.6210 C   0  0  0  0  0  0  0  0  0  0  0  0
  160.5560  207.6140  150.7750 C   0  0  0  0  0  3  0  0  0  0  0  0
  161.2850  208.4190  151.6310 C   0  0  0  0  0  0  0  0  0  0  0  0
  160.9800  206.8320  148.3850 C   0  0  0  0  0  2  0  0  0  0  0  0
  162.2820  205.3540  147.0270 O   0  0  0  0  0  1  0  0  0  0  0  0
  162.2110  206.6620  147.5100 C   0  0  0  0  0  2  0  0  0  0  0  0
  160.5100  207.7100  155.2080 C   0  0  0  0  0  0  0  0  0  0  0  0
  160.5230  209.3600  156.9160 O   0  0  0  0  0  1  0  0  0  0  0  0
  160.2230  207.0970  156.5750 C   0  0  0  0  0  2  0  0  0  0  0  0
  159.7120  208.4040  156.3090 C   0  0  2  0  0  3  0  0  0  0  0  0
  161.0520  207.6650  153.9910 C   0  0  0  0  0  0  0  0  0  0  0  0
  161.7980  206.5220  153.5670 N   0  0  0  0  0  2  0  0  0  0  0  0
  161.1820  205.2880  153.2990 N   0  0  0  0  0  2  0  0  0  0  0  0
  163.0340  205.0810  151.6970 C   0  0  0  0  0  1  0  0  0  0  0  0
  161.5500  204.8560  151.9520 C   0  0  1  0  0  3  0  0  0  0  0  0
  160.5830  203.7380  149.5020 O   0  0  0  0  0  0  0  0  0  0  0  0
  161.1950  203.4570  151.7420 N   0  0  0  0  0  2  0  0  0  0  0  0
  160.7470  202.9590  150.4790 C   0  0  0  0  0  0  0  0  0  0  0  0
  160.5020  201.5010  150.3100 C   0  0  0  0  0  2  0  0  0  0  0  0
  161.3110  200.9830  149.1370 C   0  0  0  0  0  2  0  0  0  0  0  0
  160.8030  201.5590  147.9040 N   0  0  0  0  0  2  0  0  0  0  0  0
  161.4450  199.7360  146.5920 O   0  0  0  0  0  0  0  0  0  0  0  0
  160.9000  200.8710  146.6590 C   0  0  0  0  0  0  0  0  0  0  0  0
  160.3550  201.4980  145.4270 C   0  0  0  0  0  1  0  0  0  0  0  0
  161.5840  209.9880  153.4940 N   0  0  0  0  0  2  0  0  0  0  0  0
  160.6160  210.9160  153.9060 N   0  0  0  0  0  2  0  0  0  0  0  0
  159.7110  211.1300  152.7850 C   0  0  1  0  0  3  0  0  0  0  0  0
  158.3650  211.6470  153.2820 C   0  0  0  0  0  2  0  0  0  0  0  0
  158.1260  211.1860  154.6370 N   0  0  0  0  0  1  0  0  0  0  0  0
  160.3430  212.0820  151.7710 C   0  0  0  0  0  2  0  0  0  0  0  0
  159.3920  213.2040  151.3680 C   0  0  0  0  0  2  0  0  0  0  0  0
  158.5930  213.8640  149.0490 C   0  0  0  0  0  1  0  0  0  0  0  0
  159.7770  213.7590  150.0030 C   0  0  2  0  0  3  0  0  0  0  0  0
  160.9270  213.1440  149.4500 O   0  0  0  0  0  0  0  0  0  0  0  0
  162.6870  213.3160  147.3090 O   0  0  0  0  0  1  0  0  0  0  0  0
  160.4770  212.0610  147.1650 O   0  0  0  0  0  0  0  0  0  0  0  0
  161.0370  213.3570  147.7360 S   0  0  1  0  0  0  0  0  0  0  0  0
  1 28  1  1  0  0  0
  1 14  1  0  0  0  0
  2  3  1  0  0  0  0
  3  6  1  0  0  0  0
  4  2  2  0  0  0  0
  4  5  1  0  0  0  0
  5  6  2  0  0  0  0
  6  1  1  0  0  0  0
  7  4  1  0  0  0  0
  8  9  1  0  0  0  0
  9  7  1  0  0  0  0
 10 13  1  0  0  0  0
 10 12  1  0  0  0  0
 13 12  1  0  0  0  0
 13 11  1  1  0  0  0
 14 10  2  0  0  0  0
 15 14  1  0  0  0  0
 16 15  1  0  0  0  0
 18 17  1  1  0  0  0
 18 16  1  0  0  0  0
 19 21  2  0  0  0  0
 20 18  1  0  0  0  0
 21 20  1  0  0  0  0
 22 21  1  0  0  0  0
 23 22  1  0  0  0  0
 24 23  1  0  0  0  0
 25 26  2  0  0  0  0
 26 24  1  0  0  0  0
 27 26  1  0  0  0  0
 28 29  1  0  0  0  0
 30 33  1  6  0  0  0
 30 31  1  0  0  0  0
 30 29  1  0  0  0  0
 31 32  1  0  0  0  0
 34 33  1  0  0  0  0
 36 35  1  6  0  0  0
 36 34  1  0  0  0  0
 37 36  1  0  0  0  0
 38 40  1  0  0  0  0
 40 39  2  6  0  0  0
 40 37  1  0  0  0  0
M  END
>  <MODEL>
6

>  <REMARK>
 VINA RESULT:      -5.9      3.849      8.213
  Name = 
  20 active torsions:
  status: ('A' for Active; 'I' for Inactive)
    1  A    between atoms: N_2  and  C_22
    2  A    between atoms: C_4  and  C_27
    3  A    between atoms: C_4  and  C_33
    4  A    between atoms: C_5  and  C_14
    5  A    between atoms: C_5  and  C_28
    6  A    between atoms: C_6  and  N_18
    7  A    between atoms: C_6  and  C_37
    8  A    between atoms: C_6  and  C_40
    9  A    between atoms: C_11  and  N_12
   10  A    between atoms: C_11  and  N_34
   11  A    between atoms: C_14  and  O_20
   12  A    between atoms: C_16  and  C_21
   13  A    between atoms: C_16  and  C_28
   14  A    between atoms: C_16  and  N_30
   15  A    between atoms: N_18  and  N_30
   16  A    between atoms: S_19  and  O_20
   17  A    between atoms: C_22  and  C_26
   18  A    between atoms: C_25  and  C_26
   19  A    between atoms: N_31  and  N_34
   20  A    between atoms: N_31  and  C_37
                            x       y       z     vdW  Elec       q    Type
                         _______ _______ _______ _____ _____    ______ ____

>  <TORSDO>
F 20

$$$$
=
 OpenBabel11052410333D

 40 41  0  0  1  0  0  0  0  0999 V2000
  161.2120  208.1850  149.3250 C   0  0  1  0  0  3  0  0  0  0  0  0
  162.3860  205.8920  146.8130 C   0  0  0  0  0  3  0  0  0  0  0  0
  162.5590  206.5930  147.9480 N   0  0  0  0  0  2  0  0  0  0  0  0
  161.1220  206.1390  146.3210 C   0  0  0  0  0  0  0  0  0  0  0  0
  160.4730  207.0090  147.1700 C   0  0  0  0  0  3  0  0  0  0  0  0
  161.4050  207.2560  148.1620 C   0  0  0  0  0  0  0  0  0  0  0  0
  160.5330  205.5240  145.0970 C   0  0  0  0  0  2  0  0  0  0  0  0
  160.0610  203.2530  144.5120 O   0  0  0  0  0  1  0  0  0  0  0  0
  161.0880  204.1280  144.8710 C   0  0  0  0  0  2  0  0  0  0  0  0
  161.1210  208.1160  151.7890 C   0  0  0  0  0  0  0  0  0  0  0  0
  162.2930  209.9880  152.6650 O   0  0  0  0  0  1  0  0  0  0  0  0
  161.0440  208.1570  153.3120 C   0  0  0  0  0  2  0  0  0  0  0  0
  161.0310  209.4000  152.6100 C   0  0  2  0  0  3  0  0  0  0  0  0
  161.2100  207.4560  150.6340 C   0  0  0  0  0  0  0  0  0  0  0  0
  161.2850  206.0290  150.6160 N   0  0  0  0  0  2  0  0  0  0  0  0
  162.2610  205.3250  151.3420 N   0  0  0  0  0  2  0  0  0  0  0  0
  160.8110  203.9020  152.7250 C   0  0  0  0  0  1  0  0  0  0  0  0
  161.7930  203.9580  151.5640 C   0  0  1  0  0  3  0  0  0  0  0  0
  161.1850  201.1990  151.1060 O   0  0  0  0  0  0  0  0  0  0  0  0
  161.1930  203.4130  150.3520 N   0  0  0  0  0  2  0  0  0  0  0  0
  160.8860  202.0250  150.2020 C   0  0  0  0  0  0  0  0  0  0  0  0
  160.1790  201.5560  148.9800 C   0  0  0  0  0  2  0  0  0  0  0  0
  161.1010  201.6780  147.7830 C   0  0  0  0  0  2  0  0  0  0  0  0
  161.5000  200.3530  147.3410 N   0  0  0  0  0  2  0  0  0  0  0  0
  160.4330  200.5390  145.2700 O   0  0  0  0  0  0  0  0  0  0  0  0
  161.1310  199.8460  146.0590 C   0  0  0  0  0  0  0  0  0  0  0  0
  161.5740  198.4890  145.6490 C   0  0  0  0  0  1  0  0  0  0  0  0
  162.2000  209.2590  149.3340 N   0  0  0  0  0  2  0  0  0  0  0  0
  161.7570  210.2440  148.4370 N   0  0  0  0  0  2  0  0  0  0  0  0
  162.1390  211.5380  148.9850 C   0  0  1  0  0  3  0  0  0  0  0  0
  162.7340  212.4210  147.8940 C   0  0  0  0  0  2  0  0  0  0  0  0
  164.1790  212.2890  147.8830 N   0  0  0  0  0  1  0  0  0  0  0  0
  160.9370  212.2010  149.6570 C   0  0  0  0  0  2  0  0  0  0  0  0
  160.8720  213.6970  149.3670 C   0  0  0  0  0  2  0  0  0  0  0  0
  158.5010  213.6980  150.2750 C   0  0  0  0  0  1  0  0  0  0  0  0
  159.4290  214.1310  149.1470 C   0  0  2  0  0  3  0  0  0  0  0  0
  158.9480  213.8460  147.8460 O   0  0  0  0  0  0  0  0  0  0  0  0
  156.2370  214.4170  147.6500 O   0  0  0  0  0  1  0  0  0  0  0  0
  157.2880  212.3740  146.5520 O   0  0  0  0  0  0  0  0  0  0  0  0
  157.3630  213.1530  147.8590 S   0  0  1  0  0  0  0  0  0  0  0  0
  1 28  1  1  0  0  0
  1 14  1  0  0  0  0
  2  3  1  0  0  0  0
  3  6  1  0  0  0  0
  4  2  2  0  0  0  0
  4  5  1  0  0  0  0
  5  6  2  0  0  0  0
  6  1  1  0  0  0  0
  7  4  1  0  0  0  0
  8  9  1  0  0  0  0
  9  7  1  0  0  0  0
 10 13  1  0  0  0  0
 10 12  1  0  0  0  0
 13 11  1  1  0  0  0
 13 12  1  0  0  0  0
 14 10  2  0  0  0  0
 15 14  1  0  0  0  0
 15 16  1  0  0  0  0
 16 18  1  0  0  0  0
 18 17  1  1  0  0  0
 20 18  1  0  0  0  0
 21 20  1  0  0  0  0
 21 19  2  0  0  0  0
 22 21  1  0  0  0  0
 23 22  1  0  0  0  0
 24 23  1  0  0  0  0
 25 26  2  0  0  0  0
 26 24  1  0  0  0  0
 27 26  1  0  0  0  0
 29 30  1  0  0  0  0
 29 28  1  0  0  0  0
 30 31  1  6  0  0  0
 30 33  1  0  0  0  0
 32 31  1  0  0  0  0
 34 33  1  0  0  0  0
 36 34  1  0  0  0  0
 36 35  1  1  0  0  0
 37 40  1  0  0  0  0
 37 36  1  0  0  0  0
 38 40  1  0  0  0  0
 40 39  2  6  0  0  0
M  END
>  <MODEL>
7

>  <REMARK>
 VINA RESULT:      -5.7      3.436      8.569
  Name = 
  20 active torsions:
  status: ('A' for Active; 'I' for Inactive)
    1  A    between atoms: N_2  and  C_22
    2  A    between atoms: C_4  and  C_27
    3  A    between atoms: C_4  and  C_33
    4  A    between atoms: C_5  and  C_14
    5  A    between atoms: C_5  and  C_28
    6  A    between atoms: C_6  and  N_18
    7  A    between atoms: C_6  and  C_37
    8  A    between atoms: C_6  and  C_40
    9  A    between atoms: C_11  and  N_12
   10  A    between atoms: C_11  and  N_34
   11  A    between atoms: C_14  and  O_20
   12  A    between atoms: C_16  and  C_21
   13  A    between atoms: C_16  and  C_28
   14  A    between atoms: C_16  and  N_30
   15  A    between atoms: N_18  and  N_30
   16  A    between atoms: S_19  and  O_20
   17  A    between atoms: C_22  and  C_26
   18  A    between atoms: C_25  and  C_26
   19  A    between atoms: N_31  and  N_34
   20  A    between atoms: N_31  and  C_37
                            x       y       z     vdW  Elec       q    Type
                         _______ _______ _______ _____ _____    ______ ____

>  <TORSDO>
F 20

$$$$
=
 OpenBabel11052410333D

 40 41  0  0  1  0  0  0  0  0999 V2000
  160.7640  209.9300  152.2470 C   0  0  1  0  0  3  0  0  0  0  0  0
  161.7870  210.6870  155.6120 C   0  0  0  0  0  3  0  0  0  0  0  0
  162.0650  210.3800  154.3320 N   0  0  0  0  0  0  0  0  0  0  0  0
  160.4200  210.7730  155.7660 C   0  0  2  0  0  3  0  0  0  0  0  0
  159.8160  210.5270  154.5530 C   0  0  0  0  0  3  0  0  0  0  0  0
  160.8780  210.2930  153.6990 C   0  0  0  0  0  0  0  0  0  0  0  0
  159.7100  211.1280  157.0290 C   0  0  0  0  0  2  0  0  0  0  0  0
  158.2230  212.8930  156.4030 O   0  0  0  0  0  1  0  0  0  0  0  0
  158.2760  211.5410  156.7470 C   0  0  0  0  0  2  0  0  0  0  0  0
  160.3330  212.2090  151.4070 C   0  0  0  0  0  0  0  0  0  0  0  0
  157.9910  212.6050  151.3890 O   0  0  0  0  0  1  0  0  0  0  0  0
  160.0130  213.6300  150.9540 C   0  0  0  0  0  2  0  0  0  0  0  0
  159.1830  213.0480  151.9580 C   0  0  2  0  0  3  0  0  0  0  0  0
  161.0610  211.0940  151.3500 C   0  0  0  0  0  0  0  0  0  0  0  0
  162.1600  210.9860  150.4430 N   0  0  0  0  0  2  0  0  0  0  0  0
  161.9750  210.6900  149.0810 N   0  0  0  0  0  2  0  0  0  0  0  0
  163.2380  212.4260  147.8850 C   0  0  0  0  0  1  0  0  0  0  0  0
  161.8670  211.9410  148.3340 C   0  0  1  0  0  3  0  0  0  0  0  0
  160.0640  213.9340  147.3500 O   0  0  0  0  0  0  0  0  0  0  0  0
  160.9740  211.7860  147.1910 N   0  0  0  0  0  2  0  0  0  0  0  0
  160.1200  212.8370  146.7330 C   0  0  0  0  0  0  0  0  0  0  0  0
  159.3130  212.6420  145.4980 C   0  0  0  0  0  2  0  0  0  0  0  0
  159.7080  213.6780  144.4650 C   0  0  0  0  0  2  0  0  0  0  0  0
  160.9110  213.2420  143.7770 N   0  0  0  0  0  2  0  0  0  0  0  0
  159.7490  212.3610  141.9510 O   0  0  0  0  0  0  0  0  0  0  0  0
  160.8560  212.5890  142.5100 C   0  0  0  0  0  0  0  0  0  0  0  0
  162.1150  212.1730  141.8400 C   0  0  0  0  0  1  0  0  0  0  0  0
  161.6020  208.7860  151.9030 N   0  0  0  0  0  2  0  0  0  0  0  0
  160.7980  207.6380  151.9780 N   0  0  0  0  0  2  0  0  0  0  0  0
  161.6790  206.5000  152.2000 C   0  0  1  0  0  3  0  0  0  0  0  0
  161.5380  205.9920  153.6310 C   0  0  0  0  0  2  0  0  0  0  0  0
  160.5420  206.7740  154.3390 N   0  0  0  0  0  1  0  0  0  0  0  0
  161.3890  205.4010  151.1790 C   0  0  0  0  0  2  0  0  0  0  0  0
  160.8260  205.9620  149.8780 C   0  0  0  0  0  2  0  0  0  0  0  0
  160.9140  203.4910  149.2980 C   0  0  0  0  0  1  0  0  0  0  0  0
  160.9140  204.9200  148.7700 C   0  0  2  0  0  3  0  0  0  0  0  0
  161.9250  205.1970  147.8180 O   0  0  0  0  0  0  0  0  0  0  0  0
  162.4820  205.8410  145.1740 O   0  0  0  0  0  0  0  0  0  0  0  0
  161.5580  203.5710  145.8640 O   0  0  0  0  0  1  0  0  0  0  0  0
  161.3640  205.0460  146.1880 S   0  0  1  0  0  0  0  0  0  0  0  0
  1 14  1  6  0  0  0
  1  6  1  0  0  0  0
  2  4  1  0  0  0  0
  3  2  2  0  0  0  0
  4  7  1  6  0  0  0
  5  4  1  0  0  0  0
  6  3  1  0  0  0  0
  6  5  2  0  0  0  0
  8  9  1  0  0  0  0
  9  7  1  0  0  0  0
 10 13  1  0  0  0  0
 12 10  1  0  0  0  0
 12 13  1  0  0  0  0
 13 11  1  6  0  0  0
 14 10  2  0  0  0  0
 15 14  1  0  0  0  0
 16 15  1  0  0  0  0
 18 17  1  6  0  0  0
 18 16  1  0  0  0  0
 20 18  1  0  0  0  0
 21 20  1  0  0  0  0
 21 19  2  0  0  0  0
 22 21  1  0  0  0  0
 23 22  1  0  0  0  0
 24 23  1  0  0  0  0
 25 26  2  0  0  0  0
 26 24  1  0  0  0  0
 27 26  1  0  0  0  0
 28 29  1  0  0  0  0
 28  1  1  0  0  0  0
 29 30  1  0  0  0  0
 30 33  1  6  0  0  0
 30 31  1  0  0  0  0
 31 32  1  0  0  0  0
 34 33  1  0  0  0  0
 36 35  1  1  0  0  0
 36 34  1  0  0  0  0
 37 36  1  0  0  0  0
 39 40  1  0  0  0  0
 40 38  2  6  0  0  0
 40 37  1  0  0  0  0
M  END
>  <MODEL>
8

>  <REMARK>
 VINA RESULT:      -5.6      2.107      4.923
  Name = 
  20 active torsions:
  status: ('A' for Active; 'I' for Inactive)
    1  A    between atoms: N_2  and  C_22
    2  A    between atoms: C_4  and  C_27
    3  A    between atoms: C_4  and  C_33
    4  A    between atoms: C_5  and  C_14
    5  A    between atoms: C_5  and  C_28
    6  A    between atoms: C_6  and  N_18
    7  A    between atoms: C_6  and  C_37
    8  A    between atoms: C_6  and  C_40
    9  A    between atoms: C_11  and  N_12
   10  A    between atoms: C_11  and  N_34
   11  A    between atoms: C_14  and  O_20
   12  A    between atoms: C_16  and  C_21
   13  A    between atoms: C_16  and  C_28
   14  A    between atoms: C_16  and  N_30
   15  A    between atoms: N_18  and  N_30
   16  A    between atoms: S_19  and  O_20
   17  A    between atoms: C_22  and  C_26
   18  A    between atoms: C_25  and  C_26
   19  A    between atoms: N_31  and  N_34
   20  A    between atoms: N_31  and  C_37
                            x       y       z     vdW  Elec       q    Type
                         _______ _______ _______ _____ _____    ______ ____

>  <TORSDO>
F 20

$$$$
=
 OpenBabel11052410333D

 40 41  0  0  1  0  0  0  0  0999 V2000
  162.3400  209.0140  150.4550 C   0  0  1  0  0  3  0  0  0  0  0  0
  160.7020  206.6880  148.2500 C   0  0  0  0  0  3  0  0  0  0  0  0
  160.7260  207.4520  149.3580 N   0  0  0  0  0  2  0  0  0  0  0  0
  161.8910  206.8470  147.5710 C   0  0  0  0  0  0  0  0  0  0  0  0
  162.6840  207.7400  148.2570 C   0  0  0  0  0  3  0  0  0  0  0  0
  161.9150  208.0860  149.3530 C   0  0  0  0  0  0  0  0  0  0  0  0
  162.2410  206.1970  146.2750 C   0  0  0  0  0  2  0  0  0  0  0  0
  161.2220  205.4980  144.2270 O   0  0  0  0  0  1  0  0  0  0  0  0
  161.0010  205.6350  145.5980 C   0  0  0  0  0  2  0  0  0  0  0  0
  161.7270  211.1500  149.3840 C   0  0  0  0  0  0  0  0  0  0  0  0
  163.6240  212.0330  148.2600 O   0  0  0  0  0  1  0  0  0  0  0  0
  161.3870  212.4430  148.6510 C   0  0  0  0  0  2  0  0  0  0  0  0
  162.3310  211.5620  148.0440 C   0  0  2  0  0  3  0  0  0  0  0  0
  161.5950  210.3140  150.4150 C   0  0  0  0  0  0  0  0  0  0  0  0
  160.7230  210.6290  151.5020 N   0  0  0  0  0  2  0  0  0  0  0  0
  160.8770  211.7990  152.2650 N   0  0  0  0  0  2  0  0  0  0  0  0
  158.7600  212.5930  151.3000 C   0  0  0  0  0  1  0  0  0  0  0  0
  159.5550  212.3410  152.5740 C   0  0  1  0  0  3  0  0  0  0  0  0
  159.1280  212.7810  155.3690 O   0  0  0  0  0  0  0  0  0  0  0  0
  158.8270  211.4500  153.4700 N   0  0  0  0  0  2  0  0  0  0  0  0
  158.6230  211.7480  154.8540 C   0  0  0  0  0  0  0  0  0  0  0  0
  157.7820  210.8440  155.6840 C   0  0  0  0  0  2  0  0  0  0  0  0
  156.4510  211.5110  155.9710 C   0  0  0  0  0  2  0  0  0  0  0  0
  155.8990  212.0450  154.7380 N   0  0  0  0  0  2  0  0  0  0  0  0
  155.8860  214.2530  155.5020 O   0  0  0  0  0  0  0  0  0  0  0  0
  155.6450  213.4380  154.5700 C   0  0  0  0  0  0  0  0  0  0  0  0
  155.0910  213.9360  153.2850 C   0  0  0  0  0  1  0  0  0  0  0  0
  162.2190  208.3900  151.7690 N   0  0  0  0  0  2  0  0  0  0  0  0
  162.6710  207.0660  151.6490 N   0  0  0  0  0  2  0  0  0  0  0  0
  162.0980  206.3070  152.7510 C   0  0  1  0  0  3  0  0  0  0  0  0
  160.8300  206.9840  153.2590 C   0  0  0  0  0  2  0  0  0  0  0  0
  160.6700  206.7370  154.6800 N   0  0  0  0  0  1  0  0  0  0  0  0
  161.8350  204.8650  152.3180 C   0  0  0  0  0  2  0  0  0  0  0  0
  160.8570  204.7870  151.1510 C   0  0  0  0  0  2  0  0  0  0  0  0
  161.2430  202.3280  151.6540 C   0  0  0  0  0  1  0  0  0  0  0  0
  160.7570  203.3560  150.6400 C   0  0  2  0  0  3  0  0  0  0  0  0
  161.2780  203.1880  149.3330 O   0  0  0  0  0  0  0  0  0  0  0  0
  161.4320  200.8060  147.9140 O   0  0  0  0  0  0  0  0  0  0  0  0
  159.4540  201.3820  149.4100 O   0  0  0  0  0  1  0  0  0  0  0  0
  160.3710  202.0520  148.3950 S   0  0  1  0  0  0  0  0  0  0  0  0
  1 14  1  1  0  0  0
  1 28  1  0  0  0  0
  2  3  1  0  0  0  0
  4  2  2  0  0  0  0
  4  5  1  0  0  0  0
  5  6  2  0  0  0  0
  6  3  1  0  0  0  0
  6  1  1  0  0  0  0
  7  4  1  0  0  0  0
  8  9  1  0  0  0  0
  9  7  1  0  0  0  0
 10 14  2  0  0  0  0
 12 10  1  0  0  0  0
 13 11  1  1  0  0  0
 13 12  1  0  0  0  0
 13 10  1  0  0  0  0
 14 15  1  0  0  0  0
 15 16  1  0  0  0  0
 16 18  1  0  0  0  0
 18 17  1  6  0  0  0
 18 20  1  0  0  0  0
 20 21  1  0  0  0  0
 21 19  2  0  0  0  0
 21 22  1  0  0  0  0
 22 23  1  0  0  0  0
 24 23  1  0  0  0  0
 26 24  1  0  0  0  0
 26 25  2  0  0  0  0
 27 26  1  0  0  0  0
 29 28  1  0  0  0  0
 29 30  1  0  0  0  0
 30 33  1  6  0  0  0
 30 31  1  0  0  0  0
 31 32  1  0  0  0  0
 34 33  1  0  0  0  0
 36 34  1  0  0  0  0
 36 35  1  1  0  0  0
 37 36  1  0  0  0  0
 40 38  2  1  0  0  0
 40 37  1  0  0  0  0
 40 39  1  0  0  0  0
M  END
>  <MODEL>
9

>  <REMARK>
 VINA RESULT:      -5.6      3.123      6.000
  Name = 
  20 active torsions:
  status: ('A' for Active; 'I' for Inactive)
    1  A    between atoms: N_2  and  C_22
    2  A    between atoms: C_4  and  C_27
    3  A    between atoms: C_4  and  C_33
    4  A    between atoms: C_5  and  C_14
    5  A    between atoms: C_5  and  C_28
    6  A    between atoms: C_6  and  N_18
    7  A    between atoms: C_6  and  C_37
    8  A    between atoms: C_6  and  C_40
    9  A    between atoms: C_11  and  N_12
   10  A    between atoms: C_11  and  N_34
   11  A    between atoms: C_14  and  O_20
   12  A    between atoms: C_16  and  C_21
   13  A    between atoms: C_16  and  C_28
   14  A    between atoms: C_16  and  N_30
   15  A    between atoms: N_18  and  N_30
   16  A    between atoms: S_19  and  O_20
   17  A    between atoms: C_22  and  C_26
   18  A    between atoms: C_25  and  C_26
   19  A    between atoms: N_31  and  N_34
   20  A    between atoms: N_31  and  C_37
                            x       y       z     vdW  Elec       q    Type
                         _______ _______ _______ _____ _____    ______ ____

>  <TORSDO>
F 20

$$$$
