=
 OpenBabel11052411303D

 59 64  0  0  1  0  0  0  0  0999 V2000
  162.1690  210.0680  149.2110 C   0  0  0  0  0  3  0  0  0  0  0  0
  162.0190  209.1130  150.1350 C   0  0  0  0  0  0  0  0  0  0  0  0
  159.9330  210.9020  152.8210 C   0  0  0  0  0  1  0  0  0  0  0  0
  161.7320  211.4890  149.4410 C   0  0  2  0  0  3  0  0  0  0  0  0
  160.6790  211.5500  150.4770 N   0  0  0  0  0  0  0  0  0  0  0  0
  160.6790  210.5860  151.5580 C   0  0  0  0  0  0  0  0  0  0  0  0
  161.3300  209.4080  151.4080 C   0  0  0  0  0  0  0  0  0  0  0  0
  162.5300  212.3540  147.2090 C   0  0  0  0  0  2  0  0  0  0  0  0
  161.3130  212.1840  148.1240 C   0  0  1  0  0  3  0  0  0  0  0  0
  159.8180  212.1970  146.1080 C   0  0  0  0  0  2  0  0  0  0  0  0
  160.2290  211.4170  147.3520 C   0  0  0  0  0  2  0  0  0  0  0  0
  161.0300  212.4130  145.2030 C   0  0  2  0  0  3  0  0  0  0  0  0
  162.1480  213.1370  145.9570 C   0  0  0  0  0  2  0  0  0  0  0  0
  160.1200  212.4460  142.8530 N   0  0  0  0  0  2  0  0  0  0  0  0
  160.7700  214.4530  143.9230 N   0  0  0  0  0  2  0  0  0  0  0  0
  160.6400  213.1670  143.9730 C   0  0  0  0  0  0  0  0  0  0  0  0
  159.2820  212.6240  139.2920 C   0  0  2  0  0  3  0  0  0  0  0  0
  159.0790  212.0640  140.6940 C   0  0  0  0  0  2  0  0  0  0  0  0
  160.8570  213.6620  140.8690 C   0  0  0  0  0  2  0  0  0  0  0  0
  159.6790  213.0890  141.6240 C   0  0  2  0  0  3  0  0  0  0  0  0
  160.5590  213.4800  139.3820 C   0  0  1  0  0  3  0  0  0  0  0  0
  158.1310  213.4490  138.8960 N   0  0  2  0  0  0  0  0  0  0  0  0
  156.9650  213.0300  139.6840 C   0  0  0  0  0  2  0  0  0  0  0  0
  156.7180  214.1280  137.0110 C   0  0  0  0  0  2  0  0  0  0  0  0
  155.6080  214.2650  138.0250 C   0  0  0  0  0  3  0  0  0  0  0  0
  157.8050  213.1640  137.4950 C   0  0  0  0  0  2  0  0  0  0  0  0
  155.7350  213.7980  139.2750 C   0  0  0  0  0  3  0  0  0  0  0  0
  161.6830  212.8140  138.7180 N   0  0  0  0  0  0  0  0  0  0  0  0
  161.4830  212.8960  137.3780 O   0  0  0  0  0  1  0  0  0  0  0  0
  162.8900  213.5860  138.9920 C   0  0  0  0  0  2  0  0  0  0  0  0
  165.2070  214.0910  138.2230 C   0  0  0  0  0  1  0  0  0  0  0  0
  163.9130  213.3790  137.8870 C   0  0  0  0  0  2  0  0  0  0  0  0
  161.3970  208.3390  152.4740 C   0  0  2  0  0  3  0  0  0  0  0  0
  161.5130  208.8450  153.9060 C   0  0  0  0  0  1  0  0  0  0  0  0
  162.3030  207.1550  152.1280 C   0  0  0  0  0  2  0  0  0  0  0  0
  161.5710  205.8220  152.0720 C   0  0  0  0  0  2  0  0  0  0  0  0
  162.0690  205.0540  151.0170 O   0  0  0  0  0  0  0  0  0  0  0  0
  163.9650  203.6680  146.3240 C   0  0  0  0  0  1  0  0  0  0  0  0
  160.9810  205.2750  148.1250 C   0  0  0  0  0  0  0  0  0  0  0  0
  160.4250  205.3000  149.3380 C   0  0  0  0  0  3  0  0  0  0  0  0
  162.5530  204.2160  146.3940 C   0  0  0  0  0  0  0  0  0  0  0  0
  162.1440  204.3380  147.8780 C   0  0  2  0  0  3  0  0  0  0  0  0
  161.2050  206.3080  145.7540 C   0  0  1  0  0  3  0  0  0  0  0  0
  160.5440  206.2450  147.0980 C   0  0  0  0  0  0  0  0  0  0  0  0
  159.6000  207.0420  147.3430 O   0  0  0  0  0  0  0  0  0  0  0  0
  161.3350  203.0320  149.9640 C   0  0  2  0  0  3  0  0  0  0  0  0
  160.9510  204.4400  150.4520 C   0  0  1  0  0  3  0  0  0  0  0  0
  162.5630  205.5930  145.7240 C   0  0  0  0  0  2  0  0  0  0  0  0
  161.6430  203.2630  145.6250 C   0  0  0  0  0  1  0  0  0  0  0  0
  161.9000  202.9640  148.5300 C   0  0  0  0  0  2  0  0  0  0  0  0
  159.6150  201.4920  148.9130 C   0  0  0  0  0  1  0  0  0  0  0  0
  160.6750  200.8830  151.0800 C   0  0  0  0  0  1  0  0  0  0  0  0
  160.2050  202.0300  150.2070 C   0  0  0  0  0  3  0  0  0  0  0  0
  161.0620  205.7300  143.4870 C   0  0  0  0  0  1  0  0  0  0  0  0
  160.3140  205.7800  144.7310 N   0  0  0  0  0  2  0  0  0  0  0  0
  162.4910  207.8160  149.9050 O   0  0  0  0  0  0  0  0  0  0  0  0
  163.3030  207.4720  148.7930 C   0  0  0  0  0  1  0  0  0  0  0  0
  160.6680  213.9110  151.0940 C   0  0  0  0  0  1  0  0  0  0  0  0
  159.8420  212.7430  150.5940 C   0  0  0  0  0  2  0  0  0  0  0  0
  1  2  2  0  0  0  0
  2  7  1  0  0  0  0
  4  1  1  6  0  0  0
  4  5  1  0  0  0  0
  5 59  1  0  0  0  0
  5  6  1  0  0  0  0
  6  3  1  0  0  0  0
  7  6  2  0  0  0  0
  7 33  1  0  0  0  0
  9  8  1  6  0  0  0
  9  4  1  0  0  0  0
 10 11  1  0  0  0  0
 11  9  1  0  0  0  0
 12 16  1  6  0  0  0
 12 13  1  0  0  0  0
 12 10  1  0  0  0  0
 13  8  1  0  0  0  0
 14 16  1  0  0  0  0
 15 16  2  0  0  0  0
 17 21  1  0  0  0  0
 17 18  1  1  0  0  0
 18 20  1  0  0  0  0
 19 20  1  0  0  0  0
 20 14  1  1  0  0  0
 21 28  1  6  0  0  0
 21 19  1  0  0  0  0
 22 26  1  6  0  0  0
 22 17  1  0  0  0  0
 22 23  1  0  0  0  0
 24 26  1  0  0  0  0
 24 25  1  0  0  0  0
 25 27  2  0  0  0  0
 27 23  1  0  0  0  0
 28 30  1  0  0  0  0
 29 28  1  0  0  0  0
 32 31  1  0  0  0  0
 32 30  1  0  0  0  0
 33 34  1  1  0  0  0
 35 33  1  0  0  0  0
 36 35  1  0  0  0  0
 37 36  1  0  0  0  0
 38 41  1  0  0  0  0
 39 40  2  0  0  0  0
 40 47  1  0  0  0  0
 41 42  1  0  0  0  0
 42 39  1  0  0  0  0
 42 50  1  6  0  0  0
 43 55  1  6  0  0  0
 43 44  1  0  0  0  0
 44 45  2  0  0  0  0
 44 39  1  0  0  0  0
 46 53  1  6  0  0  0
 46 47  1  0  0  0  0
 47 37  1  6  0  0  0
 48 43  1  0  0  0  0
 48 41  1  0  0  0  0
 49 41  1  0  0  0  0
 50 46  1  0  0  0  0
 51 53  1  0  0  0  0
 53 52  1  0  0  0  0
 54 55  1  0  0  0  0
 56  2  1  0  0  0  0
 57 56  1  0  0  0  0
 59 58  1  0  0  0  0
M  END
>  <MODEL>
1

>  <REMARK>
 VINA RESULT:      -2.9      0.000      0.000
  Name = 
  16 active torsions:
  status: ('A' for Active; 'I' for Inactive)
    1  A    between atoms: N_2  and  C_4
    2  A    between atoms: C_3  and  O_22
    3  A    between atoms: C_5  and  C_6
    4  A    between atoms: C_5  and  C_12
    5  A    between atoms: C_6  and  C_50
    6  A    between atoms: N_10  and  C_40
    7  A    between atoms: N_10  and  C_41
    8  A    between atoms: C_12  and  O_54
    9  A    between atoms: C_18  and  N_45
   10  A    between atoms: C_23  and  C_51
   11  A    between atoms: C_24  and  C_42
   12  A    between atoms: N_25  and  C_26
   13  A    between atoms: C_34  and  O_54
   14  A    between atoms: C_36  and  C_40
   15  A    between atoms: N_47  and  C_49
   16  A    between atoms: C_56  and  C_57
                            x       y       z     vdW  Elec       q    Type
                         _______ _______ _______ _____ _____    ______ ____

>  <TORSDO>
F 16

$$$$
