=
 OpenBabel11052409533D

 56 62  0  0  1  0  0  0  0  0999 V2000
  161.6590  208.0530  151.0230 C   0  0  1  0  0  0  0  0  0  0  0  0
  162.4240  207.4080  149.8210 C   0  0  0  0  0  2  0  0  0  0  0  0
  159.2730  212.9180  151.3220 N   0  0  0  0  0  2  0  0  0  0  0  0
  162.4750  208.3350  148.7030 C   0  0  0  0  0  0  0  0  0  0  0  0
  161.5240  209.5370  150.5330 C   0  0  0  0  0  0  0  0  0  0  0  0
  161.8970  210.6160  148.3750 C   0  0  0  0  0  3  0  0  0  0  0  0
  159.6430  212.2270  152.5680 N   0  0  0  0  0  0  0  0  0  0  0  0
  160.2700  214.0290  149.5160 O   0  0  0  0  0  0  0  0  0  0  0  0
  162.7470  208.0370  147.4410 C   0  0  0  0  0  3  0  0  0  0  0  0
  160.9770  211.8000  150.1370 C   0  0  0  0  0  0  0  0  0  0  0  0
  160.2820  207.4000  150.9870 C   0  0  0  0  0  1  0  0  0  0  0  0
  161.0720  210.7580  151.1010 C   0  0  0  0  0  0  0  0  0  0  0  0
  162.0230  209.5480  149.2090 C   0  0  0  0  0  0  0  0  0  0  0  0
  160.5200  210.9980  152.4710 C   0  0  0  0  0  2  0  0  0  0  0  0
  160.1650  213.0410  150.2690 C   0  0  0  0  0  0  0  0  0  0  0  0
  161.3160  211.7030  148.8610 C   0  0  0  0  0  3  0  0  0  0  0  0
  161.5500  204.7770  152.8130 C   0  0  1  0  0  3  0  0  0  0  0  0
  162.4540  207.9160  153.7060 C   0  0  0  0  0  2  0  0  0  0  0  0
  160.4470  206.3610  155.4610 C   0  0  0  0  0  2  0  0  0  0  0  0
  160.9250  208.8990  155.5120 C   0  0  0  0  0  3  0  0  0  0  0  0
  161.4370  209.0670  154.0870 C   0  0  0  0  0  2  0  0  0  0  0  0
  162.6350  205.8590  152.3570 C   0  0  0  0  0  0  0  0  0  0  0  0
  160.4720  207.7400  156.0810 C   0  0  0  0  0  3  0  0  0  0  0  0
  160.0620  205.1130  153.2010 C   0  0  0  0  0  2  0  0  0  0  0  0
  159.8190  206.4290  154.0040 C   0  0  0  0  0  2  0  0  0  0  0  0
  162.5360  207.4490  152.1950 C   0  0  1  0  0  3  0  0  0  0  0  0
  163.7740  205.4290  152.0910 O   0  0  0  0  0  0  0  0  0  0  0  0
  161.4770  203.5080  151.8980 C   0  0  0  0  0  2  0  0  0  0  0  0
  160.4880  203.7840  150.7780 C   0  0  0  0  0  2  0  0  0  0  0  0
  159.9230  202.5830  150.0710 C   0  0  0  0  0  1  0  0  0  0  0  0
  159.7850  212.4810  155.0480 C   0  0  0  0  0  3  0  0  0  0  0  0
  157.7430  214.4360  154.7510 C   0  0  0  0  0  3  0  0  0  0  0  0
  158.1330  214.0500  156.0130 C   0  0  0  0  0  0  0  0  0  0  0  0
  159.1830  213.1040  156.1500 C   0  0  0  0  0  3  0  0  0  0  0  0
  158.3420  213.8300  153.6540 C   0  0  0  0  0  3  0  0  0  0  0  0
  159.3010  212.8420  153.7620 C   0  0  0  0  0  0  0  0  0  0  0  0
  157.3520  214.4530  157.2240 C   0  0  0  0  0  2  0  0  0  0  0  0
  155.9650  212.4730  157.2180 O   0  0  0  0  0  1  0  0  0  0  0  0
  154.7810  214.4420  155.9330 C   0  0  0  0  0  1  0  0  0  0  0  0
  155.8490  213.8420  157.1270 C   0  0  2  0  0  3  0  0  0  0  0  0
  161.9790  205.8270  146.7940 C   0  0  1  0  0  3  0  0  0  0  0  0
  162.3660  205.8140  148.1470 O   0  0  0  0  0  0  0  0  0  0  0  0
  163.1050  206.6600  147.1570 C   0  0  2  0  0  3  0  0  0  0  0  0
  162.3460  204.5670  146.1520 C   0  0  0  0  0  2  0  0  0  0  0  0
  161.3460  203.8820  145.1900 C   0  0  2  0  0  3  0  0  0  0  0  0
  161.3660  205.8360  143.7900 O   0  0  0  0  0  1  0  0  0  0  0  0
  160.5160  205.0330  144.5070 C   0  0  0  0  0  2  0  0  0  0  0  0
  160.5700  202.8950  146.0460 C   0  0  0  0  0  2  0  0  0  0  0  0
  161.3740  200.6490  146.9070 C   0  0  2  0  0  3  0  0  0  0  0  0
  159.6860  199.6910  145.0220 C   0  0  0  0  0  2  0  0  0  0  0  0
  161.5390  199.1420  146.6310 C   0  0  0  0  0  2  0  0  0  0  0  0
  160.0300  201.0280  144.7800 O   0  0  0  0  0  0  0  0  0  0  0  0
  160.8990  198.8050  145.3150 C   0  0  0  0  0  2  0  0  0  0  0  0
  160.9970  201.5220  145.7010 C   0  0  1  0  0  3  0  0  0  0  0  0
  162.1530  201.2430  147.9150 O   0  0  0  0  0  0  0  0  0  0  0  0
  161.9460  200.4330  149.0450 C   0  0  0  0  0  1  0  0  0  0  0  0
  1 11  1  1  0  0  0
  1 26  1  0  0  0  0
  2  1  1  0  0  0  0
  3  7  1  0  0  0  0
  4 13  1  0  0  0  0
  4  2  1  0  0  0  0
  5  1  1  0  0  0  0
  5 12  1  0  0  0  0
  6 16  2  0  0  0  0
  6 13  1  0  0  0  0
  7 36  1  0  0  0  0
  8 15  2  0  0  0  0
  9  4  2  0  0  0  0
 10 15  1  0  0  0  0
 10 12  2  0  0  0  0
 12 14  1  0  0  0  0
 13  5  2  0  0  0  0
 14  7  1  0  0  0  0
 15  3  1  0  0  0  0
 16 10  1  0  0  0  0
 17 28  1  6  0  0  0
 17 24  1  0  0  0  0
 18 21  1  0  0  0  0
 19 23  1  0  0  0  0
 20 23  2  0  0  0  0
 21 20  1  0  0  0  0
 22 17  1  0  0  0  0
 24 25  1  0  0  0  0
 25 19  1  0  0  0  0
 26 22  1  0  0  0  0
 26 18  1  1  0  0  0
 27 22  2  0  0  0  0
 29 28  1  0  0  0  0
 30 29  1  0  0  0  0
 31 34  1  0  0  0  0
 32 33  1  0  0  0  0
 33 34  2  0  0  0  0
 33 37  1  0  0  0  0
 35 36  1  0  0  0  0
 35 32  2  0  0  0  0
 36 31  2  0  0  0  0
 40 39  1  6  0  0  0
 40 38  1  0  0  0  0
 40 37  1  0  0  0  0
 41 44  1  6  0  0  0
 41 43  1  0  0  0  0
 41 42  1  0  0  0  0
 43  9  1  1  0  0  0
 43 42  1  0  0  0  0
 45 47  1  1  0  0  0
 45 48  1  0  0  0  0
 45 44  1  0  0  0  0
 46 47  1  0  0  0  0
 49 55  1  6  0  0  0
 50 53  1  0  0  0  0
 51 49  1  0  0  0  0
 52 50  1  0  0  0  0
 52 54  1  0  0  0  0
 53 51  1  0  0  0  0
 54 48  1  1  0  0  0
 54 49  1  0  0  0  0
 55 56  1  0  0  0  0
M  END
>  <MODEL>
1

>  <REMARK>
 VINA RESULT:       0.8      0.000      0.000
  Name = 
  13 active torsions:
  status: ('A' for Active; 'I' for Inactive)
    1  A    between atoms: C_1  and  O_45
    2  A    between atoms: C_2  and  C_47
    3  A    between atoms: C_3  and  C_31
    4  A    between atoms: C_5  and  C_31
    5  A    between atoms: C_7  and  C_30
    6  A    between atoms: C_18  and  C_37
    7  A    between atoms: C_19  and  C_36
    8  A    between atoms: C_19  and  C_39
    9  A    between atoms: C_23  and  C_32
   10  A    between atoms: C_23  and  C_56
   11  A    between atoms: N_28  and  C_44
   12  A    between atoms: C_30  and  C_32
   13  A    between atoms: C_32  and  C_46
                            x       y       z     vdW  Elec       q    Type
                         _______ _______ _______ _____ _____    ______ ____

>  <TORSDO>
F 13

$$$$
=
 OpenBabel11052409533D

 56 62  0  0  1  0  0  0  0  0999 V2000
  161.0010  208.2200  152.7010 C   0  0  1  0  0  0  0  0  0  0  0  0
  161.0130  208.2710  154.2650 C   0  0  0  0  0  2  0  0  0  0  0  0
  160.3880  203.9260  149.4390 N   0  0  0  0  0  2  0  0  0  0  0  0
  160.8710  206.9310  154.8110 C   0  0  0  0  0  0  0  0  0  0  0  0
  161.1010  206.6750  152.4490 C   0  0  0  0  0  0  0  0  0  0  0  0
  160.8700  204.7330  153.9110 C   0  0  0  0  0  3  0  0  0  0  0  0
  161.0140  205.1450  148.9040 N   0  0  0  0  0  0  0  0  0  0  0  0
  160.8500  202.1620  150.9120 O   0  0  0  0  0  0  0  0  0  0  0  0
  160.5230  206.6170  156.0500 C   0  0  0  0  0  3  0  0  0  0  0  0
  161.0950  204.4630  151.6240 C   0  0  0  0  0  0  0  0  0  0  0  0
  159.6000  208.6870  152.3200 C   0  0  0  0  0  1  0  0  0  0  0  0
  161.2720  205.8390  151.3130 C   0  0  0  0  0  0  0  0  0  0  0  0
  161.0130  206.0740  153.7270 C   0  0  0  0  0  0  0  0  0  0  0  0
  161.4010  206.2380  149.8760 C   0  0  0  0  0  2  0  0  0  0  0  0
  160.7820  203.3790  150.6500 C   0  0  0  0  0  0  0  0  0  0  0  0
  160.8570  203.9680  152.8290 C   0  0  0  0  0  3  0  0  0  0  0  0
  160.7550  211.9460  152.7390 C   0  0  1  0  0  3  0  0  0  0  0  0
  162.6410  209.7310  151.0050 C   0  0  0  0  0  2  0  0  0  0  0  0
  161.0800  211.9130  149.4780 C   0  0  0  0  0  2  0  0  0  0  0  0
  162.1370  209.7720  148.4930 C   0  0  0  0  0  3  0  0  0  0  0  0
  162.1330  208.9110  149.7510 C   0  0  0  0  0  2  0  0  0  0  0  0
  161.8330  210.8120  153.0700 C   0  0  0  0  0  0  0  0  0  0  0  0
  161.6530  211.0460  148.3790 C   0  0  0  0  0  3  0  0  0  0  0  0
  159.6290  211.8170  151.6470 C   0  0  0  0  0  2  0  0  0  0  0  0
  160.0110  211.0930  150.3180 C   0  0  0  0  0  2  0  0  0  0  0  0
  162.0660  209.3610  152.4340 C   0  0  1  0  0  3  0  0  0  0  0  0
  162.6640  211.0740  153.9610 O   0  0  0  0  0  0  0  0  0  0  0  0
  160.0600  212.5660  153.9990 C   0  0  0  0  0  2  0  0  0  0  0  0
  158.9670  213.5080  153.5240 C   0  0  0  0  0  2  0  0  0  0  0  0
  159.2900  214.3620  152.3290 C   0  0  0  0  0  1  0  0  0  0  0  0
  162.2610  204.2380  146.9400 C   0  0  0  0  0  3  0  0  0  0  0  0
  161.2000  206.4550  145.5110 C   0  0  0  0  0  3  0  0  0  0  0  0
  162.1310  205.6420  144.9070 C   0  0  0  0  0  0  0  0  0  0  0  0
  162.6220  204.5130  145.6140 C   0  0  0  0  0  3  0  0  0  0  0  0
  160.8300  206.1830  146.8220 C   0  0  0  0  0  3  0  0  0  0  0  0
  161.3610  205.1450  147.5620 C   0  0  0  0  0  0  0  0  0  0  0  0
  162.7740  206.0280  143.6120 C   0  0  0  0  0  2  0  0  0  0  0  0
  160.8600  205.0380  142.5140 O   0  0  0  0  0  1  0  0  0  0  0  0
  162.0820  206.7280  140.9090 C   0  0  0  0  0  1  0  0  0  0  0  0
  161.6320  206.1770  142.4640 C   0  0  2  0  0  3  0  0  0  0  0  0
  160.0020  208.9690  156.3380 C   0  0  1  0  0  3  0  0  0  0  0  0
  161.3630  208.7500  156.6200 O   0  0  0  0  0  0  0  0  0  0  0  0
  160.3400  207.7170  156.9780 C   0  0  2  0  0  3  0  0  0  0  0  0
  159.4550  209.9770  157.2430 C   0  0  0  0  0  2  0  0  0  0  0  0
  158.9730  211.3330  156.6730 C   0  0  2  0  0  3  0  0  0  0  0  0
  161.2540  212.0120  157.0080 O   0  0  0  0  0  1  0  0  0  0  0  0
  159.9640  212.4290  157.2170 C   0  0  0  0  0  2  0  0  0  0  0  0
  157.5190  211.4570  157.0940 C   0  0  0  0  0  2  0  0  0  0  0  0
  155.8650  212.0640  155.2680 C   0  0  2  0  0  3  0  0  0  0  0  0
  155.2150  214.0610  156.9750 C   0  0  0  0  0  2  0  0  0  0  0  0
  154.9720  213.1530  154.6430 C   0  0  0  0  0  2  0  0  0  0  0  0
  156.4780  213.5240  157.2610 O   0  0  0  0  0  0  0  0  0  0  0  0
  155.0270  214.3900  155.4930 C   0  0  0  0  0  2  0  0  0  0  0  0
  156.8850  212.5420  156.3130 C   0  0  1  0  0  3  0  0  0  0  0  0
  156.2110  210.9450  154.4940 O   0  0  0  0  0  0  0  0  0  0  0  0
  155.6820  209.8500  155.1980 C   0  0  0  0  0  1  0  0  0  0  0  0
  1 11  1  6  0  0  0
  1  2  1  0  0  0  0
  2  4  1  0  0  0  0
  3 15  1  0  0  0  0
  4  9  2  0  0  0  0
  5  1  1  0  0  0  0
  5 13  1  0  0  0  0
  7  3  1  0  0  0  0
  7 14  1  0  0  0  0
 10 16  2  0  0  0  0
 12 10  1  0  0  0  0
 12  5  2  0  0  0  0
 13  6  2  0  0  0  0
 13  4  1  0  0  0  0
 14 12  1  0  0  0  0
 15  8  2  0  0  0  0
 15 10  1  0  0  0  0
 16  6  1  0  0  0  0
 17 22  1  0  0  0  0
 17 28  1  1  0  0  0
 19 25  1  0  0  0  0
 20 21  1  0  0  0  0
 21 18  1  0  0  0  0
 22 27  2  0  0  0  0
 23 20  2  0  0  0  0
 23 19  1  0  0  0  0
 24 17  1  0  0  0  0
 25 24  1  0  0  0  0
 26 18  1  6  0  0  0
 26  1  1  0  0  0  0
 26 22  1  0  0  0  0
 29 28  1  0  0  0  0
 30 29  1  0  0  0  0
 31 36  1  0  0  0  0
 32 35  1  0  0  0  0
 33 32  2  0  0  0  0
 33 34  1  0  0  0  0
 34 31  2  0  0  0  0
 35 36  2  0  0  0  0
 36  7  1  0  0  0  0
 37 33  1  0  0  0  0
 40 39  1  6  0  0  0
 40 38  1  0  0  0  0
 40 37  1  0  0  0  0
 41 42  1  0  0  0  0
 41 43  1  0  0  0  0
 41 44  1  1  0  0  0
 42 43  1  0  0  0  0
 43  9  1  6  0  0  0
 45 48  1  1  0  0  0
 45 47  1  0  0  0  0
 45 44  1  0  0  0  0
 46 47  1  0  0  0  0
 49 55  1  6  0  0  0
 49 54  1  0  0  0  0
 50 52  1  0  0  0  0
 51 49  1  0  0  0  0
 51 53  1  0  0  0  0
 53 50  1  0  0  0  0
 54 48  1  1  0  0  0
 54 52  1  0  0  0  0
 55 56  1  0  0  0  0
M  END
>  <MODEL>
2

>  <REMARK>
 VINA RESULT:       1.5      2.855     11.357
  Name = 
  13 active torsions:
  status: ('A' for Active; 'I' for Inactive)
    1  A    between atoms: C_1  and  O_45
    2  A    between atoms: C_2  and  C_47
    3  A    between atoms: C_3  and  C_31
    4  A    between atoms: C_5  and  C_31
    5  A    between atoms: C_7  and  C_30
    6  A    between atoms: C_18  and  C_37
    7  A    between atoms: C_19  and  C_36
    8  A    between atoms: C_19  and  C_39
    9  A    between atoms: C_23  and  C_32
   10  A    between atoms: C_23  and  C_56
   11  A    between atoms: N_28  and  C_44
   12  A    between atoms: C_30  and  C_32
   13  A    between atoms: C_32  and  C_46
                            x       y       z     vdW  Elec       q    Type
                         _______ _______ _______ _____ _____    ______ ____

>  <TORSDO>
F 13

$$$$
