=
 OpenBabel11052410133D

 48 51  0  0  1  0  0  0  0  0999 V2000
  161.4190  208.4740  152.5110 C   0  0  0  0  0  0  0  0  0  0  0  0
  160.2160  209.3420  152.3110 C   0  0  0  0  0  2  0  0  0  0  0  0
  160.5650  210.7770  152.0980 C   0  0  0  0  0  0  0  0  0  0  0  0
  161.2840  211.1750  151.0360 C   0  0  0  0  0  3  0  0  0  0  0  0
  162.3930  209.0570  150.2720 C   0  0  0  0  0  3  0  0  0  0  0  0
  161.9550  210.3020  150.0570 C   0  0  0  0  0  3  0  0  0  0  0  0
  162.3080  208.2930  151.5290 C   0  0  0  0  0  3  0  0  0  0  0  0
  159.9530  211.7890  153.0190 C   0  0  2  0  0  3  0  0  0  0  0  0
  157.6030  212.1180  153.7680 C   0  0  0  0  0  2  0  0  0  0  0  0
  158.4670  212.0550  154.9670 N   0  0  0  0  0  0  0  0  0  0  0  0
  158.7500  211.2130  153.7820 C   0  0  2  0  0  3  0  0  0  0  0  0
  157.8860  211.1530  155.9610 C   0  0  0  0  0  2  0  0  0  0  0  0
  157.3880  211.8990  157.2130 C   0  0  0  0  0  2  0  0  0  0  0  0
  155.9340  211.9830  157.2610 N   0  0  0  0  0  0  0  0  0  0  0  0
  155.6280  213.2090  156.7730 O   0  0  0  0  0  1  0  0  0  0  0  0
  154.3160  210.3670  157.0210 C   0  0  0  0  0  1  0  0  0  0  0  0
  155.4030  211.0560  156.3460 N   0  0  0  0  0  2  0  0  0  0  0  0
  159.6150  213.0550  152.2820 C   0  0  0  0  0  0  0  0  0  0  0  0
  159.4760  214.1420  152.9080 O   0  0  0  0  0  0  0  0  0  0  0  0
  159.5120  213.0190  150.8550 N   0  0  0  0  0  2  0  0  0  0  0  0
  159.4770  214.2180  150.0300 C   0  0  0  0  0  2  0  0  0  0  0  0
  159.6340  213.8560  148.5910 C   0  0  0  0  0  3  0  0  0  0  0  0
  161.9970  213.9010  148.7570 O   0  0  0  0  0  1  0  0  0  0  0  0
  160.8320  213.7190  148.0110 C   0  0  0  0  0  0  0  0  0  0  0  0
  160.9490  213.2890  146.5620 C   0  0  2  0  0  3  0  0  0  0  0  0
  162.3730  213.3460  144.6170 C   0  0  0  0  0  1  0  0  0  0  0  0
  162.3320  213.2460  146.0780 N   0  0  0  0  0  2  0  0  0  0  0  0
  159.9960  213.9270  145.5320 C   0  0  0  0  0  2  0  0  0  0  0  0
  158.8780  213.0310  145.0030 C   0  0  0  0  0  3  0  0  0  0  0  0
  159.2990  211.7160  145.0300 F   0  0  0  0  0  0  0  0  0  0  0  0
  158.5430  213.3660  143.7030 F   0  0  0  0  0  0  0  0  0  0  0  0
  161.4590  207.5950  153.6410 N   0  0  0  0  0  0  0  0  0  0  0  0
  161.8550  206.2080  153.4400 C   0  0  0  0  0  2  0  0  0  0  0  0
  160.7070  205.4050  153.0400 N   0  0  0  0  0  2  0  0  0  0  0  0
  161.1250  202.6310  147.7280 C   0  0  0  0  0  3  0  0  0  0  0  0
  161.0560  200.8510  149.3910 C   0  0  0  0  0  3  0  0  0  0  0  0
  160.9270  201.7990  150.4140 C   0  0  0  0  0  3  0  0  0  0  0  0
  161.3040  200.3470  147.0710 F   0  0  0  0  0  0  0  0  0  0  0  0
  160.8220  204.2720  152.2100 N   0  0  0  0  0  2  0  0  0  0  0  0
  160.9830  203.5600  148.7580 C   0  0  0  0  0  0  0  0  0  0  0  0
  160.7720  204.3090  150.9090 C   0  0  0  0  0  0  0  0  0  0  0  0
  160.9140  205.0440  148.6240 C   0  0  0  0  0  3  0  0  0  0  0  0
  160.8990  203.1510  150.0620 C   0  0  1  0  0  3  0  0  0  0  0  0
  160.7380  205.5490  150.0660 C   0  0  0  0  0  3  0  0  0  0  0  0
  161.1610  201.2700  148.0530 C   0  0  0  0  0  0  0  0  0  0  0  0
  160.6190  207.8820  154.8010 C   0  0  0  0  0  2  0  0  0  0  0  0
  161.4320  208.4820  155.8990 C   0  0  0  0  0  3  0  0  0  0  0  0
  161.0500  209.6260  156.4550 C   0  0  0  0  0  2  0  0  0  0  0  0
  1 32  1  0  0  0  0
  2  1  1  0  0  0  0
  3  2  1  0  0  0  0
  3  8  1  0  0  0  0
  4  3  2  0  0  0  0
  5  7  1  0  0  0  0
  6  5  2  0  0  0  0
  6  4  1  0  0  0  0
  7  1  2  0  0  0  0
  8 18  1  6  0  0  0
  9 11  1  0  0  0  0
  9 10  1  0  0  0  0
 10 12  1  0  0  0  0
 11  8  1  6  0  0  0
 11 10  1  0  0  0  0
 12 13  1  0  0  0  0
 13 14  1  0  0  0  0
 15 14  1  0  0  0  0
 17 16  1  0  0  0  0
 17 14  1  0  0  0  0
 18 19  2  0  0  0  0
 20 18  1  0  0  0  0
 21 20  1  0  0  0  0
 22 21  1  0  0  0  0
 24 22  2  0  0  0  0
 24 23  1  0  0  0  0
 25 28  1  6  0  0  0
 25 24  1  0  0  0  0
 26 27  1  0  0  0  0
 27 25  1  0  0  0  0
 29 30  1  0  0  0  0
 29 28  1  0  0  0  0
 31 29  1  0  0  0  0
 32 46  1  0  0  0  0
 33 32  1  0  0  0  0
 34 33  1  0  0  0  0
 35 45  2  0  0  0  0
 35 40  1  0  0  0  0
 36 37  2  0  0  0  0
 38 45  1  0  0  0  0
 39 34  1  0  0  0  0
 40 43  1  0  0  0  0
 41 39  1  0  0  0  0
 42 40  2  0  0  0  0
 42 44  1  0  0  0  0
 43 37  1  6  0  0  0
 43 41  1  0  0  0  0
 44 41  2  0  0  0  0
 45 36  1  0  0  0  0
 46 47  1  0  0  0  0
 47 48  2  0  0  0  0
M  END
>  <MODEL>
1

>  <REMARK>
 VINA RESULT:      -6.7      0.000      0.000
  Name = 
  19 active torsions:
  status: ('A' for Active; 'I' for Inactive)
    1  A    between atoms: N_2  and  N_16
    2  A    between atoms: N_2  and  C_31
    3  A    between atoms: C_3  and  C_43
    4  A    between atoms: C_4  and  C_29
    5  A    between atoms: C_6  and  C_29
    6  A    between atoms: C_6  and  N_37
    7  A    between atoms: C_6  and  C_46
    8  A    between atoms: C_7  and  N_25
    9  A    between atoms: C_9  and  C_42
   10  A    between atoms: C_13  and  C_28
   11  A    between atoms: N_17  and  C_19
   12  A    between atoms: N_17  and  N_30
   13  A    between atoms: C_19  and  C_35
   14  A    between atoms: N_25  and  C_28
   15  A    between atoms: N_25  and  C_31
   16  A    between atoms: N_32  and  C_35
   17  A    between atoms: C_34  and  C_43
   18  A    between atoms: C_39  and  C_43
   19  A    between atoms: N_41  and  C_42
                            x       y       z     vdW  Elec       q    Type
                         _______ _______ _______ _____ _____    ______ ____

>  <TORSDO>
F 19

$$$$
=
 OpenBabel11052410133D

 48 51  0  0  1  0  0  0  0  0999 V2000
  161.3230  211.2110  149.7470 C   0  0  0  0  0  0  0  0  0  0  0  0
  161.9440  210.5500  150.9370 C   0  0  0  0  0  2  0  0  0  0  0  0
  161.4140  209.1750  151.1780 C   0  0  0  0  0  0  0  0  0  0  0  0
  161.5860  208.1890  150.2820 C   0  0  0  0  0  3  0  0  0  0  0  0
  162.1080  209.4280  148.1630 C   0  0  0  0  0  3  0  0  0  0  0  0
  162.1360  208.3280  148.9230 C   0  0  0  0  0  3  0  0  0  0  0  0
  161.5160  210.7320  148.5140 C   0  0  0  0  0  3  0  0  0  0  0  0
  160.8230  208.8800  152.5240 C   0  0  2  0  0  3  0  0  0  0  0  0
  160.8330  209.5390  154.9230 C   0  0  0  0  0  2  0  0  0  0  0  0
  160.0480  210.5410  154.1710 N   0  0  0  0  0  0  0  0  0  0  0  0
  161.2510  209.9160  153.5750 C   0  0  2  0  0  3  0  0  0  0  0  0
  160.4550  211.8920  154.5540 C   0  0  0  0  0  2  0  0  0  0  0  0
  159.4480  212.5620  155.5070 C   0  0  0  0  0  2  0  0  0  0  0  0
  158.1120  211.9940  155.3830 N   0  0  0  0  0  0  0  0  0  0  0  0
  157.8760  211.3680  156.5610 O   0  0  0  0  0  1  0  0  0  0  0  0
  156.3290  212.7840  154.1640 C   0  0  0  0  0  1  0  0  0  0  0  0
  157.1840  213.0480  155.3090 N   0  0  0  0  0  2  0  0  0  0  0  0
  161.1270  207.4700  152.9490 C   0  0  0  0  0  0  0  0  0  0  0  0
  160.3920  206.8850  153.7930 O   0  0  0  0  0  0  0  0  0  0  0  0
  162.2230  206.7830  152.3390 N   0  0  0  0  0  2  0  0  0  0  0  0
  162.4270  205.3460  152.4570 C   0  0  0  0  0  2  0  0  0  0  0  0
  162.0490  204.6670  151.1830 C   0  0  0  0  0  3  0  0  0  0  0  0
  160.1940  203.6070  152.2090 O   0  0  0  0  0  1  0  0  0  0  0  0
  160.9960  203.8450  151.0920 C   0  0  0  0  0  0  0  0  0  0  0  0
  160.6100  203.2240  149.7650 C   0  0  2  0  0  3  0  0  0  0  0  0
  161.1610  201.0120  148.9790 C   0  0  0  0  0  1  0  0  0  0  0  0
  160.2930  201.7950  149.8620 N   0  0  0  0  0  2  0  0  0  0  0  0
  161.4750  203.5410  148.5300 C   0  0  0  0  0  2  0  0  0  0  0  0
  161.0930  204.7940  147.7440 C   0  0  0  0  0  3  0  0  0  0  0  0
  162.2420  205.4390  147.3300 F   0  0  0  0  0  0  0  0  0  0  0  0
  160.3480  205.6630  148.5200 F   0  0  0  0  0  0  0  0  0  0  0  0
  160.7790  212.5270  149.8910 N   0  0  0  0  0  0  0  0  0  0  0  0
  161.2790  213.5930  149.0330 C   0  0  0  0  0  2  0  0  0  0  0  0
  160.2580  213.9960  148.0750 N   0  0  0  0  0  2  0  0  0  0  0  0
  162.2730  212.4660  142.6270 C   0  0  0  0  0  3  0  0  0  0  0  0
  159.9460  211.7450  142.6900 C   0  0  0  0  0  3  0  0  0  0  0  0
  159.8110  212.2610  143.9850 C   0  0  0  0  0  3  0  0  0  0  0  0
  161.3050  211.3230  140.7730 F   0  0  0  0  0  0  0  0  0  0  0  0
  160.1350  213.4100  146.7990 N   0  0  0  0  0  2  0  0  0  0  0  0
  162.1160  212.9870  143.9110 C   0  0  0  0  0  0  0  0  0  0  0  0
  161.0450  213.4820  145.8700 C   0  0  0  0  0  0  0  0  0  0  0  0
  163.1480  213.6910  144.7250 C   0  0  0  0  0  2  0  0  0  0  0  0
  160.9220  212.8740  144.5700 C   0  0  0  0  0  0  0  0  0  0  0  0
  162.4210  214.0560  146.0300 C   0  0  0  0  0  3  0  0  0  0  0  0
  161.1780  211.8420  142.0180 C   0  0  0  0  0  0  0  0  0  0  0  0
  160.1980  212.9260  151.1700 C   0  0  0  0  0  2  0  0  0  0  0  0
  158.7280  212.6690  151.1790 C   0  0  0  0  0  3  0  0  0  0  0  0
  157.8880  213.6250  150.7970 C   0  0  0  0  0  2  0  0  0  0  0  0
  1 32  1  0  0  0  0
  1  2  1  0  0  0  0
  2  3  1  0  0  0  0
  3  8  1  0  0  0  0
  4  3  2  0  0  0  0
  5  7  1  0  0  0  0
  5  6  2  0  0  0  0
  6  4  1  0  0  0  0
  7  1  2  0  0  0  0
  8 18  1  1  0  0  0
 10 12  1  0  0  0  0
 10  9  1  0  0  0  0
 11  8  1  6  0  0  0
 11 10  1  0  0  0  0
 11  9  1  0  0  0  0
 12 13  1  0  0  0  0
 14 13  1  0  0  0  0
 14 15  1  0  0  0  0
 16 17  1  0  0  0  0
 17 14  1  0  0  0  0
 18 19  2  0  0  0  0
 20 21  1  0  0  0  0
 20 18  1  0  0  0  0
 22 21  1  0  0  0  0
 24 22  2  0  0  0  0
 24 23  1  0  0  0  0
 25 28  1  6  0  0  0
 25 27  1  0  0  0  0
 25 24  1  0  0  0  0
 26 27  1  0  0  0  0
 29 31  1  0  0  0  0
 29 28  1  0  0  0  0
 30 29  1  0  0  0  0
 32 46  1  0  0  0  0
 33 32  1  0  0  0  0
 34 33  1  0  0  0  0
 35 40  1  0  0  0  0
 36 37  2  0  0  0  0
 37 43  1  0  0  0  0
 38 45  1  0  0  0  0
 39 34  1  0  0  0  0
 40 43  2  0  0  0  0
 40 42  1  0  0  0  0
 41 44  2  0  0  0  0
 41 39  1  0  0  0  0
 42 44  1  0  0  0  0
 43 41  1  0  0  0  0
 45 35  2  0  0  0  0
 45 36  1  0  0  0  0
 46 47  1  0  0  0  0
 48 47  2  0  0  0  0
M  END
>  <MODEL>
2

>  <REMARK>
 VINA RESULT:      -6.3      2.784      8.218
  Name = 
  19 active torsions:
  status: ('A' for Active; 'I' for Inactive)
    1  A    between atoms: N_2  and  N_16
    2  A    between atoms: N_2  and  C_31
    3  A    between atoms: C_3  and  C_43
    4  A    between atoms: C_4  and  C_29
    5  A    between atoms: C_6  and  C_29
    6  A    between atoms: C_6  and  N_37
    7  A    between atoms: C_6  and  C_46
    8  A    between atoms: C_7  and  N_25
    9  A    between atoms: C_9  and  C_42
   10  A    between atoms: C_13  and  C_28
   11  A    between atoms: N_17  and  C_19
   12  A    between atoms: N_17  and  N_30
   13  A    between atoms: C_19  and  C_35
   14  A    between atoms: N_25  and  C_28
   15  A    between atoms: N_25  and  C_31
   16  A    between atoms: N_32  and  C_35
   17  A    between atoms: C_34  and  C_43
   18  A    between atoms: C_39  and  C_43
   19  A    between atoms: N_41  and  C_42
                            x       y       z     vdW  Elec       q    Type
                         _______ _______ _______ _____ _____    ______ ____

>  <TORSDO>
F 19

$$$$
=
 OpenBabel11052410133D

 48 51  0  0  1  0  0  0  0  0999 V2000
  161.5250  208.0630  152.4010 C   0  0  0  0  0  0  0  0  0  0  0  0
  160.2990  208.8450  152.0450 C   0  0  0  0  0  2  0  0  0  0  0  0
  160.5960  210.2700  151.7140 C   0  0  0  0  0  0  0  0  0  0  0  0
  161.3640  210.6000  150.6620 C   0  0  0  0  0  3  0  0  0  0  0  0
  162.6140  208.4790  150.1780 C   0  0  0  0  0  3  0  0  0  0  0  0
  162.1350  209.6740  149.8160 C   0  0  0  0  0  3  0  0  0  0  0  0
  162.4830  207.8350  151.4970 C   0  0  0  0  0  3  0  0  0  0  0  0
  159.8820  211.3320  152.4920 C   0  0  2  0  0  3  0  0  0  0  0  0
  159.1330  213.6870  152.1910 C   0  0  0  0  0  2  0  0  0  0  0  0
  159.3400  213.0920  150.8530 N   0  0  0  0  0  0  0  0  0  0  0  0
  160.2280  212.7420  151.9840 C   0  0  2  0  0  3  0  0  0  0  0  0
  160.1160  214.0010  150.0100 C   0  0  0  0  0  2  0  0  0  0  0  0
  160.0870  213.5960  148.5250 C   0  0  0  0  0  2  0  0  0  0  0  0
  161.2470  212.7980  148.1500 N   0  0  0  0  0  0  0  0  0  0  0  0
  160.7920  211.9080  147.2360 O   0  0  0  0  0  1  0  0  0  0  0  0
  162.0140  213.3400  146.0510 C   0  0  0  0  0  1  0  0  0  0  0  0
  162.1570  213.6260  147.4690 N   0  0  0  0  0  2  0  0  0  0  0  0
  160.1240  211.1770  153.9680 C   0  0  0  0  0  0  0  0  0  0  0  0
  161.1310  211.7120  154.5100 O   0  0  0  0  0  0  0  0  0  0  0  0
  159.1650  210.4640  154.7560 N   0  0  0  0  0  2  0  0  0  0  0  0
  159.1470  210.5000  156.2100 C   0  0  0  0  0  2  0  0  0  0  0  0
  158.4090  211.7060  156.6860 C   0  0  0  0  0  3  0  0  0  0  0  0
  156.3590  210.8830  155.8300 O   0  0  0  0  0  1  0  0  0  0  0  0
  157.0950  211.8690  156.4880 C   0  0  0  0  0  0  0  0  0  0  0  0
  156.3710  213.0800  157.0420 C   0  0  2  0  0  3  0  0  0  0  0  0
  154.1640  214.0400  156.9010 C   0  0  0  0  0  1  0  0  0  0  0  0
  154.9390  212.8510  157.2610 N   0  0  0  0  0  2  0  0  0  0  0  0
  156.6440  214.4520  156.3960 C   0  0  0  0  0  2  0  0  0  0  0  0
  157.1390  214.4300  154.9510 C   0  0  0  0  0  3  0  0  0  0  0  0
  156.3860  213.5280  154.2260 F   0  0  0  0  0  0  0  0  0  0  0  0
  158.4700  214.0570  154.8850 F   0  0  0  0  0  0  0  0  0  0  0  0
  161.5320  207.3000  153.6120 N   0  0  0  0  0  0  0  0  0  0  0  0
  161.6770  205.8530  153.5310 C   0  0  0  0  0  2  0  0  0  0  0  0
  160.5700  205.2720  152.7830 N   0  0  0  0  0  2  0  0  0  0  0  0
  161.2750  202.4000  147.5540 C   0  0  0  0  0  3  0  0  0  0  0  0
  161.0530  200.6510  149.2360 C   0  0  0  0  0  3  0  0  0  0  0  0
  160.8790  201.6190  150.2340 C   0  0  0  0  0  3  0  0  0  0  0  0
  161.4430  200.1020  146.9460 F   0  0  0  0  0  0  0  0  0  0  0  0
  160.7130  204.1230  151.9800 N   0  0  0  0  0  2  0  0  0  0  0  0
  161.0870  203.3490  148.5580 C   0  0  0  0  0  0  0  0  0  0  0  0
  160.7510  204.1390  150.6780 C   0  0  0  0  0  0  0  0  0  0  0  0
  161.0630  204.8320  148.3970 C   0  0  0  0  0  3  0  0  0  0  0  0
  160.9070  202.9650  149.8600 C   0  0  1  0  0  3  0  0  0  0  0  0
  160.8030  205.3650  149.8160 C   0  0  0  0  0  3  0  0  0  0  0  0
  161.2580  201.0450  147.9010 C   0  0  0  0  0  0  0  0  0  0  0  0
  160.8650  207.8330  154.7980 C   0  0  0  0  0  2  0  0  0  0  0  0
  160.5970  206.7430  155.7810 C   0  0  0  0  0  3  0  0  0  0  0  0
  160.4950  207.0290  157.0740 C   0  0  0  0  0  2  0  0  0  0  0  0
  1 32  1  0  0  0  0
  2  1  1  0  0  0  0
  3  2  1  0  0  0  0
  3  8  1  0  0  0  0
  4  3  2  0  0  0  0
  5  7  1  0  0  0  0
  6  5  2  0  0  0  0
  6  4  1  0  0  0  0
  7  1  2  0  0  0  0
  8 18  1  1  0  0  0
 10 11  1  0  0  0  0
 10  9  1  0  0  0  0
 11  9  1  0  0  0  0
 11  8  1  1  0  0  0
 12 10  1  0  0  0  0
 13 12  1  0  0  0  0
 14 13  1  0  0  0  0
 15 14  1  0  0  0  0
 16 17  1  0  0  0  0
 17 14  1  0  0  0  0
 18 19  2  0  0  0  0
 18 20  1  0  0  0  0
 20 21  1  0  0  0  0
 21 22  1  0  0  0  0
 23 24  1  0  0  0  0
 24 22  2  0  0  0  0
 24 25  1  0  0  0  0
 25 28  1  6  0  0  0
 25 27  1  0  0  0  0
 26 27  1  0  0  0  0
 29 28  1  0  0  0  0
 30 29  1  0  0  0  0
 31 29  1  0  0  0  0
 32 46  1  0  0  0  0
 33 32  1  0  0  0  0
 34 33  1  0  0  0  0
 35 45  2  0  0  0  0
 35 40  1  0  0  0  0
 36 37  2  0  0  0  0
 38 45  1  0  0  0  0
 39 34  1  0  0  0  0
 40 43  1  0  0  0  0
 41 39  1  0  0  0  0
 42 40  2  0  0  0  0
 42 44  1  0  0  0  0
 43 37  1  6  0  0  0
 43 41  1  0  0  0  0
 44 41  2  0  0  0  0
 45 36  1  0  0  0  0
 46 47  1  0  0  0  0
 47 48  2  0  0  0  0
M  END
>  <MODEL>
3

>  <REMARK>
 VINA RESULT:      -6.3      2.508      6.555
  Name = 
  19 active torsions:
  status: ('A' for Active; 'I' for Inactive)
    1  A    between atoms: N_2  and  N_16
    2  A    between atoms: N_2  and  C_31
    3  A    between atoms: C_3  and  C_43
    4  A    between atoms: C_4  and  C_29
    5  A    between atoms: C_6  and  C_29
    6  A    between atoms: C_6  and  N_37
    7  A    between atoms: C_6  and  C_46
    8  A    between atoms: C_7  and  N_25
    9  A    between atoms: C_9  and  C_42
   10  A    between atoms: C_13  and  C_28
   11  A    between atoms: N_17  and  C_19
   12  A    between atoms: N_17  and  N_30
   13  A    between atoms: C_19  and  C_35
   14  A    between atoms: N_25  and  C_28
   15  A    between atoms: N_25  and  C_31
   16  A    between atoms: N_32  and  C_35
   17  A    between atoms: C_34  and  C_43
   18  A    between atoms: C_39  and  C_43
   19  A    between atoms: N_41  and  C_42
                            x       y       z     vdW  Elec       q    Type
                         _______ _______ _______ _____ _____    ______ ____

>  <TORSDO>
F 19

$$$$
=
 OpenBabel11052410133D

 48 51  0  0  1  0  0  0  0  0999 V2000
  160.7860  208.8570  153.1490 C   0  0  0  0  0  0  0  0  0  0  0  0
  159.6580  209.8050  152.8850 C   0  0  0  0  0  2  0  0  0  0  0  0
  160.1080  211.2240  152.7750 C   0  0  0  0  0  0  0  0  0  0  0  0
  160.9440  211.6220  151.8030 C   0  0  0  0  0  3  0  0  0  0  0  0
  161.9950  209.4760  151.0380 C   0  0  0  0  0  3  0  0  0  0  0  0
  161.6510  210.7540  150.8460 C   0  0  0  0  0  3  0  0  0  0  0  0
  161.7500  208.6640  152.2430 C   0  0  0  0  0  3  0  0  0  0  0  0
  159.4730  212.2310  153.6860 C   0  0  2  0  0  3  0  0  0  0  0  0
  157.2430  211.3260  154.3230 C   0  0  0  0  0  2  0  0  0  0  0  0
  157.5390  212.4850  155.1930 N   0  0  0  0  0  0  0  0  0  0  0  0
  158.6140  211.5590  154.7700 C   0  0  2  0  0  3  0  0  0  0  0  0
  157.2600  212.1510  156.5890 C   0  0  0  0  0  2  0  0  0  0  0  0
  156.2980  213.1550  157.2530 C   0  0  0  0  0  2  0  0  0  0  0  0
  155.1270  213.4220  156.4280 N   0  0  0  0  0  0  0  0  0  0  0  0
  154.2230  213.9900  157.2600 O   0  0  0  0  0  1  0  0  0  0  0  0
  154.3870  214.4440  154.5060 C   0  0  0  0  0  1  0  0  0  0  0  0
  155.4620  214.4080  155.4830 N   0  0  0  0  0  2  0  0  0  0  0  0
  158.7080  213.2610  152.9030 C   0  0  0  0  0  0  0  0  0  0  0  0
  158.5600  214.4300  153.3570 O   0  0  0  0  0  0  0  0  0  0  0  0
  158.2030  212.9140  151.6100 N   0  0  0  0  0  2  0  0  0  0  0  0
  157.7110  213.8990  150.6580 C   0  0  0  0  0  2  0  0  0  0  0  0
  158.6740  214.0480  149.5280 C   0  0  0  0  0  3  0  0  0  0  0  0
  157.1070  213.1820  147.9760 O   0  0  0  0  0  1  0  0  0  0  0  0
  158.3700  213.6960  148.2730 C   0  0  0  0  0  0  0  0  0  0  0  0
  159.3540  213.9210  147.1430 C   0  0  2  0  0  3  0  0  0  0  0  0
  159.6790  214.3710  144.7960 C   0  0  0  0  0  1  0  0  0  0  0  0
  158.7210  214.3860  145.9050 N   0  0  0  0  0  2  0  0  0  0  0  0
  160.4200  212.8410  146.8760 C   0  0  0  0  0  2  0  0  0  0  0  0
  161.7310  212.9830  147.6480 C   0  0  0  0  0  3  0  0  0  0  0  0
  162.4760  214.0050  147.0950 F   0  0  0  0  0  0  0  0  0  0  0  0
  162.4680  211.8140  147.5980 F   0  0  0  0  0  0  0  0  0  0  0  0
  160.6710  207.9290  154.2330 N   0  0  0  0  0  0  0  0  0  0  0  0
  160.3570  206.5370  153.9390 C   0  0  0  0  0  2  0  0  0  0  0  0
  161.5220  205.8590  153.3860 N   0  0  0  0  0  2  0  0  0  0  0  0
  161.0230  202.8270  148.2240 C   0  0  0  0  0  3  0  0  0  0  0  0
  160.9850  201.1390  149.9810 C   0  0  0  0  0  3  0  0  0  0  0  0
  161.0740  202.1390  150.9580 C   0  0  0  0  0  3  0  0  0  0  0  0
  160.9000  200.5100  147.6790 F   0  0  0  0  0  0  0  0  0  0  0  0
  161.4250  204.6850  152.6120 N   0  0  0  0  0  2  0  0  0  0  0  0
  161.0970  203.8100  149.2110 C   0  0  0  0  0  0  0  0  0  0  0  0
  161.2220  204.6700  151.3260 C   0  0  0  0  0  0  0  0  0  0  0  0
  161.1560  205.2860  149.0030 C   0  0  0  0  0  3  0  0  0  0  0  0
  161.1330  203.4700  150.5360 C   0  0  1  0  0  3  0  0  0  0  0  0
  161.2050  205.8690  150.4250 C   0  0  0  0  0  3  0  0  0  0  0  0
  160.9670  201.4860  148.6180 C   0  0  0  0  0  0  0  0  0  0  0  0
  160.3140  208.4210  155.5620 C   0  0  0  0  0  2  0  0  0  0  0  0
  161.5290  208.8940  156.2870 C   0  0  0  0  0  3  0  0  0  0  0  0
  161.9430  210.1480  156.1360 C   0  0  0  0  0  2  0  0  0  0  0  0
  1 32  1  0  0  0  0
  2  1  1  0  0  0  0
  3  2  1  0  0  0  0
  3  8  1  0  0  0  0
  4  3  2  0  0  0  0
  5  7  1  0  0  0  0
  6  5  2  0  0  0  0
  6  4  1  0  0  0  0
  7  1  2  0  0  0  0
  8 18  1  6  0  0  0
  9 11  1  0  0  0  0
  9 10  1  0  0  0  0
 10 12  1  0  0  0  0
 11  8  1  6  0  0  0
 11 10  1  0  0  0  0
 12 13  1  0  0  0  0
 14 13  1  0  0  0  0
 14 15  1  0  0  0  0
 16 17  1  0  0  0  0
 17 14  1  0  0  0  0
 18 19  2  0  0  0  0
 20 18  1  0  0  0  0
 21 20  1  0  0  0  0
 22 21  1  0  0  0  0
 23 24  1  0  0  0  0
 24 22  2  0  0  0  0
 25 28  1  6  0  0  0
 25 24  1  0  0  0  0
 26 27  1  0  0  0  0
 27 25  1  0  0  0  0
 28 29  1  0  0  0  0
 30 29  1  0  0  0  0
 31 29  1  0  0  0  0
 32 46  1  0  0  0  0
 33 32  1  0  0  0  0
 34 33  1  0  0  0  0
 35 45  2  0  0  0  0
 35 40  1  0  0  0  0
 36 37  2  0  0  0  0
 38 45  1  0  0  0  0
 39 34  1  0  0  0  0
 40 43  1  0  0  0  0
 41 39  1  0  0  0  0
 42 40  2  0  0  0  0
 42 44  1  0  0  0  0
 43 37  1  1  0  0  0
 43 41  1  0  0  0  0
 44 41  2  0  0  0  0
 45 36  1  0  0  0  0
 46 47  1  0  0  0  0
 48 47  2  0  0  0  0
M  END
>  <MODEL>
4

>  <REMARK>
 VINA RESULT:      -6.2      1.771      2.073
  Name = 
  19 active torsions:
  status: ('A' for Active; 'I' for Inactive)
    1  A    between atoms: N_2  and  N_16
    2  A    between atoms: N_2  and  C_31
    3  A    between atoms: C_3  and  C_43
    4  A    between atoms: C_4  and  C_29
    5  A    between atoms: C_6  and  C_29
    6  A    between atoms: C_6  and  N_37
    7  A    between atoms: C_6  and  C_46
    8  A    between atoms: C_7  and  N_25
    9  A    between atoms: C_9  and  C_42
   10  A    between atoms: C_13  and  C_28
   11  A    between atoms: N_17  and  C_19
   12  A    between atoms: N_17  and  N_30
   13  A    between atoms: C_19  and  C_35
   14  A    between atoms: N_25  and  C_28
   15  A    between atoms: N_25  and  C_31
   16  A    between atoms: N_32  and  C_35
   17  A    between atoms: C_34  and  C_43
   18  A    between atoms: C_39  and  C_43
   19  A    between atoms: N_41  and  C_42
                            x       y       z     vdW  Elec       q    Type
                         _______ _______ _______ _____ _____    ______ ____

>  <TORSDO>
F 19

$$$$
=
 OpenBabel11052410133D

 48 51  0  0  1  0  0  0  0  0999 V2000
  159.9140  211.3570  154.1150 C   0  0  0  0  0  0  0  0  0  0  0  0
  159.6040  209.9000  153.9680 C   0  0  0  0  0  2  0  0  0  0  0  0
  160.8280  209.0560  153.8460 C   0  0  0  0  0  0  0  0  0  0  0  0
  161.7280  208.9750  154.8410 C   0  0  0  0  0  3  0  0  0  0  0  0
  161.2360  211.0130  156.2200 C   0  0  0  0  0  3  0  0  0  0  0  0
  161.7480  209.7860  156.0700 C   0  0  0  0  0  3  0  0  0  0  0  0
  160.5520  211.8190  155.1950 C   0  0  0  0  0  3  0  0  0  0  0  0
  160.9500  208.1690  152.6440 C   0  0  2  0  0  3  0  0  0  0  0  0
  162.4250  206.3150  151.8840 C   0  0  0  0  0  2  0  0  0  0  0  0
  161.0710  205.7650  152.1150 N   0  0  0  0  0  0  0  0  0  0  0  0
  161.6180  206.8280  152.9880 C   0  0  2  0  0  3  0  0  0  0  0  0
  161.1540  204.5320  152.8970 C   0  0  0  0  0  2  0  0  0  0  0  0
  160.4480  203.3500  152.2080 C   0  0  0  0  0  2  0  0  0  0  0  0
  161.0820  202.9910  150.9460 N   0  0  0  0  0  0  0  0  0  0  0  0
  162.1570  202.2410  151.2830 O   0  0  0  0  0  1  0  0  0  0  0  0
  160.9540  200.9150  149.9650 C   0  0  0  0  0  1  0  0  0  0  0  0
  160.2170  202.1370  150.2390 N   0  0  0  0  0  2  0  0  0  0  0  0
  161.6400  208.8830  151.5140 C   0  0  0  0  0  0  0  0  0  0  0  0
  162.4390  209.8320  151.7500 O   0  0  0  0  0  0  0  0  0  0  0  0
  161.4240  208.4310  150.1740 N   0  0  0  0  0  2  0  0  0  0  0  0
  162.2480  208.8500  149.0500 C   0  0  0  0  0  2  0  0  0  0  0  0
  162.3600  207.7450  148.0540 C   0  0  0  0  0  3  0  0  0  0  0  0
  160.3770  206.7220  148.8540 O   0  0  0  0  0  1  0  0  0  0  0  0
  161.4690  206.7470  147.9850 C   0  0  0  0  0  0  0  0  0  0  0  0
  161.5840  205.6770  146.9180 C   0  0  2  0  0  3  0  0  0  0  0  0
  161.7980  203.3580  147.5410 C   0  0  0  0  0  1  0  0  0  0  0  0
  162.5190  204.6040  147.2690 N   0  0  0  0  0  2  0  0  0  0  0  0
  161.7400  206.1230  145.4510 C   0  0  0  0  0  2  0  0  0  0  0  0
  160.8510  205.4120  144.4320 C   0  0  0  0  0  3  0  0  0  0  0  0
  160.7060  204.0890  144.8000 F   0  0  0  0  0  0  0  0  0  0  0  0
  161.4020  205.4650  143.1650 F   0  0  0  0  0  0  0  0  0  0  0  0
  159.2610  212.2940  153.2530 N   0  0  0  0  0  0  0  0  0  0  0  0
  159.4240  212.1580  151.8120 C   0  0  0  0  0  2  0  0  0  0  0  0
  159.6130  213.4650  151.1960 N   0  0  0  0  0  2  0  0  0  0  0  0
  159.5600  214.1940  145.2330 C   0  0  0  0  0  3  0  0  0  0  0  0
  161.9130  214.0480  145.8540 C   0  0  0  0  0  3  0  0  0  0  0  0
  161.5570  213.8570  147.1950 C   0  0  0  0  0  3  0  0  0  0  0  0
  161.2680  214.4260  143.5870 F   0  0  0  0  0  0  0  0  0  0  0  0
  160.2220  213.6340  149.9360 N   0  0  0  0  0  2  0  0  0  0  0  0
  159.2250  213.9890  146.5710 C   0  0  0  0  0  0  0  0  0  0  0  0
  159.5750  213.6550  148.8070 C   0  0  0  0  0  0  0  0  0  0  0  0
  157.8520  213.9160  147.1500 C   0  0  0  0  0  3  0  0  0  0  0  0
  160.1990  213.8370  147.5220 C   0  0  1  0  0  3  0  0  0  0  0  0
  158.0840  213.6570  148.6480 C   0  0  0  0  0  3  0  0  0  0  0  0
  160.9140  214.2230  144.8790 C   0  0  0  0  0  0  0  0  0  0  0  0
  158.9350  213.6250  153.7590 C   0  0  0  0  0  2  0  0  0  0  0  0
  157.5070  213.6860  154.1870 C   0  0  0  0  0  3  0  0  0  0  0  0
  156.5760  214.0850  153.3270 C   0  0  0  0  0  2  0  0  0  0  0  0
  1  7  2  0  0  0  0
  2  1  1  0  0  0  0
  3  2  1  0  0  0  0
  3  4  2  0  0  0  0
  4  6  1  0  0  0  0
  6  5  2  0  0  0  0
  7  5  1  0  0  0  0
  8 18  1  6  0  0  0
  8  3  1  0  0  0  0
  9 10  1  0  0  0  0
  9 11  1  0  0  0  0
 10 12  1  0  0  0  0
 10 11  1  0  0  0  0
 11  8  1  6  0  0  0
 13 12  1  0  0  0  0
 14 15  1  0  0  0  0
 14 13  1  0  0  0  0
 16 17  1  0  0  0  0
 17 14  1  0  0  0  0
 18 19  2  0  0  0  0
 20 18  1  0  0  0  0
 21 20  1  0  0  0  0
 22 21  1  0  0  0  0
 24 22  2  0  0  0  0
 24 23  1  0  0  0  0
 25 28  1  6  0  0  0
 25 27  1  0  0  0  0
 25 24  1  0  0  0  0
 27 26  1  0  0  0  0
 29 30  1  0  0  0  0
 29 28  1  0  0  0  0
 31 29  1  0  0  0  0
 32 46  1  0  0  0  0
 32  1  1  0  0  0  0
 33 32  1  0  0  0  0
 34 33  1  0  0  0  0
 35 40  1  0  0  0  0
 36 37  2  0  0  0  0
 38 45  1  0  0  0  0
 39 34  1  0  0  0  0
 40 42  2  0  0  0  0
 40 43  1  0  0  0  0
 41 39  1  0  0  0  0
 42 44  1  0  0  0  0
 43 37  1  6  0  0  0
 43 41  1  0  0  0  0
 44 41  2  0  0  0  0
 45 35  2  0  0  0  0
 45 36  1  0  0  0  0
 46 47  1  0  0  0  0
 48 47  2  0  0  0  0
M  END
>  <MODEL>
5

>  <REMARK>
 VINA RESULT:      -6.1      3.063      8.707
  Name = 
  19 active torsions:
  status: ('A' for Active; 'I' for Inactive)
    1  A    between atoms: N_2  and  N_16
    2  A    between atoms: N_2  and  C_31
    3  A    between atoms: C_3  and  C_43
    4  A    between atoms: C_4  and  C_29
    5  A    between atoms: C_6  and  C_29
    6  A    between atoms: C_6  and  N_37
    7  A    between atoms: C_6  and  C_46
    8  A    between atoms: C_7  and  N_25
    9  A    between atoms: C_9  and  C_42
   10  A    between atoms: C_13  and  C_28
   11  A    between atoms: N_17  and  C_19
   12  A    between atoms: N_17  and  N_30
   13  A    between atoms: C_19  and  C_35
   14  A    between atoms: N_25  and  C_28
   15  A    between atoms: N_25  and  C_31
   16  A    between atoms: N_32  and  C_35
   17  A    between atoms: C_34  and  C_43
   18  A    between atoms: C_39  and  C_43
   19  A    between atoms: N_41  and  C_42
                            x       y       z     vdW  Elec       q    Type
                         _______ _______ _______ _____ _____    ______ ____

>  <TORSDO>
F 19

$$$$
=
 OpenBabel11052410133D

 48 51  0  0  1  0  0  0  0  0999 V2000
  161.6340  210.9350  149.7300 C   0  0  0  0  0  0  0  0  0  0  0  0
  162.1370  210.2750  150.9760 C   0  0  0  0  0  2  0  0  0  0  0  0
  161.4730  208.9670  151.2470 C   0  0  0  0  0  0  0  0  0  0  0  0
  161.5940  207.9290  150.4020 C   0  0  0  0  0  3  0  0  0  0  0  0
  162.3220  209.0190  148.2620 C   0  0  0  0  0  3  0  0  0  0  0  0
  162.2150  207.9570  149.0670 C   0  0  0  0  0  3  0  0  0  0  0  0
  161.8380  210.3850  148.5290 C   0  0  0  0  0  3  0  0  0  0  0  0
  160.7980  208.7870  152.5730 C   0  0  2  0  0  3  0  0  0  0  0  0
  161.2360  209.2950  154.9690 C   0  0  0  0  0  2  0  0  0  0  0  0
  160.1600  210.1910  154.4950 N   0  0  0  0  0  0  0  0  0  0  0  0
  161.2820  209.8170  153.6060 C   0  0  2  0  0  3  0  0  0  0  0  0
  160.4290  211.5670  154.9110 C   0  0  0  0  0  2  0  0  0  0  0  0
  159.5780  211.9930  156.1220 C   0  0  0  0  0  2  0  0  0  0  0  0
  158.9960  213.3170  155.9460 N   0  0  0  0  0  0  0  0  0  0  0  0
  160.0330  214.1820  156.0380 O   0  0  0  0  0  1  0  0  0  0  0  0
  157.1480  212.9310  154.6320 C   0  0  0  0  0  1  0  0  0  0  0  0
  158.5160  213.4220  154.6280 N   0  0  0  0  0  2  0  0  0  0  0  0
  160.9370  207.3720  153.0630 C   0  0  0  0  0  0  0  0  0  0  0  0
  160.3700  207.0060  154.1300 O   0  0  0  0  0  0  0  0  0  0  0  0
  161.6700  206.4330  152.2700 N   0  0  0  0  0  2  0  0  0  0  0  0
  161.6240  204.9960  152.4940 C   0  0  0  0  0  2  0  0  0  0  0  0
  161.9420  204.2680  151.2310 C   0  0  0  0  0  3  0  0  0  0  0  0
  160.0760  205.2190  150.1230 O   0  0  0  0  0  1  0  0  0  0  0  0
  161.1930  204.3830  150.1270 C   0  0  0  0  0  0  0  0  0  0  0  0
  161.5860  203.6760  148.8450 C   0  0  2  0  0  3  0  0  0  0  0  0
  161.4850  203.8930  146.4460 C   0  0  0  0  0  1  0  0  0  0  0  0
  161.7570  204.5860  147.7080 N   0  0  0  0  0  2  0  0  0  0  0  0
  160.8200  202.3980  148.4530 C   0  0  0  0  0  2  0  0  0  0  0  0
  161.4100  201.0790  148.9490 C   0  0  0  0  0  3  0  0  0  0  0  0
  161.2780  200.1220  147.9630 F   0  0  0  0  0  0  0  0  0  0  0  0
  160.7600  200.6400  150.0890 F   0  0  0  0  0  0  0  0  0  0  0  0
  161.2070  212.3000  149.7940 N   0  0  0  0  0  0  0  0  0  0  0  0
  162.0010  213.3180  149.1170 C   0  0  0  0  0  2  0  0  0  0  0  0
  161.2730  213.8520  147.9740 N   0  0  0  0  0  2  0  0  0  0  0  0
  160.3560  212.0340  142.3220 C   0  0  0  0  0  3  0  0  0  0  0  0
  162.7060  212.6680  142.4320 C   0  0  0  0  0  3  0  0  0  0  0  0
  162.5710  212.9730  143.7920 C   0  0  0  0  0  3  0  0  0  0  0  0
  161.7340  211.9320  140.3800 F   0  0  0  0  0  0  0  0  0  0  0  0
  161.6660  213.6150  146.6410 N   0  0  0  0  0  2  0  0  0  0  0  0
  160.2420  212.3300  143.6800 C   0  0  0  0  0  0  0  0  0  0  0  0
  160.9180  213.0290  145.7500 C   0  0  0  0  0  0  0  0  0  0  0  0
  159.0200  212.2080  144.5250 C   0  0  0  0  0  2  0  0  0  0  0  0
  161.3180  212.7970  144.3860 C   0  0  0  0  0  0  0  0  0  0  0  0
  159.4800  212.6440  145.9260 C   0  0  0  0  0  3  0  0  0  0  0  0
  161.5970  212.2070  141.7000 C   0  0  0  0  0  0  0  0  0  0  0  0
  160.3840  212.7420  150.9170 C   0  0  0  0  0  2  0  0  0  0  0  0
  159.1160  213.3560  150.4250 C   0  0  0  0  0  3  0  0  0  0  0  0
  158.5510  214.3440  151.1100 C   0  0  0  0  0  2  0  0  0  0  0  0
  1 32  1  0  0  0  0
  1  2  1  0  0  0  0
  2  3  1  0  0  0  0
  3  8  1  0  0  0  0
  4  3  2  0  0  0  0
  5  7  1  0  0  0  0
  5  6  2  0  0  0  0
  6  4  1  0  0  0  0
  7  1  2  0  0  0  0
  8 18  1  1  0  0  0
 10 12  1  0  0  0  0
 10  9  1  0  0  0  0
 11  8  1  6  0  0  0
 11 10  1  0  0  0  0
 11  9  1  0  0  0  0
 12 13  1  0  0  0  0
 14 15  1  0  0  0  0
 14 13  1  0  0  0  0
 17 16  1  0  0  0  0
 17 14  1  0  0  0  0
 18 19  2  0  0  0  0
 20 21  1  0  0  0  0
 20 18  1  0  0  0  0
 22 21  1  0  0  0  0
 23 24  1  0  0  0  0
 24 22  2  0  0  0  0
 25 28  1  6  0  0  0
 25 24  1  0  0  0  0
 26 27  1  0  0  0  0
 27 25  1  0  0  0  0
 28 29  1  0  0  0  0
 29 31  1  0  0  0  0
 30 29  1  0  0  0  0
 32 46  1  0  0  0  0
 33 32  1  0  0  0  0
 34 33  1  0  0  0  0
 35 40  1  0  0  0  0
 36 37  2  0  0  0  0
 37 43  1  0  0  0  0
 38 45  1  0  0  0  0
 39 34  1  0  0  0  0
 40 43  2  0  0  0  0
 40 42  1  0  0  0  0
 41 44  2  0  0  0  0
 41 39  1  0  0  0  0
 42 44  1  0  0  0  0
 43 41  1  0  0  0  0
 45 35  2  0  0  0  0
 45 36  1  0  0  0  0
 47 46  1  0  0  0  0
 47 48  2  0  0  0  0
M  END
>  <MODEL>
6

>  <REMARK>
 VINA RESULT:      -5.6      2.527      8.422
  Name = 
  19 active torsions:
  status: ('A' for Active; 'I' for Inactive)
    1  A    between atoms: N_2  and  N_16
    2  A    between atoms: N_2  and  C_31
    3  A    between atoms: C_3  and  C_43
    4  A    between atoms: C_4  and  C_29
    5  A    between atoms: C_6  and  C_29
    6  A    between atoms: C_6  and  N_37
    7  A    between atoms: C_6  and  C_46
    8  A    between atoms: C_7  and  N_25
    9  A    between atoms: C_9  and  C_42
   10  A    between atoms: C_13  and  C_28
   11  A    between atoms: N_17  and  C_19
   12  A    between atoms: N_17  and  N_30
   13  A    between atoms: C_19  and  C_35
   14  A    between atoms: N_25  and  C_28
   15  A    between atoms: N_25  and  C_31
   16  A    between atoms: N_32  and  C_35
   17  A    between atoms: C_34  and  C_43
   18  A    between atoms: C_39  and  C_43
   19  A    between atoms: N_41  and  C_42
                            x       y       z     vdW  Elec       q    Type
                         _______ _______ _______ _____ _____    ______ ____

>  <TORSDO>
F 19

$$$$
=
 OpenBabel11052410133D

 48 51  0  0  1  0  0  0  0  0999 V2000
  160.9380  209.4420  152.9640 C   0  0  0  0  0  0  0  0  0  0  0  0
  161.7740  210.2850  152.0520 C   0  0  0  0  0  2  0  0  0  0  0  0
  160.9610  211.2180  151.2180 C   0  0  0  0  0  0  0  0  0  0  0  0
  160.2170  212.1900  151.7730 C   0  0  0  0  0  3  0  0  0  0  0  0
  159.9680  211.4290  154.1520 C   0  0  0  0  0  3  0  0  0  0  0  0
  159.9570  212.3790  153.2110 C   0  0  0  0  0  3  0  0  0  0  0  0
  160.2330  209.9920  153.9570 C   0  0  0  0  0  3  0  0  0  0  0  0
  161.1210  211.1460  149.7300 C   0  0  2  0  0  3  0  0  0  0  0  0
  162.3660  210.0570  147.8710 C   0  0  0  0  0  2  0  0  0  0  0  0
  161.5620  209.0230  148.5580 N   0  0  0  0  0  0  0  0  0  0  0  0
  162.1940  210.1240  149.3200 C   0  0  2  0  0  3  0  0  0  0  0  0
  162.3810  207.8410  148.8240 C   0  0  0  0  0  2  0  0  0  0  0  0
  161.8610  206.5890  148.0920 C   0  0  0  0  0  2  0  0  0  0  0  0
  162.0800  206.6620  146.6530 N   0  0  0  0  0  0  0  0  0  0  0  0
  162.7240  205.5170  146.3280 O   0  0  0  0  0  1  0  0  0  0  0  0
  160.7720  205.3320  145.3090 C   0  0  0  0  0  1  0  0  0  0  0  0
  160.8320  206.6050  146.0080 N   0  0  0  0  0  2  0  0  0  0  0  0
  161.3710  212.5090  149.1470 C   0  0  0  0  0  0  0  0  0  0  0  0
  162.5490  212.9530  149.0440 O   0  0  0  0  0  0  0  0  0  0  0  0
  160.2620  213.2670  148.6570 N   0  0  0  0  0  2  0  0  0  0  0  0
  160.4140  214.4510  147.8230 C   0  0  0  0  0  2  0  0  0  0  0  0
  160.0420  214.1370  146.4130 C   0  0  0  0  0  3  0  0  0  0  0  0
  162.2170  213.3240  145.9400 O   0  0  0  0  0  1  0  0  0  0  0  0
  160.9120  213.6120  145.5400 C   0  0  0  0  0  0  0  0  0  0  0  0
  160.4780  213.2500  144.1340 C   0  0  2  0  0  3  0  0  0  0  0  0
  158.4100  213.9890  143.1370 C   0  0  0  0  0  1  0  0  0  0  0  0
  159.0380  212.9990  144.0170 N   0  0  0  0  0  2  0  0  0  0  0  0
  161.3100  212.2110  143.3580 C   0  0  0  0  0  2  0  0  0  0  0  0
  161.2120  212.2710  141.8340 C   0  0  0  0  0  3  0  0  0  0  0  0
  160.1570  211.4850  141.4150 F   0  0  0  0  0  0  0  0  0  0  0  0
  162.3740  211.8140  141.2410 F   0  0  0  0  0  0  0  0  0  0  0  0
  161.1340  208.0240  152.9690 N   0  0  0  0  0  0  0  0  0  0  0  0
  160.5120  207.2230  151.9230 C   0  0  0  0  0  2  0  0  0  0  0  0
  161.0710  205.8780  151.9130 N   0  0  0  0  0  0  0  0  0  0  0  0
  161.1780  200.6030  149.0400 C   0  0  0  0  0  3  0  0  0  0  0  0
  161.2240  202.3010  147.2920 C   0  0  0  0  0  3  0  0  0  0  0  0
  161.2290  203.3120  148.2610 C   0  0  0  0  0  3  0  0  0  0  0  0
  161.1680  199.9790  146.7400 F   0  0  0  0  0  0  0  0  0  0  0  0
  161.0760  205.0630  150.7630 N   0  0  0  0  0  0  0  0  0  0  0  0
  161.1980  201.6230  149.9910 C   0  0  0  0  0  0  0  0  0  0  0  0
  161.2160  203.7690  150.7830 C   0  0  0  0  0  0  0  0  0  0  0  0
  161.1960  201.4660  151.4740 C   0  0  0  0  0  2  0  0  0  0  0  0
  161.2100  202.9370  149.6070 C   0  0  0  0  0  0  0  0  0  0  0  0
  161.2430  202.9070  152.0100 C   0  0  0  0  0  3  0  0  0  0  0  0
  161.1910  200.9500  147.6840 C   0  0  0  0  0  0  0  0  0  0  0  0
  161.4370  207.3480  154.2280 C   0  0  0  0  0  2  0  0  0  0  0  0
  160.1790  207.0310  154.9670 C   0  0  0  0  0  3  0  0  0  0  0  0
  160.1490  207.1240  156.2910 C   0  0  0  0  0  2  0  0  0  0  0  0
  1 32  1  0  0  0  0
  1  7  2  0  0  0  0
  2  1  1  0  0  0  0
  3  4  2  0  0  0  0
  3  2  1  0  0  0  0
  4  6  1  0  0  0  0
  6  5  2  0  0  0  0
  7  5  1  0  0  0  0
  8 18  1  1  0  0  0
  8  3  1  0  0  0  0
  9 10  1  0  0  0  0
  9 11  1  0  0  0  0
 10 12  1  0  0  0  0
 10 11  1  0  0  0  0
 11  8  1  6  0  0  0
 13 12  1  0  0  0  0
 14 13  1  0  0  0  0
 15 14  1  0  0  0  0
 16 17  1  0  0  0  0
 17 14  1  0  0  0  0
 19 18  2  0  0  0  0
 20 18  1  0  0  0  0
 21 20  1  0  0  0  0
 22 21  1  0  0  0  0
 24 23  1  0  0  0  0
 24 22  2  0  0  0  0
 25 28  1  1  0  0  0
 25 24  1  0  0  0  0
 26 27  1  0  0  0  0
 27 25  1  0  0  0  0
 29 28  1  0  0  0  0
 30 29  1  0  0  0  0
 31 29  1  0  0  0  0
 32 46  1  0  0  0  0
 33 32  1  0  0  0  0
 34 33  1  0  0  0  0
 35 40  1  0  0  0  0
 36 45  1  0  0  0  0
 36 37  2  0  0  0  0
 37 43  1  0  0  0  0
 38 45  1  0  0  0  0
 39 41  1  0  0  0  0
 39 34  2  0  0  0  0
 40 42  1  0  0  0  0
 41 44  2  0  0  0  0
 42 44  1  0  0  0  0
 43 40  2  0  0  0  0
 43 41  1  0  0  0  0
 45 35  2  0  0  0  0
 46 47  1  0  0  0  0
 47 48  2  0  0  0  0
M  END
>  <MODEL>
7

>  <REMARK>
 VINA RESULT:      -5.6      3.058      5.511
  Name = 
  19 active torsions:
  status: ('A' for Active; 'I' for Inactive)
    1  A    between atoms: N_2  and  N_16
    2  A    between atoms: N_2  and  C_31
    3  A    between atoms: C_3  and  C_43
    4  A    between atoms: C_4  and  C_29
    5  A    between atoms: C_6  and  C_29
    6  A    between atoms: C_6  and  N_37
    7  A    between atoms: C_6  and  C_46
    8  A    between atoms: C_7  and  N_25
    9  A    between atoms: C_9  and  C_42
   10  A    between atoms: C_13  and  C_28
   11  A    between atoms: N_17  and  C_19
   12  A    between atoms: N_17  and  N_30
   13  A    between atoms: C_19  and  C_35
   14  A    between atoms: N_25  and  C_28
   15  A    between atoms: N_25  and  C_31
   16  A    between atoms: N_32  and  C_35
   17  A    between atoms: C_34  and  C_43
   18  A    between atoms: C_39  and  C_43
   19  A    between atoms: N_41  and  C_42
                            x       y       z     vdW  Elec       q    Type
                         _______ _______ _______ _____ _____    ______ ____

>  <TORSDO>
F 19

$$$$
=
 OpenBabel11052410133D

 48 51  0  0  1  0  0  0  0  0999 V2000
  160.8690  207.6840  153.9580 C   0  0  0  0  0  0  0  0  0  0  0  0
  161.6190  208.8670  154.4850 C   0  0  0  0  0  2  0  0  0  0  0  0
  160.7410  209.8440  155.1920 C   0  0  0  0  0  0  0  0  0  0  0  0
  160.0750  209.5090  156.3100 C   0  0  0  0  0  3  0  0  0  0  0  0
  160.0590  207.0000  156.2340 C   0  0  0  0  0  3  0  0  0  0  0  0
  159.9670  208.1600  156.8930 C   0  0  0  0  0  3  0  0  0  0  0  0
  160.2790  206.8180  154.7880 C   0  0  0  0  0  3  0  0  0  0  0  0
  160.7450  211.2640  154.7120 C   0  0  2  0  0  3  0  0  0  0  0  0
  159.9440  211.5690  157.0490 C   0  0  0  0  0  2  0  0  0  0  0  0
  158.9600  212.1910  156.1360 N   0  0  0  0  0  0  0  0  0  0  0  0
  160.4100  212.2500  155.8430 C   0  0  2  0  0  3  0  0  0  0  0  0
  158.6010  213.5250  156.6150 C   0  0  0  0  0  2  0  0  0  0  0  0
  157.0790  213.7620  156.6100 C   0  0  0  0  0  2  0  0  0  0  0  0
  156.4540  213.2960  155.3790 N   0  0  0  0  0  0  0  0  0  0  0  0
  155.3940  212.5510  155.7730 O   0  0  0  0  0  1  0  0  0  0  0  0
  155.0620  213.8920  153.6480 C   0  0  0  0  0  1  0  0  0  0  0  0
  155.9200  214.4070  154.7020 N   0  0  0  0  0  2  0  0  0  0  0  0
  159.8490  211.4330  153.5170 C   0  0  0  0  0  0  0  0  0  0  0  0
  159.0680  210.5040  153.1660 O   0  0  0  0  0  0  0  0  0  0  0  0
  159.8520  212.6820  152.8200 N   0  0  0  0  0  2  0  0  0  0  0  0
  158.8350  213.0530  151.8470 C   0  0  0  0  0  2  0  0  0  0  0  0
  159.4610  213.2970  150.5160 C   0  0  0  0  0  3  0  0  0  0  0  0
  157.3490  213.6430  149.4990 O   0  0  0  0  0  1  0  0  0  0  0  0
  158.7400  213.5660  149.4200 C   0  0  0  0  0  0  0  0  0  0  0  0
  159.4180  213.8700  148.0990 C   0  0  2  0  0  3  0  0  0  0  0  0
  158.9060  213.9000  145.7440 C   0  0  0  0  0  1  0  0  0  0  0  0
  158.8680  213.1070  146.9750 N   0  0  0  0  0  2  0  0  0  0  0  0
  160.9580  213.9210  148.0640 C   0  0  0  0  0  2  0  0  0  0  0  0
  161.6740  212.5780  147.9260 C   0  0  0  0  0  3  0  0  0  0  0  0
  161.6220  211.9090  149.1330 F   0  0  0  0  0  0  0  0  0  0  0  0
  162.9990  212.7530  147.5700 F   0  0  0  0  0  0  0  0  0  0  0  0
  161.0400  207.3090  152.5880 N   0  0  0  0  0  0  0  0  0  0  0  0
  160.6890  205.9560  152.1790 C   0  0  0  0  0  2  0  0  0  0  0  0
  161.7440  205.3840  151.3530 N   0  0  0  0  0  2  0  0  0  0  0  0
  161.0980  202.7200  146.0080 C   0  0  0  0  0  3  0  0  0  0  0  0
  160.7720  200.9580  147.6610 C   0  0  0  0  0  3  0  0  0  0  0  0
  160.9420  201.8850  148.6970 C   0  0  0  0  0  3  0  0  0  0  0  0
  160.7110  200.4690  145.3250 F   0  0  0  0  0  0  0  0  0  0  0  0
  161.5360  204.2750  150.5090 N   0  0  0  0  0  2  0  0  0  0  0  0
  161.2510  203.6310  147.0520 C   0  0  0  0  0  0  0  0  0  0  0  0
  161.3890  204.3540  149.2180 C   0  0  0  0  0  0  0  0  0  0  0  0
  161.5030  205.0960  146.9340 C   0  0  0  0  0  3  0  0  0  0  0  0
  161.1860  203.2180  148.3560 C   0  0  1  0  0  3  0  0  0  0  0  0
  161.5620  205.5920  148.3880 C   0  0  0  0  0  3  0  0  0  0  0  0
  160.8580  201.3770  146.3200 C   0  0  0  0  0  0  0  0  0  0  0  0
  162.0280  208.0110  151.7720 C   0  0  0  0  0  2  0  0  0  0  0  0
  161.3520  208.8440  150.7350 C   0  0  0  0  0  3  0  0  0  0  0  0
  161.9600  209.0820  149.5780 C   0  0  0  0  0  2  0  0  0  0  0  0
  1  2  1  0  0  0  0
  1  7  2  0  0  0  0
  2  3  1  0  0  0  0
  3  4  2  0  0  0  0
  4  6  1  0  0  0  0
  5  6  2  0  0  0  0
  7  5  1  0  0  0  0
  8 18  1  6  0  0  0
  8  3  1  0  0  0  0
 10 12  1  0  0  0  0
 10  9  1  0  0  0  0
 11  8  1  6  0  0  0
 11 10  1  0  0  0  0
 11  9  1  0  0  0  0
 13 12  1  0  0  0  0
 14 15  1  0  0  0  0
 14 13  1  0  0  0  0
 16 17  1  0  0  0  0
 17 14  1  0  0  0  0
 19 18  2  0  0  0  0
 20 18  1  0  0  0  0
 21 20  1  0  0  0  0
 22 21  1  0  0  0  0
 24 23  1  0  0  0  0
 24 22  2  0  0  0  0
 25 28  1  1  0  0  0
 25 24  1  0  0  0  0
 26 27  1  0  0  0  0
 27 25  1  0  0  0  0
 29 28  1  0  0  0  0
 29 30  1  0  0  0  0
 31 29  1  0  0  0  0
 32  1  1  0  0  0  0
 33 32  1  0  0  0  0
 34 33  1  0  0  0  0
 35 45  2  0  0  0  0
 35 40  1  0  0  0  0
 36 37  2  0  0  0  0
 38 45  1  0  0  0  0
 39 34  1  0  0  0  0
 40 43  1  0  0  0  0
 41 39  1  0  0  0  0
 42 40  2  0  0  0  0
 42 44  1  0  0  0  0
 43 37  1  1  0  0  0
 43 41  1  0  0  0  0
 44 41  2  0  0  0  0
 45 36  1  0  0  0  0
 46 32  1  0  0  0  0
 47 46  1  0  0  0  0
 48 47  2  0  0  0  0
M  END
>  <MODEL>
8

>  <REMARK>
 VINA RESULT:      -5.6      2.189      3.409
  Name = 
  19 active torsions:
  status: ('A' for Active; 'I' for Inactive)
    1  A    between atoms: N_2  and  N_16
    2  A    between atoms: N_2  and  C_31
    3  A    between atoms: C_3  and  C_43
    4  A    between atoms: C_4  and  C_29
    5  A    between atoms: C_6  and  C_29
    6  A    between atoms: C_6  and  N_37
    7  A    between atoms: C_6  and  C_46
    8  A    between atoms: C_7  and  N_25
    9  A    between atoms: C_9  and  C_42
   10  A    between atoms: C_13  and  C_28
   11  A    between atoms: N_17  and  C_19
   12  A    between atoms: N_17  and  N_30
   13  A    between atoms: C_19  and  C_35
   14  A    between atoms: N_25  and  C_28
   15  A    between atoms: N_25  and  C_31
   16  A    between atoms: N_32  and  C_35
   17  A    between atoms: C_34  and  C_43
   18  A    between atoms: C_39  and  C_43
   19  A    between atoms: N_41  and  C_42
                            x       y       z     vdW  Elec       q    Type
                         _______ _______ _______ _____ _____    ______ ____

>  <TORSDO>
F 19

$$$$
=
 OpenBabel11052410133D

 48 51  0  0  1  0  0  0  0  0999 V2000
  161.1260  208.2510  153.7260 C   0  0  0  0  0  0  0  0  0  0  0  0
  160.4010  208.2050  152.4170 C   0  0  0  0  0  2  0  0  0  0  0  0
  161.1580  207.4710  151.3610 C   0  0  0  0  0  0  0  0  0  0  0  0
  161.4470  206.1650  151.4830 C   0  0  0  0  0  3  0  0  0  0  0  0
  161.1910  205.7510  153.9450 C   0  0  0  0  0  3  0  0  0  0  0  0
  161.2320  205.3290  152.6770 C   0  0  0  0  0  3  0  0  0  0  0  0
  161.3590  207.1350  154.4240 C   0  0  0  0  0  3  0  0  0  0  0  0
  161.4520  208.1940  150.0810 C   0  0  2  0  0  3  0  0  0  0  0  0
  162.4180  207.9170  147.8050 C   0  0  0  0  0  2  0  0  0  0  0  0
  161.5620  206.7450  148.0910 N   0  0  0  0  0  0  0  0  0  0  0  0
  162.3690  207.3740  149.1600 C   0  0  2  0  0  3  0  0  0  0  0  0
  162.2640  205.5100  147.7420 C   0  0  0  0  0  2  0  0  0  0  0  0
  161.3060  204.3150  147.5790 C   0  0  0  0  0  2  0  0  0  0  0  0
  161.1830  203.8940  146.1890 N   0  0  0  0  0  0  0  0  0  0  0  0
  162.3280  204.2960  145.5890 O   0  0  0  0  0  1  0  0  0  0  0  0
  160.8170  202.0190  147.4690 C   0  0  0  0  0  1  0  0  0  0  0  0
  161.1930  202.4890  146.1460 N   0  0  0  0  0  2  0  0  0  0  0  0
  161.9890  209.5720  150.3500 C   0  0  0  0  0  0  0  0  0  0  0  0
  162.9950  209.7320  151.0960 O   0  0  0  0  0  0  0  0  0  0  0  0
  161.3800  210.6920  149.7000 N   0  0  0  0  0  2  0  0  0  0  0  0
  161.9870  212.0140  149.6580 C   0  0  0  0  0  2  0  0  0  0  0  0
  161.1070  212.9600  148.9100 C   0  0  0  0  0  3  0  0  0  0  0  0
  160.9420  211.4740  147.0720 O   0  0  0  0  0  1  0  0  0  0  0  0
  160.6320  212.6870  147.6890 C   0  0  0  0  0  0  0  0  0  0  0  0
  159.6910  213.6470  146.9890 C   0  0  2  0  0  3  0  0  0  0  0  0
  157.3030  213.9720  146.9290 C   0  0  0  0  0  1  0  0  0  0  0  0
  158.4970  213.9680  147.7770 N   0  0  0  0  0  2  0  0  0  0  0  0
  159.3540  213.3900  145.5080 C   0  0  0  0  0  2  0  0  0  0  0  0
  160.4130  213.8150  144.4920 C   0  0  0  0  0  3  0  0  0  0  0  0
  160.6360  212.7800  143.6070 F   0  0  0  0  0  0  0  0  0  0  0  0
  161.6050  214.1330  145.1180 F   0  0  0  0  0  0  0  0  0  0  0  0
  161.2960  209.5140  154.3800 N   0  0  0  0  0  0  0  0  0  0  0  0
  161.4850  210.7070  153.5660 C   0  0  0  0  0  2  0  0  0  0  0  0
  160.1960  211.2680  153.1810 N   0  0  0  0  0  2  0  0  0  0  0  0
  155.2480  214.1350  155.0210 C   0  0  0  0  0  3  0  0  0  0  0  0
  156.0020  212.8340  156.9390 C   0  0  0  0  0  3  0  0  0  0  0  0
  157.1030  212.3730  156.2060 C   0  0  0  0  0  3  0  0  0  0  0  0
  154.0020  214.1340  157.0530 F   0  0  0  0  0  0  0  0  0  0  0  0
  159.1920  211.5860  154.1180 N   0  0  0  0  0  2  0  0  0  0  0  0
  156.3570  213.6770  154.3110 C   0  0  0  0  0  0  0  0  0  0  0  0
  158.2790  212.4960  153.9330 C   0  0  0  0  0  0  0  0  0  0  0  0
  156.7260  214.0160  152.9060 C   0  0  0  0  0  3  0  0  0  0  0  0
  157.2480  212.8120  154.8880 C   0  0  0  0  0  0  0  0  0  0  0  0
  158.0370  213.2510  152.6600 C   0  0  0  0  0  3  0  0  0  0  0  0
  155.0740  213.7080  156.3420 C   0  0  2  0  0  3  0  0  0  0  0  0
  161.8260  209.5490  155.7400 C   0  0  0  0  0  2  0  0  0  0  0  0
  160.7400  209.8540  156.7160 C   0  0  0  0  0  3  0  0  0  0  0  0
  160.6510  211.0680  157.2480 C   0  0  0  0  0  2  0  0  0  0  0  0
  1 32  1  0  0  0  0
  1  7  2  0  0  0  0
  2  1  1  0  0  0  0
  3  4  2  0  0  0  0
  3  2  1  0  0  0  0
  4  6  1  0  0  0  0
  5  7  1  0  0  0  0
  6  5  2  0  0  0  0
  8 18  1  1  0  0  0
  8  3  1  0  0  0  0
  9 10  1  0  0  0  0
  9 11  1  0  0  0  0
 10 11  1  0  0  0  0
 11  8  1  1  0  0  0
 12 10  1  0  0  0  0
 13 12  1  0  0  0  0
 14 13  1  0  0  0  0
 15 14  1  0  0  0  0
 17 14  1  0  0  0  0
 17 16  1  0  0  0  0
 18 19  2  0  0  0  0
 20 18  1  0  0  0  0
 21 20  1  0  0  0  0
 22 21  1  0  0  0  0
 23 24  1  0  0  0  0
 24 22  2  0  0  0  0
 25 28  1  6  0  0  0
 25 24  1  0  0  0  0
 25 27  1  0  0  0  0
 26 27  1  0  0  0  0
 29 31  1  0  0  0  0
 29 28  1  0  0  0  0
 30 29  1  0  0  0  0
 32 46  1  0  0  0  0
 33 32  1  0  0  0  0
 34 33  1  0  0  0  0
 34 39  1  0  0  0  0
 35 45  1  0  0  0  0
 37 36  2  0  0  0  0
 40 43  1  0  0  0  0
 40 35  2  0  0  0  0
 41 39  1  0  0  0  0
 41 43  2  0  0  0  0
 42 40  1  0  0  0  0
 43 37  1  0  0  0  0
 44 42  2  0  0  0  0
 44 41  1  0  0  0  0
 45 36  1  0  0  0  0
 45 38  1  6  0  0  0
 46 47  1  0  0  0  0
 47 48  2  0  0  0  0
M  END
>  <MODEL>
9

>  <REMARK>
 VINA RESULT:      -5.5      3.410      8.621
  Name = 
  19 active torsions:
  status: ('A' for Active; 'I' for Inactive)
    1  A    between atoms: N_2  and  N_16
    2  A    between atoms: N_2  and  C_31
    3  A    between atoms: C_3  and  C_43
    4  A    between atoms: C_4  and  C_29
    5  A    between atoms: C_6  and  C_29
    6  A    between atoms: C_6  and  N_37
    7  A    between atoms: C_6  and  C_46
    8  A    between atoms: C_7  and  N_25
    9  A    between atoms: C_9  and  C_42
   10  A    between atoms: C_13  and  C_28
   11  A    between atoms: N_17  and  C_19
   12  A    between atoms: N_17  and  N_30
   13  A    between atoms: C_19  and  C_35
   14  A    between atoms: N_25  and  C_28
   15  A    between atoms: N_25  and  C_31
   16  A    between atoms: N_32  and  C_35
   17  A    between atoms: C_34  and  C_43
   18  A    between atoms: C_39  and  C_43
   19  A    between atoms: N_41  and  C_42
                            x       y       z     vdW  Elec       q    Type
                         _______ _______ _______ _____ _____    ______ ____

>  <TORSDO>
F 19

$$$$
