=
 OpenBabel11042422263D

 34 36  0  0  1  0  0  0  0  0999 V2000
  162.0980  208.1680  149.5770 N   0  0  0  0  0  0  0  0  0  0  0  0
  160.9400  207.3220  149.2990 C   0  0  0  0  0  2  0  0  0  0  0  0
  162.5510  206.4310  147.7480 O   0  0  0  0  0  1  0  0  0  0  0  0
  161.2530  206.2670  148.2380 C   0  0  1  0  0  3  0  0  0  0  0  0
  161.0540  204.8750  148.7530 C   0  0  0  0  0  0  0  0  0  0  0  0
  160.7250  203.3580  150.5970 C   0  0  0  0  0  3  0  0  0  0  0  0
  160.8610  204.6620  150.1210 C   0  0  0  0  0  3  0  0  0  0  0  0
  160.7880  202.2830  149.7090 C   0  0  0  0  0  3  0  0  0  0  0  0
  160.9880  202.5290  148.3450 C   0  0  0  0  0  0  0  0  0  0  0  0
  161.1190  203.8110  147.9050 N   0  0  0  0  0  0  0  0  0  0  0  0
  161.0550  201.4140  147.3890 C   0  0  0  0  0  0  0  0  0  0  0  0
  160.7330  201.5920  146.1840 O   0  0  0  0  0  0  0  0  0  0  0  0
  161.4720  200.1540  147.8060 O   0  0  0  0  0  1  0  0  0  0  0  0
  162.1210  208.4850  151.0110 C   0  0  0  0  0  2  0  0  0  0  0  0
  161.8320  207.2800  151.9120 C   0  0  0  0  0  2  0  0  0  0  0  0
  160.9350  206.8050  154.2000 C   0  0  0  0  0  3  0  0  0  0  0  0
  161.2780  207.7390  153.2170 C   0  0  0  0  0  0  0  0  0  0  0  0
  161.0750  209.0660  153.4390 N   0  0  0  0  0  0  0  0  0  0  0  0
  160.3850  207.2530  155.4030 C   0  0  0  0  0  3  0  0  0  0  0  0
  160.5430  209.5220  154.6050 C   0  0  0  0  0  0  0  0  0  0  0  0
  160.1880  208.6190  155.6110 C   0  0  0  0  0  3  0  0  0  0  0  0
  160.3450  210.9160  154.8020 N   0  0  0  0  0  1  0  0  0  0  0  0
  161.9620  209.3570  148.8440 N   0  0  0  0  0  2  0  0  0  0  0  0
  161.9000  210.4420  149.8080 C   0  0  0  0  0  2  0  0  0  0  0  0
  162.2610  211.6370  149.1880 O   0  0  0  0  0  0  0  0  0  0  0  0
  161.6490  211.5870  147.9350 C   0  0  0  0  0  2  0  0  0  0  0  0
  162.2360  214.2500  147.8560 S   0  0  0  0  0  0  0  0  0  0  0  0
  162.5290  214.3150  146.0600 C   0  0  0  0  0  2  0  0  0  0  0  0
  161.0100  212.9280  147.6180 C   0  0  1  0  0  3  0  0  0  0  0  0
  160.6360  212.9740  146.1750 C   0  0  0  0  0  0  0  0  0  0  0  0
  161.4070  213.6670  145.4100 N   0  0  0  0  0  0  0  0  0  0  0  0
  158.2500  212.5940  145.7380 C   0  0  0  0  0  3  0  0  0  0  0  0
  157.8100  213.7380  146.4660 N   0  0  0  0  0  1  0  0  0  0  0  0
  159.5060  212.2840  145.6140 N   0  0  0  0  0  0  0  0  0  0  0  0
  1 14  1  0  0  0  0
  2  1  1  0  0  0  0
  4  3  1  1  0  0  0
  4  5  1  0  0  0  0
  4  2  1  0  0  0  0
  5  7  1  0  0  0  0
  7  6  2  0  0  0  0
  8  6  1  0  0  0  0
  9  8  2  0  0  0  0
 10  9  1  0  0  0  0
 10  5  2  0  0  0  0
 11 13  1  0  0  0  0
 11  9  1  0  0  0  0
 12 11  2  0  0  0  0
 14 15  1  0  0  0  0
 15 17  1  0  0  0  0
 16 19  1  0  0  0  0
 17 18  1  0  0  0  0
 17 16  2  0  0  0  0
 18 20  2  0  0  0  0
 19 21  2  0  0  0  0
 20 22  1  0  0  0  0
 20 21  1  0  0  0  0
 23  1  1  0  0  0  0
 23 24  1  0  0  0  0
 25 24  1  0  0  0  0
 26 25  1  0  0  0  0
 28 27  1  0  0  0  0
 29 27  1  0  0  0  0
 29 26  1  6  0  0  0
 30 29  1  0  0  0  0
 31 28  1  0  0  0  0
 31 30  2  0  0  0  0
 32 33  1  0  0  0  0
 34 32  2  0  0  0  0
 34 30  1  0  0  0  0
M  END
>  <MODEL>
1

>  <REMARK>
 VINA RESULT:      -7.8      0.000      0.000
  Name = 
  13 active torsions:
  status: ('A' for Active; 'I' for Inactive)
    1  A    between atoms: C_3  and  C_8
    2  A    between atoms: C_3  and  N_20
    3  A    between atoms: C_4  and  C_8
    4  A    between atoms: C_9  and  C_17
    5  A    between atoms: C_9  and  O_19
    6  A    between atoms: C_12  and  O_19
    7  A    between atoms: C_12  and  N_34
    8  A    between atoms: C_15  and  CA_26
    9  A    between atoms: C_16  and  N_20
   10  A    between atoms: C_16  and  C_32
   11  A    between atoms: C_18  and  C_32
   12  A    between atoms: N_20  and  N_34
   13  A    between atoms: C_21  and  N_30
                            x       y       z     vdW  Elec       q    Type
                         _______ _______ _______ _____ _____    ______ ____

>  <TORSDO>
F 13

$$$$
=
 OpenBabel11042422263D

 34 36  0  0  1  0  0  0  0  0999 V2000
  161.7580  208.5610  149.5730 N   0  0  0  0  0  0  0  0  0  0  0  0
  162.3890  207.3260  149.1100 C   0  0  0  0  0  2  0  0  0  0  0  0
  161.9760  206.3650  146.9420 O   0  0  0  0  0  1  0  0  0  0  0  0
  161.4470  206.5080  148.2270 C   0  0  1  0  0  3  0  0  0  0  0  0
  161.1370  205.1700  148.8240 C   0  0  0  0  0  0  0  0  0  0  0  0
  160.6130  203.8110  150.7450 C   0  0  0  0  0  3  0  0  0  0  0  0
  160.8520  205.0680  150.1890 C   0  0  0  0  0  3  0  0  0  0  0  0
  160.6660  202.6730  149.9390 C   0  0  0  0  0  3  0  0  0  0  0  0
  160.9610  202.8070  148.5770 C   0  0  0  0  0  0  0  0  0  0  0  0
  161.1910  204.0450  148.0580 N   0  0  0  0  0  0  0  0  0  0  0  0
  161.0200  201.6230  147.7080 C   0  0  0  0  0  0  0  0  0  0  0  0
  160.7100  201.7150  146.4900 O   0  0  0  0  0  0  0  0  0  0  0  0
  161.4160  200.3930  148.2200 O   0  0  0  0  0  1  0  0  0  0  0  0
  161.9790  209.6110  148.5720 C   0  0  0  0  0  2  0  0  0  0  0  0
  162.0600  211.0210  149.1680 C   0  0  0  0  0  2  0  0  0  0  0  0
  162.7090  213.1250  147.9770 C   0  0  0  0  0  3  0  0  0  0  0  0
  161.8360  212.0400  148.1040 C   0  0  0  0  0  0  0  0  0  0  0  0
  160.7590  211.9320  147.2780 N   0  0  0  0  0  0  0  0  0  0  0  0
  162.4610  214.0880  146.9970 C   0  0  0  0  0  3  0  0  0  0  0  0
  160.5030  212.8590  146.3150 C   0  0  0  0  0  0  0  0  0  0  0  0
  161.3530  213.9560  146.1570 C   0  0  0  0  0  3  0  0  0  0  0  0
  159.3690  212.7130  145.4690 N   0  0  0  0  0  1  0  0  0  0  0  0
  162.3640  208.9400  150.7810 N   0  0  0  0  0  2  0  0  0  0  0  0
  161.7580  208.1340  151.8270 C   0  0  0  0  0  2  0  0  0  0  0  0
  160.6280  208.7840  152.3200 O   0  0  0  0  0  0  0  0  0  0  0  0
  160.9520  209.1110  153.6370 C   0  0  0  0  0  2  0  0  0  0  0  0
  160.2120  211.6490  152.9580 S   0  0  0  0  0  0  0  0  0  0  0  0
  159.6080  212.1070  154.6140 C   0  0  0  0  0  2  0  0  0  0  0  0
  161.4500  210.5450  153.7060 C   0  0  1  0  0  3  0  0  0  0  0  0
  161.5640  210.9660  155.1310 C   0  0  0  0  0  0  0  0  0  0  0  0
  160.6340  211.7420  155.5710 N   0  0  0  0  0  0  0  0  0  0  0  0
  162.5520  209.6270  156.9370 C   0  0  0  0  0  3  0  0  0  0  0  0
  161.3710  208.8690  157.1850 N   0  0  0  0  0  1  0  0  0  0  0  0
  162.6160  210.5410  156.0140 N   0  0  0  0  0  0  0  0  0  0  0  0
  1 23  1  0  0  0  0
  2  1  1  0  0  0  0
  4  3  1  6  0  0  0
  4  5  1  0  0  0  0
  4  2  1  0  0  0  0
  5  7  1  0  0  0  0
  7  6  2  0  0  0  0
  8  6  1  0  0  0  0
  9  8  2  0  0  0  0
 10  9  1  0  0  0  0
 10  5  2  0  0  0  0
 11 13  1  0  0  0  0
 11  9  1  0  0  0  0
 12 11  2  0  0  0  0
 14 15  1  0  0  0  0
 14  1  1  0  0  0  0
 16 17  1  0  0  0  0
 17 15  1  0  0  0  0
 18 17  2  0  0  0  0
 19 16  2  0  0  0  0
 20 18  1  0  0  0  0
 21 20  2  0  0  0  0
 21 19  1  0  0  0  0
 22 20  1  0  0  0  0
 23 24  1  0  0  0  0
 24 25  1  0  0  0  0
 25 26  1  0  0  0  0
 27 29  1  0  0  0  0
 27 28  1  0  0  0  0
 28 31  1  0  0  0  0
 29 26  1  1  0  0  0
 29 30  1  0  0  0  0
 30 31  2  0  0  0  0
 30 34  1  0  0  0  0
 32 33  1  0  0  0  0
 34 32  2  0  0  0  0
M  END
>  <MODEL>
2

>  <REMARK>
 VINA RESULT:      -7.7      1.887      6.589
  Name = 
  13 active torsions:
  status: ('A' for Active; 'I' for Inactive)
    1  A    between atoms: C_3  and  C_8
    2  A    between atoms: C_3  and  N_20
    3  A    between atoms: C_4  and  C_8
    4  A    between atoms: C_9  and  C_17
    5  A    between atoms: C_9  and  O_19
    6  A    between atoms: C_12  and  O_19
    7  A    between atoms: C_12  and  N_34
    8  A    between atoms: C_15  and  CA_26
    9  A    between atoms: C_16  and  N_20
   10  A    between atoms: C_16  and  C_32
   11  A    between atoms: C_18  and  C_32
   12  A    between atoms: N_20  and  N_34
   13  A    between atoms: C_21  and  N_30
                            x       y       z     vdW  Elec       q    Type
                         _______ _______ _______ _____ _____    ______ ____

>  <TORSDO>
F 13

$$$$
=
 OpenBabel11042422263D

 34 36  0  0  1  0  0  0  0  0999 V2000
  162.0470  208.2080  149.2020 N   0  0  0  0  0  0  0  0  0  0  0  0
  160.9450  207.2530  149.1090 C   0  0  0  0  0  2  0  0  0  0  0  0
  162.5090  206.3120  147.5410 O   0  0  0  0  0  1  0  0  0  0  0  0
  161.2260  206.1660  148.0720 C   0  0  1  0  0  3  0  0  0  0  0  0
  161.0380  204.7910  148.6340 C   0  0  0  0  0  0  0  0  0  0  0  0
  160.7120  203.3350  150.5270 C   0  0  0  0  0  3  0  0  0  0  0  0
  160.8370  204.6240  150.0070 C   0  0  0  0  0  3  0  0  0  0  0  0
  160.7940  202.2310  149.6780 C   0  0  0  0  0  3  0  0  0  0  0  0
  161.0020  202.4320  148.3070 C   0  0  0  0  0  0  0  0  0  0  0  0
  161.1220  203.6990  147.8240 N   0  0  0  0  0  0  0  0  0  0  0  0
  161.0890  201.2850  147.3920 C   0  0  0  0  0  0  0  0  0  0  0  0
  161.4970  200.1690  147.8120 O   0  0  0  0  0  1  0  0  0  0  0  0
  160.7270  201.4210  146.0560 O   0  0  0  0  0  0  0  0  0  0  0  0
  162.3040  208.5000  150.6180 C   0  0  0  0  0  2  0  0  0  0  0  0
  162.1350  207.2850  151.5360 C   0  0  0  0  0  2  0  0  0  0  0  0
  161.1310  206.7400  153.7630 C   0  0  0  0  0  3  0  0  0  0  0  0
  161.5300  207.7040  152.8320 C   0  0  0  0  0  0  0  0  0  0  0  0
  161.3350  209.0250  153.0940 N   0  0  0  0  0  0  0  0  0  0  0  0
  160.5330  207.1520  154.9560 C   0  0  0  0  0  3  0  0  0  0  0  0
  160.7580  209.4460  154.2520 C   0  0  0  0  0  0  0  0  0  0  0  0
  160.3460  208.5120  155.2060 C   0  0  0  0  0  3  0  0  0  0  0  0
  160.5700  210.8350  154.4910 N   0  0  0  0  0  1  0  0  0  0  0  0
  161.6620  209.3910  148.5500 N   0  0  0  0  0  2  0  0  0  0  0  0
  162.1470  210.4950  149.3600 C   0  0  0  0  0  2  0  0  0  0  0  0
  162.4950  211.5620  148.5320 O   0  0  0  0  0  0  0  0  0  0  0  0
  161.3110  211.9030  147.8760 C   0  0  0  0  0  2  0  0  0  0  0  0
  162.3730  213.4210  145.8730 S   0  0  0  0  0  0  0  0  0  0  0  0
  160.8500  213.4900  144.8770 C   0  0  0  0  0  2  0  0  0  0  0  0
  161.3830  213.3430  147.3970 C   0  0  1  0  0  3  0  0  0  0  0  0
  160.0180  213.8120  147.0210 C   0  0  0  0  0  0  0  0  0  0  0  0
  159.7670  213.8750  145.7590 N   0  0  0  0  0  0  0  0  0  0  0  0
  157.8430  213.5870  148.1380 C   0  0  0  0  0  3  0  0  0  0  0  0
  157.4320  212.4560  147.3760 N   0  0  0  0  0  1  0  0  0  0  0  0
  158.9980  214.1620  147.9710 N   0  0  0  0  0  0  0  0  0  0  0  0
  1 14  1  0  0  0  0
  2  1  1  0  0  0  0
  4  3  1  1  0  0  0
  4  5  1  0  0  0  0
  4  2  1  0  0  0  0
  5  7  1  0  0  0  0
  7  6  2  0  0  0  0
  8  6  1  0  0  0  0
  9  8  2  0  0  0  0
 10  9  1  0  0  0  0
 10  5  2  0  0  0  0
 11 12  1  0  0  0  0
 11  9  1  0  0  0  0
 13 11  2  0  0  0  0
 14 15  1  0  0  0  0
 15 17  1  0  0  0  0
 16 19  1  0  0  0  0
 17 18  1  0  0  0  0
 17 16  2  0  0  0  0
 18 20  2  0  0  0  0
 19 21  2  0  0  0  0
 20 22  1  0  0  0  0
 20 21  1  0  0  0  0
 23  1  1  0  0  0  0
 23 24  1  0  0  0  0
 25 24  1  0  0  0  0
 26 25  1  0  0  0  0
 27 29  1  0  0  0  0
 28 31  1  0  0  0  0
 28 27  1  0  0  0  0
 29 26  1  6  0  0  0
 30 29  1  0  0  0  0
 30 34  1  0  0  0  0
 31 30  2  0  0  0  0
 33 32  1  0  0  0  0
 34 32  2  0  0  0  0
M  END
>  <MODEL>
3

>  <REMARK>
 VINA RESULT:      -7.6      0.917      1.179
  Name = 
  13 active torsions:
  status: ('A' for Active; 'I' for Inactive)
    1  A    between atoms: C_3  and  C_8
    2  A    between atoms: C_3  and  N_20
    3  A    between atoms: C_4  and  C_8
    4  A    between atoms: C_9  and  C_17
    5  A    between atoms: C_9  and  O_19
    6  A    between atoms: C_12  and  O_19
    7  A    between atoms: C_12  and  N_34
    8  A    between atoms: C_15  and  CA_26
    9  A    between atoms: C_16  and  N_20
   10  A    between atoms: C_16  and  C_32
   11  A    between atoms: C_18  and  C_32
   12  A    between atoms: N_20  and  N_34
   13  A    between atoms: C_21  and  N_30
                            x       y       z     vdW  Elec       q    Type
                         _______ _______ _______ _____ _____    ______ ____

>  <TORSDO>
F 13

$$$$
=
 OpenBabel11042422263D

 34 36  0  0  1  0  0  0  0  0999 V2000
  162.1750  208.0760  149.2970 N   0  0  0  0  0  0  0  0  0  0  0  0
  161.0600  207.1960  148.9510 C   0  0  0  0  0  2  0  0  0  0  0  0
  162.4830  206.9240  147.0290 O   0  0  0  0  0  1  0  0  0  0  0  0
  161.2840  206.5020  147.6080 C   0  0  1  0  0  3  0  0  0  0  0  0
  161.2520  205.0110  147.7330 C   0  0  0  0  0  0  0  0  0  0  0  0
  161.2720  202.8280  146.7120 C   0  0  0  0  0  3  0  0  0  0  0  0
  161.3530  204.2150  146.5890 C   0  0  0  0  0  3  0  0  0  0  0  0
  161.0870  202.2500  147.9690 C   0  0  0  0  0  3  0  0  0  0  0  0
  160.9830  203.0750  149.0960 C   0  0  0  0  0  0  0  0  0  0  0  0
  161.0640  204.4260  148.9500 N   0  0  0  0  0  0  0  0  0  0  0  0
  160.7910  202.4910  150.4310 C   0  0  0  0  0  0  0  0  0  0  0  0
  160.6970  203.2370  151.4420 O   0  0  0  0  0  1  0  0  0  0  0  0
  160.7130  201.1110  150.5920 O   0  0  0  0  0  0  0  0  0  0  0  0
  162.2700  208.1700  150.7590 C   0  0  0  0  0  2  0  0  0  0  0  0
  161.4700  207.0930  151.4980 C   0  0  0  0  0  2  0  0  0  0  0  0
  160.8930  206.6400  153.8910 C   0  0  0  0  0  3  0  0  0  0  0  0
  161.1190  207.5650  152.8670 C   0  0  0  0  0  0  0  0  0  0  0  0
  160.9840  208.8980  153.1110 N   0  0  0  0  0  0  0  0  0  0  0  0
  160.5300  207.1020  155.1580 C   0  0  0  0  0  3  0  0  0  0  0  0
  160.6340  209.3660  154.3390 C   0  0  0  0  0  0  0  0  0  0  0  0
  160.4010  208.4720  155.3880 C   0  0  0  0  0  3  0  0  0  0  0  0
  160.5030  210.7650  154.5580 N   0  0  0  0  0  1  0  0  0  0  0  0
  161.9120  209.3490  148.7680 N   0  0  0  0  0  2  0  0  0  0  0  0
  162.1490  210.3060  149.8360 C   0  0  0  0  0  2  0  0  0  0  0  0
  162.2370  211.5900  149.3000 O   0  0  0  0  0  0  0  0  0  0  0  0
  161.6150  211.4980  148.0550 C   0  0  0  0  0  2  0  0  0  0  0  0
  161.9370  214.1990  148.2770 S   0  0  0  0  0  0  0  0  0  0  0  0
  162.5090  214.4510  146.5660 C   0  0  0  0  0  2  0  0  0  0  0  0
  160.9040  212.8030  147.7360 C   0  0  1  0  0  3  0  0  0  0  0  0
  160.7650  212.9480  146.2580 C   0  0  0  0  0  0  0  0  0  0  0  0
  161.5770  213.7700  145.6890 N   0  0  0  0  0  0  0  0  0  0  0  0
  158.5550  212.4860  145.2940 C   0  0  0  0  0  3  0  0  0  0  0  0
  157.9250  213.6190  145.8860 N   0  0  0  0  0  1  0  0  0  0  0  0
  159.8150  212.2170  145.4640 N   0  0  0  0  0  0  0  0  0  0  0  0
  1 14  1  0  0  0  0
  2  1  1  0  0  0  0
  4  3  1  1  0  0  0
  4  5  1  0  0  0  0
  4  2  1  0  0  0  0
  5 10  1  0  0  0  0
  6  8  2  0  0  0  0
  7  6  1  0  0  0  0
  7  5  2  0  0  0  0
  8  9  1  0  0  0  0
  9 11  1  0  0  0  0
 10  9  2  0  0  0  0
 11 13  2  0  0  0  0
 11 12  1  0  0  0  0
 14 15  1  0  0  0  0
 15 17  1  0  0  0  0
 16 19  1  0  0  0  0
 17 18  1  0  0  0  0
 17 16  2  0  0  0  0
 18 20  2  0  0  0  0
 19 21  2  0  0  0  0
 20 22  1  0  0  0  0
 20 21  1  0  0  0  0
 23  1  1  0  0  0  0
 23 24  1  0  0  0  0
 25 24  1  0  0  0  0
 26 25  1  0  0  0  0
 28 27  1  0  0  0  0
 29 26  1  6  0  0  0
 29 27  1  0  0  0  0
 30 29  1  0  0  0  0
 31 30  2  0  0  0  0
 31 28  1  0  0  0  0
 32 34  2  0  0  0  0
 32 33  1  0  0  0  0
 34 30  1  0  0  0  0
M  END
>  <MODEL>
4

>  <REMARK>
 VINA RESULT:      -7.5      1.201      1.625
  Name = 
  13 active torsions:
  status: ('A' for Active; 'I' for Inactive)
    1  A    between atoms: C_3  and  C_8
    2  A    between atoms: C_3  and  N_20
    3  A    between atoms: C_4  and  C_8
    4  A    between atoms: C_9  and  C_17
    5  A    between atoms: C_9  and  O_19
    6  A    between atoms: C_12  and  O_19
    7  A    between atoms: C_12  and  N_34
    8  A    between atoms: C_15  and  CA_26
    9  A    between atoms: C_16  and  N_20
   10  A    between atoms: C_16  and  C_32
   11  A    between atoms: C_18  and  C_32
   12  A    between atoms: N_20  and  N_34
   13  A    between atoms: C_21  and  N_30
                            x       y       z     vdW  Elec       q    Type
                         _______ _______ _______ _____ _____    ______ ____

>  <TORSDO>
F 13

$$$$
=
 OpenBabel11042422263D

 34 36  0  0  1  0  0  0  0  0999 V2000
  161.7430  208.4780  149.4440 N   0  0  0  0  0  0  0  0  0  0  0  0
  162.4350  207.2450  149.0740 C   0  0  0  0  0  2  0  0  0  0  0  0
  162.2650  206.2550  146.8870 O   0  0  0  0  0  1  0  0  0  0  0  0
  161.6040  206.3990  148.1090 C   0  0  1  0  0  3  0  0  0  0  0  0
  161.2590  205.0620  148.6870 C   0  0  0  0  0  0  0  0  0  0  0  0
  160.7160  203.6870  150.5910 C   0  0  0  0  0  3  0  0  0  0  0  0
  160.9880  204.9460  150.0540 C   0  0  0  0  0  3  0  0  0  0  0  0
  160.7220  202.5620  149.7660 C   0  0  0  0  0  3  0  0  0  0  0  0
  161.0040  202.7110  148.4020 C   0  0  0  0  0  0  0  0  0  0  0  0
  161.2670  203.9490  147.9010 N   0  0  0  0  0  0  0  0  0  0  0  0
  161.0140  201.5410  147.5120 C   0  0  0  0  0  0  0  0  0  0  0  0
  160.6810  201.6620  146.3030 O   0  0  0  0  0  0  0  0  0  0  0  0
  161.3890  200.2920  147.9950 O   0  0  0  0  0  1  0  0  0  0  0  0
  162.1560  209.5480  148.5280 C   0  0  0  0  0  2  0  0  0  0  0  0
  162.0620  210.9500  149.1380 C   0  0  0  0  0  2  0  0  0  0  0  0
  162.7420  213.0130  147.8940 C   0  0  0  0  0  3  0  0  0  0  0  0
  161.8380  211.9610  148.0660 C   0  0  0  0  0  0  0  0  0  0  0  0
  160.7310  211.8780  147.2780 N   0  0  0  0  0  0  0  0  0  0  0  0
  162.4950  213.9690  146.9070 C   0  0  0  0  0  3  0  0  0  0  0  0
  160.4750  212.7990  146.3090 C   0  0  0  0  0  0  0  0  0  0  0  0
  161.3560  213.8640  146.1070 C   0  0  0  0  0  3  0  0  0  0  0  0
  159.3090  212.6800  145.5040 N   0  0  0  0  0  1  0  0  0  0  0  0
  162.1200  208.8200  150.7520 N   0  0  0  0  0  2  0  0  0  0  0  0
  161.1720  208.1770  151.6460 C   0  0  0  0  0  2  0  0  0  0  0  0
  160.4070  209.1480  152.2910 O   0  0  0  0  0  0  0  0  0  0  0  0
  161.1470  209.4880  153.4230 C   0  0  0  0  0  2  0  0  0  0  0  0
  161.1850  209.6600  156.1460 S   0  0  0  0  0  0  0  0  0  0  0  0
  161.1560  211.4800  156.2100 C   0  0  0  0  0  2  0  0  0  0  0  0
  160.2160  209.6890  154.6080 C   0  0  1  0  0  3  0  0  0  0  0  0
  159.6050  211.0470  154.5370 C   0  0  0  0  0  0  0  0  0  0  0  0
  160.0880  211.9310  155.3400 N   0  0  0  0  0  0  0  0  0  0  0  0
  158.6520  212.1290  152.5490 C   0  0  0  0  0  3  0  0  0  0  0  0
  159.8940  212.6580  152.0920 N   0  0  0  0  0  1  0  0  0  0  0  0
  158.5520  211.4090  153.6270 N   0  0  0  0  0  0  0  0  0  0  0  0
  1 23  1  0  0  0  0
  2  1  1  0  0  0  0
  4  3  1  6  0  0  0
  4  5  1  0  0  0  0
  4  2  1  0  0  0  0
  5  7  1  0  0  0  0
  7  6  2  0  0  0  0
  8  6  1  0  0  0  0
  9  8  2  0  0  0  0
 10  9  1  0  0  0  0
 10  5  2  0  0  0  0
 11 13  1  0  0  0  0
 11  9  1  0  0  0  0
 12 11  2  0  0  0  0
 14 15  1  0  0  0  0
 14  1  1  0  0  0  0
 16 17  1  0  0  0  0
 17 15  1  0  0  0  0
 18 17  2  0  0  0  0
 19 16  2  0  0  0  0
 20 18  1  0  0  0  0
 21 20  2  0  0  0  0
 21 19  1  0  0  0  0
 22 20  1  0  0  0  0
 23 24  1  0  0  0  0
 24 25  1  0  0  0  0
 25 26  1  0  0  0  0
 27 28  1  0  0  0  0
 29 26  1  6  0  0  0
 29 27  1  0  0  0  0
 30 29  1  0  0  0  0
 30 31  2  0  0  0  0
 31 28  1  0  0  0  0
 32 34  2  0  0  0  0
 33 32  1  0  0  0  0
 34 30  1  0  0  0  0
M  END
>  <MODEL>
5

>  <REMARK>
 VINA RESULT:      -7.4      2.263      6.123
  Name = 
  13 active torsions:
  status: ('A' for Active; 'I' for Inactive)
    1  A    between atoms: C_3  and  C_8
    2  A    between atoms: C_3  and  N_20
    3  A    between atoms: C_4  and  C_8
    4  A    between atoms: C_9  and  C_17
    5  A    between atoms: C_9  and  O_19
    6  A    between atoms: C_12  and  O_19
    7  A    between atoms: C_12  and  N_34
    8  A    between atoms: C_15  and  CA_26
    9  A    between atoms: C_16  and  N_20
   10  A    between atoms: C_16  and  C_32
   11  A    between atoms: C_18  and  C_32
   12  A    between atoms: N_20  and  N_34
   13  A    between atoms: C_21  and  N_30
                            x       y       z     vdW  Elec       q    Type
                         _______ _______ _______ _____ _____    ______ ____

>  <TORSDO>
F 13

$$$$
=
 OpenBabel11042422263D

 34 36  0  0  1  0  0  0  0  0999 V2000
  161.6250  208.2420  149.5480 N   0  0  0  0  0  0  0  0  0  0  0  0
  162.3230  208.0760  150.8210 C   0  0  0  0  0  2  0  0  0  0  0  0
  162.4800  205.9430  151.9240 O   0  0  0  0  0  1  0  0  0  0  0  0
  161.6390  207.0360  151.7080 C   0  0  1  0  0  3  0  0  0  0  0  0
  161.1850  207.6200  153.0100 C   0  0  0  0  0  0  0  0  0  0  0  0
  160.4570  207.3290  155.2890 C   0  0  0  0  0  3  0  0  0  0  0  0
  160.9270  206.7790  154.0960 C   0  0  0  0  0  3  0  0  0  0  0  0
  160.2440  208.7050  155.3850 C   0  0  0  0  0  3  0  0  0  0  0  0
  160.5060  209.5200  154.2770 C   0  0  0  0  0  0  0  0  0  0  0  0
  160.9630  208.9600  153.1230 N   0  0  0  0  0  0  0  0  0  0  0  0
  160.2920  210.9720  154.3540 C   0  0  0  0  0  0  0  0  0  0  0  0
  159.9520  211.5060  155.4440 O   0  0  0  0  0  1  0  0  0  0  0  0
  160.4590  211.7700  153.2270 O   0  0  0  0  0  0  0  0  0  0  0  0
  161.9510  207.1080  148.6750 C   0  0  0  0  0  2  0  0  0  0  0  0
  160.7180  206.3840  148.1220 C   0  0  0  0  0  2  0  0  0  0  0  0
  161.2160  204.1960  147.0140 C   0  0  0  0  0  3  0  0  0  0  0  0
  160.9220  204.9090  148.1800 C   0  0  0  0  0  0  0  0  0  0  0  0
  160.7860  204.2520  149.3640 N   0  0  0  0  0  0  0  0  0  0  0  0
  161.3680  202.8100  147.0820 C   0  0  0  0  0  3  0  0  0  0  0  0
  160.9340  202.9020  149.4510 C   0  0  0  0  0  0  0  0  0  0  0  0
  161.2280  202.1550  148.3070 C   0  0  0  0  0  3  0  0  0  0  0  0
  160.7860  202.2490  150.7060 N   0  0  0  0  0  1  0  0  0  0  0  0
  162.0760  209.4290  148.9490 N   0  0  0  0  0  2  0  0  0  0  0  0
  162.3270  210.3740  150.0230 C   0  0  0  0  0  2  0  0  0  0  0  0
  161.5870  211.5350  149.8050 O   0  0  0  0  0  0  0  0  0  0  0  0
  161.8410  211.8740  148.4750 C   0  0  0  0  0  2  0  0  0  0  0  0
  162.6030  214.4230  147.8700 S   0  0  0  0  0  0  0  0  0  0  0  0
  162.3610  214.2590  146.0720 C   0  0  0  0  0  2  0  0  0  0  0  0
  161.2530  213.2410  148.1690 C   0  0  1  0  0  3  0  0  0  0  0  0
  160.4780  213.1780  146.8970 C   0  0  0  0  0  0  0  0  0  0  0  0
  161.0460  213.6860  145.8590 N   0  0  0  0  0  0  0  0  0  0  0  0
  158.0580  213.0020  147.2790 C   0  0  0  0  0  3  0  0  0  0  0  0
  157.9670  214.2070  148.0340 N   0  0  0  0  0  1  0  0  0  0  0  0
  159.1780  212.5740  146.7760 N   0  0  0  0  0  0  0  0  0  0  0  0
  1  2  1  0  0  0  0
  2  4  1  0  0  0  0
  4  3  1  1  0  0  0
  4  5  1  0  0  0  0
  5 10  2  0  0  0  0
  5  7  1  0  0  0  0
  6  8  1  0  0  0  0
  7  6  2  0  0  0  0
  9 11  1  0  0  0  0
  9  8  2  0  0  0  0
 10  9  1  0  0  0  0
 11 12  1  0  0  0  0
 13 11  2  0  0  0  0
 14  1  1  0  0  0  0
 15 17  1  0  0  0  0
 15 14  1  0  0  0  0
 16 19  2  0  0  0  0
 16 17  1  0  0  0  0
 17 18  2  0  0  0  0
 18 20  1  0  0  0  0
 19 21  1  0  0  0  0
 20 22  1  0  0  0  0
 21 20  2  0  0  0  0
 23  1  1  0  0  0  0
 23 24  1  0  0  0  0
 25 24  1  0  0  0  0
 26 25  1  0  0  0  0
 27 29  1  0  0  0  0
 28 27  1  0  0  0  0
 29 26  1  6  0  0  0
 30 29  1  0  0  0  0
 31 28  1  0  0  0  0
 31 30  2  0  0  0  0
 32 33  1  0  0  0  0
 34 30  1  0  0  0  0
 34 32  2  0  0  0  0
M  END
>  <MODEL>
6

>  <REMARK>
 VINA RESULT:      -7.2      2.127      6.268
  Name = 
  13 active torsions:
  status: ('A' for Active; 'I' for Inactive)
    1  A    between atoms: C_3  and  C_8
    2  A    between atoms: C_3  and  N_20
    3  A    between atoms: C_4  and  C_8
    4  A    between atoms: C_9  and  C_17
    5  A    between atoms: C_9  and  O_19
    6  A    between atoms: C_12  and  O_19
    7  A    between atoms: C_12  and  N_34
    8  A    between atoms: C_15  and  CA_26
    9  A    between atoms: C_16  and  N_20
   10  A    between atoms: C_16  and  C_32
   11  A    between atoms: C_18  and  C_32
   12  A    between atoms: N_20  and  N_34
   13  A    between atoms: C_21  and  N_30
                            x       y       z     vdW  Elec       q    Type
                         _______ _______ _______ _____ _____    ______ ____

>  <TORSDO>
F 13

$$$$
=
 OpenBabel11042422263D

 34 36  0  0  1  0  0  0  0  0999 V2000
  162.1600  208.6510  151.6830 N   0  0  0  0  0  0  0  0  0  0  0  0
  162.5400  207.7190  150.6240 C   0  0  0  0  0  2  0  0  0  0  0  0
  161.5770  208.3680  148.5160 O   0  0  0  0  0  1  0  0  0  0  0  0
  161.4100  207.5210  149.6140 C   0  0  1  0  0  3  0  0  0  0  0  0
  161.2960  206.0950  149.1710 C   0  0  0  0  0  0  0  0  0  0  0  0
  160.8310  203.7830  149.6710 C   0  0  0  0  0  3  0  0  0  0  0  0
  160.8870  205.1160  150.0800 C   0  0  0  0  0  3  0  0  0  0  0  0
  161.1880  203.4410  148.3660 C   0  0  0  0  0  3  0  0  0  0  0  0
  161.6000  204.4450  147.4800 C   0  0  0  0  0  0  0  0  0  0  0  0
  161.6470  205.7370  147.9030 N   0  0  0  0  0  0  0  0  0  0  0  0
  161.9790  204.1090  146.0990 C   0  0  0  0  0  0  0  0  0  0  0  0
  163.0220  204.6010  145.5910 O   0  0  0  0  0  1  0  0  0  0  0  0
  161.1890  203.2510  145.3420 O   0  0  0  0  0  0  0  0  0  0  0  0
  160.9080  208.1900  152.2950 C   0  0  0  0  0  2  0  0  0  0  0  0
  161.1020  207.0710  153.3240 C   0  0  0  0  0  2  0  0  0  0  0  0
  160.2150  206.9360  155.6600 C   0  0  0  0  0  3  0  0  0  0  0  0
  160.9740  207.6180  154.7040 C   0  0  0  0  0  0  0  0  0  0  0  0
  161.5680  208.8000  155.0230 N   0  0  0  0  0  0  0  0  0  0  0  0
  160.0780  207.4830  156.9380 C   0  0  0  0  0  3  0  0  0  0  0  0
  161.4490  209.3470  156.2630 C   0  0  0  0  0  0  0  0  0  0  0  0
  160.6990  208.6950  157.2460 C   0  0  0  0  0  3  0  0  0  0  0  0
  162.0840  210.5840  156.5610 N   0  0  0  0  0  1  0  0  0  0  0  0
  161.9540  209.9140  151.1060 N   0  0  0  0  0  2  0  0  0  0  0  0
  161.2020  210.7000  152.0700 C   0  0  0  0  0  2  0  0  0  0  0  0
  160.4250  211.6420  151.3970 O   0  0  0  0  0  0  0  0  0  0  0  0
  159.6540  212.2420  152.3930 C   0  0  0  0  0  2  0  0  0  0  0  0
  159.2860  213.8130  150.1920 S   0  0  0  0  0  0  0  0  0  0  0  0
  157.4660  213.7460  150.2280 C   0  0  0  0  0  2  0  0  0  0  0  0
  159.3360  213.6770  152.0050 C   0  0  1  0  0  3  0  0  0  0  0  0
  157.9670  214.0300  152.4780 C   0  0  0  0  0  0  0  0  0  0  0  0
  157.0440  214.0560  151.5800 N   0  0  0  0  0  0  0  0  0  0  0  0
  156.9590  213.5620  154.6680 C   0  0  0  0  0  3  0  0  0  0  0  0
  156.4510  212.2830  154.2960 N   0  0  0  0  0  1  0  0  0  0  0  0
  157.6370  214.3100  153.8490 N   0  0  0  0  0  0  0  0  0  0  0  0
  1 14  1  0  0  0  0
  2  1  1  0  0  0  0
  4  3  1  6  0  0  0
  4  2  1  0  0  0  0
  5  4  1  0  0  0  0
  5  7  1  0  0  0  0
  6  7  2  0  0  0  0
  8  6  1  0  0  0  0
  9 10  1  0  0  0  0
  9  8  2  0  0  0  0
 10  5  2  0  0  0  0
 11  9  1  0  0  0  0
 12 11  1  0  0  0  0
 13 11  2  0  0  0  0
 14 15  1  0  0  0  0
 15 17  1  0  0  0  0
 16 19  1  0  0  0  0
 17 18  1  0  0  0  0
 17 16  2  0  0  0  0
 18 20  2  0  0  0  0
 19 21  2  0  0  0  0
 20 22  1  0  0  0  0
 20 21  1  0  0  0  0
 23  1  1  0  0  0  0
 23 24  1  0  0  0  0
 25 24  1  0  0  0  0
 25 26  1  0  0  0  0
 27 28  1  0  0  0  0
 27 29  1  0  0  0  0
 28 31  1  0  0  0  0
 29 26  1  6  0  0  0
 29 30  1  0  0  0  0
 30 34  1  0  0  0  0
 31 30  2  0  0  0  0
 33 32  1  0  0  0  0
 34 32  2  0  0  0  0
M  END
>  <MODEL>
7

>  <REMARK>
 VINA RESULT:      -7.2      3.184      4.037
  Name = 
  13 active torsions:
  status: ('A' for Active; 'I' for Inactive)
    1  A    between atoms: C_3  and  C_8
    2  A    between atoms: C_3  and  N_20
    3  A    between atoms: C_4  and  C_8
    4  A    between atoms: C_9  and  C_17
    5  A    between atoms: C_9  and  O_19
    6  A    between atoms: C_12  and  O_19
    7  A    between atoms: C_12  and  N_34
    8  A    between atoms: C_15  and  CA_26
    9  A    between atoms: C_16  and  N_20
   10  A    between atoms: C_16  and  C_32
   11  A    between atoms: C_18  and  C_32
   12  A    between atoms: N_20  and  N_34
   13  A    between atoms: C_21  and  N_30
                            x       y       z     vdW  Elec       q    Type
                         _______ _______ _______ _____ _____    ______ ____

>  <TORSDO>
F 13

$$$$
=
 OpenBabel11042422263D

 34 36  0  0  1  0  0  0  0  0999 V2000
  161.8180  210.3070  149.2940 N   0  0  0  0  0  0  0  0  0  0  0  0
  162.3240  211.5700  148.7620 C   0  0  0  0  0  2  0  0  0  0  0  0
  161.5660  213.8390  149.0290 O   0  0  0  0  0  1  0  0  0  0  0  0
  161.1990  212.5820  148.5430 C   0  0  1  0  0  3  0  0  0  0  0  0
  160.7920  212.6680  147.1050 C   0  0  0  0  0  0  0  0  0  0  0  0
  159.0780  212.5940  145.4110 C   0  0  0  0  0  3  0  0  0  0  0  0
  159.4420  212.5620  146.7580 C   0  0  0  0  0  3  0  0  0  0  0  0
  160.0610  212.7240  144.4280 C   0  0  0  0  0  3  0  0  0  0  0  0
  161.4050  212.8210  144.8080 C   0  0  0  0  0  0  0  0  0  0  0  0
  161.7350  212.7870  146.1280 N   0  0  0  0  0  0  0  0  0  0  0  0
  162.4570  212.9620  143.7910 C   0  0  0  0  0  0  0  0  0  0  0  0
  163.4920  213.6380  144.0390 O   0  0  0  0  0  1  0  0  0  0  0  0
  162.3210  212.3540  142.5480 O   0  0  0  0  0  0  0  0  0  0  0  0
  162.2800  210.1570  150.6800 C   0  0  0  0  0  2  0  0  0  0  0  0
  161.1680  210.3280  151.7200 C   0  0  0  0  0  2  0  0  0  0  0  0
  160.8550  209.2410  153.9530 C   0  0  0  0  0  3  0  0  0  0  0  0
  161.0780  209.1130  152.5780 C   0  0  0  0  0  0  0  0  0  0  0  0
  161.2490  207.8800  152.0280 N   0  0  0  0  0  0  0  0  0  0  0  0
  160.8100  208.0920  154.7450 C   0  0  0  0  0  3  0  0  0  0  0  0
  161.2050  206.7490  152.7830 C   0  0  0  0  0  0  0  0  0  0  0  0
  160.9840  206.8370  154.1600 C   0  0  0  0  0  3  0  0  0  0  0  0
  161.3870  205.4780  152.1730 N   0  0  0  0  0  1  0  0  0  0  0  0
  162.3390  209.2600  148.5180 N   0  0  0  0  0  2  0  0  0  0  0  0
  161.5340  208.0840  148.8020 C   0  0  0  0  0  2  0  0  0  0  0  0
  162.3250  206.9420  148.6950 O   0  0  0  0  0  0  0  0  0  0  0  0
  162.2760  206.6010  147.3430 C   0  0  0  0  0  2  0  0  0  0  0  0
  160.7990  205.6040  145.2770 S   0  0  0  0  0  0  0  0  0  0  0  0
  161.5830  203.9610  145.2730 C   0  0  0  0  0  2  0  0  0  0  0  0
  161.0580  205.7340  147.0720 C   0  0  1  0  0  3  0  0  0  0  0  0
  161.3180  204.3450  147.5480 C   0  0  0  0  0  0  0  0  0  0  0  0
  161.5840  203.4730  146.6380 N   0  0  0  0  0  0  0  0  0  0  0  0
  160.8310  202.8570  149.4400 C   0  0  0  0  0  3  0  0  0  0  0  0
  160.2460  201.8330  148.6400 N   0  0  0  0  0  1  0  0  0  0  0  0
  161.3100  203.9540  148.9320 N   0  0  0  0  0  0  0  0  0  0  0  0
  1 14  1  0  0  0  0
  2  1  1  0  0  0  0
  4  2  1  0  0  0  0
  4  3  1  6  0  0  0
  5  4  1  0  0  0  0
  6  7  2  0  0  0  0
  7  5  1  0  0  0  0
  8  9  2  0  0  0  0
  8  6  1  0  0  0  0
  9 10  1  0  0  0  0
 10  5  2  0  0  0  0
 11 12  1  0  0  0  0
 11  9  1  0  0  0  0
 13 11  2  0  0  0  0
 14 15  1  0  0  0  0
 15 17  1  0  0  0  0
 16 19  1  0  0  0  0
 17 16  2  0  0  0  0
 18 17  1  0  0  0  0
 18 20  2  0  0  0  0
 20 21  1  0  0  0  0
 21 19  2  0  0  0  0
 22 20  1  0  0  0  0
 23 24  1  0  0  0  0
 23  1  1  0  0  0  0
 25 24  1  0  0  0  0
 26 25  1  0  0  0  0
 27 29  1  0  0  0  0
 28 27  1  0  0  0  0
 28 31  1  0  0  0  0
 29 26  1  6  0  0  0
 29 30  1  0  0  0  0
 30 34  1  0  0  0  0
 31 30  2  0  0  0  0
 33 32  1  0  0  0  0
 34 32  2  0  0  0  0
M  END
>  <MODEL>
8

>  <REMARK>
 VINA RESULT:      -7.1      2.763      7.883
  Name = 
  13 active torsions:
  status: ('A' for Active; 'I' for Inactive)
    1  A    between atoms: C_3  and  C_8
    2  A    between atoms: C_3  and  N_20
    3  A    between atoms: C_4  and  C_8
    4  A    between atoms: C_9  and  C_17
    5  A    between atoms: C_9  and  O_19
    6  A    between atoms: C_12  and  O_19
    7  A    between atoms: C_12  and  N_34
    8  A    between atoms: C_15  and  CA_26
    9  A    between atoms: C_16  and  N_20
   10  A    between atoms: C_16  and  C_32
   11  A    between atoms: C_18  and  C_32
   12  A    between atoms: N_20  and  N_34
   13  A    between atoms: C_21  and  N_30
                            x       y       z     vdW  Elec       q    Type
                         _______ _______ _______ _____ _____    ______ ____

>  <TORSDO>
F 13

$$$$
=
 OpenBabel11042422263D

 34 36  0  0  1  0  0  0  0  0999 V2000
  161.8190  210.1500  149.1230 N   0  0  0  0  0  0  0  0  0  0  0  0
  162.3270  211.4510  148.6930 C   0  0  0  0  0  2  0  0  0  0  0  0
  161.5910  213.7080  149.0860 O   0  0  0  0  0  1  0  0  0  0  0  0
  161.2030  212.4770  148.5530 C   0  0  1  0  0  3  0  0  0  0  0  0
  160.7570  212.6320  147.1320 C   0  0  0  0  0  0  0  0  0  0  0  0
  158.9940  212.6760  145.4880 C   0  0  0  0  0  3  0  0  0  0  0  0
  159.3950  212.5800  146.8210 C   0  0  0  0  0  3  0  0  0  0  0  0
  159.9510  212.8150  144.4820 C   0  0  0  0  0  3  0  0  0  0  0  0
  161.3080  212.8570  144.8250 C   0  0  0  0  0  0  0  0  0  0  0  0
  161.6750  212.7610  146.1330 N   0  0  0  0  0  0  0  0  0  0  0  0
  162.3350  213.0060  143.7830 C   0  0  0  0  0  0  0  0  0  0  0  0
  162.2870  212.3000  142.7410 O   0  0  0  0  0  0  0  0  0  0  0  0
  163.3680  213.9240  143.9390 O   0  0  0  0  0  1  0  0  0  0  0  0
  162.2850  209.8850  150.4900 C   0  0  0  0  0  2  0  0  0  0  0  0
  161.2290  210.1650  151.5640 C   0  0  0  0  0  2  0  0  0  0  0  0
  161.2910  207.7120  152.0600 C   0  0  0  0  0  3  0  0  0  0  0  0
  161.1590  209.0250  152.5220 C   0  0  0  0  0  0  0  0  0  0  0  0
  160.9310  209.2630  153.8430 N   0  0  0  0  0  0  0  0  0  0  0  0
  161.1870  206.6570  152.9680 C   0  0  0  0  0  3  0  0  0  0  0  0
  160.8300  208.2480  154.7430 C   0  0  0  0  0  0  0  0  0  0  0  0
  160.9570  206.9220  154.3190 C   0  0  0  0  0  3  0  0  0  0  0  0
  160.5920  208.5330  156.1160 N   0  0  0  0  0  1  0  0  0  0  0  0
  162.3340  209.1680  148.2620 N   0  0  0  0  0  2  0  0  0  0  0  0
  161.8610  207.8860  148.7540 C   0  0  0  0  0  2  0  0  0  0  0  0
  160.9390  207.3530  147.8540 O   0  0  0  0  0  0  0  0  0  0  0  0
  160.4670  206.1950  148.4720 C   0  0  0  0  0  2  0  0  0  0  0  0
  161.1080  204.0190  149.9880 S   0  0  0  0  0  0  0  0  0  0  0  0
  160.8330  202.7950  148.6680 C   0  0  0  0  0  2  0  0  0  0  0  0
  161.6230  205.2500  148.7520 C   0  0  1  0  0  3  0  0  0  0  0  0
  161.9470  204.4780  147.5190 C   0  0  0  0  0  0  0  0  0  0  0  0
  161.5410  203.2560  147.4900 N   0  0  0  0  0  0  0  0  0  0  0  0
  162.1370  205.4130  145.2560 C   0  0  0  0  0  3  0  0  0  0  0  0
  160.7380  205.3700  144.9890 N   0  0  0  0  0  1  0  0  0  0  0  0
  162.6460  205.0250  146.3880 N   0  0  0  0  0  0  0  0  0  0  0  0
  1 14  1  0  0  0  0
  2  1  1  0  0  0  0
  4  2  1  0  0  0  0
  4  3  1  6  0  0  0
  5  4  1  0  0  0  0
  6  7  2  0  0  0  0
  7  5  1  0  0  0  0
  8  9  2  0  0  0  0
  8  6  1  0  0  0  0
  9 10  1  0  0  0  0
 10  5  2  0  0  0  0
 11 13  1  0  0  0  0
 11  9  1  0  0  0  0
 12 11  2  0  0  0  0
 14 15  1  0  0  0  0
 15 17  1  0  0  0  0
 16 17  2  0  0  0  0
 16 19  1  0  0  0  0
 17 18  1  0  0  0  0
 18 20  2  0  0  0  0
 19 21  2  0  0  0  0
 20 22  1  0  0  0  0
 21 20  1  0  0  0  0
 23 24  1  0  0  0  0
 23  1  1  0  0  0  0
 25 26  1  0  0  0  0
 25 24  1  0  0  0  0
 28 27  1  0  0  0  0
 29 26  1  6  0  0  0
 29 27  1  0  0  0  0
 30 29  1  0  0  0  0
 31 30  2  0  0  0  0
 31 28  1  0  0  0  0
 32 34  2  0  0  0  0
 33 32  1  0  0  0  0
 34 30  1  0  0  0  0
M  END
>  <MODEL>
9

>  <REMARK>
 VINA RESULT:      -7.0      2.818      7.696
  Name = 
  13 active torsions:
  status: ('A' for Active; 'I' for Inactive)
    1  A    between atoms: C_3  and  C_8
    2  A    between atoms: C_3  and  N_20
    3  A    between atoms: C_4  and  C_8
    4  A    between atoms: C_9  and  C_17
    5  A    between atoms: C_9  and  O_19
    6  A    between atoms: C_12  and  O_19
    7  A    between atoms: C_12  and  N_34
    8  A    between atoms: C_15  and  CA_26
    9  A    between atoms: C_16  and  N_20
   10  A    between atoms: C_16  and  C_32
   11  A    between atoms: C_18  and  C_32
   12  A    between atoms: N_20  and  N_34
   13  A    between atoms: C_21  and  N_30
                            x       y       z     vdW  Elec       q    Type
                         _______ _______ _______ _____ _____    ______ ____

>  <TORSDO>
F 13

$$$$
