=
 OpenBabel11052409363D

 44 46  0  0  1  0  0  0  0  0999 V2000
  161.9980  211.7800  149.4760 C   0  0  0  0  0  2  0  0  0  0  0  0
  161.0970  210.7130  150.0720 C   0  0  0  0  0  2  0  0  0  0  0  0
  161.6580  207.8240  151.3810 C   0  0  1  0  0  3  0  0  0  0  0  0
  160.4520  208.3760  152.0990 C   0  0  0  0  0  3  0  0  0  0  0  0
  162.9380  208.6390  151.6400 C   0  0  0  0  0  2  0  0  0  0  0  0
  162.7100  210.1410  151.8930 C   0  0  2  0  0  3  0  0  0  0  0  0
  163.0150  210.4250  153.2180 O   0  0  0  0  0  1  0  0  0  0  0  0
  161.2870  210.6270  151.5740 C   0  0  2  0  0  3  0  0  0  0  0  0
  160.2720  209.6980  152.1860 C   0  0  0  0  0  3  0  0  0  0  0  0
  161.8750  206.3250  151.6390 C   0  0  2  0  0  3  0  0  0  0  0  0
  161.1400  205.5940  149.3210 C   0  0  0  0  0  0  0  0  0  0  0  0
  160.0430  206.2010  149.4320 O   0  0  0  0  0  0  0  0  0  0  0  0
  162.1020  205.6280  150.3760 N   0  0  0  0  0  2  0  0  0  0  0  0
  161.4280  204.8730  148.1270 N   0  0  0  0  0  0  0  0  0  0  0  0
  161.2100  203.4400  148.0970 C   0  0  0  0  0  2  0  0  0  0  0  0
  160.6380  202.9810  149.4180 C   0  0  0  0  0  1  0  0  0  0  0  0
  161.7800  205.5630  146.8790 C   0  0  0  0  0  3  0  0  0  0  0  0
  160.1730  206.1170  145.3440 C   0  0  0  0  0  1  0  0  0  0  0  0
  160.8220  206.5460  146.5120 O   0  0  0  0  0  0  0  0  0  0  0  0
  162.0560  204.6570  145.8410 O   0  0  0  0  0  0  0  0  0  0  0  0
  163.4490  204.6110  145.7570 C   0  0  0  0  0  1  0  0  0  0  0  0
  160.7170  205.6870  152.4070 C   0  0  0  0  0  2  0  0  0  0  0  0
  161.0270  204.2350  152.7080 C   0  0  0  0  0  1  0  0  0  0  0  0
  161.1520  212.8340  148.7580 C   0  0  1  0  0  3  0  0  0  0  0  0
  161.6800  213.3040  146.2980 C   0  0  0  0  0  0  0  0  0  0  0  0
  162.3390  214.3350  146.5890 O   0  0  0  0  0  0  0  0  0  0  0  0
  161.0570  212.5320  147.3330 N   0  0  0  0  0  2  0  0  0  0  0  0
  162.6130  213.0530  144.0080 C   0  0  0  0  0  3  0  0  0  0  0  0
  161.3030  212.1200  142.2020 C   0  0  0  0  0  0  0  0  0  0  0  0
  162.4980  212.6700  142.6730 C   0  0  0  0  0  3  0  0  0  0  0  0
  160.3430  212.3410  144.4240 C   0  0  0  0  0  3  0  0  0  0  0  0
  160.2220  211.9520  143.0840 C   0  0  0  0  0  3  0  0  0  0  0  0
  161.5470  212.8930  144.8980 C   0  0  0  0  0  0  0  0  0  0  0  0
  160.0000  211.3340  140.2520 C   0  0  0  0  0  1  0  0  0  0  0  0
  161.2120  211.7500  140.8530 O   0  0  0  0  0  0  0  0  0  0  0  0
  159.7520  213.1120  149.3410 C   0  0  1  0  0  3  0  0  0  0  0  0
  158.5530  214.4520  150.9630 O   0  0  0  0  0  0  0  0  0  0  0  0
  159.7710  213.7900  150.7150 C   0  0  1  0  0  3  0  0  0  0  0  0
  158.7180  213.1940  151.5630 C   0  0  1  0  0  3  0  0  0  0  0  0
  159.0630  213.3730  153.0300 C   0  0  0  0  0  2  0  0  0  0  0  0
  158.3030  212.3640  153.8560 C   0  0  0  0  0  2  0  0  0  0  0  0
  157.5540  213.0840  154.9580 C   0  0  0  0  0  1  0  0  0  0  0  0
  158.9820  213.9490  148.3640 C   0  0  0  0  0  3  0  0  0  0  0  0
  158.0940  213.4480  147.6920 O   0  0  0  0  0  0  0  0  0  0  0  0
  1  2  1  0  0  0  0
  3 10  1  1  0  0  0
  3  5  1  0  0  0  0
  3  4  1  0  0  0  0
  4  9  2  0  0  0  0
  5  6  1  0  0  0  0
  6  7  1  1  0  0  0
  8  2  1  6  0  0  0
  8  6  1  0  0  0  0
  8  9  1  0  0  0  0
 10 22  1  6  0  0  0
 11 12  2  0  0  0  0
 11 13  1  0  0  0  0
 13 10  1  0  0  0  0
 14 11  1  0  0  0  0
 15 14  1  0  0  0  0
 15 16  1  0  0  0  0
 17 14  1  0  0  0  0
 18 19  1  0  0  0  0
 19 17  1  0  0  0  0
 20 17  1  0  0  0  0
 21 20  1  0  0  0  0
 22 23  1  0  0  0  0
 24 36  1  0  0  0  0
 24  1  1  1  0  0  0
 25 26  2  0  0  0  0
 25 27  1  0  0  0  0
 27 24  1  0  0  0  0
 28 33  1  0  0  0  0
 29 30  1  0  0  0  0
 29 32  2  0  0  0  0
 30 28  2  0  0  0  0
 31 33  2  0  0  0  0
 32 31  1  0  0  0  0
 33 25  1  0  0  0  0
 34 35  1  0  0  0  0
 35 29  1  0  0  0  0
 36 43  1  6  0  0  0
 37 39  1  0  0  0  0
 38 36  1  6  0  0  0
 38 37  1  0  0  0  0
 38 39  1  0  0  0  0
 39 40  1  1  0  0  0
 40 41  1  0  0  0  0
 41 42  1  0  0  0  0
 44 43  2  0  0  0  0
M  END
>  <MODEL>
1

>  <REMARK>
 VINA RESULT:      -4.7      0.000      0.000
  Name = 
  18 active torsions:
  status: ('A' for Active; 'I' for Inactive)
    1  A    between atoms: C_1  and  C_28
    2  A    between atoms: C_6  and  C_26
    3  A    between atoms: C_6  and  C_37
    4  A    between atoms: C_8  and  C_27
    5  A    between atoms: C_8  and  C_31
    6  A    between atoms: C_9  and  C_43
    7  A    between atoms: C_11  and  O_20
    8  A    between atoms: C_11  and  N_35
    9  A    between atoms: C_11  and  O_41
   10  A    between atoms: C_14  and  C_29
   11  A    between atoms: C_16  and  N_35
   12  A    between atoms: O_17  and  C_25
   13  A    between atoms: N_18  and  C_31
   14  A    between atoms: C_21  and  C_29
   15  A    between atoms: N_22  and  C_28
   16  A    between atoms: C_27  and  C_34
   17  A    between atoms: C_28  and  C_30
   18  A    between atoms: C_29  and  C_31
                            x       y       z     vdW  Elec       q    Type
                         _______ _______ _______ _____ _____    ______ ____

>  <TORSDO>
F 18

$$$$
=
 OpenBabel11052409363D

 44 46  0  0  1  0  0  0  0  0999 V2000
  160.9390  211.5610  150.9900 C   0  0  0  0  0  2  0  0  0  0  0  0
  159.9980  210.8070  151.9120 C   0  0  0  0  0  2  0  0  0  0  0  0
  161.4270  208.0240  152.6800 C   0  0  1  0  0  3  0  0  0  0  0  0
  160.3790  208.2570  153.7390 C   0  0  0  0  0  3  0  0  0  0  0  0
  162.5520  209.0750  152.7040 C   0  0  0  0  0  2  0  0  0  0  0  0
  162.1210  210.4740  153.1860 C   0  0  2  0  0  3  0  0  0  0  0  0
  162.7150  210.7280  154.4160 O   0  0  0  0  0  1  0  0  0  0  0  0
  160.6010  210.6640  153.2960 C   0  0  2  0  0  3  0  0  0  0  0  0
  159.9830  209.5010  154.0280 C   0  0  0  0  0  3  0  0  0  0  0  0
  161.9840  206.5930  152.6920 C   0  0  2  0  0  3  0  0  0  0  0  0
  161.1630  206.3300  150.3040 C   0  0  0  0  0  0  0  0  0  0  0  0
  160.1250  207.0020  150.5430 O   0  0  0  0  0  0  0  0  0  0  0  0
  162.1350  206.1030  151.3250 N   0  0  0  0  0  2  0  0  0  0  0  0
  161.3730  205.8000  148.9990 N   0  0  0  0  0  0  0  0  0  0  0  0
  161.0280  204.4170  148.7350 C   0  0  0  0  0  2  0  0  0  0  0  0
  161.9830  203.8360  147.7190 C   0  0  0  0  0  1  0  0  0  0  0  0
  161.7710  206.6590  147.8760 C   0  0  0  0  0  3  0  0  0  0  0  0
  161.9830  208.8640  148.4560 C   0  0  0  0  0  1  0  0  0  0  0  0
  162.6920  207.6690  148.2630 O   0  0  0  0  0  0  0  0  0  0  0  0
  160.6570  207.1710  147.1890 O   0  0  0  0  0  0  0  0  0  0  0  0
  160.6020  206.4510  145.9940 C   0  0  0  0  0  1  0  0  0  0  0  0
  161.1250  205.6340  153.5170 C   0  0  0  0  0  2  0  0  0  0  0  0
  161.0230  204.2920  152.8210 C   0  0  0  0  0  1  0  0  0  0  0  0
  160.2740  212.8540  150.5120 C   0  0  1  0  0  3  0  0  0  0  0  0
  161.3830  212.6680  148.2130 C   0  0  0  0  0  0  0  0  0  0  0  0
  162.5060  212.4190  148.7240 O   0  0  0  0  0  0  0  0  0  0  0  0
  160.2470  212.9080  149.0540 N   0  0  0  0  0  2  0  0  0  0  0  0
  160.0540  212.2900  146.1470 C   0  0  0  0  0  3  0  0  0  0  0  0
  160.9480  212.7930  143.9570 C   0  0  0  0  0  0  0  0  0  0  0  0
  159.9050  212.3280  144.7620 C   0  0  0  0  0  3  0  0  0  0  0  0
  162.2890  213.1830  145.9460 C   0  0  0  0  0  3  0  0  0  0  0  0
  162.1440  213.2250  144.5540 C   0  0  0  0  0  3  0  0  0  0  0  0
  161.2390  212.7160  146.7560 C   0  0  0  0  0  0  0  0  0  0  0  0
  161.0110  211.6830  141.7470 C   0  0  0  0  0  1  0  0  0  0  0  0
  160.7740  212.8130  142.5660 O   0  0  0  0  0  0  0  0  0  0  0  0
  158.8770  213.1670  151.0860 C   0  0  1  0  0  3  0  0  0  0  0  0
  157.5860  214.4350  152.6950 O   0  0  0  0  0  0  0  0  0  0  0  0
  158.8950  214.1040  152.2980 C   0  0  1  0  0  3  0  0  0  0  0  0
  158.2320  213.4340  153.4370 C   0  0  1  0  0  3  0  0  0  0  0  0
  158.7280  214.0160  154.7470 C   0  0  0  0  0  2  0  0  0  0  0  0
  158.4750  213.0330  155.8650 C   0  0  0  0  0  2  0  0  0  0  0  0
  157.5380  211.9490  155.3730 C   0  0  0  0  0  1  0  0  0  0  0  0
  158.0300  213.7520  149.9960 C   0  0  0  0  0  3  0  0  0  0  0  0
  157.0070  213.1860  149.6420 O   0  0  0  0  0  0  0  0  0  0  0  0
  1  2  1  0  0  0  0
  3 10  1  1  0  0  0
  3  5  1  0  0  0  0
  3  4  1  0  0  0  0
  4  9  2  0  0  0  0
  5  6  1  0  0  0  0
  6  8  1  0  0  0  0
  6  7  1  1  0  0  0
  8  2  1  6  0  0  0
  8  9  1  0  0  0  0
 10 22  1  1  0  0  0
 11 12  2  0  0  0  0
 11 13  1  0  0  0  0
 13 10  1  0  0  0  0
 14 11  1  0  0  0  0
 15 14  1  0  0  0  0
 16 15  1  0  0  0  0
 17 19  1  0  0  0  0
 17 14  1  0  0  0  0
 19 18  1  0  0  0  0
 20 17  1  0  0  0  0
 21 20  1  0  0  0  0
 23 22  1  0  0  0  0
 24  1  1  6  0  0  0
 24 36  1  0  0  0  0
 25 26  2  0  0  0  0
 25 27  1  0  0  0  0
 27 24  1  0  0  0  0
 28 33  1  0  0  0  0
 29 32  2  0  0  0  0
 29 30  1  0  0  0  0
 30 28  2  0  0  0  0
 31 33  2  0  0  0  0
 32 31  1  0  0  0  0
 33 25  1  0  0  0  0
 34 35  1  0  0  0  0
 35 29  1  0  0  0  0
 36 43  1  6  0  0  0
 37 39  1  0  0  0  0
 38 36  1  6  0  0  0
 38 37  1  0  0  0  0
 38 39  1  0  0  0  0
 39 40  1  1  0  0  0
 40 41  1  0  0  0  0
 42 41  1  0  0  0  0
 44 43  2  0  0  0  0
M  END
>  <MODEL>
2

>  <REMARK>
 VINA RESULT:      -4.5      1.475      2.119
  Name = 
  18 active torsions:
  status: ('A' for Active; 'I' for Inactive)
    1  A    between atoms: C_1  and  C_28
    2  A    between atoms: C_6  and  C_26
    3  A    between atoms: C_6  and  C_37
    4  A    between atoms: C_8  and  C_27
    5  A    between atoms: C_8  and  C_31
    6  A    between atoms: C_9  and  C_43
    7  A    between atoms: C_11  and  O_20
    8  A    between atoms: C_11  and  N_35
    9  A    between atoms: C_11  and  O_41
   10  A    between atoms: C_14  and  C_29
   11  A    between atoms: C_16  and  N_35
   12  A    between atoms: O_17  and  C_25
   13  A    between atoms: N_18  and  C_31
   14  A    between atoms: C_21  and  C_29
   15  A    between atoms: N_22  and  C_28
   16  A    between atoms: C_27  and  C_34
   17  A    between atoms: C_28  and  C_30
   18  A    between atoms: C_29  and  C_31
                            x       y       z     vdW  Elec       q    Type
                         _______ _______ _______ _____ _____    ______ ____

>  <TORSDO>
F 18

$$$$
=
 OpenBabel11052409363D

 44 46  0  0  1  0  0  0  0  0999 V2000
  161.3230  206.3600  151.9900 C   0  0  0  0  0  2  0  0  0  0  0  0
  160.7390  207.6870  152.4400 C   0  0  0  0  0  2  0  0  0  0  0  0
  160.3190  210.8200  153.0570 C   0  0  1  0  0  3  0  0  0  0  0  0
  161.7700  210.6650  152.6760 C   0  0  0  0  0  3  0  0  0  0  0  0
  159.9600  210.1000  154.3690 C   0  0  0  0  0  2  0  0  0  0  0  0
  160.7880  208.8330  154.6600 C   0  0  2  0  0  3  0  0  0  0  0  0
  161.6110  209.0750  155.7530 O   0  0  0  0  0  1  0  0  0  0  0  0
  161.6330  208.3450  153.4740 C   0  0  2  0  0  3  0  0  0  0  0  0
  162.3900  209.4960  152.8660 C   0  0  0  0  0  3  0  0  0  0  0  0
  159.8550  212.2850  153.0650 C   0  0  2  0  0  3  0  0  0  0  0  0
  158.1070  213.0520  154.7400 C   0  0  0  0  0  0  0  0  0  0  0  0
  158.9730  213.6420  155.4360 O   0  0  0  0  0  0  0  0  0  0  0  0
  158.4770  212.3700  153.5400 N   0  0  0  0  0  2  0  0  0  0  0  0
  156.7420  213.0720  155.1470 N   0  0  0  0  0  0  0  0  0  0  0  0
  156.2040  211.9360  155.8680 C   0  0  0  0  0  2  0  0  0  0  0  0
  155.7480  210.8780  154.8920 C   0  0  0  0  0  1  0  0  0  0  0  0
  155.9160  214.2780  155.0040 C   0  0  0  0  0  3  0  0  0  0  0  0
  155.4150  214.1540  157.2350 C   0  0  0  0  0  1  0  0  0  0  0  0
  154.8630  214.3320  155.9570 O   0  0  0  0  0  0  0  0  0  0  0  0
  155.4650  214.4480  153.6840 O   0  0  0  0  0  0  0  0  0  0  0  0
  154.0880  214.2210  153.7360 C   0  0  0  0  0  1  0  0  0  0  0  0
  159.9980  212.9550  151.6990 C   0  0  0  0  0  2  0  0  0  0  0  0
  158.7390  213.7260  151.3600 C   0  0  0  0  0  1  0  0  0  0  0  0
  161.9970  206.5230  150.6260 C   0  0  1  0  0  3  0  0  0  0  0  0
  160.9230  204.3480  149.8090 C   0  0  0  0  0  0  0  0  0  0  0  0
  159.8320  204.6220  150.3730 O   0  0  0  0  0  0  0  0  0  0  0  0
  162.0340  205.2480  149.9160 N   0  0  0  0  0  2  0  0  0  0  0  0
  161.3840  201.9090  149.6900 C   0  0  0  0  0  3  0  0  0  0  0  0
  161.3350  200.7110  147.5900 C   0  0  0  0  0  0  0  0  0  0  0  0
  161.5200  200.7210  148.9740 C   0  0  0  0  0  3  0  0  0  0  0  0
  160.8740  203.0970  147.6510 C   0  0  0  0  0  3  0  0  0  0  0  0
  161.0070  201.9060  146.9260 C   0  0  0  0  0  3  0  0  0  0  0  0
  161.0590  203.1060  149.0450 C   0  0  0  0  0  0  0  0  0  0  0  0
  160.9150  199.2790  145.6170 C   0  0  0  0  0  1  0  0  0  0  0  0
  161.4850  199.5040  146.8930 O   0  0  0  0  0  0  0  0  0  0  0  0
  161.4410  207.6320  149.7090 C   0  0  1  0  0  3  0  0  0  0  0  0
  162.4700  209.2230  148.2000 O   0  0  0  0  0  0  0  0  0  0  0  0
  162.3740  208.8370  149.5510 C   0  0  1  0  0  3  0  0  0  0  0  0
  161.6030  209.9760  149.0070 C   0  0  1  0  0  3  0  0  0  0  0  0
  162.2710  211.2860  149.3820 C   0  0  0  0  0  2  0  0  0  0  0  0
  162.2130  212.2370  148.2100 C   0  0  0  0  0  2  0  0  0  0  0  0
  160.7980  212.2750  147.6700 C   0  0  0  0  0  1  0  0  0  0  0  0
  161.1380  207.0370  148.3660 C   0  0  0  0  0  3  0  0  0  0  0  0
  159.9850  206.7790  148.0550 O   0  0  0  0  0  0  0  0  0  0  0  0
  1  2  1  0  0  0  0
  3 10  1  1  0  0  0
  3  5  1  0  0  0  0
  4  9  2  0  0  0  0
  4  3  1  0  0  0  0
  5  6  1  0  0  0  0
  6  7  1  1  0  0  0
  8  2  1  6  0  0  0
  8  6  1  0  0  0  0
  9  8  1  0  0  0  0
 10 22  1  6  0  0  0
 10 13  1  0  0  0  0
 11 14  1  0  0  0  0
 11 12  2  0  0  0  0
 13 11  1  0  0  0  0
 14 15  1  0  0  0  0
 16 15  1  0  0  0  0
 17 14  1  0  0  0  0
 17 19  1  0  0  0  0
 19 18  1  0  0  0  0
 20 21  1  0  0  0  0
 20 17  1  0  0  0  0
 23 22  1  0  0  0  0
 24  1  1  1  0  0  0
 25 27  1  0  0  0  0
 25 26  2  0  0  0  0
 27 24  1  0  0  0  0
 29 30  1  0  0  0  0
 30 28  2  0  0  0  0
 31 33  2  0  0  0  0
 32 29  2  0  0  0  0
 32 31  1  0  0  0  0
 33 28  1  0  0  0  0
 33 25  1  0  0  0  0
 34 35  1  0  0  0  0
 35 29  1  0  0  0  0
 36 43  1  6  0  0  0
 36 24  1  0  0  0  0
 37 39  1  0  0  0  0
 37 38  1  0  0  0  0
 38 36  1  6  0  0  0
 39 40  1  1  0  0  0
 39 38  1  0  0  0  0
 41 40  1  0  0  0  0
 42 41  1  0  0  0  0
 44 43  2  0  0  0  0
M  END
>  <MODEL>
3

>  <REMARK>
 VINA RESULT:      -4.2      3.261      9.420
  Name = 
  18 active torsions:
  status: ('A' for Active; 'I' for Inactive)
    1  A    between atoms: C_1  and  C_28
    2  A    between atoms: C_6  and  C_26
    3  A    between atoms: C_6  and  C_37
    4  A    between atoms: C_8  and  C_27
    5  A    between atoms: C_8  and  C_31
    6  A    between atoms: C_9  and  C_43
    7  A    between atoms: C_11  and  O_20
    8  A    between atoms: C_11  and  N_35
    9  A    between atoms: C_11  and  O_41
   10  A    between atoms: C_14  and  C_29
   11  A    between atoms: C_16  and  N_35
   12  A    between atoms: O_17  and  C_25
   13  A    between atoms: N_18  and  C_31
   14  A    between atoms: C_21  and  C_29
   15  A    between atoms: N_22  and  C_28
   16  A    between atoms: C_27  and  C_34
   17  A    between atoms: C_28  and  C_30
   18  A    between atoms: C_29  and  C_31
                            x       y       z     vdW  Elec       q    Type
                         _______ _______ _______ _____ _____    ______ ____

>  <TORSDO>
F 18

$$$$
=
 OpenBabel11052409363D

 44 46  0  0  1  0  0  0  0  0999 V2000
  160.4830  208.1610  153.5660 C   0  0  0  0  0  2  0  0  0  0  0  0
  160.4880  207.6980  152.1200 C   0  0  0  0  0  2  0  0  0  0  0  0
  160.9830  206.5810  149.1400 C   0  0  1  0  0  3  0  0  0  0  0  0
  160.4960  205.4040  149.9470 C   0  0  0  0  0  3  0  0  0  0  0  0
  162.3540  207.1060  149.6060 C   0  0  0  0  0  2  0  0  0  0  0  0
  162.6390  206.9250  151.1090 C   0  0  2  0  0  3  0  0  0  0  0  0
  163.6500  205.9850  151.2650 O   0  0  0  0  0  1  0  0  0  0  0  0
  161.4150  206.5110  151.9400 C   0  0  2  0  0  3  0  0  0  0  0  0
  160.6930  205.3710  151.2690 C   0  0  0  0  0  3  0  0  0  0  0  0
  160.9580  206.3220  147.6260 C   0  0  2  0  0  3  0  0  0  0  0  0
  161.4030  203.8240  147.5290 C   0  0  0  0  0  0  0  0  0  0  0  0
  162.5800  203.9750  147.9470 O   0  0  0  0  0  0  0  0  0  0  0  0
  160.5380  204.9480  147.3610 N   0  0  0  0  0  2  0  0  0  0  0  0
  160.9250  202.5160  147.2280 N   0  0  0  0  0  0  0  0  0  0  0  0
  160.9340  202.0600  145.8520 C   0  0  0  0  0  2  0  0  0  0  0  0
  159.9020  200.9740  145.6640 C   0  0  0  0  0  1  0  0  0  0  0  0
  160.5810  201.5610  148.2890 C   0  0  0  0  0  3  0  0  0  0  0  0
  158.5150  201.1220  149.1740 C   0  0  0  0  0  1  0  0  0  0  0  0
  159.5670  202.0510  149.1550 O   0  0  0  0  0  0  0  0  0  0  0  0
  161.7210  201.1160  148.9810 O   0  0  0  0  0  0  0  0  0  0  0  0
  161.5000  201.4700  150.3140 C   0  0  0  0  0  1  0  0  0  0  0  0
  162.3000  206.6150  146.9560 C   0  0  0  0  0  2  0  0  0  0  0  0
  162.3210  206.0410  145.5540 C   0  0  0  0  0  1  0  0  0  0  0  0
  161.1370  209.5410  153.6730 C   0  0  1  0  0  3  0  0  0  0  0  0
  161.9100  210.6220  151.4860 C   0  0  0  0  0  0  0  0  0  0  0  0
  163.0960  210.2430  151.6630 O   0  0  0  0  0  0  0  0  0  0  0  0
  160.9020  210.3150  152.4580 N   0  0  0  0  0  2  0  0  0  0  0  0
  160.7310  212.5060  150.3720 C   0  0  0  0  0  3  0  0  0  0  0  0
  160.8660  212.8480  147.9820 C   0  0  0  0  0  0  0  0  0  0  0  0
  160.3870  213.2350  149.2350 C   0  0  0  0  0  3  0  0  0  0  0  0
  162.0400  210.9910  149.0210 C   0  0  0  0  0  3  0  0  0  0  0  0
  161.6990  211.7210  147.8760 C   0  0  0  0  0  3  0  0  0  0  0  0
  161.5590  211.3820  150.2830 C   0  0  0  0  0  0  0  0  0  0  0  0
  161.4440  214.1680  145.9710 C   0  0  0  0  0  1  0  0  0  0  0  0
  160.4970  213.5950  146.8540 O   0  0  0  0  0  0  0  0  0  0  0  0
  160.7860  210.3780  154.9190 C   0  0  1  0  0  3  0  0  0  0  0  0
  159.0870  211.0020  156.5290 O   0  0  0  0  0  0  0  0  0  0  0  0
  159.3700  210.1380  155.4540 C   0  0  1  0  0  3  0  0  0  0  0  0
  158.5710  211.3690  155.2760 C   0  0  1  0  0  3  0  0  0  0  0  0
  157.0930  211.0300  155.2190 C   0  0  0  0  0  2  0  0  0  0  0  0
  156.2860  212.3020  155.1160 C   0  0  0  0  0  2  0  0  0  0  0  0
  157.0820  213.3360  154.3470 C   0  0  0  0  0  1  0  0  0  0  0  0
  161.7950  210.0920  155.9900 C   0  0  0  0  0  3  0  0  0  0  0  0
  162.8490  210.7100  156.0220 O   0  0  0  0  0  0  0  0  0  0  0  0
  2  1  1  0  0  0  0
  3 10  1  6  0  0  0
  3  5  1  0  0  0  0
  3  4  1  0  0  0  0
  4  9  2  0  0  0  0
  5  6  1  0  0  0  0
  6  7  1  6  0  0  0
  6  8  1  0  0  0  0
  8  2  1  6  0  0  0
  9  8  1  0  0  0  0
 10 22  1  1  0  0  0
 11 12  2  0  0  0  0
 13 11  1  0  0  0  0
 13 10  1  0  0  0  0
 14 11  1  0  0  0  0
 14 17  1  0  0  0  0
 15 14  1  0  0  0  0
 16 15  1  0  0  0  0
 17 20  1  0  0  0  0
 17 19  1  0  0  0  0
 19 18  1  0  0  0  0
 20 21  1  0  0  0  0
 23 22  1  0  0  0  0
 24  1  1  6  0  0  0
 24 36  1  0  0  0  0
 25 26  2  0  0  0  0
 25 27  1  0  0  0  0
 27 24  1  0  0  0  0
 29 30  1  0  0  0  0
 30 28  2  0  0  0  0
 31 33  2  0  0  0  0
 32 29  2  0  0  0  0
 32 31  1  0  0  0  0
 33 28  1  0  0  0  0
 33 25  1  0  0  0  0
 34 35  1  0  0  0  0
 35 29  1  0  0  0  0
 36 43  1  1  0  0  0
 38 36  1  6  0  0  0
 38 37  1  0  0  0  0
 39 40  1  1  0  0  0
 39 38  1  0  0  0  0
 39 37  1  0  0  0  0
 41 40  1  0  0  0  0
 42 41  1  0  0  0  0
 43 44  2  0  0  0  0
M  END
>  <MODEL>
4

>  <REMARK>
 VINA RESULT:      -4.1      2.652      5.297
  Name = 
  18 active torsions:
  status: ('A' for Active; 'I' for Inactive)
    1  A    between atoms: C_1  and  C_28
    2  A    between atoms: C_6  and  C_26
    3  A    between atoms: C_6  and  C_37
    4  A    between atoms: C_8  and  C_27
    5  A    between atoms: C_8  and  C_31
    6  A    between atoms: C_9  and  C_43
    7  A    between atoms: C_11  and  O_20
    8  A    between atoms: C_11  and  N_35
    9  A    between atoms: C_11  and  O_41
   10  A    between atoms: C_14  and  C_29
   11  A    between atoms: C_16  and  N_35
   12  A    between atoms: O_17  and  C_25
   13  A    between atoms: N_18  and  C_31
   14  A    between atoms: C_21  and  C_29
   15  A    between atoms: N_22  and  C_28
   16  A    between atoms: C_27  and  C_34
   17  A    between atoms: C_28  and  C_30
   18  A    between atoms: C_29  and  C_31
                            x       y       z     vdW  Elec       q    Type
                         _______ _______ _______ _____ _____    ______ ____

>  <TORSDO>
F 18

$$$$
=
 OpenBabel11052409363D

 44 46  0  0  1  0  0  0  0  0999 V2000
  160.1490  208.4990  153.7700 C   0  0  0  0  0  2  0  0  0  0  0  0
  160.4400  207.5070  152.6580 C   0  0  0  0  0  2  0  0  0  0  0  0
  160.9360  204.8100  150.9680 C   0  0  1  0  0  3  0  0  0  0  0  0
  160.8860  204.3880  152.4150 C   0  0  0  0  0  3  0  0  0  0  0  0
  162.1390  205.7150  150.6450 C   0  0  0  0  0  2  0  0  0  0  0  0
  162.6110  206.6050  151.8110 C   0  0  2  0  0  3  0  0  0  0  0  0
  163.8580  206.1660  152.2360 O   0  0  0  0  0  1  0  0  0  0  0  0
  161.6430  206.6510  153.0030 C   0  0  2  0  0  3  0  0  0  0  0  0
  161.2140  205.2570  153.3770 C   0  0  0  0  0  3  0  0  0  0  0  0
  160.8360  203.6270  149.9940 C   0  0  2  0  0  3  0  0  0  0  0  0
  161.6930  203.4870  147.6090 C   0  0  0  0  0  0  0  0  0  0  0  0
  162.3770  202.4630  147.8710 O   0  0  0  0  0  0  0  0  0  0  0  0
  160.8920  204.1060  148.6160 N   0  0  0  0  0  2  0  0  0  0  0  0
  161.7110  204.0270  146.2910 N   0  0  0  0  0  0  0  0  0  0  0  0
  162.5780  205.1520  146.0020 C   0  0  0  0  0  2  0  0  0  0  0  0
  162.2940  206.2800  146.9650 C   0  0  0  0  0  1  0  0  0  0  0  0
  161.0040  203.3730  145.1820 C   0  0  0  0  0  3  0  0  0  0  0  0
  160.9860  205.1770  143.7710 C   0  0  0  0  0  1  0  0  0  0  0  0
  160.1690  204.2710  144.4650 O   0  0  0  0  0  0  0  0  0  0  0  0
  160.3260  202.2170  145.6050 O   0  0  0  0  0  0  0  0  0  0  0  0
  159.8230  201.6410  144.4360 C   0  0  0  0  0  1  0  0  0  0  0  0
  159.5820  202.7820  150.2220 C   0  0  0  0  0  2  0  0  0  0  0  0
  159.8600  201.3310  149.8870 C   0  0  0  0  0  1  0  0  0  0  0  0
  161.1430  209.6610  153.7050 C   0  0  1  0  0  3  0  0  0  0  0  0
  161.7920  210.5970  151.4130 C   0  0  0  0  0  0  0  0  0  0  0  0
  162.8920  209.9870  151.4240 O   0  0  0  0  0  0  0  0  0  0  0  0
  160.8950  210.4830  152.5250 N   0  0  0  0  0  2  0  0  0  0  0  0
  161.8940  211.1070  148.9830 C   0  0  0  0  0  3  0  0  0  0  0  0
  160.7520  213.0200  148.0420 C   0  0  0  0  0  0  0  0  0  0  0  0
  161.5590  211.8920  147.8810 C   0  0  0  0  0  3  0  0  0  0  0  0
  160.6180  212.5650  150.4260 C   0  0  0  0  0  3  0  0  0  0  0  0
  160.2770  213.3560  149.3220 C   0  0  0  0  0  3  0  0  0  0  0  0
  161.4300  211.4280  150.2630 C   0  0  0  0  0  0  0  0  0  0  0  0
  159.1790  213.7340  146.2710 C   0  0  0  0  0  1  0  0  0  0  0  0
  160.4370  213.7960  146.9170 O   0  0  0  0  0  0  0  0  0  0  0  0
  161.2540  210.5460  154.9630 C   0  0  1  0  0  3  0  0  0  0  0  0
  159.9960  211.7420  156.6510 O   0  0  0  0  0  0  0  0  0  0  0  0
  159.9620  210.6370  155.7800 C   0  0  1  0  0  3  0  0  0  0  0  0
  159.2750  211.9060  155.4580 C   0  0  1  0  0  3  0  0  0  0  0  0
  157.7900  211.7840  155.7440 C   0  0  0  0  0  2  0  0  0  0  0  0
  157.0070  212.0740  154.4850 C   0  0  0  0  0  2  0  0  0  0  0  0
  157.9370  212.6640  153.4450 C   0  0  0  0  0  1  0  0  0  0  0  0
  162.3690  210.0250  155.8200 C   0  0  0  0  0  3  0  0  0  0  0  0
  162.1550  209.1400  156.6340 O   0  0  0  0  0  0  0  0  0  0  0  0
  2  1  1  0  0  0  0
  3 10  1  6  0  0  0
  3  4  1  0  0  0  0
  4  9  2  0  0  0  0
  5  3  1  0  0  0  0
  5  6  1  0  0  0  0
  6  7  1  1  0  0  0
  6  8  1  0  0  0  0
  8  2  1  6  0  0  0
  8  9  1  0  0  0  0
 10 22  1  6  0  0  0
 11 12  2  0  0  0  0
 11 13  1  0  0  0  0
 13 10  1  0  0  0  0
 14 11  1  0  0  0  0
 15 14  1  0  0  0  0
 15 16  1  0  0  0  0
 17 20  1  0  0  0  0
 17 14  1  0  0  0  0
 18 19  1  0  0  0  0
 19 17  1  0  0  0  0
 21 20  1  0  0  0  0
 23 22  1  0  0  0  0
 24  1  1  1  0  0  0
 24 36  1  0  0  0  0
 25 26  2  0  0  0  0
 25 27  1  0  0  0  0
 27 24  1  0  0  0  0
 28 33  1  0  0  0  0
 29 32  2  0  0  0  0
 30 29  1  0  0  0  0
 30 28  2  0  0  0  0
 32 31  1  0  0  0  0
 33 31  2  0  0  0  0
 33 25  1  0  0  0  0
 34 35  1  0  0  0  0
 35 29  1  0  0  0  0
 36 43  1  1  0  0  0
 38 36  1  6  0  0  0
 38 37  1  0  0  0  0
 39 40  1  1  0  0  0
 39 38  1  0  0  0  0
 39 37  1  0  0  0  0
 41 40  1  0  0  0  0
 42 41  1  0  0  0  0
 43 44  2  0  0  0  0
M  END
>  <MODEL>
5

>  <REMARK>
 VINA RESULT:      -3.9      2.758      5.004
  Name = 
  18 active torsions:
  status: ('A' for Active; 'I' for Inactive)
    1  A    between atoms: C_1  and  C_28
    2  A    between atoms: C_6  and  C_26
    3  A    between atoms: C_6  and  C_37
    4  A    between atoms: C_8  and  C_27
    5  A    between atoms: C_8  and  C_31
    6  A    between atoms: C_9  and  C_43
    7  A    between atoms: C_11  and  O_20
    8  A    between atoms: C_11  and  N_35
    9  A    between atoms: C_11  and  O_41
   10  A    between atoms: C_14  and  C_29
   11  A    between atoms: C_16  and  N_35
   12  A    between atoms: O_17  and  C_25
   13  A    between atoms: N_18  and  C_31
   14  A    between atoms: C_21  and  C_29
   15  A    between atoms: N_22  and  C_28
   16  A    between atoms: C_27  and  C_34
   17  A    between atoms: C_28  and  C_30
   18  A    between atoms: C_29  and  C_31
                            x       y       z     vdW  Elec       q    Type
                         _______ _______ _______ _____ _____    ______ ____

>  <TORSDO>
F 18

$$$$
=
 OpenBabel11052409363D

 44 46  0  0  1  0  0  0  0  0999 V2000
  160.8060  206.9180  152.6450 C   0  0  0  0  0  2  0  0  0  0  0  0
  161.4570  207.5890  153.8410 C   0  0  0  0  0  2  0  0  0  0  0  0
  160.6060  209.5680  156.2360 C   0  0  1  0  0  3  0  0  0  0  0  0
  161.6410  208.6370  156.8170 C   0  0  0  0  0  3  0  0  0  0  0  0
  159.3080  208.8460  155.8300 C   0  0  0  0  0  2  0  0  0  0  0  0
  159.4940  207.3860  155.3750 C   0  0  2  0  0  3  0  0  0  0  0  0
  158.9220  206.5440  156.3200 O   0  0  0  0  0  1  0  0  0  0  0  0
  160.9570  206.9800  155.1370 C   0  0  2  0  0  3  0  0  0  0  0  0
  161.8130  207.4180  156.2960 C   0  0  0  0  0  3  0  0  0  0  0  0
  160.3250  210.7840  157.1310 C   0  0  2  0  0  3  0  0  0  0  0  0
  159.0820  212.5690  155.8210 C   0  0  0  0  0  0  0  0  0  0  0  0
  160.1550  213.0250  155.3450 O   0  0  0  0  0  0  0  0  0  0  0  0
  159.0960  211.4470  156.7040 N   0  0  0  0  0  2  0  0  0  0  0  0
  157.8420  213.1740  155.4680 N   0  0  0  0  0  0  0  0  0  0  0  0
  157.2440  214.1360  156.3720 C   0  0  0  0  0  2  0  0  0  0  0  0
  155.9480  213.5860  156.9220 C   0  0  0  0  0  1  0  0  0  0  0  0
  157.2400  212.9760  154.1430 C   0  0  0  0  0  3  0  0  0  0  0  0
  156.0570  214.1970  152.6080 C   0  0  0  0  0  1  0  0  0  0  0  0
  156.0820  213.7760  153.9470 O   0  0  0  0  0  0  0  0  0  0  0  0
  157.0160  211.6160  153.8690 O   0  0  0  0  0  0  0  0  0  0  0  0
  155.7870  211.3210  154.4630 C   0  0  0  0  0  1  0  0  0  0  0  0
  161.4890  211.7740  157.1600 C   0  0  0  0  0  2  0  0  0  0  0  0
  162.7880  211.0650  156.8320 C   0  0  0  0  0  1  0  0  0  0  0  0
  161.7820  206.8970  151.4660 C   0  0  1  0  0  3  0  0  0  0  0  0
  160.8100  205.0900  149.9350 C   0  0  0  0  0  0  0  0  0  0  0  0
  159.8160  205.8040  149.6470 O   0  0  0  0  0  0  0  0  0  0  0  0
  161.8060  205.5770  150.8440 N   0  0  0  0  0  2  0  0  0  0  0  0
  160.7420  202.6130  150.1190 C   0  0  0  0  0  3  0  0  0  0  0  0
  161.2200  201.1880  148.2240 C   0  0  0  0  0  0  0  0  0  0  0  0
  160.8740  201.3390  149.5690 C   0  0  0  0  0  3  0  0  0  0  0  0
  161.2980  203.6070  147.9890 C   0  0  0  0  0  3  0  0  0  0  0  0
  161.4300  202.3290  147.4310 C   0  0  0  0  0  3  0  0  0  0  0  0
  160.9480  203.7570  149.3430 C   0  0  0  0  0  0  0  0  0  0  0  0
  161.1970  199.6090  146.3210 C   0  0  0  0  0  1  0  0  0  0  0  0
  161.3530  199.8960  147.6980 O   0  0  0  0  0  0  0  0  0  0  0  0
  161.5960  207.9910  150.3940 C   0  0  1  0  0  3  0  0  0  0  0  0
  162.7710  209.9710  151.1440 O   0  0  0  0  0  0  0  0  0  0  0  0
  161.4920  209.4100  150.9620 C   0  0  1  0  0  3  0  0  0  0  0  0
  162.0720  210.3620  149.9910 C   0  0  1  0  0  3  0  0  0  0  0  0
  161.4850  211.7450  150.2000 C   0  0  0  0  0  2  0  0  0  0  0  0
  161.6440  212.5580  148.9380 C   0  0  0  0  0  2  0  0  0  0  0  0
  160.2800  212.7920  148.3200 C   0  0  0  0  0  1  0  0  0  0  0  0
  162.7330  207.9080  149.4210 C   0  0  0  0  0  3  0  0  0  0  0  0
  162.5420  207.4970  148.2860 O   0  0  0  0  0  0  0  0  0  0  0  0
  1  2  1  0  0  0  0
  3  4  1  0  0  0  0
  3 10  1  1  0  0  0
  5  3  1  0  0  0  0
  6  5  1  0  0  0  0
  6  7  1  1  0  0  0
  8  2  1  6  0  0  0
  8  6  1  0  0  0  0
  8  9  1  0  0  0  0
  9  4  2  0  0  0  0
 10 22  1  6  0  0  0
 11 13  1  0  0  0  0
 12 11  2  0  0  0  0
 13 10  1  0  0  0  0
 14 11  1  0  0  0  0
 14 15  1  0  0  0  0
 15 16  1  0  0  0  0
 17 14  1  0  0  0  0
 18 19  1  0  0  0  0
 19 17  1  0  0  0  0
 20 17  1  0  0  0  0
 20 21  1  0  0  0  0
 23 22  1  0  0  0  0
 24  1  1  1  0  0  0
 25 27  1  0  0  0  0
 26 25  2  0  0  0  0
 27 24  1  0  0  0  0
 29 30  2  0  0  0  0
 30 28  1  0  0  0  0
 31 33  1  0  0  0  0
 32 31  2  0  0  0  0
 32 29  1  0  0  0  0
 33 25  1  0  0  0  0
 33 28  2  0  0  0  0
 34 35  1  0  0  0  0
 35 29  1  0  0  0  0
 36 43  1  6  0  0  0
 36 24  1  0  0  0  0
 38 36  1  6  0  0  0
 38 37  1  0  0  0  0
 39 40  1  1  0  0  0
 39 38  1  0  0  0  0
 39 37  1  0  0  0  0
 41 40  1  0  0  0  0
 42 41  1  0  0  0  0
 44 43  2  0  0  0  0
M  END
>  <MODEL>
6

>  <REMARK>
 VINA RESULT:      -3.6      3.645      9.158
  Name = 
  18 active torsions:
  status: ('A' for Active; 'I' for Inactive)
    1  A    between atoms: C_1  and  C_28
    2  A    between atoms: C_6  and  C_26
    3  A    between atoms: C_6  and  C_37
    4  A    between atoms: C_8  and  C_27
    5  A    between atoms: C_8  and  C_31
    6  A    between atoms: C_9  and  C_43
    7  A    between atoms: C_11  and  O_20
    8  A    between atoms: C_11  and  N_35
    9  A    between atoms: C_11  and  O_41
   10  A    between atoms: C_14  and  C_29
   11  A    between atoms: C_16  and  N_35
   12  A    between atoms: O_17  and  C_25
   13  A    between atoms: N_18  and  C_31
   14  A    between atoms: C_21  and  C_29
   15  A    between atoms: N_22  and  C_28
   16  A    between atoms: C_27  and  C_34
   17  A    between atoms: C_28  and  C_30
   18  A    between atoms: C_29  and  C_31
                            x       y       z     vdW  Elec       q    Type
                         _______ _______ _______ _____ _____    ______ ____

>  <TORSDO>
F 18

$$$$
=
 OpenBabel11052409363D

 44 46  0  0  1  0  0  0  0  0999 V2000
  160.6690  207.0290  152.8710 C   0  0  0  0  0  2  0  0  0  0  0  0
  160.7120  208.1860  153.8520 C   0  0  0  0  0  2  0  0  0  0  0  0
  160.1500  210.1510  156.3420 C   0  0  1  0  0  3  0  0  0  0  0  0
  161.6070  209.7730  156.4340 C   0  0  0  0  0  3  0  0  0  0  0  0
  159.2030  208.9550  156.5510 C   0  0  0  0  0  2  0  0  0  0  0  0
  159.7640  207.5960  156.0870 C   0  0  2  0  0  3  0  0  0  0  0  0
  159.9940  206.8010  157.2020 O   0  0  0  0  0  1  0  0  0  0  0  0
  161.0460  207.6950  155.2480 C   0  0  2  0  0  3  0  0  0  0  0  0
  162.0330  208.6180  155.9130 C   0  0  0  0  0  3  0  0  0  0  0  0
  159.7800  211.3350  157.2460 C   0  0  2  0  0  3  0  0  0  0  0  0
  157.9560  212.6730  156.0920 C   0  0  0  0  0  0  0  0  0  0  0  0
  158.7930  213.2490  155.3490 O   0  0  0  0  0  0  0  0  0  0  0  0
  158.3800  211.6990  157.0470 N   0  0  0  0  0  2  0  0  0  0  0  0
  156.5730  212.9890  155.9720 N   0  0  0  0  0  0  0  0  0  0  0  0
  155.9820  213.9360  156.8970 C   0  0  0  0  0  2  0  0  0  0  0  0
  154.5540  213.5440  157.1910 C   0  0  0  0  0  1  0  0  0  0  0  0
  155.7700  212.5100  154.8400 C   0  0  0  0  0  3  0  0  0  0  0  0
  155.3620  210.2860  155.2040 C   0  0  0  0  0  1  0  0  0  0  0  0
  156.1200  211.1900  154.4450 O   0  0  0  0  0  0  0  0  0  0  0  0
  155.7820  213.4200  153.7690 O   0  0  0  0  0  0  0  0  0  0  0  0
  154.5920  213.1850  153.0770 C   0  0  0  0  0  1  0  0  0  0  0  0
  160.6880  212.5460  157.0320 C   0  0  0  0  0  2  0  0  0  0  0  0
  159.8950  213.8280  157.1860 C   0  0  0  0  0  1  0  0  0  0  0  0
  161.5290  207.3510  151.6460 C   0  0  1  0  0  3  0  0  0  0  0  0
  161.6290  204.9160  150.8640 C   0  0  0  0  0  0  0  0  0  0  0  0
  162.0150  204.5210  151.9950 O   0  0  0  0  0  0  0  0  0  0  0  0
  161.3890  206.3110  150.6330 N   0  0  0  0  0  2  0  0  0  0  0  0
  161.4960  204.3580  148.4460 C   0  0  0  0  0  3  0  0  0  0  0  0
  161.0350  202.1070  147.6900 C   0  0  0  0  0  0  0  0  0  0  0  0
  161.3040  203.4490  147.4070 C   0  0  0  0  0  3  0  0  0  0  0  0
  161.1560  202.6000  150.0670 C   0  0  0  0  0  3  0  0  0  0  0  0
  160.9640  201.6820  149.0270 C   0  0  0  0  0  3  0  0  0  0  0  0
  161.4290  203.9500  149.7820 C   0  0  0  0  0  0  0  0  0  0  0  0
  160.7210  201.6410  145.2810 C   0  0  0  0  0  1  0  0  0  0  0  0
  160.8380  201.2160  146.6260 O   0  0  0  0  0  0  0  0  0  0  0  0
  161.3370  208.7450  151.0150 C   0  0  1  0  0  3  0  0  0  0  0  0
  161.6990  211.1060  151.4100 O   0  0  0  0  0  0  0  0  0  0  0  0
  161.3330  209.8950  152.0270 C   0  0  1  0  0  3  0  0  0  0  0  0
  160.3270  210.8970  151.6160 C   0  0  1  0  0  3  0  0  0  0  0  0
  159.8670  211.7000  152.8190 C   0  0  0  0  0  2  0  0  0  0  0  0
  158.8000  212.6800  152.3940 C   0  0  0  0  0  2  0  0  0  0  0  0
  159.1580  213.2490  151.0360 C   0  0  0  0  0  1  0  0  0  0  0  0
  162.4150  208.9620  149.9940 C   0  0  0  0  0  3  0  0  0  0  0  0
  162.1350  209.0090  148.8060 O   0  0  0  0  0  0  0  0  0  0  0  0
  1  2  1  0  0  0  0
  3  4  1  0  0  0  0
  3  5  1  0  0  0  0
  3 10  1  1  0  0  0
  6  5  1  0  0  0  0
  6  7  1  1  0  0  0
  8  2  1  6  0  0  0
  8  9  1  0  0  0  0
  8  6  1  0  0  0  0
  9  4  2  0  0  0  0
 10 22  1  6  0  0  0
 11 13  1  0  0  0  0
 12 11  2  0  0  0  0
 13 10  1  0  0  0  0
 14 11  1  0  0  0  0
 14 15  1  0  0  0  0
 15 16  1  0  0  0  0
 17 14  1  0  0  0  0
 19 17  1  0  0  0  0
 19 18  1  0  0  0  0
 20 17  1  0  0  0  0
 21 20  1  0  0  0  0
 22 23  1  0  0  0  0
 24  1  1  1  0  0  0
 25 26  2  0  0  0  0
 27 25  1  0  0  0  0
 27 24  1  0  0  0  0
 28 33  1  0  0  0  0
 29 32  2  0  0  0  0
 30 29  1  0  0  0  0
 30 28  2  0  0  0  0
 32 31  1  0  0  0  0
 33 31  2  0  0  0  0
 33 25  1  0  0  0  0
 34 35  1  0  0  0  0
 35 29  1  0  0  0  0
 36 43  1  6  0  0  0
 36 24  1  0  0  0  0
 37 39  1  0  0  0  0
 37 38  1  0  0  0  0
 38 36  1  6  0  0  0
 39 38  1  0  0  0  0
 39 40  1  1  0  0  0
 41 40  1  0  0  0  0
 42 41  1  0  0  0  0
 44 43  2  0  0  0  0
M  END
>  <MODEL>
7

>  <REMARK>
 VINA RESULT:      -3.2      4.312      9.037
  Name = 
  18 active torsions:
  status: ('A' for Active; 'I' for Inactive)
    1  A    between atoms: C_1  and  C_28
    2  A    between atoms: C_6  and  C_26
    3  A    between atoms: C_6  and  C_37
    4  A    between atoms: C_8  and  C_27
    5  A    between atoms: C_8  and  C_31
    6  A    between atoms: C_9  and  C_43
    7  A    between atoms: C_11  and  O_20
    8  A    between atoms: C_11  and  N_35
    9  A    between atoms: C_11  and  O_41
   10  A    between atoms: C_14  and  C_29
   11  A    between atoms: C_16  and  N_35
   12  A    between atoms: O_17  and  C_25
   13  A    between atoms: N_18  and  C_31
   14  A    between atoms: C_21  and  C_29
   15  A    between atoms: N_22  and  C_28
   16  A    between atoms: C_27  and  C_34
   17  A    between atoms: C_28  and  C_30
   18  A    between atoms: C_29  and  C_31
                            x       y       z     vdW  Elec       q    Type
                         _______ _______ _______ _____ _____    ______ ____

>  <TORSDO>
F 18

$$$$
=
 OpenBabel11052409363D

 44 46  0  0  1  0  0  0  0  0999 V2000
  162.3450  207.0780  149.9850 C   0  0  0  0  0  2  0  0  0  0  0  0
  162.6320  208.1600  151.0100 C   0  0  0  0  0  2  0  0  0  0  0  0
  161.7800  209.8310  153.6290 C   0  0  1  0  0  3  0  0  0  0  0  0
  160.4910  209.3730  152.9930 C   0  0  0  0  0  3  0  0  0  0  0  0
  162.5620  210.8270  152.7530 C   0  0  0  0  0  2  0  0  0  0  0  0
  162.3800  210.6360  151.2350 C   0  0  2  0  0  3  0  0  0  0  0  0
  161.6710  211.7180  150.7280 O   0  0  0  0  0  1  0  0  0  0  0  0
  161.6780  209.3270  150.8420 C   0  0  2  0  0  3  0  0  0  0  0  0
  160.4420  209.1280  151.6800 C   0  0  0  0  0  3  0  0  0  0  0  0
  161.5880  210.3590  155.0580 C   0  0  2  0  0  3  0  0  0  0  0  0
  159.2840  211.3430  155.4730 C   0  0  0  0  0  0  0  0  0  0  0  0
  158.8440  210.2410  155.8910 O   0  0  0  0  0  0  0  0  0  0  0  0
  160.6450  211.4740  155.0580 N   0  0  0  0  0  2  0  0  0  0  0  0
  158.4200  212.4740  155.4230 N   0  0  0  0  0  0  0  0  0  0  0  0
  157.7900  212.8250  154.1660 C   0  0  0  0  0  2  0  0  0  0  0  0
  157.5530  214.3160  154.1100 C   0  0  0  0  0  1  0  0  0  0  0  0
  158.0210  213.1900  156.6410 C   0  0  0  0  0  3  0  0  0  0  0  0
  156.0240  212.0920  156.8750 C   0  0  0  0  0  1  0  0  0  0  0  0
  156.6130  213.3580  156.7370 O   0  0  0  0  0  0  0  0  0  0  0  0
  158.7250  214.3960  156.7930 O   0  0  0  0  0  0  0  0  0  0  0  0
  160.0500  214.0190  157.0230 C   0  0  0  0  0  1  0  0  0  0  0  0
  162.9060  210.7670  155.7170 C   0  0  0  0  0  2  0  0  0  0  0  0
  162.6820  211.0900  157.1800 C   0  0  0  0  0  1  0  0  0  0  0  0
  161.3430  206.0720  150.5570 C   0  0  1  0  0  3  0  0  0  0  0  0
  161.4890  205.0340  148.2220 C   0  0  0  0  0  0  0  0  0  0  0  0
  162.0870  206.0410  147.7620 O   0  0  0  0  0  0  0  0  0  0  0  0
  161.0830  205.0040  149.5970 N   0  0  0  0  0  2  0  0  0  0  0  0
  161.0730  202.6070  147.8860 C   0  0  0  0  0  3  0  0  0  0  0  0
  160.6680  201.6850  145.6870 C   0  0  0  0  0  0  0  0  0  0  0  0
  160.8060  201.5120  147.0660 C   0  0  0  0  0  3  0  0  0  0  0  0
  161.0670  204.0670  145.9620 C   0  0  0  0  0  3  0  0  0  0  0  0
  160.7970  202.9700  145.1340 C   0  0  0  0  0  3  0  0  0  0  0  0
  161.2050  203.8920  147.3500 C   0  0  0  0  0  0  0  0  0  0  0  0
  160.7860  199.2520  145.2550 C   0  0  0  0  0  1  0  0  0  0  0  0
  160.4070  200.5650  144.8850 O   0  0  0  0  0  0  0  0  0  0  0  0
  161.6720  205.4800  151.9430 C   0  0  1  0  0  3  0  0  0  0  0  0
  160.9070  205.0550  154.2000 O   0  0  0  0  0  0  0  0  0  0  0  0
  160.5790  205.7000  152.9920 C   0  0  1  0  0  3  0  0  0  0  0  0
  161.1510  206.4360  154.1400 C   0  0  1  0  0  3  0  0  0  0  0  0
  160.0570  207.1770  154.8850 C   0  0  0  0  0  2  0  0  0  0  0  0
  160.1830  206.9110  156.3660 C   0  0  0  0  0  2  0  0  0  0  0  0
  161.4340  207.5850  156.8880 C   0  0  0  0  0  1  0  0  0  0  0  0
  161.9460  204.0140  151.7850 C   0  0  0  0  0  3  0  0  0  0  0  0
  161.0400  203.2030  151.9070 O   0  0  0  0  0  0  0  0  0  0  0  0
  1  2  1  0  0  0  0
  3 10  1  1  0  0  0
  4  3  1  0  0  0  0
  5  3  1  0  0  0  0
  6  7  1  1  0  0  0
  6  5  1  0  0  0  0
  8  2  1  1  0  0  0
  8  6  1  0  0  0  0
  8  9  1  0  0  0  0
  9  4  2  0  0  0  0
 10 22  1  6  0  0  0
 11 12  2  0  0  0  0
 13 10  1  0  0  0  0
 13 11  1  0  0  0  0
 14 11  1  0  0  0  0
 14 17  1  0  0  0  0
 15 14  1  0  0  0  0
 16 15  1  0  0  0  0
 17 19  1  0  0  0  0
 17 20  1  0  0  0  0
 19 18  1  0  0  0  0
 20 21  1  0  0  0  0
 22 23  1  0  0  0  0
 24  1  1  6  0  0  0
 24 36  1  0  0  0  0
 25 27  1  0  0  0  0
 26 25  2  0  0  0  0
 27 24  1  0  0  0  0
 29 30  1  0  0  0  0
 30 28  2  0  0  0  0
 31 33  2  0  0  0  0
 32 29  2  0  0  0  0
 32 31  1  0  0  0  0
 33 28  1  0  0  0  0
 33 25  1  0  0  0  0
 35 34  1  0  0  0  0
 35 29  1  0  0  0  0
 36 43  1  6  0  0  0
 38 36  1  6  0  0  0
 38 39  1  0  0  0  0
 38 37  1  0  0  0  0
 39 37  1  0  0  0  0
 39 40  1  1  0  0  0
 40 41  1  0  0  0  0
 41 42  1  0  0  0  0
 43 44  2  0  0  0  0
M  END
>  <MODEL>
8

>  <REMARK>
 VINA RESULT:      -3.2      4.427      9.140
  Name = 
  18 active torsions:
  status: ('A' for Active; 'I' for Inactive)
    1  A    between atoms: C_1  and  C_28
    2  A    between atoms: C_6  and  C_26
    3  A    between atoms: C_6  and  C_37
    4  A    between atoms: C_8  and  C_27
    5  A    between atoms: C_8  and  C_31
    6  A    between atoms: C_9  and  C_43
    7  A    between atoms: C_11  and  O_20
    8  A    between atoms: C_11  and  N_35
    9  A    between atoms: C_11  and  O_41
   10  A    between atoms: C_14  and  C_29
   11  A    between atoms: C_16  and  N_35
   12  A    between atoms: O_17  and  C_25
   13  A    between atoms: N_18  and  C_31
   14  A    between atoms: C_21  and  C_29
   15  A    between atoms: N_22  and  C_28
   16  A    between atoms: C_27  and  C_34
   17  A    between atoms: C_28  and  C_30
   18  A    between atoms: C_29  and  C_31
                            x       y       z     vdW  Elec       q    Type
                         _______ _______ _______ _____ _____    ______ ____

>  <TORSDO>
F 18

$$$$
=
 OpenBabel11052409363D

 44 46  0  0  1  0  0  0  0  0999 V2000
  161.1800  208.8460  151.0060 C   0  0  0  0  0  2  0  0  0  0  0  0
  161.9550  207.7360  151.6920 C   0  0  0  0  0  2  0  0  0  0  0  0
  161.4860  204.7810  150.4980 C   0  0  1  0  0  3  0  0  0  0  0  0
  160.1150  205.3990  150.6230 C   0  0  0  0  0  3  0  0  0  0  0  0
  162.1730  204.5620  151.8580 C   0  0  0  0  0  2  0  0  0  0  0  0
  161.7930  205.5820  152.9480 C   0  0  2  0  0  3  0  0  0  0  0  0
  161.0510  204.9360  153.9290 O   0  0  0  0  0  1  0  0  0  0  0  0
  161.0150  206.8010  152.4300 C   0  0  2  0  0  3  0  0  0  0  0  0
  159.8930  206.3570  151.5290 C   0  0  0  0  0  3  0  0  0  0  0  0
  161.4920  203.5050  149.6440 C   0  0  2  0  0  3  0  0  0  0  0  0
  161.5780  204.2830  147.2280 C   0  0  0  0  0  0  0  0  0  0  0  0
  162.8130  204.5150  147.3040 O   0  0  0  0  0  0  0  0  0  0  0  0
  160.8640  203.7650  148.3510 N   0  0  0  0  0  2  0  0  0  0  0  0
  160.8890  204.5300  146.0070 N   0  0  0  0  0  0  0  0  0  0  0  0
  160.1510  205.7680  145.8510 C   0  0  0  0  0  2  0  0  0  0  0  0
  160.5920  206.7630  146.8980 C   0  0  0  0  0  1  0  0  0  0  0  0
  161.0420  203.6450  144.8450 C   0  0  0  0  0  3  0  0  0  0  0  0
  162.4960  205.2260  144.0510 C   0  0  0  0  0  1  0  0  0  0  0  0
  161.4710  204.3410  143.6830 O   0  0  0  0  0  0  0  0  0  0  0  0
  159.8910  202.8700  144.6230 O   0  0  0  0  0  0  0  0  0  0  0  0
  160.1340  201.6590  145.2750 C   0  0  0  0  0  1  0  0  0  0  0  0
  160.8170  202.3250  150.3440 C   0  0  0  0  0  2  0  0  0  0  0  0
  160.5820  201.1980  149.3600 C   0  0  0  0  0  1  0  0  0  0  0  0
  161.7820  210.2050  151.3730 C   0  0  1  0  0  3  0  0  0  0  0  0
  161.9440  210.6770  148.8630 C   0  0  0  0  0  0  0  0  0  0  0  0
  162.1570  209.4650  148.6020 O   0  0  0  0  0  0  0  0  0  0  0  0
  161.7670  211.1010  150.2210 N   0  0  0  0  0  2  0  0  0  0  0  0
  160.6830  211.8740  147.0870 C   0  0  0  0  0  3  0  0  0  0  0  0
  161.7420  213.5300  145.6790 C   0  0  0  0  0  0  0  0  0  0  0  0
  160.6100  212.8010  146.0490 C   0  0  0  0  0  3  0  0  0  0  0  0
  163.0210  212.3900  147.4030 C   0  0  0  0  0  3  0  0  0  0  0  0
  162.9530  213.3250  146.3620 C   0  0  0  0  0  3  0  0  0  0  0  0
  161.8800  211.6580  147.7760 C   0  0  0  0  0  0  0  0  0  0  0  0
  162.1900  214.2120  143.3440 C   0  0  0  0  0  1  0  0  0  0  0  0
  161.6420  214.4510  144.6260 O   0  0  0  0  0  0  0  0  0  0  0  0
  161.1900  210.9120  152.6100 C   0  0  1  0  0  3  0  0  0  0  0  0
  159.1410  211.0220  153.8950 O   0  0  0  0  0  0  0  0  0  0  0  0
  159.6630  211.0350  152.5880 C   0  0  1  0  0  3  0  0  0  0  0  0
  159.2690  212.2790  153.2830 C   0  0  1  0  0  3  0  0  0  0  0  0
  157.9110  212.7440  152.7920 C   0  0  0  0  0  2  0  0  0  0  0  0
  156.9180  212.6950  153.9300 C   0  0  0  0  0  2  0  0  0  0  0  0
  157.1620  213.8690  154.8550 C   0  0  0  0  0  1  0  0  0  0  0  0
  161.6290  210.1740  153.8400 C   0  0  0  0  0  3  0  0  0  0  0  0
  162.4070  210.6960  154.6240 O   0  0  0  0  0  0  0  0  0  0  0  0
  1  2  1  0  0  0  0
  3 10  1  1  0  0  0
  3  4  1  0  0  0  0
  3  5  1  0  0  0  0
  4  9  2  0  0  0  0
  5  6  1  0  0  0  0
  6  7  1  1  0  0  0
  8  2  1  6  0  0  0
  8  6  1  0  0  0  0
  9  8  1  0  0  0  0
 10 22  1  1  0  0  0
 11 12  2  0  0  0  0
 11 13  1  0  0  0  0
 13 10  1  0  0  0  0
 14 11  1  0  0  0  0
 15 14  1  0  0  0  0
 15 16  1  0  0  0  0
 17 14  1  0  0  0  0
 19 18  1  0  0  0  0
 19 17  1  0  0  0  0
 20 17  1  0  0  0  0
 20 21  1  0  0  0  0
 23 22  1  0  0  0  0
 24  1  1  6  0  0  0
 24 36  1  0  0  0  0
 25 27  1  0  0  0  0
 26 25  2  0  0  0  0
 27 24  1  0  0  0  0
 28 33  1  0  0  0  0
 29 30  1  0  0  0  0
 29 32  2  0  0  0  0
 30 28  2  0  0  0  0
 31 33  2  0  0  0  0
 32 31  1  0  0  0  0
 33 25  1  0  0  0  0
 34 35  1  0  0  0  0
 35 29  1  0  0  0  0
 36 43  1  1  0  0  0
 38 36  1  1  0  0  0
 38 39  1  0  0  0  0
 38 37  1  0  0  0  0
 39 40  1  6  0  0  0
 39 37  1  0  0  0  0
 40 41  1  0  0  0  0
 41 42  1  0  0  0  0
 43 44  2  0  0  0  0
M  END
>  <MODEL>
9

>  <REMARK>
 VINA RESULT:      -3.1      2.283      4.005
  Name = 
  18 active torsions:
  status: ('A' for Active; 'I' for Inactive)
    1  A    between atoms: C_1  and  C_28
    2  A    between atoms: C_6  and  C_26
    3  A    between atoms: C_6  and  C_37
    4  A    between atoms: C_8  and  C_27
    5  A    between atoms: C_8  and  C_31
    6  A    between atoms: C_9  and  C_43
    7  A    between atoms: C_11  and  O_20
    8  A    between atoms: C_11  and  N_35
    9  A    between atoms: C_11  and  O_41
   10  A    between atoms: C_14  and  C_29
   11  A    between atoms: C_16  and  N_35
   12  A    between atoms: O_17  and  C_25
   13  A    between atoms: N_18  and  C_31
   14  A    between atoms: C_21  and  C_29
   15  A    between atoms: N_22  and  C_28
   16  A    between atoms: C_27  and  C_34
   17  A    between atoms: C_28  and  C_30
   18  A    between atoms: C_29  and  C_31
                            x       y       z     vdW  Elec       q    Type
                         _______ _______ _______ _____ _____    ______ ____

>  <TORSDO>
F 18

$$$$
