=
 OpenBabel11052409533D

 56 63  0  0  1  0  0  0  0  0999 V2000
  161.3030  209.7870  151.1130 C   0  0  2  0  0  3  0  0  0  0  0  0
  159.3680  213.8750  150.7970 O   0  0  0  0  0  0  0  0  0  0  0  0
  162.1730  210.9190  149.0440 C   0  0  0  0  0  2  0  0  0  0  0  0
  160.3040  213.3200  150.1620 C   0  0  0  0  0  0  0  0  0  0  0  0
  159.6670  214.3430  148.1340 O   0  0  0  0  0  0  0  0  0  0  0  0
  161.1400  210.9760  150.1620 C   0  0  2  0  0  3  0  0  0  0  0  0
  160.5340  213.6630  148.7470 C   0  0  0  0  0  0  0  0  0  0  0  0
  161.1650  212.3260  150.8740 C   0  0  0  0  0  2  0  0  0  0  0  0
  161.6990  211.6750  147.8090 C   0  0  0  0  0  2  0  0  0  0  0  0
  161.7700  213.1790  148.0300 C   0  0  1  0  0  3  0  0  0  0  0  0
  161.9640  213.8630  146.6840 C   0  0  0  0  0  2  0  0  0  0  0  0
  161.3930  213.0510  145.6190 N   0  0  0  0  0  2  0  0  0  0  0  0
  161.9430  213.5490  144.3640 C   0  0  1  0  0  3  0  0  0  0  0  0
  163.4510  213.3450  144.3600 C   0  0  0  0  0  1  0  0  0  0  0  0
  161.2460  212.9240  143.1350 C   0  0  0  0  0  0  0  0  0  0  0  0
  160.6350  214.0420  142.3080 C   0  0  0  0  0  1  0  0  0  0  0  0
  160.0900  212.0140  143.5560 C   0  0  0  0  0  1  0  0  0  0  0  0
  162.2560  212.2720  142.2780 N   0  0  0  0  0  2  0  0  0  0  0  0
  163.0340  211.5170  139.8510 O   0  0  0  0  0  0  0  0  0  0  0  0
  161.5160  213.4400  139.9720 O   0  0  0  0  0  0  0  0  0  0  0  0
  161.8630  212.1090  140.5830 S   0  0  0  0  0  0  0  0  0  0  0  0
  159.3110  211.7460  140.1150 O   0  0  0  0  0  0  0  0  0  0  0  0
  158.5500  210.9540  139.2340 C   0  0  0  0  0  2  0  0  0  0  0  0
  159.3320  209.7170  138.8480 C   0  0  0  0  0  2  0  0  0  0  0  0
  160.4710  211.0100  140.4210 C   0  0  1  0  0  3  0  0  0  0  0  0
  160.7140  210.0220  139.3130 C   0  0  0  0  0  2  0  0  0  0  0  0
  162.3170  210.2120  152.5720 S   0  0  0  0  0  0  0  0  0  0  0  0
  160.9960  211.1570  153.4220 C   0  0  2  0  0  3  0  0  0  0  0  0
  155.5310  211.7310  156.5620 C   0  0  0  0  0  2  0  0  0  0  0  0
  161.0900  211.0300  154.9200 C   0  0  0  0  0  0  0  0  0  0  0  0
  162.2180  211.0120  155.4860 O   0  0  0  0  0  0  0  0  0  0  0  0
  157.0360  211.6890  156.5970 C   0  0  2  0  0  3  0  0  0  0  0  0
  155.6180  213.1250  155.9910 C   0  0  0  0  0  2  0  0  0  0  0  0
  157.1360  213.2030  154.4220 C   0  0  0  0  0  2  0  0  0  0  0  0
  158.6140  210.7940  153.6260 C   0  0  0  0  0  3  0  0  0  0  0  0
  158.3810  212.8290  155.0630 C   0  0  1  0  0  3  0  0  0  0  0  0
  157.1470  213.0810  155.9680 C   0  0  2  0  0  0  0  0  0  0  0  0
  159.9770  210.8590  157.1470 C   0  0  0  0  0  1  0  0  0  0  0  0
  159.8840  210.9970  155.6970 N   0  0  0  0  0  0  0  0  0  0  0  0
  157.5360  210.7050  155.7300 O   0  0  0  0  0  0  0  0  0  0  0  0
  158.6000  211.3140  155.0470 C   0  0  2  0  0  0  0  0  0  0  0  0
  159.6970  210.7360  152.9280 N   0  0  0  0  0  0  0  0  0  0  0  0
  161.7660  208.4970  150.4400 C   0  0  0  0  0  2  0  0  0  0  0  0
  160.7760  207.5120  150.4940 O   0  0  0  0  0  0  0  0  0  0  0  0
  161.3370  206.4920  151.2640 C   0  0  0  0  0  2  0  0  0  0  0  0
  161.3570  205.2340  146.8810 C   0  0  0  0  0  2  0  0  0  0  0  0
  161.7790  205.7910  148.2510 C   0  0  0  0  0  2  0  0  0  0  0  0
  160.5660  203.0250  150.2850 N   0  0  0  0  0  0  0  0  0  0  0  0
  161.3260  204.9030  149.3180 N   0  0  0  0  0  0  0  0  0  0  0  0
  161.0530  202.9920  147.8780 N   0  0  0  0  0  2  0  0  0  0  0  0
  161.1300  205.1550  150.6190 C   0  0  0  0  0  0  0  0  0  0  0  0
  161.0060  203.6170  149.1570 C   0  0  0  0  0  0  0  0  0  0  0  0
  160.6460  204.0010  151.2220 C   0  0  0  0  0  3  0  0  0  0  0  0
  161.6610  203.7290  146.7690 C   0  0  1  0  0  3  0  0  0  0  0  0
  160.7000  201.8650  145.6240 O   0  0  0  0  0  1  0  0  0  0  0  0
  161.1440  203.1790  145.4530 C   0  0  0  0  0  2  0  0  0  0  0  0
  1 43  1  6  0  0  0
  1 27  1  0  0  0  0
  3  6  1  0  0  0  0
  4  2  2  0  0  0  0
  4  8  1  0  0  0  0
  5  7  2  0  0  0  0
  6  8  1  0  0  0  0
  6  1  1  1  0  0  0
  7  4  1  0  0  0  0
  9 10  1  0  0  0  0
  9  3  1  0  0  0  0
 10 11  1  6  0  0  0
 10  7  1  0  0  0  0
 12 11  1  0  0  0  0
 13 14  1  6  0  0  0
 13 12  1  0  0  0  0
 15 17  1  0  0  0  0
 15 13  1  0  0  0  0
 16 15  1  0  0  0  0
 18 15  1  0  0  0  0
 19 21  2  0  0  0  0
 20 21  2  0  0  0  0
 21 18  1  0  0  0  0
 22 25  1  0  0  0  0
 23 22  1  0  0  0  0
 24 23  1  0  0  0  0
 24 26  1  0  0  0  0
 25 21  1  6  0  0  0
 26 25  1  0  0  0  0
 28 27  1  6  0  0  0
 28 30  1  0  0  0  0
 30 31  2  0  0  0  0
 30 39  1  0  0  0  0
 32 29  1  6  0  0  0
 33 29  1  0  0  0  0
 36 34  1  6  0  0  0
 36 37  1  0  0  0  0
 37 34  1  6  0  0  0
 37 33  1  0  0  0  0
 37 32  1  0  0  0  0
 39 38  1  0  0  0  0
 40 32  1  0  0  0  0
 41 35  1  6  0  0  0
 41 36  1  0  0  0  0
 41 39  1  0  0  0  0
 41 40  1  0  0  0  0
 42 28  1  0  0  0  0
 42 35  2  0  0  0  0
 43 44  1  0  0  0  0
 44 45  1  0  0  0  0
 46 47  1  0  0  0  0
 47 49  1  0  0  0  0
 48 53  1  0  0  0  0
 49 51  1  0  0  0  0
 50 52  1  0  0  0  0
 51 53  2  0  0  0  0
 51 45  1  0  0  0  0
 52 49  1  0  0  0  0
 52 48  2  0  0  0  0
 54 56  1  6  0  0  0
 54 46  1  0  0  0  0
 54 50  1  0  0  0  0
 56 55  1  0  0  0  0
M  END
>  <MODEL>
1

>  <REMARK>
 VINA RESULT:      -7.1      0.000      0.000
  Name = 
  15 active torsions:
  status: ('A' for Active; 'I' for Inactive)
    1  A    between atoms: C_2  and  C_11
    2  A    between atoms: C_2  and  N_25
    3  A    between atoms: N_3  and  C_11
    4  A    between atoms: N_3  and  S_47
    5  A    between atoms: C_5  and  S_19
    6  A    between atoms: S_19  and  C_35
    7  A    between atoms: C_21  and  C_35
    8  A    between atoms: C_24  and  C_35
    9  A    between atoms: C_24  and  O_52
   10  A    between atoms: N_25  and  C_27
   11  A    between atoms: C_27  and  C_49
   12  A    between atoms: C_28  and  S_47
   13  A    between atoms: C_32  and  CA_53
   14  A    between atoms: C_40  and  C_51
   15  A    between atoms: C_51  and  O_52
                            x       y       z     vdW  Elec       q    Type
                         _______ _______ _______ _____ _____    ______ ____

>  <TORSDO>
F 15

$$$$
=
 OpenBabel11052409533D

 56 63  0  0  1  0  0  0  0  0999 V2000
  162.2100  210.4000  149.1310 C   0  0  2  0  0  3  0  0  0  0  0  0
  161.7300  206.5970  151.5530 O   0  0  0  0  0  0  0  0  0  0  0  0
  161.6600  211.0320  151.5010 C   0  0  0  0  0  2  0  0  0  0  0  0
  161.7820  207.8150  151.8730 C   0  0  0  0  0  0  0  0  0  0  0  0
  160.2130  207.5280  153.6100 O   0  0  0  0  0  0  0  0  0  0  0  0
  161.7480  209.8900  150.4980 C   0  0  2  0  0  3  0  0  0  0  0  0
  161.0480  208.2940  153.0580 C   0  0  0  0  0  0  0  0  0  0  0  0
  162.6020  208.7430  151.0350 C   0  0  0  0  0  2  0  0  0  0  0  0
  160.6800  210.7140  152.6230 C   0  0  0  0  0  2  0  0  0  0  0  0
  161.2660  209.6910  153.5840 C   0  0  1  0  0  3  0  0  0  0  0  0
  160.6430  209.8960  154.9580 C   0  0  0  0  0  2  0  0  0  0  0  0
  160.6720  211.3060  155.3200 N   0  0  0  0  0  2  0  0  0  0  0  0
  159.3320  211.6570  155.7720 C   0  0  1  0  0  3  0  0  0  0  0  0
  159.3720  211.9890  157.2560 C   0  0  0  0  0  1  0  0  0  0  0  0
  158.7060  212.7820  154.9170 C   0  0  0  0  0  0  0  0  0  0  0  0
  159.7390  213.2510  153.9070 C   0  0  0  0  0  1  0  0  0  0  0  0
  158.3530  213.9990  155.7760 C   0  0  0  0  0  1  0  0  0  0  0  0
  157.5770  212.2350  154.1390 N   0  0  0  0  0  2  0  0  0  0  0  0
  156.0680  214.1210  155.2490 O   0  0  0  0  0  0  0  0  0  0  0  0
  154.8940  212.3640  154.0050 O   0  0  0  0  0  0  0  0  0  0  0  0
  156.1330  213.2170  154.0520 S   0  0  0  0  0  0  0  0  0  0  0  0
  157.1640  213.6900  151.6900 O   0  0  0  0  0  0  0  0  0  0  0  0
  156.6590  213.8900  150.3910 C   0  0  0  0  0  2  0  0  0  0  0  0
  155.2520  214.4420  150.4650 C   0  0  0  0  0  2  0  0  0  0  0  0
  156.2110  214.2180  152.5800 C   0  0  1  0  0  3  0  0  0  0  0  0
  154.8730  214.2350  151.8920 C   0  0  0  0  0  2  0  0  0  0  0  0
  161.8590  212.1800  148.9110 S   0  0  0  0  0  0  0  0  0  0  0  0
  161.5690  212.0690  147.1050 C   0  0  2  0  0  3  0  0  0  0  0  0
  159.4660  214.2190  141.5360 C   0  0  0  0  0  2  0  0  0  0  0  0
  162.5390  212.9220  146.3280 C   0  0  0  0  0  0  0  0  0  0  0  0
  163.7420  213.0130  146.6980 O   0  0  0  0  0  0  0  0  0  0  0  0
  160.6240  213.9880  142.4710 C   0  0  2  0  0  3  0  0  0  0  0  0
  159.4640  212.7410  141.2300 C   0  0  0  0  0  2  0  0  0  0  0  0
  159.6670  211.5900  143.0760 C   0  0  0  0  0  2  0  0  0  0  0  0
  159.8100  212.9280  145.6850 C   0  0  0  0  0  3  0  0  0  0  0  0
  160.9330  211.9950  143.6530 C   0  0  1  0  0  3  0  0  0  0  0  0
  160.6030  212.4780  142.2160 C   0  0  2  0  0  0  0  0  0  0  0  0
  163.0310  214.4110  144.3860 C   0  0  0  0  0  1  0  0  0  0  0  0
  162.0940  213.5730  145.1290 N   0  0  0  0  0  0  0  0  0  0  0  0
  160.2690  214.2780  143.7980 O   0  0  0  0  0  0  0  0  0  0  0  0
  160.7810  213.2180  144.5620 C   0  0  2  0  0  0  0  0  0  0  0  0
  160.1920  212.4160  146.8060 N   0  0  0  0  0  0  0  0  0  0  0  0
  161.7300  209.5640  147.9470 C   0  0  0  0  0  2  0  0  0  0  0  0
  161.3970  208.2660  148.3440 O   0  0  0  0  0  0  0  0  0  0  0  0
  161.8510  207.4540  147.3030 C   0  0  0  0  0  2  0  0  0  0  0  0
  160.3480  203.9670  144.7760 C   0  0  0  0  0  2  0  0  0  0  0  0
  161.1710  205.1600  145.2920 C   0  0  0  0  0  2  0  0  0  0  0  0
  161.4310  204.0980  148.7640 N   0  0  0  0  0  0  0  0  0  0  0  0
  161.3630  205.0550  146.7340 N   0  0  0  0  0  0  0  0  0  0  0  0
  160.9070  202.6920  146.8200 N   0  0  0  0  0  2  0  0  0  0  0  0
  161.6620  206.0040  147.6320 C   0  0  0  0  0  0  0  0  0  0  0  0
  161.2590  203.9260  147.4390 C   0  0  0  0  0  0  0  0  0  0  0  0
  161.6930  205.4210  148.8940 C   0  0  0  0  0  3  0  0  0  0  0  0
  160.8640  202.6380  145.3580 C   0  0  1  0  0  3  0  0  0  0  0  0
  160.4760  200.2810  145.4210 O   0  0  0  0  0  1  0  0  0  0  0  0
  159.9780  201.4870  144.9210 C   0  0  0  0  0  2  0  0  0  0  0  0
  1 43  1  6  0  0  0
  2  4  2  0  0  0  0
  3  9  1  0  0  0  0
  4  7  1  0  0  0  0
  6  1  1  6  0  0  0
  6  8  1  0  0  0  0
  6  3  1  0  0  0  0
  7 10  1  0  0  0  0
  7  5  2  0  0  0  0
  8  4  1  0  0  0  0
  9 10  1  0  0  0  0
 10 11  1  1  0  0  0
 11 12  1  0  0  0  0
 12 13  1  0  0  0  0
 13 14  1  1  0  0  0
 15 13  1  0  0  0  0
 15 17  1  0  0  0  0
 16 15  1  0  0  0  0
 18 15  1  0  0  0  0
 20 21  2  0  0  0  0
 21 18  1  0  0  0  0
 21 19  2  0  0  0  0
 22 25  1  0  0  0  0
 23 24  1  0  0  0  0
 23 22  1  0  0  0  0
 24 26  1  0  0  0  0
 25 21  1  1  0  0  0
 26 25  1  0  0  0  0
 27  1  1  0  0  0  0
 28 27  1  1  0  0  0
 30 31  2  0  0  0  0
 30 28  1  0  0  0  0
 32 29  1  6  0  0  0
 32 40  1  0  0  0  0
 33 29  1  0  0  0  0
 35 42  2  0  0  0  0
 36 34  1  1  0  0  0
 36 41  1  0  0  0  0
 37 33  1  6  0  0  0
 37 32  1  0  0  0  0
 37 34  1  0  0  0  0
 37 36  1  0  0  0  0
 38 39  1  0  0  0  0
 39 30  1  0  0  0  0
 40 41  1  0  0  0  0
 41 39  1  0  0  0  0
 41 35  1  1  0  0  0
 42 28  1  0  0  0  0
 43 44  1  0  0  0  0
 45 51  1  0  0  0  0
 45 44  1  0  0  0  0
 46 47  1  0  0  0  0
 46 54  1  0  0  0  0
 47 49  1  0  0  0  0
 48 53  1  0  0  0  0
 49 52  1  0  0  0  0
 49 51  1  0  0  0  0
 50 52  1  0  0  0  0
 51 53  2  0  0  0  0
 52 48  2  0  0  0  0
 54 56  1  1  0  0  0
 54 50  1  0  0  0  0
 56 55  1  0  0  0  0
M  END
>  <MODEL>
2

>  <REMARK>
 VINA RESULT:      -5.5      2.596      9.636
  Name = 
  15 active torsions:
  status: ('A' for Active; 'I' for Inactive)
    1  A    between atoms: C_2  and  C_11
    2  A    between atoms: C_2  and  N_25
    3  A    between atoms: N_3  and  C_11
    4  A    between atoms: N_3  and  S_47
    5  A    between atoms: C_5  and  S_19
    6  A    between atoms: S_19  and  C_35
    7  A    between atoms: C_21  and  C_35
    8  A    between atoms: C_24  and  C_35
    9  A    between atoms: C_24  and  O_52
   10  A    between atoms: N_25  and  C_27
   11  A    between atoms: C_27  and  C_49
   12  A    between atoms: C_28  and  S_47
   13  A    between atoms: C_32  and  CA_53
   14  A    between atoms: C_40  and  C_51
   15  A    between atoms: C_51  and  O_52
                            x       y       z     vdW  Elec       q    Type
                         _______ _______ _______ _____ _____    ______ ____

>  <TORSDO>
F 15

$$$$
=
 OpenBabel11052409533D

 56 63  0  0  1  0  0  0  0  0999 V2000
  161.3900  209.7390  149.5470 C   0  0  2  0  0  3  0  0  0  0  0  0
  163.3800  206.0250  151.2230 O   0  0  0  0  0  0  0  0  0  0  0  0
  160.6470  209.4470  151.9320 C   0  0  0  0  0  2  0  0  0  0  0  0
  162.6970  206.9430  151.7520 C   0  0  0  0  0  0  0  0  0  0  0  0
  161.6770  205.4490  153.2650 O   0  0  0  0  0  0  0  0  0  0  0  0
  161.3740  208.8030  150.7590 C   0  0  2  0  0  3  0  0  0  0  0  0
  161.8620  206.6500  152.9310 C   0  0  0  0  0  0  0  0  0  0  0  0
  162.7640  208.3170  151.1650 C   0  0  0  0  0  2  0  0  0  0  0  0
  160.0950  208.3990  152.8890 C   0  0  0  0  0  2  0  0  0  0  0  0
  161.2110  207.7670  153.7070 C   0  0  1  0  0  3  0  0  0  0  0  0
  160.6350  207.2900  155.0340 C   0  0  0  0  0  2  0  0  0  0  0  0
  159.7000  208.2740  155.5600 N   0  0  0  0  0  2  0  0  0  0  0  0
  160.4430  209.1060  156.5000 C   0  0  1  0  0  3  0  0  0  0  0  0
  161.8220  208.5040  156.7220 C   0  0  0  0  0  1  0  0  0  0  0  0
  160.4930  210.5850  156.0540 C   0  0  0  0  0  0  0  0  0  0  0  0
  161.7780  210.8080  155.2740 C   0  0  0  0  0  1  0  0  0  0  0  0
  160.5470  211.5260  157.2600 C   0  0  0  0  0  1  0  0  0  0  0  0
  159.3830  210.8520  155.1190 N   0  0  0  0  0  2  0  0  0  0  0  0
  159.3540  213.4910  155.4300 O   0  0  0  0  0  0  0  0  0  0  0  0
  157.6980  212.2150  156.7100 O   0  0  0  0  0  0  0  0  0  0  0  0
  158.4430  212.2980  155.4060 S   0  0  0  0  0  0  0  0  0  0  0  0
  156.0200  212.8700  154.5900 O   0  0  0  0  0  0  0  0  0  0  0  0
  155.4540  213.7650  153.6610 C   0  0  0  0  0  2  0  0  0  0  0  0
  156.4580  214.0840  152.5760 C   0  0  0  0  0  2  0  0  0  0  0  0
  157.2750  212.4940  154.0760 C   0  0  1  0  0  3  0  0  0  0  0  0
  157.7420  213.5650  153.1280 C   0  0  0  0  0  2  0  0  0  0  0  0
  161.8020  208.8520  148.0030 S   0  0  0  0  0  0  0  0  0  0  0  0
  161.7660  207.1820  148.7580 C   0  0  2  0  0  3  0  0  0  0  0  0
  159.6030  201.2670  149.3840 C   0  0  0  0  0  2  0  0  0  0  0  0
  162.4210  206.1530  147.8740 C   0  0  0  0  0  0  0  0  0  0  0  0
  163.4560  206.4480  147.2150 O   0  0  0  0  0  0  0  0  0  0  0  0
  160.6590  202.2010  148.8530 C   0  0  2  0  0  3  0  0  0  0  0  0
  160.1870  201.4480  150.7640 C   0  0  0  0  0  2  0  0  0  0  0  0
  160.6130  203.5600  151.1310 C   0  0  0  0  0  2  0  0  0  0  0  0
  159.9710  205.6030  149.1220 C   0  0  0  0  0  3  0  0  0  0  0  0
  161.5670  203.9490  150.1120 C   0  0  1  0  0  3  0  0  0  0  0  0
  161.2320  202.4410  150.2530 C   0  0  2  0  0  0  0  0  0  0  0  0
  162.5180  203.8270  146.9730 C   0  0  0  0  0  1  0  0  0  0  0  0
  161.8920  204.8190  147.8410 N   0  0  0  0  0  0  0  0  0  0  0  0
  160.0850  203.3740  148.3380 O   0  0  0  0  0  0  0  0  0  0  0  0
  160.8740  204.4240  148.8320 C   0  0  2  0  0  0  0  0  0  0  0  0
  160.3980  206.8200  149.0810 N   0  0  0  0  0  0  0  0  0  0  0  0
  162.2290  211.0010  149.7330 C   0  0  0  0  0  2  0  0  0  0  0  0
  161.4560  212.1530  149.5640 O   0  0  0  0  0  0  0  0  0  0  0  0
  162.0620  212.8300  148.5030 C   0  0  0  0  0  2  0  0  0  0  0  0
  163.1420  213.4850  144.1210 C   0  0  0  0  0  2  0  0  0  0  0  0
  163.1140  212.9490  145.5630 C   0  0  0  0  0  2  0  0  0  0  0  0
  159.5050  212.5760  145.8640 N   0  0  0  0  0  0  0  0  0  0  0  0
  161.7360  212.7830  146.0120 N   0  0  0  0  0  0  0  0  0  0  0  0
  160.8110  212.7330  143.7890 N   0  0  0  0  0  2  0  0  0  0  0  0
  161.2400  212.7180  147.2550 C   0  0  0  0  0  0  0  0  0  0  0  0
  160.6770  212.6680  145.2070 C   0  0  0  0  0  0  0  0  0  0  0  0
  159.8570  212.6040  147.1720 C   0  0  0  0  0  3  0  0  0  0  0  0
  162.1580  212.7180  143.2190 C   0  0  1  0  0  3  0  0  0  0  0  0
  161.8490  212.3410  140.8800 O   0  0  0  0  0  1  0  0  0  0  0  0
  162.1260  213.3280  141.8300 C   0  0  0  0  0  2  0  0  0  0  0  0
  1 43  1  1  0  0  0
  2  4  2  0  0  0  0
  3  9  1  0  0  0  0
  4  7  1  0  0  0  0
  6  1  1  6  0  0  0
  6  8  1  0  0  0  0
  6  3  1  0  0  0  0
  7  5  2  0  0  0  0
  7 10  1  0  0  0  0
  8  4  1  0  0  0  0
  9 10  1  0  0  0  0
 10 11  1  1  0  0  0
 11 12  1  0  0  0  0
 12 13  1  0  0  0  0
 13 14  1  6  0  0  0
 15 13  1  0  0  0  0
 15 17  1  0  0  0  0
 16 15  1  0  0  0  0
 18 21  1  0  0  0  0
 18 15  1  0  0  0  0
 21 19  2  0  0  0  0
 21 20  2  0  0  0  0
 23 22  1  0  0  0  0
 24 26  1  0  0  0  0
 24 23  1  0  0  0  0
 25 22  1  0  0  0  0
 25 21  1  1  0  0  0
 26 25  1  0  0  0  0
 27  1  1  0  0  0  0
 28 27  1  6  0  0  0
 28 42  1  0  0  0  0
 29 33  1  0  0  0  0
 30 28  1  0  0  0  0
 31 30  2  0  0  0  0
 32 29  1  1  0  0  0
 32 37  1  0  0  0  0
 36 37  1  0  0  0  0
 36 34  1  1  0  0  0
 37 33  1  1  0  0  0
 37 34  1  0  0  0  0
 38 39  1  0  0  0  0
 39 30  1  0  0  0  0
 39 41  1  0  0  0  0
 40 41  1  0  0  0  0
 40 32  1  0  0  0  0
 41 35  1  1  0  0  0
 41 36  1  0  0  0  0
 42 35  2  0  0  0  0
 44 43  1  0  0  0  0
 45 44  1  0  0  0  0
 46 47  1  0  0  0  0
 47 49  1  0  0  0  0
 48 53  1  0  0  0  0
 49 51  1  0  0  0  0
 50 52  1  0  0  0  0
 51 45  1  0  0  0  0
 52 48  2  0  0  0  0
 52 49  1  0  0  0  0
 53 51  2  0  0  0  0
 54 56  1  6  0  0  0
 54 50  1  0  0  0  0
 54 46  1  0  0  0  0
 55 56  1  0  0  0  0
M  END
>  <MODEL>
3

>  <REMARK>
 VINA RESULT:      -4.7      2.528     10.707
  Name = 
  15 active torsions:
  status: ('A' for Active; 'I' for Inactive)
    1  A    between atoms: C_2  and  C_11
    2  A    between atoms: C_2  and  N_25
    3  A    between atoms: N_3  and  C_11
    4  A    between atoms: N_3  and  S_47
    5  A    between atoms: C_5  and  S_19
    6  A    between atoms: S_19  and  C_35
    7  A    between atoms: C_21  and  C_35
    8  A    between atoms: C_24  and  C_35
    9  A    between atoms: C_24  and  O_52
   10  A    between atoms: N_25  and  C_27
   11  A    between atoms: C_27  and  C_49
   12  A    between atoms: C_28  and  S_47
   13  A    between atoms: C_32  and  CA_53
   14  A    between atoms: C_40  and  C_51
   15  A    between atoms: C_51  and  O_52
                            x       y       z     vdW  Elec       q    Type
                         _______ _______ _______ _____ _____    ______ ____

>  <TORSDO>
F 15

$$$$
