=
 OpenBabel11052410543D

 30 31  0  0  1  0  0  0  0  0999 V2000
  161.1340  206.2970  150.1890 C   0  0  0  0  0  3  0  0  0  0  0  0
  161.1690  205.0800  150.7530 C   0  0  0  0  0  0  0  0  0  0  0  0
  161.0490  203.8170  149.9940 C   0  0  0  0  0  0  0  0  0  0  0  0
  161.2140  203.7990  148.6030 C   0  0  0  0  0  3  0  0  0  0  0  0
  160.7630  201.4200  149.9460 C   0  0  0  0  0  3  0  0  0  0  0  0
  161.1250  202.5880  147.9140 C   0  0  0  0  0  0  0  0  0  0  0  0
  160.9050  201.4330  148.5950 N   0  0  0  0  0  0  0  0  0  0  0  0
  160.8370  202.6120  150.6710 C   0  0  0  0  0  3  0  0  0  0  0  0
  161.3120  202.5580  146.4390 C   0  0  0  0  0  2  0  0  0  0  0  0
  160.6830  204.3610  144.6580 C   0  0  0  0  0  1  0  0  0  0  0  0
  162.0100  204.1300  145.8680 S   0  0  0  0  0  0  0  0  0  0  0  0
  159.7240  206.3590  148.2610 O   0  0  0  0  0  0  0  0  0  0  0  0
  160.8410  206.6210  148.7820 C   0  0  0  0  0  0  0  0  0  0  0  0
  161.8580  207.3630  147.9890 C   0  0  0  0  0  2  0  0  0  0  0  0
  162.5350  208.4050  148.8630 C   0  0  0  0  0  2  0  0  0  0  0  0
  161.5830  212.1140  148.9140 N   0  0  0  0  0  2  0  0  0  0  0  0
  161.9710  210.8180  149.3730 C   0  0  0  0  0  0  0  0  0  0  0  0
  162.1560  210.6320  150.6050 O   0  0  0  0  0  0  0  0  0  0  0  0
  162.1350  209.7410  148.4460 N   0  0  0  0  0  2  0  0  0  0  0  0
  161.3050  212.3990  147.5150 C   0  0  1  0  0  3  0  0  0  0  0  0
  160.1970  213.2400  147.4170 O   0  0  0  0  0  1  0  0  0  0  0  0
  162.5040  213.0820  146.8960 C   0  0  0  0  0  1  0  0  0  0  0  0
  161.3670  205.0120  152.2330 C   0  0  0  0  0  2  0  0  0  0  0  0
  161.8850  206.2480  152.7240 O   0  0  0  0  0  0  0  0  0  0  0  0
  160.5500  206.6170  154.6630 C   0  0  0  0  0  1  0  0  0  0  0  0
  161.1840  207.0960  153.5900 C   0  0  0  0  0  0  0  0  0  0  0  0
  161.1380  208.4920  153.2840 N   0  0  0  0  0  0  0  0  0  0  0  0
  160.6190  209.5020  154.1960 C   0  0  0  0  0  3  0  0  0  0  0  0
  161.3530  210.8080  153.9690 C   0  0  0  0  0  2  0  0  0  0  0  0
  159.9670  210.6050  153.3920 C   0  0  0  0  0  2  0  0  0  0  0  0
  1  2  2  0  0  0  0
  2 23  1  0  0  0  0
  3  8  1  0  0  0  0
  3  2  1  0  0  0  0
  4  3  2  0  0  0  0
  5  8  2  0  0  0  0
  6  7  2  0  0  0  0
  6  4  1  0  0  0  0
  7  5  1  0  0  0  0
  9  6  1  0  0  0  0
 10 11  1  0  0  0  0
 11  9  1  0  0  0  0
 12 13  2  0  0  0  0
 13  1  1  0  0  0  0
 14 13  1  0  0  0  0
 14 15  1  0  0  0  0
 16 17  1  0  0  0  0
 17 18  2  0  0  0  0
 19 15  1  0  0  0  0
 19 17  1  0  0  0  0
 20 22  1  1  0  0  0
 20 16  1  0  0  0  0
 21 20  1  0  0  0  0
 23 24  1  0  0  0  0
 24 26  1  0  0  0  0
 26 25  1  0  0  0  0
 27 26  2  0  0  0  0
 27 28  1  0  0  0  0
 29 28  1  0  0  0  0
 30 29  1  0  0  0  0
 30 28  1  0  0  0  0
M  END
>  <MODEL>
1

>  <REMARK>
 VINA RESULT:      -7.1      0.000      0.000
  Name = 
  13 active torsions:
  status: ('A' for Active; 'I' for Inactive)
    1  A    between atoms: C_1  and  N_29
    2  A    between atoms: C_2  and  N_3
    3  A    between atoms: C_5  and  C_18
    4  A    between atoms: S_12  and  C_17
    5  A    between atoms: C_13  and  C_14
    6  A    between atoms: C_13  and  C_26
    7  A    between atoms: C_14  and  N_24
    8  A    between atoms: C_15  and  C_26
    9  A    between atoms: C_17  and  C_19
   10  A    between atoms: C_18  and  C_25
   11  A    between atoms: C_25  and  O_30
   12  A    between atoms: C_27  and  N_29
   13  A    between atoms: C_27  and  O_30
                            x       y       z     vdW  Elec       q    Type
                         _______ _______ _______ _____ _____    ______ ____

>  <TORSDO>
F 13

$$$$
=
 OpenBabel11052410543D

 30 31  0  0  1  0  0  0  0  0999 V2000
  161.4380  205.5800  150.4350 C   0  0  0  0  0  3  0  0  0  0  0  0
  161.1910  206.5970  149.5970 C   0  0  0  0  0  0  0  0  0  0  0  0
  161.4610  208.0140  149.9180 C   0  0  0  0  0  0  0  0  0  0  0  0
  161.8350  208.9170  148.9140 C   0  0  0  0  0  3  0  0  0  0  0  0
  161.4980  209.8330  151.5060 C   0  0  0  0  0  3  0  0  0  0  0  0
  162.0550  210.2570  149.2390 C   0  0  0  0  0  0  0  0  0  0  0  0
  161.8810  210.6840  150.5180 N   0  0  0  0  0  0  0  0  0  0  0  0
  161.2750  208.4830  151.2220 C   0  0  0  0  0  3  0  0  0  0  0  0
  162.4390  211.2260  148.1780 C   0  0  0  0  0  2  0  0  0  0  0  0
  162.7780  213.7930  147.8390 C   0  0  0  0  0  1  0  0  0  0  0  0
  161.3980  212.7060  148.2830 S   0  0  0  0  0  0  0  0  0  0  0  0
  163.0840  205.8730  152.1410 O   0  0  0  0  0  0  0  0  0  0  0  0
  161.8790  205.6660  151.8380 C   0  0  0  0  0  0  0  0  0  0  0  0
  160.8580  205.6020  152.9180 C   0  0  0  0  0  2  0  0  0  0  0  0
  161.4330  206.1630  154.2070 C   0  0  0  0  0  2  0  0  0  0  0  0
  159.6950  209.1290  155.8960 N   0  0  0  0  0  2  0  0  0  0  0  0
  160.2160  207.8150  155.6880 C   0  0  0  0  0  0  0  0  0  0  0  0
  160.0730  206.9470  156.5900 O   0  0  0  0  0  0  0  0  0  0  0  0
  160.8800  207.4850  154.4640 N   0  0  0  0  0  2  0  0  0  0  0  0
  159.7780  210.1740  154.8870 C   0  0  1  0  0  3  0  0  0  0  0  0
  158.6600  211.0030  154.9750 O   0  0  0  0  0  1  0  0  0  0  0  0
  161.0260  210.9960  155.1190 C   0  0  0  0  0  1  0  0  0  0  0  0
  160.6310  206.2610  148.2520 C   0  0  0  0  0  2  0  0  0  0  0  0
  161.6400  205.6860  147.4220 O   0  0  0  0  0  0  0  0  0  0  0  0
  161.3630  204.2140  145.5680 C   0  0  0  0  0  2  0  0  0  0  0  0
  161.5590  204.3990  146.8770 C   0  0  0  0  0  0  0  0  0  0  0  0
  161.6650  203.2790  147.7590 N   0  0  0  0  0  2  0  0  0  0  0  0
  160.7540  202.1420  147.7350 C   0  0  0  0  0  3  0  0  0  0  0  0
  161.3260  201.0220  148.5790 C   0  0  0  0  0  2  0  0  0  0  0  0
  160.2250  201.9040  149.1310 C   0  0  0  0  0  2  0  0  0  0  0  0
  1 13  1  0  0  0  0
  2  3  1  0  0  0  0
  2  1  2  0  0  0  0
  3  8  1  0  0  0  0
  4  6  1  0  0  0  0
  4  3  2  0  0  0  0
  6  7  2  0  0  0  0
  7  5  1  0  0  0  0
  8  5  2  0  0  0  0
  9 11  1  0  0  0  0
  9  6  1  0  0  0  0
 10 11  1  0  0  0  0
 13 12  2  0  0  0  0
 13 14  1  0  0  0  0
 14 15  1  0  0  0  0
 15 19  1  0  0  0  0
 17 16  1  0  0  0  0
 17 18  2  0  0  0  0
 19 17  1  0  0  0  0
 20 21  1  0  0  0  0
 20 22  1  1  0  0  0
 20 16  1  0  0  0  0
 23  2  1  0  0  0  0
 24 23  1  0  0  0  0
 25 26  2  0  0  0  0
 26 24  1  0  0  0  0
 26 27  1  0  0  0  0
 28 27  1  0  0  0  0
 28 29  1  0  0  0  0
 28 30  1  0  0  0  0
 29 30  1  0  0  0  0
M  END
>  <MODEL>
2

>  <REMARK>
 VINA RESULT:      -6.8      2.723      7.402
  Name = 
  13 active torsions:
  status: ('A' for Active; 'I' for Inactive)
    1  A    between atoms: C_1  and  N_29
    2  A    between atoms: C_2  and  N_3
    3  A    between atoms: C_5  and  C_18
    4  A    between atoms: S_12  and  C_17
    5  A    between atoms: C_13  and  C_14
    6  A    between atoms: C_13  and  C_26
    7  A    between atoms: C_14  and  N_24
    8  A    between atoms: C_15  and  C_26
    9  A    between atoms: C_17  and  C_19
   10  A    between atoms: C_18  and  C_25
   11  A    between atoms: C_25  and  O_30
   12  A    between atoms: C_27  and  N_29
   13  A    between atoms: C_27  and  O_30
                            x       y       z     vdW  Elec       q    Type
                         _______ _______ _______ _____ _____    ______ ____

>  <TORSDO>
F 13

$$$$
=
 OpenBabel11052410543D

 30 31  0  0  1  0  0  0  0  0999 V2000
  161.0850  205.7840  152.7640 C   0  0  0  0  0  3  0  0  0  0  0  0
  161.1190  207.1040  152.5300 C   0  0  0  0  0  0  0  0  0  0  0  0
  161.3350  207.6990  151.1950 C   0  0  0  0  0  0  0  0  0  0  0  0
  161.6880  209.0480  151.0610 C   0  0  0  0  0  3  0  0  0  0  0  0
  161.5010  207.4640  148.7980 C   0  0  0  0  0  3  0  0  0  0  0  0
  161.9160  209.5780  149.7890 C   0  0  0  0  0  0  0  0  0  0  0  0
  161.8210  208.7810  148.6940 N   0  0  0  0  0  0  0  0  0  0  0  0
  161.2580  206.8980  150.0510 C   0  0  0  0  0  3  0  0  0  0  0  0
  162.3050  211.0060  149.6380 C   0  0  0  0  0  2  0  0  0  0  0  0
  163.1480  212.5780  147.7310 C   0  0  0  0  0  1  0  0  0  0  0  0
  161.6210  211.6760  148.0990 S   0  0  0  0  0  0  0  0  0  0  0  0
  162.5340  204.2010  151.7140 O   0  0  0  0  0  0  0  0  0  0  0  0
  161.3810  204.7000  151.8110 C   0  0  0  0  0  0  0  0  0  0  0  0
  160.2670  204.1180  151.0150 C   0  0  0  0  0  2  0  0  0  0  0  0
  160.7970  203.0200  150.1110 C   0  0  0  0  0  2  0  0  0  0  0  0
  161.4730  203.3320  146.3540 N   0  0  0  0  0  2  0  0  0  0  0  0
  161.1690  202.7500  147.6220 C   0  0  0  0  0  0  0  0  0  0  0  0
  160.9660  201.5090  147.6960 O   0  0  0  0  0  0  0  0  0  0  0  0
  161.1100  203.5640  148.7970 N   0  0  0  0  0  2  0  0  0  0  0  0
  161.7660  204.7480  146.1910 C   0  0  1  0  0  3  0  0  0  0  0  0
  163.1420  204.9320  146.0540 O   0  0  0  0  0  1  0  0  0  0  0  0
  161.0690  205.2630  144.9520 C   0  0  0  0  0  1  0  0  0  0  0  0
  160.8990  208.0160  153.6950 C   0  0  0  0  0  2  0  0  0  0  0  0
  161.1030  207.3160  154.9210 O   0  0  0  0  0  0  0  0  0  0  0  0
  160.0910  207.1040  157.0680 C   0  0  0  0  0  2  0  0  0  0  0  0
  160.7700  207.8340  156.1780 C   0  0  0  0  0  0  0  0  0  0  0  0
  161.1480  209.1790  156.4820 N   0  0  0  0  0  2  0  0  0  0  0  0
  160.2080  210.2050  156.9150 C   0  0  0  0  0  3  0  0  0  0  0  0
  160.3510  211.4230  156.0280 C   0  0  0  0  0  2  0  0  0  0  0  0
  159.2070  210.4550  155.8100 C   0  0  0  0  0  2  0  0  0  0  0  0
  2  1  2  0  0  0  0
  2 23  1  0  0  0  0
  3  2  1  0  0  0  0
  4  3  1  0  0  0  0
  5  8  1  0  0  0  0
  6  4  2  0  0  0  0
  7  5  2  0  0  0  0
  7  6  1  0  0  0  0
  8  3  2  0  0  0  0
  9  6  1  0  0  0  0
 10 11  1  0  0  0  0
 11  9  1  0  0  0  0
 12 13  2  0  0  0  0
 13  1  1  0  0  0  0
 14 13  1  0  0  0  0
 15 14  1  0  0  0  0
 16 17  1  0  0  0  0
 17 18  2  0  0  0  0
 17 19  1  0  0  0  0
 19 15  1  0  0  0  0
 20 22  1  6  0  0  0
 20 16  1  0  0  0  0
 21 20  1  0  0  0  0
 23 24  1  0  0  0  0
 24 26  1  0  0  0  0
 26 27  1  0  0  0  0
 26 25  2  0  0  0  0
 27 28  1  0  0  0  0
 29 28  1  0  0  0  0
 30 29  1  0  0  0  0
 30 28  1  0  0  0  0
M  END
>  <MODEL>
3

>  <REMARK>
 VINA RESULT:      -6.7      2.956      6.070
  Name = 
  13 active torsions:
  status: ('A' for Active; 'I' for Inactive)
    1  A    between atoms: C_1  and  N_29
    2  A    between atoms: C_2  and  N_3
    3  A    between atoms: C_5  and  C_18
    4  A    between atoms: S_12  and  C_17
    5  A    between atoms: C_13  and  C_14
    6  A    between atoms: C_13  and  C_26
    7  A    between atoms: C_14  and  N_24
    8  A    between atoms: C_15  and  C_26
    9  A    between atoms: C_17  and  C_19
   10  A    between atoms: C_18  and  C_25
   11  A    between atoms: C_25  and  O_30
   12  A    between atoms: C_27  and  N_29
   13  A    between atoms: C_27  and  O_30
                            x       y       z     vdW  Elec       q    Type
                         _______ _______ _______ _____ _____    ______ ____

>  <TORSDO>
F 13

$$$$
=
 OpenBabel11052410543D

 30 31  0  0  1  0  0  0  0  0999 V2000
  161.3520  208.0460  149.2080 C   0  0  0  0  0  3  0  0  0  0  0  0
  160.9870  206.7840  149.4800 C   0  0  0  0  0  0  0  0  0  0  0  0
  161.0630  206.1770  150.8250 C   0  0  0  0  0  0  0  0  0  0  0  0
  161.0300  206.9780  151.9750 C   0  0  0  0  0  3  0  0  0  0  0  0
  161.1290  204.2230  152.2420 C   0  0  0  0  0  3  0  0  0  0  0  0
  161.0730  206.3770  153.2350 C   0  0  0  0  0  0  0  0  0  0  0  0
  161.1190  205.0230  153.3410 N   0  0  0  0  0  0  0  0  0  0  0  0
  161.0960  204.7860  150.9650 C   0  0  0  0  0  3  0  0  0  0  0  0
  161.0250  207.2180  154.4610 C   0  0  0  0  0  2  0  0  0  0  0  0
  160.1190  209.4000  155.5720 C   0  0  0  0  0  1  0  0  0  0  0  0
  160.9250  208.9700  154.0080 S   0  0  0  0  0  0  0  0  0  0  0  0
  162.9920  208.6740  150.8280 O   0  0  0  0  0  0  0  0  0  0  0  0
  162.0040  209.0040  150.1190 C   0  0  0  0  0  0  0  0  0  0  0  0
  161.5430  210.4180  150.1250 C   0  0  0  0  0  2  0  0  0  0  0  0
  162.3480  211.2280  149.1240 C   0  0  0  0  0  2  0  0  0  0  0  0
  160.9790  213.0200  146.0280 N   0  0  0  0  0  2  0  0  0  0  0  0
  161.8350  212.6890  147.1220 C   0  0  0  0  0  0  0  0  0  0  0  0
  162.8780  213.3700  147.3140 O   0  0  0  0  0  0  0  0  0  0  0  0
  161.5050  211.6080  147.9990 N   0  0  0  0  0  2  0  0  0  0  0  0
  159.7330  212.3150  145.7660 C   0  0  1  0  0  3  0  0  0  0  0  0
  158.7190  212.8360  146.5680 O   0  0  0  0  0  1  0  0  0  0  0  0
  159.3570  212.4880  144.3120 C   0  0  0  0  0  1  0  0  0  0  0  0
  160.4520  205.9630  148.3520 C   0  0  0  0  0  2  0  0  0  0  0  0
  161.5070  205.5770  147.4720 O   0  0  0  0  0  0  0  0  0  0  0  0
  161.9600  204.0090  145.7360 C   0  0  0  0  0  2  0  0  0  0  0  0
  161.7060  204.2670  147.0220 C   0  0  0  0  0  0  0  0  0  0  0  0
  161.6040  203.2000  147.9690 N   0  0  0  0  0  2  0  0  0  0  0  0
  160.7850  202.0120  147.7620 C   0  0  0  0  0  3  0  0  0  0  0  0
  161.2990  200.8900  148.6400 C   0  0  0  0  0  2  0  0  0  0  0  0
  160.0710  201.6750  149.0510 C   0  0  0  0  0  2  0  0  0  0  0  0
  1  2  2  0  0  0  0
  1 13  1  0  0  0  0
  2  3  1  0  0  0  0
  3  8  2  0  0  0  0
  3  4  1  0  0  0  0
  4  6  2  0  0  0  0
  5  7  2  0  0  0  0
  6  7  1  0  0  0  0
  6  9  1  0  0  0  0
  8  5  1  0  0  0  0
 11  9  1  0  0  0  0
 11 10  1  0  0  0  0
 13 14  1  0  0  0  0
 13 12  2  0  0  0  0
 15 14  1  0  0  0  0
 16 17  1  0  0  0  0
 17 18  2  0  0  0  0
 17 19  1  0  0  0  0
 19 15  1  0  0  0  0
 20 22  1  6  0  0  0
 20 16  1  0  0  0  0
 20 21  1  0  0  0  0
 23  2  1  0  0  0  0
 24 23  1  0  0  0  0
 25 26  2  0  0  0  0
 26 24  1  0  0  0  0
 26 27  1  0  0  0  0
 28 27  1  0  0  0  0
 28 29  1  0  0  0  0
 28 30  1  0  0  0  0
 29 30  1  0  0  0  0
M  END
>  <MODEL>
4

>  <REMARK>
 VINA RESULT:      -6.7      2.454      6.161
  Name = 
  13 active torsions:
  status: ('A' for Active; 'I' for Inactive)
    1  A    between atoms: C_1  and  N_29
    2  A    between atoms: C_2  and  N_3
    3  A    between atoms: C_5  and  C_18
    4  A    between atoms: S_12  and  C_17
    5  A    between atoms: C_13  and  C_14
    6  A    between atoms: C_13  and  C_26
    7  A    between atoms: C_14  and  N_24
    8  A    between atoms: C_15  and  C_26
    9  A    between atoms: C_17  and  C_19
   10  A    between atoms: C_18  and  C_25
   11  A    between atoms: C_25  and  O_30
   12  A    between atoms: C_27  and  N_29
   13  A    between atoms: C_27  and  O_30
                            x       y       z     vdW  Elec       q    Type
                         _______ _______ _______ _____ _____    ______ ____

>  <TORSDO>
F 13

$$$$
=
 OpenBabel11052410543D

 30 31  0  0  1  0  0  0  0  0999 V2000
  161.5890  207.3080  151.2110 C   0  0  0  0  0  3  0  0  0  0  0  0
  161.3370  206.8720  149.9670 C   0  0  0  0  0  0  0  0  0  0  0  0
  161.1300  205.4520  149.6190 C   0  0  0  0  0  0  0  0  0  0  0  0
  161.3940  204.9860  148.3230 C   0  0  0  0  0  3  0  0  0  0  0  0
  160.5760  203.1930  150.2690 C   0  0  0  0  0  3  0  0  0  0  0  0
  161.2180  203.6330  148.0280 C   0  0  0  0  0  0  0  0  0  0  0  0
  160.8180  202.7710  149.0000 N   0  0  0  0  0  0  0  0  0  0  0  0
  160.7320  204.5400  150.6020 C   0  0  0  0  0  3  0  0  0  0  0  0
  161.5100  203.1270  146.6600 C   0  0  0  0  0  2  0  0  0  0  0  0
  160.8330  204.6050  144.6160 C   0  0  0  0  0  1  0  0  0  0  0  0
  162.2950  204.4280  145.6710 S   0  0  0  0  0  0  0  0  0  0  0  0
  162.8590  205.7610  152.5140 O   0  0  0  0  0  0  0  0  0  0  0  0
  161.8370  206.4900  152.4110 C   0  0  0  0  0  0  0  0  0  0  0  0
  160.9060  206.6060  153.5650 C   0  0  0  0  0  2  0  0  0  0  0  0
  161.2970  207.7920  154.4280 C   0  0  0  0  0  2  0  0  0  0  0  0
  160.3480  211.4390  153.7450 N   0  0  0  0  0  2  0  0  0  0  0  0
  161.0870  210.3040  154.1950 C   0  0  0  0  0  0  0  0  0  0  0  0
  162.1870  210.4800  154.7840 O   0  0  0  0  0  0  0  0  0  0  0  0
  160.5780  208.9820  153.9930 N   0  0  0  0  0  2  0  0  0  0  0  0
  159.0490  211.3240  153.0990 C   0  0  1  0  0  3  0  0  0  0  0  0
  158.0380  211.4030  154.0570 O   0  0  0  0  0  1  0  0  0  0  0  0
  158.8830  212.4510  152.1050 C   0  0  0  0  0  1  0  0  0  0  0  0
  161.2410  207.8980  148.8840 C   0  0  0  0  0  2  0  0  0  0  0  0
  162.3160  208.8320  148.9850 O   0  0  0  0  0  0  0  0  0  0  0  0
  161.9270  210.5780  150.5590 C   0  0  0  0  0  2  0  0  0  0  0  0
  162.1450  210.1850  149.3010 C   0  0  0  0  0  0  0  0  0  0  0  0
  162.1800  211.1420  148.2390 N   0  0  0  0  0  2  0  0  0  0  0  0
  161.3760  212.3560  148.2180 C   0  0  0  0  0  3  0  0  0  0  0  0
  161.9770  213.3390  147.2340 C   0  0  0  0  0  2  0  0  0  0  0  0
  160.7640  212.5190  146.8450 C   0  0  0  0  0  2  0  0  0  0  0  0
  1 13  1  0  0  0  0
  2  1  2  0  0  0  0
  3  2  1  0  0  0  0
  3  8  1  0  0  0  0
  4  3  2  0  0  0  0
  5  8  2  0  0  0  0
  6  4  1  0  0  0  0
  6  7  2  0  0  0  0
  7  5  1  0  0  0  0
  9  6  1  0  0  0  0
 10 11  1  0  0  0  0
 11  9  1  0  0  0  0
 13 12  2  0  0  0  0
 13 14  1  0  0  0  0
 14 15  1  0  0  0  0
 16 17  1  0  0  0  0
 17 18  2  0  0  0  0
 19 17  1  0  0  0  0
 19 15  1  0  0  0  0
 20 22  1  6  0  0  0
 20 16  1  0  0  0  0
 20 21  1  0  0  0  0
 23 24  1  0  0  0  0
 23  2  1  0  0  0  0
 24 26  1  0  0  0  0
 26 25  2  0  0  0  0
 27 26  1  0  0  0  0
 28 27  1  0  0  0  0
 29 28  1  0  0  0  0
 30 29  1  0  0  0  0
 30 28  1  0  0  0  0
M  END
>  <MODEL>
5

>  <REMARK>
 VINA RESULT:      -6.6      1.757      4.623
  Name = 
  13 active torsions:
  status: ('A' for Active; 'I' for Inactive)
    1  A    between atoms: C_1  and  N_29
    2  A    between atoms: C_2  and  N_3
    3  A    between atoms: C_5  and  C_18
    4  A    between atoms: S_12  and  C_17
    5  A    between atoms: C_13  and  C_14
    6  A    between atoms: C_13  and  C_26
    7  A    between atoms: C_14  and  N_24
    8  A    between atoms: C_15  and  C_26
    9  A    between atoms: C_17  and  C_19
   10  A    between atoms: C_18  and  C_25
   11  A    between atoms: C_25  and  O_30
   12  A    between atoms: C_27  and  N_29
   13  A    between atoms: C_27  and  O_30
                            x       y       z     vdW  Elec       q    Type
                         _______ _______ _______ _____ _____    ______ ____

>  <TORSDO>
F 13

$$$$
=
 OpenBabel11052410543D

 30 31  0  0  1  0  0  0  0  0999 V2000
  161.9580  208.7680  148.7140 C   0  0  0  0  0  3  0  0  0  0  0  0
  161.8600  209.3720  149.9080 C   0  0  0  0  0  0  0  0  0  0  0  0
  161.5140  208.6680  151.1600 C   0  0  0  0  0  0  0  0  0  0  0  0
  161.6580  207.2780  151.2630 C   0  0  0  0  0  3  0  0  0  0  0  0
  160.8200  208.7230  153.4720 C   0  0  0  0  0  3  0  0  0  0  0  0
  161.3530  206.6410  152.4680 C   0  0  0  0  0  0  0  0  0  0  0  0
  160.9450  207.3710  153.5390 N   0  0  0  0  0  0  0  0  0  0  0  0
  161.1070  209.3960  152.2830 C   0  0  0  0  0  3  0  0  0  0  0  0
  161.5150  205.1680  152.5910 C   0  0  0  0  0  2  0  0  0  0  0  0
  161.2210  202.7150  151.7420 C   0  0  0  0  0  1  0  0  0  0  0  0
  161.1520  204.3680  151.0050 S   0  0  0  0  0  0  0  0  0  0  0  0
  160.4410  206.9390  148.4650 O   0  0  0  0  0  0  0  0  0  0  0  0
  161.6220  207.3700  148.3890 C   0  0  0  0  0  0  0  0  0  0  0  0
  162.6910  206.4770  147.8670 C   0  0  0  0  0  2  0  0  0  0  0  0
  162.1630  205.6700  146.6950 C   0  0  0  0  0  2  0  0  0  0  0  0
  160.8610  202.0690  146.7380 N   0  0  0  0  0  2  0  0  0  0  0  0
  161.2260  203.3610  146.2530 C   0  0  0  0  0  0  0  0  0  0  0  0
  161.0500  203.6320  145.0350 O   0  0  0  0  0  0  0  0  0  0  0  0
  161.7700  204.3410  147.1410 N   0  0  0  0  0  2  0  0  0  0  0  0
  160.9870  201.6920  148.1380 C   0  0  1  0  0  3  0  0  0  0  0  0
  159.7290  201.6850  148.7390 O   0  0  0  0  0  1  0  0  0  0  0  0
  161.5910  200.3090  148.2310 C   0  0  0  0  0  1  0  0  0  0  0  0
  162.1430  210.8390  149.9630 C   0  0  0  0  0  2  0  0  0  0  0  0
  161.4190  211.5250  148.9420 O   0  0  0  0  0  0  0  0  0  0  0  0
  163.3370  212.5120  147.9310 C   0  0  0  0  0  2  0  0  0  0  0  0
  162.0260  212.2560  147.9150 C   0  0  0  0  0  0  0  0  0  0  0  0
  161.2040  212.7500  146.8540 N   0  0  0  0  0  2  0  0  0  0  0  0
  159.7910  213.0670  147.0080 C   0  0  0  0  0  3  0  0  0  0  0  0
  159.3580  213.9870  145.8850 C   0  0  0  0  0  2  0  0  0  0  0  0
  159.0280  212.5100  145.8270 C   0  0  0  0  0  2  0  0  0  0  0  0
  1  2  2  0  0  0  0
  2 23  1  0  0  0  0
  2  3  1  0  0  0  0
  3  4  2  0  0  0  0
  3  8  1  0  0  0  0
  4  6  1  0  0  0  0
  5  7  1  0  0  0  0
  6  9  1  0  0  0  0
  6  7  2  0  0  0  0
  8  5  2  0  0  0  0
 11 10  1  0  0  0  0
 11  9  1  0  0  0  0
 13 12  2  0  0  0  0
 13  1  1  0  0  0  0
 14 13  1  0  0  0  0
 15 19  1  0  0  0  0
 15 14  1  0  0  0  0
 16 20  1  0  0  0  0
 17 16  1  0  0  0  0
 17 19  1  0  0  0  0
 18 17  2  0  0  0  0
 20 22  1  6  0  0  0
 20 21  1  0  0  0  0
 24 23  1  0  0  0  0
 26 25  2  0  0  0  0
 26 24  1  0  0  0  0
 27 28  1  0  0  0  0
 27 26  1  0  0  0  0
 29 28  1  0  0  0  0
 30 29  1  0  0  0  0
 30 28  1  0  0  0  0
M  END
>  <MODEL>
6

>  <REMARK>
 VINA RESULT:      -6.5      2.242      7.352
  Name = 
  13 active torsions:
  status: ('A' for Active; 'I' for Inactive)
    1  A    between atoms: C_1  and  N_29
    2  A    between atoms: C_2  and  N_3
    3  A    between atoms: C_5  and  C_18
    4  A    between atoms: S_12  and  C_17
    5  A    between atoms: C_13  and  C_14
    6  A    between atoms: C_13  and  C_26
    7  A    between atoms: C_14  and  N_24
    8  A    between atoms: C_15  and  C_26
    9  A    between atoms: C_17  and  C_19
   10  A    between atoms: C_18  and  C_25
   11  A    between atoms: C_25  and  O_30
   12  A    between atoms: C_27  and  N_29
   13  A    between atoms: C_27  and  O_30
                            x       y       z     vdW  Elec       q    Type
                         _______ _______ _______ _____ _____    ______ ____

>  <TORSDO>
F 13

$$$$
=
 OpenBabel11052410543D

 30 31  0  0  1  0  0  0  0  0999 V2000
  161.4370  207.7560  148.7900 C   0  0  0  0  0  3  0  0  0  0  0  0
  161.0080  206.4920  148.6620 C   0  0  0  0  0  0  0  0  0  0  0  0
  161.0980  205.4800  149.7350 C   0  0  0  0  0  0  0  0  0  0  0  0
  161.1330  205.8650  151.0820 C   0  0  0  0  0  3  0  0  0  0  0  0
  161.1240  203.1710  150.4410 C   0  0  0  0  0  3  0  0  0  0  0  0
  161.1880  204.8870  152.0770 C   0  0  0  0  0  0  0  0  0  0  0  0
  161.1800  203.5710  151.7390 N   0  0  0  0  0  0  0  0  0  0  0  0
  161.0770  204.1180  149.4160 C   0  0  0  0  0  3  0  0  0  0  0  0
  161.2120  205.2860  153.5100 C   0  0  0  0  0  2  0  0  0  0  0  0
  160.4600  207.0320  155.3000 C   0  0  0  0  0  1  0  0  0  0  0  0
  161.2080  207.0930  153.6510 S   0  0  0  0  0  0  0  0  0  0  0  0
  163.0660  207.6860  150.5360 O   0  0  0  0  0  0  0  0  0  0  0  0
  162.1800  208.3380  149.9220 C   0  0  0  0  0  0  0  0  0  0  0  0
  161.9410  209.7620  150.2830 C   0  0  0  0  0  2  0  0  0  0  0  0
  162.1840  209.9650  151.7680 C   0  0  0  0  0  2  0  0  0  0  0  0
  159.7580  211.4200  154.3500 N   0  0  0  0  0  2  0  0  0  0  0  0
  160.9420  210.8550  153.7860 C   0  0  0  0  0  0  0  0  0  0  0  0
  161.9310  210.6290  154.5320 O   0  0  0  0  0  0  0  0  0  0  0  0
  160.9990  210.5360  152.3920 N   0  0  0  0  0  2  0  0  0  0  0  0
  158.5570  211.6690  153.5670 C   0  0  1  0  0  3  0  0  0  0  0  0
  157.4300  211.5170  154.3740 O   0  0  0  0  0  1  0  0  0  0  0  0
  158.5970  213.0800  153.0260 C   0  0  0  0  0  1  0  0  0  0  0  0
  160.3820  206.1050  147.3610 C   0  0  0  0  0  2  0  0  0  0  0  0
  161.3710  206.0370  146.3330 O   0  0  0  0  0  0  0  0  0  0  0  0
  163.1600  204.6600  145.5720 C   0  0  0  0  0  2  0  0  0  0  0  0
  161.8550  204.8390  145.7960 C   0  0  0  0  0  0  0  0  0  0  0  0
  160.9150  203.8140  145.4630 N   0  0  0  0  0  2  0  0  0  0  0  0
  161.2200  202.3910  145.5140 C   0  0  0  0  0  3  0  0  0  0  0  0
  160.4570  201.7540  146.6570 C   0  0  0  0  0  2  0  0  0  0  0  0
  159.9580  201.6060  145.2350 C   0  0  0  0  0  2  0  0  0  0  0  0
  1 13  1  0  0  0  0
  2  1  2  0  0  0  0
  2  3  1  0  0  0  0
  3  4  1  0  0  0  0
  4  6  2  0  0  0  0
  5  7  2  0  0  0  0
  6  9  1  0  0  0  0
  7  6  1  0  0  0  0
  8  3  2  0  0  0  0
  8  5  1  0  0  0  0
  9 11  1  0  0  0  0
 11 10  1  0  0  0  0
 13 14  1  0  0  0  0
 13 12  2  0  0  0  0
 14 15  1  0  0  0  0
 15 19  1  0  0  0  0
 17 16  1  0  0  0  0
 17 18  2  0  0  0  0
 19 17  1  0  0  0  0
 20 22  1  1  0  0  0
 20 16  1  0  0  0  0
 20 21  1  0  0  0  0
 23  2  1  0  0  0  0
 24 23  1  0  0  0  0
 25 26  2  0  0  0  0
 26 24  1  0  0  0  0
 27 28  1  0  0  0  0
 27 26  1  0  0  0  0
 28 29  1  0  0  0  0
 30 28  1  0  0  0  0
 30 29  1  0  0  0  0
M  END
>  <MODEL>
7

>  <REMARK>
 VINA RESULT:      -6.5      2.931      6.647
  Name = 
  13 active torsions:
  status: ('A' for Active; 'I' for Inactive)
    1  A    between atoms: C_1  and  N_29
    2  A    between atoms: C_2  and  N_3
    3  A    between atoms: C_5  and  C_18
    4  A    between atoms: S_12  and  C_17
    5  A    between atoms: C_13  and  C_14
    6  A    between atoms: C_13  and  C_26
    7  A    between atoms: C_14  and  N_24
    8  A    between atoms: C_15  and  C_26
    9  A    between atoms: C_17  and  C_19
   10  A    between atoms: C_18  and  C_25
   11  A    between atoms: C_25  and  O_30
   12  A    between atoms: C_27  and  N_29
   13  A    between atoms: C_27  and  O_30
                            x       y       z     vdW  Elec       q    Type
                         _______ _______ _______ _____ _____    ______ ____

>  <TORSDO>
F 13

$$$$
=
 OpenBabel11052410543D

 30 31  0  0  1  0  0  0  0  0999 V2000
  161.9080  208.4760  148.6380 C   0  0  0  0  0  3  0  0  0  0  0  0
  161.9560  209.0280  149.8590 C   0  0  0  0  0  0  0  0  0  0  0  0
  161.8500  208.2580  151.1160 C   0  0  0  0  0  0  0  0  0  0  0  0
  161.2250  208.8090  152.2430 C   0  0  0  0  0  3  0  0  0  0  0  0
  162.1720  206.2090  152.3520 C   0  0  0  0  0  3  0  0  0  0  0  0
  161.1120  208.0490  153.4090 C   0  0  0  0  0  0  0  0  0  0  0  0
  161.5820  206.7750  153.4380 N   0  0  0  0  0  0  0  0  0  0  0  0
  162.3120  206.9390  151.1690 C   0  0  0  0  0  3  0  0  0  0  0  0
  160.4390  208.6210  154.6050 C   0  0  0  0  0  2  0  0  0  0  0  0
  160.0890  207.1220  156.7160 C   0  0  0  0  0  1  0  0  0  0  0  0
  161.3870  208.2250  156.0990 S   0  0  0  0  0  0  0  0  0  0  0  0
  160.4560  206.5910  148.4250 O   0  0  0  0  0  0  0  0  0  0  0  0
  161.6140  207.0720  148.3030 C   0  0  0  0  0  0  0  0  0  0  0  0
  162.6930  206.2320  147.7160 C   0  0  0  0  0  2  0  0  0  0  0  0
  162.1110  205.3080  146.6600 C   0  0  0  0  0  2  0  0  0  0  0  0
  160.6900  201.7900  147.1770 N   0  0  0  0  0  2  0  0  0  0  0  0
  161.1560  202.9690  146.5200 C   0  0  0  0  0  0  0  0  0  0  0  0
  161.1420  203.0170  145.2620 O   0  0  0  0  0  0  0  0  0  0  0  0
  161.6200  204.0870  147.2820 N   0  0  0  0  0  2  0  0  0  0  0  0
  160.6300  201.6710  148.6260 C   0  0  1  0  0  3  0  0  0  0  0  0
  159.3310  201.3490  149.0190 O   0  0  0  0  0  1  0  0  0  0  0  0
  161.5720  200.5780  149.0780 C   0  0  0  0  0  1  0  0  0  0  0  0
  162.1520  210.5080  149.9390 C   0  0  0  0  0  2  0  0  0  0  0  0
  162.2710  211.0670  148.6310 O   0  0  0  0  0  0  0  0  0  0  0  0
  160.9750  213.0080  149.1080 C   0  0  0  0  0  2  0  0  0  0  0  0
  161.7210  212.2980  148.2570 C   0  0  0  0  0  0  0  0  0  0  0  0
  161.9510  212.7700  146.9270 N   0  0  0  0  0  2  0  0  0  0  0  0
  160.9340  213.4230  146.1140 C   0  0  0  0  0  3  0  0  0  0  0  0
  161.1160  213.0230  144.6640 C   0  0  0  0  0  2  0  0  0  0  0  0
  160.0380  212.3690  145.5040 C   0  0  0  0  0  2  0  0  0  0  0  0
  1  2  2  0  0  0  0
  2 23  1  0  0  0  0
  2  3  1  0  0  0  0
  3  8  2  0  0  0  0
  3  4  1  0  0  0  0
  4  6  2  0  0  0  0
  5  7  2  0  0  0  0
  6  7  1  0  0  0  0
  6  9  1  0  0  0  0
  8  5  1  0  0  0  0
  9 11  1  0  0  0  0
 11 10  1  0  0  0  0
 13 12  2  0  0  0  0
 13  1  1  0  0  0  0
 14 13  1  0  0  0  0
 15 19  1  0  0  0  0
 15 14  1  0  0  0  0
 16 20  1  0  0  0  0
 17 16  1  0  0  0  0
 17 19  1  0  0  0  0
 18 17  2  0  0  0  0
 20 21  1  0  0  0  0
 20 22  1  6  0  0  0
 24 23  1  0  0  0  0
 26 24  1  0  0  0  0
 26 25  2  0  0  0  0
 27 26  1  0  0  0  0
 28 27  1  0  0  0  0
 29 30  1  0  0  0  0
 29 28  1  0  0  0  0
 30 28  1  0  0  0  0
M  END
>  <MODEL>
8

>  <REMARK>
 VINA RESULT:      -6.5      2.883      7.902
  Name = 
  13 active torsions:
  status: ('A' for Active; 'I' for Inactive)
    1  A    between atoms: C_1  and  N_29
    2  A    between atoms: C_2  and  N_3
    3  A    between atoms: C_5  and  C_18
    4  A    between atoms: S_12  and  C_17
    5  A    between atoms: C_13  and  C_14
    6  A    between atoms: C_13  and  C_26
    7  A    between atoms: C_14  and  N_24
    8  A    between atoms: C_15  and  C_26
    9  A    between atoms: C_17  and  C_19
   10  A    between atoms: C_18  and  C_25
   11  A    between atoms: C_25  and  O_30
   12  A    between atoms: C_27  and  N_29
   13  A    between atoms: C_27  and  O_30
                            x       y       z     vdW  Elec       q    Type
                         _______ _______ _______ _____ _____    ______ ____

>  <TORSDO>
F 13

$$$$
=
 OpenBabel11052410543D

 30 31  0  0  1  0  0  0  0  0999 V2000
  161.6000  207.3540  149.9650 C   0  0  0  0  0  3  0  0  0  0  0  0
  161.2040  206.6720  151.0500 C   0  0  0  0  0  0  0  0  0  0  0  0
  161.0610  207.2720  152.3920 C   0  0  0  0  0  0  0  0  0  0  0  0
  160.6710  208.6100  152.5410 C   0  0  0  0  0  3  0  0  0  0  0  0
  161.0710  207.0550  154.7970 C   0  0  0  0  0  3  0  0  0  0  0  0
  160.5150  209.1440  153.8220 C   0  0  0  0  0  0  0  0  0  0  0  0
  160.7140  208.3610  154.9140 N   0  0  0  0  0  0  0  0  0  0  0  0
  161.2460  206.4850  153.5340 C   0  0  0  0  0  3  0  0  0  0  0  0
  160.0880  210.5580  153.9890 C   0  0  0  0  0  2  0  0  0  0  0  0
  158.6370  212.4000  152.8380 C   0  0  0  0  0  1  0  0  0  0  0  0
  160.0760  211.3980  152.3830 S   0  0  0  0  0  0  0  0  0  0  0  0
  162.6980  209.2680  150.8800 O   0  0  0  0  0  0  0  0  0  0  0  0
  162.0880  208.7430  149.9110 C   0  0  0  0  0  0  0  0  0  0  0  0
  161.9370  209.5100  148.6450 C   0  0  0  0  0  2  0  0  0  0  0  0
  162.0320  210.9990  148.9280 C   0  0  0  0  0  2  0  0  0  0  0  0
  161.1950  213.5770  146.2230 N   0  0  0  0  0  2  0  0  0  0  0  0
  161.9170  212.8780  147.2370 C   0  0  0  0  0  0  0  0  0  0  0  0
  163.0680  213.2770  147.5570 O   0  0  0  0  0  0  0  0  0  0  0  0
  161.3340  211.7480  147.8930 N   0  0  0  0  0  2  0  0  0  0  0  0
  159.8430  213.2100  145.8280 C   0  0  1  0  0  3  0  0  0  0  0  0
  159.1560  214.3420  145.3920 O   0  0  0  0  0  1  0  0  0  0  0  0
  159.9070  212.2010  144.7030 C   0  0  0  0  0  1  0  0  0  0  0  0
  160.8680  205.2260  150.8700 C   0  0  0  0  0  2  0  0  0  0  0  0
  160.6700  204.9290  149.4880 O   0  0  0  0  0  0  0  0  0  0  0  0
  160.8270  202.5520  149.5490 C   0  0  0  0  0  1  0  0  0  0  0  0
  161.0090  203.7050  148.8990 C   0  0  0  0  0  0  0  0  0  0  0  0
  161.5850  203.7170  147.5900 N   0  0  0  0  0  0  0  0  0  0  0  0
  161.8850  204.9350  146.8500 C   0  0  0  0  0  3  0  0  0  0  0  0
  163.0950  204.7010  145.9690 C   0  0  0  0  0  2  0  0  0  0  0  0
  161.7030  204.6720  145.3720 C   0  0  0  0  0  2  0  0  0  0  0  0
  1  2  2  0  0  0  0
  2  3  1  0  0  0  0
  3  4  2  0  0  0  0
  3  8  1  0  0  0  0
  4  6  1  0  0  0  0
  5  7  1  0  0  0  0
  6  9  1  0  0  0  0
  6  7  2  0  0  0  0
  8  5  2  0  0  0  0
 11 10  1  0  0  0  0
 11  9  1  0  0  0  0
 13  1  1  0  0  0  0
 13 12  2  0  0  0  0
 14 15  1  0  0  0  0
 14 13  1  0  0  0  0
 16 17  1  0  0  0  0
 17 18  2  0  0  0  0
 17 19  1  0  0  0  0
 19 15  1  0  0  0  0
 20 22  1  6  0  0  0
 20 16  1  0  0  0  0
 21 20  1  0  0  0  0
 23  2  1  0  0  0  0
 24 23  1  0  0  0  0
 26 24  1  0  0  0  0
 26 25  1  0  0  0  0
 27 26  2  0  0  0  0
 28 27  1  0  0  0  0
 29 28  1  0  0  0  0
 30 29  1  0  0  0  0
 30 28  1  0  0  0  0
M  END
>  <MODEL>
9

>  <REMARK>
 VINA RESULT:      -6.5      2.515      6.330
  Name = 
  13 active torsions:
  status: ('A' for Active; 'I' for Inactive)
    1  A    between atoms: C_1  and  N_29
    2  A    between atoms: C_2  and  N_3
    3  A    between atoms: C_5  and  C_18
    4  A    between atoms: S_12  and  C_17
    5  A    between atoms: C_13  and  C_14
    6  A    between atoms: C_13  and  C_26
    7  A    between atoms: C_14  and  N_24
    8  A    between atoms: C_15  and  C_26
    9  A    between atoms: C_17  and  C_19
   10  A    between atoms: C_18  and  C_25
   11  A    between atoms: C_25  and  O_30
   12  A    between atoms: C_27  and  N_29
   13  A    between atoms: C_27  and  O_30
                            x       y       z     vdW  Elec       q    Type
                         _______ _______ _______ _____ _____    ______ ____

>  <TORSDO>
F 13

$$$$
