=
 OpenBabel11042422113D

 34 36  0  0  1  0  0  0  0  0999 V2000
  160.7210  208.0940  152.6610 C   0  0  1  0  0  3  0  0  0  0  0  0
  160.1790  210.3380  153.4430 C   0  0  0  0  0  0  0  0  0  0  0  0
  158.2680  213.3290  150.4410 O   0  0  0  0  0  0  0  0  0  0  0  0
  156.6960  213.1760  154.8940 C   0  0  0  0  0  3  0  0  0  0  0  0
  158.4400  212.9490  151.6280 C   0  0  0  0  0  0  0  0  0  0  0  0
  160.8750  209.2460  153.6070 C   0  0  0  0  0  3  0  0  0  0  0  0
  159.4860  211.4240  153.2550 C   0  0  0  0  0  0  0  0  0  0  0  0
  157.6100  212.8500  153.9860 C   0  0  0  0  0  0  0  0  0  0  0  0
  159.6820  212.1940  151.9860 C   0  0  0  0  0  2  0  0  0  0  0  0
  155.5420  213.9340  154.5440 N   0  0  0  0  0  1  0  0  0  0  0  0
  158.8170  212.0750  154.4230 C   0  0  0  0  0  2  0  0  0  0  0  0
  157.4710  213.2800  152.6260 N   0  0  0  0  0  2  0  0  0  0  0  0
  161.5320  207.7820  147.9420 C   0  0  0  0  0  2  0  0  0  0  0  0
  160.5660  206.6150  148.2440 C   0  0  0  0  0  3  0  0  0  0  0  0
  161.4570  208.3210  151.3730 C   0  0  0  0  0  0  0  0  0  0  0  0
  160.4070  206.5360  149.7810 C   0  0  0  0  0  3  0  0  0  0  0  0
  162.1480  209.4700  150.9770 C   0  0  0  0  0  3  0  0  0  0  0  0
  161.3560  207.5710  150.2280 C   0  0  0  0  0  0  0  0  0  0  0  0
  162.4180  209.3760  149.6490 N   0  0  0  0  0  0  0  0  0  0  0  0
  161.9570  208.2050  149.2510 N   0  0  0  0  0  0  0  0  0  0  0  0
  161.1130  206.7920  153.3060 C   0  0  0  0  0  0  0  0  0  0  0  0
  160.9860  206.6390  154.5840 N   0  0  0  0  0  2  0  0  0  0  0  0
  161.1520  204.5800  152.3950 C   0  0  0  0  0  3  0  0  0  0  0  0
  161.7070  205.7410  152.5380 N   0  0  0  0  0  0  0  0  0  0  0  0
  161.8150  203.5160  151.5850 C   0  0  0  0  0  2  0  0  0  0  0  0
  160.7940  202.5230  151.0500 C   0  0  0  0  0  2  0  0  0  0  0  0
  160.4250  202.8710  149.6850 N   0  0  0  0  0  2  0  0  0  0  0  0
  161.2720  200.8250  148.1930 S   0  0  0  0  0  0  0  0  0  0  0  0
  161.1450  202.4320  148.5300 C   0  0  0  0  0  0  0  0  0  0  0  0
  161.5960  203.5600  146.2520 C   0  0  0  0  0  0  0  0  0  0  0  0
  161.7230  203.4300  147.6750 N   0  0  0  0  0  2  0  0  0  0  0  0
  160.9720  202.7080  145.5660 O   0  0  0  0  0  0  0  0  0  0  0  0
  161.3290  205.2660  144.5020 C   0  0  0  0  0  1  0  0  0  0  0  0
  162.2530  204.7040  145.5660 C   0  0  0  0  0  2  0  0  0  0  0  0
  1 21  1  0  0  0  0
  1  6  1  1  0  0  0
  2  6  2  0  0  0  0
  3  5  2  0  0  0  0
  5  9  1  0  0  0  0
  5 12  1  0  0  0  0
  7  2  2  0  0  0  0
  7 11  1  0  0  0  0
  8 11  1  0  0  0  0
  8  4  2  0  0  0  0
  9  7  1  0  0  0  0
 10  4  1  0  0  0  0
 12  8  1  0  0  0  0
 13 14  1  0  0  0  0
 13 20  1  0  0  0  0
 14 16  2  0  0  0  0
 15  1  1  0  0  0  0
 16 18  1  0  0  0  0
 17 15  1  0  0  0  0
 18 15  2  0  0  0  0
 19 17  2  0  0  0  0
 20 19  1  0  0  0  0
 20 18  1  0  0  0  0
 21 22  2  0  0  0  0
 23 24  2  0  0  0  0
 24 21  1  0  0  0  0
 25 23  1  0  0  0  0
 26 25  1  0  0  0  0
 27 26  1  0  0  0  0
 28 29  2  0  0  0  0
 29 27  1  0  0  0  0
 30 31  1  0  0  0  0
 31 29  1  0  0  0  0
 32 30  2  0  0  0  0
 33 34  1  0  0  0  0
 34 30  1  0  0  0  0
M  END
>  <MODEL>
1

>  <REMARK>
 VINA RESULT:      -8.1      0.000      0.000
  Name = 
  10 active torsions:
  status: ('A' for Active; 'I' for Inactive)
    1  A    between atoms: C_4  and  C_11
    2  A    between atoms: C_4  and  C_18
    3  A    between atoms: C_6  and  C_23
    4  A    between atoms: C_13  and  C_23
    5  A    between atoms: C_13  and  N_27
    6  A    between atoms: C_14  and  C_23
    7  A    between atoms: C_17  and  C_30
    8  A    between atoms: C_18  and  N_28
    9  A    between atoms: N_20  and  C_25
   10  A    between atoms: C_25  and  N_28
                            x       y       z     vdW  Elec       q    Type
                         _______ _______ _______ _____ _____    ______ ____

>  <TORSDO>
F 10

$$$$
=
 OpenBabel11042422113D

 34 36  0  0  1  0  0  0  0  0999 V2000
  160.1010  210.2300  153.1320 C   0  0  1  0  0  3  0  0  0  0  0  0
  161.4430  208.8910  151.6010 C   0  0  0  0  0  0  0  0  0  0  0  0
  160.8290  204.2830  151.5690 O   0  0  0  0  0  0  0  0  0  0  0  0
  161.4370  206.5790  147.4850 C   0  0  0  0  0  3  0  0  0  0  0  0
  161.1790  205.3320  150.9690 C   0  0  0  0  0  0  0  0  0  0  0  0
  161.2970  210.0090  152.2570 C   0  0  0  0  0  3  0  0  0  0  0  0
  161.5780  207.7620  150.9660 C   0  0  0  0  0  0  0  0  0  0  0  0
  161.4900  206.5620  148.8120 C   0  0  0  0  0  0  0  0  0  0  0  0
  161.6880  206.4980  151.7590 C   0  0  0  0  0  2  0  0  0  0  0  0
  160.9920  205.4450  146.7460 N   0  0  0  0  0  1  0  0  0  0  0  0
  161.9950  207.7780  149.5300 C   0  0  0  0  0  2  0  0  0  0  0  0
  161.1260  205.3820  149.5410 N   0  0  0  0  0  2  0  0  0  0  0  0
  161.1200  208.0070  157.2610 C   0  0  0  0  0  2  0  0  0  0  0  0
  160.4000  206.9340  156.4140 C   0  0  0  0  0  3  0  0  0  0  0  0
  160.4430  210.1230  154.5900 C   0  0  0  0  0  0  0  0  0  0  0  0
  159.8730  207.6330  155.1380 C   0  0  0  0  0  3  0  0  0  0  0  0
  161.2880  210.9550  155.3320 C   0  0  0  0  0  3  0  0  0  0  0  0
  160.2320  209.0380  155.4030 C   0  0  0  0  0  0  0  0  0  0  0  0
  161.5520  210.3530  156.5200 N   0  0  0  0  0  0  0  0  0  0  0  0
  160.8690  209.2230  156.5330 N   0  0  0  0  0  0  0  0  0  0  0  0
  159.4150  211.5320  152.8150 C   0  0  0  0  0  0  0  0  0  0  0  0
  158.2040  211.7400  153.2180 N   0  0  0  0  0  2  0  0  0  0  0  0
  159.3900  213.3260  151.2310 C   0  0  0  0  0  3  0  0  0  0  0  0
  160.0520  212.5190  151.9970 N   0  0  0  0  0  0  0  0  0  0  0  0
  160.1020  214.3370  150.3960 C   0  0  0  0  0  2  0  0  0  0  0  0
  159.9630  214.0170  148.9160 C   0  0  0  0  0  2  0  0  0  0  0  0
  161.2560  214.1280  148.2560 N   0  0  0  0  0  2  0  0  0  0  0  0
  162.0190  211.6020  148.6630 S   0  0  0  0  0  0  0  0  0  0  0  0
  162.0160  213.0050  147.8010 C   0  0  0  0  0  0  0  0  0  0  0  0
  162.2280  213.1300  145.2310 C   0  0  0  0  0  0  0  0  0  0  0  0
  162.7420  213.1360  146.5700 N   0  0  0  0  0  2  0  0  0  0  0  0
  161.0070  212.9300  144.9960 O   0  0  0  0  0  0  0  0  0  0  0  0
  162.4950  212.9040  142.7980 C   0  0  0  0  0  1  0  0  0  0  0  0
  163.1640  213.3230  144.0920 C   0  0  0  0  0  2  0  0  0  0  0  0
  1  6  1  6  0  0  0
  1 15  1  0  0  0  0
  2  6  2  0  0  0  0
  4  8  2  0  0  0  0
  5  3  2  0  0  0  0
  5  9  1  0  0  0  0
  7  2  2  0  0  0  0
  7  9  1  0  0  0  0
  8 11  1  0  0  0  0
  8 12  1  0  0  0  0
 10  4  1  0  0  0  0
 11  7  1  0  0  0  0
 12  5  1  0  0  0  0
 14 13  1  0  0  0  0
 15 17  1  0  0  0  0
 15 18  2  0  0  0  0
 16 18  1  0  0  0  0
 16 14  2  0  0  0  0
 17 19  2  0  0  0  0
 18 20  1  0  0  0  0
 19 20  1  0  0  0  0
 20 13  1  0  0  0  0
 21  1  1  0  0  0  0
 21 22  2  0  0  0  0
 23 24  2  0  0  0  0
 24 21  1  0  0  0  0
 25 23  1  0  0  0  0
 26 25  1  0  0  0  0
 27 26  1  0  0  0  0
 29 27  1  0  0  0  0
 29 28  2  0  0  0  0
 30 31  1  0  0  0  0
 31 29  1  0  0  0  0
 32 30  2  0  0  0  0
 33 34  1  0  0  0  0
 34 30  1  0  0  0  0
M  END
>  <MODEL>
2

>  <REMARK>
 VINA RESULT:      -7.9      3.936      8.280
  Name = 
  10 active torsions:
  status: ('A' for Active; 'I' for Inactive)
    1  A    between atoms: C_4  and  C_11
    2  A    between atoms: C_4  and  C_18
    3  A    between atoms: C_6  and  C_23
    4  A    between atoms: C_13  and  C_23
    5  A    between atoms: C_13  and  N_27
    6  A    between atoms: C_14  and  C_23
    7  A    between atoms: C_17  and  C_30
    8  A    between atoms: C_18  and  N_28
    9  A    between atoms: N_20  and  C_25
   10  A    between atoms: C_25  and  N_28
                            x       y       z     vdW  Elec       q    Type
                         _______ _______ _______ _____ _____    ______ ____

>  <TORSDO>
F 10

$$$$
=
 OpenBabel11042422113D

 34 36  0  0  1  0  0  0  0  0999 V2000
  161.7710  207.8430  150.6230 C   0  0  1  0  0  3  0  0  0  0  0  0
  160.5540  208.7060  152.5500 C   0  0  0  0  0  0  0  0  0  0  0  0
  162.2570  207.8820  156.7960 O   0  0  0  0  0  0  0  0  0  0  0  0
  160.4170  212.1200  155.8070 C   0  0  0  0  0  3  0  0  0  0  0  0
  161.5650  208.6000  156.0280 C   0  0  0  0  0  0  0  0  0  0  0  0
  160.5330  208.3560  151.2930 C   0  0  0  0  0  3  0  0  0  0  0  0
  160.5920  209.0360  153.8090 C   0  0  0  0  0  0  0  0  0  0  0  0
  160.5980  210.8430  155.4880 C   0  0  0  0  0  0  0  0  0  0  0  0
  160.9300  207.9850  154.8190 C   0  0  0  0  0  2  0  0  0  0  0  0
  160.9910  212.6780  156.9860 N   0  0  0  0  0  1  0  0  0  0  0  0
  159.9430  210.3090  154.2490 C   0  0  0  0  0  2  0  0  0  0  0  0
  161.3580  209.9790  156.3430 N   0  0  0  0  0  2  0  0  0  0  0  0
  160.6590  203.1850  150.9330 C   0  0  0  0  0  2  0  0  0  0  0  0
  160.8980  203.6210  152.3950 C   0  0  0  0  0  3  0  0  0  0  0  0
  161.6040  206.4320  150.1370 C   0  0  0  0  0  0  0  0  0  0  0  0
  161.4460  205.0680  152.3600 C   0  0  0  0  0  3  0  0  0  0  0  0
  161.1600  206.0090  148.8810 C   0  0  0  0  0  3  0  0  0  0  0  0
  161.5740  205.2980  150.9100 C   0  0  0  0  0  0  0  0  0  0  0  0
  160.8780  204.6830  148.9460 N   0  0  0  0  0  0  0  0  0  0  0  0
  161.1770  204.2910  150.1710 N   0  0  0  0  0  0  0  0  0  0  0  0
  162.2270  208.7610  149.5210 C   0  0  0  0  0  0  0  0  0  0  0  0
  162.8220  208.2770  148.4800 N   0  0  0  0  0  2  0  0  0  0  0  0
  161.8880  210.9530  148.6240 C   0  0  0  0  0  3  0  0  0  0  0  0
  162.0900  210.1800  149.6430 N   0  0  0  0  0  0  0  0  0  0  0  0
  161.7530  212.4280  148.8040 C   0  0  0  0  0  2  0  0  0  0  0  0
  160.7410  213.0070  147.8280 C   0  0  0  0  0  2  0  0  0  0  0  0
  160.4580  212.0460  146.7710 N   0  0  0  0  0  2  0  0  0  0  0  0
  158.1480  212.9270  145.7610 S   0  0  0  0  0  0  0  0  0  0  0  0
  159.6830  212.3480  145.6080 C   0  0  0  0  0  0  0  0  0  0  0  0
  161.5130  212.7200  143.8250 C   0  0  0  0  0  0  0  0  0  0  0  0
  160.2910  212.1550  144.3220 N   0  0  0  0  0  2  0  0  0  0  0  0
  162.1770  213.5480  144.5010 O   0  0  0  0  0  0  0  0  0  0  0  0
  160.9210  211.5310  141.7570 C   0  0  0  0  0  1  0  0  0  0  0  0
  161.9830  212.3500  142.4640 C   0  0  0  0  0  2  0  0  0  0  0  0
  1  6  1  6  0  0  0
  2  7  2  0  0  0  0
  4 10  1  0  0  0  0
  5 12  1  0  0  0  0
  5  3  2  0  0  0  0
  6  2  2  0  0  0  0
  7 11  1  0  0  0  0
  7  9  1  0  0  0  0
  8  4  2  0  0  0  0
  8 12  1  0  0  0  0
  9  5  1  0  0  0  0
 11  8  1  0  0  0  0
 13 14  1  0  0  0  0
 15  1  1  0  0  0  0
 15 18  2  0  0  0  0
 16 14  2  0  0  0  0
 17 19  2  0  0  0  0
 17 15  1  0  0  0  0
 18 16  1  0  0  0  0
 19 20  1  0  0  0  0
 20 18  1  0  0  0  0
 20 13  1  0  0  0  0
 21 24  1  0  0  0  0
 21  1  1  0  0  0  0
 22 21  2  0  0  0  0
 23 25  1  0  0  0  0
 23 24  2  0  0  0  0
 26 25  1  0  0  0  0
 27 26  1  0  0  0  0
 29 28  2  0  0  0  0
 29 27  1  0  0  0  0
 30 31  1  0  0  0  0
 30 32  2  0  0  0  0
 31 29  1  0  0  0  0
 33 34  1  0  0  0  0
 34 30  1  0  0  0  0
M  END
>  <MODEL>
3

>  <REMARK>
 VINA RESULT:      -7.0      4.387      6.785
  Name = 
  10 active torsions:
  status: ('A' for Active; 'I' for Inactive)
    1  A    between atoms: C_4  and  C_11
    2  A    between atoms: C_4  and  C_18
    3  A    between atoms: C_6  and  C_23
    4  A    between atoms: C_13  and  C_23
    5  A    between atoms: C_13  and  N_27
    6  A    between atoms: C_14  and  C_23
    7  A    between atoms: C_17  and  C_30
    8  A    between atoms: C_18  and  N_28
    9  A    between atoms: N_20  and  C_25
   10  A    between atoms: C_25  and  N_28
                            x       y       z     vdW  Elec       q    Type
                         _______ _______ _______ _____ _____    ______ ____

>  <TORSDO>
F 10

$$$$
=
 OpenBabel11042422113D

 34 36  0  0  1  0  0  0  0  0999 V2000
  162.1580  206.0100  150.6240 C   0  0  1  0  0  3  0  0  0  0  0  0
  162.0250  207.6050  152.4630 C   0  0  0  0  0  0  0  0  0  0  0  0
  160.4870  211.8980  151.5640 O   0  0  0  0  0  0  0  0  0  0  0  0
  159.1210  209.7190  155.5270 C   0  0  0  0  0  3  0  0  0  0  0  0
  160.6500  210.9570  152.3820 C   0  0  0  0  0  0  0  0  0  0  0  0
  162.5410  206.5050  151.9860 C   0  0  0  0  0  3  0  0  0  0  0  0
  161.5090  208.7110  152.9150 C   0  0  0  0  0  0  0  0  0  0  0  0
  159.9260  209.7870  154.4720 C   0  0  0  0  0  0  0  0  0  0  0  0
  161.7690  209.9840  152.1720 C   0  0  0  0  0  2  0  0  0  0  0  0
  158.0900  210.6790  155.7360 N   0  0  0  0  0  1  0  0  0  0  0  0
  161.0100  208.7620  154.3240 C   0  0  0  0  0  2  0  0  0  0  0  0
  159.7960  210.8540  153.5240 N   0  0  0  0  0  2  0  0  0  0  0  0
  160.4650  201.7410  149.2340 C   0  0  0  0  0  2  0  0  0  0  0  0
  161.0980  202.3380  147.9570 C   0  0  0  0  0  3  0  0  0  0  0  0
  161.2990  204.7810  150.6940 C   0  0  0  0  0  0  0  0  0  0  0  0
  161.4990  203.7970  148.2820 C   0  0  0  0  0  3  0  0  0  0  0  0
  160.9040  204.0800  151.8370 C   0  0  0  0  0  3  0  0  0  0  0  0
  160.9780  203.9470  149.6520 C   0  0  0  0  0  0  0  0  0  0  0  0
  160.3870  202.8850  151.4530 N   0  0  0  0  0  0  0  0  0  0  0  0
  160.4180  202.8640  150.1340 N   0  0  0  0  0  0  0  0  0  0  0  0
  161.5160  207.0940  149.8010 C   0  0  0  0  0  0  0  0  0  0  0  0
  160.3130  206.9380  149.3520 N   0  0  0  0  0  2  0  0  0  0  0  0
  161.6990  209.2670  148.8150 C   0  0  0  0  0  3  0  0  0  0  0  0
  162.2460  208.2680  149.4320 N   0  0  0  0  0  0  0  0  0  0  0  0
  162.5060  210.4680  148.4500 C   0  0  0  0  0  2  0  0  0  0  0  0
  161.6170  211.6890  148.2760 C   0  0  0  0  0  2  0  0  0  0  0  0
  162.2190  212.6160  147.3280 N   0  0  0  0  0  2  0  0  0  0  0  0
  162.2610  214.1780  145.1630 S   0  0  0  0  0  0  0  0  0  0  0  0
  161.4760  213.3450  146.3470 C   0  0  0  0  0  0  0  0  0  0  0  0
  159.1340  212.5820  145.5750 C   0  0  0  0  0  0  0  0  0  0  0  0
  160.0430  213.3030  146.4180 N   0  0  0  0  0  2  0  0  0  0  0  0
  159.5390  211.9230  144.5830 O   0  0  0  0  0  0  0  0  0  0  0  0
  157.4360  212.6540  147.3520 C   0  0  0  0  0  1  0  0  0  0  0  0
  157.6740  212.6500  145.8550 C   0  0  0  0  0  2  0  0  0  0  0  0
  1 15  1  0  0  0  0
  1  6  1  1  0  0  0
  2  7  2  0  0  0  0
  3  5  2  0  0  0  0
  4 10  1  0  0  0  0
  5 12  1  0  0  0  0
  6  2  2  0  0  0  0
  7 11  1  0  0  0  0
  8  4  2  0  0  0  0
  9  5  1  0  0  0  0
  9  7  1  0  0  0  0
 11  8  1  0  0  0  0
 12  8  1  0  0  0  0
 13 20  1  0  0  0  0
 14 16  2  0  0  0  0
 14 13  1  0  0  0  0
 15 17  1  0  0  0  0
 16 18  1  0  0  0  0
 18 20  1  0  0  0  0
 18 15  2  0  0  0  0
 19 17  2  0  0  0  0
 20 19  1  0  0  0  0
 21  1  1  0  0  0  0
 22 21  2  0  0  0  0
 23 24  2  0  0  0  0
 24 21  1  0  0  0  0
 25 23  1  0  0  0  0
 26 25  1  0  0  0  0
 27 26  1  0  0  0  0
 28 29  2  0  0  0  0
 29 31  1  0  0  0  0
 29 27  1  0  0  0  0
 30 34  1  0  0  0  0
 30 31  1  0  0  0  0
 32 30  2  0  0  0  0
 34 33  1  0  0  0  0
M  END
>  <MODEL>
4

>  <REMARK>
 VINA RESULT:      -7.0      3.819      6.554
  Name = 
  10 active torsions:
  status: ('A' for Active; 'I' for Inactive)
    1  A    between atoms: C_4  and  C_11
    2  A    between atoms: C_4  and  C_18
    3  A    between atoms: C_6  and  C_23
    4  A    between atoms: C_13  and  C_23
    5  A    between atoms: C_13  and  N_27
    6  A    between atoms: C_14  and  C_23
    7  A    between atoms: C_17  and  C_30
    8  A    between atoms: C_18  and  N_28
    9  A    between atoms: N_20  and  C_25
   10  A    between atoms: C_25  and  N_28
                            x       y       z     vdW  Elec       q    Type
                         _______ _______ _______ _____ _____    ______ ____

>  <TORSDO>
F 10

$$$$
=
 OpenBabel11042422113D

 34 36  0  0  1  0  0  0  0  0999 V2000
  161.5000  210.2060  149.6620 C   0  0  1  0  0  3  0  0  0  0  0  0
  160.8600  211.2680  151.7600 C   0  0  0  0  0  0  0  0  0  0  0  0
  157.1650  214.0880  151.7780 O   0  0  0  0  0  0  0  0  0  0  0  0
  157.8460  211.1210  155.3910 C   0  0  0  0  0  3  0  0  0  0  0  0
  157.9360  213.3110  152.3980 C   0  0  0  0  0  0  0  0  0  0  0  0
  161.7890  210.6860  151.0520 C   0  0  0  0  0  3  0  0  0  0  0  0
  159.9240  211.8590  152.4450 C   0  0  0  0  0  0  0  0  0  0  0  0
  158.3020  211.7270  154.3000 C   0  0  0  0  0  0  0  0  0  0  0  0
  159.3440  213.1350  151.9220 C   0  0  0  0  0  2  0  0  0  0  0  0
  156.5170  211.3350  155.8560 N   0  0  0  0  0  1  0  0  0  0  0  0
  159.7200  211.4830  153.8780 C   0  0  0  0  0  2  0  0  0  0  0  0
  157.4710  212.6410  153.5720 N   0  0  0  0  0  2  0  0  0  0  0  0
  161.6300  214.0710  146.8210 C   0  0  0  0  0  2  0  0  0  0  0  0
  160.1380  213.9200  147.1970 C   0  0  0  0  0  3  0  0  0  0  0  0
  162.0590  211.1300  148.6200 C   0  0  0  0  0  0  0  0  0  0  0  0
  159.9900  212.5820  147.9610 C   0  0  0  0  0  3  0  0  0  0  0  0
  163.4000  211.4670  148.4100 C   0  0  0  0  0  3  0  0  0  0  0  0
  161.3570  212.0380  147.8680 C   0  0  0  0  0  0  0  0  0  0  0  0
  163.4510  212.5370  147.5750 N   0  0  0  0  0  0  0  0  0  0  0  0
  162.2040  212.8220  147.2480 N   0  0  0  0  0  0  0  0  0  0  0  0
  161.9640  208.7890  149.4580 C   0  0  0  0  0  0  0  0  0  0  0  0
  162.6090  208.1780  150.3970 N   0  0  0  0  0  2  0  0  0  0  0  0
  162.2680  206.9560  147.9490 C   0  0  0  0  0  3  0  0  0  0  0  0
  161.7770  208.1280  148.2020 N   0  0  0  0  0  0  0  0  0  0  0  0
  162.0460  206.3100  146.6230 C   0  0  0  0  0  2  0  0  0  0  0  0
  161.2070  205.0490  146.7640 C   0  0  0  0  0  2  0  0  0  0  0  0
  161.8950  204.0830  147.6080 N   0  0  0  0  0  2  0  0  0  0  0  0
  160.8290  201.7170  148.2380 S   0  0  0  0  0  0  0  0  0  0  0  0
  161.2380  203.2740  148.5880 C   0  0  0  0  0  0  0  0  0  0  0  0
  161.1360  203.2510  151.1670 C   0  0  0  0  0  0  0  0  0  0  0  0
  160.9750  203.8520  149.8750 N   0  0  0  0  0  2  0  0  0  0  0  0
  161.4880  202.0500  151.2950 O   0  0  0  0  0  0  0  0  0  0  0  0
  161.2070  205.5050  152.1460 C   0  0  0  0  0  1  0  0  0  0  0  0
  160.8390  204.0540  152.3840 C   0  0  0  0  0  2  0  0  0  0  0  0
  1  6  1  1  0  0  0
  2  7  2  0  0  0  0
  3  5  2  0  0  0  0
  4 10  1  0  0  0  0
  5 12  1  0  0  0  0
  6  2  2  0  0  0  0
  7 11  1  0  0  0  0
  8  4  2  0  0  0  0
  9  5  1  0  0  0  0
  9  7  1  0  0  0  0
 11  8  1  0  0  0  0
 12  8  1  0  0  0  0
 13 14  1  0  0  0  0
 13 20  1  0  0  0  0
 14 16  2  0  0  0  0
 15  1  1  0  0  0  0
 17 15  1  0  0  0  0
 18 16  1  0  0  0  0
 18 15  2  0  0  0  0
 19 17  2  0  0  0  0
 20 19  1  0  0  0  0
 20 18  1  0  0  0  0
 21  1  1  0  0  0  0
 21 22  2  0  0  0  0
 23 24  2  0  0  0  0
 24 21  1  0  0  0  0
 25 26  1  0  0  0  0
 25 23  1  0  0  0  0
 26 27  1  0  0  0  0
 27 29  1  0  0  0  0
 28 29  2  0  0  0  0
 29 31  1  0  0  0  0
 30 32  2  0  0  0  0
 30 34  1  0  0  0  0
 31 30  1  0  0  0  0
 33 34  1  0  0  0  0
M  END
>  <MODEL>
5

>  <REMARK>
 VINA RESULT:      -6.6      2.558      4.253
  Name = 
  10 active torsions:
  status: ('A' for Active; 'I' for Inactive)
    1  A    between atoms: C_4  and  C_11
    2  A    between atoms: C_4  and  C_18
    3  A    between atoms: C_6  and  C_23
    4  A    between atoms: C_13  and  C_23
    5  A    between atoms: C_13  and  N_27
    6  A    between atoms: C_14  and  C_23
    7  A    between atoms: C_17  and  C_30
    8  A    between atoms: C_18  and  N_28
    9  A    between atoms: N_20  and  C_25
   10  A    between atoms: C_25  and  N_28
                            x       y       z     vdW  Elec       q    Type
                         _______ _______ _______ _____ _____    ______ ____

>  <TORSDO>
F 10

$$$$
=
 OpenBabel11042422113D

 34 36  0  0  1  0  0  0  0  0999 V2000
  160.1760  212.1870  153.1800 C   0  0  1  0  0  3  0  0  0  0  0  0
  159.4960  213.3490  151.1490 C   0  0  0  0  0  0  0  0  0  0  0  0
  162.6370  213.9340  147.7730 O   0  0  0  0  0  0  0  0  0  0  0  0
  158.1920  212.7960  146.6450 C   0  0  0  0  0  3  0  0  0  0  0  0
  161.4330  213.8280  148.1250 C   0  0  0  0  0  0  0  0  0  0  0  0
  159.2800  213.1110  152.4140 C   0  0  0  0  0  3  0  0  0  0  0  0
  159.7360  213.5840  149.8910 C   0  0  0  0  0  0  0  0  0  0  0  0
  159.0790  213.2140  147.5420 C   0  0  0  0  0  0  0  0  0  0  0  0
  161.0340  214.2240  149.5120 C   0  0  0  0  0  2  0  0  0  0  0  0
  158.5830  212.4660  145.3150 N   0  0  0  0  0  1  0  0  0  0  0  0
  158.6010  213.5720  148.9170 C   0  0  0  0  0  2  0  0  0  0  0  0
  160.4580  213.3750  147.1830 N   0  0  0  0  0  2  0  0  0  0  0  0
  157.5780  212.0690  157.2120 C   0  0  0  0  0  2  0  0  0  0  0  0
  156.5480  212.3660  156.1000 C   0  0  0  0  0  3  0  0  0  0  0  0
  159.9250  212.2560  154.6580 C   0  0  0  0  0  0  0  0  0  0  0  0
  157.3400  212.6060  154.7920 C   0  0  0  0  0  3  0  0  0  0  0  0
  160.7440  211.7780  155.6860 C   0  0  0  0  0  3  0  0  0  0  0  0
  158.7310  212.5350  155.2740 C   0  0  0  0  0  0  0  0  0  0  0  0
  160.0300  211.7770  156.8410 N   0  0  0  0  0  0  0  0  0  0  0  0
  158.8410  212.2730  156.5530 N   0  0  0  0  0  0  0  0  0  0  0  0
  160.0870  210.7750  152.6650 C   0  0  0  0  0  0  0  0  0  0  0  0
  159.1130  210.0110  153.0390 N   0  0  0  0  0  2  0  0  0  0  0  0
  161.2250  208.9630  151.5950 C   0  0  0  0  0  3  0  0  0  0  0  0
  161.1120  210.2320  151.8280 N   0  0  0  0  0  0  0  0  0  0  0  0
  162.3140  208.4460  150.7150 C   0  0  0  0  0  2  0  0  0  0  0  0
  161.9850  208.6760  149.2480 C   0  0  0  0  0  2  0  0  0  0  0  0
  162.3480  207.5040  148.4640 N   0  0  0  0  0  2  0  0  0  0  0  0
  160.8610  206.3020  146.6000 S   0  0  0  0  0  0  0  0  0  0  0  0
  161.4350  206.4530  148.1360 C   0  0  0  0  0  0  0  0  0  0  0  0
  161.1500  204.1020  149.1640 C   0  0  0  0  0  0  0  0  0  0  0  0
  161.0640  205.5330  149.1750 N   0  0  0  0  0  2  0  0  0  0  0  0
  161.5270  203.4730  148.1400 O   0  0  0  0  0  0  0  0  0  0  0  0
  161.0390  204.1550  151.6190 C   0  0  0  0  0  1  0  0  0  0  0  0
  160.7440  203.3400  150.3750 C   0  0  0  0  0  2  0  0  0  0  0  0
  1  6  1  6  0  0  0
  1 15  1  0  0  0  0
  2  6  2  0  0  0  0
  3  5  2  0  0  0  0
  4  8  2  0  0  0  0
  5  9  1  0  0  0  0
  7  2  2  0  0  0  0
  8 11  1  0  0  0  0
  9  7  1  0  0  0  0
 10  4  1  0  0  0  0
 11  7  1  0  0  0  0
 12  8  1  0  0  0  0
 12  5  1  0  0  0  0
 14 13  1  0  0  0  0
 15 18  2  0  0  0  0
 15 17  1  0  0  0  0
 16 18  1  0  0  0  0
 16 14  2  0  0  0  0
 17 19  2  0  0  0  0
 18 20  1  0  0  0  0
 20 19  1  0  0  0  0
 20 13  1  0  0  0  0
 21 22  2  0  0  0  0
 21  1  1  0  0  0  0
 23 24  2  0  0  0  0
 24 21  1  0  0  0  0
 25 23  1  0  0  0  0
 26 25  1  0  0  0  0
 27 26  1  0  0  0  0
 28 29  2  0  0  0  0
 29 27  1  0  0  0  0
 29 31  1  0  0  0  0
 30 31  1  0  0  0  0
 30 34  1  0  0  0  0
 32 30  2  0  0  0  0
 34 33  1  0  0  0  0
M  END
>  <MODEL>
6

>  <REMARK>
 VINA RESULT:      -6.5      3.113      6.164
  Name = 
  10 active torsions:
  status: ('A' for Active; 'I' for Inactive)
    1  A    between atoms: C_4  and  C_11
    2  A    between atoms: C_4  and  C_18
    3  A    between atoms: C_6  and  C_23
    4  A    between atoms: C_13  and  C_23
    5  A    between atoms: C_13  and  N_27
    6  A    between atoms: C_14  and  C_23
    7  A    between atoms: C_17  and  C_30
    8  A    between atoms: C_18  and  N_28
    9  A    between atoms: N_20  and  C_25
   10  A    between atoms: C_25  and  N_28
                            x       y       z     vdW  Elec       q    Type
                         _______ _______ _______ _____ _____    ______ ____

>  <TORSDO>
F 10

$$$$
=
 OpenBabel11042422113D

 34 36  0  0  1  0  0  0  0  0999 V2000
  161.6500  210.3890  149.7280 C   0  0  1  0  0  3  0  0  0  0  0  0
  161.7400  210.6880  152.1440 C   0  0  0  0  0  0  0  0  0  0  0  0
  157.7640  211.4520  154.4300 O   0  0  0  0  0  0  0  0  0  0  0  0
  161.0210  208.5950  156.3150 C   0  0  0  0  0  3  0  0  0  0  0  0
  158.9490  211.0280  154.4310 C   0  0  0  0  0  0  0  0  0  0  0  0
  162.3670  210.7190  151.0010 C   0  0  0  0  0  3  0  0  0  0  0  0
  161.0920  210.6650  153.2740 C   0  0  0  0  0  0  0  0  0  0  0  0
  160.6770  209.5080  155.4130 C   0  0  0  0  0  0  0  0  0  0  0  0
  159.9370  211.5980  153.4610 C   0  0  0  0  0  2  0  0  0  0  0  0
  160.0800  208.0970  157.2610 N   0  0  0  0  0  1  0  0  0  0  0  0
  161.7220  210.0140  154.4640 C   0  0  0  0  0  2  0  0  0  0  0  0
  159.3470  210.0410  155.3870 N   0  0  0  0  0  2  0  0  0  0  0  0
  161.0310  214.2170  146.9010 C   0  0  0  0  0  2  0  0  0  0  0  0
  159.6200  213.9130  147.4500 C   0  0  0  0  0  3  0  0  0  0  0  0
  161.9810  211.3570  148.6290 C   0  0  0  0  0  0  0  0  0  0  0  0
  159.7060  212.5740  148.2230 C   0  0  0  0  0  3  0  0  0  0  0  0
  163.2440  211.8320  148.2620 C   0  0  0  0  0  3  0  0  0  0  0  0
  161.1020  212.1770  147.9680 C   0  0  0  0  0  0  0  0  0  0  0  0
  163.0820  212.8920  147.4300 N   0  0  0  0  0  0  0  0  0  0  0  0
  161.7820  213.0400  147.2530 N   0  0  0  0  0  0  0  0  0  0  0  0
  161.8930  208.9640  149.3080 C   0  0  0  0  0  0  0  0  0  0  0  0
  162.3380  208.7060  148.1210 N   0  0  0  0  0  2  0  0  0  0  0  0
  162.4550  207.1830  150.8040 C   0  0  0  0  0  3  0  0  0  0  0  0
  161.5600  207.8750  150.1740 N   0  0  0  0  0  0  0  0  0  0  0  0
  162.0560  206.0560  151.6950 C   0  0  0  0  0  2  0  0  0  0  0  0
  160.8260  205.3420  151.1550 C   0  0  0  0  0  2  0  0  0  0  0  0
  161.2080  204.0720  150.5540 N   0  0  0  0  0  2  0  0  0  0  0  0
  160.8320  202.1580  148.7310 S   0  0  0  0  0  0  0  0  0  0  0  0
  160.9690  203.7350  149.1850 C   0  0  0  0  0  0  0  0  0  0  0  0
  161.5930  205.0460  147.0500 C   0  0  0  0  0  0  0  0  0  0  0  0
  160.8300  204.8080  148.2410 N   0  0  0  0  0  2  0  0  0  0  0  0
  162.5690  204.3150  146.7370 O   0  0  0  0  0  0  0  0  0  0  0  0
  160.5130  205.7320  144.9510 C   0  0  0  0  0  1  0  0  0  0  0  0
  161.2490  206.2080  146.1870 C   0  0  0  0  0  2  0  0  0  0  0  0
  1  6  1  1  0  0  0
  2  7  2  0  0  0  0
  3  5  2  0  0  0  0
  4 10  1  0  0  0  0
  5 12  1  0  0  0  0
  6  2  2  0  0  0  0
  7  9  1  0  0  0  0
  7 11  1  0  0  0  0
  8  4  2  0  0  0  0
  9  5  1  0  0  0  0
 11  8  1  0  0  0  0
 12  8  1  0  0  0  0
 13 20  1  0  0  0  0
 13 14  1  0  0  0  0
 14 16  2  0  0  0  0
 15  1  1  0  0  0  0
 17 15  1  0  0  0  0
 18 16  1  0  0  0  0
 18 15  2  0  0  0  0
 19 17  2  0  0  0  0
 20 19  1  0  0  0  0
 20 18  1  0  0  0  0
 21  1  1  0  0  0  0
 21 24  1  0  0  0  0
 22 21  2  0  0  0  0
 23 25  1  0  0  0  0
 24 23  2  0  0  0  0
 26 25  1  0  0  0  0
 27 26  1  0  0  0  0
 28 29  2  0  0  0  0
 29 27  1  0  0  0  0
 30 31  1  0  0  0  0
 31 29  1  0  0  0  0
 32 30  2  0  0  0  0
 33 34  1  0  0  0  0
 34 30  1  0  0  0  0
M  END
>  <MODEL>
7

>  <REMARK>
 VINA RESULT:      -6.5      2.695      4.190
  Name = 
  10 active torsions:
  status: ('A' for Active; 'I' for Inactive)
    1  A    between atoms: C_4  and  C_11
    2  A    between atoms: C_4  and  C_18
    3  A    between atoms: C_6  and  C_23
    4  A    between atoms: C_13  and  C_23
    5  A    between atoms: C_13  and  N_27
    6  A    between atoms: C_14  and  C_23
    7  A    between atoms: C_17  and  C_30
    8  A    between atoms: C_18  and  N_28
    9  A    between atoms: N_20  and  C_25
   10  A    between atoms: C_25  and  N_28
                            x       y       z     vdW  Elec       q    Type
                         _______ _______ _______ _____ _____    ______ ____

>  <TORSDO>
F 10

$$$$
=
 OpenBabel11042422113D

 34 36  0  0  1  0  0  0  0  0999 V2000
  160.8230  207.6860  152.5200 C   0  0  1  0  0  3  0  0  0  0  0  0
  160.2860  209.7660  153.6700 C   0  0  0  0  0  0  0  0  0  0  0  0
  158.3600  213.2170  151.2220 O   0  0  0  0  0  0  0  0  0  0  0  0
  156.8110  212.3180  155.5940 C   0  0  0  0  0  3  0  0  0  0  0  0
  158.5380  212.6430  152.3270 C   0  0  0  0  0  0  0  0  0  0  0  0
  160.9820  208.6630  153.6440 C   0  0  0  0  0  3  0  0  0  0  0  0
  159.5920  210.8680  153.6700 C   0  0  0  0  0  0  0  0  0  0  0  0
  157.7200  212.1500  154.6390 C   0  0  0  0  0  0  0  0  0  0  0  0
  159.7820  211.8400  152.5480 C   0  0  0  0  0  2  0  0  0  0  0  0
  155.6550  213.1240  155.3820 N   0  0  0  0  0  1  0  0  0  0  0  0
  158.9290  211.3130  154.9340 C   0  0  0  0  0  2  0  0  0  0  0  0
  157.5740  212.8020  153.3710 N   0  0  0  0  0  2  0  0  0  0  0  0
  161.6340  208.0210  147.8020 C   0  0  0  0  0  2  0  0  0  0  0  0
  160.8160  206.7200  147.9600 C   0  0  0  0  0  3  0  0  0  0  0  0
  161.5190  208.1470  151.2720 C   0  0  0  0  0  0  0  0  0  0  0  0
  160.6780  206.4450  149.4770 C   0  0  0  0  0  3  0  0  0  0  0  0
  162.0650  209.4080  151.0160 C   0  0  0  0  0  3  0  0  0  0  0  0
  161.5000  207.5270  150.0470 C   0  0  0  0  0  0  0  0  0  0  0  0
  162.3350  209.5010  149.6880 N   0  0  0  0  0  0  0  0  0  0  0  0
  162.0140  208.3370  149.1540 N   0  0  0  0  0  0  0  0  0  0  0  0
  161.2580  206.3020  152.9220 C   0  0  0  0  0  0  0  0  0  0  0  0
  162.0650  206.1420  153.9200 N   0  0  0  0  0  2  0  0  0  0  0  0
  161.2830  203.9610  152.4260 C   0  0  0  0  0  3  0  0  0  0  0  0
  160.8590  205.1560  152.1630 N   0  0  0  0  0  0  0  0  0  0  0  0
  160.8370  202.7990  151.6030 C   0  0  0  0  0  2  0  0  0  0  0  0
  160.5660  203.2200  150.1670 C   0  0  0  0  0  2  0  0  0  0  0  0
  160.5130  202.0480  149.3040 N   0  0  0  0  0  2  0  0  0  0  0  0
  161.5840  203.3130  147.2110 S   0  0  0  0  0  0  0  0  0  0  0  0
  161.1980  201.9510  148.0520 C   0  0  0  0  0  0  0  0  0  0  0  0
  161.2060  200.0300  146.3280 C   0  0  0  0  0  0  0  0  0  0  0  0
  161.5530  200.6440  147.5770 N   0  0  0  0  0  2  0  0  0  0  0  0
  160.4460  200.6010  145.5030 O   0  0  0  0  0  0  0  0  0  0  0  0
  160.9200  198.0610  144.8840 C   0  0  0  0  0  1  0  0  0  0  0  0
  161.7190  198.6680  146.0210 C   0  0  0  0  0  2  0  0  0  0  0  0
  1 21  1  0  0  0  0
  1  6  1  1  0  0  0
  3  5  2  0  0  0  0
  5  9  1  0  0  0  0
  5 12  1  0  0  0  0
  6  2  2  0  0  0  0
  7  2  2  0  0  0  0
  7 11  1  0  0  0  0
  8 11  1  0  0  0  0
  8  4  2  0  0  0  0
  9  7  1  0  0  0  0
 10  4  1  0  0  0  0
 12  8  1  0  0  0  0
 13 14  1  0  0  0  0
 13 20  1  0  0  0  0
 14 16  2  0  0  0  0
 15  1  1  0  0  0  0
 16 18  1  0  0  0  0
 17 15  1  0  0  0  0
 18 15  2  0  0  0  0
 19 17  2  0  0  0  0
 20 19  1  0  0  0  0
 20 18  1  0  0  0  0
 21 22  2  0  0  0  0
 24 23  2  0  0  0  0
 24 21  1  0  0  0  0
 25 23  1  0  0  0  0
 26 25  1  0  0  0  0
 27 26  1  0  0  0  0
 28 29  2  0  0  0  0
 29 27  1  0  0  0  0
 30 31  1  0  0  0  0
 31 29  1  0  0  0  0
 32 30  2  0  0  0  0
 33 34  1  0  0  0  0
 34 30  1  0  0  0  0
M  END
>  <MODEL>
8

>  <REMARK>
 VINA RESULT:      -6.4      1.709      2.017
  Name = 
  10 active torsions:
  status: ('A' for Active; 'I' for Inactive)
    1  A    between atoms: C_4  and  C_11
    2  A    between atoms: C_4  and  C_18
    3  A    between atoms: C_6  and  C_23
    4  A    between atoms: C_13  and  C_23
    5  A    between atoms: C_13  and  N_27
    6  A    between atoms: C_14  and  C_23
    7  A    between atoms: C_17  and  C_30
    8  A    between atoms: C_18  and  N_28
    9  A    between atoms: N_20  and  C_25
   10  A    between atoms: C_25  and  N_28
                            x       y       z     vdW  Elec       q    Type
                         _______ _______ _______ _____ _____    ______ ____

>  <TORSDO>
F 10

$$$$
=
 OpenBabel11042422113D

 34 36  0  0  1  0  0  0  0  0999 V2000
  161.7080  207.2070  151.6040 C   0  0  1  0  0  3  0  0  0  0  0  0
  160.8100  205.7410  149.8770 C   0  0  0  0  0  0  0  0  0  0  0  0
  163.4710  204.7730  146.1900 O   0  0  0  0  0  0  0  0  0  0  0  0
  160.8600  201.3510  148.1400 C   0  0  0  0  0  3  0  0  0  0  0  0
  162.5340  204.4460  146.9650 C   0  0  0  0  0  0  0  0  0  0  0  0
  160.5770  206.5470  150.8760 C   0  0  0  0  0  3  0  0  0  0  0  0
  161.0630  204.9510  148.8730 C   0  0  0  0  0  0  0  0  0  0  0  0
  161.1560  202.6400  148.0140 C   0  0  0  0  0  0  0  0  0  0  0  0
  161.7570  205.5120  147.6720 C   0  0  0  0  0  2  0  0  0  0  0  0
  161.5810  200.3520  147.4240 N   0  0  0  0  0  1  0  0  0  0  0  0
  160.3410  203.6450  148.7720 C   0  0  0  0  0  2  0  0  0  0  0  0
  162.1970  203.0650  147.1250 N   0  0  0  0  0  2  0  0  0  0  0  0
  161.4740  211.4760  149.4250 C   0  0  0  0  0  2  0  0  0  0  0  0
  162.0340  210.5230  148.3450 C   0  0  0  0  0  3  0  0  0  0  0  0
  161.6390  208.7040  151.5120 C   0  0  0  0  0  0  0  0  0  0  0  0
  162.3150  209.1650  149.0310 C   0  0  0  0  0  3  0  0  0  0  0  0
  160.9390  209.5780  152.3490 C   0  0  0  0  0  3  0  0  0  0  0  0
  162.0020  209.4760  150.4370 C   0  0  0  0  0  0  0  0  0  0  0  0
  160.8990  210.8010  151.7600 N   0  0  0  0  0  0  0  0  0  0  0  0
  161.5810  210.7020  150.6340 N   0  0  0  0  0  0  0  0  0  0  0  0
  161.7960  206.7390  153.0320 C   0  0  0  0  0  0  0  0  0  0  0  0
  162.3480  205.6030  153.3070 N   0  0  0  0  0  2  0  0  0  0  0  0
  160.4720  206.9530  155.0140 C   0  0  0  0  0  3  0  0  0  0  0  0
  161.2020  207.4950  154.0920 N   0  0  0  0  0  0  0  0  0  0  0  0
  159.8730  207.7860  156.0970 C   0  0  0  0  0  2  0  0  0  0  0  0
  160.5000  209.1710  156.1290 C   0  0  0  0  0  2  0  0  0  0  0  0
  159.8360  209.9980  157.1280 N   0  0  0  0  0  2  0  0  0  0  0  0
  160.4540  212.5920  157.0000 S   0  0  0  0  0  0  0  0  0  0  0  0
  159.3950  211.3360  156.8860 C   0  0  0  0  0  0  0  0  0  0  0  0
  157.4240  211.4370  155.2220 C   0  0  0  0  0  0  0  0  0  0  0  0
  158.0210  211.5380  156.5220 N   0  0  0  0  0  2  0  0  0  0  0  0
  158.1170  211.2080  154.1960 O   0  0  0  0  0  0  0  0  0  0  0  0
  155.2480  210.3140  155.0120 C   0  0  0  0  0  1  0  0  0  0  0  0
  155.9590  211.6510  155.0760 C   0  0  0  0  0  2  0  0  0  0  0  0
  1  6  1  1  0  0  0
  1 21  1  0  0  0  0
  2  6  2  0  0  0  0
  3  5  2  0  0  0  0
  5 12  1  0  0  0  0
  5  9  1  0  0  0  0
  7  2  2  0  0  0  0
  8  4  2  0  0  0  0
  8 11  1  0  0  0  0
  9  7  1  0  0  0  0
 10  4  1  0  0  0  0
 11  7  1  0  0  0  0
 12  8  1  0  0  0  0
 13 20  1  0  0  0  0
 14 16  2  0  0  0  0
 14 13  1  0  0  0  0
 15  1  1  0  0  0  0
 15 17  1  0  0  0  0
 16 18  1  0  0  0  0
 18 20  1  0  0  0  0
 18 15  2  0  0  0  0
 19 17  2  0  0  0  0
 20 19  1  0  0  0  0
 21 22  2  0  0  0  0
 21 24  1  0  0  0  0
 23 25  1  0  0  0  0
 24 23  2  0  0  0  0
 25 26  1  0  0  0  0
 26 27  1  0  0  0  0
 29 28  2  0  0  0  0
 29 27  1  0  0  0  0
 30 31  1  0  0  0  0
 31 29  1  0  0  0  0
 32 30  2  0  0  0  0
 33 34  1  0  0  0  0
 34 30  1  0  0  0  0
M  END
>  <MODEL>
9

>  <REMARK>
 VINA RESULT:      -6.4      3.413      9.085
  Name = 
  10 active torsions:
  status: ('A' for Active; 'I' for Inactive)
    1  A    between atoms: C_4  and  C_11
    2  A    between atoms: C_4  and  C_18
    3  A    between atoms: C_6  and  C_23
    4  A    between atoms: C_13  and  C_23
    5  A    between atoms: C_13  and  N_27
    6  A    between atoms: C_14  and  C_23
    7  A    between atoms: C_17  and  C_30
    8  A    between atoms: C_18  and  N_28
    9  A    between atoms: N_20  and  C_25
   10  A    between atoms: C_25  and  N_28
                            x       y       z     vdW  Elec       q    Type
                         _______ _______ _______ _____ _____    ______ ____

>  <TORSDO>
F 10

$$$$
