=
 OpenBabel11052410553D

 30 31  0  0  1  0  0  0  0  0999 V2000
  160.7450  206.5550  148.6130 C   0  0  2  0  0  3  0  0  0  0  0  0
  161.0600  205.6610  152.1790 C   0  0  2  0  0  3  0  0  0  0  0  0
  160.7000  203.4980  150.4220 N   0  0  0  0  0  0  0  0  0  0  0  0
  161.0470  204.6510  149.9320 C   0  0  0  0  0  0  0  0  0  0  0  0
  161.5780  208.1750  150.3400 C   0  0  0  0  0  2  0  0  0  0  0  0
  161.0750  204.2370  152.6810 C   0  0  0  0  0  3  0  0  0  0  0  0
  161.2940  206.9250  149.9690 C   0  0  0  0  0  0  0  0  0  0  0  0
  160.8720  203.2270  151.8230 C   0  0  0  0  0  3  0  0  0  0  0  0
  160.5950  205.1070  148.6670 N   0  0  0  0  0  2  0  0  0  0  0  0
  161.6660  205.7170  150.7690 C   0  0  1  0  0  3  0  0  0  0  0  0
  161.7180  206.9160  147.4980 C   0  0  0  0  0  2  0  0  0  0  0  0
  162.3700  205.7700  147.0410 O   0  0  0  0  0  0  0  0  0  0  0  0
  162.3110  205.8600  145.6530 C   0  0  0  0  0  2  0  0  0  0  0  0
  160.8810  205.6560  145.2030 C   0  0  0  0  0  2  0  0  0  0  0  0
  160.7270  204.2790  144.5920 C   0  0  0  0  0  2  0  0  0  0  0  0
  161.5700  203.3870  145.2570 O   0  0  0  0  0  0  0  0  0  0  0  0
  160.7460  202.3140  145.6060 C   0  0  0  0  0  2  0  0  0  0  0  0
  161.3580  200.5870  148.9560 N   0  0  0  0  0  1  0  0  0  0  0  0
  160.8640  202.0510  147.0350 N   0  0  0  0  0  2  0  0  0  0  0  0
  161.2500  200.7760  147.5500 C   0  0  0  0  0  0  0  0  0  0  0  0
  161.4990  199.8180  146.7700 O   0  0  0  0  0  0  0  0  0  0  0  0
  161.8220  206.5010  153.0850 N   0  0  0  0  0  2  0  0  0  0  0  0
  160.7130  207.4550  155.2400 C   0  0  0  0  0  0  0  0  0  0  0  0
  161.2250  207.0150  154.2430 C   0  0  0  0  0  0  0  0  0  0  0  0
  160.0920  207.9920  156.4540 C   0  0  0  0  0  2  0  0  0  0  0  0
  160.2720  209.5000  156.5120 C   0  0  2  0  0  3  0  0  0  0  0  0
  159.5450  210.1110  155.4860 O   0  0  0  0  0  1  0  0  0  0  0  0
  161.7180  209.8490  156.3930 C   0  0  0  0  0  0  0  0  0  0  0  0
  162.5450  209.4590  157.2610 O   0  0  0  0  0  1  0  0  0  0  0  0
  162.1500  210.6280  155.3290 O   0  0  0  0  0  0  0  0  0  0  0  0
  1 11  1  6  0  0  0
  1  9  1  0  0  0  0
  1  7  1  0  0  0  0
  2  6  1  0  0  0  0
  2 22  1  1  0  0  0
  3  8  1  0  0  0  0
  4  3  2  0  0  0  0
  7  5  2  0  0  0  0
  7 10  1  0  0  0  0
  8  6  2  0  0  0  0
  9  4  1  0  0  0  0
 10  4  1  6  0  0  0
 10  2  1  0  0  0  0
 12 11  1  0  0  0  0
 13 12  1  0  0  0  0
 14 13  1  0  0  0  0
 15 14  1  0  0  0  0
 15 16  1  0  0  0  0
 16 17  1  0  0  0  0
 17 19  1  0  0  0  0
 19 20  1  0  0  0  0
 20 18  1  0  0  0  0
 21 20  2  0  0  0  0
 22 24  1  0  0  0  0
 23 25  1  0  0  0  0
 24 23  3  0  0  0  0
 25 26  1  0  0  0  0
 26 27  1  6  0  0  0
 28 26  1  0  0  0  0
 28 29  1  0  0  0  0
 30 28  2  0  0  0  0
M  END
>  <MODEL>
1

>  <REMARK>
 VINA RESULT:      -7.3      0.000      0.000
  Name = 
  13 active torsions:
  status: ('A' for Active; 'I' for Inactive)
    1  A    between atoms: C_1  and  C_8
    2  A    between atoms: C_2  and  C_24
    3  A    between atoms: C_3  and  N_30
    4  A    between atoms: O_5  and  C_20
    5  A    between atoms: O_5  and  C_26
    6  A    between atoms: C_7  and  C_8
    7  A    between atoms: C_7  and  C_11
    8  A    between atoms: N_9  and  C_26
    9  A    between atoms: C_20  and  C_21
   10  A    between atoms: C_21  and  C_25
   11  A    between atoms: C_24  and  O_27
   12  A    between atoms: C_25  and  O_27
   13  A    between atoms: C_29  and  N_30
                            x       y       z     vdW  Elec       q    Type
                         _______ _______ _______ _____ _____    ______ ____

>  <TORSDO>
F 13

$$$$
=
 OpenBabel11052410553D

 30 31  0  0  1  0  0  0  0  0999 V2000
  161.4940  204.3230  150.4330 C   0  0  2  0  0  3  0  0  0  0  0  0
  162.0600  207.8880  151.1930 C   0  0  2  0  0  3  0  0  0  0  0  0
  161.6790  207.2820  148.4760 N   0  0  0  0  0  0  0  0  0  0  0  0
  161.3450  206.3960  149.3680 C   0  0  0  0  0  0  0  0  0  0  0  0
  161.3520  205.2420  152.7640 C   0  0  0  0  0  2  0  0  0  0  0  0
  162.0190  208.9780  150.1490 C   0  0  0  0  0  3  0  0  0  0  0  0
  161.3800  205.4360  151.4450 C   0  0  0  0  0  0  0  0  0  0  0  0
  161.8640  208.6550  148.8560 C   0  0  0  0  0  3  0  0  0  0  0  0
  161.4860  205.0020  149.1450 N   0  0  0  0  0  2  0  0  0  0  0  0
  161.1030  206.7550  150.7940 C   0  0  1  0  0  3  0  0  0  0  0  0
  160.3020  203.3760  150.5070 C   0  0  0  0  0  2  0  0  0  0  0  0
  160.7430  202.0550  150.5780 O   0  0  0  0  0  0  0  0  0  0  0  0
  160.1110  201.4140  149.5140 C   0  0  0  0  0  2  0  0  0  0  0  0
  161.1580  200.9000  148.5510 C   0  0  0  0  0  2  0  0  0  0  0  0
  161.3210  201.8730  147.4030 C   0  0  0  0  0  2  0  0  0  0  0  0
  160.7590  201.3190  146.2510 O   0  0  0  0  0  0  0  0  0  0  0  0
  160.6260  202.3940  145.3690 C   0  0  0  0  0  2  0  0  0  0  0  0
  162.4800  205.7280  145.5170 N   0  0  0  0  0  1  0  0  0  0  0  0
  161.5050  203.4800  145.7840 N   0  0  0  0  0  2  0  0  0  0  0  0
  161.6120  204.7020  145.0520 C   0  0  0  0  0  0  0  0  0  0  0  0
  160.9420  204.8800  143.9990 O   0  0  0  0  0  0  0  0  0  0  0  0
  161.6740  208.4380  152.4800 N   0  0  0  0  0  2  0  0  0  0  0  0
  159.9630  210.3970  152.6120 C   0  0  0  0  0  0  0  0  0  0  0  0
  160.7550  209.4920  152.5510 C   0  0  0  0  0  0  0  0  0  0  0  0
  158.9980  211.4980  152.6880 C   0  0  0  0  0  2  0  0  0  0  0  0
  158.9790  212.0810  154.0910 C   0  0  2  0  0  3  0  0  0  0  0  0
  160.2770  212.1350  154.6080 O   0  0  0  0  0  1  0  0  0  0  0  0
  158.1080  211.2550  154.9780 C   0  0  0  0  0  0  0  0  0  0  0  0
  158.5910  210.6680  155.9830 O   0  0  0  0  0  1  0  0  0  0  0  0
  156.7600  211.1150  154.6780 O   0  0  0  0  0  0  0  0  0  0  0  0
  1 11  1  6  0  0  0
  1  7  1  0  0  0  0
  2 22  1  1  0  0  0
  3  8  1  0  0  0  0
  3  4  2  0  0  0  0
  6  2  1  0  0  0  0
  7  5  2  0  0  0  0
  8  6  2  0  0  0  0
  9  4  1  0  0  0  0
  9  1  1  0  0  0  0
 10  4  1  6  0  0  0
 10  2  1  0  0  0  0
 10  7  1  0  0  0  0
 11 12  1  0  0  0  0
 13 12  1  0  0  0  0
 14 13  1  0  0  0  0
 15 14  1  0  0  0  0
 16 15  1  0  0  0  0
 17 19  1  0  0  0  0
 17 16  1  0  0  0  0
 20 18  1  0  0  0  0
 20 19  1  0  0  0  0
 21 20  2  0  0  0  0
 22 24  1  0  0  0  0
 23 25  1  0  0  0  0
 24 23  3  0  0  0  0
 25 26  1  0  0  0  0
 26 27  1  1  0  0  0
 26 28  1  0  0  0  0
 28 29  1  0  0  0  0
 30 28  2  0  0  0  0
M  END
>  <MODEL>
2

>  <REMARK>
 VINA RESULT:      -7.1      2.280      4.147
  Name = 
  13 active torsions:
  status: ('A' for Active; 'I' for Inactive)
    1  A    between atoms: C_1  and  C_8
    2  A    between atoms: C_2  and  C_24
    3  A    between atoms: C_3  and  N_30
    4  A    between atoms: O_5  and  C_20
    5  A    between atoms: O_5  and  C_26
    6  A    between atoms: C_7  and  C_8
    7  A    between atoms: C_7  and  C_11
    8  A    between atoms: N_9  and  C_26
    9  A    between atoms: C_20  and  C_21
   10  A    between atoms: C_21  and  C_25
   11  A    between atoms: C_24  and  O_27
   12  A    between atoms: C_25  and  O_27
   13  A    between atoms: C_29  and  N_30
                            x       y       z     vdW  Elec       q    Type
                         _______ _______ _______ _____ _____    ______ ____

>  <TORSDO>
F 13

$$$$
=
 OpenBabel11052410553D

 30 31  0  0  1  0  0  0  0  0999 V2000
  160.8570  206.6560  148.5570 C   0  0  2  0  0  3  0  0  0  0  0  0
  161.0830  206.3720  152.2290 C   0  0  2  0  0  3  0  0  0  0  0  0
  160.7580  203.9450  150.8510 N   0  0  0  0  0  0  0  0  0  0  0  0
  161.1210  205.0000  150.1830 C   0  0  0  0  0  0  0  0  0  0  0  0
  161.6550  208.5430  150.0080 C   0  0  0  0  0  2  0  0  0  0  0  0
  161.0820  205.0530  152.9630 C   0  0  0  0  0  3  0  0  0  0  0  0
  161.3750  207.2490  149.8450 C   0  0  0  0  0  0  0  0  0  0  0  0
  160.8960  203.9130  152.2810 C   0  0  0  0  0  3  0  0  0  0  0  0
  160.7010  205.2380  148.8490 N   0  0  0  0  0  2  0  0  0  0  0  0
  161.7240  206.1910  150.8450 C   0  0  1  0  0  3  0  0  0  0  0  0
  161.8590  206.8260  147.4210 C   0  0  0  0  0  2  0  0  0  0  0  0
  162.4000  205.5890  147.0710 O   0  0  0  0  0  0  0  0  0  0  0  0
  162.4400  205.6030  145.6790 C   0  0  0  0  0  2  0  0  0  0  0  0
  161.0300  205.5200  145.1390 C   0  0  0  0  0  2  0  0  0  0  0  0
  160.7030  204.0870  144.7750 C   0  0  0  0  0  2  0  0  0  0  0  0
  161.5940  203.2350  145.4290 O   0  0  0  0  0  0  0  0  0  0  0  0
  160.8160  202.1450  145.8270 C   0  0  0  0  0  2  0  0  0  0  0  0
  161.1350  200.9250  149.4310 N   0  0  0  0  0  1  0  0  0  0  0  0
  160.7740  202.0790  147.2820 N   0  0  0  0  0  2  0  0  0  0  0  0
  161.1900  200.9220  148.0090 C   0  0  0  0  0  0  0  0  0  0  0  0
  161.6060  199.8990  147.4030 O   0  0  0  0  0  0  0  0  0  0  0  0
  161.8270  207.3530  153.0000 N   0  0  0  0  0  2  0  0  0  0  0  0
  160.5760  209.0360  154.5440 C   0  0  0  0  0  0  0  0  0  0  0  0
  161.1530  208.2570  153.8310 C   0  0  0  0  0  0  0  0  0  0  0  0
  159.8720  209.9860  155.4100 C   0  0  0  0  0  2  0  0  0  0  0  0
  159.8100  211.3520  154.7470 C   0  0  2  0  0  3  0  0  0  0  0  0
  159.8200  212.3590  155.7180 O   0  0  0  0  0  1  0  0  0  0  0  0
  158.5790  211.4610  153.9100 C   0  0  0  0  0  0  0  0  0  0  0  0
  157.4470  211.5870  154.4490 O   0  0  0  0  0  1  0  0  0  0  0  0
  158.6830  211.4000  152.5280 O   0  0  0  0  0  0  0  0  0  0  0  0
  1 11  1  6  0  0  0
  1  9  1  0  0  0  0
  1  7  1  0  0  0  0
  2  6  1  0  0  0  0
  2 22  1  1  0  0  0
  3  8  1  0  0  0  0
  4 10  1  0  0  0  0
  4  3  2  0  0  0  0
  7  5  2  0  0  0  0
  8  6  2  0  0  0  0
  9  4  1  0  0  0  0
 10  7  1  6  0  0  0
 10  2  1  0  0  0  0
 12 11  1  0  0  0  0
 13 12  1  0  0  0  0
 14 13  1  0  0  0  0
 15 14  1  0  0  0  0
 15 16  1  0  0  0  0
 16 17  1  0  0  0  0
 17 19  1  0  0  0  0
 19 20  1  0  0  0  0
 20 18  1  0  0  0  0
 21 20  2  0  0  0  0
 22 24  1  0  0  0  0
 23 25  1  0  0  0  0
 24 23  3  0  0  0  0
 26 25  1  0  0  0  0
 26 27  1  1  0  0  0
 28 29  1  0  0  0  0
 28 26  1  0  0  0  0
 30 28  2  0  0  0  0
M  END
>  <MODEL>
3

>  <REMARK>
 VINA RESULT:      -7.0      1.362      1.869
  Name = 
  13 active torsions:
  status: ('A' for Active; 'I' for Inactive)
    1  A    between atoms: C_1  and  C_8
    2  A    between atoms: C_2  and  C_24
    3  A    between atoms: C_3  and  N_30
    4  A    between atoms: O_5  and  C_20
    5  A    between atoms: O_5  and  C_26
    6  A    between atoms: C_7  and  C_8
    7  A    between atoms: C_7  and  C_11
    8  A    between atoms: N_9  and  C_26
    9  A    between atoms: C_20  and  C_21
   10  A    between atoms: C_21  and  C_25
   11  A    between atoms: C_24  and  O_27
   12  A    between atoms: C_25  and  O_27
   13  A    between atoms: C_29  and  N_30
                            x       y       z     vdW  Elec       q    Type
                         _______ _______ _______ _____ _____    ______ ____

>  <TORSDO>
F 13

$$$$
=
 OpenBabel11052410553D

 30 31  0  0  1  0  0  0  0  0999 V2000
  161.1560  203.0950  149.5040 C   0  0  2  0  0  3  0  0  0  0  0  0
  161.7240  205.9880  151.7220 C   0  0  2  0  0  3  0  0  0  0  0  0
  161.0380  206.6190  149.0710 N   0  0  0  0  0  0  0  0  0  0  0  0
  160.8330  205.4080  149.5000 C   0  0  0  0  0  0  0  0  0  0  0  0
  161.2690  202.8760  152.0020 C   0  0  0  0  0  2  0  0  0  0  0  0
  161.5340  207.4210  151.2860 C   0  0  0  0  0  3  0  0  0  0  0  0
  161.1370  203.6350  150.9130 C   0  0  0  0  0  0  0  0  0  0  0  0
  161.2340  207.6920  150.0070 C   0  0  0  0  0  3  0  0  0  0  0  0
  160.9790  204.2710  148.6630 N   0  0  0  0  0  2  0  0  0  0  0  0
  160.7540  205.0810  150.9510 C   0  0  1  0  0  3  0  0  0  0  0  0
  160.0030  202.1280  149.2600 C   0  0  0  0  0  2  0  0  0  0  0  0
  160.4920  200.8330  149.0890 O   0  0  0  0  0  0  0  0  0  0  0  0
  161.4670  200.9520  148.1020 C   0  0  0  0  0  2  0  0  0  0  0  0
  160.8430  200.6790  146.7510 C   0  0  0  0  0  2  0  0  0  0  0  0
  161.0030  201.8910  145.8580 C   0  0  0  0  0  2  0  0  0  0  0  0
  159.8970  201.9850  145.0120 O   0  0  0  0  0  0  0  0  0  0  0  0
  159.9300  203.2940  144.5260 C   0  0  0  0  0  2  0  0  0  0  0  0
  162.3060  205.9820  145.8340 N   0  0  0  0  0  1  0  0  0  0  0  0
  161.1100  203.9770  145.0410 N   0  0  0  0  0  2  0  0  0  0  0  0
  161.1240  205.3770  145.3230 C   0  0  0  0  0  0  0  0  0  0  0  0
  160.0980  206.0810  145.1250 O   0  0  0  0  0  0  0  0  0  0  0  0
  161.4800  205.8810  153.1490 N   0  0  0  0  0  2  0  0  0  0  0  0
  160.9000  208.0020  154.5460 C   0  0  0  0  0  0  0  0  0  0  0  0
  161.1690  207.0220  153.9000 C   0  0  0  0  0  0  0  0  0  0  0  0
  160.5710  209.1940  155.3330 C   0  0  0  0  0  2  0  0  0  0  0  0
  161.4760  210.3490  154.9380 C   0  0  2  0  0  3  0  0  0  0  0  0
  161.8080  211.1070  156.0650 O   0  0  0  0  0  1  0  0  0  0  0  0
  160.7980  211.2080  153.9240 C   0  0  0  0  0  0  0  0  0  0  0  0
  160.1390  212.2210  154.2810 O   0  0  0  0  0  1  0  0  0  0  0  0
  160.8770  210.8740  152.5790 O   0  0  0  0  0  0  0  0  0  0  0  0
  1 11  1  1  0  0  0
  1  7  1  0  0  0  0
  2 22  1  1  0  0  0
  3  4  2  0  0  0  0
  3  8  1  0  0  0  0
  6  2  1  0  0  0  0
  7 10  1  0  0  0  0
  7  5  2  0  0  0  0
  8  6  2  0  0  0  0
  9  4  1  0  0  0  0
  9  1  1  0  0  0  0
 10  4  1  6  0  0  0
 10  2  1  0  0  0  0
 12 11  1  0  0  0  0
 13 12  1  0  0  0  0
 14 13  1  0  0  0  0
 15 14  1  0  0  0  0
 16 15  1  0  0  0  0
 17 16  1  0  0  0  0
 17 19  1  0  0  0  0
 19 20  1  0  0  0  0
 20 18  1  0  0  0  0
 21 20  2  0  0  0  0
 22 24  1  0  0  0  0
 23 25  1  0  0  0  0
 24 23  3  0  0  0  0
 26 25  1  0  0  0  0
 26 27  1  1  0  0  0
 28 29  1  0  0  0  0
 28 26  1  0  0  0  0
 30 28  2  0  0  0  0
M  END
>  <MODEL>
4

>  <REMARK>
 VINA RESULT:      -7.0      1.761      3.715
  Name = 
  13 active torsions:
  status: ('A' for Active; 'I' for Inactive)
    1  A    between atoms: C_1  and  C_8
    2  A    between atoms: C_2  and  C_24
    3  A    between atoms: C_3  and  N_30
    4  A    between atoms: O_5  and  C_20
    5  A    between atoms: O_5  and  C_26
    6  A    between atoms: C_7  and  C_8
    7  A    between atoms: C_7  and  C_11
    8  A    between atoms: N_9  and  C_26
    9  A    between atoms: C_20  and  C_21
   10  A    between atoms: C_21  and  C_25
   11  A    between atoms: C_24  and  O_27
   12  A    between atoms: C_25  and  O_27
   13  A    between atoms: C_29  and  N_30
                            x       y       z     vdW  Elec       q    Type
                         _______ _______ _______ _____ _____    ______ ____

>  <TORSDO>
F 13

$$$$
=
 OpenBabel11052410553D

 30 31  0  0  1  0  0  0  0  0999 V2000
  160.4420  204.2790  150.8630 C   0  0  2  0  0  3  0  0  0  0  0  0
  161.3470  207.8340  150.4790 C   0  0  2  0  0  3  0  0  0  0  0  0
  161.4280  206.8480  153.1090 N   0  0  0  0  0  0  0  0  0  0  0  0
  161.3910  206.0010  152.1230 C   0  0  0  0  0  0  0  0  0  0  0  0
  160.9610  205.3030  148.6310 C   0  0  0  0  0  2  0  0  0  0  0  0
  161.8070  208.7040  151.6250 C   0  0  0  0  0  3  0  0  0  0  0  0
  160.9990  205.3550  149.9640 C   0  0  0  0  0  0  0  0  0  0  0  0
  161.8080  208.2140  152.8730 C   0  0  0  0  0  3  0  0  0  0  0  0
  160.7060  204.7610  152.2110 N   0  0  0  0  0  2  0  0  0  0  0  0
  161.7700  206.3800  150.7330 C   0  0  1  0  0  3  0  0  0  0  0  0
  161.1610  202.9500  150.6570 C   0  0  0  0  0  2  0  0  0  0  0  0
  160.4120  202.1250  149.8190 O   0  0  0  0  0  0  0  0  0  0  0  0
  161.1580  200.9540  149.7170 C   0  0  0  0  0  2  0  0  0  0  0  0
  161.4650  200.6840  148.2610 C   0  0  0  0  0  2  0  0  0  0  0  0
  160.7950  201.7290  147.3940 C   0  0  0  0  0  2  0  0  0  0  0  0
  160.5560  201.1880  146.1290 O   0  0  0  0  0  0  0  0  0  0  0  0
  160.4760  202.2930  145.2790 C   0  0  0  0  0  2  0  0  0  0  0  0
  162.5840  205.4710  145.4760 N   0  0  0  0  0  1  0  0  0  0  0  0
  161.5140  203.2550  145.6280 N   0  0  0  0  0  2  0  0  0  0  0  0
  161.5500  204.5760  145.0860 C   0  0  0  0  0  0  0  0  0  0  0  0
  160.6720  204.9560  144.2660 O   0  0  0  0  0  0  0  0  0  0  0  0
  161.9320  208.3170  149.2410 N   0  0  0  0  0  2  0  0  0  0  0  0
  161.9900  210.8690  148.7240 C   0  0  0  0  0  0  0  0  0  0  0  0
  161.9640  209.6890  148.9620 C   0  0  0  0  0  0  0  0  0  0  0  0
  162.0240  212.3050  148.4360 C   0  0  0  0  0  2  0  0  0  0  0  0
  161.6970  212.5540  146.9730 C   0  0  2  0  0  3  0  0  0  0  0  0
  162.7050  213.3190  146.3770 O   0  0  0  0  0  1  0  0  0  0  0  0
  160.3840  213.2540  146.8530 C   0  0  0  0  0  0  0  0  0  0  0  0
  160.3300  214.4530  146.4670 O   0  0  0  0  0  0  0  0  0  0  0  0
  159.2170  212.5850  147.1910 O   0  0  0  0  0  1  0  0  0  0  0  0
  1 11  1  6  0  0  0
  1  9  1  0  0  0  0
  2 22  1  6  0  0  0
  2 10  1  0  0  0  0
  2  6  1  0  0  0  0
  4  9  1  0  0  0  0
  4  3  2  0  0  0  0
  5  7  2  0  0  0  0
  6  8  2  0  0  0  0
  7  1  1  0  0  0  0
  8  3  1  0  0  0  0
 10  7  1  6  0  0  0
 10  4  1  0  0  0  0
 12 11  1  0  0  0  0
 13 12  1  0  0  0  0
 14 13  1  0  0  0  0
 15 14  1  0  0  0  0
 16 15  1  0  0  0  0
 17 19  1  0  0  0  0
 17 16  1  0  0  0  0
 20 18  1  0  0  0  0
 20 19  1  0  0  0  0
 21 20  2  0  0  0  0
 23 24  3  0  0  0  0
 24 22  1  0  0  0  0
 25 23  1  0  0  0  0
 26 27  1  1  0  0  0
 26 25  1  0  0  0  0
 28 26  1  0  0  0  0
 28 30  1  0  0  0  0
 29 28  2  0  0  0  0
M  END
>  <MODEL>
5

>  <REMARK>
 VINA RESULT:      -6.8      3.671      6.039
  Name = 
  13 active torsions:
  status: ('A' for Active; 'I' for Inactive)
    1  A    between atoms: C_1  and  C_8
    2  A    between atoms: C_2  and  C_24
    3  A    between atoms: C_3  and  N_30
    4  A    between atoms: O_5  and  C_20
    5  A    between atoms: O_5  and  C_26
    6  A    between atoms: C_7  and  C_8
    7  A    between atoms: C_7  and  C_11
    8  A    between atoms: N_9  and  C_26
    9  A    between atoms: C_20  and  C_21
   10  A    between atoms: C_21  and  C_25
   11  A    between atoms: C_24  and  O_27
   12  A    between atoms: C_25  and  O_27
   13  A    between atoms: C_29  and  N_30
                            x       y       z     vdW  Elec       q    Type
                         _______ _______ _______ _____ _____    ______ ____

>  <TORSDO>
F 13

$$$$
=
 OpenBabel11052410553D

 30 31  0  0  1  0  0  0  0  0999 V2000
  161.0130  206.1450  148.4440 C   0  0  2  0  0  3  0  0  0  0  0  0
  161.2050  207.7270  151.7710 C   0  0  2  0  0  3  0  0  0  0  0  0
  161.0800  204.9200  151.7770 N   0  0  0  0  0  0  0  0  0  0  0  0
  161.3740  205.5310  150.6680 C   0  0  0  0  0  0  0  0  0  0  0  0
  161.6480  208.5530  148.7560 C   0  0  0  0  0  2  0  0  0  0  0  0
  161.2890  206.9450  153.0600 C   0  0  0  0  0  3  0  0  0  0  0  0
  161.4660  207.3310  149.2590 C   0  0  0  0  0  0  0  0  0  0  0  0
  161.1990  205.6070  153.0330 C   0  0  0  0  0  3  0  0  0  0  0  0
  160.9570  205.0480  149.4000 N   0  0  0  0  0  2  0  0  0  0  0  0
  161.8770  206.9330  150.6410 C   0  0  1  0  0  3  0  0  0  0  0  0
  162.0160  205.8030  147.3480 C   0  0  0  0  0  2  0  0  0  0  0  0
  161.5390  206.2340  146.1100 O   0  0  0  0  0  0  0  0  0  0  0  0
  161.7790  205.1670  145.2480 C   0  0  0  0  0  2  0  0  0  0  0  0
  160.4580  204.5840  144.7990 C   0  0  0  0  0  2  0  0  0  0  0  0
  160.5040  203.0740  144.8950 C   0  0  0  0  0  2  0  0  0  0  0  0
  161.4190  202.7060  145.8830 O   0  0  0  0  0  0  0  0  0  0  0  0
  160.7350  201.7780  146.6720 C   0  0  0  0  0  2  0  0  0  0  0  0
  160.9520  201.6530  150.4820 N   0  0  0  0  0  1  0  0  0  0  0  0
  161.2350  201.8360  148.0400 N   0  0  0  0  0  2  0  0  0  0  0  0
  160.4000  201.5910  149.1730 C   0  0  0  0  0  0  0  0  0  0  0  0
  159.1790  201.3200  149.0220 O   0  0  0  0  0  0  0  0  0  0  0  0
  161.8620  209.0100  151.9400 N   0  0  0  0  0  2  0  0  0  0  0  0
  161.3910  210.4590  154.0530 C   0  0  0  0  0  0  0  0  0  0  0  0
  161.6080  209.7900  153.0760 C   0  0  0  0  0  0  0  0  0  0  0  0
  161.1300  211.2750  155.2420 C   0  0  0  0  0  2  0  0  0  0  0  0
  161.9700  210.7830  156.4090 C   0  0  2  0  0  3  0  0  0  0  0  0
  163.3150  210.7040  156.0350 O   0  0  0  0  0  1  0  0  0  0  0  0
  161.4860  209.4460  156.8620 C   0  0  0  0  0  0  0  0  0  0  0  0
  162.2930  208.4900  157.0170 O   0  0  0  0  0  0  0  0  0  0  0  0
  160.1310  209.2490  157.0930 O   0  0  0  0  0  1  0  0  0  0  0  0
  1 11  1  6  0  0  0
  1  7  1  0  0  0  0
  1  9  1  0  0  0  0
  2 22  1  1  0  0  0
  2  6  1  0  0  0  0
  3  8  1  0  0  0  0
  4  3  2  0  0  0  0
  5  7  2  0  0  0  0
  8  6  2  0  0  0  0
  9  4  1  0  0  0  0
 10  7  1  6  0  0  0
 10  4  1  0  0  0  0
 10  2  1  0  0  0  0
 12 11  1  0  0  0  0
 13 12  1  0  0  0  0
 14 15  1  0  0  0  0
 14 13  1  0  0  0  0
 15 16  1  0  0  0  0
 16 17  1  0  0  0  0
 17 19  1  0  0  0  0
 19 20  1  0  0  0  0
 20 18  1  0  0  0  0
 21 20  2  0  0  0  0
 22 24  1  0  0  0  0
 23 25  1  0  0  0  0
 24 23  3  0  0  0  0
 25 26  1  0  0  0  0
 26 27  1  6  0  0  0
 26 28  1  0  0  0  0
 28 29  2  0  0  0  0
 28 30  1  0  0  0  0
M  END
>  <MODEL>
6

>  <REMARK>
 VINA RESULT:      -6.7      1.605      2.102
  Name = 
  13 active torsions:
  status: ('A' for Active; 'I' for Inactive)
    1  A    between atoms: C_1  and  C_8
    2  A    between atoms: C_2  and  C_24
    3  A    between atoms: C_3  and  N_30
    4  A    between atoms: O_5  and  C_20
    5  A    between atoms: O_5  and  C_26
    6  A    between atoms: C_7  and  C_8
    7  A    between atoms: C_7  and  C_11
    8  A    between atoms: N_9  and  C_26
    9  A    between atoms: C_20  and  C_21
   10  A    between atoms: C_21  and  C_25
   11  A    between atoms: C_24  and  O_27
   12  A    between atoms: C_25  and  O_27
   13  A    between atoms: C_29  and  N_30
                            x       y       z     vdW  Elec       q    Type
                         _______ _______ _______ _____ _____    ______ ____

>  <TORSDO>
F 13

$$$$
=
 OpenBabel11052410553D

 30 31  0  0  1  0  0  0  0  0999 V2000
  161.5780  204.7330  150.4920 C   0  0  2  0  0  3  0  0  0  0  0  0
  161.9710  208.2790  151.4300 C   0  0  2  0  0  3  0  0  0  0  0  0
  161.8360  207.7710  148.6690 N   0  0  0  0  0  0  0  0  0  0  0  0
  161.4560  206.8420  149.4960 C   0  0  0  0  0  0  0  0  0  0  0  0
  161.2150  205.5560  152.8350 C   0  0  0  0  0  2  0  0  0  0  0  0
  161.9840  209.4090  150.4270 C   0  0  0  0  0  3  0  0  0  0  0  0
  161.3470  205.8030  151.5310 C   0  0  0  0  0  0  0  0  0  0  0  0
  161.9470  209.1330  149.1150 C   0  0  0  0  0  3  0  0  0  0  0  0
  161.6570  205.4620  149.2340 N   0  0  0  0  0  2  0  0  0  0  0  0
  161.0860  207.1380  150.9090 C   0  0  1  0  0  3  0  0  0  0  0  0
  160.4130  203.7530  150.4290 C   0  0  0  0  0  2  0  0  0  0  0  0
  160.8710  202.4510  150.6320 O   0  0  0  0  0  0  0  0  0  0  0  0
  160.3550  201.7250  149.5620 C   0  0  0  0  0  2  0  0  0  0  0  0
  161.2130  201.9630  148.3400 C   0  0  0  0  0  2  0  0  0  0  0  0
  160.8280  200.9910  147.2450 C   0  0  0  0  0  2  0  0  0  0  0  0
  160.5080  201.7060  146.0900 O   0  0  0  0  0  0  0  0  0  0  0  0
  161.3040  202.8520  146.1500 C   0  0  0  0  0  2  0  0  0  0  0  0
  161.2090  205.8360  143.7700 N   0  0  0  0  0  1  0  0  0  0  0  0
  160.9790  203.7330  145.0350 N   0  0  0  0  0  2  0  0  0  0  0  0
  161.5610  205.0290  144.8870 C   0  0  0  0  0  0  0  0  0  0  0  0
  162.3830  205.4630  145.7370 O   0  0  0  0  0  0  0  0  0  0  0  0
  161.4630  208.7670  152.6990 N   0  0  0  0  0  2  0  0  0  0  0  0
  159.6610  210.6470  152.7560 C   0  0  0  0  0  0  0  0  0  0  0  0
  160.4940  209.7780  152.7310 C   0  0  0  0  0  0  0  0  0  0  0  0
  158.6460  211.7040  152.7850 C   0  0  0  0  0  2  0  0  0  0  0  0
  159.2940  213.0600  152.5610 C   0  0  2  0  0  3  0  0  0  0  0  0
  158.7750  213.9960  153.4600 O   0  0  0  0  0  1  0  0  0  0  0  0
  159.0630  213.5130  151.1580 C   0  0  0  0  0  0  0  0  0  0  0  0
  157.9790  213.2500  150.5700 O   0  0  0  0  0  1  0  0  0  0  0  0
  160.0580  214.2110  150.4890 O   0  0  0  0  0  0  0  0  0  0  0  0
  1 11  1  6  0  0  0
  1  7  1  0  0  0  0
  2 22  1  1  0  0  0
  3  8  1  0  0  0  0
  3  4  2  0  0  0  0
  6  2  1  0  0  0  0
  7  5  2  0  0  0  0
  8  6  2  0  0  0  0
  9  4  1  0  0  0  0
  9  1  1  0  0  0  0
 10  4  1  6  0  0  0
 10  2  1  0  0  0  0
 10  7  1  0  0  0  0
 11 12  1  0  0  0  0
 13 12  1  0  0  0  0
 14 13  1  0  0  0  0
 15 14  1  0  0  0  0
 16 17  1  0  0  0  0
 16 15  1  0  0  0  0
 18 20  1  0  0  0  0
 19 17  1  0  0  0  0
 20 19  1  0  0  0  0
 20 21  2  0  0  0  0
 22 24  1  0  0  0  0
 23 25  1  0  0  0  0
 24 23  3  0  0  0  0
 26 25  1  0  0  0  0
 26 27  1  1  0  0  0
 28 26  1  0  0  0  0
 29 28  1  0  0  0  0
 30 28  2  0  0  0  0
M  END
>  <MODEL>
7

>  <REMARK>
 VINA RESULT:      -6.5      3.183      4.728
  Name = 
  13 active torsions:
  status: ('A' for Active; 'I' for Inactive)
    1  A    between atoms: C_1  and  C_8
    2  A    between atoms: C_2  and  C_24
    3  A    between atoms: C_3  and  N_30
    4  A    between atoms: O_5  and  C_20
    5  A    between atoms: O_5  and  C_26
    6  A    between atoms: C_7  and  C_8
    7  A    between atoms: C_7  and  C_11
    8  A    between atoms: N_9  and  C_26
    9  A    between atoms: C_20  and  C_21
   10  A    between atoms: C_21  and  C_25
   11  A    between atoms: C_24  and  O_27
   12  A    between atoms: C_25  and  O_27
   13  A    between atoms: C_29  and  N_30
                            x       y       z     vdW  Elec       q    Type
                         _______ _______ _______ _____ _____    ______ ____

>  <TORSDO>
F 13

$$$$
=
 OpenBabel11052410553D

 30 31  0  0  1  0  0  0  0  0999 V2000
  161.6410  206.5010  153.2730 C   0  0  2  0  0  3  0  0  0  0  0  0
  161.2400  205.6730  149.7010 C   0  0  2  0  0  3  0  0  0  0  0  0
  161.0460  203.4990  151.4700 N   0  0  0  0  0  0  0  0  0  0  0  0
  160.9550  204.7050  151.9480 C   0  0  0  0  0  0  0  0  0  0  0  0
  161.2490  208.2540  151.5190 C   0  0  0  0  0  2  0  0  0  0  0  0
  160.9180  204.2860  149.1990 C   0  0  0  0  0  3  0  0  0  0  0  0
  161.2320  206.9760  151.9000 C   0  0  0  0  0  0  0  0  0  0  0  0
  160.8600  203.2630  150.0650 C   0  0  0  0  0  3  0  0  0  0  0  0
  161.4600  205.0570  153.2260 N   0  0  0  0  0  2  0  0  0  0  0  0
  160.6190  205.8770  151.0900 C   0  0  1  0  0  3  0  0  0  0  0  0
  160.7410  207.0830  154.3570 C   0  0  0  0  0  2  0  0  0  0  0  0
  161.4990  207.8300  155.2590 O   0  0  0  0  0  0  0  0  0  0  0  0
  160.8240  209.0430  155.3670 C   0  0  0  0  0  2  0  0  0  0  0  0
  161.6780  210.1410  154.7740 C   0  0  0  0  0  2  0  0  0  0  0  0
  160.8210  211.0540  153.9210 C   0  0  0  0  0  2  0  0  0  0  0  0
  159.5100  211.0280  154.3980 O   0  0  0  0  0  0  0  0  0  0  0  0
  158.7610  211.6800  153.4150 C   0  0  0  0  0  2  0  0  0  0  0  0
  160.0750  214.2090  150.8750 N   0  0  0  0  0  1  0  0  0  0  0  0
  159.5990  212.6540  152.7270 N   0  0  0  0  0  2  0  0  0  0  0  0
  159.2160  213.2570  151.4900 C   0  0  0  0  0  0  0  0  0  0  0  0
  158.1230  212.9540  150.9410 O   0  0  0  0  0  0  0  0  0  0  0  0
  160.7160  206.6570  148.7700 N   0  0  0  0  0  2  0  0  0  0  0  0
  160.7750  206.2020  146.2060 C   0  0  0  0  0  0  0  0  0  0  0  0
  160.7490  206.4130  147.3910 C   0  0  0  0  0  0  0  0  0  0  0  0
  160.8050  205.9480  144.7630 C   0  0  0  0  0  2  0  0  0  0  0  0
  161.0620  204.4740  144.4970 C   0  0  2  0  0  3  0  0  0  0  0  0
  159.8560  203.7650  144.5110 O   0  0  0  0  0  1  0  0  0  0  0  0
  161.9920  203.9210  145.5240 C   0  0  0  0  0  0  0  0  0  0  0  0
  163.1590  204.3810  145.6450 O   0  0  0  0  0  0  0  0  0  0  0  0
  161.5740  202.8770  146.3370 O   0  0  0  0  0  1  0  0  0  0  0  0
  1 11  1  1  0  0  0
  2 22  1  6  0  0  0
  2 10  1  0  0  0  0
  3  4  2  0  0  0  0
  4  9  1  0  0  0  0
  5  7  2  0  0  0  0
  6  2  1  0  0  0  0
  6  8  2  0  0  0  0
  7  1  1  0  0  0  0
  8  3  1  0  0  0  0
  9  1  1  0  0  0  0
 10  7  1  1  0  0  0
 10  4  1  0  0  0  0
 11 12  1  0  0  0  0
 12 13  1  0  0  0  0
 14 13  1  0  0  0  0
 15 16  1  0  0  0  0
 15 14  1  0  0  0  0
 17 16  1  0  0  0  0
 18 20  1  0  0  0  0
 19 17  1  0  0  0  0
 20 19  1  0  0  0  0
 21 20  2  0  0  0  0
 23 24  3  0  0  0  0
 24 22  1  0  0  0  0
 25 23  1  0  0  0  0
 26 27  1  1  0  0  0
 26 25  1  0  0  0  0
 26 28  1  0  0  0  0
 28 29  2  0  0  0  0
 28 30  1  0  0  0  0
M  END
>  <MODEL>
8

>  <REMARK>
 VINA RESULT:      -6.4      2.852      9.383
  Name = 
  13 active torsions:
  status: ('A' for Active; 'I' for Inactive)
    1  A    between atoms: C_1  and  C_8
    2  A    between atoms: C_2  and  C_24
    3  A    between atoms: C_3  and  N_30
    4  A    between atoms: O_5  and  C_20
    5  A    between atoms: O_5  and  C_26
    6  A    between atoms: C_7  and  C_8
    7  A    between atoms: C_7  and  C_11
    8  A    between atoms: N_9  and  C_26
    9  A    between atoms: C_20  and  C_21
   10  A    between atoms: C_21  and  C_25
   11  A    between atoms: C_24  and  O_27
   12  A    between atoms: C_25  and  O_27
   13  A    between atoms: C_29  and  N_30
                            x       y       z     vdW  Elec       q    Type
                         _______ _______ _______ _____ _____    ______ ____

>  <TORSDO>
F 13

$$$$
=
 OpenBabel11052410553D

 30 31  0  0  1  0  0  0  0  0999 V2000
  161.1740  209.4910  154.1480 C   0  0  2  0  0  3  0  0  0  0  0  0
  162.2640  207.3860  151.3210 C   0  0  2  0  0  3  0  0  0  0  0  0
  161.0320  206.0130  153.4400 N   0  0  0  0  0  0  0  0  0  0  0  0
  160.9020  207.3050  153.3720 C   0  0  0  0  0  0  0  0  0  0  0  0
  161.8220  210.4540  151.9220 C   0  0  0  0  0  2  0  0  0  0  0  0
  162.0110  205.8990  151.2450 C   0  0  0  0  0  3  0  0  0  0  0  0
  161.4710  209.4070  152.6700 C   0  0  0  0  0  0  0  0  0  0  0  0
  161.4470  205.2670  152.2840 C   0  0  0  0  0  3  0  0  0  0  0  0
  160.8420  208.1250  154.5280 N   0  0  0  0  0  2  0  0  0  0  0  0
  161.1330  208.0620  152.1090 C   0  0  1  0  0  3  0  0  0  0  0  0
  159.9780  210.3930  154.4270 C   0  0  0  0  0  2  0  0  0  0  0  0
  160.4070  211.7010  154.6550 O   0  0  0  0  0  0  0  0  0  0  0  0
  159.2760  212.4850  154.4420 C   0  0  0  0  0  2  0  0  0  0  0  0
  158.7170  212.1890  153.0690 C   0  0  0  0  0  2  0  0  0  0  0  0
  159.1970  213.2330  152.0830 C   0  0  0  0  0  2  0  0  0  0  0  0
  158.4360  213.1450  150.9160 O   0  0  0  0  0  0  0  0  0  0  0  0
  159.2210  213.7510  149.9330 C   0  0  0  0  0  2  0  0  0  0  0  0
  162.3550  212.1350  148.4680 N   0  0  0  0  0  1  0  0  0  0  0  0
  160.4780  213.0260  149.7950 N   0  0  0  0  0  2  0  0  0  0  0  0
  161.1230  212.8420  148.5340 C   0  0  0  0  0  0  0  0  0  0  0  0
  160.6110  213.3030  147.4790 O   0  0  0  0  0  0  0  0  0  0  0  0
  162.3330  207.9330  149.9770 N   0  0  0  0  0  2  0  0  0  0  0  0
  161.3590  206.5990  147.9640 C   0  0  0  0  0  0  0  0  0  0  0  0
  161.8110  207.2160  148.8940 C   0  0  0  0  0  0  0  0  0  0  0  0
  160.8080  205.8500  146.8310 C   0  0  0  0  0  2  0  0  0  0  0  0
  161.6780  204.6420  146.5290 C   0  0  2  0  0  3  0  0  0  0  0  0
  163.0130  205.0340  146.3830 O   0  0  0  0  0  1  0  0  0  0  0  0
  161.2050  203.9660  145.2850 C   0  0  0  0  0  0  0  0  0  0  0  0
  161.0170  202.7200  145.2650 O   0  0  0  0  0  1  0  0  0  0  0  0
  160.9920  204.7150  144.1370 O   0  0  0  0  0  0  0  0  0  0  0  0
  1 11  1  6  0  0  0
  1  9  1  0  0  0  0
  2 22  1  6  0  0  0
  2 10  1  0  0  0  0
  4  3  2  0  0  0  0
  4  9  1  0  0  0  0
  5  7  2  0  0  0  0
  6  2  1  0  0  0  0
  6  8  2  0  0  0  0
  7  1  1  0  0  0  0
  8  3  1  0  0  0  0
 10  7  1  1  0  0  0
 10  4  1  0  0  0  0
 11 12  1  0  0  0  0
 13 12  1  0  0  0  0
 14 13  1  0  0  0  0
 15 14  1  0  0  0  0
 16 15  1  0  0  0  0
 17 16  1  0  0  0  0
 18 20  1  0  0  0  0
 19 17  1  0  0  0  0
 20 19  1  0  0  0  0
 21 20  2  0  0  0  0
 23 24  3  0  0  0  0
 24 22  1  0  0  0  0
 25 23  1  0  0  0  0
 26 27  1  6  0  0  0
 26 25  1  0  0  0  0
 28 26  1  0  0  0  0
 29 28  1  0  0  0  0
 30 28  2  0  0  0  0
M  END
>  <MODEL>
9

>  <REMARK>
 VINA RESULT:      -6.3      3.649      9.186
  Name = 
  13 active torsions:
  status: ('A' for Active; 'I' for Inactive)
    1  A    between atoms: C_1  and  C_8
    2  A    between atoms: C_2  and  C_24
    3  A    between atoms: C_3  and  N_30
    4  A    between atoms: O_5  and  C_20
    5  A    between atoms: O_5  and  C_26
    6  A    between atoms: C_7  and  C_8
    7  A    between atoms: C_7  and  C_11
    8  A    between atoms: N_9  and  C_26
    9  A    between atoms: C_20  and  C_21
   10  A    between atoms: C_21  and  C_25
   11  A    between atoms: C_24  and  O_27
   12  A    between atoms: C_25  and  O_27
   13  A    between atoms: C_29  and  N_30
                            x       y       z     vdW  Elec       q    Type
                         _______ _______ _______ _____ _____    ______ ____

>  <TORSDO>
F 13

$$$$
