=
 OpenBabel11042420103D

 30 34  0  0  1  0  0  0  0  0999 V2000
  161.2090  206.6670  152.9410 C   0  0  0  0  0  0  0  0  0  0  0  0
  161.0860  207.3190  148.9200 C   0  0  0  0  0  3  0  0  0  0  0  0
  161.1050  206.0040  149.3060 N   0  0  0  0  0  0  0  0  0  0  0  0
  161.2480  205.4720  153.8340 C   0  0  0  0  0  1  0  0  0  0  0  0
  161.1520  207.9700  151.1630 C   0  0  0  0  0  0  0  0  0  0  0  0
  161.1790  208.8080  152.2180 N   0  0  0  0  0  0  0  0  0  0  0  0
  161.1710  206.6680  151.5640 C   0  0  0  0  0  0  0  0  0  0  0  0
  161.1100  208.3180  149.8530 N   0  0  0  0  0  0  0  0  0  0  0  0
  161.2100  208.0140  153.3170 C   0  0  0  0  0  0  0  0  0  0  0  0
  161.1480  205.6480  150.6240 C   0  0  0  0  0  3  0  0  0  0  0  0
  158.9960  212.7300  151.0820 C   0  0  0  0  0  2  0  0  0  0  0  0
  161.1730  210.2700  152.2050 C   0  0  2  0  0  3  0  0  0  0  0  0
  160.4630  212.8400  151.0680 N   0  0  1  0  0  0  0  0  0  0  0  0
  161.7240  212.3910  149.0320 C   0  0  0  0  0  1  0  0  0  0  0  0
  159.7400  212.3300  152.2690 C   0  0  2  0  0  3  0  0  0  0  0  0
  159.7550  210.8040  152.4010 C   0  0  0  0  0  2  0  0  0  0  0  0
  161.8450  210.8030  150.9340 C   0  0  0  0  0  2  0  0  0  0  0  0
  160.9450  211.7790  150.1780 C   0  0  1  0  0  3  0  0  0  0  0  0
  160.8100  210.3170  156.8980 C   0  0  0  0  0  2  0  0  0  0  0  0
  162.0980  210.1010  156.0900 C   0  0  0  0  0  2  0  0  0  0  0  0
  159.5640  209.7870  156.1700 C   0  0  2  0  0  3  0  0  0  0  0  0
  159.7380  207.2930  156.2570 C   0  0  0  0  0  1  0  0  0  0  0  0
  161.2550  208.5420  154.7180 C   0  0  1  0  0  3  0  0  0  0  0  0
  161.8130  209.8330  154.7400 O   0  0  0  0  0  0  0  0  0  0  0  0
  159.8580  208.5120  155.3630 C   0  0  2  0  0  3  0  0  0  0  0  0
  159.0720  210.7770  155.3160 O   0  0  0  0  0  0  0  0  0  0  0  0
  158.6760  211.8160  156.1590 C   0  0  0  0  0  2  0  0  0  0  0  0
  157.1590  211.9000  156.2010 C   0  0  0  0  0  2  0  0  0  0  0  0
  156.5730  211.4730  154.8690 C   0  0  0  0  0  2  0  0  0  0  0  0
  155.5040  210.4260  155.1000 C   0  0  0  0  0  1  0  0  0  0  0  0
  1  9  2  0  0  0  0
  1  4  1  0  0  0  0
  2  3  2  0  0  0  0
  2  8  1  0  0  0  0
  3 10  1  0  0  0  0
  5  7  1  0  0  0  0
  5  6  1  0  0  0  0
  6  9  1  0  0  0  0
  7  1  1  0  0  0  0
  8  5  2  0  0  0  0
 10  7  2  0  0  0  0
 12 17  1  6  0  0  0
 12  6  1  0  0  0  0
 12 16  1  0  0  0  0
 13 11  1  6  0  0  0
 13 15  1  0  0  0  0
 15 11  1  6  0  0  0
 15 16  1  0  0  0  0
 18 14  1  6  0  0  0
 18 17  1  0  0  0  0
 18 13  1  0  0  0  0
 20 19  1  0  0  0  0
 21 26  1  6  0  0  0
 21 19  1  0  0  0  0
 23  9  1  6  0  0  0
 23 24  1  0  0  0  0
 23 25  1  0  0  0  0
 24 20  1  0  0  0  0
 25 21  1  0  0  0  0
 25 22  1  1  0  0  0
 26 27  1  0  0  0  0
 27 28  1  0  0  0  0
 29 30  1  0  0  0  0
 29 28  1  0  0  0  0
M  END
>  <MODEL>
1

>  <REMARK>
 VINA RESULT:      -5.7      0.000      0.000
  Name = 
  6 active torsions:
  status: ('A' for Active; 'I' for Inactive)
    1  A    between atoms: C_5  and  O_18
    2  A    between atoms: C_7  and  N_15
    3  A    between atoms: C_8  and  C_10
    4  A    between atoms: C_8  and  C_17
    5  A    between atoms: C_12  and  C_27
    6  A    between atoms: C_17  and  O_18
                            x       y       z     vdW  Elec       q    Type
                         _______ _______ _______ _____ _____    ______ ____

>  <TORSDO>
F 6

$$$$
=
 OpenBabel11042420103D

 30 34  0  0  1  0  0  0  0  0999 V2000
  160.8450  203.6890  151.2550 C   0  0  0  0  0  0  0  0  0  0  0  0
  160.3960  201.1360  148.1090 C   0  0  0  0  0  3  0  0  0  0  0  0
  160.1310  200.6060  149.3450 N   0  0  0  0  0  0  0  0  0  0  0  0
  160.6910  203.6030  152.7360 C   0  0  0  0  0  1  0  0  0  0  0  0
  160.8990  203.1880  149.1080 C   0  0  0  0  0  0  0  0  0  0  0  0
  161.2660  204.4820  149.1810 N   0  0  0  0  0  0  0  0  0  0  0  0
  160.6390  202.6760  150.3440 C   0  0  0  0  0  0  0  0  0  0  0  0
  160.7860  202.4400  147.9820 N   0  0  0  0  0  0  0  0  0  0  0  0
  161.2310  204.8000  150.4990 C   0  0  0  0  0  0  0  0  0  0  0  0
  160.2440  201.3530  150.4820 C   0  0  0  0  0  3  0  0  0  0  0  0
  160.4580  205.9510  144.8650 C   0  0  0  0  0  2  0  0  0  0  0  0
  161.6270  205.3770  148.0830 C   0  0  2  0  0  3  0  0  0  0  0  0
  161.8660  206.0550  145.2750 N   0  0  1  0  0  0  0  0  0  0  0  0
  163.4180  204.2210  144.8710 C   0  0  0  0  0  1  0  0  0  0  0  0
  160.7780  206.6580  146.0980 C   0  0  2  0  0  3  0  0  0  0  0  0
  160.3810  205.8160  147.3140 C   0  0  0  0  0  2  0  0  0  0  0  0
  162.6900  204.7330  147.1860 C   0  0  0  0  0  2  0  0  0  0  0  0
  162.2650  204.7150  145.7190 C   0  0  1  0  0  3  0  0  0  0  0  0
  161.4360  208.4750  152.6760 C   0  0  0  0  0  2  0  0  0  0  0  0
  160.9400  208.2940  151.2330 C   0  0  0  0  0  2  0  0  0  0  0  0
  161.6700  207.1340  153.3890 C   0  0  2  0  0  3  0  0  0  0  0  0
  163.7120  206.1500  152.3300 C   0  0  0  0  0  1  0  0  0  0  0  0
  161.5790  206.1550  151.0330 C   0  0  1  0  0  3  0  0  0  0  0  0
  160.4500  206.9940  151.0240 O   0  0  0  0  0  0  0  0  0  0  0  0
  162.2020  206.0510  152.4370 C   0  0  2  0  0  3  0  0  0  0  0  0
  160.4730  206.7020  153.9650 O   0  0  0  0  0  0  0  0  0  0  0  0
  160.1280  207.7020  154.8750 C   0  0  0  0  0  2  0  0  0  0  0  0
  159.6370  207.0790  156.1700 C   0  0  0  0  0  2  0  0  0  0  0  0
  160.6790  207.2450  157.2600 C   0  0  0  0  0  2  0  0  0  0  0  0
  161.5890  208.4060  156.9190 C   0  0  0  0  0  1  0  0  0  0  0  0
  1  4  1  0  0  0  0
  2  3  1  0  0  0  0
  3 10  2  0  0  0  0
  5  6  1  0  0  0  0
  5  7  2  0  0  0  0
  6  9  1  0  0  0  0
  7 10  1  0  0  0  0
  7  1  1  0  0  0  0
  8  2  2  0  0  0  0
  8  5  1  0  0  0  0
  9  1  2  0  0  0  0
 12 17  1  6  0  0  0
 12  6  1  0  0  0  0
 13 11  1  6  0  0  0
 13 18  1  0  0  0  0
 13 15  1  0  0  0  0
 15 11  1  6  0  0  0
 15 16  1  0  0  0  0
 16 12  1  0  0  0  0
 18 14  1  6  0  0  0
 18 17  1  0  0  0  0
 19 21  1  0  0  0  0
 20 19  1  0  0  0  0
 21 26  1  6  0  0  0
 23  9  1  1  0  0  0
 23 25  1  0  0  0  0
 24 23  1  0  0  0  0
 24 20  1  0  0  0  0
 25 22  1  6  0  0  0
 25 21  1  0  0  0  0
 26 27  1  0  0  0  0
 27 28  1  0  0  0  0
 28 29  1  0  0  0  0
 30 29  1  0  0  0  0
M  END
>  <MODEL>
2

>  <REMARK>
 VINA RESULT:      -5.1      3.563      6.047
  Name = 
  6 active torsions:
  status: ('A' for Active; 'I' for Inactive)
    1  A    between atoms: C_5  and  O_18
    2  A    between atoms: C_7  and  N_15
    3  A    between atoms: C_8  and  C_10
    4  A    between atoms: C_8  and  C_17
    5  A    between atoms: C_12  and  C_27
    6  A    between atoms: C_17  and  O_18
                            x       y       z     vdW  Elec       q    Type
                         _______ _______ _______ _____ _____    ______ ____

>  <TORSDO>
F 6

$$$$
=
 OpenBabel11042420103D

 30 34  0  0  1  0  0  0  0  0999 V2000
  161.9130  208.7130  149.6400 C   0  0  0  0  0  0  0  0  0  0  0  0
  160.8530  206.3670  152.8010 C   0  0  0  0  0  3  0  0  0  0  0  0
  161.1520  205.7000  151.6420 N   0  0  0  0  0  0  0  0  0  0  0  0
  162.3090  208.4840  148.2200 C   0  0  0  0  0  1  0  0  0  0  0  0
  161.2830  208.4000  151.7300 C   0  0  0  0  0  0  0  0  0  0  0  0
  161.4010  209.7350  151.5900 N   0  0  0  0  0  0  0  0  0  0  0  0
  161.5830  207.7510  150.5700 C   0  0  0  0  0  0  0  0  0  0  0  0
  160.9160  207.7330  152.8530 N   0  0  0  0  0  0  0  0  0  0  0  0
  161.7940  209.9350  150.3070 C   0  0  0  0  0  0  0  0  0  0  0  0
  161.5200  206.3670  150.5090 C   0  0  0  0  0  3  0  0  0  0  0  0
  160.6070  210.8130  156.0220 C   0  0  0  0  0  2  0  0  0  0  0  0
  161.1660  210.7680  152.5960 C   0  0  2  0  0  3  0  0  0  0  0  0
  160.0100  211.7550  155.0640 N   0  0  1  0  0  0  0  0  0  0  0  0
  157.7410  211.4240  154.2410 C   0  0  0  0  0  1  0  0  0  0  0  0
  161.4600  211.4120  155.0050 C   0  0  2  0  0  3  0  0  0  0  0  0
  161.8100  210.3810  153.9270 C   0  0  0  0  0  2  0  0  0  0  0  0
  159.6680  211.0730  152.7200 C   0  0  0  0  0  2  0  0  0  0  0  0
  159.1790  210.9530  154.1620 C   0  0  1  0  0  3  0  0  0  0  0  0
  162.1350  213.3550  147.7610 C   0  0  0  0  0  2  0  0  0  0  0  0
  163.2920  212.5100  148.3170 C   0  0  0  0  0  2  0  0  0  0  0  0
  160.7610  212.7200  148.0340 C   0  0  2  0  0  3  0  0  0  0  0  0
  160.3700  212.9800  150.4910 C   0  0  0  0  0  1  0  0  0  0  0  0
  162.0390  211.2910  149.7200 C   0  0  1  0  0  3  0  0  0  0  0  0
  162.8750  211.1970  148.5930 O   0  0  0  0  0  0  0  0  0  0  0  0
  160.7110  211.9960  149.3880 C   0  0  2  0  0  3  0  0  0  0  0  0
  160.4580  211.8200  147.0110 O   0  0  0  0  0  0  0  0  0  0  0  0
  159.7040  212.5540  146.0940 C   0  0  0  0  0  2  0  0  0  0  0  0
  158.7070  213.4350  146.8290 C   0  0  0  0  0  2  0  0  0  0  0  0
  157.4560  212.6450  147.1620 C   0  0  0  0  0  2  0  0  0  0  0  0
  157.0220  212.9580  148.5780 C   0  0  0  0  0  1  0  0  0  0  0  0
  1  9  2  0  0  0  0
  1  7  1  0  0  0  0
  2  8  1  0  0  0  0
  3  2  2  0  0  0  0
  4  1  1  0  0  0  0
  5  8  2  0  0  0  0
  6  5  1  0  0  0  0
  7  5  1  0  0  0  0
  9  6  1  0  0  0  0
 10  7  2  0  0  0  0
 10  3  1  0  0  0  0
 12  6  1  6  0  0  0
 12 17  1  0  0  0  0
 12 16  1  0  0  0  0
 13 11  1  1  0  0  0
 15 16  1  6  0  0  0
 15 13  1  0  0  0  0
 15 11  1  0  0  0  0
 17 18  1  0  0  0  0
 18 14  1  6  0  0  0
 18 13  1  0  0  0  0
 19 21  1  0  0  0  0
 19 20  1  0  0  0  0
 20 24  1  0  0  0  0
 21 26  1  6  0  0  0
 21 25  1  0  0  0  0
 23  9  1  6  0  0  0
 24 23  1  0  0  0  0
 25 23  1  0  0  0  0
 25 22  1  1  0  0  0
 27 28  1  0  0  0  0
 27 26  1  0  0  0  0
 28 29  1  0  0  0  0
 29 30  1  0  0  0  0
M  END
>  <MODEL>
3

>  <REMARK>
 VINA RESULT:      -5.1      2.727      5.920
  Name = 
  6 active torsions:
  status: ('A' for Active; 'I' for Inactive)
    1  A    between atoms: C_5  and  O_18
    2  A    between atoms: C_7  and  N_15
    3  A    between atoms: C_8  and  C_10
    4  A    between atoms: C_8  and  C_17
    5  A    between atoms: C_12  and  C_27
    6  A    between atoms: C_17  and  O_18
                            x       y       z     vdW  Elec       q    Type
                         _______ _______ _______ _____ _____    ______ ____

>  <TORSDO>
F 6

$$$$
=
 OpenBabel11042420103D

 30 34  0  0  1  0  0  0  0  0999 V2000
  161.1170  205.6790  151.5720 C   0  0  0  0  0  0  0  0  0  0  0  0
  162.2240  208.8430  149.2530 C   0  0  0  0  0  3  0  0  0  0  0  0
  162.1480  209.0930  150.5980 N   0  0  0  0  0  0  0  0  0  0  0  0
  160.8920  205.4430  153.0280 C   0  0  0  0  0  1  0  0  0  0  0  0
  161.5790  206.6300  149.6370 C   0  0  0  0  0  0  0  0  0  0  0  0
  161.2630  205.3540  149.3410 N   0  0  0  0  0  0  0  0  0  0  0  0
  161.4990  206.8620  150.9770 C   0  0  0  0  0  0  0  0  0  0  0  0
  161.9370  207.6000  148.7600 N   0  0  0  0  0  0  0  0  0  0  0  0
  160.9810  204.7610  150.5280 C   0  0  0  0  0  0  0  0  0  0  0  0
  161.7880  208.1200  151.4860 C   0  0  0  0  0  3  0  0  0  0  0  0
  163.1700  204.8620  145.1510 C   0  0  0  0  0  2  0  0  0  0  0  0
  161.2280  204.7190  148.0250 C   0  0  2  0  0  3  0  0  0  0  0  0
  161.7120  204.6690  145.1670 N   0  0  1  0  0  0  0  0  0  0  0  0
  160.2050  206.5450  144.7870 C   0  0  0  0  0  1  0  0  0  0  0  0
  162.6010  203.9020  146.0880 C   0  0  2  0  0  3  0  0  0  0  0  0
  162.6450  204.4590  147.5140 C   0  0  0  0  0  2  0  0  0  0  0  0
  160.3790  205.5420  147.0480 C   0  0  0  0  0  2  0  0  0  0  0  0
  161.1450  205.8790  145.7700 C   0  0  1  0  0  3  0  0  0  0  0  0
  160.0880  200.6270  149.8960 C   0  0  0  0  0  2  0  0  0  0  0  0
  159.0720  201.7620  150.0830 C   0  0  0  0  0  2  0  0  0  0  0  0
  161.5270  201.1460  149.7360 C   0  0  2  0  0  3  0  0  0  0  0  0
  162.1990  201.9860  151.9940 C   0  0  0  0  0  1  0  0  0  0  0  0
  160.5710  203.3260  150.6580 C   0  0  1  0  0  3  0  0  0  0  0  0
  159.6110  202.9970  149.6840 O   0  0  0  0  0  0  0  0  0  0  0  0
  161.7940  202.3950  150.5910 C   0  0  2  0  0  3  0  0  0  0  0  0
  161.7640  201.4400  148.3920 O   0  0  0  0  0  0  0  0  0  0  0  0
  161.7600  200.2030  147.7450 C   0  0  0  0  0  2  0  0  0  0  0  0
  161.2060  200.3540  146.3390 C   0  0  0  0  0  2  0  0  0  0  0  0
  160.3050  201.5720  146.2580 C   0  0  0  0  0  2  0  0  0  0  0  0
  159.7700  201.7130  144.8490 C   0  0  0  0  0  1  0  0  0  0  0  0
  1  4  1  0  0  0  0
  2  3  1  0  0  0  0
  3 10  2  0  0  0  0
  5  7  2  0  0  0  0
  6  5  1  0  0  0  0
  6  9  1  0  0  0  0
  7 10  1  0  0  0  0
  7  1  1  0  0  0  0
  8  2  2  0  0  0  0
  8  5  1  0  0  0  0
  9  1  2  0  0  0  0
 12 17  1  6  0  0  0
 12  6  1  0  0  0  0
 13 11  1  6  0  0  0
 13 18  1  0  0  0  0
 13 15  1  0  0  0  0
 15 11  1  6  0  0  0
 15 16  1  0  0  0  0
 16 12  1  0  0  0  0
 18 14  1  6  0  0  0
 18 17  1  0  0  0  0
 19 20  1  0  0  0  0
 21 26  1  6  0  0  0
 21 19  1  0  0  0  0
 21 25  1  0  0  0  0
 23  9  1  6  0  0  0
 24 20  1  0  0  0  0
 24 23  1  0  0  0  0
 25 23  1  0  0  0  0
 25 22  1  1  0  0  0
 27 26  1  0  0  0  0
 28 27  1  0  0  0  0
 29 28  1  0  0  0  0
 30 29  1  0  0  0  0
M  END
>  <MODEL>
4

>  <REMARK>
 VINA RESULT:      -5.0      4.637      8.733
  Name = 
  6 active torsions:
  status: ('A' for Active; 'I' for Inactive)
    1  A    between atoms: C_5  and  O_18
    2  A    between atoms: C_7  and  N_15
    3  A    between atoms: C_8  and  C_10
    4  A    between atoms: C_8  and  C_17
    5  A    between atoms: C_12  and  C_27
    6  A    between atoms: C_17  and  O_18
                            x       y       z     vdW  Elec       q    Type
                         _______ _______ _______ _____ _____    ______ ____

>  <TORSDO>
F 6

$$$$
=
 OpenBabel11042420103D

 30 34  0  0  1  0  0  0  0  0999 V2000
  160.9190  205.9300  152.4090 C   0  0  0  0  0  0  0  0  0  0  0  0
  161.3570  202.4210  150.3820 C   0  0  0  0  0  3  0  0  0  0  0  0
  161.2030  202.3060  151.7390 N   0  0  0  0  0  0  0  0  0  0  0  0
  160.7330  206.3300  153.8350 C   0  0  0  0  0  1  0  0  0  0  0  0
  161.2070  204.7450  150.5720 C   0  0  0  0  0  0  0  0  0  0  0  0
  161.1840  206.0300  150.1670 N   0  0  0  0  0  0  0  0  0  0  0  0
  161.0520  204.6480  151.9220 C   0  0  0  0  0  0  0  0  0  0  0  0
  161.3620  203.6510  149.7860 N   0  0  0  0  0  0  0  0  0  0  0  0
  161.0020  206.7660  151.2920 C   0  0  0  0  0  0  0  0  0  0  0  0
  161.0480  203.4040  152.5360 C   0  0  0  0  0  3  0  0  0  0  0  0
  160.1520  205.6130  145.6730 C   0  0  0  0  0  2  0  0  0  0  0  0
  161.3190  206.5470  148.8060 C   0  0  2  0  0  3  0  0  0  0  0  0
  161.4590  206.2360  145.9280 N   0  0  1  0  0  0  0  0  0  0  0  0
  163.4760  204.8780  146.0820 C   0  0  0  0  0  1  0  0  0  0  0  0
  160.2170  206.7660  146.5610 C   0  0  2  0  0  3  0  0  0  0  0  0
  160.0280  206.3290  148.0170 C   0  0  0  0  0  2  0  0  0  0  0  0
  162.5510  205.9470  148.1190 C   0  0  0  0  0  2  0  0  0  0  0  0
  162.2010  205.3010  146.7800 C   0  0  1  0  0  3  0  0  0  0  0  0
  161.1270  210.9230  152.2860 C   0  0  0  0  0  2  0  0  0  0  0  0
  159.8670  210.0640  152.1110 C   0  0  0  0  0  2  0  0  0  0  0  0
  162.4160  210.0850  152.2820 C   0  0  2  0  0  3  0  0  0  0  0  0
  162.7160  209.3170  149.9200 C   0  0  0  0  0  1  0  0  0  0  0  0
  160.9230  208.2610  151.2990 C   0  0  1  0  0  3  0  0  0  0  0  0
  160.1350  208.7100  152.3740 O   0  0  0  0  0  0  0  0  0  0  0  0
  162.3290  208.8870  151.3220 C   0  0  2  0  0  3  0  0  0  0  0  0
  162.6730  209.6280  153.5760 O   0  0  0  0  0  0  0  0  0  0  0  0
  162.1450  210.6090  154.4170 C   0  0  0  0  0  2  0  0  0  0  0  0
  161.8660  210.0210  155.7900 C   0  0  0  0  0  2  0  0  0  0  0  0
  160.4680  209.4350  155.8350 C   0  0  0  0  0  2  0  0  0  0  0  0
  159.4490  210.5530  155.7990 C   0  0  0  0  0  1  0  0  0  0  0  0
  1  4  1  0  0  0  0
  2  3  1  0  0  0  0
  3 10  2  0  0  0  0
  5  7  2  0  0  0  0
  6  5  1  0  0  0  0
  6  9  1  0  0  0  0
  7  1  1  0  0  0  0
  7 10  1  0  0  0  0
  8  2  2  0  0  0  0
  8  5  1  0  0  0  0
  9  1  2  0  0  0  0
 12 16  1  6  0  0  0
 12  6  1  0  0  0  0
 13 11  1  6  0  0  0
 13 15  1  0  0  0  0
 13 18  1  0  0  0  0
 15 11  1  6  0  0  0
 15 16  1  0  0  0  0
 17 12  1  0  0  0  0
 18 14  1  6  0  0  0
 18 17  1  0  0  0  0
 20 19  1  0  0  0  0
 20 24  1  0  0  0  0
 21 19  1  0  0  0  0
 21 26  1  1  0  0  0
 23  9  1  1  0  0  0
 23 25  1  0  0  0  0
 23 24  1  0  0  0  0
 25 22  1  6  0  0  0
 25 21  1  0  0  0  0
 26 27  1  0  0  0  0
 27 28  1  0  0  0  0
 28 29  1  0  0  0  0
 30 29  1  0  0  0  0
M  END
>  <MODEL>
5

>  <REMARK>
 VINA RESULT:      -4.8      2.377      5.184
  Name = 
  6 active torsions:
  status: ('A' for Active; 'I' for Inactive)
    1  A    between atoms: C_5  and  O_18
    2  A    between atoms: C_7  and  N_15
    3  A    between atoms: C_8  and  C_10
    4  A    between atoms: C_8  and  C_17
    5  A    between atoms: C_12  and  C_27
    6  A    between atoms: C_17  and  O_18
                            x       y       z     vdW  Elec       q    Type
                         _______ _______ _______ _____ _____    ______ ____

>  <TORSDO>
F 6

$$$$
=
 OpenBabel11042420103D

 30 34  0  0  1  0  0  0  0  0999 V2000
  160.9650  211.1670  151.7550 C   0  0  0  0  0  0  0  0  0  0  0  0
  159.9580  214.3750  149.4510 C   0  0  0  0  0  3  0  0  0  0  0  0
  160.7390  213.4280  148.8400 N   0  0  0  0  0  0  0  0  0  0  0  0
  161.7660  209.9210  151.5700 C   0  0  0  0  0  1  0  0  0  0  0  0
  159.9680  213.1040  151.4120 C   0  0  0  0  0  0  0  0  0  0  0  0
  159.6830  212.7780  152.6880 N   0  0  0  0  0  0  0  0  0  0  0  0
  160.7440  212.1530  150.8190 C   0  0  0  0  0  0  0  0  0  0  0  0
  159.5660  214.2180  150.7510 N   0  0  0  0  0  0  0  0  0  0  0  0
  160.2890  211.5830  152.9060 C   0  0  0  0  0  0  0  0  0  0  0  0
  161.1470  212.3050  149.5010 C   0  0  0  0  0  3  0  0  0  0  0  0
  157.9480  213.1100  156.9670 C   0  0  0  0  0  2  0  0  0  0  0  0
  158.8850  213.5330  153.6510 C   0  0  2  0  0  3  0  0  0  0  0  0
  157.1140  213.7450  155.9360 N   0  0  1  0  0  0  0  0  0  0  0  0
  155.3580  212.4870  154.8070 C   0  0  0  0  0  1  0  0  0  0  0  0
  158.5580  214.0900  156.0770 C   0  0  2  0  0  3  0  0  0  0  0  0
  159.4650  213.3920  155.0590 C   0  0  0  0  0  2  0  0  0  0  0  0
  157.4080  213.1290  153.5670 C   0  0  0  0  0  2  0  0  0  0  0  0
  156.8510  212.7140  154.9270 C   0  0  1  0  0  3  0  0  0  0  0  0
  159.9860  208.6700  156.0210 C   0  0  0  0  0  2  0  0  0  0  0  0
  158.9390  209.7350  155.6620 C   0  0  0  0  0  2  0  0  0  0  0  0
  161.1220  208.5900  154.9880 C   0  0  2  0  0  3  0  0  0  0  0  0
  162.4700  210.6740  155.3020 C   0  0  0  0  0  1  0  0  0  0  0  0
  160.2320  210.8540  154.2120 C   0  0  1  0  0  3  0  0  0  0  0  0
  159.0410  210.1120  154.3120 O   0  0  0  0  0  0  0  0  0  0  0  0
  161.4750  209.9660  154.4020 C   0  0  2  0  0  3  0  0  0  0  0  0
  160.7480  207.7260  153.9580 O   0  0  0  0  0  0  0  0  0  0  0  0
  161.6010  206.6280  154.0800 C   0  0  0  0  0  2  0  0  0  0  0  0
  161.3010  205.6130  152.9900 C   0  0  0  0  0  2  0  0  0  0  0  0
  161.3440  206.2770  151.6270 C   0  0  0  0  0  2  0  0  0  0  0  0
  161.0650  205.2480  150.5530 C   0  0  0  0  0  1  0  0  0  0  0  0
  1  9  2  0  0  0  0
  2  8  1  0  0  0  0
  3  2  2  0  0  0  0
  3 10  1  0  0  0  0
  4  1  1  0  0  0  0
  5  6  1  0  0  0  0
  6  9  1  0  0  0  0
  7  5  1  0  0  0  0
  7  1  1  0  0  0  0
  8  5  2  0  0  0  0
 10  7  2  0  0  0  0
 12  6  1  6  0  0  0
 12 16  1  0  0  0  0
 13 15  1  0  0  0  0
 13 11  1  1  0  0  0
 15 16  1  6  0  0  0
 15 11  1  0  0  0  0
 17 12  1  0  0  0  0
 17 18  1  0  0  0  0
 18 14  1  6  0  0  0
 18 13  1  0  0  0  0
 20 19  1  0  0  0  0
 21 26  1  6  0  0  0
 21 19  1  0  0  0  0
 23  9  1  6  0  0  0
 23 24  1  0  0  0  0
 23 25  1  0  0  0  0
 24 20  1  0  0  0  0
 25 21  1  0  0  0  0
 25 22  1  1  0  0  0
 26 27  1  0  0  0  0
 28 27  1  0  0  0  0
 29 28  1  0  0  0  0
 30 29  1  0  0  0  0
M  END
>  <MODEL>
6

>  <REMARK>
 VINA RESULT:      -4.7      2.257      5.525
  Name = 
  6 active torsions:
  status: ('A' for Active; 'I' for Inactive)
    1  A    between atoms: C_5  and  O_18
    2  A    between atoms: C_7  and  N_15
    3  A    between atoms: C_8  and  C_10
    4  A    between atoms: C_8  and  C_17
    5  A    between atoms: C_12  and  C_27
    6  A    between atoms: C_17  and  O_18
                            x       y       z     vdW  Elec       q    Type
                         _______ _______ _______ _____ _____    ______ ____

>  <TORSDO>
F 6

$$$$
=
 OpenBabel11042420103D

 30 34  0  0  1  0  0  0  0  0999 V2000
  161.4290  206.9150  150.3670 C   0  0  0  0  0  0  0  0  0  0  0  0
  161.2170  210.3280  152.5850 C   0  0  0  0  0  3  0  0  0  0  0  0
  160.9240  209.1680  153.2530 N   0  0  0  0  0  0  0  0  0  0  0  0
  161.2090  205.4600  150.6130 C   0  0  0  0  0  1  0  0  0  0  0  0
  161.5870  209.0990  150.6320 C   0  0  0  0  0  0  0  0  0  0  0  0
  161.8940  208.8740  149.3400 N   0  0  0  0  0  0  0  0  0  0  0  0
  161.2980  207.9360  151.2820 C   0  0  0  0  0  0  0  0  0  0  0  0
  161.5520  210.3010  151.2600 N   0  0  0  0  0  0  0  0  0  0  0  0
  161.8040  207.5310  149.1690 C   0  0  0  0  0  0  0  0  0  0  0  0
  160.9570  207.9550  152.6270 C   0  0  0  0  0  3  0  0  0  0  0  0
  162.5620  213.3110  148.1980 C   0  0  0  0  0  2  0  0  0  0  0  0
  162.2560  209.8550  148.3180 C   0  0  2  0  0  3  0  0  0  0  0  0
  162.1020  212.4720  147.0810 N   0  0  1  0  0  0  0  0  0  0  0  0
  159.7250  212.2140  146.6150 C   0  0  0  0  0  1  0  0  0  0  0  0
  163.3020  212.0960  147.8840 C   0  0  2  0  0  3  0  0  0  0  0  0
  163.0290  211.0180  148.9390 C   0  0  0  0  0  2  0  0  0  0  0  0
  161.0150  210.3070  147.5380 C   0  0  0  0  0  2  0  0  0  0  0  0
  160.8660  211.8270  147.5340 C   0  0  1  0  0  3  0  0  0  0  0  0
  162.4860  204.7110  146.0280 C   0  0  0  0  0  2  0  0  0  0  0  0
  163.5230  205.6660  146.6390 C   0  0  0  0  0  2  0  0  0  0  0  0
  161.1650  204.6970  146.8140 C   0  0  2  0  0  3  0  0  0  0  0  0
  160.0770  206.9010  146.3490 C   0  0  0  0  0  1  0  0  0  0  0  0
  162.0610  206.8450  147.8630 C   0  0  1  0  0  3  0  0  0  0  0  0
  163.1840  206.0040  147.9610 O   0  0  0  0  0  0  0  0  0  0  0  0
  160.8140  206.0780  147.3890 C   0  0  2  0  0  3  0  0  0  0  0  0
  161.2560  203.7680  147.8520 O   0  0  0  0  0  0  0  0  0  0  0  0
  161.1990  202.5210  147.2270 C   0  0  0  0  0  2  0  0  0  0  0  0
  161.1880  201.4170  148.2710 C   0  0  0  0  0  2  0  0  0  0  0  0
  160.1680  201.7260  149.3500 C   0  0  0  0  0  2  0  0  0  0  0  0
  160.8580  201.7810  150.6970 C   0  0  0  0  0  1  0  0  0  0  0  0
  1  4  1  0  0  0  0
  1  7  1  0  0  0  0
  2  3  1  0  0  0  0
  5  8  1  0  0  0  0
  5  7  2  0  0  0  0
  6  5  1  0  0  0  0
  7 10  1  0  0  0  0
  8  2  2  0  0  0  0
  9  6  1  0  0  0  0
  9  1  2  0  0  0  0
 10  3  2  0  0  0  0
 12 17  1  1  0  0  0
 12 16  1  0  0  0  0
 12  6  1  0  0  0  0
 13 18  1  0  0  0  0
 13 15  1  0  0  0  0
 13 11  1  1  0  0  0
 15 11  1  1  0  0  0
 15 16  1  0  0  0  0
 18 14  1  6  0  0  0
 18 17  1  0  0  0  0
 19 20  1  0  0  0  0
 19 21  1  0  0  0  0
 20 24  1  0  0  0  0
 21 25  1  0  0  0  0
 21 26  1  1  0  0  0
 23 24  1  0  0  0  0
 23  9  1  1  0  0  0
 25 22  1  6  0  0  0
 25 23  1  0  0  0  0
 27 26  1  0  0  0  0
 27 28  1  0  0  0  0
 28 29  1  0  0  0  0
 29 30  1  0  0  0  0
M  END
>  <MODEL>
7

>  <REMARK>
 VINA RESULT:      -4.5      3.734      7.405
  Name = 
  6 active torsions:
  status: ('A' for Active; 'I' for Inactive)
    1  A    between atoms: C_5  and  O_18
    2  A    between atoms: C_7  and  N_15
    3  A    between atoms: C_8  and  C_10
    4  A    between atoms: C_8  and  C_17
    5  A    between atoms: C_12  and  C_27
    6  A    between atoms: C_17  and  O_18
                            x       y       z     vdW  Elec       q    Type
                         _______ _______ _______ _____ _____    ______ ____

>  <TORSDO>
F 6

$$$$
=
 OpenBabel11042420103D

 30 34  0  0  1  0  0  0  0  0999 V2000
  161.5610  209.4860  152.1270 C   0  0  0  0  0  0  0  0  0  0  0  0
  162.1500  208.4130  148.2390 C   0  0  0  0  0  3  0  0  0  0  0  0
  162.4840  209.7040  148.5540 N   0  0  0  0  0  0  0  0  0  0  0  0
  161.7540  210.7230  152.9400 C   0  0  0  0  0  1  0  0  0  0  0  0
  161.5020  208.0490  150.4550 C   0  0  0  0  0  0  0  0  0  0  0  0
  161.0320  207.3740  151.5220 N   0  0  0  0  0  0  0  0  0  0  0  0
  161.8300  209.3310  150.7850 C   0  0  0  0  0  0  0  0  0  0  0  0
  161.6520  207.5710  149.1950 N   0  0  0  0  0  0  0  0  0  0  0  0
  161.0700  208.2510  152.5570 C   0  0  0  0  0  0  0  0  0  0  0  0
  162.3340  210.1910  149.8210 C   0  0  0  0  0  3  0  0  0  0  0  0
  162.1110  202.8740  151.6760 C   0  0  0  0  0  2  0  0  0  0  0  0
  160.5760  205.9870  151.5780 C   0  0  2  0  0  3  0  0  0  0  0  0
  160.8350  203.1580  151.0020 N   0  0  1  0  0  0  0  0  0  0  0  0
  160.7570  203.5470  148.5980 C   0  0  0  0  0  1  0  0  0  0  0  0
  161.1090  203.6670  152.3760 C   0  0  2  0  0  3  0  0  0  0  0  0
  161.5290  205.1400  152.4200 C   0  0  0  0  0  2  0  0  0  0  0  0
  160.3650  205.4290  150.1650 C   0  0  0  0  0  2  0  0  0  0  0  0
  161.1360  204.1280  149.9440 C   0  0  1  0  0  3  0  0  0  0  0  0
  160.7400  207.6400  156.7770 C   0  0  0  0  0  2  0  0  0  0  0  0
  160.9010  206.5510  155.7060 C   0  0  0  0  0  2  0  0  0  0  0  0
  160.9250  209.0560  156.2070 C   0  0  2  0  0  3  0  0  0  0  0  0
  158.8970  209.4930  154.8080 C   0  0  0  0  0  1  0  0  0  0  0  0
  160.6230  207.9100  153.9450 C   0  0  1  0  0  3  0  0  0  0  0  0
  161.5510  207.0520  154.5650 O   0  0  0  0  0  0  0  0  0  0  0  0
  160.3820  209.1840  154.7750 C   0  0  2  0  0  3  0  0  0  0  0  0
  162.2810  209.3860  156.2240 O   0  0  0  0  0  0  0  0  0  0  0  0
  162.3130  210.7760  156.3540 C   0  0  0  0  0  2  0  0  0  0  0  0
  161.1840  211.2380  157.2590 C   0  0  0  0  0  2  0  0  0  0  0  0
  160.8140  212.6750  156.9440 C   0  0  0  0  0  2  0  0  0  0  0  0
  159.4250  212.7200  156.3430 C   0  0  0  0  0  1  0  0  0  0  0  0
  1  9  2  0  0  0  0
  1  4  1  0  0  0  0
  2  3  2  0  0  0  0
  2  8  1  0  0  0  0
  3 10  1  0  0  0  0
  5  7  1  0  0  0  0
  5  6  1  0  0  0  0
  6 12  1  0  0  0  0
  6  9  1  0  0  0  0
  7  1  1  0  0  0  0
  8  5  2  0  0  0  0
 10  7  2  0  0  0  0
 12 17  1  6  0  0  0
 12 16  1  0  0  0  0
 13 11  1  6  0  0  0
 13 15  1  0  0  0  0
 15 11  1  6  0  0  0
 15 16  1  0  0  0  0
 18 14  1  6  0  0  0
 18 17  1  0  0  0  0
 18 13  1  0  0  0  0
 20 19  1  0  0  0  0
 21 26  1  6  0  0  0
 21 19  1  0  0  0  0
 23  9  1  6  0  0  0
 23 24  1  0  0  0  0
 23 25  1  0  0  0  0
 24 20  1  0  0  0  0
 25 22  1  1  0  0  0
 25 21  1  0  0  0  0
 26 27  1  0  0  0  0
 27 28  1  0  0  0  0
 29 28  1  0  0  0  0
 30 29  1  0  0  0  0
M  END
>  <MODEL>
8

>  <REMARK>
 VINA RESULT:      -4.5      2.077      4.923
  Name = 
  6 active torsions:
  status: ('A' for Active; 'I' for Inactive)
    1  A    between atoms: C_5  and  O_18
    2  A    between atoms: C_7  and  N_15
    3  A    between atoms: C_8  and  C_10
    4  A    between atoms: C_8  and  C_17
    5  A    between atoms: C_12  and  C_27
    6  A    between atoms: C_17  and  O_18
                            x       y       z     vdW  Elec       q    Type
                         _______ _______ _______ _____ _____    ______ ____

>  <TORSDO>
F 6

$$$$
=
 OpenBabel11042420103D

 30 34  0  0  1  0  0  0  0  0999 V2000
  161.9550  209.0930  150.0890 C   0  0  0  0  0  0  0  0  0  0  0  0
  160.7700  212.9910  150.2360 C   0  0  0  0  0  3  0  0  0  0  0  0
  161.3220  212.5830  149.0490 N   0  0  0  0  0  0  0  0  0  0  0  0
  162.5890  208.2020  149.0740 C   0  0  0  0  0  1  0  0  0  0  0  0
  161.0790  210.8440  151.1060 C   0  0  0  0  0  0  0  0  0  0  0  0
  161.0380  209.8480  152.0120 N   0  0  0  0  0  0  0  0  0  0  0  0
  161.6290  210.4230  149.9320 C   0  0  0  0  0  0  0  0  0  0  0  0
  160.6460  212.1170  151.2800 N   0  0  0  0  0  0  0  0  0  0  0  0
  161.5710  208.7650  151.3920 C   0  0  0  0  0  0  0  0  0  0  0  0
  161.7610  211.3030  148.8680 C   0  0  0  0  0  3  0  0  0  0  0  0
  159.6660  212.4140  155.6130 C   0  0  0  0  0  2  0  0  0  0  0  0
  160.5270  209.8990  153.3800 C   0  0  2  0  0  3  0  0  0  0  0  0
  160.2600  211.1240  155.9940 N   0  0  1  0  0  0  0  0  0  0  0  0
  162.6500  210.9350  156.4280 C   0  0  0  0  0  1  0  0  0  0  0  0
  159.1340  211.1950  155.0190 C   0  0  2  0  0  3  0  0  0  0  0  0
  159.5730  211.0800  153.5550 C   0  0  0  0  0  2  0  0  0  0  0  0
  161.6810  209.9050  154.3900 C   0  0  0  0  0  2  0  0  0  0  0  0
  161.5830  211.0790  155.3630 C   0  0  1  0  0  3  0  0  0  0  0  0
  161.2080  204.6960  152.6570 C   0  0  0  0  0  2  0  0  0  0  0  0
  160.8330  205.9430  153.4720 C   0  0  0  0  0  2  0  0  0  0  0  0
  161.5470  205.0300  151.1950 C   0  0  2  0  0  3  0  0  0  0  0  0
  163.7540  206.2060  151.2630 C   0  0  0  0  0  1  0  0  0  0  0  0
  161.7260  207.4290  152.0510 C   0  0  1  0  0  3  0  0  0  0  0  0
  160.5100  207.0210  152.6310 O   0  0  0  0  0  0  0  0  0  0  0  0
  162.2620  206.3830  151.0560 C   0  0  2  0  0  3  0  0  0  0  0  0
  160.3720  205.0430  150.4400 O   0  0  0  0  0  0  0  0  0  0  0  0
  160.7970  205.1280  149.1130 C   0  0  0  0  0  2  0  0  0  0  0  0
  161.2080  203.7550  148.6110 C   0  0  0  0  0  2  0  0  0  0  0  0
  161.5860  203.8240  147.1430 C   0  0  0  0  0  2  0  0  0  0  0  0
  162.2460  205.1550  146.8530 C   0  0  0  0  0  1  0  0  0  0  0  0
  1  9  2  0  0  0  0
  2  8  1  0  0  0  0
  3  2  2  0  0  0  0
  4  1  1  0  0  0  0
  5  8  2  0  0  0  0
  5  6  1  0  0  0  0
  7  1  1  0  0  0  0
  7  5  1  0  0  0  0
  9  6  1  0  0  0  0
 10  3  1  0  0  0  0
 10  7  2  0  0  0  0
 12  6  1  6  0  0  0
 12 16  1  0  0  0  0
 12 17  1  0  0  0  0
 13 11  1  1  0  0  0
 15 16  1  6  0  0  0
 15 11  1  0  0  0  0
 15 13  1  0  0  0  0
 17 18  1  0  0  0  0
 18 13  1  0  0  0  0
 18 14  1  1  0  0  0
 19 20  1  0  0  0  0
 21 26  1  6  0  0  0
 21 19  1  0  0  0  0
 23  9  1  6  0  0  0
 23 24  1  0  0  0  0
 24 20  1  0  0  0  0
 25 21  1  0  0  0  0
 25 22  1  1  0  0  0
 25 23  1  0  0  0  0
 27 26  1  0  0  0  0
 28 27  1  0  0  0  0
 29 28  1  0  0  0  0
 30 29  1  0  0  0  0
M  END
>  <MODEL>
9

>  <REMARK>
 VINA RESULT:      -4.5      2.290      6.241
  Name = 
  6 active torsions:
  status: ('A' for Active; 'I' for Inactive)
    1  A    between atoms: C_5  and  O_18
    2  A    between atoms: C_7  and  N_15
    3  A    between atoms: C_8  and  C_10
    4  A    between atoms: C_8  and  C_17
    5  A    between atoms: C_12  and  C_27
    6  A    between atoms: C_17  and  O_18
                            x       y       z     vdW  Elec       q    Type
                         _______ _______ _______ _____ _____    ______ ____

>  <TORSDO>
F 6

$$$$
