=
 OpenBabel11042420573D

 46 53  0  0  1  0  0  0  0  0999 V2000
  158.3010  211.5760  154.6510 C   0  0  0  0  0  0  0  0  0  0  0  0
  162.2300  210.4350  156.0700 C   0  0  0  0  0  3  0  0  0  0  0  0
  156.0350  212.3810  155.0210 C   0  0  0  0  0  0  0  0  0  0  0  0
  159.9430  209.5320  156.3730 C   0  0  0  0  0  0  0  0  0  0  0  0
  161.8530  210.6220  153.7950 C   0  0  0  0  0  3  0  0  0  0  0  0
  157.4620  211.9170  156.9150 C   0  0  0  0  0  3  0  0  0  0  0  0
  156.2390  212.3490  156.4000 C   0  0  0  0  0  3  0  0  0  0  0  0
  160.6570  210.7960  154.3450 C   0  0  0  0  0  0  0  0  0  0  0  0
  157.0560  211.9900  154.1550 C   0  0  0  0  0  3  0  0  0  0  0  0
  159.6160  208.2890  156.4720 N   0  0  0  0  0  0  0  0  0  0  0  0
  158.4990  211.5220  156.0630 C   0  0  0  0  0  0  0  0  0  0  0  0
  154.8150  212.8080  154.5110 O   0  0  0  0  0  1  0  0  0  0  0  0
  159.3740  211.1630  153.6570 C   0  0  2  0  0  3  0  0  0  0  0  0
  162.8290  210.4000  154.8780 C   0  0  0  0  0  3  0  0  0  0  0  0
  160.7930  210.6520  155.7930 C   0  0  2  0  0  0  0  0  0  0  0  0
  159.7680  211.0190  156.7200 C   0  0  2  0  0  3  0  0  0  0  0  0
  159.3120  214.4530  151.7280 C   0  0  0  0  0  3  0  0  0  0  0  0
  160.6720  212.8570  150.5100 C   0  0  0  0  0  0  0  0  0  0  0  0
  160.1100  214.1320  150.6270 C   0  0  0  0  0  3  0  0  0  0  0  0
  159.6040  212.2070  152.5970 C   0  0  0  0  0  0  0  0  0  0  0  0
  159.0640  213.4960  152.7150 C   0  0  0  0  0  3  0  0  0  0  0  0
  160.4150  211.8970  151.5020 C   0  0  0  0  0  3  0  0  0  0  0  0
  161.4860  212.5730  149.4120 O   0  0  0  0  0  0  0  0  0  0  0  0
  161.4340  213.3280  148.2070 C   0  0  0  0  0  2  0  0  0  0  0  0
  160.2720  212.8500  147.3350 C   0  0  2  0  0  3  0  0  0  0  0  0
  159.1140  214.3280  142.9640 C   0  0  0  0  0  1  0  0  0  0  0  0
  159.7070  212.8180  144.9020 C   0  0  0  0  0  0  0  0  0  0  0  0
  162.2190  213.4860  145.4600 S   0  0  0  0  0  0  0  0  0  0  0  0
  161.3420  214.4360  144.1650 C   0  0  0  0  0  2  0  0  0  0  0  0
  158.6140  212.1940  144.8350 O   0  0  0  0  0  0  0  0  0  0  0  0
  160.7430  212.4940  145.9160 C   0  0  1  0  0  3  0  0  0  0  0  0
  160.0270  213.8590  143.9950 N   0  0  0  0  0  0  0  0  0  0  0  0
  159.2100  213.8380  147.3130 N   0  0  0  0  0  0  0  0  0  0  0  0
  158.0190  213.5810  147.7290 C   0  0  0  0  0  2  0  0  0  0  0  0
  160.2960  207.3470  155.7400 O   0  0  0  0  0  0  0  0  0  0  0  0
  161.7550  205.8160  151.6120 C   0  0  2  0  0  0  0  0  0  0  0  0
  161.5670  207.0480  152.3400 N   0  0  0  0  0  0  0  0  0  0  0  0
  161.5420  205.3440  149.0850 C   0  0  0  0  0  1  0  0  0  0  0  0
  160.8050  207.6680  154.5040 N   0  0  0  0  0  0  0  0  0  0  0  0
  161.1650  204.7000  152.4850 C   0  0  0  0  0  2  0  0  0  0  0  0
  160.9780  208.1010  151.5300 C   0  0  0  0  0  2  0  0  0  0  0  0
  160.9100  205.3000  153.8690 C   0  0  0  0  0  2  0  0  0  0  0  0
  161.0820  206.7510  153.6350 C   0  0  0  0  0  0  0  0  0  0  0  0
  160.8290  207.5090  150.1380 C   0  0  0  0  0  2  0  0  0  0  0  0
  163.2460  205.5810  151.3950 C   0  0  0  0  0  1  0  0  0  0  0  0
  160.9550  206.0030  150.3230 C   0  0  2  0  0  3  0  0  0  0  0  0
  1 11  1  0  0  0  0
  3  7  2  0  0  0  0
  4 10  2  0  0  0  0
  4 16  1  0  0  0  0
  5  8  2  0  0  0  0
  5 14  1  0  0  0  0
  7  6  1  0  0  0  0
  8 15  1  0  0  0  0
  9  1  2  0  0  0  0
  9  3  1  0  0  0  0
 11  6  2  0  0  0  0
 12  3  1  0  0  0  0
 13 20  1  6  0  0  0
 13  8  1  0  0  0  0
 13  1  1  0  0  0  0
 14  2  2  0  0  0  0
 15  2  1  1  0  0  0
 15  4  1  0  0  0  0
 15 16  1  0  0  0  0
 16 11  1  6  0  0  0
 17 21  1  0  0  0  0
 18 19  1  0  0  0  0
 18 22  2  0  0  0  0
 19 17  2  0  0  0  0
 20 21  2  0  0  0  0
 22 20  1  0  0  0  0
 23 18  1  0  0  0  0
 24 23  1  0  0  0  0
 25 24  1  1  0  0  0
 26 32  1  0  0  0  0
 27 31  1  0  0  0  0
 28 31  1  0  0  0  0
 29 28  1  0  0  0  0
 30 27  2  0  0  0  0
 31 25  1  1  0  0  0
 32 29  1  0  0  0  0
 32 27  1  0  0  0  0
 33 25  1  0  0  0  0
 33 34  2  0  0  0  0
 35 10  1  0  0  0  0
 36 45  1  6  0  0  0
 36 37  1  0  0  0  0
 36 40  1  0  0  0  0
 37 43  1  0  0  0  0
 39 35  1  0  0  0  0
 40 42  1  0  0  0  0
 41 37  1  0  0  0  0
 43 42  1  0  0  0  0
 43 39  2  0  0  0  0
 44 46  1  0  0  0  0
 44 41  1  0  0  0  0
 46 38  1  6  0  0  0
 46 36  1  0  0  0  0
M  END
>  <MODEL>
1

>  <REMARK>
 VINA RESULT:      -6.3      0.000      0.000
  Name = 
  8 active torsions:
  status: ('A' for Active; 'I' for Inactive)
    1  A    between atoms: N_2  and  C_8
    2  A    between atoms: C_8  and  C_13
    3  A    between atoms: C_8  and  C_24
    4  A    between atoms: O_11  and  C_13
    5  A    between atoms: O_11  and  C_21
    6  A    between atoms: N_17  and  O_41
    7  A    between atoms: N_29  and  O_41
    8  A    between atoms: C_31  and  C_36
                            x       y       z     vdW  Elec       q    Type
                         _______ _______ _______ _____ _____    ______ ____

>  <TORSDO>
F 8

$$$$
=
 OpenBabel11042420573D

 46 53  0  0  1  0  0  0  0  0999 V2000
  160.5230  208.5920  153.9680 C   0  0  0  0  0  0  0  0  0  0  0  0
  162.9490  206.8040  150.8590 C   0  0  0  0  0  3  0  0  0  0  0  0
  160.0360  209.0690  156.3030 C   0  0  0  0  0  0  0  0  0  0  0  0
  161.5590  205.9140  152.7050 C   0  0  0  0  0  0  0  0  0  0  0  0
  161.2440  208.2570  150.2770 C   0  0  0  0  0  3  0  0  0  0  0  0
  161.8660  207.5940  155.7420 C   0  0  0  0  0  3  0  0  0  0  0  0
  161.0960  208.2560  156.7000 C   0  0  0  0  0  3  0  0  0  0  0  0
  161.1130  208.0990  151.5890 C   0  0  0  0  0  0  0  0  0  0  0  0
  159.7470  209.2290  154.9480 C   0  0  0  0  0  3  0  0  0  0  0  0
  160.8470  204.8390  152.6800 N   0  0  0  0  0  0  0  0  0  0  0  0
  161.5940  207.7430  154.3780 C   0  0  0  0  0  0  0  0  0  0  0  0
  159.2690  209.7220  157.2600 O   0  0  0  0  0  1  0  0  0  0  0  0
  160.1590  208.8060  152.5070 C   0  0  2  0  0  3  0  0  0  0  0  0
  162.3930  207.4460  149.8300 C   0  0  0  0  0  3  0  0  0  0  0  0
  162.1340  207.1560  152.0420 C   0  0  2  0  0  0  0  0  0  0  0  0
  162.4510  206.9410  153.4200 C   0  0  2  0  0  3  0  0  0  0  0  0
  159.1470  212.4840  152.5530 C   0  0  0  0  0  3  0  0  0  0  0  0
  160.7570  212.1360  150.7730 C   0  0  0  0  0  0  0  0  0  0  0  0
  159.9120  212.9840  151.4960 C   0  0  0  0  0  3  0  0  0  0  0  0
  160.0450  210.2650  152.1550 C   0  0  0  0  0  0  0  0  0  0  0  0
  159.2170  211.1290  152.8870 C   0  0  0  0  0  3  0  0  0  0  0  0
  160.8200  210.7740  151.1100 C   0  0  0  0  0  3  0  0  0  0  0  0
  161.5290  212.6700  149.7390 O   0  0  0  0  0  0  0  0  0  0  0  0
  161.2260  213.9160  149.1240 C   0  0  0  0  0  2  0  0  0  0  0  0
  161.7070  213.9190  147.6730 C   0  0  2  0  0  3  0  0  0  0  0  0
  160.0700  212.1270  143.5820 C   0  0  0  0  0  1  0  0  0  0  0  0
  160.8300  213.7770  145.3380 C   0  0  0  0  0  0  0  0  0  0  0  0
  158.9900  213.5440  147.2420 S   0  0  0  0  0  0  0  0  0  0  0  0
  158.8850  212.4220  145.8010 C   0  0  0  0  0  2  0  0  0  0  0  0
  161.7670  214.2130  144.6170 O   0  0  0  0  0  0  0  0  0  0  0  0
  160.5740  214.2980  146.7060 C   0  0  1  0  0  3  0  0  0  0  0  0
  159.9430  212.7720  144.8790 N   0  0  0  0  0  0  0  0  0  0  0  0
  162.2980  212.6400  147.3270 N   0  0  0  0  0  0  0  0  0  0  0  0
  163.5650  212.4230  147.3970 C   0  0  0  0  0  2  0  0  0  0  0  0
  160.2090  204.4730  151.5210 O   0  0  0  0  0  0  0  0  0  0  0  0
  160.8090  201.6370  147.9010 C   0  0  2  0  0  0  0  0  0  0  0  0
  161.3680  202.8340  148.4820 N   0  0  0  0  0  0  0  0  0  0  0  0
  160.6270  200.9360  145.4250 C   0  0  0  0  0  1  0  0  0  0  0  0
  160.9400  204.1790  150.3940 N   0  0  0  0  0  0  0  0  0  0  0  0
  159.5500  201.3030  148.7150 C   0  0  0  0  0  2  0  0  0  0  0  0
  161.6780  203.8530  147.4950 C   0  0  0  0  0  2  0  0  0  0  0  0
  159.5840  202.1770  149.9690 C   0  0  0  0  0  2  0  0  0  0  0  0
  160.6640  203.1430  149.6700 C   0  0  0  0  0  0  0  0  0  0  0  0
  161.3430  203.2310  146.1480 C   0  0  0  0  0  2  0  0  0  0  0  0
  161.8220  200.5020  148.0100 C   0  0  0  0  0  1  0  0  0  0  0  0
  160.4610  202.0320  146.4650 C   0  0  2  0  0  3  0  0  0  0  0  0
  1 11  2  0  0  0  0
  1  9  1  0  0  0  0
  3  7  1  0  0  0  0
  3 12  1  0  0  0  0
  5  8  2  0  0  0  0
  6  7  2  0  0  0  0
  8 15  1  0  0  0  0
  8 13  1  0  0  0  0
  9  3  2  0  0  0  0
 10  4  2  0  0  0  0
 11  6  1  0  0  0  0
 13 20  1  6  0  0  0
 13  1  1  0  0  0  0
 14  5  1  0  0  0  0
 14  2  2  0  0  0  0
 15  2  1  6  0  0  0
 15  4  1  0  0  0  0
 15 16  1  0  0  0  0
 16  4  1  1  0  0  0
 16 11  1  0  0  0  0
 17 21  1  0  0  0  0
 18 22  2  0  0  0  0
 18 19  1  0  0  0  0
 19 17  2  0  0  0  0
 20 21  2  0  0  0  0
 22 20  1  0  0  0  0
 23 18  1  0  0  0  0
 24 23  1  0  0  0  0
 25 24  1  1  0  0  0
 26 32  1  0  0  0  0
 27 31  1  0  0  0  0
 29 28  1  0  0  0  0
 30 27  2  0  0  0  0
 31 28  1  0  0  0  0
 31 25  1  1  0  0  0
 32 27  1  0  0  0  0
 32 29  1  0  0  0  0
 33 34  2  0  0  0  0
 33 25  1  0  0  0  0
 35 10  1  0  0  0  0
 36 45  1  1  0  0  0
 36 37  1  0  0  0  0
 36 40  1  0  0  0  0
 37 43  1  0  0  0  0
 39 35  1  0  0  0  0
 40 42  1  0  0  0  0
 41 37  1  0  0  0  0
 43 42  1  0  0  0  0
 43 39  2  0  0  0  0
 44 46  1  0  0  0  0
 44 41  1  0  0  0  0
 46 38  1  6  0  0  0
 46 36  1  0  0  0  0
M  END
>  <MODEL>
2

>  <REMARK>
 VINA RESULT:      -5.7      2.687      4.512
  Name = 
  8 active torsions:
  status: ('A' for Active; 'I' for Inactive)
    1  A    between atoms: N_2  and  C_8
    2  A    between atoms: C_8  and  C_13
    3  A    between atoms: C_8  and  C_24
    4  A    between atoms: O_11  and  C_13
    5  A    between atoms: O_11  and  C_21
    6  A    between atoms: N_17  and  O_41
    7  A    between atoms: N_29  and  O_41
    8  A    between atoms: C_31  and  C_36
                            x       y       z     vdW  Elec       q    Type
                         _______ _______ _______ _____ _____    ______ ____

>  <TORSDO>
F 8

$$$$
=
 OpenBabel11042420573D

 46 53  0  0  1  0  0  0  0  0999 V2000
  160.5070  208.5720  153.8980 C   0  0  0  0  0  0  0  0  0  0  0  0
  163.0150  206.9660  150.7540 C   0  0  0  0  0  3  0  0  0  0  0  0
  159.9360  208.8780  156.2430 C   0  0  0  0  0  0  0  0  0  0  0  0
  161.5280  205.9730  152.4680 C   0  0  0  0  0  0  0  0  0  0  0  0
  161.3730  208.5080  150.2230 C   0  0  0  0  0  3  0  0  0  0  0  0
  161.7500  207.4000  155.6380 C   0  0  0  0  0  3  0  0  0  0  0  0
  160.9590  208.0070  156.6150 C   0  0  0  0  0  3  0  0  0  0  0  0
  161.1830  208.2520  151.5120 C   0  0  0  0  0  0  0  0  0  0  0  0
  159.7080  209.1520  154.8950 C   0  0  0  0  0  3  0  0  0  0  0  0
  160.7910  204.9240  152.3290 N   0  0  0  0  0  0  0  0  0  0  0  0
  161.5390  207.6640  154.2800 C   0  0  0  0  0  0  0  0  0  0  0  0
  159.1470  209.4760  157.2180 O   0  0  0  0  0  1  0  0  0  0  0  0
  160.2100  208.9110  152.4450 C   0  0  2  0  0  3  0  0  0  0  0  0
  162.5190  207.7030  149.7580 C   0  0  0  0  0  3  0  0  0  0  0  0
  162.1610  207.2470  151.9280 C   0  0  2  0  0  0  0  0  0  0  0  0
  162.4150  206.9160  153.2960 C   0  0  2  0  0  3  0  0  0  0  0  0
  159.5410  212.6370  152.9080 C   0  0  0  0  0  3  0  0  0  0  0  0
  160.7070  212.3050  150.8080 C   0  0  0  0  0  0  0  0  0  0  0  0
  160.1060  213.1570  151.7400 C   0  0  0  0  0  3  0  0  0  0  0  0
  160.1470  210.3950  152.2060 C   0  0  0  0  0  0  0  0  0  0  0  0
  159.5670  211.2610  153.1450 C   0  0  0  0  0  3  0  0  0  0  0  0
  160.7250  210.9220  151.0480 C   0  0  0  0  0  3  0  0  0  0  0  0
  161.2860  212.8550  149.6620 O   0  0  0  0  0  0  0  0  0  0  0  0
  160.6510  213.8750  148.9000 C   0  0  0  0  0  2  0  0  0  0  0  0
  160.0610  213.2860  147.6180 C   0  0  2  0  0  3  0  0  0  0  0  0
  162.1280  212.6830  143.3760 C   0  0  0  0  0  1  0  0  0  0  0  0
  161.4640  213.6990  145.5920 C   0  0  0  0  0  0  0  0  0  0  0  0
  158.8730  214.2110  145.2860 S   0  0  0  0  0  0  0  0  0  0  0  0
  159.7480  213.3490  143.9300 C   0  0  0  0  0  2  0  0  0  0  0  0
  162.6490  213.7050  146.0190 O   0  0  0  0  0  0  0  0  0  0  0  0
  160.3250  214.1950  146.4080 C   0  0  1  0  0  3  0  0  0  0  0  0
  161.1430  213.2360  144.2920 N   0  0  0  0  0  0  0  0  0  0  0  0
  158.6460  213.0150  147.7840 N   0  0  0  0  0  0  0  0  0  0  0  0
  157.9340  213.5880  148.6910 C   0  0  0  0  0  2  0  0  0  0  0  0
  160.1930  204.6690  151.1210 O   0  0  0  0  0  0  0  0  0  0  0  0
  161.6790  204.5130  146.7300 C   0  0  2  0  0  0  0  0  0  0  0  0
  161.3080  205.4680  147.7470 N   0  0  0  0  0  0  0  0  0  0  0  0
  161.4170  204.6480  144.1670 C   0  0  0  0  0  1  0  0  0  0  0  0
  160.5650  205.3760  150.0020 N   0  0  0  0  0  0  0  0  0  0  0  0
  161.3510  203.1240  147.2960 C   0  0  0  0  0  2  0  0  0  0  0  0
  160.4920  206.5550  147.2340 C   0  0  0  0  0  2  0  0  0  0  0  0
  161.0670  203.3030  148.7880 C   0  0  0  0  0  2  0  0  0  0  0  0
  160.9580  204.7720  148.9280 C   0  0  0  0  0  0  0  0  0  0  0  0
  160.3790  206.3080  145.7380 C   0  0  0  0  0  2  0  0  0  0  0  0
  163.1740  204.6280  146.4500 C   0  0  0  0  0  1  0  0  0  0  0  0
  160.7880  204.8560  145.5360 C   0  0  2  0  0  3  0  0  0  0  0  0
  1 11  2  0  0  0  0
  1  9  1  0  0  0  0
  3  7  1  0  0  0  0
  3 12  1  0  0  0  0
  5  8  2  0  0  0  0
  6  7  2  0  0  0  0
  8 15  1  0  0  0  0
  8 13  1  0  0  0  0
  9  3  2  0  0  0  0
 10  4  2  0  0  0  0
 11  6  1  0  0  0  0
 13 20  1  1  0  0  0
 13  1  1  0  0  0  0
 14  5  1  0  0  0  0
 14  2  2  0  0  0  0
 15  2  1  6  0  0  0
 15  4  1  0  0  0  0
 15 16  1  0  0  0  0
 16  4  1  6  0  0  0
 16 11  1  0  0  0  0
 17 21  1  0  0  0  0
 18 22  2  0  0  0  0
 18 19  1  0  0  0  0
 19 17  2  0  0  0  0
 20 21  2  0  0  0  0
 22 20  1  0  0  0  0
 23 18  1  0  0  0  0
 24 23  1  0  0  0  0
 25 33  1  0  0  0  0
 25 24  1  1  0  0  0
 26 32  1  0  0  0  0
 27 30  2  0  0  0  0
 27 31  1  0  0  0  0
 28 31  1  0  0  0  0
 29 32  1  0  0  0  0
 29 28  1  0  0  0  0
 31 25  1  1  0  0  0
 32 27  1  0  0  0  0
 33 34  2  0  0  0  0
 35 10  1  0  0  0  0
 36 45  1  6  0  0  0
 36 40  1  0  0  0  0
 36 37  1  0  0  0  0
 37 43  1  0  0  0  0
 39 35  1  0  0  0  0
 40 42  1  0  0  0  0
 41 37  1  0  0  0  0
 42 43  1  0  0  0  0
 43 39  2  0  0  0  0
 44 41  1  0  0  0  0
 46 38  1  6  0  0  0
 46 44  1  0  0  0  0
 46 36  1  0  0  0  0
M  END
>  <MODEL>
3

>  <REMARK>
 VINA RESULT:      -5.7      2.426      4.240
  Name = 
  8 active torsions:
  status: ('A' for Active; 'I' for Inactive)
    1  A    between atoms: N_2  and  C_8
    2  A    between atoms: C_8  and  C_13
    3  A    between atoms: C_8  and  C_24
    4  A    between atoms: O_11  and  C_13
    5  A    between atoms: O_11  and  C_21
    6  A    between atoms: N_17  and  O_41
    7  A    between atoms: N_29  and  O_41
    8  A    between atoms: C_31  and  C_36
                            x       y       z     vdW  Elec       q    Type
                         _______ _______ _______ _____ _____    ______ ____

>  <TORSDO>
F 8

$$$$
=
 OpenBabel11042420573D

 46 53  0  0  1  0  0  0  0  0999 V2000
  158.5490  210.9690  154.3140 C   0  0  0  0  0  0  0  0  0  0  0  0
  162.7550  210.4250  155.1860 C   0  0  0  0  0  3  0  0  0  0  0  0
  156.2310  211.2370  155.0040 C   0  0  0  0  0  0  0  0  0  0  0  0
  160.7220  209.0470  155.5070 C   0  0  0  0  0  0  0  0  0  0  0  0
  162.0940  210.8930  153.0180 C   0  0  0  0  0  3  0  0  0  0  0  0
  157.9240  210.7710  156.6640 C   0  0  0  0  0  3  0  0  0  0  0  0
  156.5930  211.0270  156.3330 C   0  0  0  0  0  3  0  0  0  0  0  0
  160.9570  210.7340  153.6850 C   0  0  0  0  0  0  0  0  0  0  0  0
  157.2010  211.2010  154.0020 C   0  0  0  0  0  3  0  0  0  0  0  0
  160.6410  207.7640  155.4080 N   0  0  0  0  0  0  0  0  0  0  0  0
  158.9130  210.7330  155.6740 C   0  0  0  0  0  0  0  0  0  0  0  0
  154.9030  211.4870  154.6780 O   0  0  0  0  0  1  0  0  0  0  0  0
  159.5590  210.9430  153.1790 C   0  0  2  0  0  3  0  0  0  0  0  0
  163.2110  210.7000  153.9620 C   0  0  0  0  0  3  0  0  0  0  0  0
  161.2810  210.3920  155.0690 C   0  0  2  0  0  0  0  0  0  0  0  0
  160.3180  210.3940  156.1260 C   0  0  2  0  0  3  0  0  0  0  0  0
  158.4840  214.3100  151.7460 C   0  0  0  0  0  3  0  0  0  0  0  0
  160.3510  213.4660  150.4480 C   0  0  0  0  0  0  0  0  0  0  0  0
  159.3900  214.4530  150.6920 C   0  0  0  0  0  3  0  0  0  0  0  0
  159.4720  212.1670  152.3080 C   0  0  0  0  0  0  0  0  0  0  0  0
  158.5280  213.1740  152.5560 C   0  0  0  0  0  3  0  0  0  0  0  0
  160.3870  212.3230  151.2620 C   0  0  0  0  0  3  0  0  0  0  0  0
  161.2590  213.6490  149.4040 O   0  0  0  0  0  0  0  0  0  0  0  0
  160.8470  213.9400  148.0740 C   0  0  0  0  0  2  0  0  0  0  0  0
  161.3120  212.8360  147.1230 C   0  0  2  0  0  3  0  0  0  0  0  0
  157.0480  214.3970  145.7050 C   0  0  0  0  0  1  0  0  0  0  0  0
  158.8570  212.9180  146.6650 C   0  0  0  0  0  0  0  0  0  0  0  0
  160.3730  212.3470  144.5570 S   0  0  0  0  0  0  0  0  0  0  0  0
  158.9810  213.5120  144.3280 C   0  0  0  0  0  2  0  0  0  0  0  0
  158.3180  212.8850  147.8030 O   0  0  0  0  0  0  0  0  0  0  0  0
  160.1290  212.2080  146.3700 C   0  0  1  0  0  3  0  0  0  0  0  0
  158.2710  213.6200  145.5830 N   0  0  0  0  0  0  0  0  0  0  0  0
  162.0810  211.8360  147.8390 N   0  0  0  0  0  0  0  0  0  0  0  0
  161.6240  210.6580  148.0850 C   0  0  0  0  0  2  0  0  0  0  0  0
  161.3950  207.1060  154.4680 O   0  0  0  0  0  0  0  0  0  0  0  0
  161.1680  205.8660  150.0050 C   0  0  2  0  0  0  0  0  0  0  0  0
  160.5520  205.5690  151.2760 N   0  0  0  0  0  0  0  0  0  0  0  0
  161.6010  204.3250  147.9810 C   0  0  0  0  0  1  0  0  0  0  0  0
  160.7830  206.3240  153.5170 N   0  0  0  0  0  0  0  0  0  0  0  0
  162.3380  206.8160  150.2980 C   0  0  0  0  0  2  0  0  0  0  0  0
  160.3430  204.1460  151.4860 C   0  0  0  0  0  2  0  0  0  0  0  0
  162.1760  207.2920  151.7430 C   0  0  0  0  0  2  0  0  0  0  0  0
  161.1310  206.3880  152.2730 C   0  0  0  0  0  0  0  0  0  0  0  0
  160.8140  203.4720  150.2070 C   0  0  0  0  0  2  0  0  0  0  0  0
  160.1500  206.5490  149.0970 C   0  0  0  0  0  1  0  0  0  0  0  0
  161.6600  204.5130  149.4890 C   0  0  2  0  0  3  0  0  0  0  0  0
  1 11  1  0  0  0  0
  3  7  2  0  0  0  0
  5  8  2  0  0  0  0
  5 14  1  0  0  0  0
  7  6  1  0  0  0  0
  8 15  1  0  0  0  0
  9  1  2  0  0  0  0
  9  3  1  0  0  0  0
 10  4  2  0  0  0  0
 11 16  1  0  0  0  0
 11  6  2  0  0  0  0
 12  3  1  0  0  0  0
 13 20  1  1  0  0  0
 13  8  1  0  0  0  0
 13  1  1  0  0  0  0
 14  2  2  0  0  0  0
 15  2  1  1  0  0  0
 15  4  1  0  0  0  0
 15 16  1  0  0  0  0
 16  4  1  6  0  0  0
 17 21  1  0  0  0  0
 18 19  1  0  0  0  0
 18 22  2  0  0  0  0
 19 17  2  0  0  0  0
 20 21  2  0  0  0  0
 22 20  1  0  0  0  0
 23 18  1  0  0  0  0
 24 23  1  0  0  0  0
 25 33  1  0  0  0  0
 25 24  1  1  0  0  0
 27 30  2  0  0  0  0
 28 31  1  0  0  0  0
 29 28  1  0  0  0  0
 29 32  1  0  0  0  0
 31 27  1  0  0  0  0
 31 25  1  1  0  0  0
 32 26  1  0  0  0  0
 32 27  1  0  0  0  0
 33 34  2  0  0  0  0
 35 10  1  0  0  0  0
 36 45  1  6  0  0  0
 36 40  1  0  0  0  0
 36 37  1  0  0  0  0
 37 41  1  0  0  0  0
 37 43  1  0  0  0  0
 39 35  1  0  0  0  0
 40 42  1  0  0  0  0
 42 43  1  0  0  0  0
 43 39  2  0  0  0  0
 44 41  1  0  0  0  0
 46 38  1  6  0  0  0
 46 36  1  0  0  0  0
 46 44  1  0  0  0  0
M  END
>  <MODEL>
4

>  <REMARK>
 VINA RESULT:      -5.5      1.457      2.038
  Name = 
  8 active torsions:
  status: ('A' for Active; 'I' for Inactive)
    1  A    between atoms: N_2  and  C_8
    2  A    between atoms: C_8  and  C_13
    3  A    between atoms: C_8  and  C_24
    4  A    between atoms: O_11  and  C_13
    5  A    between atoms: O_11  and  C_21
    6  A    between atoms: N_17  and  O_41
    7  A    between atoms: N_29  and  O_41
    8  A    between atoms: C_31  and  C_36
                            x       y       z     vdW  Elec       q    Type
                         _______ _______ _______ _____ _____    ______ ____

>  <TORSDO>
F 8

$$$$
=
 OpenBabel11042420573D

 46 53  0  0  1  0  0  0  0  0999 V2000
  160.9370  211.0920  155.0010 C   0  0  0  0  0  0  0  0  0  0  0  0
  156.6130  211.3340  155.0080 C   0  0  0  0  0  3  0  0  0  0  0  0
  163.1010  211.3230  156.0870 C   0  0  0  0  0  0  0  0  0  0  0  0
  158.4460  212.9880  155.2050 C   0  0  0  0  0  0  0  0  0  0  0  0
  157.6940  210.3520  153.2130 C   0  0  0  0  0  3  0  0  0  0  0  0
  161.1020  212.0300  157.2460 C   0  0  0  0  0  3  0  0  0  0  0  0
  162.4870  211.8580  157.2180 C   0  0  0  0  0  3  0  0  0  0  0  0
  158.6750  210.8350  153.9670 C   0  0  0  0  0  0  0  0  0  0  0  0
  162.3320  210.9510  154.9850 C   0  0  0  0  0  3  0  0  0  0  0  0
  158.4500  214.1890  154.7360 N   0  0  0  0  0  0  0  0  0  0  0  0
  160.3120  211.6600  156.1520 C   0  0  0  0  0  0  0  0  0  0  0  0
  164.4810  211.1580  156.0610 O   0  0  0  0  0  1  0  0  0  0  0  0
  160.1530  210.6670  153.7690 C   0  0  2  0  0  3  0  0  0  0  0  0
  156.4110  210.6660  153.8700 C   0  0  0  0  0  3  0  0  0  0  0  0
  158.0770  211.5160  155.1150 C   0  0  2  0  0  0  0  0  0  0  0  0
  158.8270  211.9360  156.2580 C   0  0  2  0  0  3  0  0  0  0  0  0
  160.8550  206.9180  153.8250 C   0  0  0  0  0  3  0  0  0  0  0  0
  160.9630  207.7010  151.5330 C   0  0  0  0  0  0  0  0  0  0  0  0
  161.0580  206.6640  152.4660 C   0  0  0  0  0  3  0  0  0  0  0  0
  160.4880  209.2650  153.3350 C   0  0  0  0  0  0  0  0  0  0  0  0
  160.5640  208.2130  154.2590 C   0  0  0  0  0  3  0  0  0  0  0  0
  160.6760  209.0030  151.9740 C   0  0  0  0  0  3  0  0  0  0  0  0
  161.1460  207.4130  150.1790 O   0  0  0  0  0  0  0  0  0  0  0  0
  161.6760  206.1720  149.7260 C   0  0  0  0  0  2  0  0  0  0  0  0
  161.2960  205.9390  148.2630 C   0  0  2  0  0  3  0  0  0  0  0  0
  160.4400  202.0320  145.6880 C   0  0  0  0  0  1  0  0  0  0  0  0
  161.4240  203.5930  147.4150 C   0  0  0  0  0  0  0  0  0  0  0  0
  162.7320  205.3870  145.9520 S   0  0  0  0  0  0  0  0  0  0  0  0
  161.7570  204.1080  145.0790 C   0  0  0  0  0  2  0  0  0  0  0  0
  161.0300  202.8820  148.3780 O   0  0  0  0  0  0  0  0  0  0  0  0
  162.1770  204.8570  147.6200 C   0  0  1  0  0  3  0  0  0  0  0  0
  161.1910  203.2180  146.0680 N   0  0  0  0  0  0  0  0  0  0  0  0
  161.3460  207.1830  147.5180 N   0  0  0  0  0  0  0  0  0  0  0  0
  161.8210  208.2700  148.0180 C   0  0  0  0  0  2  0  0  0  0  0  0
  157.8360  214.4520  153.5360 O   0  0  0  0  0  0  0  0  0  0  0  0
  157.1170  213.4460  149.0660 C   0  0  2  0  0  0  0  0  0  0  0  0
  158.1550  213.3890  150.0670 N   0  0  0  0  0  0  0  0  0  0  0  0
  157.2990  213.8390  146.5220 C   0  0  0  0  0  1  0  0  0  0  0  0
  158.3570  213.9450  152.3680 N   0  0  0  0  0  0  0  0  0  0  0  0
  155.9340  214.1860  149.7060 C   0  0  0  0  0  2  0  0  0  0  0  0
  159.4500  213.8190  149.5670 C   0  0  0  0  0  2  0  0  0  0  0  0
  156.2210  214.2780  151.2050 C   0  0  0  0  0  2  0  0  0  0  0  0
  157.6400  213.8660  151.2950 C   0  0  0  0  0  0  0  0  0  0  0  0
  159.2370  214.1230  148.0930 C   0  0  0  0  0  2  0  0  0  0  0  0
  156.7060  212.0280  148.6830 C   0  0  0  0  0  1  0  0  0  0  0  0
  157.7300  214.2530  147.9210 C   0  0  2  0  0  3  0  0  0  0  0  0
  1 11  1  0  0  0  0
  3  7  2  0  0  0  0
  5 14  1  0  0  0  0
  5  8  2  0  0  0  0
  7  6  1  0  0  0  0
  8 15  1  0  0  0  0
  9  1  2  0  0  0  0
  9  3  1  0  0  0  0
 10  4  2  0  0  0  0
 11 16  1  0  0  0  0
 11  6  2  0  0  0  0
 12  3  1  0  0  0  0
 13 20  1  1  0  0  0
 13  8  1  0  0  0  0
 13  1  1  0  0  0  0
 14  2  2  0  0  0  0
 15  2  1  1  0  0  0
 15  4  1  0  0  0  0
 15 16  1  0  0  0  0
 16  4  1  6  0  0  0
 17 21  1  0  0  0  0
 18 22  2  0  0  0  0
 18 19  1  0  0  0  0
 19 17  2  0  0  0  0
 20 21  2  0  0  0  0
 22 20  1  0  0  0  0
 23 18  1  0  0  0  0
 24 23  1  0  0  0  0
 25 24  1  1  0  0  0
 26 32  1  0  0  0  0
 27 31  1  0  0  0  0
 27 30  2  0  0  0  0
 28 31  1  0  0  0  0
 29 28  1  0  0  0  0
 29 32  1  0  0  0  0
 31 25  1  6  0  0  0
 32 27  1  0  0  0  0
 33 34  2  0  0  0  0
 33 25  1  0  0  0  0
 35 10  1  0  0  0  0
 36 45  1  6  0  0  0
 36 40  1  0  0  0  0
 36 37  1  0  0  0  0
 37 43  1  0  0  0  0
 39 35  1  0  0  0  0
 40 42  1  0  0  0  0
 41 37  1  0  0  0  0
 42 43  1  0  0  0  0
 43 39  2  0  0  0  0
 44 41  1  0  0  0  0
 46 38  1  6  0  0  0
 46 44  1  0  0  0  0
 46 36  1  0  0  0  0
M  END
>  <MODEL>
5

>  <REMARK>
 VINA RESULT:      -4.7      3.261      7.324
  Name = 
  8 active torsions:
  status: ('A' for Active; 'I' for Inactive)
    1  A    between atoms: N_2  and  C_8
    2  A    between atoms: C_8  and  C_13
    3  A    between atoms: C_8  and  C_24
    4  A    between atoms: O_11  and  C_13
    5  A    between atoms: O_11  and  C_21
    6  A    between atoms: N_17  and  O_41
    7  A    between atoms: N_29  and  O_41
    8  A    between atoms: C_31  and  C_36
                            x       y       z     vdW  Elec       q    Type
                         _______ _______ _______ _____ _____    ______ ____

>  <TORSDO>
F 8

$$$$
=
 OpenBabel11042420573D

 46 53  0  0  1  0  0  0  0  0999 V2000
  160.8560  211.1690  155.8470 C   0  0  0  0  0  0  0  0  0  0  0  0
  156.5940  211.8740  156.1510 C   0  0  0  0  0  3  0  0  0  0  0  0
  163.1620  211.6670  156.4420 C   0  0  0  0  0  0  0  0  0  0  0  0
  158.5140  213.1800  155.2880 C   0  0  0  0  0  0  0  0  0  0  0  0
  157.3600  210.0040  155.0220 C   0  0  0  0  0  3  0  0  0  0  0  0
  161.3850  213.0850  157.2610 C   0  0  0  0  0  3  0  0  0  0  0  0
  162.7410  212.7660  157.1900 C   0  0  0  0  0  3  0  0  0  0  0  0
  158.4600  210.6860  155.3200 C   0  0  0  0  0  0  0  0  0  0  0  0
  162.2270  210.8810  155.7700 C   0  0  0  0  0  3  0  0  0  0  0  0
  158.5080  213.9710  154.2700 N   0  0  0  0  0  0  0  0  0  0  0  0
  160.4300  212.3070  156.5960 C   0  0  0  0  0  0  0  0  0  0  0  0
  164.5140  211.3560  156.3690 O   0  0  0  0  0  1  0  0  0  0  0  0
  159.8850  210.2740  155.0940 C   0  0  2  0  0  3  0  0  0  0  0  0
  156.2010  210.7510  155.5460 C   0  0  0  0  0  3  0  0  0  0  0  0
  158.0660  211.9160  156.0060 C   0  0  2  0  0  0  0  0  0  0  0  0
  158.9900  212.7660  156.6900 C   0  0  2  0  0  3  0  0  0  0  0  0
  160.0950  206.9640  156.9790 C   0  0  0  0  0  3  0  0  0  0  0  0
  160.5630  206.5610  154.6330 C   0  0  0  0  0  0  0  0  0  0  0  0
  160.4180  206.0860  155.9410 C   0  0  0  0  0  3  0  0  0  0  0  0
  160.0880  208.8160  155.4120 C   0  0  0  0  0  0  0  0  0  0  0  0
  159.9230  208.3250  156.7150 C   0  0  0  0  0  3  0  0  0  0  0  0
  160.3950  207.9310  154.3750 C   0  0  0  0  0  3  0  0  0  0  0  0
  160.8610  205.6570  153.6130 O   0  0  0  0  0  0  0  0  0  0  0  0
  161.6590  206.0080  152.4880 C   0  0  0  0  0  2  0  0  0  0  0  0
  161.4330  205.0140  151.3490 C   0  0  2  0  0  3  0  0  0  0  0  0
  162.0180  208.9040  148.6750 C   0  0  0  0  0  1  0  0  0  0  0  0
  160.9330  207.1090  150.0840 C   0  0  0  0  0  0  0  0  0  0  0  0
  161.1660  204.9240  148.5870 S   0  0  0  0  0  0  0  0  0  0  0  0
  161.9370  206.4690  147.9820 C   0  0  0  0  0  2  0  0  0  0  0  0
  160.5590  207.9320  150.9620 O   0  0  0  0  0  0  0  0  0  0  0  0
  160.6520  205.6530  150.1910 C   0  0  1  0  0  3  0  0  0  0  0  0
  161.6290  207.5240  148.9220 N   0  0  0  0  0  0  0  0  0  0  0  0
  160.7760  203.8160  151.8390 N   0  0  0  0  0  0  0  0  0  0  0  0
  161.2490  202.6360  151.6340 C   0  0  0  0  0  2  0  0  0  0  0  0
  157.7430  213.6610  153.1730 O   0  0  0  0  0  0  0  0  0  0  0  0
  160.5230  213.4720  149.4660 C   0  0  2  0  0  0  0  0  0  0  0  0
  159.3840  214.2020  149.9670 N   0  0  0  0  0  0  0  0  0  0  0  0
  161.1470  212.8520  147.0400 C   0  0  0  0  0  1  0  0  0  0  0  0
  158.0610  214.1810  151.9410 N   0  0  0  0  0  0  0  0  0  0  0  0
  160.7870  212.3350  150.4640 C   0  0  0  0  0  2  0  0  0  0  0  0
  158.3650  214.4290  148.9570 C   0  0  0  0  0  2  0  0  0  0  0  0
  159.9490  212.6310  151.7090 C   0  0  0  0  0  2  0  0  0  0  0  0
  159.0560  213.7190  151.2550 C   0  0  0  0  0  0  0  0  0  0  0  0
  158.9280  213.8410  147.6720 C   0  0  0  0  0  2  0  0  0  0  0  0
  161.7300  214.4020  149.3970 C   0  0  0  0  0  1  0  0  0  0  0  0
  160.0690  212.9330  148.1090 C   0  0  2  0  0  3  0  0  0  0  0  0
  1 11  1  0  0  0  0
  3  7  2  0  0  0  0
  4 15  1  0  0  0  0
  5  8  2  0  0  0  0
  5 14  1  0  0  0  0
  7  6  1  0  0  0  0
  8 15  1  0  0  0  0
  9  1  2  0  0  0  0
  9  3  1  0  0  0  0
 10  4  2  0  0  0  0
 11 16  1  0  0  0  0
 11  6  2  0  0  0  0
 12  3  1  0  0  0  0
 13  8  1  0  0  0  0
 13 20  1  1  0  0  0
 13  1  1  0  0  0  0
 14  2  2  0  0  0  0
 15  2  1  1  0  0  0
 15 16  1  0  0  0  0
 16  4  1  6  0  0  0
 18 19  1  0  0  0  0
 19 17  2  0  0  0  0
 20 21  2  0  0  0  0
 21 17  1  0  0  0  0
 22 18  2  0  0  0  0
 22 20  1  0  0  0  0
 23 18  1  0  0  0  0
 24 23  1  0  0  0  0
 25 33  1  0  0  0  0
 25 24  1  1  0  0  0
 26 32  1  0  0  0  0
 27 31  1  0  0  0  0
 27 30  2  0  0  0  0
 28 31  1  0  0  0  0
 29 28  1  0  0  0  0
 29 32  1  0  0  0  0
 31 25  1  1  0  0  0
 32 27  1  0  0  0  0
 34 33  2  0  0  0  0
 35 10  1  0  0  0  0
 36 45  1  6  0  0  0
 36 37  1  0  0  0  0
 36 40  1  0  0  0  0
 37 43  1  0  0  0  0
 39 35  1  0  0  0  0
 40 42  1  0  0  0  0
 41 37  1  0  0  0  0
 43 42  1  0  0  0  0
 43 39  2  0  0  0  0
 44 46  1  0  0  0  0
 44 41  1  0  0  0  0
 46 38  1  6  0  0  0
 46 36  1  0  0  0  0
M  END
>  <MODEL>
6

>  <REMARK>
 VINA RESULT:      -4.5      2.920      7.288
  Name = 
  8 active torsions:
  status: ('A' for Active; 'I' for Inactive)
    1  A    between atoms: N_2  and  C_8
    2  A    between atoms: C_8  and  C_13
    3  A    between atoms: C_8  and  C_24
    4  A    between atoms: O_11  and  C_13
    5  A    between atoms: O_11  and  C_21
    6  A    between atoms: N_17  and  O_41
    7  A    between atoms: N_29  and  O_41
    8  A    between atoms: C_31  and  C_36
                            x       y       z     vdW  Elec       q    Type
                         _______ _______ _______ _____ _____    ______ ____

>  <TORSDO>
F 8

$$$$
=
 OpenBabel11042420573D

 46 53  0  0  1  0  0  0  0  0999 V2000
  160.8000  207.9350  153.7280 C   0  0  0  0  0  0  0  0  0  0  0  0
  163.0620  206.8390  150.2010 C   0  0  0  0  0  3  0  0  0  0  0  0
  160.4260  207.9100  156.1310 C   0  0  0  0  0  0  0  0  0  0  0  0
  161.7480  205.5810  151.8830 C   0  0  0  0  0  0  0  0  0  0  0  0
  161.3480  208.3830  150.0180 C   0  0  0  0  0  3  0  0  0  0  0  0
  162.2120  206.5840  155.1870 C   0  0  0  0  0  3  0  0  0  0  0  0
  161.4950  207.0310  156.2980 C   0  0  0  0  0  3  0  0  0  0  0  0
  161.2750  207.9530  151.2730 C   0  0  0  0  0  0  0  0  0  0  0  0
  160.0780  208.3520  154.8560 C   0  0  0  0  0  3  0  0  0  0  0  0
  161.0240  204.5360  151.6660 N   0  0  0  0  0  0  0  0  0  0  0  0
  161.8800  207.0170  153.8990 C   0  0  0  0  0  0  0  0  0  0  0  0
  159.7110  208.3480  157.2400 O   0  0  0  0  0  1  0  0  0  0  0  0
  160.3720  208.4520  152.3630 C   0  0  2  0  0  3  0  0  0  0  0  0
  162.4660  207.6840  149.3570 C   0  0  0  0  0  3  0  0  0  0  0  0
  162.3050  206.9340  151.4680 C   0  0  2  0  0  0  0  0  0  0  0  0
  162.6830  206.4340  152.7540 C   0  0  2  0  0  3  0  0  0  0  0  0
  160.8910  212.1140  151.4310 C   0  0  0  0  0  3  0  0  0  0  0  0
  159.1680  211.9750  153.1320 C   0  0  0  0  0  0  0  0  0  0  0  0
  159.9630  212.7370  152.2710 C   0  0  0  0  0  3  0  0  0  0  0  0
  160.2580  209.9530  152.3320 C   0  0  0  0  0  0  0  0  0  0  0  0
  161.0340  210.7250  151.4560 C   0  0  0  0  0  3  0  0  0  0  0  0
  159.3200  210.5790  153.1570 C   0  0  0  0  0  3  0  0  0  0  0  0
  158.2320  212.6230  153.9410 O   0  0  0  0  0  0  0  0  0  0  0  0
  157.2490  211.9160  154.6880 C   0  0  0  0  0  2  0  0  0  0  0  0
  156.6820  212.8110  155.7910 C   0  0  2  0  0  3  0  0  0  0  0  0
  161.1690  211.4880  156.6510 C   0  0  0  0  0  1  0  0  0  0  0  0
  158.6780  211.8150  156.9160 C   0  0  0  0  0  0  0  0  0  0  0  0
  158.4270  214.4470  157.2000 S   0  0  0  0  0  0  0  0  0  0  0  0
  160.0930  213.7710  156.8610 C   0  0  0  0  0  2  0  0  0  0  0  0
  158.4500  210.5760  156.9340 O   0  0  0  0  0  0  0  0  0  0  0  0
  157.5900  212.8220  157.0300 C   0  0  1  0  0  3  0  0  0  0  0  0
  159.9930  212.3300  156.8070 N   0  0  0  0  0  0  0  0  0  0  0  0
  155.3270  212.4120  156.1260 N   0  0  0  0  0  0  0  0  0  0  0  0
  155.0230  211.8830  157.2600 C   0  0  0  0  0  2  0  0  0  0  0  0
  160.3290  204.4230  150.4870 O   0  0  0  0  0  0  0  0  0  0  0  0
  161.7740  204.5970  146.0840 C   0  0  2  0  0  0  0  0  0  0  0  0
  161.3760  205.4710  147.1600 N   0  0  0  0  0  0  0  0  0  0  0  0
  161.4800  204.8770  143.5360 C   0  0  0  0  0  1  0  0  0  0  0  0
  160.6610  205.2130  149.4120 N   0  0  0  0  0  0  0  0  0  0  0  0
  161.5080  203.1630  146.5660 C   0  0  0  0  0  2  0  0  0  0  0  0
  160.5120  206.5550  146.7220 C   0  0  0  0  0  2  0  0  0  0  0  0
  161.2330  203.2400  148.0680 C   0  0  0  0  0  2  0  0  0  0  0  0
  161.0660  204.6920  148.2990 C   0  0  0  0  0  0  0  0  0  0  0  0
  160.3930  206.3950  145.2140 C   0  0  0  0  0  2  0  0  0  0  0  0
  163.2600  204.7890  145.7990 C   0  0  0  0  0  1  0  0  0  0  0  0
  160.8580  204.9760  144.9200 C   0  0  2  0  0  3  0  0  0  0  0  0
  1 11  2  0  0  0  0
  1  9  1  0  0  0  0
  3  7  1  0  0  0  0
  3 12  1  0  0  0  0
  5  8  2  0  0  0  0
  6  7  2  0  0  0  0
  8 15  1  0  0  0  0
  8 13  1  0  0  0  0
  9  3  2  0  0  0  0
 10  4  2  0  0  0  0
 11  6  1  0  0  0  0
 13 20  1  1  0  0  0
 13  1  1  0  0  0  0
 14  5  1  0  0  0  0
 14  2  2  0  0  0  0
 15  2  1  6  0  0  0
 15  4  1  0  0  0  0
 15 16  1  0  0  0  0
 16  4  1  6  0  0  0
 16 11  1  0  0  0  0
 17 21  2  0  0  0  0
 17 19  1  0  0  0  0
 18 22  1  0  0  0  0
 18 23  1  0  0  0  0
 19 18  2  0  0  0  0
 20 22  2  0  0  0  0
 21 20  1  0  0  0  0
 23 24  1  0  0  0  0
 25 24  1  6  0  0  0
 25 33  1  0  0  0  0
 26 32  1  0  0  0  0
 27 30  2  0  0  0  0
 27 31  1  0  0  0  0
 29 28  1  0  0  0  0
 31 25  1  6  0  0  0
 31 28  1  0  0  0  0
 32 29  1  0  0  0  0
 32 27  1  0  0  0  0
 33 34  2  0  0  0  0
 35 10  1  0  0  0  0
 36 45  1  6  0  0  0
 36 40  1  0  0  0  0
 36 37  1  0  0  0  0
 37 43  1  0  0  0  0
 39 35  1  0  0  0  0
 40 42  1  0  0  0  0
 41 37  1  0  0  0  0
 42 43  1  0  0  0  0
 43 39  2  0  0  0  0
 44 41  1  0  0  0  0
 46 38  1  6  0  0  0
 46 44  1  0  0  0  0
 46 36  1  0  0  0  0
M  END
>  <MODEL>
7

>  <REMARK>
 VINA RESULT:      -3.9      4.151      7.355
  Name = 
  8 active torsions:
  status: ('A' for Active; 'I' for Inactive)
    1  A    between atoms: N_2  and  C_8
    2  A    between atoms: C_8  and  C_13
    3  A    between atoms: C_8  and  C_24
    4  A    between atoms: O_11  and  C_13
    5  A    between atoms: O_11  and  C_21
    6  A    between atoms: N_17  and  O_41
    7  A    between atoms: N_29  and  O_41
    8  A    between atoms: C_31  and  C_36
                            x       y       z     vdW  Elec       q    Type
                         _______ _______ _______ _____ _____    ______ ____

>  <TORSDO>
F 8

$$$$
