=
 OpenBabel11042420023D

 42 48  0  0  1  0  0  0  0  0999 V2000
  161.6820  207.3060  152.2080 C   0  0  0  0  0  0  0  0  0  0  0  0
  161.4580  204.9370  151.6920 C   0  0  0  0  0  0  0  0  0  0  0  0
  161.1590  207.0820  153.5050 C   0  0  0  0  0  0  0  0  0  0  0  0
  160.8800  207.9120  155.8560 C   0  0  0  0  0  3  0  0  0  0  0  0
  162.0960  208.5930  151.7650 N   0  0  0  0  0  0  0  0  0  0  0  0
  161.8240  206.2350  151.3200 C   0  0  0  0  0  3  0  0  0  0  0  0
  160.4480  210.0080  155.7040 C   0  0  0  0  0  0  0  0  0  0  0  0
  160.9610  208.1440  154.5300 C   0  0  0  0  0  0  0  0  0  0  0  0
  160.2190  211.4370  155.7370 C   0  0  0  0  0  3  0  0  0  0  0  0
  160.6010  210.6100  153.6030 C   0  0  0  0  0  0  0  0  0  0  0  0
  160.6670  209.5650  154.4080 C   0  0  0  0  0  0  0  0  0  0  0  0
  160.8180  205.7660  153.8670 C   0  0  0  0  0  3  0  0  0  0  0  0
  160.9060  210.6450  152.1480 C   0  0  0  0  0  2  0  0  0  0  0  0
  160.9630  204.7050  152.9730 C   0  0  0  0  0  3  0  0  0  0  0  0
  162.2820  210.0250  151.9220 C   0  0  2  0  0  3  0  0  0  0  0  0
  162.5520  209.4930  150.7010 N   0  0  0  0  0  0  0  0  0  0  0  0
  160.5810  209.1050  156.6100 N   0  0  0  0  0  0  0  0  0  0  0  0
  160.3120  211.7990  154.4450 C   0  0  0  0  0  3  0  0  0  0  0  0
  161.2380  202.4770  151.4160 C   0  0  0  0  0  1  0  0  0  0  0  0
  161.6140  203.7880  150.7490 C   0  0  1  0  0  3  0  0  0  0  0  0
  160.8040  203.9980  149.5630 N   0  0  0  0  0  2  0  0  0  0  0  0
  161.1560  202.4100  147.7100 C   0  0  0  0  0  0  0  0  0  0  0  0
  160.5970  202.7390  148.9820 N   0  0  0  0  0  2  0  0  0  0  0  0
  160.9570  201.2350  147.2110 N   0  0  0  0  0  2  0  0  0  0  0  0
  161.9470  203.4160  146.9420 C   0  0  0  0  0  2  0  0  0  0  0  0
  161.2470  203.7940  145.6510 C   0  0  0  0  0  2  0  0  0  0  0  0
  161.6050  205.2230  145.2530 C   0  0  0  0  0  2  0  0  0  0  0  0
  160.6290  206.2170  145.8640 C   0  0  0  0  0  2  0  0  0  0  0  0
  161.0160  206.5480  147.2690 C   0  0  0  0  0  0  0  0  0  0  0  0
  162.3630  206.8860  147.5720 N   0  0  0  0  0  1  0  0  0  0  0  0
  160.1520  206.5410  148.1840 O   0  0  0  0  0  0  0  0  0  0  0  0
  161.4670  209.5700  149.7190 C   0  0  0  0  0  2  0  0  0  0  0  0
  161.9160  210.3750  148.5150 C   0  0  0  0  0  2  0  0  0  0  0  0
  162.2490  211.7990  148.9280 C   0  0  0  0  0  2  0  0  0  0  0  0
  160.5290  212.0610  147.1520 C   0  0  0  0  0  2  0  0  0  0  0  0
  162.5630  213.7390  147.0480 S   0  0  0  0  0  0  0  0  0  0  0  0
  160.1300  212.9810  146.0990 N   0  0  2  0  0  0  0  0  0  0  0  0
  161.8560  213.3060  144.4840 N   0  0  0  0  0  2  0  0  0  0  0  0
  159.8280  212.1730  144.9320 C   0  0  0  0  0  2  0  0  0  0  0  0
  161.2970  213.7900  145.7360 C   0  0  2  0  0  3  0  0  0  0  0  0
  160.7620  212.6120  143.8370 C   0  0  0  0  0  2  0  0  0  0  0  0
  161.4520  212.7870  148.0940 C   0  0  2  0  0  3  0  0  0  0  0  0
  1  3  1  0  0  0  0
  2 14  2  0  0  0  0
  3 12  2  0  0  0  0
  3  8  1  0  0  0  0
  4 17  1  0  0  0  0
  5 15  1  0  0  0  0
  5  1  1  0  0  0  0
  6  2  1  0  0  0  0
  6  1  2  0  0  0  0
  7  9  1  0  0  0  0
  7 17  2  0  0  0  0
  8  4  2  0  0  0  0
 10 11  2  0  0  0  0
 10 18  1  0  0  0  0
 11  8  1  0  0  0  0
 11  7  1  0  0  0  0
 13 10  1  0  0  0  0
 14 12  1  0  0  0  0
 15 13  1  6  0  0  0
 16  5  1  0  0  0  0
 16 15  1  0  0  0  0
 18  9  2  0  0  0  0
 20 19  1  1  0  0  0
 20  2  1  0  0  0  0
 21 20  1  0  0  0  0
 22 23  1  0  0  0  0
 23 21  1  0  0  0  0
 24 22  2  0  0  0  0
 25 22  1  0  0  0  0
 26 25  1  0  0  0  0
 27 26  1  0  0  0  0
 27 28  1  0  0  0  0
 28 29  1  0  0  0  0
 29 30  1  0  0  0  0
 29 31  2  0  0  0  0
 32 16  1  0  0  0  0
 33 34  1  0  0  0  0
 33 32  1  0  0  0  0
 35 42  1  0  0  0  0
 36 42  1  0  0  0  0
 37 39  1  6  0  0  0
 37 35  1  0  0  0  0
 40 38  1  6  0  0  0
 40 37  1  0  0  0  0
 40 36  1  0  0  0  0
 41 38  1  0  0  0  0
 41 39  1  0  0  0  0
 42 34  1  6  0  0  0
M  END
>  <MODEL>
1

>  <REMARK>
 VINA RESULT:      -8.7      0.000      0.000
  Name = 
  12 active torsions:
  status: ('A' for Active; 'I' for Inactive)
    1  A    between atoms: C_1  and  C_10
    2  A    between atoms: C_1  and  C_34
    3  A    between atoms: C_2  and  C_11
    4  A    between atoms: C_2  and  C_16
    5  A    between atoms: C_4  and  C_10
    6  A    between atoms: C_6  and  C_30
    7  A    between atoms: C_8  and  C_40
    8  A    between atoms: C_11  and  C_38
    9  A    between atoms: N_12  and  N_24
   10  A    between atoms: C_16  and  N_39
   11  A    between atoms: N_24  and  C_30
   12  A    between atoms: C_34  and  C_40
                            x       y       z     vdW  Elec       q    Type
                         _______ _______ _______ _____ _____    ______ ____

>  <TORSDO>
F 12

$$$$
=
 OpenBabel11042420023D

 42 48  0  0  1  0  0  0  0  0999 V2000
  161.7470  206.5610  150.1750 C   0  0  0  0  0  0  0  0  0  0  0  0
  161.6870  208.8740  149.4150 C   0  0  0  0  0  0  0  0  0  0  0  0
  161.5660  206.1100  148.8440 C   0  0  0  0  0  0  0  0  0  0  0  0
  161.7410  204.2260  147.1980 C   0  0  0  0  0  3  0  0  0  0  0  0
  161.8950  205.6660  151.2700 N   0  0  0  0  0  0  0  0  0  0  0  0
  161.8050  207.9320  150.4430 C   0  0  0  0  0  3  0  0  0  0  0  0
  161.0450  202.4720  148.2180 C   0  0  0  0  0  0  0  0  0  0  0  0
  161.4870  204.6790  148.4420 C   0  0  0  0  0  0  0  0  0  0  0  0
  160.6660  201.2090  148.8160 C   0  0  0  0  0  3  0  0  0  0  0  0
  160.6390  202.9850  150.3090 C   0  0  0  0  0  0  0  0  0  0  0  0
  161.0100  203.4990  149.1500 C   0  0  0  0  0  0  0  0  0  0  0  0
  161.4730  207.0720  147.8220 C   0  0  0  0  0  3  0  0  0  0  0  0
  160.5950  203.6760  151.6250 C   0  0  0  0  0  2  0  0  0  0  0  0
  161.5300  208.4380  148.1010 C   0  0  0  0  0  3  0  0  0  0  0  0
  161.9450  204.3440  151.8720 C   0  0  2  0  0  3  0  0  0  0  0  0
  161.9860  205.4120  152.7120 N   0  0  0  0  0  0  0  0  0  0  0  0
  161.4870  202.8120  147.0600 N   0  0  0  0  0  0  0  0  0  0  0  0
  160.4160  201.5320  150.0980 C   0  0  0  0  0  3  0  0  0  0  0  0
  162.3960  210.6110  151.0450 C   0  0  0  0  0  1  0  0  0  0  0  0
  161.7540  210.3410  149.6960 C   0  0  1  0  0  3  0  0  0  0  0  0
  162.4910  211.0200  148.6450 N   0  0  0  0  0  2  0  0  0  0  0  0
  161.0880  212.8400  147.7530 C   0  0  0  0  0  0  0  0  0  0  0  0
  162.0800  212.3600  148.6600 N   0  0  0  0  0  2  0  0  0  0  0  0
  160.7230  214.0790  147.8050 N   0  0  0  0  0  2  0  0  0  0  0  0
  160.4860  211.9330  146.7320 C   0  0  0  0  0  2  0  0  0  0  0  0
  159.5610  212.6930  145.8010 C   0  0  0  0  0  2  0  0  0  0  0  0
  159.9000  212.3810  144.3470 C   0  0  0  0  0  2  0  0  0  0  0  0
  160.8270  213.4390  143.7670 C   0  0  0  0  0  2  0  0  0  0  0  0
  162.1700  212.8600  143.4600 C   0  0  0  0  0  0  0  0  0  0  0  0
  163.2780  213.1580  144.2980 N   0  0  0  0  0  1  0  0  0  0  0  0
  162.3210  212.0980  142.4690 O   0  0  0  0  0  0  0  0  0  0  0  0
  160.7030  205.8160  153.2930 C   0  0  0  0  0  2  0  0  0  0  0  0
  160.9390  206.7090  154.4960 C   0  0  0  0  0  2  0  0  0  0  0  0
  161.0450  208.1610  154.0610 C   0  0  0  0  0  2  0  0  0  0  0  0
  159.7060  209.3970  155.7530 C   0  0  0  0  0  2  0  0  0  0  0  0
  161.8400  210.6460  154.8310 S   0  0  0  0  0  0  0  0  0  0  0  0
  159.7750  210.5780  156.5990 N   0  0  2  0  0  0  0  0  0  0  0  0
  160.0340  212.5830  155.3310 N   0  0  0  0  0  2  0  0  0  0  0  0
  158.4850  211.2350  156.5050 C   0  0  0  0  0  2  0  0  0  0  0  0
  160.7420  211.5060  156.0060 C   0  0  2  0  0  3  0  0  0  0  0  0
  158.7300  212.6150  155.9580 C   0  0  0  0  0  2  0  0  0  0  0  0
  161.0960  209.0700  155.2770 C   0  0  2  0  0  3  0  0  0  0  0  0
  1  6  1  0  0  0  0
  1  5  1  0  0  0  0
  2 20  1  0  0  0  0
  2  6  2  0  0  0  0
  3  1  2  0  0  0  0
  4  8  1  0  0  0  0
  5 15  1  0  0  0  0
  5 16  1  0  0  0  0
  7  9  2  0  0  0  0
  7 11  1  0  0  0  0
  8  3  1  0  0  0  0
  8 11  2  0  0  0  0
  9 18  1  0  0  0  0
 10 13  1  0  0  0  0
 11 10  1  0  0  0  0
 12 14  2  0  0  0  0
 12  3  1  0  0  0  0
 14  2  1  0  0  0  0
 15 13  1  1  0  0  0
 15 16  1  0  0  0  0
 16 32  1  0  0  0  0
 17  4  2  0  0  0  0
 17  7  1  0  0  0  0
 18 10  2  0  0  0  0
 20 19  1  1  0  0  0
 21 23  1  0  0  0  0
 21 20  1  0  0  0  0
 22 24  2  0  0  0  0
 22 23  1  0  0  0  0
 25 22  1  0  0  0  0
 26 25  1  0  0  0  0
 27 26  1  0  0  0  0
 28 27  1  0  0  0  0
 29 28  1  0  0  0  0
 29 30  1  0  0  0  0
 31 29  2  0  0  0  0
 32 33  1  0  0  0  0
 34 33  1  0  0  0  0
 36 42  1  0  0  0  0
 37 35  1  6  0  0  0
 38 41  1  0  0  0  0
 38 40  1  0  0  0  0
 39 37  1  0  0  0  0
 40 36  1  6  0  0  0
 40 37  1  0  0  0  0
 41 39  1  0  0  0  0
 42 34  1  6  0  0  0
 42 35  1  0  0  0  0
M  END
>  <MODEL>
2

>  <REMARK>
 VINA RESULT:      -8.7      2.440      8.428
  Name = 
  12 active torsions:
  status: ('A' for Active; 'I' for Inactive)
    1  A    between atoms: C_1  and  C_10
    2  A    between atoms: C_1  and  C_34
    3  A    between atoms: C_2  and  C_11
    4  A    between atoms: C_2  and  C_16
    5  A    between atoms: C_4  and  C_10
    6  A    between atoms: C_6  and  C_30
    7  A    between atoms: C_8  and  C_40
    8  A    between atoms: C_11  and  C_38
    9  A    between atoms: N_12  and  N_24
   10  A    between atoms: C_16  and  N_39
   11  A    between atoms: N_24  and  C_30
   12  A    between atoms: C_34  and  C_40
                            x       y       z     vdW  Elec       q    Type
                         _______ _______ _______ _____ _____    ______ ____

>  <TORSDO>
F 12

$$$$
=
 OpenBabel11042420023D

 42 48  0  0  1  0  0  0  0  0999 V2000
  161.6700  207.4180  152.2400 C   0  0  0  0  0  0  0  0  0  0  0  0
  161.4830  205.0410  151.7440 C   0  0  0  0  0  0  0  0  0  0  0  0
  161.1360  207.1990  153.5330 C   0  0  0  0  0  0  0  0  0  0  0  0
  160.8220  208.0470  155.8730 C   0  0  0  0  0  3  0  0  0  0  0  0
  162.0720  208.7060  151.7890 N   0  0  0  0  0  0  0  0  0  0  0  0
  161.8370  206.3410  151.3630 C   0  0  0  0  0  3  0  0  0  0  0  0
  160.3640  210.1350  155.6970 C   0  0  0  0  0  0  0  0  0  0  0  0
  160.9140  208.2670  154.5460 C   0  0  0  0  0  0  0  0  0  0  0  0
  160.1170  211.5610  155.7150 C   0  0  0  0  0  3  0  0  0  0  0  0
  160.5320  210.7200  153.5920 C   0  0  0  0  0  0  0  0  0  0  0  0
  160.6030  209.6830  154.4070 C   0  0  0  0  0  0  0  0  0  0  0  0
  160.8090  205.8810  153.9040 C   0  0  0  0  0  3  0  0  0  0  0  0
  160.8520  210.7460  152.1400 C   0  0  0  0  0  2  0  0  0  0  0  0
  160.9770  204.8140  153.0210 C   0  0  0  0  0  3  0  0  0  0  0  0
  162.2390  210.1410  151.9350 C   0  0  2  0  0  3  0  0  0  0  0  0
  162.5280  209.6020  150.7210 N   0  0  0  0  0  0  0  0  0  0  0  0
  160.4990  209.2430  156.6130 N   0  0  0  0  0  0  0  0  0  0  0  0
  160.2190  211.9130  154.4200 C   0  0  0  0  0  3  0  0  0  0  0  0
  161.4580  202.5650  151.5330 C   0  0  0  0  0  1  0  0  0  0  0  0
  161.6640  203.8860  150.8130 C   0  0  1  0  0  3  0  0  0  0  0  0
  160.7470  203.9950  149.6920 N   0  0  0  0  0  2  0  0  0  0  0  0
  161.0570  202.2990  147.9300 C   0  0  0  0  0  0  0  0  0  0  0  0
  160.5460  202.6970  149.2020 N   0  0  0  0  0  2  0  0  0  0  0  0
  160.8640  201.0900  147.5170 N   0  0  0  0  0  2  0  0  0  0  0  0
  161.7900  203.2690  147.0650 C   0  0  0  0  0  2  0  0  0  0  0  0
  161.2600  203.2450  145.6450 C   0  0  0  0  0  2  0  0  0  0  0  0
  161.4200  204.6180  144.9970 C   0  0  0  0  0  2  0  0  0  0  0  0
  162.4220  205.4670  145.7660 C   0  0  0  0  0  2  0  0  0  0  0  0
  161.7240  206.3700  146.7300 C   0  0  0  0  0  0  0  0  0  0  0  0
  162.4630  207.0120  147.7610 N   0  0  0  0  0  1  0  0  0  0  0  0
  160.4870  206.5750  146.6260 O   0  0  0  0  0  0  0  0  0  0  0  0
  161.4530  209.6550  149.7280 C   0  0  0  0  0  2  0  0  0  0  0  0
  161.9070  210.4500  148.5180 C   0  0  0  0  0  2  0  0  0  0  0  0
  162.4190  211.8150  148.9470 C   0  0  0  0  0  2  0  0  0  0  0  0
  160.5490  213.4080  149.3310 C   0  0  0  0  0  2  0  0  0  0  0  0
  160.6120  212.2490  146.9600 S   0  0  0  0  0  0  0  0  0  0  0  0
  159.4970  214.1040  148.6070 N   0  0  2  0  0  0  0  0  0  0  0  0
  158.0000  212.5970  147.5210 N   0  0  0  0  0  2  0  0  0  0  0  0
  158.2940  213.9920  149.4090 C   0  0  0  0  0  2  0  0  0  0  0  0
  159.2280  213.3620  147.3720 C   0  0  2  0  0  3  0  0  0  0  0  0
  157.2700  213.2740  148.5720 C   0  0  0  0  0  2  0  0  0  0  0  0
  161.5640  212.9120  148.3360 C   0  0  2  0  0  3  0  0  0  0  0  0
  1  3  1  0  0  0  0
  2 14  2  0  0  0  0
  3 12  2  0  0  0  0
  3  8  1  0  0  0  0
  4 17  1  0  0  0  0
  5 15  1  0  0  0  0
  5  1  1  0  0  0  0
  6  2  1  0  0  0  0
  6  1  2  0  0  0  0
  7  9  1  0  0  0  0
  7 17  2  0  0  0  0
  8  4  2  0  0  0  0
 10 11  2  0  0  0  0
 10 18  1  0  0  0  0
 11  8  1  0  0  0  0
 11  7  1  0  0  0  0
 13 10  1  0  0  0  0
 14 12  1  0  0  0  0
 15 13  1  6  0  0  0
 16  5  1  0  0  0  0
 16 15  1  0  0  0  0
 18  9  2  0  0  0  0
 20 19  1  1  0  0  0
 20  2  1  0  0  0  0
 21 20  1  0  0  0  0
 22 23  1  0  0  0  0
 23 21  1  0  0  0  0
 24 22  2  0  0  0  0
 25 22  1  0  0  0  0
 26 25  1  0  0  0  0
 27 26  1  0  0  0  0
 27 28  1  0  0  0  0
 28 29  1  0  0  0  0
 29 30  1  0  0  0  0
 31 29  2  0  0  0  0
 32 16  1  0  0  0  0
 33 34  1  0  0  0  0
 33 32  1  0  0  0  0
 36 42  1  0  0  0  0
 37 35  1  1  0  0  0
 37 39  1  0  0  0  0
 38 41  1  0  0  0  0
 40 36  1  1  0  0  0
 40 38  1  0  0  0  0
 40 37  1  0  0  0  0
 41 39  1  0  0  0  0
 42 34  1  1  0  0  0
 42 35  1  0  0  0  0
M  END
>  <MODEL>
3

>  <REMARK>
 VINA RESULT:      -8.5      1.349      1.703
  Name = 
  12 active torsions:
  status: ('A' for Active; 'I' for Inactive)
    1  A    between atoms: C_1  and  C_10
    2  A    between atoms: C_1  and  C_34
    3  A    between atoms: C_2  and  C_11
    4  A    between atoms: C_2  and  C_16
    5  A    between atoms: C_4  and  C_10
    6  A    between atoms: C_6  and  C_30
    7  A    between atoms: C_8  and  C_40
    8  A    between atoms: C_11  and  C_38
    9  A    between atoms: N_12  and  N_24
   10  A    between atoms: C_16  and  N_39
   11  A    between atoms: N_24  and  C_30
   12  A    between atoms: C_34  and  C_40
                            x       y       z     vdW  Elec       q    Type
                         _______ _______ _______ _____ _____    ______ ____

>  <TORSDO>
F 12

$$$$
=
 OpenBabel11042420023D

 42 48  0  0  1  0  0  0  0  0999 V2000
  161.7910  206.6400  150.1620 C   0  0  0  0  0  0  0  0  0  0  0  0
  161.6980  208.9350  149.3520 C   0  0  0  0  0  0  0  0  0  0  0  0
  161.5480  206.1590  148.8520 C   0  0  0  0  0  0  0  0  0  0  0  0
  161.6450  204.2360  147.2440 C   0  0  0  0  0  3  0  0  0  0  0  0
  161.9900  205.7700  151.2690 N   0  0  0  0  0  0  0  0  0  0  0  0
  161.8630  208.0180  150.3950 C   0  0  0  0  0  3  0  0  0  0  0  0
  160.9960  202.5080  148.3370 C   0  0  0  0  0  0  0  0  0  0  0  0
  161.4500  204.7190  148.4880 C   0  0  0  0  0  0  0  0  0  0  0  0
  160.6440  201.2600  148.9810 C   0  0  0  0  0  3  0  0  0  0  0  0
  160.6880  203.0710  150.4320 C   0  0  0  0  0  0  0  0  0  0  0  0
  161.0050  203.5570  149.2450 C   0  0  0  0  0  0  0  0  0  0  0  0
  161.4080  207.0970  147.8130 C   0  0  0  0  0  3  0  0  0  0  0  0
  160.7060  203.7920  151.7320 C   0  0  0  0  0  2  0  0  0  0  0  0
  161.4790  208.4690  148.0580 C   0  0  0  0  0  3  0  0  0  0  0  0
  162.0670  204.4640  151.9000 C   0  0  2  0  0  3  0  0  0  0  0  0
  162.1480  205.5510  152.7110 N   0  0  0  0  0  0  0  0  0  0  0  0
  161.3830  202.8200  147.1510 N   0  0  0  0  0  0  0  0  0  0  0  0
  160.4550  201.6140  150.2660 C   0  0  0  0  0  3  0  0  0  0  0  0
  162.5380  210.7100  150.8750 C   0  0  0  0  0  1  0  0  0  0  0  0
  161.7800  210.4080  149.5950 C   0  0  1  0  0  3  0  0  0  0  0  0
  162.4130  211.0690  148.4680 N   0  0  0  0  0  2  0  0  0  0  0  0
  161.0710  213.0520  147.8840 C   0  0  0  0  0  0  0  0  0  0  0  0
  162.1460  212.4380  148.5960 N   0  0  0  0  0  2  0  0  0  0  0  0
  160.8450  214.3150  148.0370 N   0  0  0  0  0  2  0  0  0  0  0  0
  160.2230  212.2550  146.9490 C   0  0  0  0  0  2  0  0  0  0  0  0
  159.0430  213.0690  146.4530 C   0  0  0  0  0  2  0  0  0  0  0  0
  157.7530  212.5850  147.1090 C   0  0  0  0  0  2  0  0  0  0  0  0
  156.9680  213.7530  147.6870 C   0  0  0  0  0  2  0  0  0  0  0  0
  156.8220  213.6150  149.1680 C   0  0  0  0  0  0  0  0  0  0  0  0
  157.9650  213.3560  149.9710 N   0  0  0  0  0  1  0  0  0  0  0  0
  155.6920  213.7400  149.7080 O   0  0  0  0  0  0  0  0  0  0  0  0
  160.8940  205.9700  153.3420 C   0  0  0  0  0  2  0  0  0  0  0  0
  161.0100  207.4070  153.8150 C   0  0  0  0  0  2  0  0  0  0  0  0
  160.6120  207.5120  155.2790 C   0  0  0  0  0  2  0  0  0  0  0  0
  159.3890  209.6160  155.7860 C   0  0  0  0  0  2  0  0  0  0  0  0
  161.7210  209.8960  154.5820 S   0  0  0  0  0  0  0  0  0  0  0  0
  159.5890  211.0570  155.8070 N   0  0  2  0  0  0  0  0  0  0  0  0
  160.1930  211.9160  153.6640 N   0  0  0  0  0  2  0  0  0  0  0  0
  158.4130  211.6510  155.2010 C   0  0  0  0  0  2  0  0  0  0  0  0
  160.7060  211.3740  154.9130 C   0  0  2  0  0  3  0  0  0  0  0  0
  158.8790  212.4250  153.9980 C   0  0  0  0  0  2  0  0  0  0  0  0
  160.7380  208.9490  155.7540 C   0  0  2  0  0  3  0  0  0  0  0  0
  1  6  1  0  0  0  0
  1  5  1  0  0  0  0
  2 20  1  0  0  0  0
  2  6  2  0  0  0  0
  3  1  2  0  0  0  0
  4  8  1  0  0  0  0
  5 15  1  0  0  0  0
  5 16  1  0  0  0  0
  7  9  2  0  0  0  0
  7 11  1  0  0  0  0
  8  3  1  0  0  0  0
  8 11  2  0  0  0  0
  9 18  1  0  0  0  0
 10 13  1  0  0  0  0
 11 10  1  0  0  0  0
 12 14  2  0  0  0  0
 12  3  1  0  0  0  0
 14  2  1  0  0  0  0
 15 13  1  1  0  0  0
 15 16  1  0  0  0  0
 16 32  1  0  0  0  0
 17  4  2  0  0  0  0
 17  7  1  0  0  0  0
 18 10  2  0  0  0  0
 20 19  1  1  0  0  0
 21 23  1  0  0  0  0
 21 20  1  0  0  0  0
 22 24  2  0  0  0  0
 22 23  1  0  0  0  0
 25 22  1  0  0  0  0
 26 25  1  0  0  0  0
 26 27  1  0  0  0  0
 27 28  1  0  0  0  0
 28 29  1  0  0  0  0
 29 31  2  0  0  0  0
 29 30  1  0  0  0  0
 32 33  1  0  0  0  0
 33 34  1  0  0  0  0
 35 37  1  0  0  0  0
 36 40  1  0  0  0  0
 36 42  1  0  0  0  0
 37 39  1  6  0  0  0
 38 41  1  0  0  0  0
 40 38  1  6  0  0  0
 40 37  1  0  0  0  0
 41 39  1  0  0  0  0
 42 34  1  6  0  0  0
 42 35  1  0  0  0  0
M  END
>  <MODEL>
4

>  <REMARK>
 VINA RESULT:      -8.5      2.780      8.368
  Name = 
  12 active torsions:
  status: ('A' for Active; 'I' for Inactive)
    1  A    between atoms: C_1  and  C_10
    2  A    between atoms: C_1  and  C_34
    3  A    between atoms: C_2  and  C_11
    4  A    between atoms: C_2  and  C_16
    5  A    between atoms: C_4  and  C_10
    6  A    between atoms: C_6  and  C_30
    7  A    between atoms: C_8  and  C_40
    8  A    between atoms: C_11  and  C_38
    9  A    between atoms: N_12  and  N_24
   10  A    between atoms: C_16  and  N_39
   11  A    between atoms: N_24  and  C_30
   12  A    between atoms: C_34  and  C_40
                            x       y       z     vdW  Elec       q    Type
                         _______ _______ _______ _____ _____    ______ ____

>  <TORSDO>
F 12

$$$$
=
 OpenBabel11042420023D

 42 48  0  0  1  0  0  0  0  0999 V2000
  161.6490  207.6710  149.7240 C   0  0  0  0  0  0  0  0  0  0  0  0
  161.2870  205.8780  148.1160 C   0  0  0  0  0  0  0  0  0  0  0  0
  161.2280  206.8230  150.7770 C   0  0  0  0  0  0  0  0  0  0  0  0
  161.1810  206.3610  153.2420 C   0  0  0  0  0  3  0  0  0  0  0  0
  162.0760  209.0090  149.9460 N   0  0  0  0  0  0  0  0  0  0  0  0
  161.6730  207.1900  148.4100 C   0  0  0  0  0  3  0  0  0  0  0  0
  160.8230  208.2480  154.1980 C   0  0  0  0  0  0  0  0  0  0  0  0
  161.1600  207.2270  152.2080 C   0  0  0  0  0  0  0  0  0  0  0  0
  160.6560  209.4660  154.9620 C   0  0  0  0  0  3  0  0  0  0  0  0
  160.8230  209.8230  152.6760 C   0  0  0  0  0  0  0  0  0  0  0  0
  160.9140  208.5160  152.8400 C   0  0  0  0  0  0  0  0  0  0  0  0
  160.8660  205.5000  150.4630 C   0  0  0  0  0  3  0  0  0  0  0  0
  161.0060  210.5850  151.4120 C   0  0  0  0  0  2  0  0  0  0  0  0
  160.8920  205.0320  149.1490 C   0  0  0  0  0  3  0  0  0  0  0  0
  162.3330  210.1710  150.7800 C   0  0  2  0  0  3  0  0  0  0  0  0
  162.4780  210.3260  149.4370 N   0  0  0  0  0  0  0  0  0  0  0  0
  160.9940  207.0140  154.5160 N   0  0  0  0  0  0  0  0  0  0  0  0
  160.6550  210.4280  154.0220 C   0  0  0  0  0  3  0  0  0  0  0  0
  162.2230  206.2020  145.8360 C   0  0  0  0  0  1  0  0  0  0  0  0
  161.3170  205.3580  146.7150 C   0  0  1  0  0  3  0  0  0  0  0  0
  161.7550  203.9740  146.7020 N   0  0  0  0  0  2  0  0  0  0  0  0
  160.7280  201.9340  145.7740 C   0  0  0  0  0  0  0  0  0  0  0  0
  161.0330  203.3260  145.6910 N   0  0  0  0  0  2  0  0  0  0  0  0
  160.0470  201.3730  144.8300 N   0  0  0  0  0  2  0  0  0  0  0  0
  161.2060  201.1170  146.9280 C   0  0  0  0  0  2  0  0  0  0  0  0
  160.3320  201.3290  148.1480 C   0  0  0  0  0  2  0  0  0  0  0  0
  161.1510  201.1540  149.4240 C   0  0  0  0  0  2  0  0  0  0  0  0
  160.3470  201.5690  150.6470 C   0  0  0  0  0  2  0  0  0  0  0  0
  161.2060  202.2980  151.6270 C   0  0  0  0  0  0  0  0  0  0  0  0
  162.6100  202.0790  151.6390 N   0  0  0  0  0  1  0  0  0  0  0  0
  160.6930  203.1170  152.4340 O   0  0  0  0  0  0  0  0  0  0  0  0
  161.3180  210.8760  148.7310 C   0  0  0  0  0  2  0  0  0  0  0  0
  161.6520  212.2510  148.1840 C   0  0  0  0  0  2  0  0  0  0  0  0
  160.3770  213.0390  147.9290 C   0  0  0  0  0  2  0  0  0  0  0  0
  160.1220  213.0260  145.4560 C   0  0  0  0  0  2  0  0  0  0  0  0
  162.2330  214.3050  146.3940 S   0  0  0  0  0  0  0  0  0  0  0  0
  160.6690  213.6570  144.2650 N   0  0  2  0  0  0  0  0  0  0  0  0
  163.0110  213.2680  144.0320 N   0  0  0  0  0  2  0  0  0  0  0  0
  160.8660  212.6040  143.2880 C   0  0  0  0  0  2  0  0  0  0  0  0
  162.0070  214.1590  144.5900 C   0  0  2  0  0  3  0  0  0  0  0  0
  162.3330  212.5790  142.9540 C   0  0  0  0  0  2  0  0  0  0  0  0
  160.5110  213.8530  146.6530 C   0  0  2  0  0  3  0  0  0  0  0  0
  1  5  1  0  0  0  0
  1  3  1  0  0  0  0
  2  6  1  0  0  0  0
  2 14  2  0  0  0  0
  3  8  1  0  0  0  0
  4 17  1  0  0  0  0
  5 15  1  0  0  0  0
  6  1  2  0  0  0  0
  7 17  2  0  0  0  0
  7  9  1  0  0  0  0
  8 11  1  0  0  0  0
  8  4  2  0  0  0  0
 10 11  2  0  0  0  0
 10 18  1  0  0  0  0
 11  7  1  0  0  0  0
 12  3  2  0  0  0  0
 13 10  1  0  0  0  0
 14 12  1  0  0  0  0
 15 13  1  6  0  0  0
 16  5  1  0  0  0  0
 16 15  1  0  0  0  0
 18  9  2  0  0  0  0
 20 19  1  6  0  0  0
 20  2  1  0  0  0  0
 21 20  1  0  0  0  0
 22 25  1  0  0  0  0
 23 22  1  0  0  0  0
 23 21  1  0  0  0  0
 24 22  2  0  0  0  0
 25 26  1  0  0  0  0
 26 27  1  0  0  0  0
 27 28  1  0  0  0  0
 28 29  1  0  0  0  0
 29 30  1  0  0  0  0
 29 31  2  0  0  0  0
 32 16  1  0  0  0  0
 33 32  1  0  0  0  0
 34 33  1  0  0  0  0
 35 42  1  0  0  0  0
 36 42  1  0  0  0  0
 37 39  1  6  0  0  0
 37 40  1  0  0  0  0
 37 35  1  0  0  0  0
 40 38  1  1  0  0  0
 40 36  1  0  0  0  0
 41 39  1  0  0  0  0
 41 38  1  0  0  0  0
 42 34  1  1  0  0  0
M  END
>  <MODEL>
5

>  <REMARK>
 VINA RESULT:      -8.3      1.762      3.272
  Name = 
  12 active torsions:
  status: ('A' for Active; 'I' for Inactive)
    1  A    between atoms: C_1  and  C_10
    2  A    between atoms: C_1  and  C_34
    3  A    between atoms: C_2  and  C_11
    4  A    between atoms: C_2  and  C_16
    5  A    between atoms: C_4  and  C_10
    6  A    between atoms: C_6  and  C_30
    7  A    between atoms: C_8  and  C_40
    8  A    between atoms: C_11  and  C_38
    9  A    between atoms: N_12  and  N_24
   10  A    between atoms: C_16  and  N_39
   11  A    between atoms: N_24  and  C_30
   12  A    between atoms: C_34  and  C_40
                            x       y       z     vdW  Elec       q    Type
                         _______ _______ _______ _____ _____    ______ ____

>  <TORSDO>
F 12

$$$$
=
 OpenBabel11042420023D

 42 48  0  0  1  0  0  0  0  0999 V2000
  160.9150  206.4190  150.8620 C   0  0  0  0  0  0  0  0  0  0  0  0
  160.9890  206.8460  153.2580 C   0  0  0  0  0  0  0  0  0  0  0  0
  160.8940  205.0230  151.1030 C   0  0  0  0  0  0  0  0  0  0  0  0
  160.4060  202.7240  150.2270 C   0  0  0  0  0  3  0  0  0  0  0  0
  160.8700  206.9670  149.5510 N   0  0  0  0  0  0  0  0  0  0  0  0
  160.9630  207.3100  151.9390 C   0  0  0  0  0  3  0  0  0  0  0  0
  161.1430  202.6810  148.2130 C   0  0  0  0  0  0  0  0  0  0  0  0
  160.8460  203.9840  150.0370 C   0  0  0  0  0  0  0  0  0  0  0  0
  161.5350  202.5490  146.8250 C   0  0  0  0  0  3  0  0  0  0  0  0
  161.8500  204.6840  147.6760 C   0  0  0  0  0  0  0  0  0  0  0  0
  161.3540  203.9730  148.6730 C   0  0  0  0  0  0  0  0  0  0  0  0
  160.8970  204.5770  152.4370 C   0  0  0  0  0  3  0  0  0  0  0  0
  162.1040  206.1490  147.6580 C   0  0  0  0  0  2  0  0  0  0  0  0
  160.9470  205.4760  153.5040 C   0  0  0  0  0  3  0  0  0  0  0  0
  160.8340  206.8710  148.1010 C   0  0  2  0  0  3  0  0  0  0  0  0
  160.9600  208.1130  148.6390 N   0  0  0  0  0  0  0  0  0  0  0  0
  160.5680  201.8980  149.0540 N   0  0  0  0  0  0  0  0  0  0  0  0
  161.9700  203.7810  146.5040 C   0  0  0  0  0  3  0  0  0  0  0  0
  161.6070  207.1260  155.6490 C   0  0  0  0  0  1  0  0  0  0  0  0
  161.0330  207.7950  154.4130 C   0  0  1  0  0  3  0  0  0  0  0  0
  161.8160  208.9680  154.0690 N   0  0  0  0  0  2  0  0  0  0  0  0
  160.7340  211.1700  154.3090 C   0  0  0  0  0  0  0  0  0  0  0  0
  161.3560  210.0170  154.8760 N   0  0  0  0  0  2  0  0  0  0  0  0
  160.3090  212.1110  155.0850 N   0  0  0  0  0  2  0  0  0  0  0  0
  160.5910  211.3090  152.8290 C   0  0  0  0  0  2  0  0  0  0  0  0
  159.1800  211.7150  152.4520 C   0  0  0  0  0  2  0  0  0  0  0  0
  159.1460  213.1810  152.0310 C   0  0  0  0  0  2  0  0  0  0  0  0
  157.8110  213.5300  151.3890 C   0  0  0  0  0  2  0  0  0  0  0  0
  157.9520  213.6680  149.9080 C   0  0  0  0  0  0  0  0  0  0  0  0
  157.1020  212.9260  149.0440 N   0  0  0  0  0  1  0  0  0  0  0  0
  158.8120  214.4480  149.4230 O   0  0  0  0  0  0  0  0  0  0  0  0
  162.3270  208.6280  148.7430 C   0  0  0  0  0  2  0  0  0  0  0  0
  162.3900  210.0420  148.1970 C   0  0  0  0  0  2  0  0  0  0  0  0
  161.9360  211.0350  149.2550 C   0  0  0  0  0  2  0  0  0  0  0  0
  160.6090  212.1090  147.4470 C   0  0  0  0  0  2  0  0  0  0  0  0
  162.9950  213.1430  147.9000 S   0  0  0  0  0  0  0  0  0  0  0  0
  160.6100  213.2920  146.6020 N   0  0  2  0  0  0  0  0  0  0  0  0
  162.5750  213.4380  145.2550 N   0  0  0  0  0  2  0  0  0  0  0  0
  160.2840  212.8470  145.2610 C   0  0  0  0  0  2  0  0  0  0  0  0
  161.9830  213.8010  146.5340 C   0  0  2  0  0  3  0  0  0  0  0  0
  161.4450  213.2160  144.3770 C   0  0  0  0  0  2  0  0  0  0  0  0
  161.5420  212.3500  148.6040 C   0  0  2  0  0  3  0  0  0  0  0  0
  1  3  2  0  0  0  0
  1  6  1  0  0  0  0
  2 14  1  0  0  0  0
  2 20  1  0  0  0  0
  3 12  1  0  0  0  0
  5  1  1  0  0  0  0
  6  2  2  0  0  0  0
  7 11  1  0  0  0  0
  7 17  1  0  0  0  0
  8  4  1  0  0  0  0
  8  3  1  0  0  0  0
  9  7  2  0  0  0  0
 10 11  1  0  0  0  0
 11  8  2  0  0  0  0
 12 14  2  0  0  0  0
 13 10  1  0  0  0  0
 15 13  1  6  0  0  0
 15 16  1  0  0  0  0
 15  5  1  0  0  0  0
 16 32  1  0  0  0  0
 16  5  1  0  0  0  0
 17  4  2  0  0  0  0
 18  9  1  0  0  0  0
 18 10  2  0  0  0  0
 20 19  1  1  0  0  0
 21 20  1  0  0  0  0
 21 23  1  0  0  0  0
 22 23  1  0  0  0  0
 22 24  2  0  0  0  0
 25 22  1  0  0  0  0
 26 25  1  0  0  0  0
 27 26  1  0  0  0  0
 28 27  1  0  0  0  0
 29 28  1  0  0  0  0
 30 29  1  0  0  0  0
 31 29  2  0  0  0  0
 33 32  1  0  0  0  0
 33 34  1  0  0  0  0
 35 42  1  0  0  0  0
 36 42  1  0  0  0  0
 37 39  1  6  0  0  0
 37 35  1  0  0  0  0
 40 38  1  6  0  0  0
 40 37  1  0  0  0  0
 40 36  1  0  0  0  0
 41 38  1  0  0  0  0
 41 39  1  0  0  0  0
 42 34  1  6  0  0  0
M  END
>  <MODEL>
6

>  <REMARK>
 VINA RESULT:      -8.2      2.148      6.881
  Name = 
  12 active torsions:
  status: ('A' for Active; 'I' for Inactive)
    1  A    between atoms: C_1  and  C_10
    2  A    between atoms: C_1  and  C_34
    3  A    between atoms: C_2  and  C_11
    4  A    between atoms: C_2  and  C_16
    5  A    between atoms: C_4  and  C_10
    6  A    between atoms: C_6  and  C_30
    7  A    between atoms: C_8  and  C_40
    8  A    between atoms: C_11  and  C_38
    9  A    between atoms: N_12  and  N_24
   10  A    between atoms: C_16  and  N_39
   11  A    between atoms: N_24  and  C_30
   12  A    between atoms: C_34  and  C_40
                            x       y       z     vdW  Elec       q    Type
                         _______ _______ _______ _____ _____    ______ ____

>  <TORSDO>
F 12

$$$$
=
 OpenBabel11042420023D

 42 48  0  0  1  0  0  0  0  0999 V2000
  160.9180  206.4460  150.7190 C   0  0  0  0  0  0  0  0  0  0  0  0
  160.9730  206.8430  153.1200 C   0  0  0  0  0  0  0  0  0  0  0  0
  160.9120  205.0470  150.9410 C   0  0  0  0  0  0  0  0  0  0  0  0
  160.4570  202.7530  150.0330 C   0  0  0  0  0  3  0  0  0  0  0  0
  160.8740  207.0100  149.4140 N   0  0  0  0  0  0  0  0  0  0  0  0
  160.9490  207.3240  151.8070 C   0  0  0  0  0  3  0  0  0  0  0  0
  161.2060  202.7460  148.0230 C   0  0  0  0  0  0  0  0  0  0  0  0
  160.8830  204.0220  149.8620 C   0  0  0  0  0  0  0  0  0  0  0  0
  161.6080  202.6360  146.6370 C   0  0  0  0  0  3  0  0  0  0  0  0
  161.8920  204.7640  147.5170 C   0  0  0  0  0  0  0  0  0  0  0  0
  161.3990  204.0330  148.5010 C   0  0  0  0  0  0  0  0  0  0  0  0
  160.9130  204.5840  152.2700 C   0  0  0  0  0  3  0  0  0  0  0  0
  162.1290  206.2320  147.5180 C   0  0  0  0  0  2  0  0  0  0  0  0
  160.9460  205.4690  153.3480 C   0  0  0  0  0  3  0  0  0  0  0  0
  160.8480  206.9330  147.9630 C   0  0  2  0  0  3  0  0  0  0  0  0
  160.9550  208.1690  148.5180 N   0  0  0  0  0  0  0  0  0  0  0  0
  160.6360  201.9450  148.8510 N   0  0  0  0  0  0  0  0  0  0  0  0
  162.0300  203.8770  146.3330 C   0  0  0  0  0  3  0  0  0  0  0  0
  161.4680  207.0690  155.5460 C   0  0  0  0  0  1  0  0  0  0  0  0
  160.9990  207.7780  154.2870 C   0  0  1  0  0  3  0  0  0  0  0  0
  161.8580  208.9130  154.0020 N   0  0  0  0  0  2  0  0  0  0  0  0
  160.9690  211.0700  154.7990 C   0  0  0  0  0  0  0  0  0  0  0  0
  161.6610  209.8430  155.0320 N   0  0  0  0  0  2  0  0  0  0  0  0
  160.7930  211.8960  155.7770 N   0  0  0  0  0  2  0  0  0  0  0  0
  160.4670  211.4150  153.4370 C   0  0  0  0  0  2  0  0  0  0  0  0
  158.9970  211.0770  153.2930 C   0  0  0  0  0  2  0  0  0  0  0  0
  158.1850  212.3420  153.0320 C   0  0  0  0  0  2  0  0  0  0  0  0
  157.5600  212.8610  154.3180 C   0  0  0  0  0  2  0  0  0  0  0  0
  156.9610  211.7430  155.1070 C   0  0  0  0  0  0  0  0  0  0  0  0
  155.7880  211.0930  154.6360 N   0  0  0  0  0  1  0  0  0  0  0  0
  157.4970  211.3650  156.1810 O   0  0  0  0  0  0  0  0  0  0  0  0
  162.3160  208.6990  148.6360 C   0  0  0  0  0  2  0  0  0  0  0  0
  162.3320  210.1690  148.2630 C   0  0  0  0  0  2  0  0  0  0  0  0
  161.9540  211.0210  149.4630 C   0  0  0  0  0  2  0  0  0  0  0  0
  160.4450  212.9520  149.8860 C   0  0  0  0  0  2  0  0  0  0  0  0
  160.8500  212.3340  147.3520 S   0  0  0  0  0  0  0  0  0  0  0  0
  159.7910  214.0440  149.1830 N   0  0  2  0  0  0  0  0  0  0  0  0
  158.3240  213.2630  147.4700 N   0  0  0  0  0  2  0  0  0  0  0  0
  158.4290  214.1030  149.6800 C   0  0  0  0  0  2  0  0  0  0  0  0
  159.6870  213.6750  147.7680 C   0  0  2  0  0  3  0  0  0  0  0  0
  157.5190  213.8830  148.5020 C   0  0  0  0  0  2  0  0  0  0  0  0
  161.5440  212.4120  149.0100 C   0  0  2  0  0  3  0  0  0  0  0  0
  1  3  2  0  0  0  0
  1  6  1  0  0  0  0
  2 14  1  0  0  0  0
  2 20  1  0  0  0  0
  3 12  1  0  0  0  0
  5  1  1  0  0  0  0
  6  2  2  0  0  0  0
  7 11  1  0  0  0  0
  7 17  1  0  0  0  0
  8  4  1  0  0  0  0
  8  3  1  0  0  0  0
  9  7  2  0  0  0  0
 10 13  1  0  0  0  0
 10 11  1  0  0  0  0
 11  8  2  0  0  0  0
 12 14  2  0  0  0  0
 15 13  1  6  0  0  0
 15 16  1  0  0  0  0
 15  5  1  0  0  0  0
 16 32  1  0  0  0  0
 16  5  1  0  0  0  0
 17  4  2  0  0  0  0
 18  9  1  0  0  0  0
 18 10  2  0  0  0  0
 20 19  1  1  0  0  0
 21 20  1  0  0  0  0
 21 23  1  0  0  0  0
 22 23  1  0  0  0  0
 22 24  2  0  0  0  0
 25 22  1  0  0  0  0
 26 25  1  0  0  0  0
 27 26  1  0  0  0  0
 27 28  1  0  0  0  0
 28 29  1  0  0  0  0
 29 31  2  0  0  0  0
 30 29  1  0  0  0  0
 33 32  1  0  0  0  0
 33 34  1  0  0  0  0
 36 42  1  0  0  0  0
 37 39  1  1  0  0  0
 37 35  1  0  0  0  0
 38 40  1  0  0  0  0
 38 41  1  0  0  0  0
 40 36  1  1  0  0  0
 40 37  1  0  0  0  0
 41 39  1  0  0  0  0
 42 34  1  1  0  0  0
 42 35  1  0  0  0  0
M  END
>  <MODEL>
7

>  <REMARK>
 VINA RESULT:      -8.1      2.510      7.377
  Name = 
  12 active torsions:
  status: ('A' for Active; 'I' for Inactive)
    1  A    between atoms: C_1  and  C_10
    2  A    between atoms: C_1  and  C_34
    3  A    between atoms: C_2  and  C_11
    4  A    between atoms: C_2  and  C_16
    5  A    between atoms: C_4  and  C_10
    6  A    between atoms: C_6  and  C_30
    7  A    between atoms: C_8  and  C_40
    8  A    between atoms: C_11  and  C_38
    9  A    between atoms: N_12  and  N_24
   10  A    between atoms: C_16  and  N_39
   11  A    between atoms: N_24  and  C_30
   12  A    between atoms: C_34  and  C_40
                            x       y       z     vdW  Elec       q    Type
                         _______ _______ _______ _____ _____    ______ ____

>  <TORSDO>
F 12

$$$$
=
 OpenBabel11042420023D

 42 48  0  0  1  0  0  0  0  0999 V2000
  161.6940  207.2760  152.2400 C   0  0  0  0  0  0  0  0  0  0  0  0
  161.4440  204.9380  151.6080 C   0  0  0  0  0  0  0  0  0  0  0  0
  161.1800  206.9920  153.5290 C   0  0  0  0  0  0  0  0  0  0  0  0
  160.9310  207.7050  155.9210 C   0  0  0  0  0  3  0  0  0  0  0  0
  162.1160  208.5790  151.8580 N   0  0  0  0  0  0  0  0  0  0  0  0
  161.8190  206.2490  151.2980 C   0  0  0  0  0  3  0  0  0  0  0  0
  160.5170  209.8100  155.8780 C   0  0  0  0  0  0  0  0  0  0  0  0
  161.0020  208.0020  154.6070 C   0  0  0  0  0  0  0  0  0  0  0  0
  160.3020  211.2370  155.9850 C   0  0  0  0  0  3  0  0  0  0  0  0
  160.6570  210.5150  153.8080 C   0  0  0  0  0  0  0  0  0  0  0  0
  160.7200  209.4300  154.5590 C   0  0  0  0  0  0  0  0  0  0  0  0
  160.8310  205.6620  153.8280 C   0  0  0  0  0  3  0  0  0  0  0  0
  160.9490  210.6210  152.3540 C   0  0  0  0  0  2  0  0  0  0  0  0
  160.9580  204.6460  152.8800 C   0  0  0  0  0  3  0  0  0  0  0  0
  162.3170  210.0000  152.0850 C   0  0  2  0  0  3  0  0  0  0  0  0
  162.5710  209.5280  150.8350 N   0  0  0  0  0  0  0  0  0  0  0  0
  160.6490  208.8620  156.7360 N   0  0  0  0  0  0  0  0  0  0  0  0
  160.3870  211.6630  154.7110 C   0  0  0  0  0  3  0  0  0  0  0  0
  161.5090  202.4750  151.2770 C   0  0  0  0  0  1  0  0  0  0  0  0
  161.5810  203.8360  150.6070 C   0  0  1  0  0  3  0  0  0  0  0  0
  160.5500  203.9490  149.5910 N   0  0  0  0  0  2  0  0  0  0  0  0
  161.3660  205.3950  147.7690 C   0  0  0  0  0  0  0  0  0  0  0  0
  160.6860  205.2180  149.0120 N   0  0  0  0  0  2  0  0  0  0  0  0
  161.4590  206.5780  147.2570 N   0  0  0  0  0  2  0  0  0  0  0  0
  161.9890  204.2340  147.0680 C   0  0  0  0  0  2  0  0  0  0  0  0
  161.2380  203.8960  145.7950 C   0  0  0  0  0  2  0  0  0  0  0  0
  161.1190  202.3830  145.6360 C   0  0  0  0  0  2  0  0  0  0  0  0
  160.4450  201.7610  146.8500 C   0  0  0  0  0  2  0  0  0  0  0  0
  161.2160  200.5780  147.3380 C   0  0  0  0  0  0  0  0  0  0  0  0
  161.5530  199.5300  146.4380 N   0  0  0  0  0  1  0  0  0  0  0  0
  161.5810  200.5120  148.5410 O   0  0  0  0  0  0  0  0  0  0  0  0
  161.4780  209.6630  149.8690 C   0  0  0  0  0  2  0  0  0  0  0  0
  161.9680  210.3970  148.6360 C   0  0  0  0  0  2  0  0  0  0  0  0
  162.3310  211.8310  148.9860 C   0  0  0  0  0  2  0  0  0  0  0  0
  160.7400  212.1260  147.0990 C   0  0  0  0  0  2  0  0  0  0  0  0
  162.3480  214.1610  147.5830 S   0  0  0  0  0  0  0  0  0  0  0  0
  160.2280  213.1560  146.2080 N   0  0  2  0  0  0  0  0  0  0  0  0
  161.9580  214.1720  144.9170 N   0  0  0  0  0  2  0  0  0  0  0  0
  160.2060  212.5820  144.8760 C   0  0  0  0  0  2  0  0  0  0  0  0
  161.2090  214.2440  146.1620 C   0  0  2  0  0  3  0  0  0  0  0  0
  161.1020  213.4310  144.0150 C   0  0  0  0  0  2  0  0  0  0  0  0
  161.4000  212.7970  148.2730 C   0  0  2  0  0  3  0  0  0  0  0  0
  1  3  1  0  0  0  0
  2 14  2  0  0  0  0
  3 12  2  0  0  0  0
  3  8  1  0  0  0  0
  4 17  1  0  0  0  0
  5 15  1  0  0  0  0
  5  1  1  0  0  0  0
  6  2  1  0  0  0  0
  6  1  2  0  0  0  0
  7  9  1  0  0  0  0
  7 17  2  0  0  0  0
  8  4  2  0  0  0  0
 10 11  2  0  0  0  0
 10 18  1  0  0  0  0
 11  8  1  0  0  0  0
 11  7  1  0  0  0  0
 13 10  1  0  0  0  0
 14 12  1  0  0  0  0
 15 13  1  6  0  0  0
 16  5  1  0  0  0  0
 16 15  1  0  0  0  0
 18  9  2  0  0  0  0
 20 19  1  1  0  0  0
 20  2  1  0  0  0  0
 21 20  1  0  0  0  0
 22 23  1  0  0  0  0
 23 21  1  0  0  0  0
 24 22  2  0  0  0  0
 25 22  1  0  0  0  0
 26 25  1  0  0  0  0
 27 26  1  0  0  0  0
 27 28  1  0  0  0  0
 28 29  1  0  0  0  0
 29 31  2  0  0  0  0
 30 29  1  0  0  0  0
 32 16  1  0  0  0  0
 33 34  1  0  0  0  0
 33 32  1  0  0  0  0
 35 42  1  0  0  0  0
 36 42  1  0  0  0  0
 37 39  1  6  0  0  0
 37 35  1  0  0  0  0
 40 38  1  6  0  0  0
 40 37  1  0  0  0  0
 40 36  1  0  0  0  0
 41 39  1  0  0  0  0
 41 38  1  0  0  0  0
 42 34  1  6  0  0  0
M  END
>  <MODEL>
8

>  <REMARK>
 VINA RESULT:      -8.0      1.199      2.227
  Name = 
  12 active torsions:
  status: ('A' for Active; 'I' for Inactive)
    1  A    between atoms: C_1  and  C_10
    2  A    between atoms: C_1  and  C_34
    3  A    between atoms: C_2  and  C_11
    4  A    between atoms: C_2  and  C_16
    5  A    between atoms: C_4  and  C_10
    6  A    between atoms: C_6  and  C_30
    7  A    between atoms: C_8  and  C_40
    8  A    between atoms: C_11  and  C_38
    9  A    between atoms: N_12  and  N_24
   10  A    between atoms: C_16  and  N_39
   11  A    between atoms: N_24  and  C_30
   12  A    between atoms: C_34  and  C_40
                            x       y       z     vdW  Elec       q    Type
                         _______ _______ _______ _____ _____    ______ ____

>  <TORSDO>
F 12

$$$$
=
 OpenBabel11042420023D

 42 48  0  0  1  0  0  0  0  0999 V2000
  161.6820  207.8620  150.9070 C   0  0  0  0  0  0  0  0  0  0  0  0
  161.2180  206.0920  149.3010 C   0  0  0  0  0  0  0  0  0  0  0  0
  161.2370  207.0320  151.9650 C   0  0  0  0  0  0  0  0  0  0  0  0
  161.2040  206.5660  154.4300 C   0  0  0  0  0  3  0  0  0  0  0  0
  162.1720  209.1800  151.1270 N   0  0  0  0  0  0  0  0  0  0  0  0
  161.6670  207.3850  149.5930 C   0  0  0  0  0  3  0  0  0  0  0  0
  160.9450  208.4640  155.3940 C   0  0  0  0  0  0  0  0  0  0  0  0
  161.2080  207.4340  153.3980 C   0  0  0  0  0  0  0  0  0  0  0  0
  160.8430  209.6860  156.1630 C   0  0  0  0  0  3  0  0  0  0  0  0
  160.9950  210.0420  153.8750 C   0  0  0  0  0  0  0  0  0  0  0  0
  161.0290  208.7310  154.0360 C   0  0  0  0  0  0  0  0  0  0  0  0
  160.8120  205.7270  151.6530 C   0  0  0  0  0  3  0  0  0  0  0  0
  161.1950  210.7980  152.6110 C   0  0  0  0  0  2  0  0  0  0  0  0
  160.7990  205.2620  150.3380 C   0  0  0  0  0  3  0  0  0  0  0  0
  162.4920  210.3260  151.9590 C   0  0  2  0  0  3  0  0  0  0  0  0
  162.6250  210.4780  150.6150 N   0  0  0  0  0  0  0  0  0  0  0  0
  161.0650  207.2230  155.7070 N   0  0  0  0  0  0  0  0  0  0  0  0
  160.8720  210.6500  155.2250 C   0  0  0  0  0  3  0  0  0  0  0  0
  160.0800  206.2010  147.0940 C   0  0  0  0  0  1  0  0  0  0  0  0
  161.2050  205.5740  147.8990 C   0  0  1  0  0  3  0  0  0  0  0  0
  162.4820  205.8300  147.2570 N   0  0  0  0  0  2  0  0  0  0  0  0
  161.9450  205.1240  144.9570 C   0  0  0  0  0  0  0  0  0  0  0  0
  162.2110  206.1450  145.9190 N   0  0  0  0  0  2  0  0  0  0  0  0
  161.6840  205.4530  143.7350 N   0  0  0  0  0  2  0  0  0  0  0  0
  161.9870  203.6830  145.3440 C   0  0  0  0  0  2  0  0  0  0  0  0
  160.6350  203.0250  145.1510 C   0  0  0  0  0  2  0  0  0  0  0  0
  160.5050  201.8050  146.0570 C   0  0  0  0  0  2  0  0  0  0  0  0
  160.8370  202.1620  147.4980 C   0  0  0  0  0  2  0  0  0  0  0  0
  161.2060  200.9420  148.2780 C   0  0  0  0  0  0  0  0  0  0  0  0
  161.1190  200.9540  149.6970 N   0  0  0  0  0  1  0  0  0  0  0  0
  161.5810  199.8980  147.6830 O   0  0  0  0  0  0  0  0  0  0  0  0
  161.4820  211.0810  149.9260 C   0  0  0  0  0  2  0  0  0  0  0  0
  161.8120  211.2840  148.4590 C   0  0  0  0  0  2  0  0  0  0  0  0
  162.5260  212.6110  148.2580 C   0  0  0  0  0  2  0  0  0  0  0  0
  160.4680  212.8100  146.8770 C   0  0  0  0  0  2  0  0  0  0  0  0
  162.7070  213.6260  145.7410 S   0  0  0  0  0  0  0  0  0  0  0  0
  159.9970  213.4120  145.6400 N   0  0  2  0  0  0  0  0  0  0  0  0
  161.2060  212.6280  143.7380 N   0  0  0  0  0  2  0  0  0  0  0  0
  159.1960  212.4080  144.9660 C   0  0  0  0  0  2  0  0  0  0  0  0
  161.1590  213.6450  144.7770 C   0  0  2  0  0  3  0  0  0  0  0  0
  159.8450  212.1450  143.6340 C   0  0  0  0  0  2  0  0  0  0  0  0
  161.7640  213.4710  147.2660 C   0  0  2  0  0  3  0  0  0  0  0  0
  1  5  1  0  0  0  0
  1  3  1  0  0  0  0
  2  6  1  0  0  0  0
  2 14  2  0  0  0  0
  3  8  1  0  0  0  0
  4 17  1  0  0  0  0
  5 15  1  0  0  0  0
  6  1  2  0  0  0  0
  7 17  2  0  0  0  0
  7  9  1  0  0  0  0
  8 11  1  0  0  0  0
  8  4  2  0  0  0  0
 10 11  2  0  0  0  0
 10 18  1  0  0  0  0
 11  7  1  0  0  0  0
 12  3  2  0  0  0  0
 13 10  1  0  0  0  0
 14 12  1  0  0  0  0
 15 13  1  6  0  0  0
 16  5  1  0  0  0  0
 16 15  1  0  0  0  0
 18  9  2  0  0  0  0
 20 19  1  6  0  0  0
 20  2  1  0  0  0  0
 21 20  1  0  0  0  0
 22 25  1  0  0  0  0
 22 23  1  0  0  0  0
 23 21  1  0  0  0  0
 24 22  2  0  0  0  0
 26 25  1  0  0  0  0
 26 27  1  0  0  0  0
 27 28  1  0  0  0  0
 28 29  1  0  0  0  0
 29 30  1  0  0  0  0
 31 29  2  0  0  0  0
 32 16  1  0  0  0  0
 33 32  1  0  0  0  0
 34 33  1  0  0  0  0
 35 42  1  0  0  0  0
 36 42  1  0  0  0  0
 37 39  1  6  0  0  0
 37 35  1  0  0  0  0
 40 38  1  6  0  0  0
 40 37  1  0  0  0  0
 40 36  1  0  0  0  0
 41 38  1  0  0  0  0
 41 39  1  0  0  0  0
 42 34  1  1  0  0  0
M  END
>  <MODEL>
9

>  <REMARK>
 VINA RESULT:      -8.0      1.690      2.871
  Name = 
  12 active torsions:
  status: ('A' for Active; 'I' for Inactive)
    1  A    between atoms: C_1  and  C_10
    2  A    between atoms: C_1  and  C_34
    3  A    between atoms: C_2  and  C_11
    4  A    between atoms: C_2  and  C_16
    5  A    between atoms: C_4  and  C_10
    6  A    between atoms: C_6  and  C_30
    7  A    between atoms: C_8  and  C_40
    8  A    between atoms: C_11  and  C_38
    9  A    between atoms: N_12  and  N_24
   10  A    between atoms: C_16  and  N_39
   11  A    between atoms: N_24  and  C_30
   12  A    between atoms: C_34  and  C_40
                            x       y       z     vdW  Elec       q    Type
                         _______ _______ _______ _____ _____    ______ ____

>  <TORSDO>
F 12

$$$$
