=
 OpenBabel11042422213D

 43 48  0  0  1  0  0  0  0  0999 V2000
  161.3100  204.8120  149.0060 N   0  0  0  0  0  2  0  0  0  0  0  0
  161.1000  205.3300  151.2940 N   0  0  0  0  0  0  0  0  0  0  0  0
  161.1040  209.7140  152.4740 C   0  0  0  0  0  0  0  0  0  0  0  0
  161.0360  207.5530  152.1950 C   0  0  0  0  0  0  0  0  0  0  0  0
  161.4060  207.2800  149.7560 C   0  0  2  0  0  3  0  0  0  0  0  0
  160.8910  208.1450  154.4990 C   0  0  0  0  0  3  0  0  0  0  0  0
  161.0110  206.2090  152.4270 C   0  0  0  0  0  0  0  0  0  0  0  0
  161.2360  209.4660  151.1370 N   0  0  0  0  0  0  0  0  0  0  0  0
  160.9830  208.5060  153.1540 C   0  0  0  0  0  0  0  0  0  0  0  0
  162.6760  207.5170  149.2620 F   0  0  0  0  0  0  0  0  0  0  0  0
  160.8390  206.7590  154.7990 C   0  0  0  0  0  3  0  0  0  0  0  0
  161.1920  208.1210  150.9860 C   0  0  0  0  0  0  0  0  0  0  0  0
  160.8990  205.7840  153.7630 C   0  0  0  0  0  3  0  0  0  0  0  0
  161.2490  205.7770  150.0640 C   0  0  0  0  0  0  0  0  0  0  0  0
  160.3250  205.9620  147.0530 O   0  0  0  0  0  0  0  0  0  0  0  0
  160.3020  206.2240  145.6940 N   0  0  0  0  0  2  0  0  0  0  0  0
  161.2770  205.0900  147.6030 C   0  0  0  0  0  0  0  0  0  0  0  0
  161.2540  205.5970  144.8290 C   0  0  0  0  0  3  0  0  0  0  0  0
  162.1530  204.7630  145.3500 C   0  0  0  0  0  3  0  0  0  0  0  0
  162.1650  204.4970  146.7990 C   0  0  0  0  0  3  0  0  0  0  0  0
  161.4910  210.4510  150.0920 C   0  0  0  0  0  2  0  0  0  0  0  0
  162.9740  210.7570  150.0080 C   0  0  0  0  0  1  0  0  0  0  0  0
  161.1350  211.0820  153.0990 C   0  0  0  0  0  2  0  0  0  0  0  0
  159.8480  212.8810  154.3040 C   0  0  0  0  0  1  0  0  0  0  0  0
  159.7450  211.6890  153.3650 C   0  0  2  0  0  0  0  0  0  0  0  0
  158.8500  210.6390  154.0220 C   0  0  0  0  0  2  0  0  0  0  0  0
  157.4980  210.8950  153.7760 O   0  0  0  0  0  0  0  0  0  0  0  0
  157.7830  210.6590  156.3640 O   0  0  0  0  0  1  0  0  0  0  0  0
  156.8020  211.1060  155.3060 P   0  0  0  0  0  0  0  0  0  0  0  0
  156.4330  212.7400  155.5450 O   0  0  0  0  0  1  0  0  0  0  0  0
  155.3880  210.1830  155.4340 O   0  0  0  0  0  0  0  0  0  0  0  0
  159.0890  212.1700  152.0680 C   0  0  0  0  0  2  0  0  0  0  0  0
  159.8720  213.2960  151.3850 C   0  0  1  0  0  3  0  0  0  0  0  0
  159.4960  213.3300  149.9180 C   0  0  1  0  0  3  0  0  0  0  0  0
  159.0260  214.4520  150.8300 C   0  0  1  0  0  3  0  0  0  0  0  0
  160.6880  213.8060  149.1160 C   0  0  0  0  0  1  0  0  0  0  0  0
  156.6230  214.3030  150.0680 C   0  0  0  0  0  3  0  0  0  0  0  0
  154.8320  214.3010  151.6910 C   0  0  0  0  0  3  0  0  0  0  0  0
  155.2590  214.2640  150.3620 C   0  0  0  0  0  0  0  0  0  0  0  0
  155.7830  214.3810  152.7090 C   0  0  0  0  0  3  0  0  0  0  0  0
  157.1090  214.4140  152.4040 N   0  0  0  0  0  0  0  0  0  0  0  0
  154.3510  214.1970  149.3600 F   0  0  0  0  0  0  0  0  0  0  0  0
  157.5510  214.3610  151.1160 C   0  0  0  0  0  0  0  0  0  0  0  0
  1 14  1  0  0  0  0
  2  7  1  0  0  0  0
  3 23  1  0  0  0  0
  3  9  2  0  0  0  0
  4  7  1  0  0  0  0
  4  9  1  0  0  0  0
  5 10  1  1  0  0  0
  5 14  1  0  0  0  0
  5 12  1  0  0  0  0
  6 11  2  0  0  0  0
  7 13  2  0  0  0  0
  8  3  1  0  0  0  0
  9  6  1  0  0  0  0
 12  8  1  0  0  0  0
 12  4  2  0  0  0  0
 13 11  1  0  0  0  0
 14  2  2  0  0  0  0
 15 17  1  0  0  0  0
 16 15  1  0  0  0  0
 17  1  1  0  0  0  0
 18 19  2  0  0  0  0
 18 16  1  0  0  0  0
 19 20  1  0  0  0  0
 20 17  2  0  0  0  0
 21  8  1  0  0  0  0
 22 21  1  0  0  0  0
 23 25  1  0  0  0  0
 25 26  1  0  0  0  0
 25 24  1  1  0  0  0
 27 26  1  0  0  0  0
 27 29  1  0  0  0  0
 29 31  2  0  0  0  0
 29 30  1  0  0  0  0
 29 28  1  0  0  0  0
 32 25  1  0  0  0  0
 33 32  1  1  0  0  0
 34 36  1  6  0  0  0
 34 35  1  0  0  0  0
 34 33  1  0  0  0  0
 35 43  1  1  0  0  0
 35 33  1  0  0  0  0
 37 39  2  0  0  0  0
 37 43  1  0  0  0  0
 38 40  2  0  0  0  0
 39 38  1  0  0  0  0
 41 40  1  0  0  0  0
 42 39  1  0  0  0  0
 43 41  2  0  0  0  0
M  END
>  <MODEL>
1

>  <REMARK>
 VINA RESULT:      -6.7      0.000      0.000
  Name = 
  10 active torsions:
  status: ('A' for Active; 'I' for Inactive)
    1  A    between atoms: C_1  and  C_21
    2  A    between atoms: N_3  and  C_17
    3  A    between atoms: C_6  and  C_38
    4  A    between atoms: C_9  and  O_20
    5  A    between atoms: C_9  and  C_35
    6  A    between atoms: P_15  and  O_20
    7  A    between atoms: N_16  and  C_26
    8  A    between atoms: C_21  and  C_35
    9  A    between atoms: C_29  and  C_41
   10  A    between atoms: C_35  and  C_38
                            x       y       z     vdW  Elec       q    Type
                         _______ _______ _______ _____ _____    ______ ____

>  <TORSDO>
F 10

$$$$
=
 OpenBabel11042422213D

 43 48  0  0  1  0  0  0  0  0999 V2000
  161.3010  204.9100  149.8110 N   0  0  0  0  0  2  0  0  0  0  0  0
  161.0640  205.5930  152.0530 N   0  0  0  0  0  0  0  0  0  0  0  0
  160.8810  210.0510  152.8930 C   0  0  0  0  0  0  0  0  0  0  0  0
  160.9040  207.8740  152.7800 C   0  0  0  0  0  0  0  0  0  0  0  0
  161.2920  207.4310  150.3700 C   0  0  2  0  0  3  0  0  0  0  0  0
  160.7280  208.6350  155.0330 C   0  0  0  0  0  3  0  0  0  0  0  0
  160.9350  206.5520  153.1150 C   0  0  0  0  0  0  0  0  0  0  0  0
  161.0270  209.7070  151.5790 N   0  0  0  0  0  0  0  0  0  0  0  0
  160.8090  208.8950  153.6630 C   0  0  0  0  0  0  0  0  0  0  0  0
  162.5520  207.6810  149.8580 F   0  0  0  0  0  0  0  0  0  0  0  0
  160.7340  207.2740  155.4380 C   0  0  0  0  0  3  0  0  0  0  0  0
  161.0390  208.3530  151.5320 C   0  0  0  0  0  0  0  0  0  0  0  0
  160.8370  206.2270  154.4800 C   0  0  0  0  0  3  0  0  0  0  0  0
  161.1970  205.9500  150.7930 C   0  0  0  0  0  0  0  0  0  0  0  0
  160.6180  206.1780  147.8040 O   0  0  0  0  0  0  0  0  0  0  0  0
  160.5840  206.3310  146.4290 N   0  0  0  0  0  2  0  0  0  0  0  0
  161.2600  205.0780  148.3910 C   0  0  0  0  0  0  0  0  0  0  0  0
  161.2050  205.3550  145.5850 C   0  0  0  0  0  3  0  0  0  0  0  0
  161.8080  204.3060  146.1430 C   0  0  0  0  0  3  0  0  0  0  0  0
  161.8370  204.1600  147.6090 C   0  0  0  0  0  3  0  0  0  0  0  0
  161.2430  210.6190  150.4610 C   0  0  0  0  0  2  0  0  0  0  0  0
  162.7260  210.8740  150.2700 C   0  0  0  0  0  1  0  0  0  0  0  0
  160.8540  211.4630  153.4110 C   0  0  0  0  0  2  0  0  0  0  0  0
  159.4030  213.4140  154.0690 C   0  0  0  0  0  1  0  0  0  0  0  0
  159.5300  212.2060  153.1530 C   0  0  2  0  0  0  0  0  0  0  0  0
  158.3580  211.2680  153.4350 C   0  0  0  0  0  2  0  0  0  0  0  0
  158.1990  211.0480  154.8070 O   0  0  0  0  0  0  0  0  0  0  0  0
  155.7640  210.1120  154.6360 O   0  0  0  0  0  1  0  0  0  0  0  0
  156.5520  211.3100  155.1100 P   0  0  0  0  0  0  0  0  0  0  0  0
  156.3040  211.5180  156.7710 O   0  0  0  0  0  1  0  0  0  0  0  0
  156.0210  212.6880  154.2820 O   0  0  0  0  0  0  0  0  0  0  0  0
  159.4410  212.7030  151.7080 C   0  0  0  0  0  2  0  0  0  0  0  0
  158.0000  212.7850  151.1930 C   0  0  1  0  0  3  0  0  0  0  0  0
  157.6630  214.2350  150.9160 C   0  0  1  0  0  3  0  0  0  0  0  0
  157.8380  213.2800  149.7460 C   0  0  1  0  0  3  0  0  0  0  0  0
  156.1860  214.4530  151.1640 C   0  0  0  0  0  1  0  0  0  0  0  0
  159.3200  213.0180  147.7180 C   0  0  0  0  0  3  0  0  0  0  0  0
  161.5600  213.9250  147.7250 C   0  0  0  0  0  3  0  0  0  0  0  0
  160.5410  213.2280  147.0750 C   0  0  0  0  0  0  0  0  0  0  0  0
  161.3410  214.4010  149.0180 C   0  0  0  0  0  3  0  0  0  0  0  0
  160.1420  214.1910  149.6290 N   0  0  0  0  0  0  0  0  0  0  0  0
  160.7380  212.7480  145.8240 F   0  0  0  0  0  0  0  0  0  0  0  0
  159.1260  213.5300  149.0080 C   0  0  0  0  0  0  0  0  0  0  0  0
  1 14  1  0  0  0  0
  2  7  1  0  0  0  0
  3 23  1  0  0  0  0
  3  9  2  0  0  0  0
  4  7  1  0  0  0  0
  4  9  1  0  0  0  0
  5 10  1  1  0  0  0
  5 14  1  0  0  0  0
  5 12  1  0  0  0  0
  6 11  2  0  0  0  0
  7 13  2  0  0  0  0
  8  3  1  0  0  0  0
  9  6  1  0  0  0  0
 12  8  1  0  0  0  0
 12  4  2  0  0  0  0
 13 11  1  0  0  0  0
 14  2  2  0  0  0  0
 15 17  1  0  0  0  0
 16 15  1  0  0  0  0
 17  1  1  0  0  0  0
 18 19  2  0  0  0  0
 18 16  1  0  0  0  0
 19 20  1  0  0  0  0
 20 17  2  0  0  0  0
 21  8  1  0  0  0  0
 22 21  1  0  0  0  0
 25 23  1  0  0  0  0
 25 26  1  0  0  0  0
 25 24  1  1  0  0  0
 26 27  1  0  0  0  0
 27 29  1  0  0  0  0
 28 29  1  0  0  0  0
 29 30  1  0  0  0  0
 31 29  2  0  0  0  0
 32 25  1  0  0  0  0
 33 32  1  6  0  0  0
 34 36  1  1  0  0  0
 34 33  1  0  0  0  0
 35 43  1  6  0  0  0
 35 34  1  0  0  0  0
 35 33  1  0  0  0  0
 37 43  1  0  0  0  0
 38 40  2  0  0  0  0
 39 37  2  0  0  0  0
 39 38  1  0  0  0  0
 40 41  1  0  0  0  0
 42 39  1  0  0  0  0
 43 41  2  0  0  0  0
M  END
>  <MODEL>
2

>  <REMARK>
 VINA RESULT:      -6.5      1.566      2.696
  Name = 
  10 active torsions:
  status: ('A' for Active; 'I' for Inactive)
    1  A    between atoms: C_1  and  C_21
    2  A    between atoms: N_3  and  C_17
    3  A    between atoms: C_6  and  C_38
    4  A    between atoms: C_9  and  O_20
    5  A    between atoms: C_9  and  C_35
    6  A    between atoms: P_15  and  O_20
    7  A    between atoms: N_16  and  C_26
    8  A    between atoms: C_21  and  C_35
    9  A    between atoms: C_29  and  C_41
   10  A    between atoms: C_35  and  C_38
                            x       y       z     vdW  Elec       q    Type
                         _______ _______ _______ _____ _____    ______ ____

>  <TORSDO>
F 10

$$$$
=
 OpenBabel11042422213D

 43 48  0  0  1  0  0  0  0  0999 V2000
  161.2830  204.3870  148.2950 N   0  0  0  0  0  2  0  0  0  0  0  0
  161.1010  204.8670  150.5930 N   0  0  0  0  0  0  0  0  0  0  0  0
  161.6640  209.1780  151.9010 C   0  0  0  0  0  0  0  0  0  0  0  0
  161.3150  207.0530  151.5580 C   0  0  0  0  0  0  0  0  0  0  0  0
  161.6920  206.8000  149.1180 C   0  0  2  0  0  3  0  0  0  0  0  0
  161.2070  207.5970  153.8760 C   0  0  0  0  0  3  0  0  0  0  0  0
  161.1080  205.7180  151.7500 C   0  0  0  0  0  0  0  0  0  0  0  0
  161.7870  208.9510  150.5600 N   0  0  0  0  0  0  0  0  0  0  0  0
  161.3710  207.9790  152.5430 C   0  0  0  0  0  0  0  0  0  0  0  0
  162.9910  206.8780  148.6500 F   0  0  0  0  0  0  0  0  0  0  0  0
  160.9660  206.2220  154.1340 C   0  0  0  0  0  3  0  0  0  0  0  0
  161.5680  207.6270  150.3690 C   0  0  0  0  0  0  0  0  0  0  0  0
  160.9150  205.2770  153.0720 C   0  0  0  0  0  3  0  0  0  0  0  0
  161.3310  205.3220  149.3800 C   0  0  0  0  0  0  0  0  0  0  0  0
  162.2240  204.0850  146.0300 O   0  0  0  0  0  0  0  0  0  0  0  0
  162.2450  204.3990  144.6830 N   0  0  0  0  0  2  0  0  0  0  0  0
  161.3140  204.7050  146.9000 C   0  0  0  0  0  0  0  0  0  0  0  0
  161.3350  205.3730  144.1610 C   0  0  0  0  0  3  0  0  0  0  0  0
  160.4770  205.9670  144.9890 C   0  0  0  0  0  3  0  0  0  0  0  0
  160.4660  205.6190  146.4200 C   0  0  0  0  0  3  0  0  0  0  0  0
  162.1900  209.9210  149.5480 C   0  0  0  0  0  2  0  0  0  0  0  0
  161.4900  209.6310  148.2330 C   0  0  0  0  0  1  0  0  0  0  0  0
  161.8650  210.5120  152.5660 C   0  0  0  0  0  2  0  0  0  0  0  0
  159.3490  210.3880  152.5830 C   0  0  0  0  0  1  0  0  0  0  0  0
  160.5580  211.2510  152.9110 C   0  0  2  0  0  0  0  0  0  0  0  0
  160.4680  212.5330  152.0850 C   0  0  0  0  0  2  0  0  0  0  0  0
  160.5660  212.2660  150.7160 O   0  0  0  0  0  0  0  0  0  0  0  0
  160.7800  214.4430  149.2840 O   0  0  0  0  0  1  0  0  0  0  0  0
  159.7630  213.5500  149.9550 P   0  0  0  0  0  0  0  0  0  0  0  0
  158.6980  212.9460  148.7870 O   0  0  0  0  0  0  0  0  0  0  0  0
  158.8980  214.4530  151.0960 O   0  0  0  0  0  1  0  0  0  0  0  0
  160.4920  211.6040  154.3980 C   0  0  0  0  0  2  0  0  0  0  0  0
  160.8720  210.4300  155.3080 C   0  0  1  0  0  3  0  0  0  0  0  0
  161.3010  210.9760  156.6540 C   0  0  1  0  0  3  0  0  0  0  0  0
  159.9800  210.2310  156.5430 C   0  0  1  0  0  3  0  0  0  0  0  0
  162.3440  210.0550  157.2480 C   0  0  0  0  0  1  0  0  0  0  0  0
  157.5620  210.8060  156.0930 C   0  0  0  0  0  3  0  0  0  0  0  0
  156.6840  212.9610  156.7460 C   0  0  0  0  0  3  0  0  0  0  0  0
  156.5000  211.7080  156.1580 C   0  0  0  0  0  0  0  0  0  0  0  0
  157.9380  213.2930  157.2600 C   0  0  0  0  0  3  0  0  0  0  0  0
  158.9630  212.3990  157.1920 N   0  0  0  0  0  0  0  0  0  0  0  0
  155.2930  211.3720  155.6440 F   0  0  0  0  0  0  0  0  0  0  0  0
  158.8020  211.1630  156.6390 C   0  0  0  0  0  0  0  0  0  0  0  0
  1 14  1  0  0  0  0
  2  7  1  0  0  0  0
  3  9  2  0  0  0  0
  3 23  1  0  0  0  0
  4  7  1  0  0  0  0
  4  9  1  0  0  0  0
  5 10  1  1  0  0  0
  5 14  1  0  0  0  0
  5 12  1  0  0  0  0
  6 11  2  0  0  0  0
  7 13  2  0  0  0  0
  8  3  1  0  0  0  0
  9  6  1  0  0  0  0
 12  8  1  0  0  0  0
 12  4  2  0  0  0  0
 13 11  1  0  0  0  0
 14  2  2  0  0  0  0
 15 17  1  0  0  0  0
 16 15  1  0  0  0  0
 17  1  1  0  0  0  0
 18 16  1  0  0  0  0
 18 19  2  0  0  0  0
 19 20  1  0  0  0  0
 20 17  2  0  0  0  0
 21  8  1  0  0  0  0
 22 21  1  0  0  0  0
 23 25  1  0  0  0  0
 25 24  1  6  0  0  0
 25 32  1  0  0  0  0
 26 25  1  0  0  0  0
 27 26  1  0  0  0  0
 28 29  1  0  0  0  0
 29 27  1  0  0  0  0
 29 31  1  0  0  0  0
 30 29  2  0  0  0  0
 33 32  1  6  0  0  0
 33 35  1  0  0  0  0
 33 34  1  0  0  0  0
 34 36  1  1  0  0  0
 35 43  1  6  0  0  0
 35 34  1  0  0  0  0
 37 39  2  0  0  0  0
 37 43  1  0  0  0  0
 38 40  2  0  0  0  0
 39 38  1  0  0  0  0
 41 40  1  0  0  0  0
 42 39  1  0  0  0  0
 43 41  2  0  0  0  0
M  END
>  <MODEL>
3

>  <REMARK>
 VINA RESULT:      -6.3      3.221      4.297
  Name = 
  10 active torsions:
  status: ('A' for Active; 'I' for Inactive)
    1  A    between atoms: C_1  and  C_21
    2  A    between atoms: N_3  and  C_17
    3  A    between atoms: C_6  and  C_38
    4  A    between atoms: C_9  and  O_20
    5  A    between atoms: C_9  and  C_35
    6  A    between atoms: P_15  and  O_20
    7  A    between atoms: N_16  and  C_26
    8  A    between atoms: C_21  and  C_35
    9  A    between atoms: C_29  and  C_41
   10  A    between atoms: C_35  and  C_38
                            x       y       z     vdW  Elec       q    Type
                         _______ _______ _______ _____ _____    ______ ____

>  <TORSDO>
F 10

$$$$
=
 OpenBabel11042422213D

 43 48  0  0  1  0  0  0  0  0999 V2000
  158.5780  213.4260  144.3470 N   0  0  0  0  0  2  0  0  0  0  0  0
  157.3840  213.8470  146.3340 N   0  0  0  0  0  0  0  0  0  0  0  0
  159.6090  213.4040  150.2670 C   0  0  0  0  0  0  0  0  0  0  0  0
  158.3140  213.7250  148.5420 C   0  0  0  0  0  0  0  0  0  0  0  0
  159.7540  213.0960  146.6220 C   0  0  2  0  0  3  0  0  0  0  0  0
  157.1490  214.0740  150.5930 C   0  0  0  0  0  3  0  0  0  0  0  0
  157.2230  213.9580  147.7570 C   0  0  0  0  0  0  0  0  0  0  0  0
  160.3430  213.1430  149.1450 N   0  0  0  0  0  0  0  0  0  0  0  0
  158.3190  213.7690  149.8950 C   0  0  0  0  0  0  0  0  0  0  0  0
  160.0310  211.7540  146.4300 F   0  0  0  0  0  0  0  0  0  0  0  0
  155.9870  214.3470  149.8250 C   0  0  0  0  0  3  0  0  0  0  0  0
  159.5210  213.3470  148.0870 C   0  0  0  0  0  0  0  0  0  0  0  0
  156.0190  214.2900  148.4030 C   0  0  0  0  0  3  0  0  0  0  0  0
  158.5230  213.4890  145.7780 C   0  0  0  0  0  0  0  0  0  0  0  0
  160.6140  214.3190  143.2700 O   0  0  0  0  0  0  0  0  0  0  0  0
  161.7490  214.1350  142.4990 N   0  0  0  0  0  2  0  0  0  0  0  0
  159.7530  213.2480  143.5510 C   0  0  0  0  0  0  0  0  0  0  0  0
  162.0520  212.8400  141.9700 C   0  0  0  0  0  3  0  0  0  0  0  0
  161.2300  211.8250  142.2310 C   0  0  0  0  0  3  0  0  0  0  0  0
  160.0280  212.0370  143.0560 C   0  0  0  0  0  3  0  0  0  0  0  0
  161.7080  212.6310  149.0990 C   0  0  0  0  0  2  0  0  0  0  0  0
  162.5850  213.5450  148.2640 C   0  0  0  0  0  1  0  0  0  0  0  0
  160.1190  213.2690  151.6750 C   0  0  0  0  0  2  0  0  0  0  0  0
  158.2180  211.7000  152.1990 C   0  0  0  0  0  1  0  0  0  0  0  0
  159.7070  211.9600  152.3750 C   0  0  2  0  0  0  0  0  0  0  0  0
  159.9990  212.0710  153.8700 C   0  0  0  0  0  2  0  0  0  0  0  0
  158.9390  211.5740  154.6350 O   0  0  0  0  0  0  0  0  0  0  0  0
  160.0290  213.4220  156.1290 O   0  0  0  0  0  0  0  0  0  0  0  0
  159.2180  212.1500  156.2040 P   0  0  0  0  0  0  0  0  0  0  0  0
  157.7400  212.4770  156.9620 O   0  0  0  0  0  1  0  0  0  0  0  0
  160.0710  210.9980  157.1040 O   0  0  0  0  0  1  0  0  0  0  0  0
  160.4620  210.7580  151.8010 C   0  0  0  0  0  2  0  0  0  0  0  0
  161.3300  210.0460  152.8440 C   0  0  1  0  0  3  0  0  0  0  0  0
  160.6880  208.7180  153.1870 C   0  0  1  0  0  3  0  0  0  0  0  0
  161.9780  208.7310  152.3830 C   0  0  1  0  0  3  0  0  0  0  0  0
  161.0020  208.3770  154.6280 C   0  0  0  0  0  1  0  0  0  0  0  0
  160.9910  207.2400  150.5990 C   0  0  0  0  0  3  0  0  0  0  0  0
  161.4230  207.6900  148.2640 C   0  0  0  0  0  3  0  0  0  0  0  0
  160.8260  206.9070  149.2540 C   0  0  0  0  0  0  0  0  0  0  0  0
  162.1830  208.7990  148.6400 C   0  0  0  0  0  3  0  0  0  0  0  0
  162.3300  209.1110  149.9570 N   0  0  0  0  0  0  0  0  0  0  0  0
  160.0940  205.8210  148.9090 F   0  0  0  0  0  0  0  0  0  0  0  0
  161.7420  208.3720  150.9400 C   0  0  0  0  0  0  0  0  0  0  0  0
  1 14  1  0  0  0  0
  2  7  1  0  0  0  0
  3 23  1  0  0  0  0
  4  9  1  0  0  0  0
  5 10  1  1  0  0  0
  5 12  1  0  0  0  0
  7 13  2  0  0  0  0
  7  4  1  0  0  0  0
  8  3  1  0  0  0  0
  9  3  2  0  0  0  0
  9  6  1  0  0  0  0
 11  6  2  0  0  0  0
 12  4  2  0  0  0  0
 12  8  1  0  0  0  0
 13 11  1  0  0  0  0
 14  2  2  0  0  0  0
 14  5  1  0  0  0  0
 15 17  1  0  0  0  0
 16 15  1  0  0  0  0
 17  1  1  0  0  0  0
 18 19  2  0  0  0  0
 18 16  1  0  0  0  0
 19 20  1  0  0  0  0
 20 17  2  0  0  0  0
 21  8  1  0  0  0  0
 22 21  1  0  0  0  0
 23 25  1  0  0  0  0
 25 24  1  6  0  0  0
 25 26  1  0  0  0  0
 26 27  1  0  0  0  0
 27 29  1  0  0  0  0
 28 29  2  0  0  0  0
 29 30  1  0  0  0  0
 29 31  1  0  0  0  0
 32 25  1  0  0  0  0
 33 32  1  6  0  0  0
 33 34  1  0  0  0  0
 34 36  1  1  0  0  0
 35 43  1  6  0  0  0
 35 33  1  0  0  0  0
 35 34  1  0  0  0  0
 37 43  1  0  0  0  0
 38 40  2  0  0  0  0
 38 39  1  0  0  0  0
 39 37  2  0  0  0  0
 40 41  1  0  0  0  0
 41 43  2  0  0  0  0
 42 39  1  0  0  0  0
M  END
>  <MODEL>
4

>  <REMARK>
 VINA RESULT:      -6.2      3.687      7.155
  Name = 
  10 active torsions:
  status: ('A' for Active; 'I' for Inactive)
    1  A    between atoms: C_1  and  C_21
    2  A    between atoms: N_3  and  C_17
    3  A    between atoms: C_6  and  C_38
    4  A    between atoms: C_9  and  O_20
    5  A    between atoms: C_9  and  C_35
    6  A    between atoms: P_15  and  O_20
    7  A    between atoms: N_16  and  C_26
    8  A    between atoms: C_21  and  C_35
    9  A    between atoms: C_29  and  C_41
   10  A    between atoms: C_35  and  C_38
                            x       y       z     vdW  Elec       q    Type
                         _______ _______ _______ _____ _____    ______ ____

>  <TORSDO>
F 10

$$$$
=
 OpenBabel11042422213D

 43 48  0  0  1  0  0  0  0  0999 V2000
  161.3860  204.9490  148.4620 N   0  0  0  0  0  2  0  0  0  0  0  0
  161.8240  207.2580  148.3030 N   0  0  0  0  0  0  0  0  0  0  0  0
  161.4170  209.7490  152.0770 C   0  0  0  0  0  0  0  0  0  0  0  0
  161.7230  208.8010  150.1370 C   0  0  0  0  0  0  0  0  0  0  0  0
  161.0750  206.4410  150.5470 C   0  0  2  0  0  3  0  0  0  0  0  0
  162.0900  211.1540  150.0320 C   0  0  0  0  0  3  0  0  0  0  0  0
  161.9480  208.5970  148.8070 C   0  0  0  0  0  0  0  0  0  0  0  0
  161.1450  208.4180  152.2200 N   0  0  0  0  0  0  0  0  0  0  0  0
  161.7790  210.0020  150.7570 C   0  0  0  0  0  0  0  0  0  0  0  0
  159.7320  206.1550  150.7110 F   0  0  0  0  0  0  0  0  0  0  0  0
  162.3560  210.9980  148.6470 C   0  0  0  0  0  3  0  0  0  0  0  0
  161.3400  207.8490  151.0060 C   0  0  0  0  0  0  0  0  0  0  0  0
  162.2860  209.7180  148.0280 C   0  0  0  0  0  3  0  0  0  0  0  0
  161.4610  206.2470  149.0650 C   0  0  0  0  0  0  0  0  0  0  0  0
  161.3870  203.6010  150.5330 O   0  0  0  0  0  0  0  0  0  0  0  0
  161.2040  202.3940  151.1850 N   0  0  0  0  0  2  0  0  0  0  0  0
  161.1990  203.7060  149.1470 C   0  0  0  0  0  0  0  0  0  0  0  0
  160.8250  201.2300  150.4430 C   0  0  0  0  0  3  0  0  0  0  0  0
  160.6550  201.3290  149.1250 C   0  0  0  0  0  3  0  0  0  0  0  0
  160.8510  202.6220  148.4470 C   0  0  0  0  0  3  0  0  0  0  0  0
  160.6330  207.7600  153.4170 C   0  0  0  0  0  2  0  0  0  0  0  0
  161.4530  206.5220  153.7290 C   0  0  0  0  0  1  0  0  0  0  0  0
  161.2940  210.7710  153.1730 C   0  0  0  0  0  2  0  0  0  0  0  0
  159.9730  212.6760  154.1610 C   0  0  0  0  0  1  0  0  0  0  0  0
  159.9210  211.4670  153.2390 C   0  0  2  0  0  0  0  0  0  0  0  0
  158.8840  210.4890  153.7910 C   0  0  0  0  0  2  0  0  0  0  0  0
  157.6040  211.0510  153.7900 O   0  0  0  0  0  0  0  0  0  0  0  0
  156.9890  212.5470  155.8440 O   0  0  0  0  0  1  0  0  0  0  0  0
  157.1430  211.1050  155.4200 P   0  0  0  0  0  0  0  0  0  0  0  0
  155.6640  210.3070  155.6220 O   0  0  0  0  0  0  0  0  0  0  0  0
  158.3210  210.3650  156.3820 O   0  0  0  0  0  1  0  0  0  0  0  0
  159.4730  211.9510  151.8580 C   0  0  0  0  0  2  0  0  0  0  0  0
  160.2150  213.2110  151.3980 C   0  0  1  0  0  3  0  0  0  0  0  0
  159.7640  213.5550  149.9940 C   0  0  1  0  0  3  0  0  0  0  0  0
  159.3340  214.4460  151.1490 C   0  0  1  0  0  3  0  0  0  0  0  0
  160.9100  214.2140  149.2570 C   0  0  0  0  0  1  0  0  0  0  0  0
  156.9290  214.0980  150.4620 C   0  0  0  0  0  3  0  0  0  0  0  0
  155.1830  214.0570  152.1320 C   0  0  0  0  0  3  0  0  0  0  0  0
  155.5790  213.9820  150.7960 C   0  0  0  0  0  0  0  0  0  0  0  0
  156.1500  214.2520  153.1190 C   0  0  0  0  0  3  0  0  0  0  0  0
  157.4630  214.3590  152.7760 N   0  0  0  0  0  0  0  0  0  0  0  0
  154.6540  213.8040  149.8230 F   0  0  0  0  0  0  0  0  0  0  0  0
  157.8770  214.2700  151.4800 C   0  0  0  0  0  0  0  0  0  0  0  0
  1 14  1  0  0  0  0
  1 17  1  0  0  0  0
  2  7  1  0  0  0  0
  2 14  2  0  0  0  0
  3  8  1  0  0  0  0
  3 23  1  0  0  0  0
  4  9  1  0  0  0  0
  4 12  2  0  0  0  0
  5 10  1  6  0  0  0
  5 12  1  0  0  0  0
  6  9  1  0  0  0  0
  7  4  1  0  0  0  0
  8 21  1  0  0  0  0
  9  3  2  0  0  0  0
 11  6  2  0  0  0  0
 12  8  1  0  0  0  0
 13 11  1  0  0  0  0
 13  7  2  0  0  0  0
 14  5  1  0  0  0  0
 15 16  1  0  0  0  0
 17 15  1  0  0  0  0
 18 16  1  0  0  0  0
 19 18  2  0  0  0  0
 20 19  1  0  0  0  0
 20 17  2  0  0  0  0
 21 22  1  0  0  0  0
 23 25  1  0  0  0  0
 25 26  1  0  0  0  0
 25 24  1  1  0  0  0
 27 26  1  0  0  0  0
 27 29  1  0  0  0  0
 29 30  2  0  0  0  0
 29 28  1  0  0  0  0
 29 31  1  0  0  0  0
 32 25  1  0  0  0  0
 33 32  1  1  0  0  0
 34 36  1  6  0  0  0
 34 35  1  0  0  0  0
 34 33  1  0  0  0  0
 35 33  1  0  0  0  0
 35 43  1  1  0  0  0
 37 39  2  0  0  0  0
 37 43  1  0  0  0  0
 38 40  2  0  0  0  0
 39 38  1  0  0  0  0
 41 40  1  0  0  0  0
 42 39  1  0  0  0  0
 43 41  2  0  0  0  0
M  END
>  <MODEL>
5

>  <REMARK>
 VINA RESULT:      -5.6      1.677      3.192
  Name = 
  10 active torsions:
  status: ('A' for Active; 'I' for Inactive)
    1  A    between atoms: C_1  and  C_21
    2  A    between atoms: N_3  and  C_17
    3  A    between atoms: C_6  and  C_38
    4  A    between atoms: C_9  and  O_20
    5  A    between atoms: C_9  and  C_35
    6  A    between atoms: P_15  and  O_20
    7  A    between atoms: N_16  and  C_26
    8  A    between atoms: C_21  and  C_35
    9  A    between atoms: C_29  and  C_41
   10  A    between atoms: C_35  and  C_38
                            x       y       z     vdW  Elec       q    Type
                         _______ _______ _______ _____ _____    ______ ____

>  <TORSDO>
F 10

$$$$
=
 OpenBabel11042422213D

 43 48  0  0  1  0  0  0  0  0999 V2000
  160.4960  202.0660  148.7490 N   0  0  0  0  0  2  0  0  0  0  0  0
  160.6800  203.1670  150.8230 N   0  0  0  0  0  0  0  0  0  0  0  0
  162.1060  207.4770  150.8050 C   0  0  0  0  0  0  0  0  0  0  0  0
  161.3700  205.4480  151.1070 C   0  0  0  0  0  0  0  0  0  0  0  0
  161.3970  204.4840  148.8200 C   0  0  2  0  0  3  0  0  0  0  0  0
  161.6380  206.6000  153.1760 C   0  0  0  0  0  3  0  0  0  0  0  0
  160.9690  204.2790  151.6860 C   0  0  0  0  0  0  0  0  0  0  0  0
  162.0240  206.8810  149.5790 N   0  0  0  0  0  0  0  0  0  0  0  0
  161.6990  206.5730  151.7820 C   0  0  0  0  0  0  0  0  0  0  0  0
  162.6240  204.1820  148.2570 F   0  0  0  0  0  0  0  0  0  0  0  0
  161.2060  205.4180  153.8310 C   0  0  0  0  0  3  0  0  0  0  0  0
  161.5670  205.6230  149.7890 C   0  0  0  0  0  0  0  0  0  0  0  0
  160.8700  204.2510  153.0880 C   0  0  0  0  0  3  0  0  0  0  0  0
  160.8310  203.2290  149.5160 C   0  0  0  0  0  0  0  0  0  0  0  0
  160.5450  203.1290  146.5200 O   0  0  0  0  0  0  0  0  0  0  0  0
  160.4580  203.0430  145.1410 N   0  0  0  0  0  2  0  0  0  0  0  0
  160.4080  201.9880  147.3230 C   0  0  0  0  0  0  0  0  0  0  0  0
  160.2190  201.7770  144.5170 C   0  0  0  0  0  3  0  0  0  0  0  0
  160.0820  200.6940  145.2810 C   0  0  0  0  0  3  0  0  0  0  0  0
  160.1800  200.8030  146.7470 C   0  0  0  0  0  3  0  0  0  0  0  0
  162.4550  207.4490  148.3070 C   0  0  0  0  0  2  0  0  0  0  0  0
  161.3580  207.3090  147.2680 C   0  0  0  0  0  1  0  0  0  0  0  0
  162.6060  208.8750  151.0470 C   0  0  0  0  0  2  0  0  0  0  0  0
  160.1350  209.2460  151.3750 C   0  0  0  0  0  1  0  0  0  0  0  0
  161.5180  209.8660  151.5050 C   0  0  2  0  0  0  0  0  0  0  0  0
  161.5680  211.1150  150.6260 C   0  0  0  0  0  2  0  0  0  0  0  0
  161.9570  210.8040  149.3200 O   0  0  0  0  0  0  0  0  0  0  0  0
  161.0580  213.2590  149.3280 O   0  0  0  0  0  1  0  0  0  0  0  0
  161.6680  212.2130  148.4240 P   0  0  0  0  0  0  0  0  0  0  0  0
  163.1260  212.8010  147.7980 O   0  0  0  0  0  1  0  0  0  0  0  0
  160.5980  211.8850  147.1540 O   0  0  0  0  0  0  0  0  0  0  0  0
  161.7130  210.2710  152.9680 C   0  0  0  0  0  2  0  0  0  0  0  0
  160.8380  211.4600  153.3800 C   0  0  1  0  0  3  0  0  0  0  0  0
  159.4280  210.9630  153.6260 C   0  0  1  0  0  3  0  0  0  0  0  0
  160.2750  211.4060  154.8090 C   0  0  1  0  0  3  0  0  0  0  0  0
  158.4510  212.0640  153.2740 C   0  0  0  0  0  1  0  0  0  0  0  0
  159.9580  209.0770  155.7320 C   0  0  0  0  0  3  0  0  0  0  0  0
  161.5800  208.1440  157.2610 C   0  0  0  0  0  3  0  0  0  0  0  0
  160.3900  208.0250  156.5410 C   0  0  0  0  0  0  0  0  0  0  0  0
  162.3210  209.3230  157.1600 C   0  0  0  0  0  3  0  0  0  0  0  0
  161.8870  210.3360  156.3620 N   0  0  0  0  0  0  0  0  0  0  0  0
  159.6520  206.8940  156.6340 F   0  0  0  0  0  0  0  0  0  0  0  0
  160.7380  210.2370  155.6360 C   0  0  0  0  0  0  0  0  0  0  0  0
  1 14  1  0  0  0  0
  2  7  1  0  0  0  0
  3 23  1  0  0  0  0
  3  9  2  0  0  0  0
  4  7  1  0  0  0  0
  4  9  1  0  0  0  0
  5 10  1  1  0  0  0
  5 14  1  0  0  0  0
  5 12  1  0  0  0  0
  6 11  2  0  0  0  0
  7 13  2  0  0  0  0
  8 12  1  0  0  0  0
  8  3  1  0  0  0  0
  9  6  1  0  0  0  0
 12  4  2  0  0  0  0
 13 11  1  0  0  0  0
 14  2  2  0  0  0  0
 15 17  1  0  0  0  0
 16 15  1  0  0  0  0
 17  1  1  0  0  0  0
 18 16  1  0  0  0  0
 18 19  2  0  0  0  0
 19 20  1  0  0  0  0
 20 17  2  0  0  0  0
 21  8  1  0  0  0  0
 22 21  1  0  0  0  0
 23 25  1  0  0  0  0
 25 24  1  6  0  0  0
 25 32  1  0  0  0  0
 26 25  1  0  0  0  0
 27 26  1  0  0  0  0
 29 27  1  0  0  0  0
 29 28  1  0  0  0  0
 30 29  1  0  0  0  0
 31 29  2  0  0  0  0
 33 32  1  1  0  0  0
 33 34  1  0  0  0  0
 33 35  1  0  0  0  0
 34 36  1  6  0  0  0
 34 35  1  0  0  0  0
 35 43  1  1  0  0  0
 37 39  1  0  0  0  0
 39 42  1  0  0  0  0
 39 38  2  0  0  0  0
 40 38  1  0  0  0  0
 41 40  2  0  0  0  0
 43 37  2  0  0  0  0
 43 41  1  0  0  0  0
M  END
>  <MODEL>
6

>  <REMARK>
 VINA RESULT:      -5.5      4.133      5.627
  Name = 
  10 active torsions:
  status: ('A' for Active; 'I' for Inactive)
    1  A    between atoms: C_1  and  C_21
    2  A    between atoms: N_3  and  C_17
    3  A    between atoms: C_6  and  C_38
    4  A    between atoms: C_9  and  O_20
    5  A    between atoms: C_9  and  C_35
    6  A    between atoms: P_15  and  O_20
    7  A    between atoms: N_16  and  C_26
    8  A    between atoms: C_21  and  C_35
    9  A    between atoms: C_29  and  C_41
   10  A    between atoms: C_35  and  C_38
                            x       y       z     vdW  Elec       q    Type
                         _______ _______ _______ _____ _____    ______ ____

>  <TORSDO>
F 10

$$$$
=
 OpenBabel11042422213D

 43 48  0  0  1  0  0  0  0  0999 V2000
  161.3630  200.7450  148.5000 N   0  0  0  0  0  2  0  0  0  0  0  0
  161.3290  202.2400  150.3200 N   0  0  0  0  0  0  0  0  0  0  0  0
  160.6180  206.6350  149.4290 C   0  0  0  0  0  0  0  0  0  0  0  0
  160.9390  204.6010  150.1460 C   0  0  0  0  0  0  0  0  0  0  0  0
  161.0640  203.2700  148.0560 C   0  0  2  0  0  3  0  0  0  0  0  0
  160.9560  206.1760  151.9360 C   0  0  0  0  0  3  0  0  0  0  0  0
  161.2050  203.5270  150.9450 C   0  0  0  0  0  0  0  0  0  0  0  0
  160.6360  205.8100  148.3400 N   0  0  0  0  0  0  0  0  0  0  0  0
  160.8160  205.8770  150.5790 C   0  0  0  0  0  0  0  0  0  0  0  0
  162.1950  203.3980  147.2710 F   0  0  0  0  0  0  0  0  0  0  0  0
  161.2120  205.0930  152.8170 C   0  0  0  0  0  3  0  0  0  0  0  0
  160.8370  204.5540  148.8070 C   0  0  0  0  0  0  0  0  0  0  0  0
  161.3370  203.7640  152.3250 C   0  0  0  0  0  3  0  0  0  0  0  0
  161.2410  202.0760  149.0170 C   0  0  0  0  0  0  0  0  0  0  0  0
  160.3690  201.1310  146.2720 O   0  0  0  0  0  0  0  0  0  0  0  0
  160.1300  200.7220  144.9710 N   0  0  0  0  0  2  0  0  0  0  0  0
  161.1100  200.3310  147.1540 C   0  0  0  0  0  0  0  0  0  0  0  0
  160.6370  199.4640  144.5130 C   0  0  0  0  0  3  0  0  0  0  0  0
  161.3350  198.7010  145.3540 C   0  0  0  0  0  3  0  0  0  0  0  0
  161.5810  199.1530  146.7340 C   0  0  0  0  0  3  0  0  0  0  0  0
  160.5680  206.2170  146.9410 C   0  0  0  0  0  2  0  0  0  0  0  0
  161.9530  206.2050  146.3210 C   0  0  0  0  0  1  0  0  0  0  0  0
  160.4560  208.1280  149.3700 C   0  0  0  0  0  2  0  0  0  0  0  0
  162.9480  208.0110  149.0150 C   0  0  0  0  0  1  0  0  0  0  0  0
  161.7830  208.9110  149.3980 C   0  0  2  0  0  0  0  0  0  0  0  0
  162.0300  209.4380  150.8110 C   0  0  0  0  0  2  0  0  0  0  0  0
  160.8440  209.5010  151.5470 O   0  0  0  0  0  0  0  0  0  0  0  0
  162.7890  210.3270  153.0860 O   0  0  0  0  0  0  0  0  0  0  0  0
  161.3040  210.0480  153.0830 P   0  0  0  0  0  0  0  0  0  0  0  0
  160.4710  211.4740  153.4550 O   0  0  0  0  0  1  0  0  0  0  0  0
  160.9570  208.8700  154.2480 O   0  0  0  0  0  1  0  0  0  0  0  0
  161.7580  210.0860  148.4180 C   0  0  0  0  0  2  0  0  0  0  0  0
  162.4760  211.3280  148.9580 C   0  0  1  0  0  3  0  0  0  0  0  0
  163.0830  212.0840  147.7940 C   0  0  1  0  0  3  0  0  0  0  0  0
  161.8870  212.6790  148.5210 C   0  0  1  0  0  3  0  0  0  0  0  0
  164.3440  212.7760  148.2610 C   0  0  0  0  0  1  0  0  0  0  0  0
  160.6870  212.2320  146.3440 C   0  0  0  0  0  3  0  0  0  0  0  0
  158.2970  212.5500  146.1870 C   0  0  0  0  0  3  0  0  0  0  0  0
  159.5110  212.2040  145.5930 C   0  0  0  0  0  0  0  0  0  0  0  0
  158.2790  212.9260  147.5310 C   0  0  0  0  0  3  0  0  0  0  0  0
  159.4350  212.9440  148.2490 N   0  0  0  0  0  0  0  0  0  0  0  0
  159.5500  211.8470  144.2870 F   0  0  0  0  0  0  0  0  0  0  0  0
  160.6300  212.5930  147.6970 C   0  0  0  0  0  0  0  0  0  0  0  0
  1 14  1  0  0  0  0
  2  7  1  0  0  0  0
  3  9  2  0  0  0  0
  4  9  1  0  0  0  0
  4  7  1  0  0  0  0
  5 10  1  1  0  0  0
  5 12  1  0  0  0  0
  5 14  1  0  0  0  0
  6 11  2  0  0  0  0
  7 13  2  0  0  0  0
  8 12  1  0  0  0  0
  8  3  1  0  0  0  0
  9  6  1  0  0  0  0
 12  4  2  0  0  0  0
 13 11  1  0  0  0  0
 14  2  2  0  0  0  0
 15 17  1  0  0  0  0
 16 15  1  0  0  0  0
 17  1  1  0  0  0  0
 18 16  1  0  0  0  0
 18 19  2  0  0  0  0
 19 20  1  0  0  0  0
 20 17  2  0  0  0  0
 21  8  1  0  0  0  0
 22 21  1  0  0  0  0
 23 25  1  0  0  0  0
 23  3  1  0  0  0  0
 25 24  1  6  0  0  0
 25 26  1  0  0  0  0
 26 27  1  0  0  0  0
 27 29  1  0  0  0  0
 29 28  2  0  0  0  0
 29 30  1  0  0  0  0
 29 31  1  0  0  0  0
 32 25  1  0  0  0  0
 33 32  1  6  0  0  0
 34 36  1  1  0  0  0
 34 35  1  0  0  0  0
 34 33  1  0  0  0  0
 35 43  1  6  0  0  0
 35 33  1  0  0  0  0
 37 43  1  0  0  0  0
 38 40  2  0  0  0  0
 39 38  1  0  0  0  0
 39 37  2  0  0  0  0
 40 41  1  0  0  0  0
 42 39  1  0  0  0  0
 43 41  2  0  0  0  0
M  END
>  <MODEL>
7

>  <REMARK>
 VINA RESULT:      -5.4      3.628      5.004
  Name = 
  10 active torsions:
  status: ('A' for Active; 'I' for Inactive)
    1  A    between atoms: C_1  and  C_21
    2  A    between atoms: N_3  and  C_17
    3  A    between atoms: C_6  and  C_38
    4  A    between atoms: C_9  and  O_20
    5  A    between atoms: C_9  and  C_35
    6  A    between atoms: P_15  and  O_20
    7  A    between atoms: N_16  and  C_26
    8  A    between atoms: C_21  and  C_35
    9  A    between atoms: C_29  and  C_41
   10  A    between atoms: C_35  and  C_38
                            x       y       z     vdW  Elec       q    Type
                         _______ _______ _______ _____ _____    ______ ____

>  <TORSDO>
F 10

$$$$
=
 OpenBabel11042422213D

 43 48  0  0  1  0  0  0  0  0999 V2000
  161.3320  205.8650  147.1840 N   0  0  0  0  0  2  0  0  0  0  0  0
  161.7530  208.1250  147.6970 N   0  0  0  0  0  0  0  0  0  0  0  0
  161.8250  209.3180  152.0770 C   0  0  0  0  0  0  0  0  0  0  0  0
  161.8850  209.0250  149.9170 C   0  0  0  0  0  0  0  0  0  0  0  0
  161.2870  206.6310  149.6490 C   0  0  2  0  0  3  0  0  0  0  0  0
  162.2430  211.3070  150.5030 C   0  0  0  0  0  3  0  0  0  0  0  0
  161.9430  209.2480  148.5730 C   0  0  0  0  0  0  0  0  0  0  0  0
  161.5690  207.9980  151.8320 N   0  0  0  0  0  0  0  0  0  0  0  0
  162.0200  209.9780  150.8680 C   0  0  0  0  0  0  0  0  0  0  0  0
  159.9740  206.2600  149.8760 F   0  0  0  0  0  0  0  0  0  0  0  0
  162.3340  211.5950  149.1160 C   0  0  0  0  0  3  0  0  0  0  0  0
  161.6100  207.8380  150.4880 C   0  0  0  0  0  0  0  0  0  0  0  0
  162.1840  210.5660  148.1450 C   0  0  0  0  0  3  0  0  0  0  0  0
  161.4850  206.9170  148.1460 C   0  0  0  0  0  0  0  0  0  0  0  0
  161.2070  203.5130  146.4380 O   0  0  0  0  0  0  0  0  0  0  0  0
  161.1070  202.1620  146.7220 N   0  0  0  0  0  2  0  0  0  0  0  0
  161.2290  204.4660  147.4670 C   0  0  0  0  0  0  0  0  0  0  0  0
  161.0190  201.7220  148.0820 C   0  0  0  0  0  3  0  0  0  0  0  0
  161.0330  202.6280  149.0580 C   0  0  0  0  0  3  0  0  0  0  0  0
  161.1420  204.0620  148.7380 C   0  0  0  0  0  3  0  0  0  0  0  0
  161.2080  206.9860  152.8180 C   0  0  0  0  0  2  0  0  0  0  0  0
  162.4220  206.1530  153.1860 C   0  0  0  0  0  1  0  0  0  0  0  0
  161.8420  209.9480  153.4420 C   0  0  0  0  0  2  0  0  0  0  0  0
  160.7330  211.8190  154.7140 C   0  0  0  0  0  1  0  0  0  0  0  0
  160.5010  210.5780  153.8650 C   0  0  2  0  0  0  0  0  0  0  0  0
  159.7080  209.5720  154.6980 C   0  0  0  0  0  2  0  0  0  0  0  0
  160.4640  208.4270  154.9690 O   0  0  0  0  0  0  0  0  0  0  0  0
  159.8230  209.5210  157.2550 O   0  0  0  0  0  1  0  0  0  0  0  0
  160.6360  208.3990  156.6550 P   0  0  0  0  0  0  0  0  0  0  0  0
  160.0770  206.9210  157.2610 O   0  0  0  0  0  1  0  0  0  0  0  0
  162.2630  208.6030  157.0760 O   0  0  0  0  0  0  0  0  0  0  0  0
  159.6700  210.9920  152.6490 C   0  0  0  0  0  2  0  0  0  0  0  0
  158.2120  211.3070  153.0020 C   0  0  1  0  0  3  0  0  0  0  0  0
  158.1640  212.6330  153.7330 C   0  0  1  0  0  3  0  0  0  0  0  0
  157.6160  212.5480  152.3160 C   0  0  1  0  0  3  0  0  0  0  0  0
  157.0120  212.6110  154.7140 C   0  0  0  0  0  1  0  0  0  0  0  0
  158.2620  213.1480  149.9500 C   0  0  0  0  0  3  0  0  0  0  0  0
  160.2780  214.4090  149.5240 C   0  0  0  0  0  3  0  0  0  0  0  0
  159.1420  213.7510  149.0510 C   0  0  0  0  0  0  0  0  0  0  0  0
  160.5180  214.4500  150.8980 C   0  0  0  0  0  3  0  0  0  0  0  0
  159.6460  213.8600  151.7610 N   0  0  0  0  0  0  0  0  0  0  0  0
  158.8980  213.6900  147.7200 F   0  0  0  0  0  0  0  0  0  0  0  0
  158.5210  213.2280  151.3240 C   0  0  0  0  0  0  0  0  0  0  0  0
  1 17  1  0  0  0  0
  1 14  1  0  0  0  0
  2 14  2  0  0  0  0
  2  7  1  0  0  0  0
  3 23  1  0  0  0  0
  4 12  2  0  0  0  0
  4  9  1  0  0  0  0
  5 10  1  6  0  0  0
  5 12  1  0  0  0  0
  6  9  1  0  0  0  0
  7  4  1  0  0  0  0
  8  3  1  0  0  0  0
  8 21  1  0  0  0  0
  9  3  2  0  0  0  0
 11  6  2  0  0  0  0
 12  8  1  0  0  0  0
 13  7  2  0  0  0  0
 13 11  1  0  0  0  0
 14  5  1  0  0  0  0
 15 16  1  0  0  0  0
 15 17  1  0  0  0  0
 16 18  1  0  0  0  0
 17 20  2  0  0  0  0
 18 19  2  0  0  0  0
 20 19  1  0  0  0  0
 21 22  1  0  0  0  0
 23 25  1  0  0  0  0
 25 26  1  0  0  0  0
 25 24  1  1  0  0  0
 26 27  1  0  0  0  0
 27 29  1  0  0  0  0
 29 31  2  0  0  0  0
 29 28  1  0  0  0  0
 29 30  1  0  0  0  0
 32 25  1  0  0  0  0
 33 32  1  6  0  0  0
 33 34  1  0  0  0  0
 34 36  1  1  0  0  0
 35 43  1  6  0  0  0
 35 33  1  0  0  0  0
 35 34  1  0  0  0  0
 37 43  1  0  0  0  0
 38 40  2  0  0  0  0
 39 38  1  0  0  0  0
 39 37  2  0  0  0  0
 40 41  1  0  0  0  0
 42 39  1  0  0  0  0
 43 41  2  0  0  0  0
M  END
>  <MODEL>
8

>  <REMARK>
 VINA RESULT:      -5.4      2.377      4.060
  Name = 
  10 active torsions:
  status: ('A' for Active; 'I' for Inactive)
    1  A    between atoms: C_1  and  C_21
    2  A    between atoms: N_3  and  C_17
    3  A    between atoms: C_6  and  C_38
    4  A    between atoms: C_9  and  O_20
    5  A    between atoms: C_9  and  C_35
    6  A    between atoms: P_15  and  O_20
    7  A    between atoms: N_16  and  C_26
    8  A    between atoms: C_21  and  C_35
    9  A    between atoms: C_29  and  C_41
   10  A    between atoms: C_35  and  C_38
                            x       y       z     vdW  Elec       q    Type
                         _______ _______ _______ _____ _____    ______ ____

>  <TORSDO>
F 10

$$$$
=
 OpenBabel11042422213D

 43 48  0  0  1  0  0  0  0  0999 V2000
  161.3120  204.8920  147.6770 N   0  0  0  0  0  2  0  0  0  0  0  0
  161.6780  207.2030  147.9480 N   0  0  0  0  0  0  0  0  0  0  0  0
  161.5530  208.8800  152.1650 C   0  0  0  0  0  0  0  0  0  0  0  0
  161.7050  208.3480  150.0560 C   0  0  0  0  0  0  0  0  0  0  0  0
  161.1550  205.9280  150.0360 C   0  0  2  0  0  3  0  0  0  0  0  0
  162.0050  210.6880  150.3950 C   0  0  0  0  0  3  0  0  0  0  0  0
  161.8150  208.4200  148.6980 C   0  0  0  0  0  0  0  0  0  0  0  0
  161.3270  207.5360  152.0610 N   0  0  0  0  0  0  0  0  0  0  0  0
  161.7880  209.4040  150.8980 C   0  0  0  0  0  0  0  0  0  0  0  0
  159.8390  205.5600  150.2520 F   0  0  0  0  0  0  0  0  0  0  0  0
  162.1490  210.8200  148.9890 C   0  0  0  0  0  3  0  0  0  0  0  0
  161.4250  207.2280  150.7450 C   0  0  0  0  0  0  0  0  0  0  0  0
  162.0540  209.6860  148.1350 C   0  0  0  0  0  3  0  0  0  0  0  0
  161.4090  206.0480  148.5190 C   0  0  0  0  0  0  0  0  0  0  0  0
  161.1440  203.2040  149.4730 O   0  0  0  0  0  0  0  0  0  0  0  0
  161.0540  201.8850  149.8820 N   0  0  0  0  0  2  0  0  0  0  0  0
  161.2180  203.5320  148.1110 C   0  0  0  0  0  0  0  0  0  0  0  0
  161.0410  200.8340  148.9110 C   0  0  0  0  0  3  0  0  0  0  0  0
  161.1190  201.1460  147.6180 C   0  0  0  0  0  3  0  0  0  0  0  0
  161.2130  202.5550  147.1990 C   0  0  0  0  0  3  0  0  0  0  0  0
  160.9410  206.6340  153.1400 C   0  0  0  0  0  2  0  0  0  0  0  0
  161.5970  205.2790  152.9530 C   0  0  0  0  0  1  0  0  0  0  0  0
  161.5050  209.6590  153.4500 C   0  0  0  0  0  2  0  0  0  0  0  0
  159.0970  209.8660  152.7380 C   0  0  0  0  0  1  0  0  0  0  0  0
  160.1500  210.3390  153.7280 C   0  0  2  0  0  0  0  0  0  0  0  0
  160.3020  211.8520  153.5790 C   0  0  0  0  0  2  0  0  0  0  0  0
  159.7960  212.2960  152.3540 O   0  0  0  0  0  0  0  0  0  0  0  0
  159.1770  214.3760  153.8130 O   0  0  0  0  0  1  0  0  0  0  0  0
  158.6230  213.4530  152.7530 P   0  0  0  0  0  0  0  0  0  0  0  0
  158.2250  214.3580  151.3800 O   0  0  0  0  0  0  0  0  0  0  0  0
  157.2350  212.6910  153.3500 O   0  0  0  0  0  1  0  0  0  0  0  0
  159.6450  210.0200  155.1370 C   0  0  0  0  0  2  0  0  0  0  0  0
  160.7740  209.9280  156.1700 C   0  0  1  0  0  3  0  0  0  0  0  0
  161.6580  211.1500  156.0350 C   0  0  1  0  0  3  0  0  0  0  0  0
  160.7670  211.0120  157.2590 C   0  0  1  0  0  3  0  0  0  0  0  0
  163.0760  210.7740  156.4060 C   0  0  0  0  0  1  0  0  0  0  0  0
  158.2850  211.4770  157.2520 C   0  0  0  0  0  3  0  0  0  0  0  0
  157.4740  213.7410  157.0130 C   0  0  0  0  0  3  0  0  0  0  0  0
  157.2210  212.3760  157.1620 C   0  0  0  0  0  0  0  0  0  0  0  0
  158.7950  214.1860  156.9540 C   0  0  0  0  0  3  0  0  0  0  0  0
  159.8200  213.2950  157.0480 N   0  0  0  0  0  0  0  0  0  0  0  0
  155.9460  211.9240  157.2100 F   0  0  0  0  0  0  0  0  0  0  0  0
  159.5990  211.9610  157.2120 C   0  0  0  0  0  0  0  0  0  0  0  0
  1 17  1  0  0  0  0
  1 14  1  0  0  0  0
  2 14  2  0  0  0  0
  2  7  1  0  0  0  0
  3 23  1  0  0  0  0
  4 12  2  0  0  0  0
  4  9  1  0  0  0  0
  5 10  1  6  0  0  0
  5 12  1  0  0  0  0
  6  9  1  0  0  0  0
  7  4  1  0  0  0  0
  8  3  1  0  0  0  0
  8 21  1  0  0  0  0
  9  3  2  0  0  0  0
 11  6  2  0  0  0  0
 12  8  1  0  0  0  0
 13  7  2  0  0  0  0
 13 11  1  0  0  0  0
 14  5  1  0  0  0  0
 15 16  1  0  0  0  0
 17 15  1  0  0  0  0
 18 16  1  0  0  0  0
 19 18  2  0  0  0  0
 20 19  1  0  0  0  0
 20 17  2  0  0  0  0
 22 21  1  0  0  0  0
 23 25  1  0  0  0  0
 25 24  1  6  0  0  0
 25 32  1  0  0  0  0
 26 25  1  0  0  0  0
 27 29  1  0  0  0  0
 27 26  1  0  0  0  0
 29 31  1  0  0  0  0
 29 28  1  0  0  0  0
 30 29  2  0  0  0  0
 33 32  1  6  0  0  0
 33 35  1  0  0  0  0
 34 33  1  0  0  0  0
 34 36  1  1  0  0  0
 34 35  1  0  0  0  0
 35 43  1  6  0  0  0
 38 39  1  0  0  0  0
 39 42  1  0  0  0  0
 39 37  2  0  0  0  0
 40 38  2  0  0  0  0
 40 41  1  0  0  0  0
 41 43  2  0  0  0  0
 43 37  1  0  0  0  0
M  END
>  <MODEL>
9

>  <REMARK>
 VINA RESULT:      -5.3      3.225      4.892
  Name = 
  10 active torsions:
  status: ('A' for Active; 'I' for Inactive)
    1  A    between atoms: C_1  and  C_21
    2  A    between atoms: N_3  and  C_17
    3  A    between atoms: C_6  and  C_38
    4  A    between atoms: C_9  and  O_20
    5  A    between atoms: C_9  and  C_35
    6  A    between atoms: P_15  and  O_20
    7  A    between atoms: N_16  and  C_26
    8  A    between atoms: C_21  and  C_35
    9  A    between atoms: C_29  and  C_41
   10  A    between atoms: C_35  and  C_38
                            x       y       z     vdW  Elec       q    Type
                         _______ _______ _______ _____ _____    ______ ____

>  <TORSDO>
F 10

$$$$
