=
 OpenBabel11052411073D

 34 35  0  0  1  0  0  0  0  0999 V2000
  161.7550  208.1150  150.4280 C   0  0  2  0  0  3  0  0  0  0  0  0
  162.1120  210.6060  150.4990 C   0  0  0  0  0  1  0  0  0  0  0  0
  162.0750  209.3230  151.3150 C   0  0  1  0  0  3  0  0  0  0  0  0
  160.4350  210.6850  152.6660 N   0  0  0  0  0  2  0  0  0  0  0  0
  161.0020  208.5040  153.3000 O   0  0  0  0  0  0  0  0  0  0  0  0
  161.1510  209.4590  152.4890 C   0  0  0  0  0  0  0  0  0  0  0  0
  159.8000  211.1070  153.8800 C   0  0  0  0  0  0  0  0  0  0  0  0
  158.7680  211.8260  153.8020 O   0  0  0  0  0  0  0  0  0  0  0  0
  162.6290  209.7130  157.2130 C   0  0  0  0  0  2  0  0  0  0  0  0
  160.3600  210.7740  155.2090 C   0  0  1  0  0  3  0  0  0  0  0  0
  161.6990  208.5260  156.9560 C   0  0  0  0  0  3  0  0  0  0  0  0
  162.7550  210.6400  156.0320 C   0  0  0  0  0  2  0  0  0  0  0  0
  159.6450  209.8740  156.1900 C   0  0  0  0  0  2  0  0  0  0  0  0
  160.4160  208.5960  156.5160 C   0  0  0  0  0  3  0  0  0  0  0  0
  161.6200  210.8990  155.4730 C   0  0  0  0  0  2  0  0  0  0  0  0
  162.6070  206.9770  150.7560 N   0  0  0  0  0  2  0  0  0  0  0  0
  163.0910  205.4850  152.5260 C   0  0  0  0  0  2  0  0  0  0  0  0
  162.1980  205.9440  151.6570 C   0  0  0  0  0  0  0  0  0  0  0  0
  160.7670  205.5880  151.7740 C   0  0  0  0  0  3  0  0  0  0  0  0
  160.1900  204.4020  151.5350 C   0  0  0  0  0  3  0  0  0  0  0  0
  161.8570  202.6160  151.5680 C   0  0  0  0  0  2  0  0  0  0  0  0
  160.8120  203.1890  150.9710 C   0  0  0  0  0  0  0  0  0  0  0  0
  161.6440  203.2570  148.6210 C   0  0  0  0  0  1  0  0  0  0  0  0
  160.1560  201.3970  149.3560 C   0  0  0  0  0  1  0  0  0  0  0  0
  160.5000  202.8650  149.5410 C   0  0  0  0  0  3  0  0  0  0  0  0
  161.9210  208.5360  148.6640 S   0  0  0  0  0  0  0  0  0  0  0  0
  161.5260  206.8420  148.1110 C   0  0  1  0  0  3  0  0  0  0  0  0
  160.1230  206.4520  148.5650 C   0  0  0  0  0  1  0  0  0  0  0  0
  161.7250  206.6940  146.6620 N   0  0  0  0  0  0  0  0  0  0  0  0
  160.8330  205.4110  144.9060 C   0  0  0  0  0  2  0  0  0  0  0  0
  162.5600  203.7400  145.1220 N   0  0  0  0  0  1  0  0  0  0  0  0
  162.5830  205.6530  146.4560 O   0  0  0  0  0  0  0  0  0  0  0  0
  160.4710  206.3730  145.9880 C   0  0  0  0  0  2  0  0  0  0  0  0
  162.2900  205.1630  145.1740 C   0  0  2  0  0  3  0  0  0  0  0  0
  1 26  1  6  0  0  0
  1 16  1  0  0  0  0
  1  3  1  0  0  0  0
  3  2  1  6  0  0  0
  3  6  1  0  0  0  0
  4  7  1  0  0  0  0
  6  4  1  0  0  0  0
  6  5  2  0  0  0  0
  8  7  2  0  0  0  0
 10  7  1  6  0  0  0
 10 15  1  0  0  0  0
 10 13  1  0  0  0  0
 11  9  1  0  0  0  0
 12  9  1  0  0  0  0
 13 14  1  0  0  0  0
 14 11  2  0  0  0  0
 15 12  1  0  0  0  0
 16 18  1  0  0  0  0
 18 19  1  0  0  0  0
 18 17  2  0  0  0  0
 20 19  2  0  0  0  0
 22 20  1  0  0  0  0
 22 21  2  0  0  0  0
 23 25  1  0  0  0  0
 24 25  1  0  0  0  0
 25 22  1  0  0  0  0
 27 28  1  6  0  0  0
 27 26  1  0  0  0  0
 29 27  1  0  0  0  0
 30 34  1  0  0  0  0
 30 33  1  0  0  0  0
 32 29  1  0  0  0  0
 33 29  1  0  0  0  0
 34 31  1  1  0  0  0
 34 32  1  0  0  0  0
M  END
>  <MODEL>
1

>  <REMARK>
 VINA RESULT:      -7.2      0.000      0.000
  Name = 
  11 active torsions:
  status: ('A' for Active; 'I' for Inactive)
    1  A    between atoms: N_1  and  C_11
    2  A    between atoms: C_3  and  C_32
    3  A    between atoms: C_4  and  C_23
    4  A    between atoms: C_11  and  S_28
    5  A    between atoms: N_16  and  C_31
    6  A    between atoms: N_16  and  C_32
    7  A    between atoms: C_19  and  C_20
    8  A    between atoms: C_20  and  C_31
    9  A    between atoms: S_28  and  C_31
   10  A    between atoms: C_30  and  C_34
   11  A    between atoms: C_33  and  C_34
                            x       y       z     vdW  Elec       q    Type
                         _______ _______ _______ _____ _____    ______ ____

>  <TORSDO>
F 11

$$$$
=
 OpenBabel11052411073D

 34 35  0  0  1  0  0  0  0  0999 V2000
  161.5540  209.4290  152.0890 C   0  0  2  0  0  3  0  0  0  0  0  0
  160.8310  207.3500  153.3110 C   0  0  0  0  0  1  0  0  0  0  0  0
  161.8550  207.9510  152.3610 C   0  0  1  0  0  3  0  0  0  0  0  0
  160.8490  207.0270  150.2390 N   0  0  0  0  0  2  0  0  0  0  0  0
  163.0630  206.5490  150.8320 O   0  0  0  0  0  0  0  0  0  0  0  0
  161.9780  207.1300  151.1120 C   0  0  0  0  0  0  0  0  0  0  0  0
  160.6790  206.0370  149.2170 C   0  0  0  0  0  0  0  0  0  0  0  0
  160.0270  206.3440  148.1830 O   0  0  0  0  0  0  0  0  0  0  0  0
  161.3630  201.5320  148.6700 C   0  0  0  0  0  2  0  0  0  0  0  0
  161.1900  204.6570  149.3760 C   0  0  1  0  0  3  0  0  0  0  0  0
  160.3970  201.6490  149.8500 C   0  0  0  0  0  3  0  0  0  0  0  0
  161.3220  202.7200  147.7440 C   0  0  0  0  0  2  0  0  0  0  0  0
  161.1970  203.9410  150.7060 C   0  0  0  0  0  2  0  0  0  0  0  0
  160.3260  202.6850  150.7250 C   0  0  0  0  0  3  0  0  0  0  0  0
  161.3040  203.8480  148.3730 C   0  0  0  0  0  2  0  0  0  0  0  0
  162.4420  209.9710  151.0670 N   0  0  0  0  0  2  0  0  0  0  0  0
  161.9510  209.8450  148.7570 C   0  0  0  0  0  2  0  0  0  0  0  0
  161.9550  210.5760  149.8650 C   0  0  0  0  0  0  0  0  0  0  0  0
  161.2550  211.8770  149.9230 C   0  0  0  0  0  3  0  0  0  0  0  0
  161.2340  212.8450  148.9960 C   0  0  0  0  0  3  0  0  0  0  0  0
  163.3360  213.0350  147.7650 C   0  0  0  0  0  2  0  0  0  0  0  0
  162.0090  212.9150  147.7430 C   0  0  0  0  0  0  0  0  0  0  0  0
  162.1580  213.2250  145.2730 C   0  0  0  0  0  1  0  0  0  0  0  0
  160.0740  212.3030  146.2830 C   0  0  0  0  0  1  0  0  0  0  0  0
  161.2510  213.2410  146.4920 C   0  0  0  0  0  3  0  0  0  0  0  0
  161.6770  210.4150  153.6150 S   0  0  0  0  0  0  0  0  0  0  0  0
  159.9260  210.9230  153.5590 C   0  0  1  0  0  3  0  0  0  0  0  0
  159.2000  210.4570  154.8180 C   0  0  0  0  0  1  0  0  0  0  0  0
  159.7960  212.3670  153.3200 N   0  0  0  0  0  0  0  0  0  0  0  0
  158.3770  214.1190  153.9840 C   0  0  0  0  0  2  0  0  0  0  0  0
  156.9890  213.8640  152.0270 N   0  0  0  0  0  1  0  0  0  0  0  0
  158.8940  212.5510  152.3120 O   0  0  0  0  0  0  0  0  0  0  0  0
  159.2830  213.0520  154.5020 C   0  0  0  0  0  2  0  0  0  0  0  0
  158.3550  213.8310  152.5110 C   0  0  2  0  0  3  0  0  0  0  0  0
  1 16  1  6  0  0  0
  1  3  1  0  0  0  0
  1 26  1  0  0  0  0
  3  2  1  1  0  0  0
  4  6  1  0  0  0  0
  5  6  2  0  0  0  0
  6  3  1  0  0  0  0
  7  4  1  0  0  0  0
  8  7  2  0  0  0  0
  9 11  1  0  0  0  0
 10  7  1  6  0  0  0
 10 13  1  0  0  0  0
 11 14  2  0  0  0  0
 12 15  1  0  0  0  0
 12  9  1  0  0  0  0
 13 14  1  0  0  0  0
 15 10  1  0  0  0  0
 17 18  2  0  0  0  0
 18 19  1  0  0  0  0
 18 16  1  0  0  0  0
 20 19  2  0  0  0  0
 22 21  2  0  0  0  0
 22 20  1  0  0  0  0
 23 25  1  0  0  0  0
 24 25  1  0  0  0  0
 25 22  1  0  0  0  0
 27 26  1  0  0  0  0
 27 28  1  1  0  0  0
 29 27  1  0  0  0  0
 29 33  1  0  0  0  0
 30 33  1  0  0  0  0
 32 34  1  0  0  0  0
 32 29  1  0  0  0  0
 34 31  1  1  0  0  0
 34 30  1  0  0  0  0
M  END
>  <MODEL>
2

>  <REMARK>
 VINA RESULT:      -7.0      2.788      8.677
  Name = 
  11 active torsions:
  status: ('A' for Active; 'I' for Inactive)
    1  A    between atoms: N_1  and  C_11
    2  A    between atoms: C_3  and  C_32
    3  A    between atoms: C_4  and  C_23
    4  A    between atoms: C_11  and  S_28
    5  A    between atoms: N_16  and  C_31
    6  A    between atoms: N_16  and  C_32
    7  A    between atoms: C_19  and  C_20
    8  A    between atoms: C_20  and  C_31
    9  A    between atoms: S_28  and  C_31
   10  A    between atoms: C_30  and  C_34
   11  A    between atoms: C_33  and  C_34
                            x       y       z     vdW  Elec       q    Type
                         _______ _______ _______ _____ _____    ______ ____

>  <TORSDO>
F 11

$$$$
=
 OpenBabel11052411073D

 34 35  0  0  1  0  0  0  0  0999 V2000
  161.2060  206.5720  151.6500 C   0  0  2  0  0  3  0  0  0  0  0  0
  161.7270  206.4260  154.1090 C   0  0  0  0  0  1  0  0  0  0  0  0
  160.8130  207.0360  153.0570 C   0  0  1  0  0  3  0  0  0  0  0  0
  161.3260  209.1360  154.3580 N   0  0  0  0  0  2  0  0  0  0  0  0
  160.2200  209.2340  152.2970 O   0  0  0  0  0  0  0  0  0  0  0  0
  160.7540  208.5280  153.1960 C   0  0  0  0  0  0  0  0  0  0  0  0
  161.0610  210.4700  154.8110 C   0  0  0  0  0  0  0  0  0  0  0  0
  161.9720  211.0920  155.4200 O   0  0  0  0  0  0  0  0  0  0  0  0
  157.7130  213.5860  154.4330 C   0  0  0  0  0  2  0  0  0  0  0  0
  159.7340  211.1030  154.6380 C   0  0  1  0  0  3  0  0  0  0  0  0
  157.6450  213.1010  155.8810 C   0  0  0  0  0  3  0  0  0  0  0  0
  159.0700  213.4040  153.8040 C   0  0  0  0  0  2  0  0  0  0  0  0
  158.5360  210.7200  155.4750 C   0  0  0  0  0  2  0  0  0  0  0  0
  157.9990  211.8680  156.3290 C   0  0  0  0  0  3  0  0  0  0  0  0
  159.5910  212.2500  154.0570 C   0  0  0  0  0  2  0  0  0  0  0  0
  161.6960  205.1980  151.6620 N   0  0  0  0  0  2  0  0  0  0  0  0
  160.0570  204.3770  150.1690 C   0  0  0  0  0  2  0  0  0  0  0  0
  160.9480  204.1080  151.1140 C   0  0  0  0  0  0  0  0  0  0  0  0
  161.3410  202.7150  151.4200 C   0  0  0  0  0  3  0  0  0  0  0  0
  161.2150  201.6330  150.6390 C   0  0  0  0  0  3  0  0  0  0  0  0
  159.2580  201.1600  149.2550 C   0  0  0  0  0  2  0  0  0  0  0  0
  160.5350  201.5320  149.3340 C   0  0  0  0  0  0  0  0  0  0  0  0
  161.5160  200.0540  147.5820 C   0  0  0  0  0  1  0  0  0  0  0  0
  160.9160  202.4090  147.0240 C   0  0  0  0  0  1  0  0  0  0  0  0
  161.4060  201.4720  148.1150 C   0  0  0  0  0  3  0  0  0  0  0  0
  162.4570  207.6780  150.9210 S   0  0  0  0  0  0  0  0  0  0  0  0
  161.5240  207.8890  149.3680 C   0  0  1  0  0  3  0  0  0  0  0  0
  162.0410  209.1030  148.6010 C   0  0  0  0  0  1  0  0  0  0  0  0
  161.5330  206.6560  148.5680 N   0  0  0  0  0  0  0  0  0  0  0  0
  162.3170  205.9510  146.4670 C   0  0  0  0  0  2  0  0  0  0  0  0
  160.1880  206.3880  145.4190 N   0  0  0  0  0  1  0  0  0  0  0  0
  160.4700  206.6970  147.7130 O   0  0  0  0  0  0  0  0  0  0  0  0
  162.7450  206.5610  147.7600 C   0  0  0  0  0  2  0  0  0  0  0  0
  160.8250  205.8890  146.6220 C   0  0  2  0  0  3  0  0  0  0  0  0
  1 26  1  1  0  0  0
  1 16  1  0  0  0  0
  1  3  1  0  0  0  0
  3  6  1  0  0  0  0
  3  2  1  1  0  0  0
  4  7  1  0  0  0  0
  5  6  2  0  0  0  0
  6  4  1  0  0  0  0
  7  8  2  0  0  0  0
  9 11  1  0  0  0  0
 10  7  1  1  0  0  0
 10 13  1  0  0  0  0
 11 14  2  0  0  0  0
 12 15  1  0  0  0  0
 12  9  1  0  0  0  0
 13 14  1  0  0  0  0
 15 10  1  0  0  0  0
 17 18  2  0  0  0  0
 18 19  1  0  0  0  0
 18 16  1  0  0  0  0
 20 19  2  0  0  0  0
 21 22  2  0  0  0  0
 22 20  1  0  0  0  0
 23 25  1  0  0  0  0
 24 25  1  0  0  0  0
 25 22  1  0  0  0  0
 27 28  1  6  0  0  0
 27 26  1  0  0  0  0
 29 27  1  0  0  0  0
 30 34  1  0  0  0  0
 30 33  1  0  0  0  0
 32 29  1  0  0  0  0
 33 29  1  0  0  0  0
 34 31  1  6  0  0  0
 34 32  1  0  0  0  0
M  END
>  <MODEL>
3

>  <REMARK>
 VINA RESULT:      -7.0      1.951      3.247
  Name = 
  11 active torsions:
  status: ('A' for Active; 'I' for Inactive)
    1  A    between atoms: N_1  and  C_11
    2  A    between atoms: C_3  and  C_32
    3  A    between atoms: C_4  and  C_23
    4  A    between atoms: C_11  and  S_28
    5  A    between atoms: N_16  and  C_31
    6  A    between atoms: N_16  and  C_32
    7  A    between atoms: C_19  and  C_20
    8  A    between atoms: C_20  and  C_31
    9  A    between atoms: S_28  and  C_31
   10  A    between atoms: C_30  and  C_34
   11  A    between atoms: C_33  and  C_34
                            x       y       z     vdW  Elec       q    Type
                         _______ _______ _______ _____ _____    ______ ____

>  <TORSDO>
F 11

$$$$
=
 OpenBabel11052411073D

 34 35  0  0  1  0  0  0  0  0999 V2000
  161.2970  208.2980  151.8090 C   0  0  2  0  0  3  0  0  0  0  0  0
  162.0520  206.2490  153.0620 C   0  0  0  0  0  1  0  0  0  0  0  0
  161.9090  206.8980  151.6940 C   0  0  1  0  0  3  0  0  0  0  0  0
  161.4660  204.6020  150.7440 N   0  0  0  0  0  2  0  0  0  0  0  0
  160.2820  206.4710  149.9800 O   0  0  0  0  0  0  0  0  0  0  0  0
  161.1650  206.0000  150.7490 C   0  0  0  0  0  0  0  0  0  0  0  0
  161.1180  203.6820  149.7010 C   0  0  0  0  0  0  0  0  0  0  0  0
  160.8860  202.4820  150.0080 O   0  0  0  0  0  0  0  0  0  0  0  0
  161.7010  203.7400  145.1500 C   0  0  0  0  0  2  0  0  0  0  0  0
  161.0890  204.0920  148.2790 C   0  0  1  0  0  3  0  0  0  0  0  0
  162.8240  204.6150  145.7070 C   0  0  0  0  0  3  0  0  0  0  0  0
  161.1810  202.7310  146.1410 C   0  0  0  0  0  2  0  0  0  0  0  0
  161.5890  205.4380  147.8100 C   0  0  0  0  0  2  0  0  0  0  0  0
  162.7750  205.3450  146.8520 C   0  0  0  0  0  3  0  0  0  0  0  0
  161.0020  203.2290  147.3180 C   0  0  0  0  0  2  0  0  0  0  0  0
  162.2030  209.3160  151.2880 N   0  0  0  0  0  2  0  0  0  0  0  0
  161.9930  209.3320  148.9330 C   0  0  0  0  0  2  0  0  0  0  0  0
  161.9530  210.0190  150.0680 C   0  0  0  0  0  0  0  0  0  0  0  0
  161.4250  211.4010  150.1060 C   0  0  0  0  0  3  0  0  0  0  0  0
  161.5050  212.3410  149.1540 C   0  0  0  0  0  3  0  0  0  0  0  0
  163.5820  212.3650  147.8670 C   0  0  0  0  0  2  0  0  0  0  0  0
  162.2520  212.2810  147.8830 C   0  0  0  0  0  0  0  0  0  0  0  0
  159.9780  212.4700  146.8800 C   0  0  0  0  0  1  0  0  0  0  0  0
  161.8530  213.8360  145.9670 C   0  0  0  0  0  1  0  0  0  0  0  0
  161.4750  212.5200  146.6240 C   0  0  0  0  0  3  0  0  0  0  0  0
  160.8490  208.6780  153.5330 S   0  0  0  0  0  0  0  0  0  0  0  0
  160.6960  210.4680  153.2130 C   0  0  1  0  0  3  0  0  0  0  0  0
  159.2480  210.8230  152.8850 C   0  0  0  0  0  1  0  0  0  0  0  0
  161.2440  211.2580  154.3250 N   0  0  0  0  0  0  0  0  0  0  0  0
  161.6150  210.9940  156.6310 C   0  0  0  0  0  2  0  0  0  0  0  0
  159.5070  212.0280  157.1860 N   0  0  0  0  0  1  0  0  0  0  0  0
  160.2040  211.8660  154.9660 O   0  0  0  0  0  0  0  0  0  0  0  0
  161.9230  210.4040  155.2940 C   0  0  0  0  0  2  0  0  0  0  0  0
  160.6400  212.0810  156.2820 C   0  0  2  0  0  3  0  0  0  0  0  0
  1 16  1  1  0  0  0
  1 26  1  0  0  0  0
  3  1  1  0  0  0  0
  3  2  1  1  0  0  0
  4  6  1  0  0  0  0
  5  6  2  0  0  0  0
  6  3  1  0  0  0  0
  7  8  2  0  0  0  0
  7  4  1  0  0  0  0
  9 11  1  0  0  0  0
  9 12  1  0  0  0  0
 10  7  1  1  0  0  0
 11 14  2  0  0  0  0
 12 15  1  0  0  0  0
 13 10  1  0  0  0  0
 14 13  1  0  0  0  0
 15 10  1  0  0  0  0
 17 18  2  0  0  0  0
 18 19  1  0  0  0  0
 18 16  1  0  0  0  0
 20 19  2  0  0  0  0
 21 22  2  0  0  0  0
 22 20  1  0  0  0  0
 24 25  1  0  0  0  0
 25 23  1  0  0  0  0
 25 22  1  0  0  0  0
 27 28  1  1  0  0  0
 27 26  1  0  0  0  0
 27 29  1  0  0  0  0
 29 32  1  0  0  0  0
 29 33  1  0  0  0  0
 32 34  1  0  0  0  0
 33 30  1  0  0  0  0
 34 30  1  0  0  0  0
 34 31  1  1  0  0  0
M  END
>  <MODEL>
4

>  <REMARK>
 VINA RESULT:      -6.5      2.691      9.233
  Name = 
  11 active torsions:
  status: ('A' for Active; 'I' for Inactive)
    1  A    between atoms: N_1  and  C_11
    2  A    between atoms: C_3  and  C_32
    3  A    between atoms: C_4  and  C_23
    4  A    between atoms: C_11  and  S_28
    5  A    between atoms: N_16  and  C_31
    6  A    between atoms: N_16  and  C_32
    7  A    between atoms: C_19  and  C_20
    8  A    between atoms: C_20  and  C_31
    9  A    between atoms: S_28  and  C_31
   10  A    between atoms: C_30  and  C_34
   11  A    between atoms: C_33  and  C_34
                            x       y       z     vdW  Elec       q    Type
                         _______ _______ _______ _____ _____    ______ ____

>  <TORSDO>
F 11

$$$$
=
 OpenBabel11052411073D

 34 35  0  0  1  0  0  0  0  0999 V2000
  161.6690  208.9200  152.2780 C   0  0  2  0  0  3  0  0  0  0  0  0
  162.3530  210.3570  150.3270 C   0  0  0  0  0  1  0  0  0  0  0  0
  161.5220  209.1640  150.7720 C   0  0  1  0  0  3  0  0  0  0  0  0
  160.8760  207.5230  148.9660 N   0  0  0  0  0  2  0  0  0  0  0  0
  162.9190  207.3330  150.0940 O   0  0  0  0  0  0  0  0  0  0  0  0
  161.8300  207.9540  149.9410 C   0  0  0  0  0  0  0  0  0  0  0  0
  160.8470  206.2300  148.3480 C   0  0  0  0  0  0  0  0  0  0  0  0
  160.4100  206.1350  147.1700 O   0  0  0  0  0  0  0  0  0  0  0  0
  161.0600  201.9050  149.8660 C   0  0  0  0  0  2  0  0  0  0  0  0
  161.2540  205.0080  149.0780 C   0  0  1  0  0  3  0  0  0  0  0  0
  160.2750  202.6650  150.9370 C   0  0  0  0  0  3  0  0  0  0  0  0
  160.9970  202.5510  148.5060 C   0  0  0  0  0  2  0  0  0  0  0  0
  161.3780  204.9640  150.5830 C   0  0  0  0  0  2  0  0  0  0  0  0
  160.4120  203.9810  151.2440 C   0  0  0  0  0  3  0  0  0  0  0  0
  161.1610  203.8310  148.5500 C   0  0  0  0  0  2  0  0  0  0  0  0
  160.6100  208.0520  152.7800 N   0  0  0  0  0  2  0  0  0  0  0  0
  161.9060  206.4290  153.9100 C   0  0  0  0  0  2  0  0  0  0  0  0
  160.8020  207.1640  153.8850 C   0  0  0  0  0  0  0  0  0  0  0  0
  159.9200  207.2570  155.0690 C   0  0  0  0  0  3  0  0  0  0  0  0
  160.0270  208.0900  156.1140 C   0  0  0  0  0  3  0  0  0  0  0  0
  162.2750  208.6020  156.9210 C   0  0  0  0  0  2  0  0  0  0  0  0
  161.1220  209.0330  156.4120 C   0  0  0  0  0  0  0  0  0  0  0  0
  159.4660  210.6920  157.2610 C   0  0  0  0  0  1  0  0  0  0  0  0
  161.8790  211.3050  157.1260 C   0  0  0  0  0  1  0  0  0  0  0  0
  160.7640  210.4850  156.4990 C   0  0  0  0  0  3  0  0  0  0  0  0
  161.6810  210.4930  153.1970 S   0  0  0  0  0  0  0  0  0  0  0  0
  160.0840  211.0370  152.5040 C   0  0  1  0  0  3  0  0  0  0  0  0
  158.9440  210.6590  153.4450 C   0  0  0  0  0  1  0  0  0  0  0  0
  160.1060  212.4680  152.1710 N   0  0  0  0  0  0  0  0  0  0  0  0
  158.5520  214.1950  151.8120 C   0  0  0  0  0  2  0  0  0  0  0  0
  158.5600  213.8350  149.4260 N   0  0  0  0  0  1  0  0  0  0  0  0
  159.9560  212.5920  150.8210 O   0  0  0  0  0  0  0  0  0  0  0  0
  158.9960  213.1730  152.8060 C   0  0  0  0  0  2  0  0  0  0  0  0
  159.3920  213.8600  150.6130 C   0  0  2  0  0  3  0  0  0  0  0  0
  1 16  1  1  0  0  0
  1 26  1  0  0  0  0
  3  2  1  6  0  0  0
  3  1  1  0  0  0  0
  4  6  1  0  0  0  0
  6  5  2  0  0  0  0
  6  3  1  0  0  0  0
  7  4  1  0  0  0  0
  8  7  2  0  0  0  0
  9 11  1  0  0  0  0
 10  7  1  1  0  0  0
 10 13  1  0  0  0  0
 11 14  2  0  0  0  0
 12 15  1  0  0  0  0
 12  9  1  0  0  0  0
 13 14  1  0  0  0  0
 15 10  1  0  0  0  0
 16 18  1  0  0  0  0
 18 17  2  0  0  0  0
 18 19  1  0  0  0  0
 19 20  2  0  0  0  0
 20 22  1  0  0  0  0
 22 25  1  0  0  0  0
 22 21  2  0  0  0  0
 25 24  1  0  0  0  0
 25 23  1  0  0  0  0
 27 26  1  0  0  0  0
 27 28  1  1  0  0  0
 29 27  1  0  0  0  0
 29 33  1  0  0  0  0
 30 33  1  0  0  0  0
 32 29  1  0  0  0  0
 34 31  1  6  0  0  0
 34 32  1  0  0  0  0
 34 30  1  0  0  0  0
M  END
>  <MODEL>
5

>  <REMARK>
 VINA RESULT:      -6.4      2.263      7.867
  Name = 
  11 active torsions:
  status: ('A' for Active; 'I' for Inactive)
    1  A    between atoms: N_1  and  C_11
    2  A    between atoms: C_3  and  C_32
    3  A    between atoms: C_4  and  C_23
    4  A    between atoms: C_11  and  S_28
    5  A    between atoms: N_16  and  C_31
    6  A    between atoms: N_16  and  C_32
    7  A    between atoms: C_19  and  C_20
    8  A    between atoms: C_20  and  C_31
    9  A    between atoms: S_28  and  C_31
   10  A    between atoms: C_30  and  C_34
   11  A    between atoms: C_33  and  C_34
                            x       y       z     vdW  Elec       q    Type
                         _______ _______ _______ _____ _____    ______ ____

>  <TORSDO>
F 11

$$$$
=
 OpenBabel11052411073D

 34 35  0  0  1  0  0  0  0  0999 V2000
  161.3480  206.6350  150.8400 C   0  0  2  0  0  3  0  0  0  0  0  0
  161.9230  204.3840  151.8100 C   0  0  0  0  0  1  0  0  0  0  0  0
  161.1270  205.6660  152.0060 C   0  0  1  0  0  3  0  0  0  0  0  0
  160.3320  206.4490  154.2690 N   0  0  0  0  0  2  0  0  0  0  0  0
  162.5860  206.6170  153.6590 O   0  0  0  0  0  0  0  0  0  0  0  0
  161.4120  206.2750  153.3470 C   0  0  0  0  0  0  0  0  0  0  0  0
  160.3530  207.3050  155.4190 C   0  0  0  0  0  0  0  0  0  0  0  0
  159.6740  206.9750  156.4280 O   0  0  0  0  0  0  0  0  0  0  0  0
  162.5790  211.0690  156.8120 C   0  0  0  0  0  2  0  0  0  0  0  0
  161.0960  208.5850  155.4240 C   0  0  1  0  0  3  0  0  0  0  0  0
  161.1510  211.5330  156.5220 C   0  0  0  0  0  3  0  0  0  0  0  0
  162.6760  209.5990  157.1290 C   0  0  0  0  0  2  0  0  0  0  0  0
  160.6080  209.8100  154.6880 C   0  0  0  0  0  2  0  0  0  0  0  0
  160.3040  210.9910  155.6090 C   0  0  0  0  0  3  0  0  0  0  0  0
  161.9750  208.8640  156.3320 C   0  0  0  0  0  2  0  0  0  0  0  0
  161.1220  208.0170  151.2500 N   0  0  0  0  0  2  0  0  0  0  0  0
  162.6580  209.7890  151.5470 C   0  0  0  0  0  2  0  0  0  0  0  0
  161.8750  209.1110  150.7180 C   0  0  0  0  0  0  0  0  0  0  0  0
  161.9600  209.3080  149.2540 C   0  0  0  0  0  3  0  0  0  0  0  0
  161.9750  210.4640  148.5770 C   0  0  0  0  0  3  0  0  0  0  0  0
  160.6810  212.1430  149.7910 C   0  0  0  0  0  2  0  0  0  0  0  0
  161.7800  211.8270  149.1070 C   0  0  0  0  0  0  0  0  0  0  0  0
  163.1410  212.5410  147.1450 C   0  0  0  0  0  1  0  0  0  0  0  0
  161.9070  214.2440  148.4840 C   0  0  0  0  0  1  0  0  0  0  0  0
  162.6370  212.9120  148.5290 C   0  0  0  0  0  3  0  0  0  0  0  0
  160.2760  206.2160  149.4280 S   0  0  0  0  0  0  0  0  0  0  0  0
  161.5550  205.1970  148.6190 C   0  0  1  0  0  3  0  0  0  0  0  0
  161.2130  203.7160  148.7550 C   0  0  0  0  0  1  0  0  0  0  0  0
  161.7680  205.6140  147.2260 N   0  0  0  0  0  0  0  0  0  0  0  0
  160.4580  206.2130  145.3690 C   0  0  0  0  0  2  0  0  0  0  0  0
  160.4880  203.9630  144.5010 N   0  0  0  0  0  1  0  0  0  0  0  0
  161.6740  204.5070  146.4340 O   0  0  0  0  0  0  0  0  0  0  0  0
  160.7400  206.5560  146.7950 C   0  0  0  0  0  2  0  0  0  0  0  0
  161.2820  204.9740  145.1700 C   0  0  2  0  0  3  0  0  0  0  0  0
  1 26  1  6  0  0  0
  1 16  1  0  0  0  0
  1  3  1  0  0  0  0
  3  2  1  6  0  0  0
  3  6  1  0  0  0  0
  4  7  1  0  0  0  0
  6  5  2  0  0  0  0
  6  4  1  0  0  0  0
  7  8  2  0  0  0  0
  9 12  1  0  0  0  0
 10  7  1  1  0  0  0
 10 15  1  0  0  0  0
 11  9  1  0  0  0  0
 13 10  1  0  0  0  0
 13 14  1  0  0  0  0
 14 11  2  0  0  0  0
 15 12  1  0  0  0  0
 18 16  1  0  0  0  0
 18 17  2  0  0  0  0
 19 18  1  0  0  0  0
 20 22  1  0  0  0  0
 20 19  2  0  0  0  0
 22 21  2  0  0  0  0
 23 25  1  0  0  0  0
 24 25  1  0  0  0  0
 25 22  1  0  0  0  0
 27 28  1  6  0  0  0
 27 26  1  0  0  0  0
 29 27  1  0  0  0  0
 30 33  1  0  0  0  0
 32 29  1  0  0  0  0
 33 29  1  0  0  0  0
 34 31  1  1  0  0  0
 34 30  1  0  0  0  0
 34 32  1  0  0  0  0
M  END
>  <MODEL>
6

>  <REMARK>
 VINA RESULT:      -6.2      2.026      5.012
  Name = 
  11 active torsions:
  status: ('A' for Active; 'I' for Inactive)
    1  A    between atoms: N_1  and  C_11
    2  A    between atoms: C_3  and  C_32
    3  A    between atoms: C_4  and  C_23
    4  A    between atoms: C_11  and  S_28
    5  A    between atoms: N_16  and  C_31
    6  A    between atoms: N_16  and  C_32
    7  A    between atoms: C_19  and  C_20
    8  A    between atoms: C_20  and  C_31
    9  A    between atoms: S_28  and  C_31
   10  A    between atoms: C_30  and  C_34
   11  A    between atoms: C_33  and  C_34
                            x       y       z     vdW  Elec       q    Type
                         _______ _______ _______ _____ _____    ______ ____

>  <TORSDO>
F 11

$$$$
=
 OpenBabel11052411073D

 34 35  0  0  1  0  0  0  0  0999 V2000
  162.0670  207.8910  150.3410 C   0  0  2  0  0  3  0  0  0  0  0  0
  162.1040  210.4090  150.3400 C   0  0  0  0  0  1  0  0  0  0  0  0
  162.2270  209.1550  151.1920 C   0  0  1  0  0  3  0  0  0  0  0  0
  160.4050  210.3230  152.4900 N   0  0  0  0  0  2  0  0  0  0  0  0
  161.2760  208.2740  153.2130 O   0  0  0  0  0  0  0  0  0  0  0  0
  161.2900  209.2060  152.3620 C   0  0  0  0  0  0  0  0  0  0  0  0
  159.7120  210.6990  153.6870 C   0  0  0  0  0  0  0  0  0  0  0  0
  158.5880  211.2590  153.5820 O   0  0  0  0  0  0  0  0  0  0  0  0
  162.6920  209.8300  157.0670 C   0  0  0  0  0  2  0  0  0  0  0  0
  160.3100  210.5050  155.0270 C   0  0  1  0  0  3  0  0  0  0  0  0
  161.9110  208.5280  156.8780 C   0  0  0  0  0  3  0  0  0  0  0  0
  162.7040  210.7030  155.8380 C   0  0  0  0  0  2  0  0  0  0  0  0
  159.7090  209.5790  156.0590 C   0  0  0  0  0  2  0  0  0  0  0  0
  160.6280  208.4220  156.4440 C   0  0  0  0  0  3  0  0  0  0  0  0
  161.5460  210.7940  155.2750 C   0  0  0  0  0  2  0  0  0  0  0  0
  161.9590  208.2180  148.9230 N   0  0  0  0  0  2  0  0  0  0  0  0
  162.8510  206.4210  147.6720 C   0  0  0  0  0  2  0  0  0  0  0  0
  161.8170  207.2170  147.9100 C   0  0  0  0  0  0  0  0  0  0  0  0
  160.4840  206.9300  147.3380 C   0  0  0  0  0  3  0  0  0  0  0  0
  160.1860  206.1360  146.2990 C   0  0  0  0  0  3  0  0  0  0  0  0
  161.2080  205.8120  144.1040 C   0  0  0  0  0  2  0  0  0  0  0  0
  161.1200  205.4530  145.3840 C   0  0  0  0  0  0  0  0  0  0  0  0
  160.8310  202.9800  145.2610 C   0  0  0  0  0  1  0  0  0  0  0  0
  163.1180  203.9530  145.4520 C   0  0  0  0  0  1  0  0  0  0  0  0
  161.6560  204.1250  145.8250 C   0  0  0  0  0  3  0  0  0  0  0  0
  160.6200  206.9220  150.8730 S   0  0  0  0  0  0  0  0  0  0  0  0
  161.5660  205.3660  150.9830 C   0  0  1  0  0  3  0  0  0  0  0  0
  162.3560  205.3190  152.2870 C   0  0  0  0  0  1  0  0  0  0  0  0
  160.6950  204.1970  150.7950 N   0  0  0  0  0  0  0  0  0  0  0  0
  160.8970  201.8550  150.8110 C   0  0  0  0  0  2  0  0  0  0  0  0
  161.2070  201.7690  148.4210 N   0  0  0  0  0  1  0  0  0  0  0  0
  160.7950  203.7980  149.4940 O   0  0  0  0  0  0  0  0  0  0  0  0
  161.1220  203.0810  151.6330 C   0  0  0  0  0  2  0  0  0  0  0  0
  160.4830  202.4300  149.4880 C   0  0  2  0  0  3  0  0  0  0  0  0
  1 16  1  6  0  0  0
  1 26  1  0  0  0  0
  1  3  1  0  0  0  0
  3  2  1  6  0  0  0
  3  6  1  0  0  0  0
  4  7  1  0  0  0  0
  6  4  1  0  0  0  0
  6  5  2  0  0  0  0
  8  7  2  0  0  0  0
 10  7  1  6  0  0  0
 10 15  1  0  0  0  0
 10 13  1  0  0  0  0
 11  9  1  0  0  0  0
 12  9  1  0  0  0  0
 13 14  1  0  0  0  0
 14 11  2  0  0  0  0
 15 12  1  0  0  0  0
 17 18  2  0  0  0  0
 18 16  1  0  0  0  0
 19 18  1  0  0  0  0
 20 19  2  0  0  0  0
 21 22  2  0  0  0  0
 22 25  1  0  0  0  0
 22 20  1  0  0  0  0
 23 25  1  0  0  0  0
 24 25  1  0  0  0  0
 26 27  1  0  0  0  0
 27 28  1  1  0  0  0
 29 27  1  0  0  0  0
 29 33  1  0  0  0  0
 30 33  1  0  0  0  0
 32 29  1  0  0  0  0
 34 31  1  6  0  0  0
 34 32  1  0  0  0  0
 34 30  1  0  0  0  0
M  END
>  <MODEL>
7

>  <REMARK>
 VINA RESULT:      -6.1      1.536      3.750
  Name = 
  11 active torsions:
  status: ('A' for Active; 'I' for Inactive)
    1  A    between atoms: N_1  and  C_11
    2  A    between atoms: C_3  and  C_32
    3  A    between atoms: C_4  and  C_23
    4  A    between atoms: C_11  and  S_28
    5  A    between atoms: N_16  and  C_31
    6  A    between atoms: N_16  and  C_32
    7  A    between atoms: C_19  and  C_20
    8  A    between atoms: C_20  and  C_31
    9  A    between atoms: S_28  and  C_31
   10  A    between atoms: C_30  and  C_34
   11  A    between atoms: C_33  and  C_34
                            x       y       z     vdW  Elec       q    Type
                         _______ _______ _______ _____ _____    ______ ____

>  <TORSDO>
F 11

$$$$
=
 OpenBabel11052411073D

 34 35  0  0  1  0  0  0  0  0999 V2000
  161.3970  208.5220  153.5250 C   0  0  2  0  0  3  0  0  0  0  0  0
  160.6650  206.2190  154.2300 C   0  0  0  0  0  1  0  0  0  0  0  0
  161.7160  207.0240  153.4810 C   0  0  1  0  0  3  0  0  0  0  0  0
  160.8240  206.5990  151.1590 N   0  0  0  0  0  2  0  0  0  0  0  0
  163.0050  205.9820  151.7440 O   0  0  0  0  0  0  0  0  0  0  0  0
  161.9060  206.4970  152.0900 C   0  0  0  0  0  0  0  0  0  0  0  0
  160.7090  205.8600  149.9360 C   0  0  0  0  0  0  0  0  0  0  0  0
  160.1110  206.3940  148.9640 O   0  0  0  0  0  0  0  0  0  0  0  0
  161.3350  201.5380  148.5270 C   0  0  0  0  0  2  0  0  0  0  0  0
  161.2150  204.4750  149.8130 C   0  0  1  0  0  3  0  0  0  0  0  0
  160.4180  201.4320  149.7460 C   0  0  0  0  0  3  0  0  0  0  0  0
  161.2660  202.8790  147.8420 C   0  0  0  0  0  2  0  0  0  0  0  0
  161.2690  203.5220  150.9840 C   0  0  0  0  0  2  0  0  0  0  0  0
  160.3900  202.2860  150.8020 C   0  0  0  0  0  3  0  0  0  0  0  0
  161.2820  203.8680  148.6720 C   0  0  0  0  0  2  0  0  0  0  0  0
  160.6580  208.8710  154.7330 N   0  0  0  0  0  2  0  0  0  0  0  0
  162.2280  210.5060  155.4070 C   0  0  0  0  0  2  0  0  0  0  0  0
  161.1820  209.7550  155.7290 C   0  0  0  0  0  0  0  0  0  0  0  0
  160.4250  209.9940  156.9770 C   0  0  0  0  0  3  0  0  0  0  0  0
  159.5080  210.9430  157.2170 C   0  0  0  0  0  3  0  0  0  0  0  0
  159.9420  213.0940  156.1440 C   0  0  0  0  0  2  0  0  0  0  0  0
  159.1180  212.0660  156.3440 C   0  0  0  0  0  0  0  0  0  0  0  0
  157.1070  210.9290  155.4060 C   0  0  0  0  0  1  0  0  0  0  0  0
  156.8470  212.5950  157.2430 C   0  0  0  0  0  1  0  0  0  0  0  0
  157.6610  212.2030  156.0220 C   0  0  0  0  0  3  0  0  0  0  0  0
  160.4650  209.0370  152.0480 S   0  0  0  0  0  0  0  0  0  0  0  0
  161.4580  210.5480  151.8130 C   0  0  1  0  0  3  0  0  0  0  0  0
  162.0090  210.6020  150.3900 C   0  0  0  0  0  1  0  0  0  0  0  0
  160.6980  211.7500  152.1820 N   0  0  0  0  0  0  0  0  0  0  0  0
  158.4610  212.4700  152.1560 C   0  0  0  0  0  2  0  0  0  0  0  0
  158.7260  213.5290  150.0050 N   0  0  0  0  0  1  0  0  0  0  0  0
  160.5390  212.5120  151.0600 O   0  0  0  0  0  0  0  0  0  0  0  0
  159.3680  211.4030  152.6720 C   0  0  0  0  0  2  0  0  0  0  0  0
  159.3760  213.2680  151.2740 C   0  0  2  0  0  3  0  0  0  0  0  0
  1 26  1  6  0  0  0
  1 16  1  0  0  0  0
  3  1  1  0  0  0  0
  3  2  1  6  0  0  0
  4  6  1  0  0  0  0
  5  6  2  0  0  0  0
  6  3  1  0  0  0  0
  7  4  1  0  0  0  0
  8  7  2  0  0  0  0
  9 11  1  0  0  0  0
 10  7  1  6  0  0  0
 10 13  1  0  0  0  0
 11 14  2  0  0  0  0
 12  9  1  0  0  0  0
 12 15  1  0  0  0  0
 14 13  1  0  0  0  0
 15 10  1  0  0  0  0
 16 18  1  0  0  0  0
 17 18  2  0  0  0  0
 18 19  1  0  0  0  0
 19 20  2  0  0  0  0
 21 22  2  0  0  0  0
 22 20  1  0  0  0  0
 23 25  1  0  0  0  0
 25 22  1  0  0  0  0
 25 24  1  0  0  0  0
 27 28  1  6  0  0  0
 27 26  1  0  0  0  0
 27 29  1  0  0  0  0
 29 33  1  0  0  0  0
 30 33  1  0  0  0  0
 32 34  1  0  0  0  0
 32 29  1  0  0  0  0
 34 31  1  6  0  0  0
 34 30  1  0  0  0  0
M  END
>  <MODEL>
8

>  <REMARK>
 VINA RESULT:      -6.1      2.495      8.434
  Name = 
  11 active torsions:
  status: ('A' for Active; 'I' for Inactive)
    1  A    between atoms: N_1  and  C_11
    2  A    between atoms: C_3  and  C_32
    3  A    between atoms: C_4  and  C_23
    4  A    between atoms: C_11  and  S_28
    5  A    between atoms: N_16  and  C_31
    6  A    between atoms: N_16  and  C_32
    7  A    between atoms: C_19  and  C_20
    8  A    between atoms: C_20  and  C_31
    9  A    between atoms: S_28  and  C_31
   10  A    between atoms: C_30  and  C_34
   11  A    between atoms: C_33  and  C_34
                            x       y       z     vdW  Elec       q    Type
                         _______ _______ _______ _____ _____    ______ ____

>  <TORSDO>
F 11

$$$$
=
 OpenBabel11052411073D

 34 35  0  0  1  0  0  0  0  0999 V2000
  161.0700  206.6870  150.9690 C   0  0  2  0  0  3  0  0  0  0  0  0
  161.1390  204.3640  151.9380 C   0  0  0  0  0  1  0  0  0  0  0  0
  161.5170  205.2370  150.7520 C   0  0  1  0  0  3  0  0  0  0  0  0
  161.0630  203.2270  149.2950 N   0  0  0  0  0  2  0  0  0  0  0  0
  160.5460  205.3900  148.5610 O   0  0  0  0  0  0  0  0  0  0  0  0
  161.0140  204.6470  149.4680 C   0  0  0  0  0  0  0  0  0  0  0  0
  160.9550  202.5400  148.0410 C   0  0  0  0  0  0  0  0  0  0  0  0
  160.4350  201.3920  148.0260 O   0  0  0  0  0  0  0  0  0  0  0  0
  162.7000  205.4610  144.9620 C   0  0  0  0  0  2  0  0  0  0  0  0
  161.4930  203.1160  146.7880 C   0  0  1  0  0  3  0  0  0  0  0  0
  161.1980  205.4280  144.6740 C   0  0  0  0  0  3  0  0  0  0  0  0
  163.0470  205.0780  146.3770 C   0  0  0  0  0  2  0  0  0  0  0  0
  160.7610  203.0200  145.4700 C   0  0  0  0  0  2  0  0  0  0  0  0
  160.3650  204.3780  144.8940 C   0  0  0  0  0  3  0  0  0  0  0  0
  162.3960  204.0420  146.7910 C   0  0  0  0  0  2  0  0  0  0  0  0
  161.0390  207.4260  149.7120 N   0  0  0  0  0  2  0  0  0  0  0  0
  162.5980  208.4420  148.2520 C   0  0  0  0  0  2  0  0  0  0  0  0
  161.9600  208.4800  149.4150 C   0  0  0  0  0  0  0  0  0  0  0  0
  162.0000  209.6880  150.2690 C   0  0  0  0  0  3  0  0  0  0  0  0
  161.9530  210.9710  149.8850 C   0  0  0  0  0  3  0  0  0  0  0  0
  163.1330  211.8290  147.9250 C   0  0  0  0  0  2  0  0  0  0  0  0
  161.9800  211.5070  148.5100 C   0  0  0  0  0  0  0  0  0  0  0  0
  160.2940  213.3400  148.6330 C   0  0  0  0  0  1  0  0  0  0  0  0
  160.7520  212.2200  146.4530 C   0  0  0  0  0  1  0  0  0  0  0  0
  160.6900  212.0360  147.9600 C   0  0  0  0  0  3  0  0  0  0  0  0
  162.1490  207.5320  152.1680 S   0  0  0  0  0  0  0  0  0  0  0  0
  160.7710  207.9190  153.3000 C   0  0  1  0  0  3  0  0  0  0  0  0
  160.7550  206.9370  154.4680 C   0  0  0  0  0  1  0  0  0  0  0  0
  160.8120  209.3240  153.7300 N   0  0  0  0  0  0  0  0  0  0  0  0
  159.5950  210.7440  155.1540 C   0  0  0  0  0  2  0  0  0  0  0  0
  158.2160  211.5380  153.3410 N   0  0  0  0  0  1  0  0  0  0  0  0
  159.9530  210.0340  152.9430 O   0  0  0  0  0  0  0  0  0  0  0  0
  160.3640  209.4650  155.1120 C   0  0  0  0  0  2  0  0  0  0  0  0
  159.5620  211.1440  153.7070 C   0  0  2  0  0  3  0  0  0  0  0  0
  1 16  1  6  0  0  0
  1 26  1  0  0  0  0
  3  1  1  0  0  0  0
  3  2  1  1  0  0  0
  4  6  1  0  0  0  0
  5  6  2  0  0  0  0
  6  3  1  0  0  0  0
  7  4  1  0  0  0  0
  8  7  2  0  0  0  0
  9 12  1  0  0  0  0
 10 15  1  0  0  0  0
 10  7  1  1  0  0  0
 11 14  2  0  0  0  0
 11  9  1  0  0  0  0
 12 15  1  0  0  0  0
 13 10  1  0  0  0  0
 14 13  1  0  0  0  0
 17 18  2  0  0  0  0
 18 16  1  0  0  0  0
 18 19  1  0  0  0  0
 20 19  2  0  0  0  0
 21 22  2  0  0  0  0
 22 20  1  0  0  0  0
 24 25  1  0  0  0  0
 25 22  1  0  0  0  0
 25 23  1  0  0  0  0
 26 27  1  0  0  0  0
 27 29  1  0  0  0  0
 27 28  1  1  0  0  0
 29 33  1  0  0  0  0
 32 34  1  0  0  0  0
 32 29  1  0  0  0  0
 33 30  1  0  0  0  0
 34 31  1  6  0  0  0
 34 30  1  0  0  0  0
M  END
>  <MODEL>
9

>  <REMARK>
 VINA RESULT:      -6.1      2.346      9.026
  Name = 
  11 active torsions:
  status: ('A' for Active; 'I' for Inactive)
    1  A    between atoms: N_1  and  C_11
    2  A    between atoms: C_3  and  C_32
    3  A    between atoms: C_4  and  C_23
    4  A    between atoms: C_11  and  S_28
    5  A    between atoms: N_16  and  C_31
    6  A    between atoms: N_16  and  C_32
    7  A    between atoms: C_19  and  C_20
    8  A    between atoms: C_20  and  C_31
    9  A    between atoms: S_28  and  C_31
   10  A    between atoms: C_30  and  C_34
   11  A    between atoms: C_33  and  C_34
                            x       y       z     vdW  Elec       q    Type
                         _______ _______ _______ _____ _____    ______ ____

>  <TORSDO>
F 11

$$$$
