=
 OpenBabel11042420143D

 25 29  0  0  1  0  0  0  0  0999 V2000
  160.7880  206.8940  152.3240 N   0  0  0  0  0  0  0  0  0  0  0  0
  161.9820  207.1550  149.7830 C   0  0  0  0  0  2  0  0  0  0  0  0
  160.9380  208.1000  151.8810 C   0  0  0  0  0  0  0  0  0  0  0  0
  161.3860  208.3820  150.4660 C   0  0  0  0  0  2  0  0  0  0  0  0
  161.2100  205.7130  151.5950 C   0  0  0  0  0  2  0  0  0  0  0  0
  161.1240  205.9280  150.0820 C   0  0  2  0  0  3  0  0  0  0  0  0
  161.6180  204.7490  149.3570 N   0  0  2  0  0  0  0  0  0  0  0  0
  160.7920  203.3630  145.3900 C   0  0  0  0  0  0  0  0  0  0  0  0
  161.5590  202.9170  146.6070 C   0  0  2  0  0  3  0  0  0  0  0  0
  161.2500  204.8740  147.9550 C   0  0  1  0  0  3  0  0  0  0  0  0
  161.4360  205.7330  145.6380 C   0  0  0  0  0  3  0  0  0  0  0  0
  160.6720  202.1680  147.6400 C   0  0  0  0  0  2  0  0  0  0  0  0
  161.2070  202.2440  149.0950 C   0  0  0  0  0  2  0  0  0  0  0  0
  162.1690  205.5250  146.9410 C   0  0  2  0  0  3  0  0  0  0  0  0
  162.3390  204.0530  147.2650 C   0  0  2  0  0  3  0  0  0  0  0  0
  160.8140  204.7670  144.9490 C   0  0  0  0  0  3  0  0  0  0  0  0
  160.8450  203.5720  149.8190 C   0  0  0  0  0  2  0  0  0  0  0  0
  160.1520  202.5160  144.7130 O   0  0  0  0  0  0  0  0  0  0  0  0
  160.4470  209.2410  152.7120 C   0  0  0  0  0  2  0  0  0  0  0  0
  160.2450  207.8630  155.3400 O   0  0  0  0  0  0  0  0  0  0  0  0
  162.2340  210.4860  154.0930 C   0  0  0  0  0  3  0  0  0  0  0  0
  161.8420  209.3520  156.1340 O   0  0  0  0  0  0  0  0  0  0  0  0
  162.6370  210.3950  155.5800 C   0  0  0  0  0  3  0  0  0  0  0  0
  161.2830  209.4060  153.8910 N   0  0  0  0  0  0  0  0  0  0  0  0
  161.0660  208.7980  155.1440 C   0  0  0  0  0  0  0  0  0  0  0  0
  2  4  1  0  0  0  0
  3  1  2  0  0  0  0
  3 19  1  0  0  0  0
  4  3  1  0  0  0  0
  5  1  1  0  0  0  0
  6  2  1  1  0  0  0
  6  5  1  0  0  0  0
  7 17  1  1  0  0  0
  7  6  1  0  0  0  0
  8  9  1  0  0  0  0
  9 15  1  0  0  0  0
  9 12  1  1  0  0  0
 10  7  1  0  0  0  0
 11 14  1  0  0  0  0
 12 13  1  0  0  0  0
 13 17  1  0  0  0  0
 14 15  1  0  0  0  0
 14 10  1  0  0  0  0
 15 10  1  0  0  0  0
 16  8  1  0  0  0  0
 16 11  2  0  0  0  0
 18  8  2  0  0  0  0
 19 24  1  0  0  0  0
 21 23  2  0  0  0  0
 23 22  1  0  0  0  0
 24 21  1  0  0  0  0
 24 25  1  0  0  0  0
 25 20  2  0  0  0  0
 25 22  1  0  0  0  0
M  END
>  <MODEL>
1

>  <REMARK>
 VINA RESULT:      -8.2      0.000      0.000
  Name = 
  3 active torsions:
  status: ('A' for Active; 'I' for Inactive)
    1  A    between atoms: N_1  and  C_24
    2  A    between atoms: C_16  and  C_19
    3  A    between atoms: N_18  and  C_19
                            x       y       z     vdW  Elec       q    Type
                         _______ _______ _______ _____ _____    ______ ____

>  <TORSDO>
F 3

$$$$
=
 OpenBabel11042420143D

 25 29  0  0  1  0  0  0  0  0999 V2000
  161.1640  209.2580  153.7340 N   0  0  0  0  0  0  0  0  0  0  0  0
  160.8540  206.6800  152.6360 C   0  0  0  0  0  2  0  0  0  0  0  0
  161.2500  208.2670  154.5610 C   0  0  0  0  0  0  0  0  0  0  0  0
  161.2930  206.8320  154.0880 C   0  0  0  0  0  2  0  0  0  0  0  0
  160.9070  209.0990  152.3150 C   0  0  0  0  0  2  0  0  0  0  0  0
  161.4820  207.7820  151.7860 C   0  0  2  0  0  3  0  0  0  0  0  0
  161.1570  207.6030  150.3640 N   0  0  2  0  0  0  0  0  0  0  0  0
  161.7290  204.2440  147.7710 C   0  0  0  0  0  0  0  0  0  0  0  0
  161.2400  205.6650  147.6890 C   0  0  2  0  0  3  0  0  0  0  0  0
  161.3040  206.1970  150.0240 C   0  0  1  0  0  3  0  0  0  0  0  0
  160.6380  203.8110  149.9430 C   0  0  0  0  0  3  0  0  0  0  0  0
  162.3920  206.6920  147.5090 C   0  0  0  0  0  2  0  0  0  0  0  0
  162.0490  208.1140  148.0280 C   0  0  0  0  0  2  0  0  0  0  0  0
  160.1430  205.2260  150.1150 C   0  0  2  0  0  3  0  0  0  0  0  0
  160.3310  206.0480  148.8550 C   0  0  2  0  0  3  0  0  0  0  0  0
  161.3540  203.3740  148.8980 C   0  0  0  0  0  3  0  0  0  0  0  0
  162.2140  208.2680  149.5670 C   0  0  0  0  0  2  0  0  0  0  0  0
  162.4390  203.7740  146.8430 O   0  0  0  0  0  0  0  0  0  0  0  0
  161.5360  208.5500  156.0000 C   0  0  0  0  0  2  0  0  0  0  0  0
  163.2780  210.8960  156.5530 O   0  0  0  0  0  0  0  0  0  0  0  0
  159.8090  210.3230  156.7260 C   0  0  0  0  0  3  0  0  0  0  0  0
  161.3680  212.0340  157.2240 O   0  0  0  0  0  0  0  0  0  0  0  0
  159.9710  211.7620  157.2610 C   0  0  0  0  0  3  0  0  0  0  0  0
  161.1480  209.9110  156.3360 N   0  0  0  0  0  0  0  0  0  0  0  0
  162.0280  210.9530  156.6920 C   0  0  0  0  0  0  0  0  0  0  0  0
  1  3  2  0  0  0  0
  2  4  1  0  0  0  0
  3 19  1  0  0  0  0
  4  3  1  0  0  0  0
  5  1  1  0  0  0  0
  6  5  1  1  0  0  0
  6  2  1  0  0  0  0
  7 17  1  6  0  0  0
  7  6  1  0  0  0  0
  8 16  1  0  0  0  0
  9 12  1  1  0  0  0
  9  8  1  0  0  0  0
  9 15  1  0  0  0  0
 10 14  1  0  0  0  0
 10  7  1  0  0  0  0
 11 14  1  0  0  0  0
 12 13  1  0  0  0  0
 13 17  1  0  0  0  0
 15 10  1  0  0  0  0
 15 14  1  0  0  0  0
 16 11  2  0  0  0  0
 18  8  2  0  0  0  0
 19 24  1  0  0  0  0
 20 25  2  0  0  0  0
 21 23  2  0  0  0  0
 22 23  1  0  0  0  0
 24 25  1  0  0  0  0
 24 21  1  0  0  0  0
 25 22  1  0  0  0  0
M  END
>  <MODEL>
2

>  <REMARK>
 VINA RESULT:      -7.9      1.952      3.637
  Name = 
  3 active torsions:
  status: ('A' for Active; 'I' for Inactive)
    1  A    between atoms: N_1  and  C_24
    2  A    between atoms: C_16  and  C_19
    3  A    between atoms: N_18  and  C_19
                            x       y       z     vdW  Elec       q    Type
                         _______ _______ _______ _____ _____    ______ ____

>  <TORSDO>
F 3

$$$$
=
 OpenBabel11042420143D

 25 29  0  0  1  0  0  0  0  0999 V2000
  160.8320  207.5710  151.8540 N   0  0  0  0  0  0  0  0  0  0  0  0
  162.4260  207.3740  149.5380 C   0  0  0  0  0  2  0  0  0  0  0  0
  161.2730  208.6840  151.3640 C   0  0  0  0  0  0  0  0  0  0  0  0
  161.9760  208.7470  150.0280 C   0  0  0  0  0  2  0  0  0  0  0  0
  161.1290  206.2700  151.2860 C   0  0  0  0  0  2  0  0  0  0  0  0
  161.3170  206.3510  149.7690 C   0  0  2  0  0  3  0  0  0  0  0  0
  161.6830  205.0400  149.2160 N   0  0  2  0  0  0  0  0  0  0  0  0
  160.8020  203.2660  145.4200 C   0  0  0  0  0  0  0  0  0  0  0  0
  161.4760  202.8920  146.7120 C   0  0  2  0  0  3  0  0  0  0  0  0
  161.3700  205.0270  147.7960 C   0  0  1  0  0  3  0  0  0  0  0  0
  161.7200  205.5560  145.4000 C   0  0  0  0  0  3  0  0  0  0  0  0
  160.4780  202.3890  147.7930 C   0  0  0  0  0  2  0  0  0  0  0  0
  160.9800  202.5870  149.2480 C   0  0  0  0  0  2  0  0  0  0  0  0
  162.3880  205.4320  146.7480 C   0  0  2  0  0  3  0  0  0  0  0  0
  162.3700  204.0040  147.2580 C   0  0  2  0  0  3  0  0  0  0  0  0
  161.0050  204.5900  144.8100 C   0  0  0  0  0  3  0  0  0  0  0  0
  160.7620  204.0300  149.7870 C   0  0  0  0  0  2  0  0  0  0  0  0
  160.0820  202.4200  144.8260 O   0  0  0  0  0  0  0  0  0  0  0  0
  160.8860  209.9680  152.0240 C   0  0  0  0  0  2  0  0  0  0  0  0
  158.6380  211.1030  153.6070 O   0  0  0  0  0  0  0  0  0  0  0  0
  161.4230  209.0990  154.3930 C   0  0  0  0  0  3  0  0  0  0  0  0
  159.6300  210.1840  155.4950 O   0  0  0  0  0  0  0  0  0  0  0  0
  160.7600  209.3590  155.7620 C   0  0  0  0  0  3  0  0  0  0  0  0
  160.5510  209.7390  153.4220 N   0  0  0  0  0  0  0  0  0  0  0  0
  159.5310  210.3940  154.1410 C   0  0  0  0  0  0  0  0  0  0  0  0
  2  4  1  0  0  0  0
  3  1  2  0  0  0  0
  3 19  1  0  0  0  0
  4  3  1  0  0  0  0
  5  1  1  0  0  0  0
  6  2  1  1  0  0  0
  6  5  1  0  0  0  0
  7  6  1  0  0  0  0
  7 17  1  1  0  0  0
  8  9  1  0  0  0  0
  9 15  1  0  0  0  0
  9 12  1  1  0  0  0
 10  7  1  0  0  0  0
 11 14  1  0  0  0  0
 12 13  1  0  0  0  0
 13 17  1  0  0  0  0
 14 15  1  0  0  0  0
 14 10  1  0  0  0  0
 15 10  1  0  0  0  0
 16 11  2  0  0  0  0
 16  8  1  0  0  0  0
 18  8  2  0  0  0  0
 19 24  1  0  0  0  0
 20 25  2  0  0  0  0
 21 23  2  0  0  0  0
 22 23  1  0  0  0  0
 24 25  1  0  0  0  0
 24 21  1  0  0  0  0
 25 22  1  0  0  0  0
M  END
>  <MODEL>
3

>  <REMARK>
 VINA RESULT:      -7.7      1.165      1.289
  Name = 
  3 active torsions:
  status: ('A' for Active; 'I' for Inactive)
    1  A    between atoms: N_1  and  C_24
    2  A    between atoms: C_16  and  C_19
    3  A    between atoms: N_18  and  C_19
                            x       y       z     vdW  Elec       q    Type
                         _______ _______ _______ _____ _____    ______ ____

>  <TORSDO>
F 3

$$$$
=
 OpenBabel11042420143D

 25 29  0  0  1  0  0  0  0  0999 V2000
  160.1400  210.7750  155.0480 N   0  0  0  0  0  0  0  0  0  0  0  0
  161.2840  210.3690  152.5030 C   0  0  0  0  0  2  0  0  0  0  0  0
  160.0550  211.7610  154.2160 C   0  0  0  0  0  0  0  0  0  0  0  0
  160.4530  211.6200  152.7650 C   0  0  0  0  0  2  0  0  0  0  0  0
  160.7930  209.5170  154.7380 C   0  0  0  0  0  2  0  0  0  0  0  0
  160.6800  209.1800  153.2480 C   0  0  2  0  0  3  0  0  0  0  0  0
  161.4030  207.9390  152.9360 N   0  0  2  0  0  0  0  0  0  0  0  0
  160.9950  205.2220  149.6520 C   0  0  0  0  0  0  0  0  0  0  0  0
  161.7770  205.3380  150.9320 C   0  0  2  0  0  3  0  0  0  0  0  0
  161.0750  207.5370  151.5780 C   0  0  1  0  0  3  0  0  0  0  0  0
  161.2010  207.6200  149.1040 C   0  0  0  0  0  3  0  0  0  0  0  0
  160.9950  204.8160  152.1700 C   0  0  0  0  0  2  0  0  0  0  0  0
  161.4490  205.4530  153.5110 C   0  0  0  0  0  2  0  0  0  0  0  0
  161.9070  207.9780  150.3890 C   0  0  2  0  0  3  0  0  0  0  0  0
  162.3180  206.7460  151.1710 C   0  0  2  0  0  3  0  0  0  0  0  0
  160.7870  206.3880  148.7780 C   0  0  0  0  0  3  0  0  0  0  0  0
  160.8300  206.8560  153.7700 C   0  0  0  0  0  2  0  0  0  0  0  0
  160.5410  204.1010  149.2990 O   0  0  0  0  0  0  0  0  0  0  0  0
  159.3430  213.0050  154.6390 C   0  0  0  0  0  2  0  0  0  0  0  0
  157.4700  213.6320  152.4150 O   0  0  0  0  0  0  0  0  0  0  0  0
  157.0570  212.5010  155.7230 C   0  0  0  0  0  3  0  0  0  0  0  0
  155.7290  213.1610  153.8770 O   0  0  0  0  0  0  0  0  0  0  0  0
  155.6110  212.6860  155.2150 C   0  0  0  0  0  3  0  0  0  0  0  0
  157.9020  212.8090  154.5810 N   0  0  0  0  0  0  0  0  0  0  0  0
  157.0570  213.2280  153.5340 C   0  0  0  0  0  0  0  0  0  0  0  0
  2  4  1  0  0  0  0
  3 19  1  0  0  0  0
  3  1  2  0  0  0  0
  4  3  1  0  0  0  0
  5  1  1  0  0  0  0
  6  2  1  6  0  0  0
  6  5  1  0  0  0  0
  7  6  1  0  0  0  0
  7 17  1  1  0  0  0
  8  9  1  0  0  0  0
  9 15  1  0  0  0  0
  9 12  1  1  0  0  0
 10  7  1  0  0  0  0
 11 14  1  0  0  0  0
 12 13  1  0  0  0  0
 13 17  1  0  0  0  0
 14 15  1  0  0  0  0
 14 10  1  0  0  0  0
 15 10  1  0  0  0  0
 16 11  2  0  0  0  0
 16  8  1  0  0  0  0
 18  8  2  0  0  0  0
 20 25  2  0  0  0  0
 22 23  1  0  0  0  0
 23 21  2  0  0  0  0
 24 19  1  0  0  0  0
 24 21  1  0  0  0  0
 25 22  1  0  0  0  0
 25 24  1  0  0  0  0
M  END
>  <MODEL>
4

>  <REMARK>
 VINA RESULT:      -7.5      3.474      5.173
  Name = 
  3 active torsions:
  status: ('A' for Active; 'I' for Inactive)
    1  A    between atoms: N_1  and  C_24
    2  A    between atoms: C_16  and  C_19
    3  A    between atoms: N_18  and  C_19
                            x       y       z     vdW  Elec       q    Type
                         _______ _______ _______ _____ _____    ______ ____

>  <TORSDO>
F 3

$$$$
=
 OpenBabel11042420143D

 25 29  0  0  1  0  0  0  0  0999 V2000
  160.9300  205.7600  149.4090 N   0  0  0  0  0  0  0  0  0  0  0  0
  162.1050  205.5840  151.9660 C   0  0  0  0  0  2  0  0  0  0  0  0
  161.2060  204.5700  149.8330 C   0  0  0  0  0  0  0  0  0  0  0  0
  161.6590  204.3120  151.2520 C   0  0  0  0  0  2  0  0  0  0  0  0
  161.2070  206.9660  150.1650 C   0  0  0  0  0  2  0  0  0  0  0  0
  161.1200  206.7140  151.6730 C   0  0  2  0  0  3  0  0  0  0  0  0
  161.4690  207.9260  152.4270 N   0  0  2  0  0  0  0  0  0  0  0  0
  159.5980  209.7320  155.8290 C   0  0  0  0  0  0  0  0  0  0  0  0
  160.7320  210.0140  154.8810 C   0  0  2  0  0  3  0  0  0  0  0  0
  160.6830  207.9580  153.6500 C   0  0  1  0  0  3  0  0  0  0  0  0
  160.0830  207.3160  155.9670 C   0  0  0  0  0  3  0  0  0  0  0  0
  160.2690  210.7110  153.5710 C   0  0  0  0  0  2  0  0  0  0  0  0
  161.2120  210.4650  152.3640 C   0  0  0  0  0  2  0  0  0  0  0  0
  161.1920  207.3550  154.9450 C   0  0  2  0  0  3  0  0  0  0  0  0
  161.5760  208.7770  154.5820 C   0  0  2  0  0  3  0  0  0  0  0  0
  159.3650  208.3780  156.3570 C   0  0  0  0  0  3  0  0  0  0  0  0
  160.9760  209.0960  151.6630 C   0  0  0  0  0  2  0  0  0  0  0  0
  158.8560  210.6760  156.2100 O   0  0  0  0  0  0  0  0  0  0  0  0
  160.8580  203.3970  148.9750 C   0  0  0  0  0  2  0  0  0  0  0  0
  160.4560  201.6640  146.5910 O   0  0  0  0  0  0  0  0  0  0  0  0
  162.0500  204.7550  147.1340 C   0  0  0  0  0  3  0  0  0  0  0  0
  161.7290  203.1890  145.3880 O   0  0  0  0  0  0  0  0  0  0  0  0
  162.3450  204.4460  145.6500 C   0  0  0  0  0  3  0  0  0  0  0  0
  161.1980  203.6680  147.5860 N   0  0  0  0  0  0  0  0  0  0  0  0
  161.0780  202.7570  146.5170 C   0  0  0  0  0  0  0  0  0  0  0  0
  1  3  2  0  0  0  0
  1  5  1  0  0  0  0
  3  4  1  0  0  0  0
  4  2  1  0  0  0  0
  6  5  1  6  0  0  0
  6  2  1  0  0  0  0
  6  7  1  0  0  0  0
  7 17  1  6  0  0  0
  7 10  1  0  0  0  0
  8 18  2  0  0  0  0
  8 16  1  0  0  0  0
  9 12  1  6  0  0  0
  9  8  1  0  0  0  0
 10 15  1  0  0  0  0
 10 14  1  0  0  0  0
 11 16  2  0  0  0  0
 13 12  1  0  0  0  0
 14 11  1  0  0  0  0
 15  9  1  0  0  0  0
 15 14  1  0  0  0  0
 17 13  1  0  0  0  0
 19  3  1  0  0  0  0
 21 24  1  0  0  0  0
 22 23  1  0  0  0  0
 22 25  1  0  0  0  0
 23 21  2  0  0  0  0
 24 19  1  0  0  0  0
 25 20  2  0  0  0  0
 25 24  1  0  0  0  0
M  END
>  <MODEL>
5

>  <REMARK>
 VINA RESULT:      -7.4      1.567      8.782
  Name = 
  3 active torsions:
  status: ('A' for Active; 'I' for Inactive)
    1  A    between atoms: N_1  and  C_24
    2  A    between atoms: C_16  and  C_19
    3  A    between atoms: N_18  and  C_19
                            x       y       z     vdW  Elec       q    Type
                         _______ _______ _______ _____ _____    ______ ____

>  <TORSDO>
F 3

$$$$
=
 OpenBabel11042420143D

 25 29  0  0  1  0  0  0  0  0999 V2000
  161.5970  205.8870  152.5890 N   0  0  0  0  0  0  0  0  0  0  0  0
  161.4180  206.5100  149.8460 C   0  0  0  0  0  2  0  0  0  0  0  0
  161.2020  207.0840  152.2970 C   0  0  0  0  0  0  0  0  0  0  0  0
  160.8800  207.4950  150.8790 C   0  0  0  0  0  2  0  0  0  0  0  0
  161.9540  204.8940  151.5940 C   0  0  0  0  0  2  0  0  0  0  0  0
  161.1490  205.0790  150.3050 C   0  0  2  0  0  3  0  0  0  0  0  0
  161.5680  204.1090  149.2830 N   0  0  2  0  0  0  0  0  0  0  0  0
  160.6510  203.8840  145.1060 C   0  0  0  0  0  0  0  0  0  0  0  0
  161.3900  203.0850  146.1460 C   0  0  2  0  0  3  0  0  0  0  0  0
  161.2060  204.6250  147.9730 C   0  0  1  0  0  3  0  0  0  0  0  0
  161.4420  206.0590  145.9650 C   0  0  0  0  0  3  0  0  0  0  0  0
  160.4600  202.1410  146.9580 C   0  0  0  0  0  2  0  0  0  0  0  0
  161.0010  201.7940  148.3710 C   0  0  0  0  0  2  0  0  0  0  0  0
  162.1630  205.4670  147.1510 C   0  0  2  0  0  3  0  0  0  0  0  0
  162.2400  203.9550  147.0690 C   0  0  2  0  0  3  0  0  0  0  0  0
  160.7600  205.3520  145.0550 C   0  0  0  0  0  3  0  0  0  0  0  0
  160.7240  202.9000  149.4290 C   0  0  0  0  0  2  0  0  0  0  0  0
  159.9580  203.2890  144.2390 O   0  0  0  0  0  0  0  0  0  0  0  0
  160.8440  208.0180  153.4060 C   0  0  0  0  0  2  0  0  0  0  0  0
  162.7050  209.9570  152.1310 O   0  0  0  0  0  0  0  0  0  0  0  0
  159.3290  210.0860  153.1180 C   0  0  0  0  0  3  0  0  0  0  0  0
  160.9880  211.5170  152.2210 O   0  0  0  0  0  0  0  0  0  0  0  0
  159.6200  211.5170  152.6190 C   0  0  0  0  0  3  0  0  0  0  0  0
  160.5560  209.3440  152.8800 N   0  0  0  0  0  0  0  0  0  0  0  0
  161.5080  210.2560  152.3840 C   0  0  0  0  0  0  0  0  0  0  0  0
  2  4  1  0  0  0  0
  3  1  2  0  0  0  0
  3 19  1  0  0  0  0
  4  3  1  0  0  0  0
  5  1  1  0  0  0  0
  6  2  1  6  0  0  0
  6  5  1  0  0  0  0
  7 17  1  1  0  0  0
  7  6  1  0  0  0  0
  8  9  1  0  0  0  0
  9 12  1  1  0  0  0
  9 15  1  0  0  0  0
 10  7  1  0  0  0  0
 11 14  1  0  0  0  0
 12 13  1  0  0  0  0
 13 17  1  0  0  0  0
 14 10  1  0  0  0  0
 15 14  1  0  0  0  0
 15 10  1  0  0  0  0
 16  8  1  0  0  0  0
 16 11  2  0  0  0  0
 18  8  2  0  0  0  0
 20 25  2  0  0  0  0
 22 25  1  0  0  0  0
 22 23  1  0  0  0  0
 23 21  2  0  0  0  0
 24 21  1  0  0  0  0
 24 19  1  0  0  0  0
 25 24  1  0  0  0  0
M  END
>  <MODEL>
6

>  <REMARK>
 VINA RESULT:      -7.3      1.691      1.952
  Name = 
  3 active torsions:
  status: ('A' for Active; 'I' for Inactive)
    1  A    between atoms: N_1  and  C_24
    2  A    between atoms: C_16  and  C_19
    3  A    between atoms: N_18  and  C_19
                            x       y       z     vdW  Elec       q    Type
                         _______ _______ _______ _____ _____    ______ ____

>  <TORSDO>
F 3

$$$$
=
 OpenBabel11042420143D

 25 29  0  0  1  0  0  0  0  0999 V2000
  162.1190  208.9290  150.0430 N   0  0  0  0  0  0  0  0  0  0  0  0
  160.8310  206.6500  151.0880 C   0  0  0  0  0  2  0  0  0  0  0  0
  162.0270  208.8620  151.3310 C   0  0  0  0  0  0  0  0  0  0  0  0
  161.5340  207.6180  152.0340 C   0  0  0  0  0  2  0  0  0  0  0  0
  161.5900  207.9190  149.1460 C   0  0  0  0  0  2  0  0  0  0  0  0
  161.6220  206.5290  149.7870 C   0  0  2  0  0  3  0  0  0  0  0  0
  161.0220  205.5270  148.8950 N   0  0  2  0  0  0  0  0  0  0  0  0
  161.4120  201.2640  148.8210 C   0  0  0  0  0  0  0  0  0  0  0  0
  160.7530  202.3530  148.0170 C   0  0  2  0  0  3  0  0  0  0  0  0
  161.2550  204.2050  149.4530 C   0  0  1  0  0  3  0  0  0  0  0  0
  160.8730  202.3030  150.9950 C   0  0  0  0  0  3  0  0  0  0  0  0
  161.7120  203.0050  146.9810 C   0  0  0  0  0  2  0  0  0  0  0  0
  161.3230  204.4580  146.5980 C   0  0  0  0  0  2  0  0  0  0  0  0
  160.2630  203.5440  150.3890 C   0  0  2  0  0  3  0  0  0  0  0  0
  160.0790  203.4090  148.8900 C   0  0  2  0  0  3  0  0  0  0  0  0
  161.3930  201.2870  150.2930 C   0  0  0  0  0  3  0  0  0  0  0  0
  161.7970  205.5180  147.6330 C   0  0  0  0  0  2  0  0  0  0  0  0
  161.9550  200.2940  148.2290 O   0  0  0  0  0  0  0  0  0  0  0  0
  162.6260  209.9540  152.1570 C   0  0  0  0  0  2  0  0  0  0  0  0
  162.4370  210.3440  155.1000 O   0  0  0  0  0  0  0  0  0  0  0  0
  160.3000  211.0440  152.3920 C   0  0  0  0  0  3  0  0  0  0  0  0
  160.2910  211.1620  154.7560 O   0  0  0  0  0  0  0  0  0  0  0  0
  159.4680  211.4440  153.6290 C   0  0  0  0  0  3  0  0  0  0  0  0
  161.5930  210.6380  152.9190 N   0  0  0  0  0  0  0  0  0  0  0  0
  161.5090  210.6950  154.3250 C   0  0  0  0  0  0  0  0  0  0  0  0
  1  3  2  0  0  0  0
  2  4  1  0  0  0  0
  3  4  1  0  0  0  0
  3 19  1  0  0  0  0
  5  1  1  0  0  0  0
  6  5  1  6  0  0  0
  6  2  1  0  0  0  0
  7 17  1  6  0  0  0
  7 10  1  0  0  0  0
  7  6  1  0  0  0  0
  8 16  1  0  0  0  0
  9 12  1  1  0  0  0
  9  8  1  0  0  0  0
  9 15  1  0  0  0  0
 10 14  1  0  0  0  0
 13 12  1  0  0  0  0
 13 17  1  0  0  0  0
 14 11  1  0  0  0  0
 15 10  1  0  0  0  0
 15 14  1  0  0  0  0
 16 11  2  0  0  0  0
 18  8  2  0  0  0  0
 19 24  1  0  0  0  0
 21 24  1  0  0  0  0
 21 23  2  0  0  0  0
 23 22  1  0  0  0  0
 24 25  1  0  0  0  0
 25 22  1  0  0  0  0
 25 20  2  0  0  0  0
M  END
>  <MODEL>
7

>  <REMARK>
 VINA RESULT:      -7.2      1.771      3.228
  Name = 
  3 active torsions:
  status: ('A' for Active; 'I' for Inactive)
    1  A    between atoms: N_1  and  C_24
    2  A    between atoms: C_16  and  C_19
    3  A    between atoms: N_18  and  C_19
                            x       y       z     vdW  Elec       q    Type
                         _______ _______ _______ _____ _____    ______ ____

>  <TORSDO>
F 3

$$$$
=
 OpenBabel11042420143D

 25 29  0  0  1  0  0  0  0  0999 V2000
  161.6880  204.8780  148.5180 N   0  0  0  0  0  0  0  0  0  0  0  0
  161.3100  207.5250  149.4130 C   0  0  0  0  0  2  0  0  0  0  0  0
  162.0780  205.8160  147.7180 C   0  0  0  0  0  0  0  0  0  0  0  0
  162.1120  207.2660  148.1410 C   0  0  0  0  0  2  0  0  0  0  0  0
  161.0700  205.1280  149.8070 C   0  0  0  0  0  2  0  0  0  0  0  0
  161.5890  206.4250  150.4340 C   0  0  2  0  0  3  0  0  0  0  0  0
  160.9060  206.7000  151.7060 N   0  0  2  0  0  0  0  0  0  0  0  0
  161.7050  209.6290  154.7270 C   0  0  0  0  0  0  0  0  0  0  0  0
  160.7710  208.4710  154.4930 C   0  0  2  0  0  3  0  0  0  0  0  0
  161.3960  207.9630  152.2360 C   0  0  1  0  0  3  0  0  0  0  0  0
  161.5740  210.4290  152.3950 C   0  0  0  0  0  3  0  0  0  0  0  0
  161.3940  207.1020  154.8850 C   0  0  0  0  0  2  0  0  0  0  0  0
  160.7810  205.8960  154.1250 C   0  0  0  0  0  2  0  0  0  0  0  0
  160.7180  209.2810  151.9190 C   0  0  2  0  0  3  0  0  0  0  0  0
  160.2100  208.4390  153.0740 C   0  0  2  0  0  3  0  0  0  0  0  0
  162.0210  210.5810  153.6490 C   0  0  0  0  0  3  0  0  0  0  0  0
  161.3680  205.7010  152.6980 C   0  0  0  0  0  2  0  0  0  0  0  0
  162.1950  209.8120  155.8720 O   0  0  0  0  0  0  0  0  0  0  0  0
  162.7190  205.4400  146.4220 C   0  0  0  0  0  2  0  0  0  0  0  0
  160.8070  205.9540  144.2020 O   0  0  0  0  0  0  0  0  0  0  0  0
  161.6380  203.1180  146.1150 C   0  0  0  0  0  3  0  0  0  0  0  0
  160.1010  203.7530  144.4290 O   0  0  0  0  0  0  0  0  0  0  0  0
  160.4830  202.6290  145.2150 C   0  0  0  0  0  3  0  0  0  0  0  0
  161.8860  204.4900  145.7010 N   0  0  0  0  0  0  0  0  0  0  0  0
  160.9190  204.8160  144.7280 C   0  0  0  0  0  0  0  0  0  0  0  0
  1  5  1  0  0  0  0
  3  4  1  0  0  0  0
  3  1  2  0  0  0  0
  4  2  1  0  0  0  0
  5  6  1  0  0  0  0
  6  2  1  6  0  0  0
  6  7  1  0  0  0  0
  7 10  1  0  0  0  0
  7 17  1  1  0  0  0
  8 18  2  0  0  0  0
  9  8  1  0  0  0  0
  9 12  1  6  0  0  0
 10 15  1  0  0  0  0
 11 16  2  0  0  0  0
 13 12  1  0  0  0  0
 14 10  1  0  0  0  0
 14 11  1  0  0  0  0
 14 15  1  0  0  0  0
 15  9  1  0  0  0  0
 16  8  1  0  0  0  0
 17 13  1  0  0  0  0
 19  3  1  0  0  0  0
 20 25  2  0  0  0  0
 22 25  1  0  0  0  0
 22 23  1  0  0  0  0
 23 21  2  0  0  0  0
 24 21  1  0  0  0  0
 24 19  1  0  0  0  0
 25 24  1  0  0  0  0
M  END
>  <MODEL>
8

>  <REMARK>
 VINA RESULT:      -6.9      1.485      8.408
  Name = 
  3 active torsions:
  status: ('A' for Active; 'I' for Inactive)
    1  A    between atoms: N_1  and  C_24
    2  A    between atoms: C_16  and  C_19
    3  A    between atoms: N_18  and  C_19
                            x       y       z     vdW  Elec       q    Type
                         _______ _______ _______ _____ _____    ______ ____

>  <TORSDO>
F 3

$$$$
=
 OpenBabel11042420143D

 25 29  0  0  1  0  0  0  0  0999 V2000
  160.1000  212.1060  152.2170 N   0  0  0  0  0  0  0  0  0  0  0  0
  161.9540  210.6770  150.6460 C   0  0  0  0  0  2  0  0  0  0  0  0
  160.4190  212.6360  151.0820 C   0  0  0  0  0  0  0  0  0  0  0  0
  161.2490  211.8960  150.0590 C   0  0  0  0  0  2  0  0  0  0  0  0
  160.6520  210.8560  152.7030 C   0  0  0  0  0  2  0  0  0  0  0  0
  160.9920  209.9080  151.5500 C   0  0  2  0  0  3  0  0  0  0  0  0
  161.6130  208.6740  152.0520 N   0  0  2  0  0  0  0  0  0  0  0  0
  160.9950  204.5860  150.9370 C   0  0  0  0  0  0  0  0  0  0  0  0
  161.7810  205.3750  151.9500 C   0  0  2  0  0  3  0  0  0  0  0  0
  161.2580  207.5780  151.1650 C   0  0  1  0  0  3  0  0  0  0  0  0
  161.3980  206.1980  149.1110 C   0  0  0  0  0  3  0  0  0  0  0  0
  160.9550  205.7230  153.2200 C   0  0  0  0  0  2  0  0  0  0  0  0
  161.4550  206.9910  153.9630 C   0  0  0  0  0  2  0  0  0  0  0  0
  162.1260  207.1910  149.9830 C   0  0  2  0  0  3  0  0  0  0  0  0
  162.4340  206.6210  151.3540 C   0  0  2  0  0  3  0  0  0  0  0  0
  160.8860  205.0360  149.5400 C   0  0  0  0  0  3  0  0  0  0  0  0
  160.9520  208.3190  153.3290 C   0  0  0  0  0  2  0  0  0  0  0  0
  160.4530  203.5020  151.2780 O   0  0  0  0  0  0  0  0  0  0  0  0
  159.7720  213.9200  150.6760 C   0  0  0  0  0  2  0  0  0  0  0  0
  159.2740  213.6790  147.7530 O   0  0  0  0  0  0  0  0  0  0  0  0
  157.2010  213.7280  150.5980 C   0  0  0  0  0  3  0  0  0  0  0  0
  157.0030  213.6680  148.2390 O   0  0  0  0  0  0  0  0  0  0  0  0
  156.2060  213.6730  149.4190 C   0  0  0  0  0  3  0  0  0  0  0  0
  158.5180  213.6610  149.9850 N   0  0  0  0  0  0  0  0  0  0  0  0
  158.3320  213.6650  148.5890 C   0  0  0  0  0  0  0  0  0  0  0  0
  1  5  1  0  0  0  0
  3  1  2  0  0  0  0
  4  2  1  0  0  0  0
  4  3  1  0  0  0  0
  6  2  1  6  0  0  0
  6  7  1  0  0  0  0
  6  5  1  0  0  0  0
  7 17  1  1  0  0  0
  8 18  2  0  0  0  0
  8  9  1  0  0  0  0
  9 12  1  1  0  0  0
 10 15  1  0  0  0  0
 10  7  1  0  0  0  0
 11 16  2  0  0  0  0
 11 14  1  0  0  0  0
 12 13  1  0  0  0  0
 14 10  1  0  0  0  0
 14 15  1  0  0  0  0
 15  9  1  0  0  0  0
 16  8  1  0  0  0  0
 17 13  1  0  0  0  0
 19  3  1  0  0  0  0
 20 25  2  0  0  0  0
 22 25  1  0  0  0  0
 22 23  1  0  0  0  0
 23 21  2  0  0  0  0
 24 21  1  0  0  0  0
 24 19  1  0  0  0  0
 25 24  1  0  0  0  0
M  END
>  <MODEL>
9

>  <REMARK>
 VINA RESULT:      -6.7      4.399      6.140
  Name = 
  3 active torsions:
  status: ('A' for Active; 'I' for Inactive)
    1  A    between atoms: N_1  and  C_24
    2  A    between atoms: C_16  and  C_19
    3  A    between atoms: N_18  and  C_19
                            x       y       z     vdW  Elec       q    Type
                         _______ _______ _______ _____ _____    ______ ____

>  <TORSDO>
F 3

$$$$
