=
 OpenBabel11042421573D

 39 43  0  0  1  0  0  0  0  0999 V2000
  161.8480  206.3450  152.6500 N   0  0  0  0  0  0  0  0  0  0  0  0
  161.8900  206.1440  151.1910 C   0  0  2  0  0  3  0  0  0  0  0  0
  161.5170  208.6260  150.8910 C   0  0  2  0  0  3  0  0  0  0  0  0
  160.8940  207.3980  152.9910 C   0  0  0  0  0  2  0  0  0  0  0  0
  161.3590  208.7350  152.4180 C   0  0  2  0  0  3  0  0  0  0  0  0
  161.4250  205.1170  153.3080 C   0  0  0  0  0  1  0  0  0  0  0  0
  162.3900  207.4230  150.5150 C   0  0  0  0  0  2  0  0  0  0  0  0
  162.0830  209.8610  148.7980 C   0  0  0  0  0  1  0  0  0  0  0  0
  162.1370  209.8910  150.3140 C   0  0  0  0  0  2  0  0  0  0  0  0
  160.3260  209.7910  152.7930 C   0  0  0  0  0  2  0  0  0  0  0  0
  160.5160  210.2680  154.2240 C   0  0  0  0  0  2  0  0  0  0  0  0
  158.9860  210.9110  156.5310 O   0  0  0  0  0  0  0  0  0  0  0  0
  159.8030  211.5190  154.4300 N   0  0  0  0  0  2  0  0  0  0  0  0
  159.0390  211.7690  155.6080 C   0  0  0  0  0  0  0  0  0  0  0  0
  158.2810  213.0540  155.7240 C   0  0  2  0  0  3  0  0  0  0  0  0
  157.9120  213.2910  157.0500 O   0  0  0  0  0  1  0  0  0  0  0  0
  157.0570  213.0870  154.8050 C   0  0  0  0  0  0  0  0  0  0  0  0
  155.7510  213.0240  155.5680 C   0  0  0  0  0  2  0  0  0  0  0  0
  156.2250  211.8200  154.7720 C   0  0  0  0  0  2  0  0  0  0  0  0
  157.2010  213.9970  151.2440 O   0  0  0  0  0  1  0  0  0  0  0  0
  157.6900  213.4330  152.4210 C   0  0  1  0  0  3  0  0  0  0  0  0
  158.2630  214.4430  153.2120 O   0  0  0  0  0  0  0  0  0  0  0  0
  156.9750  214.0110  153.5850 C   0  0  2  0  0  3  0  0  0  0  0  0
  160.5460  205.7020  150.5990 C   0  0  0  0  0  2  0  0  0  0  0  0
  160.7500  205.1300  149.2030 C   0  0  0  0  0  2  0  0  0  0  0  0
  160.8230  203.6020  149.2180 C   0  0  1  0  0  3  0  0  0  0  0  0
  161.0810  201.7300  147.6540 N   0  0  0  0  0  2  0  0  0  0  0  0
  161.4980  203.9510  146.8780 N   0  0  2  0  0  0  0  0  0  0  0  0
  162.1770  205.5460  144.4270 C   0  0  0  0  0  2  0  0  0  0  0  0
  162.6870  205.8260  145.8430 C   0  0  0  0  0  2  0  0  0  0  0  0
  162.8080  204.5510  146.6720 C   0  0  0  0  0  2  0  0  0  0  0  0
  161.6030  203.0460  148.0200 C   0  0  1  0  0  3  0  0  0  0  0  0
  161.2610  203.0920  145.7350 C   0  0  1  0  0  3  0  0  0  0  0  0
  160.6480  201.8340  146.2740 C   0  0  0  0  0  2  0  0  0  0  0  0
  160.3310  203.7560  144.7220 C   0  0  0  0  0  2  0  0  0  0  0  0
  160.6790  205.2130  144.3870 C   0  0  1  0  0  3  0  0  0  0  0  0
  159.9420  206.0880  145.1890 O   0  0  0  0  0  1  0  0  0  0  0  0
  161.3920  203.1620  150.4190 O   0  0  0  0  0  0  0  0  0  0  0  0
  160.7880  201.9280  150.6700 C   0  0  0  0  0  1  0  0  0  0  0  0
  1  4  1  0  0  0  0
  1  6  1  0  0  0  0
  2 24  1  6  0  0  0
  2  1  1  0  0  0  0
  3  9  1  1  0  0  0
  3  5  1  0  0  0  0
  5 10  1  6  0  0  0
  5  4  1  0  0  0  0
  7  3  1  0  0  0  0
  7  2  1  0  0  0  0
  8  9  1  0  0  0  0
 10 11  1  0  0  0  0
 11 13  1  0  0  0  0
 13 14  1  0  0  0  0
 14 15  1  0  0  0  0
 14 12  2  0  0  0  0
 15 16  1  1  0  0  0
 17 18  1  0  0  0  0
 17 15  1  0  0  0  0
 19 17  1  0  0  0  0
 19 18  1  0  0  0  0
 21 20  1  6  0  0  0
 21 22  1  0  0  0  0
 21 23  1  0  0  0  0
 22 23  1  0  0  0  0
 23 17  1  1  0  0  0
 25 24  1  0  0  0  0
 26 25  1  1  0  0  0
 26 38  1  0  0  0  0
 27 32  1  0  0  0  0
 28 31  1  6  0  0  0
 28 32  1  0  0  0  0
 29 30  1  0  0  0  0
 30 31  1  0  0  0  0
 32 26  1  1  0  0  0
 33 35  1  6  0  0  0
 33 34  1  0  0  0  0
 33 28  1  0  0  0  0
 34 27  1  0  0  0  0
 36 29  1  0  0  0  0
 36 35  1  0  0  0  0
 36 37  1  1  0  0  0
 38 39  1  0  0  0  0
M  END
>  <MODEL>
1

>  <REMARK>
 VINA RESULT:      -7.6      0.000      0.000
  Name = 
  12 active torsions:
  status: ('A' for Active; 'I' for Inactive)
    1  A    between atoms: C_2  and  N_19
    2  A    between atoms: C_2  and  C_27
    3  A    between atoms: O_3  and  C_4
    4  A    between atoms: C_4  and  C_18
    5  A    between atoms: C_4  and  C_21
    6  A    between atoms: C_6  and  C_32
    7  A    between atoms: C_14  and  C_17
    8  A    between atoms: C_14  and  C_34
    9  A    between atoms: C_15  and  C_35
   10  A    between atoms: C_18  and  C_32
   11  A    between atoms: C_24  and  C_34
   12  A    between atoms: C_25  and  C_27
                            x       y       z     vdW  Elec       q    Type
                         _______ _______ _______ _____ _____    ______ ____

>  <TORSDO>
F 12

$$$$
=
 OpenBabel11042421573D

 39 43  0  0  1  0  0  0  0  0999 V2000
  162.1660  209.4840  151.9450 N   0  0  0  0  0  0  0  0  0  0  0  0
  161.3070  210.2330  152.8780 C   0  0  2  0  0  3  0  0  0  0  0  0
  160.8420  208.0730  154.1050 C   0  0  2  0  0  3  0  0  0  0  0  0
  161.6260  208.1450  151.7200 C   0  0  0  0  0  2  0  0  0  0  0  0
  161.6510  207.3420  153.0190 C   0  0  2  0  0  3  0  0  0  0  0  0
  162.2270  210.1720  150.6630 C   0  0  0  0  0  1  0  0  0  0  0  0
  161.2970  209.5320  154.2370 C   0  0  0  0  0  2  0  0  0  0  0  0
  159.6290  207.1950  156.1010 C   0  0  0  0  0  1  0  0  0  0  0  0
  160.9880  207.3820  155.4540 C   0  0  0  0  0  2  0  0  0  0  0  0
  161.0690  205.9630  152.7300 C   0  0  0  0  0  2  0  0  0  0  0  0
  161.9840  205.1550  151.8250 C   0  0  0  0  0  2  0  0  0  0  0  0
  161.3840  202.3980  151.4800 O   0  0  0  0  0  0  0  0  0  0  0  0
  161.2230  204.5990  150.7160 N   0  0  0  0  0  2  0  0  0  0  0  0
  160.9730  203.1990  150.5970 C   0  0  0  0  0  0  0  0  0  0  0  0
  160.2370  202.6920  149.3970 C   0  0  2  0  0  3  0  0  0  0  0  0
  159.4930  201.5550  149.7200 O   0  0  0  0  0  1  0  0  0  0  0  0
  161.1740  202.4130  148.2200 C   0  0  0  0  0  0  0  0  0  0  0  0
  160.5600  201.4900  147.1890 C   0  0  0  0  0  2  0  0  0  0  0  0
  161.6690  200.9850  148.0980 C   0  0  0  0  0  2  0  0  0  0  0  0
  162.0660  205.8270  147.1800 O   0  0  0  0  0  1  0  0  0  0  0  0
  161.2280  204.7170  147.2750 C   0  0  1  0  0  3  0  0  0  0  0  0
  161.5750  203.7910  146.2780 O   0  0  0  0  0  0  0  0  0  0  0  0
  162.0340  203.5090  147.5800 C   0  0  2  0  0  3  0  0  0  0  0  0
  159.8780  210.4390  152.3570 C   0  0  0  0  0  2  0  0  0  0  0  0
  159.2110  211.5910  153.0960 C   0  0  0  0  0  2  0  0  0  0  0  0
  158.8820  212.7530  152.1580 C   0  0  1  0  0  3  0  0  0  0  0  0
  156.8050  214.0570  152.2250 N   0  0  0  0  0  2  0  0  0  0  0  0
  157.9110  213.5390  154.2780 N   0  0  2  0  0  0  0  0  0  0  0  0
  157.6690  213.7840  157.2610 C   0  0  0  0  0  2  0  0  0  0  0  0
  158.9690  213.8960  156.4600 C   0  0  0  0  0  2  0  0  0  0  0  0
  158.7330  214.4530  155.0600 C   0  0  0  0  0  2  0  0  0  0  0  0
  158.1040  213.8690  152.8680 C   0  0  1  0  0  3  0  0  0  0  0  0
  156.5340  213.8880  154.5630 C   0  0  1  0  0  3  0  0  0  0  0  0
  155.8060  213.8350  153.2540 C   0  0  0  0  0  2  0  0  0  0  0  0
  155.9100  212.9210  155.5680 C   0  0  0  0  0  2  0  0  0  0  0  0
  156.7800  212.6210  156.7980 C   0  0  1  0  0  3  0  0  0  0  0  0
  157.5280  211.4590  156.5950 O   0  0  0  0  0  1  0  0  0  0  0  0
  160.0570  213.2610  151.5930 O   0  0  0  0  0  0  0  0  0  0  0  0
  159.7890  213.3480  150.2250 C   0  0  0  0  0  1  0  0  0  0  0  0
  1  2  1  0  0  0  0
  2 24  1  6  0  0  0
  2  7  1  0  0  0  0
  3  7  1  0  0  0  0
  3  9  1  1  0  0  0
  4  1  1  0  0  0  0
  4  5  1  0  0  0  0
  5 10  1  6  0  0  0
  5  3  1  0  0  0  0
  6  1  1  0  0  0  0
  9  8  1  0  0  0  0
 11 10  1  0  0  0  0
 13 11  1  0  0  0  0
 14 13  1  0  0  0  0
 14 12  2  0  0  0  0
 15 16  1  1  0  0  0
 15 14  1  0  0  0  0
 17 15  1  0  0  0  0
 18 19  1  0  0  0  0
 18 17  1  0  0  0  0
 19 17  1  0  0  0  0
 21 20  1  6  0  0  0
 21 23  1  0  0  0  0
 22 21  1  0  0  0  0
 22 23  1  0  0  0  0
 23 17  1  1  0  0  0
 24 25  1  0  0  0  0
 26 25  1  1  0  0  0
 27 32  1  0  0  0  0
 27 34  1  0  0  0  0
 28 33  1  0  0  0  0
 28 31  1  1  0  0  0
 30 29  1  0  0  0  0
 31 30  1  0  0  0  0
 32 26  1  6  0  0  0
 32 28  1  0  0  0  0
 33 34  1  6  0  0  0
 33 35  1  0  0  0  0
 35 36  1  0  0  0  0
 36 37  1  6  0  0  0
 36 29  1  0  0  0  0
 38 26  1  0  0  0  0
 39 38  1  0  0  0  0
M  END
>  <MODEL>
2

>  <REMARK>
 VINA RESULT:      -7.3      2.003     10.880
  Name = 
  12 active torsions:
  status: ('A' for Active; 'I' for Inactive)
    1  A    between atoms: C_2  and  N_19
    2  A    between atoms: C_2  and  C_27
    3  A    between atoms: O_3  and  C_4
    4  A    between atoms: C_4  and  C_18
    5  A    between atoms: C_4  and  C_21
    6  A    between atoms: C_6  and  C_32
    7  A    between atoms: C_14  and  C_17
    8  A    between atoms: C_14  and  C_34
    9  A    between atoms: C_15  and  C_35
   10  A    between atoms: C_18  and  C_32
   11  A    between atoms: C_24  and  C_34
   12  A    between atoms: C_25  and  C_27
                            x       y       z     vdW  Elec       q    Type
                         _______ _______ _______ _____ _____    ______ ____

>  <TORSDO>
F 12

$$$$
=
 OpenBabel11042421573D

 39 43  0  0  1  0  0  0  0  0999 V2000
  162.4220  208.5830  151.2980 N   0  0  0  0  0  0  0  0  0  0  0  0
  161.8650  208.0160  152.5390 C   0  0  2  0  0  3  0  0  0  0  0  0
  160.9620  206.0790  151.1870 C   0  0  2  0  0  3  0  0  0  0  0  0
  161.5380  208.3020  150.1690 C   0  0  0  0  0  2  0  0  0  0  0  0
  161.4630  206.7970  149.9210 C   0  0  2  0  0  3  0  0  0  0  0  0
  162.5510  210.0280  151.4270 C   0  0  0  0  0  1  0  0  0  0  0  0
  161.7870  206.4930  152.4130 C   0  0  0  0  0  2  0  0  0  0  0  0
  160.9770  203.8880  152.3790 C   0  0  0  0  0  1  0  0  0  0  0  0
  161.0360  204.5680  151.0240 C   0  0  0  0  0  2  0  0  0  0  0  0
  160.5240  206.5620  148.7440 C   0  0  0  0  0  2  0  0  0  0  0  0
  161.2840  206.5300  147.4280 C   0  0  0  0  0  2  0  0  0  0  0  0
  163.0210  204.6500  146.1920 O   0  0  0  0  0  0  0  0  0  0  0  0
  160.8510  205.3920  146.6310 N   0  0  0  0  0  2  0  0  0  0  0  0
  161.7800  204.4950  146.0250 C   0  0  0  0  0  0  0  0  0  0  0  0
  161.2650  203.3840  145.1670 C   0  0  2  0  0  3  0  0  0  0  0  0
  160.2580  203.8440  144.3160 O   0  0  0  0  0  1  0  0  0  0  0  0
  160.7740  202.1950  145.9970 C   0  0  0  0  0  0  0  0  0  0  0  0
  160.4520  200.9830  145.1480 C   0  0  0  0  0  2  0  0  0  0  0  0
  159.3290  201.7910  145.7780 C   0  0  0  0  0  2  0  0  0  0  0  0
  160.8790  200.8980  149.4380 O   0  0  0  0  0  1  0  0  0  0  0  0
  160.3910  201.7010  148.4080 C   0  0  1  0  0  3  0  0  0  0  0  0
  161.2070  202.8370  148.2840 O   0  0  0  0  0  0  0  0  0  0  0  0
  161.4120  201.8130  147.3380 C   0  0  2  0  0  3  0  0  0  0  0  0
  160.4980  208.6040  152.9170 C   0  0  0  0  0  2  0  0  0  0  0  0
  160.6630  209.6580  154.0030 C   0  0  0  0  0  2  0  0  0  0  0  0
  160.4940  209.0650  155.4020 C   0  0  1  0  0  3  0  0  0  0  0  0
  160.7390  210.6480  157.2600 N   0  0  0  0  0  2  0  0  0  0  0  0
  159.0680  211.0600  155.6030 N   0  0  2  0  0  0  0  0  0  0  0  0
  156.9890  213.0440  154.7370 C   0  0  0  0  0  2  0  0  0  0  0  0
  156.8600  211.5210  154.6480 C   0  0  0  0  0  2  0  0  0  0  0  0
  157.6400  210.8140  155.7510 C   0  0  0  0  0  2  0  0  0  0  0  0
  159.7730  210.0250  156.3570 C   0  0  1  0  0  3  0  0  0  0  0  0
  159.3420  212.2950  156.3090 C   0  0  1  0  0  3  0  0  0  0  0  0
  160.6250  212.0790  157.0540 C   0  0  0  0  0  2  0  0  0  0  0  0
  159.4670  213.4720  155.3450 C   0  0  0  0  0  2  0  0  0  0  0  0
  158.3630  213.5550  154.2820 C   0  0  1  0  0  3  0  0  0  0  0  0
  158.7720  212.9290  153.1020 O   0  0  0  0  0  1  0  0  0  0  0  0
  159.8100  207.8460  155.3270 O   0  0  0  0  0  0  0  0  0  0  0  0
  160.1040  207.1950  156.5260 C   0  0  0  0  0  1  0  0  0  0  0  0
  1  6  1  0  0  0  0
  1  2  1  0  0  0  0
  2 24  1  6  0  0  0
  3  9  1  6  0  0  0
  3  7  1  0  0  0  0
  4  1  1  0  0  0  0
  5 10  1  6  0  0  0
  5  4  1  0  0  0  0
  5  3  1  0  0  0  0
  7  2  1  0  0  0  0
  9  8  1  0  0  0  0
 11 10  1  0  0  0  0
 13 11  1  0  0  0  0
 14 12  2  0  0  0  0
 14 13  1  0  0  0  0
 15 16  1  1  0  0  0
 15 17  1  0  0  0  0
 15 14  1  0  0  0  0
 18 19  1  0  0  0  0
 18 17  1  0  0  0  0
 19 17  1  0  0  0  0
 21 20  1  1  0  0  0
 22 21  1  0  0  0  0
 23 17  1  6  0  0  0
 23 22  1  0  0  0  0
 23 21  1  0  0  0  0
 24 25  1  0  0  0  0
 26 25  1  6  0  0  0
 28 31  1  1  0  0  0
 28 33  1  0  0  0  0
 28 32  1  0  0  0  0
 30 29  1  0  0  0  0
 30 31  1  0  0  0  0
 32 26  1  6  0  0  0
 32 27  1  0  0  0  0
 33 35  1  6  0  0  0
 33 34  1  0  0  0  0
 34 27  1  0  0  0  0
 36 37  1  6  0  0  0
 36 29  1  0  0  0  0
 36 35  1  0  0  0  0
 38 26  1  0  0  0  0
 38 39  1  0  0  0  0
M  END
>  <MODEL>
3

>  <REMARK>
 VINA RESULT:      -7.2      1.830     10.841
  Name = 
  12 active torsions:
  status: ('A' for Active; 'I' for Inactive)
    1  A    between atoms: C_2  and  N_19
    2  A    between atoms: C_2  and  C_27
    3  A    between atoms: O_3  and  C_4
    4  A    between atoms: C_4  and  C_18
    5  A    between atoms: C_4  and  C_21
    6  A    between atoms: C_6  and  C_32
    7  A    between atoms: C_14  and  C_17
    8  A    between atoms: C_14  and  C_34
    9  A    between atoms: C_15  and  C_35
   10  A    between atoms: C_18  and  C_32
   11  A    between atoms: C_24  and  C_34
   12  A    between atoms: C_25  and  C_27
                            x       y       z     vdW  Elec       q    Type
                         _______ _______ _______ _____ _____    ______ ____

>  <TORSDO>
F 12

$$$$
=
 OpenBabel11042421573D

 39 43  0  0  1  0  0  0  0  0999 V2000
  160.2040  206.5750  149.8740 N   0  0  0  0  0  0  0  0  0  0  0  0
  160.5260  205.3540  150.6330 C   0  0  2  0  0  3  0  0  0  0  0  0
  161.5720  206.8030  152.4210 C   0  0  2  0  0  3  0  0  0  0  0  0
  161.2530  207.5770  150.0530 C   0  0  0  0  0  2  0  0  0  0  0  0
  161.3150  208.0190  151.5140 C   0  0  2  0  0  3  0  0  0  0  0  0
  160.1070  206.2670  148.4540 C   0  0  0  0  0  1  0  0  0  0  0  0
  160.5700  205.6790  152.1270 C   0  0  0  0  0  2  0  0  0  0  0  0
  160.5250  206.2510  154.6170 C   0  0  0  0  0  1  0  0  0  0  0  0
  161.4730  207.1860  153.8910 C   0  0  0  0  0  2  0  0  0  0  0  0
  162.4290  209.0510  151.6450 C   0  0  0  0  0  2  0  0  0  0  0  0
  161.8750  210.4200  152.0050 C   0  0  0  0  0  2  0  0  0  0  0  0
  159.9300  211.9350  153.4190 O   0  0  0  0  0  0  0  0  0  0  0  0
  161.8250  210.5720  153.4510 N   0  0  0  0  0  2  0  0  0  0  0  0
  160.8280  211.3630  154.0950 C   0  0  0  0  0  0  0  0  0  0  0  0
  160.8760  211.5240  155.5820 C   0  0  2  0  0  3  0  0  0  0  0  0
  162.0870  211.0510  156.0900 O   0  0  0  0  0  1  0  0  0  0  0  0
  159.6930  210.8450  156.2750 C   0  0  0  0  0  0  0  0  0  0  0  0
  160.1130  209.6720  157.1350 C   0  0  0  0  0  2  0  0  0  0  0  0
  159.3880  209.4310  155.8220 C   0  0  0  0  0  2  0  0  0  0  0  0
  156.2310  212.0200  156.6890 O   0  0  0  0  0  1  0  0  0  0  0  0
  157.3960  211.7590  155.9690 C   0  0  1  0  0  3  0  0  0  0  0  0
  158.3010  212.8160  156.1580 O   0  0  0  0  0  0  0  0  0  0  0  0
  158.5430  211.6440  156.9020 C   0  0  2  0  0  3  0  0  0  0  0  0
  161.8300  204.6830  150.1800 C   0  0  0  0  0  2  0  0  0  0  0  0
  161.6260  203.1810  150.0410 C   0  0  0  0  0  2  0  0  0  0  0  0
  160.6910  202.8380  148.8800 C   0  0  1  0  0  3  0  0  0  0  0  0
  160.8740  201.3220  146.9600 N   0  0  0  0  0  2  0  0  0  0  0  0
  161.4220  203.6290  146.6680 N   0  0  2  0  0  0  0  0  0  0  0  0
  162.2250  205.6600  144.6090 C   0  0  0  0  0  2  0  0  0  0  0  0
  162.7270  205.6100  146.0540 C   0  0  0  0  0  2  0  0  0  0  0  0
  162.7660  204.1850  146.5980 C   0  0  0  0  0  2  0  0  0  0  0  0
  161.4600  202.5010  147.5960 C   0  0  1  0  0  3  0  0  0  0  0  0
  161.1580  203.0420  145.3700 C   0  0  1  0  0  3  0  0  0  0  0  0
  160.4700  201.7360  145.6300 C   0  0  0  0  0  2  0  0  0  0  0  0
  160.2820  203.9540  144.5130 C   0  0  0  0  0  2  0  0  0  0  0  0
  160.7130  205.4270  144.4930 C   0  0  1  0  0  3  0  0  0  0  0  0
  160.0110  206.1550  145.4570 O   0  0  0  0  0  1  0  0  0  0  0  0
  159.8500  201.7780  149.2390 O   0  0  0  0  0  0  0  0  0  0  0  0
  160.4870  201.1650  150.3190 C   0  0  0  0  0  1  0  0  0  0  0  0
  1  4  1  0  0  0  0
  1  2  1  0  0  0  0
  2 24  1  6  0  0  0
  2  7  1  0  0  0  0
  3  9  1  1  0  0  0
  4  5  1  0  0  0  0
  5 10  1  6  0  0  0
  5  3  1  0  0  0  0
  6  1  1  0  0  0  0
  7  3  1  0  0  0  0
  9  8  1  0  0  0  0
 10 11  1  0  0  0  0
 11 13  1  0  0  0  0
 12 14  2  0  0  0  0
 13 14  1  0  0  0  0
 14 15  1  0  0  0  0
 15 16  1  1  0  0  0
 15 17  1  0  0  0  0
 17 18  1  0  0  0  0
 19 17  1  0  0  0  0
 19 18  1  0  0  0  0
 21 22  1  0  0  0  0
 21 20  1  1  0  0  0
 21 23  1  0  0  0  0
 22 23  1  0  0  0  0
 23 17  1  6  0  0  0
 25 24  1  0  0  0  0
 26 38  1  0  0  0  0
 26 25  1  1  0  0  0
 27 32  1  0  0  0  0
 28 31  1  6  0  0  0
 28 32  1  0  0  0  0
 29 30  1  0  0  0  0
 30 31  1  0  0  0  0
 32 26  1  1  0  0  0
 33 35  1  6  0  0  0
 33 34  1  0  0  0  0
 33 28  1  0  0  0  0
 34 27  1  0  0  0  0
 36 35  1  0  0  0  0
 36 29  1  0  0  0  0
 36 37  1  1  0  0  0
 38 39  1  0  0  0  0
M  END
>  <MODEL>
4

>  <REMARK>
 VINA RESULT:      -7.0      1.787      3.060
  Name = 
  12 active torsions:
  status: ('A' for Active; 'I' for Inactive)
    1  A    between atoms: C_2  and  N_19
    2  A    between atoms: C_2  and  C_27
    3  A    between atoms: O_3  and  C_4
    4  A    between atoms: C_4  and  C_18
    5  A    between atoms: C_4  and  C_21
    6  A    between atoms: C_6  and  C_32
    7  A    between atoms: C_14  and  C_17
    8  A    between atoms: C_14  and  C_34
    9  A    between atoms: C_15  and  C_35
   10  A    between atoms: C_18  and  C_32
   11  A    between atoms: C_24  and  C_34
   12  A    between atoms: C_25  and  C_27
                            x       y       z     vdW  Elec       q    Type
                         _______ _______ _______ _____ _____    ______ ____

>  <TORSDO>
F 12

$$$$
=
 OpenBabel11042421573D

 39 43  0  0  1  0  0  0  0  0999 V2000
  162.2420  209.4960  151.2190 N   0  0  0  0  0  0  0  0  0  0  0  0
  161.5420  210.0040  152.4130 C   0  0  2  0  0  3  0  0  0  0  0  0
  160.9120  207.6250  152.9920 C   0  0  2  0  0  3  0  0  0  0  0  0
  161.5340  208.3430  150.6670 C   0  0  0  0  0  2  0  0  0  0  0  0
  161.5530  207.1860  151.6630 C   0  0  2  0  0  3  0  0  0  0  0  0
  162.2950  210.5310  150.1970 C   0  0  0  0  0  1  0  0  0  0  0  0
  161.5430  208.9280  153.5000 C   0  0  0  0  0  2  0  0  0  0  0  0
  160.5030  207.0290  155.3800 C   0  0  0  0  0  1  0  0  0  0  0  0
  161.0670  206.5480  154.0560 C   0  0  0  0  0  2  0  0  0  0  0  0
  160.7950  206.0190  151.0420 C   0  0  0  0  0  2  0  0  0  0  0  0
  160.4520  206.2950  149.5870 C   0  0  0  0  0  2  0  0  0  0  0  0
  162.1800  206.8390  147.3970 O   0  0  0  0  0  0  0  0  0  0  0  0
  161.0610  205.2860  148.7330 N   0  0  0  0  0  2  0  0  0  0  0  0
  161.9080  205.6320  147.6380 C   0  0  0  0  0  0  0  0  0  0  0  0
  162.4480  204.5440  146.7650 C   0  0  2  0  0  3  0  0  0  0  0  0
  163.6930  204.9030  146.2440 O   0  0  0  0  0  1  0  0  0  0  0  0
  161.4770  204.1680  145.6430 C   0  0  0  0  0  0  0  0  0  0  0  0
  161.5540  205.1120  144.4620 C   0  0  0  0  0  2  0  0  0  0  0  0
  160.3510  205.1520  145.3900 C   0  0  0  0  0  2  0  0  0  0  0  0
  159.5260  201.1930  144.7070 O   0  0  0  0  0  1  0  0  0  0  0  0
  159.8650  202.2730  145.5200 C   0  0  1  0  0  3  0  0  0  0  0  0
  160.9520  201.9140  146.3340 O   0  0  0  0  0  0  0  0  0  0  0  0
  161.2470  202.7140  145.2120 C   0  0  2  0  0  3  0  0  0  0  0  0
  160.1150  210.4870  152.1210 C   0  0  0  0  0  2  0  0  0  0  0  0
  159.8390  211.7860  152.8650 C   0  0  0  0  0  2  0  0  0  0  0  0
  159.2830  212.8670  151.9360 C   0  0  1  0  0  3  0  0  0  0  0  0
  157.3430  214.3680  151.9320 N   0  0  0  0  0  2  0  0  0  0  0  0
  158.0910  213.4510  154.0080 N   0  0  2  0  0  0  0  0  0  0  0  0
  157.4430  213.3020  156.9350 C   0  0  0  0  0  2  0  0  0  0  0  0
  158.8500  213.3820  156.3360 C   0  0  0  0  0  2  0  0  0  0  0  0
  158.8690  214.1510  155.0200 C   0  0  0  0  0  2  0  0  0  0  0  0
  158.5140  213.9510  152.7020 C   0  0  1  0  0  3  0  0  0  0  0  0
  156.7230  213.9050  154.1620 C   0  0  1  0  0  3  0  0  0  0  0  0
  156.1910  214.1160  152.7770 C   0  0  0  0  0  2  0  0  0  0  0  0
  155.8780  212.8820  154.9170 C   0  0  0  0  0  2  0  0  0  0  0  0
  156.5300  212.3200  156.1880 C   0  0  1  0  0  3  0  0  0  0  0  0
  157.1930  211.1220  155.9090 O   0  0  0  0  0  1  0  0  0  0  0  0
  160.3210  213.4380  151.1910 O   0  0  0  0  0  0  0  0  0  0  0  0
  159.8740  213.4050  149.8690 C   0  0  0  0  0  1  0  0  0  0  0  0
  1  2  1  0  0  0  0
  2 24  1  6  0  0  0
  2  7  1  0  0  0  0
  3  7  1  0  0  0  0
  3  9  1  1  0  0  0
  4  1  1  0  0  0  0
  4  5  1  0  0  0  0
  5 10  1  6  0  0  0
  5  3  1  0  0  0  0
  6  1  1  0  0  0  0
  9  8  1  0  0  0  0
 11 10  1  0  0  0  0
 12 14  2  0  0  0  0
 13 11  1  0  0  0  0
 14 13  1  0  0  0  0
 15 16  1  6  0  0  0
 15 14  1  0  0  0  0
 17 15  1  0  0  0  0
 18 19  1  0  0  0  0
 18 17  1  0  0  0  0
 19 17  1  0  0  0  0
 21 20  1  6  0  0  0
 21 22  1  0  0  0  0
 23 21  1  0  0  0  0
 23 17  1  1  0  0  0
 23 22  1  0  0  0  0
 24 25  1  0  0  0  0
 26 25  1  1  0  0  0
 27 32  1  0  0  0  0
 27 34  1  0  0  0  0
 28 33  1  0  0  0  0
 28 31  1  1  0  0  0
 30 29  1  0  0  0  0
 31 30  1  0  0  0  0
 32 26  1  6  0  0  0
 32 28  1  0  0  0  0
 33 34  1  6  0  0  0
 33 35  1  0  0  0  0
 35 36  1  0  0  0  0
 36 37  1  6  0  0  0
 36 29  1  0  0  0  0
 38 26  1  0  0  0  0
 39 38  1  0  0  0  0
M  END
>  <MODEL>
5

>  <REMARK>
 VINA RESULT:      -6.8      2.144     11.070
  Name = 
  12 active torsions:
  status: ('A' for Active; 'I' for Inactive)
    1  A    between atoms: C_2  and  N_19
    2  A    between atoms: C_2  and  C_27
    3  A    between atoms: O_3  and  C_4
    4  A    between atoms: C_4  and  C_18
    5  A    between atoms: C_4  and  C_21
    6  A    between atoms: C_6  and  C_32
    7  A    between atoms: C_14  and  C_17
    8  A    between atoms: C_14  and  C_34
    9  A    between atoms: C_15  and  C_35
   10  A    between atoms: C_18  and  C_32
   11  A    between atoms: C_24  and  C_34
   12  A    between atoms: C_25  and  C_27
                            x       y       z     vdW  Elec       q    Type
                         _______ _______ _______ _____ _____    ______ ____

>  <TORSDO>
F 12

$$$$
=
 OpenBabel11042421573D

 39 43  0  0  1  0  0  0  0  0999 V2000
  162.4330  204.9440  152.0120 N   0  0  0  0  0  0  0  0  0  0  0  0
  161.9260  205.3850  150.7010 C   0  0  2  0  0  3  0  0  0  0  0  0
  160.9040  207.4020  151.8310 C   0  0  2  0  0  3  0  0  0  0  0  0
  161.4850  205.2950  153.0670 C   0  0  0  0  0  2  0  0  0  0  0  0
  161.3580  206.8120  153.1780 C   0  0  2  0  0  3  0  0  0  0  0  0
  162.6070  203.4990  152.0170 C   0  0  0  0  0  1  0  0  0  0  0  0
  161.8020  206.9100  150.6890 C   0  0  0  0  0  2  0  0  0  0  0  0
  161.9770  209.4550  150.9030 C   0  0  0  0  0  1  0  0  0  0  0  0
  160.9300  208.9240  151.8640 C   0  0  0  0  0  2  0  0  0  0  0  0
  160.3520  207.1190  154.2820 C   0  0  0  0  0  2  0  0  0  0  0  0
  160.9440  208.0540  155.3250 C   0  0  0  0  0  2  0  0  0  0  0  0
  160.1480  209.9770  157.2610 O   0  0  0  0  0  0  0  0  0  0  0  0
  160.5690  209.4280  155.0310 N   0  0  0  0  0  2  0  0  0  0  0  0
  160.1620  210.3370  156.0520 C   0  0  0  0  0  0  0  0  0  0  0  0
  159.7290  211.7170  155.6680 C   0  0  2  0  0  3  0  0  0  0  0  0
  159.5450  212.5090  156.8020 O   0  0  0  0  0  1  0  0  0  0  0  0
  158.4680  211.7060  154.8010 C   0  0  0  0  0  0  0  0  0  0  0  0
  157.3330  212.5020  155.4100 C   0  0  0  0  0  2  0  0  0  0  0  0
  157.2720  210.9830  155.3890 C   0  0  0  0  0  2  0  0  0  0  0  0
  160.0230  212.2780  151.5170 O   0  0  0  0  0  1  0  0  0  0  0  0
  159.7310  212.5890  152.8440 C   0  0  1  0  0  3  0  0  0  0  0  0
  158.4700  213.2040  152.9060 O   0  0  0  0  0  0  0  0  0  0  0  0
  158.5220  211.8440  153.2750 C   0  0  2  0  0  3  0  0  0  0  0  0
  160.5980  204.7250  150.3090 C   0  0  0  0  0  2  0  0  0  0  0  0
  160.7740  203.2160  150.1970 C   0  0  0  0  0  2  0  0  0  0  0  0
  160.1560  202.6640  148.9120 C   0  0  1  0  0  3  0  0  0  0  0  0
  160.8460  201.3330  146.9700 N   0  0  0  0  0  2  0  0  0  0  0  0
  161.2590  203.6860  146.9640 N   0  0  2  0  0  0  0  0  0  0  0  0
  162.3040  205.9320  145.2690 C   0  0  0  0  0  2  0  0  0  0  0  0
  162.5020  205.7900  146.7800 C   0  0  0  0  0  2  0  0  0  0  0  0
  162.5400  204.3290  147.2180 C   0  0  0  0  0  2  0  0  0  0  0  0
  161.1950  202.4870  147.7970 C   0  0  1  0  0  3  0  0  0  0  0  0
  161.3130  203.1980  145.6010 C   0  0  1  0  0  3  0  0  0  0  0  0
  160.6910  201.8330  145.6180 C   0  0  0  0  0  2  0  0  0  0  0  0
  160.5610  204.1230  144.6470 C   0  0  0  0  0  2  0  0  0  0  0  0
  160.8700  205.6170  144.8220 C   0  0  1  0  0  3  0  0  0  0  0  0
  159.9310  206.2150  145.6660 O   0  0  0  0  0  1  0  0  0  0  0  0
  159.5090  201.4510  149.1740 O   0  0  0  0  0  0  0  0  0  0  0  0
  160.1140  200.9660  150.3350 C   0  0  0  0  0  1  0  0  0  0  0  0
  1  6  1  0  0  0  0
  1  4  1  0  0  0  0
  2 24  1  1  0  0  0
  2  1  1  0  0  0  0
  3  9  1  1  0  0  0
  3  5  1  0  0  0  0
  4  5  1  0  0  0  0
  5 10  1  1  0  0  0
  7  2  1  0  0  0  0
  7  3  1  0  0  0  0
  8  9  1  0  0  0  0
 10 11  1  0  0  0  0
 13 11  1  0  0  0  0
 13 14  1  0  0  0  0
 14 12  2  0  0  0  0
 15 14  1  0  0  0  0
 15 16  1  1  0  0  0
 17 19  1  0  0  0  0
 17 18  1  0  0  0  0
 17 15  1  0  0  0  0
 19 18  1  0  0  0  0
 21 20  1  6  0  0  0
 21 22  1  0  0  0  0
 21 23  1  0  0  0  0
 22 23  1  0  0  0  0
 23 17  1  1  0  0  0
 25 24  1  0  0  0  0
 26 38  1  0  0  0  0
 26 25  1  1  0  0  0
 27 32  1  0  0  0  0
 28 31  1  1  0  0  0
 28 32  1  0  0  0  0
 29 30  1  0  0  0  0
 30 31  1  0  0  0  0
 32 26  1  1  0  0  0
 33 35  1  6  0  0  0
 33 34  1  0  0  0  0
 33 28  1  0  0  0  0
 34 27  1  0  0  0  0
 35 36  1  0  0  0  0
 36 29  1  0  0  0  0
 36 37  1  1  0  0  0
 38 39  1  0  0  0  0
M  END
>  <MODEL>
6

>  <REMARK>
 VINA RESULT:      -6.4      1.420      1.760
  Name = 
  12 active torsions:
  status: ('A' for Active; 'I' for Inactive)
    1  A    between atoms: C_2  and  N_19
    2  A    between atoms: C_2  and  C_27
    3  A    between atoms: O_3  and  C_4
    4  A    between atoms: C_4  and  C_18
    5  A    between atoms: C_4  and  C_21
    6  A    between atoms: C_6  and  C_32
    7  A    between atoms: C_14  and  C_17
    8  A    between atoms: C_14  and  C_34
    9  A    between atoms: C_15  and  C_35
   10  A    between atoms: C_18  and  C_32
   11  A    between atoms: C_24  and  C_34
   12  A    between atoms: C_25  and  C_27
                            x       y       z     vdW  Elec       q    Type
                         _______ _______ _______ _____ _____    ______ ____

>  <TORSDO>
F 12

$$$$
=
 OpenBabel11042421573D

 39 43  0  0  1  0  0  0  0  0999 V2000
  161.7830  206.5930  152.8300 N   0  0  0  0  0  0  0  0  0  0  0  0
  161.9310  206.1550  151.4310 C   0  0  2  0  0  3  0  0  0  0  0  0
  161.4560  208.5260  150.6920 C   0  0  2  0  0  3  0  0  0  0  0  0
  160.7580  207.6300  152.9320 C   0  0  0  0  0  2  0  0  0  0  0  0
  161.1930  208.8780  152.1670 C   0  0  2  0  0  3  0  0  0  0  0  0
  161.3790  205.4690  153.6620 C   0  0  0  0  0  1  0  0  0  0  0  0
  162.4110  207.3310  150.5770 C   0  0  0  0  0  2  0  0  0  0  0  0
  161.8970  209.5210  148.4470 C   0  0  0  0  0  1  0  0  0  0  0  0
  162.0500  209.7110  149.9440 C   0  0  0  0  0  2  0  0  0  0  0  0
  160.0860  209.9180  152.2980 C   0  0  0  0  0  2  0  0  0  0  0  0
  160.6410  211.2650  152.7310 C   0  0  0  0  0  2  0  0  0  0  0  0
  160.8640  212.7910  150.3430 O   0  0  0  0  0  0  0  0  0  0  0  0
  159.7320  212.3290  152.3320 N   0  0  0  0  0  2  0  0  0  0  0  0
  159.9130  213.0670  151.1260 C   0  0  0  0  0  0  0  0  0  0  0  0
  158.9750  214.1890  150.8120 C   0  0  2  0  0  3  0  0  0  0  0  0
  158.1390  214.4520  151.8990 O   0  0  0  0  0  1  0  0  0  0  0  0
  158.1550  213.9200  149.5480 C   0  0  0  0  0  0  0  0  0  0  0  0
  156.6650  214.0510  149.7790 C   0  0  0  0  0  2  0  0  0  0  0  0
  157.2860  212.6780  149.5790 C   0  0  0  0  0  2  0  0  0  0  0  0
  159.2300  213.7000  146.0370 O   0  0  0  0  0  1  0  0  0  0  0  0
  159.3010  213.4050  147.3970 C   0  0  1  0  0  3  0  0  0  0  0  0
  159.9830  214.4400  148.0570 O   0  0  0  0  0  0  0  0  0  0  0  0
  158.5780  214.4450  148.1700 C   0  0  2  0  0  3  0  0  0  0  0  0
  160.6520  205.5410  150.8470 C   0  0  0  0  0  2  0  0  0  0  0  0
  160.8980  205.0750  149.4190 C   0  0  0  0  0  2  0  0  0  0  0  0
  160.7790  203.5560  149.2870 C   0  0  1  0  0  3  0  0  0  0  0  0
  161.1050  201.6690  147.7530 N   0  0  0  0  0  2  0  0  0  0  0  0
  161.4130  203.8910  146.9330 N   0  0  2  0  0  0  0  0  0  0  0  0
  161.9950  205.4710  144.4480 C   0  0  0  0  0  2  0  0  0  0  0  0
  162.5070  205.7990  145.8530 C   0  0  0  0  0  2  0  0  0  0  0  0
  162.6930  204.5460  146.7020 C   0  0  0  0  0  2  0  0  0  0  0  0
  161.5710  203.0130  148.0900 C   0  0  1  0  0  3  0  0  0  0  0  0
  161.2040  203.0020  145.8090 C   0  0  1  0  0  3  0  0  0  0  0  0
  160.6540  201.7280  146.3760 C   0  0  0  0  0  2  0  0  0  0  0  0
  160.2350  203.6050  144.7940 C   0  0  0  0  0  2  0  0  0  0  0  0
  160.5140  205.0710  144.4300 C   0  0  1  0  0  3  0  0  0  0  0  0
  159.7470  205.9260  145.2240 O   0  0  0  0  0  1  0  0  0  0  0  0
  161.1980  202.9370  150.4710 O   0  0  0  0  0  0  0  0  0  0  0  0
  160.0830  202.9790  151.3100 C   0  0  0  0  0  1  0  0  0  0  0  0
  1  4  1  0  0  0  0
  1  6  1  0  0  0  0
  2 24  1  6  0  0  0
  2  1  1  0  0  0  0
  3  9  1  6  0  0  0
  3  5  1  0  0  0  0
  5 10  1  6  0  0  0
  5  4  1  0  0  0  0
  7  3  1  0  0  0  0
  7  2  1  0  0  0  0
  8  9  1  0  0  0  0
 10 11  1  0  0  0  0
 12 14  2  0  0  0  0
 13 11  1  0  0  0  0
 14 13  1  0  0  0  0
 15 14  1  0  0  0  0
 15 16  1  1  0  0  0
 17 19  1  0  0  0  0
 17 18  1  0  0  0  0
 17 15  1  0  0  0  0
 19 18  1  0  0  0  0
 21 20  1  6  0  0  0
 21 22  1  0  0  0  0
 21 23  1  0  0  0  0
 22 23  1  0  0  0  0
 23 17  1  1  0  0  0
 25 24  1  0  0  0  0
 26 25  1  1  0  0  0
 26 38  1  0  0  0  0
 27 32  1  0  0  0  0
 28 31  1  6  0  0  0
 28 32  1  0  0  0  0
 29 30  1  0  0  0  0
 30 31  1  0  0  0  0
 32 26  1  1  0  0  0
 33 35  1  6  0  0  0
 33 34  1  0  0  0  0
 33 28  1  0  0  0  0
 34 27  1  0  0  0  0
 36 29  1  0  0  0  0
 36 35  1  0  0  0  0
 36 37  1  1  0  0  0
 38 39  1  0  0  0  0
M  END
>  <MODEL>
7

>  <REMARK>
 VINA RESULT:      -6.4      2.278      2.990
  Name = 
  12 active torsions:
  status: ('A' for Active; 'I' for Inactive)
    1  A    between atoms: C_2  and  N_19
    2  A    between atoms: C_2  and  C_27
    3  A    between atoms: O_3  and  C_4
    4  A    between atoms: C_4  and  C_18
    5  A    between atoms: C_4  and  C_21
    6  A    between atoms: C_6  and  C_32
    7  A    between atoms: C_14  and  C_17
    8  A    between atoms: C_14  and  C_34
    9  A    between atoms: C_15  and  C_35
   10  A    between atoms: C_18  and  C_32
   11  A    between atoms: C_24  and  C_34
   12  A    between atoms: C_25  and  C_27
                            x       y       z     vdW  Elec       q    Type
                         _______ _______ _______ _____ _____    ______ ____

>  <TORSDO>
F 12

$$$$
=
 OpenBabel11042421573D

 39 43  0  0  1  0  0  0  0  0999 V2000
  160.3970  206.9320  149.8740 N   0  0  0  0  0  0  0  0  0  0  0  0
  160.6160  205.7330  150.7020 C   0  0  2  0  0  3  0  0  0  0  0  0
  161.4660  207.2300  152.5530 C   0  0  2  0  0  3  0  0  0  0  0  0
  161.4290  207.9310  150.1420 C   0  0  0  0  0  2  0  0  0  0  0  0
  161.3280  208.4180  151.5850 C   0  0  2  0  0  3  0  0  0  0  0  0
  160.4590  206.5790  148.4620 C   0  0  0  0  0  1  0  0  0  0  0  0
  160.4910  206.1050  152.1800 C   0  0  0  0  0  2  0  0  0  0  0  0
  160.4560  206.5730  154.7380 C   0  0  0  0  0  1  0  0  0  0  0  0
  161.2030  207.6610  153.9890 C   0  0  0  0  0  2  0  0  0  0  0  0
  162.4310  209.4460  151.8110 C   0  0  0  0  0  2  0  0  0  0  0  0
  161.9970  210.5130  152.8030 C   0  0  0  0  0  2  0  0  0  0  0  0
  160.0770  211.5850  154.6040 O   0  0  0  0  0  0  0  0  0  0  0  0
  160.7030  211.0540  152.4180 N   0  0  0  0  0  2  0  0  0  0  0  0
  159.7780  211.5620  153.3790 C   0  0  0  0  0  0  0  0  0  0  0  0
  158.4400  212.0450  152.9160 C   0  0  2  0  0  3  0  0  0  0  0  0
  158.5080  212.4960  151.5960 O   0  0  0  0  0  1  0  0  0  0  0  0
  157.8690  213.1290  153.8320 C   0  0  0  0  0  0  0  0  0  0  0  0
  157.5320  214.4050  153.0890 C   0  0  0  0  0  2  0  0  0  0  0  0
  158.7360  214.3590  154.0160 C   0  0  0  0  0  2  0  0  0  0  0  0
  155.8060  211.0070  156.0180 O   0  0  0  0  0  1  0  0  0  0  0  0
  156.3030  211.4460  154.7920 C   0  0  1  0  0  3  0  0  0  0  0  0
  155.5820  212.5790  154.3820 O   0  0  0  0  0  0  0  0  0  0  0  0
  156.8550  212.8150  154.9390 C   0  0  2  0  0  3  0  0  0  0  0  0
  161.9560  205.0380  150.4230 C   0  0  0  0  0  2  0  0  0  0  0  0
  161.7530  203.5340  150.3080 C   0  0  0  0  0  2  0  0  0  0  0  0
  160.8120  203.1720  149.1580 C   0  0  1  0  0  3  0  0  0  0  0  0
  161.0240  201.4230  147.4510 N   0  0  0  0  0  2  0  0  0  0  0  0
  161.4740  203.6900  146.8450 N   0  0  2  0  0  0  0  0  0  0  0  0
  162.1620  205.4590  144.5200 C   0  0  0  0  0  2  0  0  0  0  0  0
  162.6880  205.6200  145.9490 C   0  0  0  0  0  2  0  0  0  0  0  0
  162.7930  204.2830  146.6740 C   0  0  0  0  0  2  0  0  0  0  0  0
  161.5720  202.6970  147.9130 C   0  0  1  0  0  3  0  0  0  0  0  0
  161.2130  202.9270  145.6420 C   0  0  1  0  0  3  0  0  0  0  0  0
  160.5830  201.6420  146.0860 C   0  0  0  0  0  2  0  0  0  0  0  0
  160.2870  203.6840  144.6910 C   0  0  0  0  0  2  0  0  0  0  0  0
  160.6580  205.1560  144.4680 C   0  0  1  0  0  3  0  0  0  0  0  0
  159.9440  205.9790  145.3420 O   0  0  0  0  0  1  0  0  0  0  0  0
  159.8990  202.1960  149.5740 O   0  0  0  0  0  0  0  0  0  0  0  0
  160.5340  201.5360  150.6270 C   0  0  0  0  0  1  0  0  0  0  0  0
  1  4  1  0  0  0  0
  1  2  1  0  0  0  0
  2 24  1  1  0  0  0
  2  7  1  0  0  0  0
  3  9  1  1  0  0  0
  4  5  1  0  0  0  0
  5 10  1  1  0  0  0
  5  3  1  0  0  0  0
  6  1  1  0  0  0  0
  7  3  1  0  0  0  0
  9  8  1  0  0  0  0
 10 11  1  0  0  0  0
 13 11  1  0  0  0  0
 13 14  1  0  0  0  0
 14 12  2  0  0  0  0
 15 16  1  6  0  0  0
 15 14  1  0  0  0  0
 15 17  1  0  0  0  0
 17 19  1  0  0  0  0
 18 17  1  0  0  0  0
 18 19  1  0  0  0  0
 21 23  1  0  0  0  0
 21 20  1  1  0  0  0
 22 21  1  0  0  0  0
 22 23  1  0  0  0  0
 23 17  1  6  0  0  0
 25 24  1  0  0  0  0
 26 38  1  0  0  0  0
 26 25  1  1  0  0  0
 27 32  1  0  0  0  0
 28 31  1  6  0  0  0
 28 32  1  0  0  0  0
 29 30  1  0  0  0  0
 30 31  1  0  0  0  0
 32 26  1  1  0  0  0
 33 35  1  6  0  0  0
 33 34  1  0  0  0  0
 33 28  1  0  0  0  0
 34 27  1  0  0  0  0
 36 29  1  0  0  0  0
 36 35  1  0  0  0  0
 36 37  1  1  0  0  0
 38 39  1  0  0  0  0
M  END
>  <MODEL>
8

>  <REMARK>
 VINA RESULT:      -6.3      1.480      2.743
  Name = 
  12 active torsions:
  status: ('A' for Active; 'I' for Inactive)
    1  A    between atoms: C_2  and  N_19
    2  A    between atoms: C_2  and  C_27
    3  A    between atoms: O_3  and  C_4
    4  A    between atoms: C_4  and  C_18
    5  A    between atoms: C_4  and  C_21
    6  A    between atoms: C_6  and  C_32
    7  A    between atoms: C_14  and  C_17
    8  A    between atoms: C_14  and  C_34
    9  A    between atoms: C_15  and  C_35
   10  A    between atoms: C_18  and  C_32
   11  A    between atoms: C_24  and  C_34
   12  A    between atoms: C_25  and  C_27
                            x       y       z     vdW  Elec       q    Type
                         _______ _______ _______ _____ _____    ______ ____

>  <TORSDO>
F 12

$$$$
=
 OpenBabel11042421573D

 39 43  0  0  1  0  0  0  0  0999 V2000
  162.3280  209.7130  150.1060 N   0  0  0  0  0  0  0  0  0  0  0  0
  161.9870  209.6000  151.5350 C   0  0  2  0  0  3  0  0  0  0  0  0
  161.5600  207.1330  151.1850 C   0  0  2  0  0  3  0  0  0  0  0  0
  161.5020  208.8060  149.3130 C   0  0  0  0  0  2  0  0  0  0  0  0
  161.8070  207.3560  149.6820 C   0  0  2  0  0  3  0  0  0  0  0  0
  162.0860  211.0720  149.6430 C   0  0  0  0  0  1  0  0  0  0  0  0
  162.2990  208.1840  152.0230 C   0  0  0  0  0  2  0  0  0  0  0  0
  161.1900  205.2610  152.7930 C   0  0  0  0  0  1  0  0  0  0  0  0
  162.0140  205.7450  151.6140 C   0  0  0  0  0  2  0  0  0  0  0  0
  160.9130  206.4580  148.8360 C   0  0  0  0  0  2  0  0  0  0  0  0
  161.1570  206.6760  147.3510 C   0  0  0  0  0  2  0  0  0  0  0  0
  162.9790  204.5870  146.7220 O   0  0  0  0  0  0  0  0  0  0  0  0
  160.8210  205.4700  146.6100 N   0  0  0  0  0  2  0  0  0  0  0  0
  161.7910  204.4680  146.3140 C   0  0  0  0  0  0  0  0  0  0  0  0
  161.3880  203.2840  145.4930 C   0  0  2  0  0  3  0  0  0  0  0  0
  160.4500  203.6520  144.5250 O   0  0  0  0  0  1  0  0  0  0  0  0
  160.8570  202.1370  146.3550 C   0  0  0  0  0  0  0  0  0  0  0  0
  160.8290  200.8150  145.6170 C   0  0  0  0  0  2  0  0  0  0  0  0
  159.5310  201.5450  145.9190 C   0  0  0  0  0  2  0  0  0  0  0  0
  160.4740  201.0440  149.8470 O   0  0  0  0  0  1  0  0  0  0  0  0
  160.0630  201.6660  148.6690 C   0  0  1  0  0  3  0  0  0  0  0  0
  160.6150  202.9560  148.6140 O   0  0  0  0  0  0  0  0  0  0  0  0
  161.2470  201.9720  147.8290 C   0  0  2  0  0  3  0  0  0  0  0  0
  160.5320  209.9780  151.8440 C   0  0  0  0  0  2  0  0  0  0  0  0
  160.4820  211.2960  152.6040 C   0  0  0  0  0  2  0  0  0  0  0  0
  159.1640  211.4680  153.3600 C   0  0  1  0  0  3  0  0  0  0  0  0
  158.1030  211.6500  155.5640 N   0  0  0  0  0  2  0  0  0  0  0  0
  160.2960  210.7150  155.4110 N   0  0  2  0  0  0  0  0  0  0  0  0
  162.4680  209.4180  157.0270 C   0  0  0  0  0  2  0  0  0  0  0  0
  162.6820  210.3930  155.8660 C   0  0  0  0  0  2  0  0  0  0  0  0
  161.5400  211.3960  155.7430 C   0  0  0  0  0  2  0  0  0  0  0  0
  159.3820  211.7130  154.8590 C   0  0  1  0  0  3  0  0  0  0  0  0
  159.7040  210.3150  156.6710 C   0  0  1  0  0  3  0  0  0  0  0  0
  158.2370  210.6000  156.5560 C   0  0  0  0  0  2  0  0  0  0  0  0
  159.9470  208.8350  156.9570 C   0  0  0  0  0  2  0  0  0  0  0  0
  161.3910  208.3640  156.7310 C   0  0  1  0  0  3  0  0  0  0  0  0
  161.5380  207.8340  155.4470 O   0  0  0  0  0  1  0  0  0  0  0  0
  158.4220  212.5130  152.7980 O   0  0  0  0  0  0  0  0  0  0  0  0
  159.2580  213.0650  151.8260 C   0  0  0  0  0  1  0  0  0  0  0  0
  1  2  1  0  0  0  0
  2 24  1  6  0  0  0
  2  7  1  0  0  0  0
  3  9  1  1  0  0  0
  3  7  1  0  0  0  0
  4  5  1  0  0  0  0
  4  1  1  0  0  0  0
  5 10  1  6  0  0  0
  5  3  1  0  0  0  0
  6  1  1  0  0  0  0
  9  8  1  0  0  0  0
 11 10  1  0  0  0  0
 13 11  1  0  0  0  0
 14 13  1  0  0  0  0
 14 12  2  0  0  0  0
 15 16  1  6  0  0  0
 15 14  1  0  0  0  0
 15 17  1  0  0  0  0
 18 19  1  0  0  0  0
 18 17  1  0  0  0  0
 19 17  1  0  0  0  0
 21 20  1  1  0  0  0
 22 21  1  0  0  0  0
 23 17  1  6  0  0  0
 23 22  1  0  0  0  0
 23 21  1  0  0  0  0
 24 25  1  0  0  0  0
 26 25  1  6  0  0  0
 27 34  1  0  0  0  0
 28 31  1  1  0  0  0
 28 33  1  0  0  0  0
 30 29  1  0  0  0  0
 31 30  1  0  0  0  0
 32 26  1  6  0  0  0
 32 28  1  0  0  0  0
 32 27  1  0  0  0  0
 33 34  1  6  0  0  0
 33 35  1  0  0  0  0
 36 37  1  6  0  0  0
 36 35  1  0  0  0  0
 36 29  1  0  0  0  0
 38 26  1  0  0  0  0
 39 38  1  0  0  0  0
M  END
>  <MODEL>
9

>  <REMARK>
 VINA RESULT:      -6.2      2.197     10.768
  Name = 
  12 active torsions:
  status: ('A' for Active; 'I' for Inactive)
    1  A    between atoms: C_2  and  N_19
    2  A    between atoms: C_2  and  C_27
    3  A    between atoms: O_3  and  C_4
    4  A    between atoms: C_4  and  C_18
    5  A    between atoms: C_4  and  C_21
    6  A    between atoms: C_6  and  C_32
    7  A    between atoms: C_14  and  C_17
    8  A    between atoms: C_14  and  C_34
    9  A    between atoms: C_15  and  C_35
   10  A    between atoms: C_18  and  C_32
   11  A    between atoms: C_24  and  C_34
   12  A    between atoms: C_25  and  C_27
                            x       y       z     vdW  Elec       q    Type
                         _______ _______ _______ _____ _____    ______ ____

>  <TORSDO>
F 12

$$$$
