=
 OpenBabel11042422083D

 50 56  0  0  1  0  0  0  0  0999 V2000
  160.1560  211.5860  152.6010 C   0  0  0  0  0  0  0  0  0  0  0  0
  160.9350  208.6950  152.6130 C   0  0  0  0  0  2  0  0  0  0  0  0
  161.9370  208.9520  150.6620 C   0  0  0  0  0  0  0  0  0  0  0  0
  160.7900  210.9050  151.5370 C   0  0  0  0  0  0  0  0  0  0  0  0
  161.1820  209.5540  151.6320 C   0  0  0  0  0  0  0  0  0  0  0  0
  162.2010  207.6910  150.9440 C   0  0  0  0  0  2  0  0  0  0  0  0
  159.6870  212.8920  152.4190 C   0  0  0  0  0  0  0  0  0  0  0  0
  161.1120  211.6030  150.3350 C   0  0  0  0  0  0  0  0  0  0  0  0
  162.5890  211.7240  148.3840 O   0  0  0  0  0  1  0  0  0  0  0  0
  161.5710  207.3830  152.2680 C   0  0  2  0  0  3  0  0  0  0  0  0
  162.0160  210.9920  149.4160 C   0  0  0  0  0  0  0  0  0  0  0  0
  160.5830  212.9090  150.1500 C   0  0  0  0  0  0  0  0  0  0  0  0
  162.3970  209.6560  149.5610 C   0  0  0  0  0  3  0  0  0  0  0  0
  159.8900  213.5260  151.1910 C   0  0  0  0  0  3  0  0  0  0  0  0
  160.6530  213.6160  148.9070 N   0  0  0  0  0  2  0  0  0  0  0  0
  159.7740  214.4440  146.6860 C   0  0  0  0  0  1  0  0  0  0  0  0
  159.6110  213.6350  147.9230 C   0  0  0  0  0  0  0  0  0  0  0  0
  158.5570  212.9630  148.0870 O   0  0  0  0  0  0  0  0  0  0  0  0
  160.1200  211.0080  153.8810 O   0  0  0  0  0  0  0  0  0  0  0  0
  161.8320  210.3250  156.8720 C   0  0  2  0  0  3  0  0  0  0  0  0
  163.2540  210.8150  155.0040 O   0  0  0  0  0  1  0  0  0  0  0  0
  161.9670  210.4310  155.3690 C   0  0  2  0  0  3  0  0  0  0  0  0
  161.6890  208.8650  157.2610 C   0  0  0  0  0  1  0  0  0  0  0  0
  160.6180  211.0280  157.1780 N   0  0  0  0  0  2  0  0  0  0  0  0
  160.9540  211.4930  154.9430 C   0  0  2  0  0  3  0  0  0  0  0  0
  160.1420  211.6660  156.1800 C   0  0  0  0  0  2  0  0  0  0  0  0
  160.4890  206.3140  152.0920 C   0  0  0  0  0  2  0  0  0  0  0  0
  162.3170  204.8050  151.8780 N   0  0  0  0  0  2  0  0  0  0  0  0
  160.2120  204.0030  151.4740 C   0  0  0  0  0  2  0  0  0  0  0  0
  160.9770  204.9330  152.2920 N   0  0  0  0  0  0  0  0  0  0  0  0
  161.1890  202.8990  151.1970 C   0  0  2  0  0  3  0  0  0  0  0  0
  162.5050  203.4650  151.4740 N   0  0  0  0  0  2  0  0  0  0  0  0
  161.1140  202.4420  149.7680 C   0  0  0  0  0  0  0  0  0  0  0  0
  161.5290  203.2480  148.8450 N   0  0  0  0  0  0  0  0  0  0  0  0
  159.0850  201.3050  149.2440 O   0  0  0  0  0  1  0  0  0  0  0  0
  160.4580  201.1250  149.4340 C   0  0  0  0  0  2  0  0  0  0  0  0
  161.4020  202.9610  147.4350 C   0  0  0  0  0  2  0  0  0  0  0  0
  161.0860  205.3940  147.2000 C   0  0  0  0  0  2  0  0  0  0  0  0
  161.7570  204.1920  146.6100 C   0  0  2  0  0  3  0  0  0  0  0  0
  160.6530  205.4060  144.8440 N   0  0  0  0  0  2  0  0  0  0  0  0
  160.8100  206.2710  146.0070 C   0  0  0  0  0  2  0  0  0  0  0  0
  161.1350  204.0830  145.2350 C   0  0  0  0  0  2  0  0  0  0  0  0
  159.0300  213.5590  153.5020 N   0  0  0  0  0  2  0  0  0  0  0  0
  157.1380  212.2370  153.9860 O   0  0  0  0  0  0  0  0  0  0  0  0
  156.3660  213.4050  155.7260 N   0  0  0  0  0  0  0  0  0  0  0  0
  156.3980  212.2580  155.1500 C   0  0  0  0  0  0  0  0  0  0  0  0
  157.5870  213.5540  153.7060 C   0  0  1  0  0  3  0  0  0  0  0  0
  157.2100  214.3290  154.9770 C   0  0  0  0  0  2  0  0  0  0  0  0
  155.1160  211.0930  156.9050 C   0  0  0  0  0  1  0  0  0  0  0  0
  155.6650  211.1560  155.5970 O   0  0  0  0  0  0  0  0  0  0  0  0
  1 19  1  0  0  0  0
  3  6  1  0  0  0  0
  3  5  2  0  0  0  0
  4  5  1  0  0  0  0
  4  1  2  0  0  0  0
  5  2  1  0  0  0  0
  6 10  1  0  0  0  0
  7  1  1  0  0  0  0
  7 43  1  0  0  0  0
  8  4  1  0  0  0  0
  9 11  1  0  0  0  0
 10 27  1  6  0  0  0
 10  2  1  0  0  0  0
 11 13  2  0  0  0  0
 11  8  1  0  0  0  0
 12  8  2  0  0  0  0
 12 14  1  0  0  0  0
 13  3  1  0  0  0  0
 14  7  2  0  0  0  0
 15 12  1  0  0  0  0
 16 17  1  0  0  0  0
 17 18  2  0  0  0  0
 17 15  1  0  0  0  0
 20 24  1  0  0  0  0
 20 23  1  6  0  0  0
 22 21  1  1  0  0  0
 22 20  1  0  0  0  0
 25 19  1  6  0  0  0
 25 22  1  0  0  0  0
 25 26  1  0  0  0  0
 26 24  1  0  0  0  0
 27 30  1  0  0  0  0
 28 30  1  0  0  0  0
 29 30  1  0  0  0  0
 31 33  1  6  0  0  0
 31 29  1  0  0  0  0
 31 32  1  0  0  0  0
 32 28  1  0  0  0  0
 34 33  2  0  0  0  0
 35 36  1  0  0  0  0
 36 33  1  0  0  0  0
 37 34  1  0  0  0  0
 39 38  1  0  0  0  0
 39 37  1  1  0  0  0
 40 42  1  0  0  0  0
 40 41  1  0  0  0  0
 41 38  1  0  0  0  0
 42 39  1  0  0  0  0
 44 46  1  0  0  0  0
 46 50  1  0  0  0  0
 46 45  2  0  0  0  0
 47 43  1  1  0  0  0
 47 44  1  0  0  0  0
 47 48  1  0  0  0  0
 48 45  1  0  0  0  0
 50 49  1  0  0  0  0
M  END
>  <MODEL>
1

>  <REMARK>
 VINA RESULT:      -6.7      0.000      0.000
  Name = 
  12 active torsions:
  status: ('A' for Active; 'I' for Inactive)
    1  A    between atoms: C_1  and  O_10
    2  A    between atoms: N_2  and  C_39
    3  A    between atoms: CA_3  and  C_37
    4  A    between atoms: CA_3  and  C_46
    5  A    between atoms: C_8  and  C_15
    6  A    between atoms: C_8  and  N_25
    7  A    between atoms: O_10  and  C_41
    8  A    between atoms: C_12  and  N_34
    9  A    between atoms: C_12  and  C_35
   10  A    between atoms: C_19  and  N_21
   11  A    between atoms: N_21  and  C_49
   12  A    between atoms: O_28  and  C_47
                            x       y       z     vdW  Elec       q    Type
                         _______ _______ _______ _____ _____    ______ ____

>  <TORSDO>
F 12

$$$$
=
 OpenBabel11042422083D

 50 56  0  0  1  0  0  0  0  0999 V2000
  160.6460  206.8710  149.7400 C   0  0  0  0  0  0  0  0  0  0  0  0
  160.7740  208.0460  152.4910 C   0  0  0  0  0  2  0  0  0  0  0  0
  161.4110  206.0930  153.3020 C   0  0  0  0  0  0  0  0  0  0  0  0
  160.9010  206.1480  150.9280 C   0  0  0  0  0  0  0  0  0  0  0  0
  161.0040  206.7750  152.1860 C   0  0  0  0  0  0  0  0  0  0  0  0
  161.4470  206.8620  154.3720 C   0  0  0  0  0  2  0  0  0  0  0  0
  160.4420  206.1900  148.5340 C   0  0  0  0  0  0  0  0  0  0  0  0
  161.1260  204.7410  150.8720 C   0  0  0  0  0  0  0  0  0  0  0  0
  162.1870  202.8040  151.9330 O   0  0  0  0  0  1  0  0  0  0  0  0
  161.0350  208.2400  153.9530 C   0  0  2  0  0  3  0  0  0  0  0  0
  161.6820  204.0940  152.0160 C   0  0  0  0  0  0  0  0  0  0  0  0
  160.8630  204.0620  149.6510 C   0  0  0  0  0  0  0  0  0  0  0  0
  161.7880  204.7620  153.2390 C   0  0  0  0  0  3  0  0  0  0  0  0
  160.5340  204.7970  148.5110 C   0  0  0  0  0  3  0  0  0  0  0  0
  160.8410  202.6350  149.5330 N   0  0  0  0  0  2  0  0  0  0  0  0
  161.0960  200.4290  148.3260 C   0  0  0  0  0  1  0  0  0  0  0  0
  161.1010  201.9150  148.3220 C   0  0  0  0  0  0  0  0  0  0  0  0
  161.3230  202.5290  147.2420 O   0  0  0  0  0  0  0  0  0  0  0  0
  160.7360  208.2720  149.7400 O   0  0  0  0  0  0  0  0  0  0  0  0
  162.4980  211.2880  149.3670 C   0  0  2  0  0  3  0  0  0  0  0  0
  162.7130  210.2740  151.5300 O   0  0  0  0  0  1  0  0  0  0  0  0
  161.9470  210.2970  150.3670 C   0  0  2  0  0  3  0  0  0  0  0  0
  161.5470  212.4650  149.2530 C   0  0  0  0  0  1  0  0  0  0  0  0
  162.5320  210.5720  148.1240 N   0  0  0  0  0  2  0  0  0  0  0  0
  162.0050  208.9390  149.6680 C   0  0  2  0  0  3  0  0  0  0  0  0
  162.2900  209.3250  148.2570 C   0  0  0  0  0  2  0  0  0  0  0  0
  159.7360  208.6320  154.6630 C   0  0  0  0  0  2  0  0  0  0  0  0
  158.8500  210.1540  156.2640 N   0  0  0  0  0  2  0  0  0  0  0  0
  159.2420  210.9320  154.1480 C   0  0  0  0  0  2  0  0  0  0  0  0
  159.7300  210.0190  155.1720 N   0  0  0  0  0  0  0  0  0  0  0  0
  158.6140  212.0410  154.9400 C   0  0  2  0  0  3  0  0  0  0  0  0
  158.3920  211.4890  156.2720 N   0  0  0  0  0  2  0  0  0  0  0  0
  157.3090  212.4770  154.3370 C   0  0  0  0  0  0  0  0  0  0  0  0
  157.3410  213.2580  153.3070 N   0  0  0  0  0  0  0  0  0  0  0  0
  155.5680  210.8600  154.5290 O   0  0  0  0  0  1  0  0  0  0  0  0
  156.0100  212.0980  155.0050 C   0  0  0  0  0  2  0  0  0  0  0  0
  156.1520  213.8280  152.7150 C   0  0  0  0  0  2  0  0  0  0  0  0
  155.7590  213.7070  150.2850 C   0  0  0  0  0  2  0  0  0  0  0  0
  156.4820  214.4510  151.3640 C   0  0  2  0  0  3  0  0  0  0  0  0
  158.0460  213.9250  149.6070 N   0  0  0  0  0  2  0  0  0  0  0  0
  156.6840  213.8050  149.1010 C   0  0  0  0  0  2  0  0  0  0  0  0
  157.9400  214.2180  151.0350 C   0  0  0  0  0  2  0  0  0  0  0  0
  160.1660  206.9380  147.3450 N   0  0  0  0  0  2  0  0  0  0  0  0
  162.1200  206.0700  146.3510 O   0  0  0  0  0  0  0  0  0  0  0  0
  161.1670  205.0280  144.6220 N   0  0  0  0  0  0  0  0  0  0  0  0
  162.1850  205.0700  145.4030 C   0  0  0  0  0  0  0  0  0  0  0  0
  160.9530  206.8430  146.1220 C   0  0  1  0  0  3  0  0  0  0  0  0
  160.2060  206.0380  145.0500 C   0  0  0  0  0  2  0  0  0  0  0  0
  164.2740  204.0890  146.2710 C   0  0  0  0  0  1  0  0  0  0  0  0
  163.3080  204.2530  145.2440 O   0  0  0  0  0  0  0  0  0  0  0  0
  1 19  1  0  0  0  0
  1  4  1  0  0  0  0
  2 10  1  0  0  0  0
  3  6  1  0  0  0  0
  4  5  1  0  0  0  0
  5  2  1  0  0  0  0
  5  3  2  0  0  0  0
  7  1  2  0  0  0  0
  8  4  2  0  0  0  0
  8 11  1  0  0  0  0
  9 11  1  0  0  0  0
 10  6  1  0  0  0  0
 10 27  1  1  0  0  0
 11 13  2  0  0  0  0
 12  8  1  0  0  0  0
 13  3  1  0  0  0  0
 14  7  1  0  0  0  0
 14 12  2  0  0  0  0
 15 12  1  0  0  0  0
 17 16  1  0  0  0  0
 17 15  1  0  0  0  0
 18 17  2  0  0  0  0
 20 23  1  6  0  0  0
 20 22  1  0  0  0  0
 22 21  1  1  0  0  0
 24 26  1  0  0  0  0
 24 20  1  0  0  0  0
 25 19  1  6  0  0  0
 25 22  1  0  0  0  0
 26 25  1  0  0  0  0
 27 30  1  0  0  0  0
 28 32  1  0  0  0  0
 29 31  1  0  0  0  0
 29 30  1  0  0  0  0
 30 28  1  0  0  0  0
 31 33  1  6  0  0  0
 31 32  1  0  0  0  0
 33 36  1  0  0  0  0
 34 33  2  0  0  0  0
 35 36  1  0  0  0  0
 37 34  1  0  0  0  0
 38 39  1  0  0  0  0
 39 37  1  1  0  0  0
 40 42  1  0  0  0  0
 41 40  1  0  0  0  0
 41 38  1  0  0  0  0
 42 39  1  0  0  0  0
 43  7  1  0  0  0  0
 45 48  1  0  0  0  0
 45 46  2  0  0  0  0
 46 44  1  0  0  0  0
 47 44  1  0  0  0  0
 47 43  1  1  0  0  0
 48 47  1  0  0  0  0
 50 46  1  0  0  0  0
 50 49  1  0  0  0  0
M  END
>  <MODEL>
2

>  <REMARK>
 VINA RESULT:      -5.4      2.444      9.579
  Name = 
  12 active torsions:
  status: ('A' for Active; 'I' for Inactive)
    1  A    between atoms: C_1  and  O_10
    2  A    between atoms: N_2  and  C_39
    3  A    between atoms: CA_3  and  C_37
    4  A    between atoms: CA_3  and  C_46
    5  A    between atoms: C_8  and  C_15
    6  A    between atoms: C_8  and  N_25
    7  A    between atoms: O_10  and  C_41
    8  A    between atoms: C_12  and  N_34
    9  A    between atoms: C_12  and  C_35
   10  A    between atoms: C_19  and  N_21
   11  A    between atoms: N_21  and  C_49
   12  A    between atoms: O_28  and  C_47
                            x       y       z     vdW  Elec       q    Type
                         _______ _______ _______ _____ _____    ______ ____

>  <TORSDO>
F 12

$$$$
=
 OpenBabel11042422083D

 50 56  0  0  1  0  0  0  0  0999 V2000
  160.9780  209.9970  151.1860 C   0  0  0  0  0  0  0  0  0  0  0  0
  161.2510  208.1730  148.8270 C   0  0  0  0  0  2  0  0  0  0  0  0
  161.1980  206.4200  150.1690 C   0  0  0  0  0  0  0  0  0  0  0  0
  161.1400  208.5940  151.2510 C   0  0  0  0  0  0  0  0  0  0  0  0
  161.2050  207.7870  150.0960 C   0  0  0  0  0  0  0  0  0  0  0  0
  161.2570  205.8550  148.9800 C   0  0  0  0  0  2  0  0  0  0  0  0
  161.0310  210.7640  152.3560 C   0  0  0  0  0  0  0  0  0  0  0  0
  161.1810  207.9380  152.5170 C   0  0  0  0  0  0  0  0  0  0  0  0
  160.7740  205.8590  153.7480 O   0  0  0  0  0  1  0  0  0  0  0  0
  161.2940  206.9520  147.9600 C   0  0  2  0  0  3  0  0  0  0  0  0
  161.0300  206.5200  152.5530 C   0  0  0  0  0  0  0  0  0  0  0  0
  161.2860  208.7360  153.6880 C   0  0  0  0  0  0  0  0  0  0  0  0
  161.0760  205.7610  151.3810 C   0  0  0  0  0  3  0  0  0  0  0  0
  161.2040  210.1240  153.5860 C   0  0  0  0  0  3  0  0  0  0  0  0
  161.5530  208.1950  154.9870 N   0  0  0  0  0  2  0  0  0  0  0  0
  160.9370  207.2760  157.2600 C   0  0  0  0  0  1  0  0  0  0  0  0
  160.5480  207.8790  155.9580 C   0  0  0  0  0  0  0  0  0  0  0  0
  159.3310  208.1180  155.7280 O   0  0  0  0  0  0  0  0  0  0  0  0
  160.6250  210.6060  149.9710 O   0  0  0  0  0  0  0  0  0  0  0  0
  161.0850  212.9850  147.4280 C   0  0  2  0  0  3  0  0  0  0  0  0
  159.8060  213.7680  149.3000 O   0  0  0  0  0  1  0  0  0  0  0  0
  160.2690  212.6270  148.6490 C   0  0  2  0  0  3  0  0  0  0  0  0
  160.3110  212.6050  146.1790 C   0  0  0  0  0  1  0  0  0  0  0  0
  162.2670  212.1760  147.5290 N   0  0  0  0  0  2  0  0  0  0  0  0
  161.2170  211.8460  149.5580 C   0  0  2  0  0  3  0  0  0  0  0  0
  162.3680  211.5760  148.6510 C   0  0  0  0  0  2  0  0  0  0  0  0
  162.6200  206.9070  147.1960 C   0  0  0  0  0  2  0  0  0  0  0  0
  161.3340  206.2450  145.3060 N   0  0  0  0  0  2  0  0  0  0  0  0
  162.6860  204.6790  146.2840 C   0  0  0  0  0  2  0  0  0  0  0  0
  162.5710  206.0940  145.9630 N   0  0  0  0  0  0  0  0  0  0  0  0
  161.9240  204.0080  145.1790 C   0  0  2  0  0  3  0  0  0  0  0  0
  161.0870  205.0510  144.5950 N   0  0  0  0  0  2  0  0  0  0  0  0
  161.0670  202.8900  145.7010 C   0  0  0  0  0  0  0  0  0  0  0  0
  161.3620  202.3790  146.8520 N   0  0  0  0  0  0  0  0  0  0  0  0
  160.1270  200.9330  144.7160 O   0  0  0  0  0  1  0  0  0  0  0  0
  159.9720  202.3170  144.8360 C   0  0  0  0  0  2  0  0  0  0  0  0
  160.6780  201.2300  147.4010 C   0  0  0  0  0  2  0  0  0  0  0  0
  160.7510  202.8500  149.2580 C   0  0  0  0  0  2  0  0  0  0  0  0
  160.2200  201.5190  148.8250 C   0  0  2  0  0  3  0  0  0  0  0  0
  161.2360  201.2770  150.9980 N   0  0  0  0  0  2  0  0  0  0  0  0
  160.9650  202.6860  150.7390 C   0  0  0  0  0  2  0  0  0  0  0  0
  160.8820  200.5500  149.7810 C   0  0  0  0  0  2  0  0  0  0  0  0
  160.8850  212.1850  152.2690 N   0  0  0  0  0  2  0  0  0  0  0  0
  158.5540  212.0680  152.6080 O   0  0  0  0  0  0  0  0  0  0  0  0
  158.5030  212.7540  154.7330 N   0  0  0  0  0  0  0  0  0  0  0  0
  157.9000  212.0780  153.8230 C   0  0  0  0  0  0  0  0  0  0  0  0
  159.6930  212.9080  152.6950 C   0  0  1  0  0  3  0  0  0  0  0  0
  159.7640  213.2480  154.1910 C   0  0  0  0  0  2  0  0  0  0  0  0
  156.2120  211.0110  155.2700 C   0  0  0  0  0  1  0  0  0  0  0  0
  156.6420  211.4970  154.0070 O   0  0  0  0  0  0  0  0  0  0  0  0
  1  4  2  0  0  0  0
  1  7  1  0  0  0  0
  2  5  1  0  0  0  0
  3 13  1  0  0  0  0
  4  8  1  0  0  0  0
  5  3  2  0  0  0  0
  5  4  1  0  0  0  0
  6  3  1  0  0  0  0
  7 14  2  0  0  0  0
  8 11  1  0  0  0  0
  8 12  2  0  0  0  0
 10 27  1  1  0  0  0
 10  2  1  0  0  0  0
 10  6  1  0  0  0  0
 11  9  1  0  0  0  0
 12 15  1  0  0  0  0
 13 11  2  0  0  0  0
 14 12  1  0  0  0  0
 15 17  1  0  0  0  0
 17 16  1  0  0  0  0
 18 17  2  0  0  0  0
 19  1  1  0  0  0  0
 20 23  1  6  0  0  0
 20 24  1  0  0  0  0
 20 22  1  0  0  0  0
 22 21  1  1  0  0  0
 22 25  1  0  0  0  0
 24 26  1  0  0  0  0
 25 19  1  6  0  0  0
 26 25  1  0  0  0  0
 28 30  1  0  0  0  0
 30 29  1  0  0  0  0
 30 27  1  0  0  0  0
 31 33  1  1  0  0  0
 31 29  1  0  0  0  0
 32 31  1  0  0  0  0
 32 28  1  0  0  0  0
 33 34  2  0  0  0  0
 34 37  1  0  0  0  0
 35 36  1  0  0  0  0
 36 33  1  0  0  0  0
 38 41  1  0  0  0  0
 39 37  1  6  0  0  0
 39 38  1  0  0  0  0
 39 42  1  0  0  0  0
 41 40  1  0  0  0  0
 42 40  1  0  0  0  0
 43  7  1  0  0  0  0
 44 47  1  0  0  0  0
 44 46  1  0  0  0  0
 46 50  1  0  0  0  0
 46 45  2  0  0  0  0
 47 43  1  1  0  0  0
 47 48  1  0  0  0  0
 48 45  1  0  0  0  0
 50 49  1  0  0  0  0
M  END
>  <MODEL>
3

>  <REMARK>
 VINA RESULT:      -5.4      2.080      5.862
  Name = 
  12 active torsions:
  status: ('A' for Active; 'I' for Inactive)
    1  A    between atoms: C_1  and  O_10
    2  A    between atoms: N_2  and  C_39
    3  A    between atoms: CA_3  and  C_37
    4  A    between atoms: CA_3  and  C_46
    5  A    between atoms: C_8  and  C_15
    6  A    between atoms: C_8  and  N_25
    7  A    between atoms: O_10  and  C_41
    8  A    between atoms: C_12  and  N_34
    9  A    between atoms: C_12  and  C_35
   10  A    between atoms: C_19  and  N_21
   11  A    between atoms: N_21  and  C_49
   12  A    between atoms: O_28  and  C_47
                            x       y       z     vdW  Elec       q    Type
                         _______ _______ _______ _____ _____    ______ ____

>  <TORSDO>
F 12

$$$$
=
 OpenBabel11042422083D

 50 56  0  0  1  0  0  0  0  0999 V2000
  160.5620  209.9990  152.8970 C   0  0  0  0  0  0  0  0  0  0  0  0
  160.9290  207.0810  152.3370 C   0  0  0  0  0  2  0  0  0  0  0  0
  161.8310  207.5640  150.3800 C   0  0  0  0  0  0  0  0  0  0  0  0
  161.0260  209.4520  151.6790 C   0  0  0  0  0  0  0  0  0  0  0  0
  161.2300  208.0680  151.5020 C   0  0  0  0  0  0  0  0  0  0  0  0
  161.9330  206.2510  150.4140 C   0  0  0  0  0  2  0  0  0  0  0  0
  160.2690  211.3660  152.9860 C   0  0  0  0  0  0  0  0  0  0  0  0
  161.3650  210.3120  150.5930 C   0  0  0  0  0  0  0  0  0  0  0  0
  162.7170  210.6040  148.5710 O   0  0  0  0  0  1  0  0  0  0  0  0
  161.3530  205.7860  151.7150 C   0  0  2  0  0  3  0  0  0  0  0  0
  162.1140  209.7730  149.5060 C   0  0  0  0  0  0  0  0  0  0  0  0
  161.0130  211.6860  150.6850 C   0  0  0  0  0  0  0  0  0  0  0  0
  162.3130  208.3950  149.3830 C   0  0  0  0  0  3  0  0  0  0  0  0
  160.4810  212.1840  151.8740 C   0  0  0  0  0  3  0  0  0  0  0  0
  161.1010  212.5960  149.5820 N   0  0  0  0  0  2  0  0  0  0  0  0
  160.2270  214.3240  147.9580 C   0  0  0  0  0  1  0  0  0  0  0  0
  160.0080  213.3750  149.0820 C   0  0  0  0  0  0  0  0  0  0  0  0
  158.8540  213.2590  149.5760 O   0  0  0  0  0  0  0  0  0  0  0  0
  160.5270  209.2050  154.0540 O   0  0  0  0  0  0  0  0  0  0  0  0
  162.3890  210.5510  156.7120 C   0  0  2  0  0  3  0  0  0  0  0  0
  161.3220  208.4610  157.2060 O   0  0  0  0  0  1  0  0  0  0  0  0
  161.3210  209.5480  156.3370 C   0  0  2  0  0  3  0  0  0  0  0  0
  161.7310  211.8040  157.2600 C   0  0  0  0  0  1  0  0  0  0  0  0
  163.0530  210.8550  155.4760 N   0  0  0  0  0  2  0  0  0  0  0  0
  161.6670  209.0960  154.9200 C   0  0  2  0  0  3  0  0  0  0  0  0
  162.7010  210.0890  154.5170 C   0  0  0  0  0  2  0  0  0  0  0  0
  160.1230  204.9120  151.4520 C   0  0  0  0  0  2  0  0  0  0  0  0
  161.7950  203.2190  151.3970 N   0  0  0  0  0  2  0  0  0  0  0  0
  159.8360  202.8270  150.2810 C   0  0  0  0  0  2  0  0  0  0  0  0
  160.4090  203.4620  151.4590 N   0  0  0  0  0  0  0  0  0  0  0  0
  160.7510  201.6640  150.0330 C   0  0  2  0  0  3  0  0  0  0  0  0
  161.9750  201.9680  150.7670 N   0  0  0  0  0  2  0  0  0  0  0  0
  161.0540  201.5050  148.5700 C   0  0  0  0  0  0  0  0  0  0  0  0
  160.9620  202.5470  147.8080 N   0  0  0  0  0  0  0  0  0  0  0  0
  161.3840  200.1860  146.6110 O   0  0  0  0  0  1  0  0  0  0  0  0
  161.3380  200.1340  148.0070 C   0  0  0  0  0  2  0  0  0  0  0  0
  161.1210  202.4880  146.3730 C   0  0  0  0  0  2  0  0  0  0  0  0
  162.1290  204.6430  147.0200 C   0  0  0  0  0  2  0  0  0  0  0  0
  161.7540  203.7750  145.8590 C   0  0  2  0  0  3  0  0  0  0  0  0
  160.9330  206.0060  145.4550 N   0  0  0  0  0  2  0  0  0  0  0  0
  161.9580  206.0420  146.4920 C   0  0  0  0  0  2  0  0  0  0  0  0
  160.7150  204.5990  145.1280 C   0  0  0  0  0  2  0  0  0  0  0  0
  159.7820  211.8990  154.2220 N   0  0  0  0  0  2  0  0  0  0  0  0
  157.6610  212.8380  153.7990 O   0  0  0  0  0  0  0  0  0  0  0  0
  157.2230  213.5840  155.8570 N   0  0  0  0  0  0  0  0  0  0  0  0
  156.7200  213.1980  154.7410 C   0  0  0  0  0  0  0  0  0  0  0  0
  158.9540  213.0940  154.3230 C   0  0  1  0  0  3  0  0  0  0  0  0
  158.6730  213.4430  155.7910 C   0  0  0  0  0  2  0  0  0  0  0  0
  154.6140  214.4530  154.4790 C   0  0  0  0  0  1  0  0  0  0  0  0
  155.3510  213.2410  154.4610 O   0  0  0  0  0  0  0  0  0  0  0  0
  1  7  1  0  0  0  0
  1 19  1  0  0  0  0
  3  6  1  0  0  0  0
  3  5  2  0  0  0  0
  4  1  2  0  0  0  0
  5  4  1  0  0  0  0
  5  2  1  0  0  0  0
  6 10  1  0  0  0  0
  7 43  1  0  0  0  0
  8 12  2  0  0  0  0
  8  4  1  0  0  0  0
  9 11  1  0  0  0  0
 10 27  1  6  0  0  0
 10  2  1  0  0  0  0
 11  8  1  0  0  0  0
 12 14  1  0  0  0  0
 13 11  2  0  0  0  0
 13  3  1  0  0  0  0
 14  7  2  0  0  0  0
 15 12  1  0  0  0  0
 16 17  1  0  0  0  0
 17 18  2  0  0  0  0
 17 15  1  0  0  0  0
 20 23  1  6  0  0  0
 22 20  1  0  0  0  0
 22 21  1  1  0  0  0
 24 20  1  0  0  0  0
 25 19  1  6  0  0  0
 25 22  1  0  0  0  0
 26 25  1  0  0  0  0
 26 24  1  0  0  0  0
 27 30  1  0  0  0  0
 28 30  1  0  0  0  0
 29 30  1  0  0  0  0
 31 33  1  6  0  0  0
 31 29  1  0  0  0  0
 31 32  1  0  0  0  0
 32 28  1  0  0  0  0
 34 33  2  0  0  0  0
 35 36  1  0  0  0  0
 36 33  1  0  0  0  0
 37 34  1  0  0  0  0
 39 37  1  1  0  0  0
 39 38  1  0  0  0  0
 40 41  1  0  0  0  0
 41 38  1  0  0  0  0
 42 40  1  0  0  0  0
 42 39  1  0  0  0  0
 44 47  1  0  0  0  0
 44 46  1  0  0  0  0
 46 45  2  0  0  0  0
 47 43  1  1  0  0  0
 47 48  1  0  0  0  0
 48 45  1  0  0  0  0
 50 49  1  0  0  0  0
 50 46  1  0  0  0  0
M  END
>  <MODEL>
4

>  <REMARK>
 VINA RESULT:      -5.2      1.536      1.875
  Name = 
  12 active torsions:
  status: ('A' for Active; 'I' for Inactive)
    1  A    between atoms: C_1  and  O_10
    2  A    between atoms: N_2  and  C_39
    3  A    between atoms: CA_3  and  C_37
    4  A    between atoms: CA_3  and  C_46
    5  A    between atoms: C_8  and  C_15
    6  A    between atoms: C_8  and  N_25
    7  A    between atoms: O_10  and  C_41
    8  A    between atoms: C_12  and  N_34
    9  A    between atoms: C_12  and  C_35
   10  A    between atoms: C_19  and  N_21
   11  A    between atoms: N_21  and  C_49
   12  A    between atoms: O_28  and  C_47
                            x       y       z     vdW  Elec       q    Type
                         _______ _______ _______ _____ _____    ______ ____

>  <TORSDO>
F 12

$$$$
=
 OpenBabel11042422083D

 50 56  0  0  1  0  0  0  0  0999 V2000
  159.9520  210.4900  154.2450 C   0  0  0  0  0  0  0  0  0  0  0  0
  160.8110  207.6740  153.6980 C   0  0  0  0  0  2  0  0  0  0  0  0
  161.6500  208.3030  151.7540 C   0  0  0  0  0  0  0  0  0  0  0  0
  160.5200  210.0280  153.0360 C   0  0  0  0  0  0  0  0  0  0  0  0
  160.9560  208.6980  152.8660 C   0  0  0  0  0  0  0  0  0  0  0  0
  161.9700  207.0250  151.7930 C   0  0  0  0  0  2  0  0  0  0  0  0
  159.4330  211.7880  154.3260 C   0  0  0  0  0  0  0  0  0  0  0  0
  160.7270  210.9340  151.9530 C   0  0  0  0  0  0  0  0  0  0  0  0
  162.0430  211.4490  149.9520 O   0  0  0  0  0  1  0  0  0  0  0  0
  161.4550  206.4690  153.0850 C   0  0  2  0  0  3  0  0  0  0  0  0
  161.5730  210.5280  150.8790 C   0  0  0  0  0  0  0  0  0  0  0  0
  160.1490  212.2290  152.0360 C   0  0  0  0  0  0  0  0  0  0  0  0
  162.0020  209.2030  150.7620 C   0  0  0  0  0  3  0  0  0  0  0  0
  159.5220  212.6300  153.2160 C   0  0  0  0  0  3  0  0  0  0  0  0
  160.1010  213.1410  150.9330 N   0  0  0  0  0  2  0  0  0  0  0  0
  158.9760  214.4520  149.0870 C   0  0  0  0  0  1  0  0  0  0  0  0
  158.9180  213.4530  150.1870 C   0  0  0  0  0  0  0  0  0  0  0  0
  157.8250  212.8790  150.4430 O   0  0  0  0  0  0  0  0  0  0  0  0
  160.0330  209.7000  155.4040 O   0  0  0  0  0  0  0  0  0  0  0  0
  163.0770  210.8280  156.7460 C   0  0  2  0  0  3  0  0  0  0  0  0
  161.3220  212.4640  156.7530 O   0  0  0  0  0  1  0  0  0  0  0  0
  161.7380  211.2600  156.1910 C   0  0  2  0  0  3  0  0  0  0  0  0
  164.1340  210.9610  155.6660 C   0  0  0  0  0  1  0  0  0  0  0  0
  162.9020  209.4440  157.0840 N   0  0  0  0  0  2  0  0  0  0  0  0
  160.7660  210.1390  156.5570 C   0  0  2  0  0  3  0  0  0  0  0  0
  161.6870  209.0590  157.0080 C   0  0  0  0  0  2  0  0  0  0  0  0
  160.3940  205.4010  152.8050 C   0  0  0  0  0  2  0  0  0  0  0  0
  162.2260  204.0700  152.0740 N   0  0  0  0  0  2  0  0  0  0  0  0
  160.1120  203.2520  151.7550 C   0  0  0  0  0  2  0  0  0  0  0  0
  160.9430  204.0380  152.6560 N   0  0  0  0  0  0  0  0  0  0  0  0
  161.0810  202.2830  151.1440 C   0  0  2  0  0  3  0  0  0  0  0  0
  162.4030  202.8530  151.3810 N   0  0  0  0  0  2  0  0  0  0  0  0
  160.8430  202.1230  149.6690 C   0  0  0  0  0  0  0  0  0  0  0  0
  161.4520  202.9290  148.8610 N   0  0  0  0  0  0  0  0  0  0  0  0
  158.5370  201.5430  149.5090 O   0  0  0  0  0  1  0  0  0  0  0  0
  159.8280  201.1220  149.1760 C   0  0  0  0  0  2  0  0  0  0  0  0
  161.2150  202.9390  147.4350 C   0  0  0  0  0  2  0  0  0  0  0  0
  161.5290  205.3850  147.4330 C   0  0  0  0  0  2  0  0  0  0  0  0
  161.9530  204.1030  146.7850 C   0  0  2  0  0  3  0  0  0  0  0  0
  161.3970  205.6930  145.0610 N   0  0  0  0  0  2  0  0  0  0  0  0
  161.6190  206.3950  146.3200 C   0  0  0  0  0  2  0  0  0  0  0  0
  161.4920  204.2650  145.3520 C   0  0  0  0  0  2  0  0  0  0  0  0
  158.8450  212.2320  155.5540 N   0  0  0  0  0  2  0  0  0  0  0  0
  156.7660  213.2710  155.1520 O   0  0  0  0  0  0  0  0  0  0  0  0
  155.6430  211.4780  154.4380 N   0  0  0  0  0  0  0  0  0  0  0  0
  155.7220  212.7590  154.4100 C   0  0  0  0  0  0  0  0  0  0  0  0
  157.4140  212.2040  155.8270 C   0  0  1  0  0  3  0  0  0  0  0  0
  156.7620  210.9560  155.2130 C   0  0  0  0  0  2  0  0  0  0  0  0
  154.8610  213.8920  152.3960 C   0  0  0  0  0  1  0  0  0  0  0  0
  154.7780  213.5720  153.7760 O   0  0  0  0  0  0  0  0  0  0  0  0
  1  7  1  0  0  0  0
  1 19  1  0  0  0  0
  3  6  1  0  0  0  0
  3  5  2  0  0  0  0
  4  1  2  0  0  0  0
  5  4  1  0  0  0  0
  5  2  1  0  0  0  0
  6 10  1  0  0  0  0
  7 43  1  0  0  0  0
  8 12  2  0  0  0  0
  8  4  1  0  0  0  0
  9 11  1  0  0  0  0
 10 27  1  6  0  0  0
 10  2  1  0  0  0  0
 11  8  1  0  0  0  0
 12 14  1  0  0  0  0
 13 11  2  0  0  0  0
 13  3  1  0  0  0  0
 14  7  2  0  0  0  0
 15 12  1  0  0  0  0
 16 17  1  0  0  0  0
 17 18  2  0  0  0  0
 17 15  1  0  0  0  0
 20 23  1  6  0  0  0
 20 24  1  0  0  0  0
 22 25  1  0  0  0  0
 22 20  1  0  0  0  0
 22 21  1  1  0  0  0
 25 19  1  6  0  0  0
 25 26  1  0  0  0  0
 26 24  1  0  0  0  0
 28 30  1  0  0  0  0
 29 30  1  0  0  0  0
 30 27  1  0  0  0  0
 31 33  1  6  0  0  0
 31 32  1  0  0  0  0
 31 29  1  0  0  0  0
 32 28  1  0  0  0  0
 34 33  2  0  0  0  0
 36 35  1  0  0  0  0
 36 33  1  0  0  0  0
 37 34  1  0  0  0  0
 39 38  1  0  0  0  0
 39 37  1  1  0  0  0
 40 42  1  0  0  0  0
 40 41  1  0  0  0  0
 41 38  1  0  0  0  0
 42 39  1  0  0  0  0
 44 47  1  0  0  0  0
 45 48  1  0  0  0  0
 46 45  2  0  0  0  0
 46 44  1  0  0  0  0
 47 43  1  6  0  0  0
 48 47  1  0  0  0  0
 49 50  1  0  0  0  0
 50 46  1  0  0  0  0
M  END
>  <MODEL>
5

>  <REMARK>
 VINA RESULT:      -4.9      1.492      1.972
  Name = 
  12 active torsions:
  status: ('A' for Active; 'I' for Inactive)
    1  A    between atoms: C_1  and  O_10
    2  A    between atoms: N_2  and  C_39
    3  A    between atoms: CA_3  and  C_37
    4  A    between atoms: CA_3  and  C_46
    5  A    between atoms: C_8  and  C_15
    6  A    between atoms: C_8  and  N_25
    7  A    between atoms: O_10  and  C_41
    8  A    between atoms: C_12  and  N_34
    9  A    between atoms: C_12  and  C_35
   10  A    between atoms: C_19  and  N_21
   11  A    between atoms: N_21  and  C_49
   12  A    between atoms: O_28  and  C_47
                            x       y       z     vdW  Elec       q    Type
                         _______ _______ _______ _____ _____    ______ ____

>  <TORSDO>
F 12

$$$$
=
 OpenBabel11042422083D

 50 56  0  0  1  0  0  0  0  0999 V2000
  161.6050  206.9620  149.5720 C   0  0  0  0  0  0  0  0  0  0  0  0
  160.7330  206.7140  152.4260 C   0  0  0  0  0  2  0  0  0  0  0  0
  160.7060  208.9140  152.6140 C   0  0  0  0  0  0  0  0  0  0  0  0
  161.4630  208.0350  150.4810 C   0  0  0  0  0  0  0  0  0  0  0  0
  160.9930  207.8540  151.7970 C   0  0  0  0  0  0  0  0  0  0  0  0
  160.2730  208.5300  153.7980 C   0  0  0  0  0  2  0  0  0  0  0  0
  162.1810  207.1780  148.3140 C   0  0  0  0  0  0  0  0  0  0  0  0
  161.7430  209.3690  150.0580 C   0  0  0  0  0  0  0  0  0  0  0  0
  161.2820  211.7510  150.3970 O   0  0  0  0  0  1  0  0  0  0  0  0
  160.2380  207.0320  153.8030 C   0  0  2  0  0  3  0  0  0  0  0  0
  161.3000  210.4490  150.8780 C   0  0  0  0  0  0  0  0  0  0  0  0
  162.3740  209.5610  148.7990 C   0  0  0  0  0  0  0  0  0  0  0  0
  160.8170  210.2210  152.1700 C   0  0  0  0  0  3  0  0  0  0  0  0
  162.5740  208.4690  147.9550 C   0  0  0  0  0  3  0  0  0  0  0  0
  162.8980  210.8210  148.3670 N   0  0  0  0  0  2  0  0  0  0  0  0
  162.7750  213.1190  147.3210 C   0  0  0  0  0  1  0  0  0  0  0  0
  162.1380  211.8250  147.6820 C   0  0  0  0  0  0  0  0  0  0  0  0
  160.9340  211.6210  147.3700 O   0  0  0  0  0  0  0  0  0  0  0  0
  161.0420  205.7110  149.8720 O   0  0  0  0  0  0  0  0  0  0  0  0
  161.1750  202.2080  150.1120 C   0  0  2  0  0  3  0  0  0  0  0  0
  161.9490  203.0900  148.0200 O   0  0  0  0  0  1  0  0  0  0  0  0
  161.2020  203.3820  149.1580 C   0  0  2  0  0  3  0  0  0  0  0  0
  159.7800  201.6100  150.1300 C   0  0  0  0  0  1  0  0  0  0  0  0
  161.4740  202.7760  151.3960 N   0  0  0  0  0  2  0  0  0  0  0  0
  161.8480  204.5250  149.9390 C   0  0  2  0  0  3  0  0  0  0  0  0
  161.8480  203.9950  151.3310 C   0  0  0  0  0  2  0  0  0  0  0  0
  161.2230  206.4930  154.8440 C   0  0  0  0  0  2  0  0  0  0  0  0
  159.7900  207.6340  156.3630 N   0  0  0  0  0  2  0  0  0  0  0  0
  161.9910  208.2580  156.2920 C   0  0  0  0  0  2  0  0  0  0  0  0
  161.0890  207.1210  156.1750 N   0  0  0  0  0  0  0  0  0  0  0  0
  161.2830  209.1670  157.2530 C   0  0  2  0  0  3  0  0  0  0  0  0
  159.8940  208.7210  157.2590 N   0  0  0  0  0  2  0  0  0  0  0  0
  161.3640  210.6010  156.8150 C   0  0  0  0  0  0  0  0  0  0  0  0
  160.2670  211.2030  156.4850 N   0  0  0  0  0  0  0  0  0  0  0  0
  163.3770  210.7430  155.5470 O   0  0  0  0  0  1  0  0  0  0  0  0
  162.7100  211.2640  156.6590 C   0  0  0  0  0  2  0  0  0  0  0  0
  160.2380  212.5430  155.9440 C   0  0  0  0  0  2  0  0  0  0  0  0
  158.4860  213.8470  154.8010 C   0  0  0  0  0  2  0  0  0  0  0  0
  159.3170  212.6030  154.7320 C   0  0  2  0  0  3  0  0  0  0  0  0
  157.0120  212.0160  154.3410 N   0  0  0  0  0  2  0  0  0  0  0  0
  157.1910  213.4490  154.1430 C   0  0  0  0  0  2  0  0  0  0  0  0
  158.2920  211.4920  154.8110 C   0  0  0  0  0  2  0  0  0  0  0  0
  162.3330  206.0750  147.4140 N   0  0  0  0  0  2  0  0  0  0  0  0
  161.7300  204.7400  145.5660 O   0  0  0  0  0  0  0  0  0  0  0  0
  159.6860  205.5710  145.2220 N   0  0  0  0  0  0  0  0  0  0  0  0
  160.4580  204.5560  145.0670 C   0  0  0  0  0  0  0  0  0  0  0  0
  161.8480  206.0720  146.0410 C   0  0  1  0  0  3  0  0  0  0  0  0
  160.4070  206.5970  145.9670 C   0  0  0  0  0  2  0  0  0  0  0  0
  160.0820  202.1220  144.9570 C   0  0  0  0  0  1  0  0  0  0  0  0
  160.0830  203.4100  144.3600 O   0  0  0  0  0  0  0  0  0  0  0  0
  1 19  1  0  0  0  0
  1  4  1  0  0  0  0
  2 10  1  0  0  0  0
  3  6  1  0  0  0  0
  4  5  1  0  0  0  0
  5  2  1  0  0  0  0
  5  3  2  0  0  0  0
  6 10  1  0  0  0  0
  7  1  2  0  0  0  0
  8  4  2  0  0  0  0
  8 11  1  0  0  0  0
  9 11  1  0  0  0  0
 10 27  1  1  0  0  0
 11 13  2  0  0  0  0
 12  8  1  0  0  0  0
 13  3  1  0  0  0  0
 14  7  1  0  0  0  0
 14 12  2  0  0  0  0
 15 12  1  0  0  0  0
 16 17  1  0  0  0  0
 17 15  1  0  0  0  0
 18 17  2  0  0  0  0
 20 23  1  1  0  0  0
 20 24  1  0  0  0  0
 22 21  1  6  0  0  0
 22 25  1  0  0  0  0
 22 20  1  0  0  0  0
 25 19  1  1  0  0  0
 25 26  1  0  0  0  0
 26 24  1  0  0  0  0
 27 30  1  0  0  0  0
 28 32  1  0  0  0  0
 29 31  1  0  0  0  0
 30 29  1  0  0  0  0
 30 28  1  0  0  0  0
 31 33  1  6  0  0  0
 31 32  1  0  0  0  0
 34 33  2  0  0  0  0
 35 36  1  0  0  0  0
 36 33  1  0  0  0  0
 37 34  1  0  0  0  0
 39 38  1  0  0  0  0
 39 42  1  0  0  0  0
 39 37  1  1  0  0  0
 40 42  1  0  0  0  0
 41 40  1  0  0  0  0
 41 38  1  0  0  0  0
 43  7  1  0  0  0  0
 44 47  1  0  0  0  0
 45 48  1  0  0  0  0
 46 45  2  0  0  0  0
 46 44  1  0  0  0  0
 47 43  1  1  0  0  0
 48 47  1  0  0  0  0
 50 49  1  0  0  0  0
 50 46  1  0  0  0  0
M  END
>  <MODEL>
6

>  <REMARK>
 VINA RESULT:      -4.7      2.332      8.947
  Name = 
  12 active torsions:
  status: ('A' for Active; 'I' for Inactive)
    1  A    between atoms: C_1  and  O_10
    2  A    between atoms: N_2  and  C_39
    3  A    between atoms: CA_3  and  C_37
    4  A    between atoms: CA_3  and  C_46
    5  A    between atoms: C_8  and  C_15
    6  A    between atoms: C_8  and  N_25
    7  A    between atoms: O_10  and  C_41
    8  A    between atoms: C_12  and  N_34
    9  A    between atoms: C_12  and  C_35
   10  A    between atoms: C_19  and  N_21
   11  A    between atoms: N_21  and  C_49
   12  A    between atoms: O_28  and  C_47
                            x       y       z     vdW  Elec       q    Type
                         _______ _______ _______ _____ _____    ______ ____

>  <TORSDO>
F 12

$$$$
=
 OpenBabel11042422083D

 50 56  0  0  1  0  0  0  0  0999 V2000
  159.7270  212.6690  152.0180 C   0  0  0  0  0  0  0  0  0  0  0  0
  161.7410  210.5060  151.5330 C   0  0  0  0  0  2  0  0  0  0  0  0
  161.8350  211.0660  149.3990 C   0  0  0  0  0  0  0  0  0  0  0  0
  160.2400  212.2960  150.7550 C   0  0  0  0  0  0  0  0  0  0  0  0
  161.2310  211.3050  150.6040 C   0  0  0  0  0  0  0  0  0  0  0  0
  162.7370  210.1070  149.4730 C   0  0  0  0  0  2  0  0  0  0  0  0
  158.6660  213.5780  152.1050 C   0  0  0  0  0  0  0  0  0  0  0  0
  159.7990  212.9730  149.5790 C   0  0  0  0  0  0  0  0  0  0  0  0
  160.3490  213.6390  147.2860 O   0  0  0  0  0  1  0  0  0  0  0  0
  162.7780  209.6350  150.8940 C   0  0  2  0  0  3  0  0  0  0  0  0
  160.5460  212.8010  148.3750 C   0  0  0  0  0  0  0  0  0  0  0  0
  158.6870  213.8520  149.6820 C   0  0  0  0  0  0  0  0  0  0  0  0
  161.5370  211.8210  148.2770 C   0  0  0  0  0  3  0  0  0  0  0  0
  158.1500  214.1400  150.9360 C   0  0  0  0  0  3  0  0  0  0  0  0
  158.0220  214.4140  148.5450 N   0  0  0  0  0  2  0  0  0  0  0  0
  156.3700  214.4340  146.6310 C   0  0  0  0  0  1  0  0  0  0  0  0
  157.0310  213.7350  147.7650 C   0  0  0  0  0  0  0  0  0  0  0  0
  156.7170  212.5400  148.0210 O   0  0  0  0  0  0  0  0  0  0  0  0
  160.3710  212.2390  153.1900 O   0  0  0  0  0  0  0  0  0  0  0  0
  160.5410  210.2750  156.0980 C   0  0  2  0  0  3  0  0  0  0  0  0
  159.4860  212.4070  156.4010 O   0  0  0  0  0  1  0  0  0  0  0  0
  160.3220  211.6730  155.5640 C   0  0  2  0  0  3  0  0  0  0  0  0
  161.9730  210.1430  156.5840 C   0  0  0  0  0  1  0  0  0  0  0  0
  160.3340  209.4160  154.9660 N   0  0  0  0  0  2  0  0  0  0  0  0
  159.6720  211.4870  154.1940 C   0  0  2  0  0  3  0  0  0  0  0  0
  159.8600  210.0300  153.9520 C   0  0  0  0  0  2  0  0  0  0  0  0
  162.3380  208.1700  150.9680 C   0  0  0  0  0  2  0  0  0  0  0  0
  160.4880  206.7670  150.4460 N   0  0  0  0  0  2  0  0  0  0  0  0
  161.9450  207.2890  148.7610 C   0  0  0  0  0  2  0  0  0  0  0  0
  161.3140  207.8030  149.9680 N   0  0  0  0  0  0  0  0  0  0  0  0
  160.9230  206.3390  148.2110 C   0  0  2  0  0  3  0  0  0  0  0  0
  160.0260  206.0460  149.3240 N   0  0  0  0  0  2  0  0  0  0  0  0
  161.5610  205.0720  147.7150 C   0  0  0  0  0  0  0  0  0  0  0  0
  161.1400  203.9460  148.1950 N   0  0  0  0  0  0  0  0  0  0  0  0
  162.3480  204.7490  145.4880 O   0  0  0  0  0  1  0  0  0  0  0  0
  162.7360  205.1420  146.7720 C   0  0  0  0  0  2  0  0  0  0  0  0
  161.7530  202.6770  147.8750 C   0  0  0  0  0  2  0  0  0  0  0  0
  161.3310  200.3770  147.0960 C   0  0  0  0  0  2  0  0  0  0  0  0
  160.7300  201.7400  147.2460 C   0  0  2  0  0  3  0  0  0  0  0  0
  160.3230  200.9580  145.0030 N   0  0  0  0  0  2  0  0  0  0  0  0
  160.6730  199.8300  145.8570 C   0  0  0  0  0  2  0  0  0  0  0  0
  160.4580  202.1620  145.8180 C   0  0  0  0  0  2  0  0  0  0  0  0
  158.1480  213.9290  153.3930 N   0  0  0  0  0  2  0  0  0  0  0  0
  156.4730  212.4030  154.0480 O   0  0  0  0  0  0  0  0  0  0  0  0
  155.8300  213.4190  155.9300 N   0  0  0  0  0  0  0  0  0  0  0  0
  155.8960  212.3040  155.2980 C   0  0  0  0  0  0  0  0  0  0  0  0
  156.7520  213.7680  153.7800 C   0  0  1  0  0  3  0  0  0  0  0  0
  156.4740  214.4520  155.1260 C   0  0  0  0  0  2  0  0  0  0  0  0
  155.2370  209.9500  154.9750 C   0  0  0  0  0  1  0  0  0  0  0  0
  155.3390  211.1160  155.7780 O   0  0  0  0  0  0  0  0  0  0  0  0
  1  7  1  0  0  0  0
  1 19  1  0  0  0  0
  3  6  1  0  0  0  0
  3  5  2  0  0  0  0
  4  1  2  0  0  0  0
  5  4  1  0  0  0  0
  5  2  1  0  0  0  0
  6 10  1  0  0  0  0
  7 43  1  0  0  0  0
  8 12  2  0  0  0  0
  8  4  1  0  0  0  0
  9 11  1  0  0  0  0
 10 27  1  6  0  0  0
 10  2  1  0  0  0  0
 11  8  1  0  0  0  0
 12 14  1  0  0  0  0
 13 11  2  0  0  0  0
 13  3  1  0  0  0  0
 14  7  2  0  0  0  0
 15 12  1  0  0  0  0
 16 17  1  0  0  0  0
 17 18  2  0  0  0  0
 17 15  1  0  0  0  0
 20 23  1  6  0  0  0
 22 20  1  0  0  0  0
 22 21  1  1  0  0  0
 24 20  1  0  0  0  0
 25 19  1  6  0  0  0
 25 22  1  0  0  0  0
 26 25  1  0  0  0  0
 26 24  1  0  0  0  0
 29 30  1  0  0  0  0
 30 28  1  0  0  0  0
 30 27  1  0  0  0  0
 31 33  1  1  0  0  0
 31 29  1  0  0  0  0
 31 32  1  0  0  0  0
 32 28  1  0  0  0  0
 33 34  2  0  0  0  0
 35 36  1  0  0  0  0
 36 33  1  0  0  0  0
 37 34  1  0  0  0  0
 38 39  1  0  0  0  0
 39 37  1  6  0  0  0
 40 42  1  0  0  0  0
 40 41  1  0  0  0  0
 41 38  1  0  0  0  0
 42 39  1  0  0  0  0
 44 46  1  0  0  0  0
 46 50  1  0  0  0  0
 46 45  2  0  0  0  0
 47 43  1  1  0  0  0
 47 44  1  0  0  0  0
 47 48  1  0  0  0  0
 48 45  1  0  0  0  0
 49 50  1  0  0  0  0
M  END
>  <MODEL>
7

>  <REMARK>
 VINA RESULT:      -4.6      2.095      2.919
  Name = 
  12 active torsions:
  status: ('A' for Active; 'I' for Inactive)
    1  A    between atoms: C_1  and  O_10
    2  A    between atoms: N_2  and  C_39
    3  A    between atoms: CA_3  and  C_37
    4  A    between atoms: CA_3  and  C_46
    5  A    between atoms: C_8  and  C_15
    6  A    between atoms: C_8  and  N_25
    7  A    between atoms: O_10  and  C_41
    8  A    between atoms: C_12  and  N_34
    9  A    between atoms: C_12  and  C_35
   10  A    between atoms: C_19  and  N_21
   11  A    between atoms: N_21  and  C_49
   12  A    between atoms: O_28  and  C_47
                            x       y       z     vdW  Elec       q    Type
                         _______ _______ _______ _____ _____    ______ ____

>  <TORSDO>
F 12

$$$$
=
 OpenBabel11042422083D

 50 56  0  0  1  0  0  0  0  0999 V2000
  160.6940  208.4240  152.2860 C   0  0  0  0  0  0  0  0  0  0  0  0
  161.3970  210.2240  149.9990 C   0  0  0  0  0  2  0  0  0  0  0  0
  161.9690  208.4690  148.7870 C   0  0  0  0  0  0  0  0  0  0  0  0
  161.2900  208.0110  151.0730 C   0  0  0  0  0  0  0  0  0  0  0  0
  161.5430  208.9050  150.0130 C   0  0  0  0  0  0  0  0  0  0  0  0
  162.1380  209.4610  147.9350 C   0  0  0  0  0  2  0  0  0  0  0  0
  160.5670  207.5210  153.3490 C   0  0  0  0  0  0  0  0  0  0  0  0
  161.6040  206.6350  150.8640 C   0  0  0  0  0  0  0  0  0  0  0  0
  161.9380  204.8490  149.2210 O   0  0  0  0  0  1  0  0  0  0  0  0
  161.7740  210.7310  148.6410 C   0  0  2  0  0  3  0  0  0  0  0  0
  161.9080  206.2000  149.5400 C   0  0  0  0  0  0  0  0  0  0  0  0
  161.5160  205.7470  151.9700 C   0  0  0  0  0  0  0  0  0  0  0  0
  162.1270  207.1210  148.5130 C   0  0  0  0  0  3  0  0  0  0  0  0
  160.9970  206.2030  153.1820 C   0  0  0  0  0  3  0  0  0  0  0  0
  162.0100  204.4030  151.9400 N   0  0  0  0  0  2  0  0  0  0  0  0
  161.8480  201.9070  151.5700 C   0  0  0  0  0  1  0  0  0  0  0  0
  161.2180  203.2530  151.6160 C   0  0  0  0  0  0  0  0  0  0  0  0
  159.9840  203.3660  151.3790 O   0  0  0  0  0  0  0  0  0  0  0  0
  160.1020  209.6940  152.3790 O   0  0  0  0  0  0  0  0  0  0  0  0
  158.8180  212.4350  154.1620 C   0  0  2  0  0  3  0  0  0  0  0  0
  157.6880  210.3610  154.5800 O   0  0  0  0  0  1  0  0  0  0  0  0
  158.5360  211.0240  153.6970 C   0  0  2  0  0  3  0  0  0  0  0  0
  158.1290  213.4160  153.2320 C   0  0  0  0  0  1  0  0  0  0  0  0
  160.2420  212.5780  154.0470 N   0  0  0  0  0  2  0  0  0  0  0  0
  159.8970  210.3320  153.6480 C   0  0  2  0  0  3  0  0  0  0  0  0
  160.8370  211.4780  153.7920 C   0  0  0  0  0  2  0  0  0  0  0  0
  163.0030  211.6370  148.7490 C   0  0  0  0  0  2  0  0  0  0  0  0
  161.5720  213.5370  148.6870 N   0  0  0  0  0  2  0  0  0  0  0  0
  162.6860  212.9710  146.7700 C   0  0  0  0  0  2  0  0  0  0  0  0
  162.7890  213.0000  148.2220 N   0  0  0  0  0  0  0  0  0  0  0  0
  161.7950  214.1380  146.4610 C   0  0  2  0  0  3  0  0  0  0  0  0
  161.1180  214.4530  147.7140 N   0  0  0  0  0  2  0  0  0  0  0  0
  160.7860  213.7950  145.4010 C   0  0  0  0  0  0  0  0  0  0  0  0
  161.1570  213.8490  144.1630 N   0  0  0  0  0  0  0  0  0  0  0  0
  159.2530  212.2410  146.3600 O   0  0  0  0  0  1  0  0  0  0  0  0
  159.3560  213.5130  145.7900 C   0  0  0  0  0  2  0  0  0  0  0  0
  160.2440  213.6480  143.0600 C   0  0  0  0  0  2  0  0  0  0  0  0
  162.0080  212.1930  142.1390 C   0  0  0  0  0  2  0  0  0  0  0  0
  160.5340  212.3210  142.3700 C   0  0  2  0  0  3  0  0  0  0  0  0
  160.9040  211.6640  140.0800 N   0  0  0  0  0  2  0  0  0  0  0  0
  162.1030  211.3950  140.8660 C   0  0  0  0  0  2  0  0  0  0  0  0
  159.9600  212.3370  140.9690 C   0  0  0  0  0  2  0  0  0  0  0  0
  159.9770  207.9630  154.5760 N   0  0  0  0  0  2  0  0  0  0  0  0
  161.9470  208.6870  155.6500 O   0  0  0  0  0  0  0  0  0  0  0  0
  161.0040  209.9130  157.2610 N   0  0  0  0  0  0  0  0  0  0  0  0
  162.0570  209.7270  156.5500 C   0  0  0  0  0  0  0  0  0  0  0  0
  160.6950  208.0470  155.8410 C   0  0  1  0  0  3  0  0  0  0  0  0
  159.9720  208.9810  156.8220 C   0  0  0  0  0  2  0  0  0  0  0  0
  163.9220  211.0790  155.6700 C   0  0  0  0  0  1  0  0  0  0  0  0
  163.2460  210.4360  156.7410 O   0  0  0  0  0  0  0  0  0  0  0  0
  1 19  1  0  0  0  0
  1  7  1  0  0  0  0
  2  5  1  0  0  0  0
  3  5  2  0  0  0  0
  4  1  2  0  0  0  0
  5  4  1  0  0  0  0
  6 10  1  0  0  0  0
  6  3  1  0  0  0  0
  7 43  1  0  0  0  0
  8  4  1  0  0  0  0
  8 12  2  0  0  0  0
  9 11  1  0  0  0  0
 10 27  1  1  0  0  0
 10  2  1  0  0  0  0
 11  8  1  0  0  0  0
 12 14  1  0  0  0  0
 13  3  1  0  0  0  0
 13 11  2  0  0  0  0
 14  7  2  0  0  0  0
 15 12  1  0  0  0  0
 16 17  1  0  0  0  0
 17 15  1  0  0  0  0
 18 17  2  0  0  0  0
 20 23  1  6  0  0  0
 22 20  1  0  0  0  0
 22 21  1  1  0  0  0
 24 20  1  0  0  0  0
 25 19  1  6  0  0  0
 25 22  1  0  0  0  0
 25 26  1  0  0  0  0
 26 24  1  0  0  0  0
 29 30  1  0  0  0  0
 30 28  1  0  0  0  0
 30 27  1  0  0  0  0
 31 33  1  6  0  0  0
 31 29  1  0  0  0  0
 31 32  1  0  0  0  0
 32 28  1  0  0  0  0
 33 36  1  0  0  0  0
 34 33  2  0  0  0  0
 36 35  1  0  0  0  0
 37 34  1  0  0  0  0
 38 39  1  0  0  0  0
 39 37  1  6  0  0  0
 40 41  1  0  0  0  0
 40 42  1  0  0  0  0
 41 38  1  0  0  0  0
 42 39  1  0  0  0  0
 44 47  1  0  0  0  0
 44 46  1  0  0  0  0
 46 50  1  0  0  0  0
 46 45  2  0  0  0  0
 47 43  1  6  0  0  0
 47 48  1  0  0  0  0
 48 45  1  0  0  0  0
 49 50  1  0  0  0  0
M  END
>  <MODEL>
8

>  <REMARK>
 VINA RESULT:      -4.3      2.799      7.789
  Name = 
  12 active torsions:
  status: ('A' for Active; 'I' for Inactive)
    1  A    between atoms: C_1  and  O_10
    2  A    between atoms: N_2  and  C_39
    3  A    between atoms: CA_3  and  C_37
    4  A    between atoms: CA_3  and  C_46
    5  A    between atoms: C_8  and  C_15
    6  A    between atoms: C_8  and  N_25
    7  A    between atoms: O_10  and  C_41
    8  A    between atoms: C_12  and  N_34
    9  A    between atoms: C_12  and  C_35
   10  A    between atoms: C_19  and  N_21
   11  A    between atoms: N_21  and  C_49
   12  A    between atoms: O_28  and  C_47
                            x       y       z     vdW  Elec       q    Type
                         _______ _______ _______ _____ _____    ______ ____

>  <TORSDO>
F 12

$$$$
=
 OpenBabel11042422083D

 50 56  0  0  1  0  0  0  0  0999 V2000
  161.3970  209.2810  152.5670 C   0  0  0  0  0  0  0  0  0  0  0  0
  161.4150  206.3020  152.2640 C   0  0  0  0  0  2  0  0  0  0  0  0
  161.7970  206.5190  150.1000 C   0  0  0  0  0  0  0  0  0  0  0  0
  161.4870  208.5830  151.3400 C   0  0  0  0  0  0  0  0  0  0  0  0
  161.5480  207.1770  151.2740 C   0  0  0  0  0  0  0  0  0  0  0  0
  161.8200  205.2100  150.2550 C   0  0  0  0  0  2  0  0  0  0  0  0
  161.2270  210.6710  152.5730 C   0  0  0  0  0  0  0  0  0  0  0  0
  161.5810  209.3060  150.1140 C   0  0  0  0  0  0  0  0  0  0  0  0
  162.3670  209.2850  147.7930 O   0  0  0  0  0  1  0  0  0  0  0  0
  161.5750  204.9220  151.7040 C   0  0  2  0  0  3  0  0  0  0  0  0
  161.9810  208.6020  148.9390 C   0  0  0  0  0  0  0  0  0  0  0  0
  161.3540  210.7090  150.1370 C   0  0  0  0  0  0  0  0  0  0  0  0
  162.0510  207.2070  148.9250 C   0  0  0  0  0  3  0  0  0  0  0  0
  161.1880  211.3600  151.3590 C   0  0  0  0  0  3  0  0  0  0  0  0
  161.2070  211.5010  148.9530 N   0  0  0  0  0  2  0  0  0  0  0  0
  162.0180  212.9380  147.0390 C   0  0  0  0  0  1  0  0  0  0  0  0
  162.2800  212.1810  148.2910 C   0  0  0  0  0  0  0  0  0  0  0  0
  163.4490  212.1560  148.7650 O   0  0  0  0  0  0  0  0  0  0  0  0
  161.6180  208.6030  153.7760 O   0  0  0  0  0  0  0  0  0  0  0  0
  160.4340  207.6400  156.9400 C   0  0  2  0  0  3  0  0  0  0  0  0
  162.1740  209.2900  156.9920 O   0  0  0  0  0  1  0  0  0  0  0  0
  161.5640  208.3210  156.2000 C   0  0  2  0  0  3  0  0  0  0  0  0
  160.8330  206.2120  157.2610 C   0  0  0  0  0  1  0  0  0  0  0  0
  159.3390  207.6390  156.0120 N   0  0  0  0  0  2  0  0  0  0  0  0
  160.9170  208.9650  154.9750 C   0  0  2  0  0  3  0  0  0  0  0  0
  159.5630  208.3450  154.9720 C   0  0  0  0  0  2  0  0  0  0  0  0
  160.2670  204.1430  151.8650 C   0  0  0  0  0  2  0  0  0  0  0  0
  161.7200  202.2760  151.6110 N   0  0  0  0  0  2  0  0  0  0  0  0
  159.9620  202.4710  150.1600 C   0  0  0  0  0  2  0  0  0  0  0  0
  160.3810  202.7080  151.5340 N   0  0  0  0  0  0  0  0  0  0  0  0
  160.7700  201.2750  149.7500 C   0  0  2  0  0  3  0  0  0  0  0  0
  161.8680  201.2010  150.7090 N   0  0  0  0  0  2  0  0  0  0  0  0
  161.3100  201.4260  148.3570 C   0  0  0  0  0  0  0  0  0  0  0  0
  161.4880  202.6220  147.8960 N   0  0  0  0  0  0  0  0  0  0  0  0
  160.8130  200.3320  146.2980 O   0  0  0  0  0  1  0  0  0  0  0  0
  161.5210  200.2050  147.4970 C   0  0  0  0  0  2  0  0  0  0  0  0
  161.8960  202.8870  146.5350 C   0  0  0  0  0  2  0  0  0  0  0  0
  160.5380  204.2300  144.9760 C   0  0  0  0  0  2  0  0  0  0  0  0
  161.4930  204.2990  146.1280 C   0  0  2  0  0  3  0  0  0  0  0  0
  162.2310  205.8300  144.4190 N   0  0  0  0  0  2  0  0  0  0  0  0
  160.8340  205.4800  144.1900 C   0  0  0  0  0  2  0  0  0  0  0  0
  162.6880  205.0250  145.5500 C   0  0  0  0  0  2  0  0  0  0  0  0
  161.1190  211.3580  153.8240 N   0  0  0  0  0  2  0  0  0  0  0  0
  158.7960  211.6980  154.0470 O   0  0  0  0  0  0  0  0  0  0  0  0
  158.7910  212.5400  156.1150 N   0  0  0  0  0  0  0  0  0  0  0  0
  158.1080  211.9210  155.2220 C   0  0  0  0  0  0  0  0  0  0  0  0
  160.0690  212.3180  154.1380 C   0  0  1  0  0  3  0  0  0  0  0  0
  160.1420  212.7510  155.6090 C   0  0  0  0  0  2  0  0  0  0  0  0
  156.1940  210.4200  154.8190 C   0  0  0  0  0  1  0  0  0  0  0  0
  156.7570  211.5960  155.3780 O   0  0  0  0  0  0  0  0  0  0  0  0
  1  7  1  0  0  0  0
  1 19  1  0  0  0  0
  3  6  1  0  0  0  0
  3  5  2  0  0  0  0
  4  1  2  0  0  0  0
  5  4  1  0  0  0  0
  5  2  1  0  0  0  0
  6 10  1  0  0  0  0
  7 43  1  0  0  0  0
  8 12  2  0  0  0  0
  8  4  1  0  0  0  0
  9 11  1  0  0  0  0
 10 27  1  6  0  0  0
 10  2  1  0  0  0  0
 11  8  1  0  0  0  0
 12 14  1  0  0  0  0
 13 11  2  0  0  0  0
 13  3  1  0  0  0  0
 14  7  2  0  0  0  0
 15 12  1  0  0  0  0
 16 17  1  0  0  0  0
 17 18  2  0  0  0  0
 17 15  1  0  0  0  0
 20 23  1  6  0  0  0
 22 20  1  0  0  0  0
 22 21  1  1  0  0  0
 24 20  1  0  0  0  0
 25 19  1  6  0  0  0
 25 22  1  0  0  0  0
 26 25  1  0  0  0  0
 26 24  1  0  0  0  0
 29 30  1  0  0  0  0
 30 28  1  0  0  0  0
 30 27  1  0  0  0  0
 31 33  1  6  0  0  0
 31 29  1  0  0  0  0
 31 32  1  0  0  0  0
 32 28  1  0  0  0  0
 34 33  2  0  0  0  0
 35 36  1  0  0  0  0
 36 33  1  0  0  0  0
 37 34  1  0  0  0  0
 38 39  1  0  0  0  0
 39 37  1  6  0  0  0
 40 42  1  0  0  0  0
 41 40  1  0  0  0  0
 41 38  1  0  0  0  0
 42 39  1  0  0  0  0
 44 47  1  0  0  0  0
 44 46  1  0  0  0  0
 46 50  1  0  0  0  0
 46 45  2  0  0  0  0
 47 43  1  1  0  0  0
 47 48  1  0  0  0  0
 48 45  1  0  0  0  0
 49 50  1  0  0  0  0
M  END
>  <MODEL>
9

>  <REMARK>
 VINA RESULT:      -3.9      1.914      2.562
  Name = 
  12 active torsions:
  status: ('A' for Active; 'I' for Inactive)
    1  A    between atoms: C_1  and  O_10
    2  A    between atoms: N_2  and  C_39
    3  A    between atoms: CA_3  and  C_37
    4  A    between atoms: CA_3  and  C_46
    5  A    between atoms: C_8  and  C_15
    6  A    between atoms: C_8  and  N_25
    7  A    between atoms: O_10  and  C_41
    8  A    between atoms: C_12  and  N_34
    9  A    between atoms: C_12  and  C_35
   10  A    between atoms: C_19  and  N_21
   11  A    between atoms: N_21  and  C_49
   12  A    between atoms: O_28  and  C_47
                            x       y       z     vdW  Elec       q    Type
                         _______ _______ _______ _____ _____    ______ ____

>  <TORSDO>
F 12

$$$$
