=
 OpenBabel11052409433D

 31 36  0  0  1  0  0  0  0  0999 V2000
  161.7040  209.8590  152.8890 N   0  0  2  0  0  0  0  0  0  0  0  0
  161.4690  205.6370  149.0250 O   0  0  0  0  0  0  0  0  0  0  0  0
  160.8810  206.5120  151.7930 C   0  0  1  0  0  3  0  0  0  0  0  0
  161.0410  210.4710  151.7130 C   0  0  2  0  0  3  0  0  0  0  0  0
  160.6670  209.6210  153.9160 C   0  0  1  0  0  3  0  0  0  0  0  0
  163.0530  211.2880  150.7150 O   0  0  0  0  0  1  0  0  0  0  0  0
  160.9700  204.4210  152.4690 C   0  0  0  0  0  0  0  0  0  0  0  0
  161.3510  203.3910  149.9440 C   0  0  0  0  0  3  0  0  0  0  0  0
  161.5950  207.2890  153.9560 N   0  0  0  0  0  2  0  0  0  0  0  0
  161.2920  204.7820  150.1130 C   0  0  0  0  0  0  0  0  0  0  0  0
  162.4780  209.7100  156.2880 C   0  0  1  0  0  3  0  0  0  0  0  0
  162.2480  206.8220  149.1460 C   0  0  0  0  0  2  0  0  0  0  0  0
  161.9700  210.4350  150.4790 C   0  0  1  0  0  0  0  0  0  0  0  0
  161.0900  205.2720  151.4040 C   0  0  0  0  0  0  0  0  0  0  0  0
  162.5270  209.0200  150.2380 C   0  0  0  0  0  2  0  0  0  0  0  0
  160.6480  207.6110  150.9120 N   0  0  0  0  0  2  0  0  0  0  0  0
  160.9120  208.3210  154.7250 C   0  0  1  0  0  3  0  0  0  0  0  0
  160.5710  206.5280  153.2560 C   0  0  2  0  0  3  0  0  0  0  0  0
  160.6880  205.0620  153.5930 C   0  0  0  0  0  2  0  0  0  0  0  0
  161.5850  208.5310  156.0520 C   0  0  0  0  0  0  0  0  0  0  0  0
  161.4930  207.9930  149.7810 C   0  0  2  0  0  3  0  0  0  0  0  0
  162.8760  210.3600  154.9690 C   0  0  0  0  0  2  0  0  0  0  0  0
  161.2340  202.5480  151.0680 C   0  0  0  0  0  3  0  0  0  0  0  0
  161.8060  210.7150  157.2090 C   0  0  0  0  0  1  0  0  0  0  0  0
  161.4160  207.7160  156.9450 O   0  0  0  0  0  0  0  0  0  0  0  0
  160.4660  211.8860  151.9310 C   0  0  0  0  0  1  0  0  0  0  0  0
  161.0480  203.0750  152.3160 N   0  0  0  0  0  0  0  0  0  0  0  0
  161.6640  210.7040  154.1000 C   0  0  1  0  0  3  0  0  0  0  0  0
  161.2010  210.9210  149.2360 C   0  0  0  0  0  2  0  0  0  0  0  0
  161.4940  213.1670  148.4540 O   0  0  0  0  0  1  0  0  0  0  0  0
  162.0060  211.8730  148.3570 C   0  0  0  0  0  2  0  0  0  0  0  0
  1  5  1  0  0  0  0
  1 28  1  0  0  0  0
  2 12  1  0  0  0  0
  2 10  1  0  0  0  0
  3 18  1  0  0  0  0
  4 26  1  0  0  0  0
  4  1  1  0  0  0  0
  5 28  1  0  0  0  0
  5 17  1  0  0  0  0
  7 19  1  0  0  0  0
  8 10  2  0  0  0  0
  8 23  1  0  0  0  0
  9 17  1  0  0  0  0
 10 14  1  0  0  0  0
 11 24  1  0  0  0  0
 12 21  1  0  0  0  0
 13  6  1  0  0  0  0
 13  4  1  0  0  0  0
 14  3  1  0  0  0  0
 14  7  2  0  0  0  0
 15 13  1  0  0  0  0
 16  3  1  0  0  0  0
 17 20  1  0  0  0  0
 18 19  1  0  0  0  0
 18  9  1  0  0  0  0
 20 11  1  0  0  0  0
 20 25  2  0  0  0  0
 21 15  1  0  0  0  0
 21 16  1  0  0  0  0
 22 11  1  0  0  0  0
 23 27  2  0  0  0  0
 27  7  1  0  0  0  0
 28 22  1  0  0  0  0
 29 13  1  0  0  0  0
 31 30  1  0  0  0  0
 31 29  1  0  0  0  0
M  END
>  <MODEL>
1

>  <REMARK>
 VINA RESULT:      -4.5      0.000      0.000
  Name = 
  2 active torsions:
  status: ('A' for Active; 'I' for Inactive)
    1  A    between atoms: C_14  and  C_24
    2  A    between atoms: C_19  and  C_24
                            x       y       z     vdW  Elec       q    Type
                         _______ _______ _______ _____ _____    ______ ____

>  <TORSDO>
F 2

$$$$
=
 OpenBabel11052409433D

 31 36  0  0  1  0  0  0  0  0999 V2000
  161.1410  209.9960  152.7010 N   0  0  2  0  0  0  0  0  0  0  0  0
  161.1920  204.2850  152.2670 O   0  0  0  0  0  0  0  0  0  0  0  0
  161.8340  206.8830  150.9970 C   0  0  1  0  0  3  0  0  0  0  0  0
  161.8150  209.5380  153.9390 C   0  0  2  0  0  3  0  0  0  0  0  0
  162.1780  210.5500  151.8030 C   0  0  1  0  0  3  0  0  0  0  0  0
  159.8250  209.4320  155.2580 O   0  0  0  0  0  1  0  0  0  0  0  0
  161.6770  205.9480  149.0130 C   0  0  0  0  0  0  0  0  0  0  0  0
  161.2380  203.4140  149.9990 C   0  0  0  0  0  3  0  0  0  0  0  0
  161.1670  209.0120  150.0960 N   0  0  0  0  0  2  0  0  0  0  0  0
  161.3480  204.4880  150.8950 C   0  0  0  0  0  0  0  0  0  0  0  0
  160.3910  212.3950  150.2800 C   0  0  1  0  0  3  0  0  0  0  0  0
  160.4570  205.2080  153.0630 C   0  0  0  0  0  2  0  0  0  0  0  0
  160.8750  208.6420  154.7770 C   0  0  1  0  0  0  0  0  0  0  0  0
  161.5780  205.7570  150.3640 C   0  0  0  0  0  0  0  0  0  0  0  0
  160.2660  207.5160  153.9210 C   0  0  0  0  0  2  0  0  0  0  0  0
  162.0990  206.9850  152.3960 N   0  0  0  0  0  2  0  0  0  0  0  0
  161.8930  210.2580  150.3070 C   0  0  1  0  0  3  0  0  0  0  0  0
  162.1570  207.9500  150.0000 C   0  0  2  0  0  3  0  0  0  0  0  0
  161.9900  207.1970  148.7050 C   0  0  0  0  0  2  0  0  0  0  0  0
  161.2390  211.3890  149.5650 C   0  0  0  0  0  0  0  0  0  0  0  0
  161.2590  206.4480  153.4660 C   0  0  2  0  0  3  0  0  0  0  0  0
  160.0050  211.8910  151.6650 C   0  0  0  0  0  2  0  0  0  0  0  0
  161.3340  203.6530  148.6120 C   0  0  0  0  0  3  0  0  0  0  0  0
  161.1060  213.7340  150.3690 C   0  0  0  0  0  1  0  0  0  0  0  0
  161.3870  211.4770  148.3570 O   0  0  0  0  0  0  0  0  0  0  0  0
  162.4420  210.6470  154.8090 C   0  0  0  0  0  1  0  0  0  0  0  0
  161.5490  204.9170  148.1380 N   0  0  0  0  0  0  0  0  0  0  0  0
  161.2210  211.4560  152.4860 C   0  0  1  0  0  3  0  0  0  0  0  0
  161.6510  208.0460  155.9660 C   0  0  0  0  0  2  0  0  0  0  0  0
  160.1830  206.6640  157.2600 O   0  0  0  0  0  1  0  0  0  0  0  0
  160.8110  207.9090  157.2320 C   0  0  0  0  0  2  0  0  0  0  0  0
  1  4  1  0  0  0  0
  2 12  1  0  0  0  0
  3 16  1  0  0  0  0
  4 13  1  0  0  0  0
  4 26  1  0  0  0  0
  5 28  1  0  0  0  0
  5  1  1  0  0  0  0
  7 14  1  0  0  0  0
  8 10  1  0  0  0  0
  9 17  1  0  0  0  0
 10  2  1  0  0  0  0
 11 24  1  0  0  0  0
 11 22  1  0  0  0  0
 12 21  1  0  0  0  0
 13  6  1  0  0  0  0
 13 29  1  0  0  0  0
 14 10  2  0  0  0  0
 14  3  1  0  0  0  0
 15 13  1  0  0  0  0
 16 21  1  0  0  0  0
 17  5  1  0  0  0  0
 18  9  1  0  0  0  0
 18  3  1  0  0  0  0
 19  7  1  0  0  0  0
 19 18  1  0  0  0  0
 20 11  1  0  0  0  0
 20 17  1  0  0  0  0
 21 15  1  0  0  0  0
 22 28  1  0  0  0  0
 23  8  2  0  0  0  0
 25 20  2  0  0  0  0
 27 23  1  0  0  0  0
 27  7  2  0  0  0  0
 28  1  1  0  0  0  0
 29 31  1  0  0  0  0
 31 30  1  0  0  0  0
M  END
>  <MODEL>
2

>  <REMARK>
 VINA RESULT:      -4.4      1.556      5.186
  Name = 
  2 active torsions:
  status: ('A' for Active; 'I' for Inactive)
    1  A    between atoms: C_14  and  C_24
    2  A    between atoms: C_19  and  C_24
                            x       y       z     vdW  Elec       q    Type
                         _______ _______ _______ _____ _____    ______ ____

>  <TORSDO>
F 2

$$$$
=
 OpenBabel11052409433D

 31 36  0  0  1  0  0  0  0  0999 V2000
  158.6770  211.1430  154.9910 N   0  0  2  0  0  0  0  0  0  0  0  0
  162.4160  210.0210  150.7990 O   0  0  0  0  0  0  0  0  0  0  0  0
  160.4970  211.9490  151.9730 C   0  0  1  0  0  3  0  0  0  0  0  0
  159.9140  210.7340  155.6990 C   0  0  2  0  0  3  0  0  0  0  0  0
  158.5440  212.6100  155.1290 C   0  0  1  0  0  3  0  0  0  0  0  0
  159.3480  208.4160  155.8310 O   0  0  0  0  0  1  0  0  0  0  0  0
  160.2060  212.8590  149.9920 C   0  0  0  0  0  0  0  0  0  0  0  0
  162.0830  211.2760  148.7450 C   0  0  0  0  0  3  0  0  0  0  0  0
  158.2690  212.5690  152.6350 N   0  0  0  0  0  2  0  0  0  0  0  0
  161.7950  211.0570  150.1010 C   0  0  0  0  0  0  0  0  0  0  0  0
  155.5770  212.7350  154.8270 C   0  0  1  0  0  3  0  0  0  0  0  0
  161.6810  209.2110  151.7100 C   0  0  0  0  0  2  0  0  0  0  0  0
  160.3130  209.2900  155.3190 C   0  0  1  0  0  0  0  0  0  0  0  0
  160.8440  211.8810  150.7040 C   0  0  0  0  0  0  0  0  0  0  0  0
  160.3550  209.1060  153.7910 C   0  0  0  0  0  2  0  0  0  0  0  0
  161.1740  211.2790  153.0370 N   0  0  0  0  0  2  0  0  0  0  0  0
  157.9440  213.2780  153.8660 C   0  0  1  0  0  3  0  0  0  0  0  0
  159.5450  213.0860  152.1660 C   0  0  2  0  0  3  0  0  0  0  0  0
  159.4140  213.5980  150.7530 C   0  0  0  0  0  2  0  0  0  0  0  0
  156.4700  213.5560  153.9490 C   0  0  0  0  0  0  0  0  0  0  0  0
  161.4870  209.8520  153.0860 C   0  0  2  0  0  3  0  0  0  0  0  0
  156.2710  211.4470  155.2520 C   0  0  0  0  0  2  0  0  0  0  0  0
  161.3960  212.2870  148.0420 C   0  0  0  0  0  3  0  0  0  0  0  0
  155.1310  213.5370  156.0390 C   0  0  0  0  0  1  0  0  0  0  0  0
  155.9910  214.4530  153.2740 O   0  0  0  0  0  0  0  0  0  0  0  0
  159.9000  210.9180  157.2310 C   0  0  0  0  0  1  0  0  0  0  0  0
  160.4650  213.0630  148.6750 N   0  0  0  0  0  0  0  0  0  0  0  0
  157.6410  211.7040  155.8820 C   0  0  1  0  0  3  0  0  0  0  0  0
  161.6830  208.9510  155.9330 C   0  0  0  0  0  2  0  0  0  0  0  0
  163.3370  210.0670  157.2610 O   0  0  0  0  0  1  0  0  0  0  0  0
  162.6000  210.1620  156.0800 C   0  0  0  0  0  2  0  0  0  0  0  0
  1  5  1  0  0  0  0
  1  4  1  0  0  0  0
  1 28  1  0  0  0  0
  2 12  1  0  0  0  0
  3 18  1  0  0  0  0
  3 16  1  0  0  0  0
  4 26  1  0  0  0  0
  5 28  1  0  0  0  0
  7 14  1  0  0  0  0
  7 19  1  0  0  0  0
  8 10  1  0  0  0  0
  9 17  1  0  0  0  0
 10 14  2  0  0  0  0
 10  2  1  0  0  0  0
 11 22  1  0  0  0  0
 11 24  1  0  0  0  0
 12 21  1  0  0  0  0
 13  4  1  0  0  0  0
 13  6  1  0  0  0  0
 13 29  1  0  0  0  0
 14  3  1  0  0  0  0
 15 13  1  0  0  0  0
 16 21  1  0  0  0  0
 17 20  1  0  0  0  0
 17  5  1  0  0  0  0
 18  9  1  0  0  0  0
 19 18  1  0  0  0  0
 20 11  1  0  0  0  0
 21 15  1  0  0  0  0
 22 28  1  0  0  0  0
 23 27  1  0  0  0  0
 23  8  2  0  0  0  0
 25 20  2  0  0  0  0
 27  7  2  0  0  0  0
 29 31  1  0  0  0  0
 31 30  1  0  0  0  0
M  END
>  <MODEL>
3

>  <REMARK>
 VINA RESULT:      -4.4      3.415      6.812
  Name = 
  2 active torsions:
  status: ('A' for Active; 'I' for Inactive)
    1  A    between atoms: C_14  and  C_24
    2  A    between atoms: C_19  and  C_24
                            x       y       z     vdW  Elec       q    Type
                         _______ _______ _______ _____ _____    ______ ____

>  <TORSDO>
F 2

$$$$
=
 OpenBabel11052409433D

 31 36  0  0  1  0  0  0  0  0999 V2000
  160.4500  213.2410  139.0810 N   0  0  2  0  0  0  0  0  0  0  0  0
  163.3500  213.8760  143.9800 O   0  0  0  0  0  0  0  0  0  0  0  0
  160.8360  213.0170  142.6700 C   0  0  1  0  0  3  0  0  0  0  0  0
  161.7390  212.5490  138.8400 C   0  0  2  0  0  3  0  0  0  0  0  0
  159.4130  212.2040  139.2740 C   0  0  1  0  0  3  0  0  0  0  0  0
  162.8520  214.4530  137.9200 O   0  0  0  0  0  1  0  0  0  0  0  0
  159.7370  213.4040  144.5350 C   0  0  0  0  0  0  0  0  0  0  0  0
  161.9840  214.0710  145.9800 C   0  0  0  0  0  3  0  0  0  0  0  0
  158.8720  213.4880  141.3620 N   0  0  0  0  0  2  0  0  0  0  0  0
  162.1100  213.7830  144.6120 C   0  0  0  0  0  0  0  0  0  0  0  0
  157.0830  213.8550  138.4050 C   0  0  1  0  0  3  0  0  0  0  0  0
  163.4660  214.4490  142.6820 C   0  0  0  0  0  2  0  0  0  0  0  0
  162.9240  213.5330  138.9710 C   0  0  1  0  0  0  0  0  0  0  0  0
  160.9540  213.4410  143.9110 C   0  0  0  0  0  0  0  0  0  0  0  0
  162.8530  214.3200  140.2930 C   0  0  0  0  0  2  0  0  0  0  0  0
  161.9310  212.6570  141.8270 N   0  0  0  0  0  2  0  0  0  0  0  0
  158.3470  212.6120  140.3230 C   0  0  1  0  0  3  0  0  0  0  0  0
  159.4140  212.6360  142.4090 C   0  0  2  0  0  3  0  0  0  0  0  0
  158.7770  212.9670  143.7350 C   0  0  0  0  0  2  0  0  0  0  0  0
  157.0820  213.1750  139.7390 C   0  0  0  0  0  0  0  0  0  0  0  0
  163.1030  213.4860  141.5490 C   0  0  2  0  0  3  0  0  0  0  0  0
  158.5020  214.2110  137.9790 C   0  0  0  0  0  2  0  0  0  0  0  0
  160.7110  214.0330  146.5840 C   0  0  0  0  0  3  0  0  0  0  0  0
  156.4040  212.9870  137.3590 C   0  0  0  0  0  1  0  0  0  0  0  0
  156.0420  213.0930  140.3720 O   0  0  0  0  0  0  0  0  0  0  0  0
  161.8310  211.7460  137.5260 C   0  0  0  0  0  1  0  0  0  0  0  0
  159.6040  213.7020  145.8520 N   0  0  0  0  0  0  0  0  0  0  0  0
  159.4430  213.0060  138.0260 C   0  0  1  0  0  3  0  0  0  0  0  0
  164.2520  212.7600  138.8830 C   0  0  0  0  0  2  0  0  0  0  0  0
  166.2230  214.0820  139.2160 O   0  0  0  0  0  1  0  0  0  0  0  0
  165.3790  213.5600  138.2360 C   0  0  0  0  0  2  0  0  0  0  0  0
  1  5  1  0  0  0  0
  2 10  1  0  0  0  0
  3 14  1  0  0  0  0
  4 13  1  0  0  0  0
  4  1  1  0  0  0  0
  5 17  1  0  0  0  0
  6 13  1  0  0  0  0
  7 27  1  0  0  0  0
  8 23  1  0  0  0  0
  9 18  1  0  0  0  0
 10  8  2  0  0  0  0
 11 20  1  0  0  0  0
 12  2  1  0  0  0  0
 13 15  1  0  0  0  0
 14  7  2  0  0  0  0
 14 10  1  0  0  0  0
 15 21  1  0  0  0  0
 16  3  1  0  0  0  0
 17  9  1  0  0  0  0
 18  3  1  0  0  0  0
 18 19  1  0  0  0  0
 19  7  1  0  0  0  0
 20 17  1  0  0  0  0
 20 25  2  0  0  0  0
 21 16  1  0  0  0  0
 21 12  1  0  0  0  0
 22 28  1  0  0  0  0
 22 11  1  0  0  0  0
 24 11  1  0  0  0  0
 26  4  1  0  0  0  0
 27 23  2  0  0  0  0
 28  1  1  0  0  0  0
 28  5  1  0  0  0  0
 29 13  1  0  0  0  0
 31 29  1  0  0  0  0
 31 30  1  0  0  0  0
M  END
>  <MODEL>
4

>  <REMARK>
 VINA RESULT:      -4.0      9.279     13.597
  Name = 
  2 active torsions:
  status: ('A' for Active; 'I' for Inactive)
    1  A    between atoms: C_14  and  C_24
    2  A    between atoms: C_19  and  C_24
                            x       y       z     vdW  Elec       q    Type
                         _______ _______ _______ _____ _____    ______ ____

>  <TORSDO>
F 2

$$$$
=
 OpenBabel11052409433D

 31 36  0  0  1  0  0  0  0  0999 V2000
  161.0570  211.4880  140.3750 N   0  0  2  0  0  0  0  0  0  0  0  0
  156.7650  209.5740  137.0990 O   0  0  0  0  0  0  0  0  0  0  0  0
  157.7590  211.7010  138.9050 C   0  0  1  0  0  3  0  0  0  0  0  0
  161.6880  211.2100  139.0620 C   0  0  2  0  0  3  0  0  0  0  0  0
  160.9310  212.9550  140.5120 C   0  0  1  0  0  3  0  0  0  0  0  0
  162.3130  208.9620  139.5780 O   0  0  0  0  0  1  0  0  0  0  0  0
  155.6870  212.2250  139.4230 C   0  0  0  0  0  0  0  0  0  0  0  0
  154.5610  210.4230  137.6720 C   0  0  0  0  0  3  0  0  0  0  0  0
  158.5340  212.4490  141.0570 N   0  0  0  0  0  2  0  0  0  0  0  0
  155.9570  210.4640  137.8070 C   0  0  0  0  0  0  0  0  0  0  0  0
  160.9380  213.0420  143.4960 C   0  0  1  0  0  3  0  0  0  0  0  0
  157.8860  208.9540  137.7200 C   0  0  0  0  0  2  0  0  0  0  0  0
  161.5440  209.7180  138.6870 C   0  0  1  0  0  0  0  0  0  0  0  0
  156.4960  211.3940  138.6980 C   0  0  0  0  0  0  0  0  0  0  0  0
  160.0820  209.2500  138.8090 C   0  0  0  0  0  2  0  0  0  0  0  0
  158.8490  211.2380  138.1070 N   0  0  0  0  0  2  0  0  0  0  0  0
  159.6380  213.3790  141.2550 C   0  0  1  0  0  3  0  0  0  0  0  0
  157.8390  212.8600  139.8460 C   0  0  2  0  0  3  0  0  0  0  0  0
  156.3790  213.0990  140.1370 C   0  0  0  0  0  2  0  0  0  0  0  0
  159.8290  213.6770  142.7160 C   0  0  0  0  0  0  0  0  0  0  0  0
  159.1300  209.8430  137.7720 C   0  0  2  0  0  3  0  0  0  0  0  0
  161.5180  211.8520  142.7420 C   0  0  0  0  0  2  0  0  0  0  0  0
  153.7610  211.2890  138.4450 C   0  0  0  0  0  3  0  0  0  0  0  0
  162.0190  214.0600  143.8190 C   0  0  0  0  0  1  0  0  0  0  0  0
  159.0550  214.4350  143.2780 O   0  0  0  0  0  0  0  0  0  0  0  0
  163.1510  211.6790  138.9120 C   0  0  0  0  0  1  0  0  0  0  0  0
  154.3350  212.1760  139.3120 N   0  0  0  0  0  0  0  0  0  0  0  0
  161.9350  212.2130  141.3150 C   0  0  1  0  0  3  0  0  0  0  0  0
  162.0570  209.4910  137.2530 C   0  0  0  0  0  2  0  0  0  0  0  0
  161.6620  207.1410  137.0110 O   0  0  0  0  0  1  0  0  0  0  0  0
  162.6660  208.1100  137.0370 C   0  0  0  0  0  2  0  0  0  0  0  0
  1  5  1  0  0  0  0
  1 28  1  0  0  0  0
  2 12  1  0  0  0  0
  2 10  1  0  0  0  0
  3 18  1  0  0  0  0
  4  1  1  0  0  0  0
  5 17  1  0  0  0  0
  5 28  1  0  0  0  0
  7 19  1  0  0  0  0
  8 10  2  0  0  0  0
  8 23  1  0  0  0  0
  9 17  1  0  0  0  0
 10 14  1  0  0  0  0
 11 24  1  0  0  0  0
 12 21  1  0  0  0  0
 13 15  1  0  0  0  0
 13  4  1  0  0  0  0
 13  6  1  0  0  0  0
 14  3  1  0  0  0  0
 14  7  2  0  0  0  0
 16  3  1  0  0  0  0
 17 20  1  0  0  0  0
 18 19  1  0  0  0  0
 18  9  1  0  0  0  0
 20 25  2  0  0  0  0
 20 11  1  0  0  0  0
 21 16  1  0  0  0  0
 21 15  1  0  0  0  0
 22 11  1  0  0  0  0
 23 27  2  0  0  0  0
 26  4  1  0  0  0  0
 27  7  1  0  0  0  0
 28 22  1  0  0  0  0
 29 13  1  0  0  0  0
 30 31  1  0  0  0  0
 31 29  1  0  0  0  0
M  END
>  <MODEL>
5

>  <REMARK>
 VINA RESULT:      -3.9     10.994     13.891
  Name = 
  2 active torsions:
  status: ('A' for Active; 'I' for Inactive)
    1  A    between atoms: C_14  and  C_24
    2  A    between atoms: C_19  and  C_24
                            x       y       z     vdW  Elec       q    Type
                         _______ _______ _______ _____ _____    ______ ____

>  <TORSDO>
F 2

$$$$
=
 OpenBabel11052409433D

 31 36  0  0  1  0  0  0  0  0999 V2000
  161.5380  207.0570  150.2330 N   0  0  2  0  0  0  0  0  0  0  0  0
  160.8840  211.4320  153.8720 O   0  0  0  0  0  0  0  0  0  0  0  0
  161.3850  208.5320  153.5310 C   0  0  1  0  0  3  0  0  0  0  0  0
  162.4950  208.0830  149.7530 C   0  0  2  0  0  3  0  0  0  0  0  0
  162.3170  205.9940  150.9030 C   0  0  1  0  0  3  0  0  0  0  0  0
  160.9770  209.1150  148.2220 O   0  0  0  0  0  1  0  0  0  0  0  0
  160.5620  208.1580  155.5350 C   0  0  0  0  0  0  0  0  0  0  0  0
  160.1770  210.8220  156.1160 C   0  0  0  0  0  3  0  0  0  0  0  0
  160.7020  206.3470  152.7920 N   0  0  0  0  0  2  0  0  0  0  0  0
  160.6520  210.4600  154.8460 C   0  0  0  0  0  0  0  0  0  0  0  0
  160.3590  203.7820  150.4720 C   0  0  1  0  0  3  0  0  0  0  0  0
  160.5110  211.2110  152.5170 C   0  0  0  0  0  2  0  0  0  0  0  0
  161.7550  209.3800  149.3540 C   0  0  1  0  0  0  0  0  0  0  0  0
  160.8430  209.1020  154.5870 C   0  0  0  0  0  0  0  0  0  0  0  0
  160.8120  209.8540  150.4750 C   0  0  0  0  0  2  0  0  0  0  0  0
  162.0560  209.2340  152.4840 N   0  0  0  0  0  2  0  0  0  0  0  0
  161.5800  205.3920  152.1280 C   0  0  1  0  0  3  0  0  0  0  0  0
  161.5090  207.0610  153.7700 C   0  0  2  0  0  3  0  0  0  0  0  0
  160.8960  206.9380  155.1420 C   0  0  0  0  0  2  0  0  0  0  0  0
  160.8550  204.1060  151.8470 C   0  0  0  0  0  0  0  0  0  0  0  0
  161.5160  210.3660  151.7320 C   0  0  2  0  0  3  0  0  0  0  0  0
  160.3460  205.0270  149.5940 C   0  0  0  0  0  2  0  0  0  0  0  0
  159.8880  209.8180  157.0630 C   0  0  0  0  0  3  0  0  0  0  0  0
  161.2000  202.6820  149.8440 C   0  0  0  0  0  1  0  0  0  0  0  0
  160.6510  203.3230  152.7610 O   0  0  0  0  0  0  0  0  0  0  0  0
  163.4570  207.6290  148.6360 C   0  0  0  0  0  1  0  0  0  0  0  0
  160.0810  208.4990  156.7580 N   0  0  0  0  0  0  0  0  0  0  0  0
  161.6980  205.7430  149.5780 C   0  0  1  0  0  3  0  0  0  0  0  0
  162.7800  210.4800  149.0210 C   0  0  0  0  0  2  0  0  0  0  0  0
  163.1740  212.5480  147.8760 O   0  0  0  0  0  1  0  0  0  0  0  0
  162.1680  211.6890  148.3200 C   0  0  0  0  0  2  0  0  0  0  0  0
  1  5  1  0  0  0  0
  2 10  1  0  0  0  0
  3 18  1  0  0  0  0
  3 14  1  0  0  0  0
  4  1  1  0  0  0  0
  5 17  1  0  0  0  0
  6 13  1  0  0  0  0
  7 27  1  0  0  0  0
  8 23  1  0  0  0  0
  9 18  1  0  0  0  0
 10  8  2  0  0  0  0
 11 20  1  0  0  0  0
 12  2  1  0  0  0  0
 13  4  1  0  0  0  0
 13 15  1  0  0  0  0
 14 10  1  0  0  0  0
 14  7  2  0  0  0  0
 15 21  1  0  0  0  0
 16  3  1  0  0  0  0
 17  9  1  0  0  0  0
 18 19  1  0  0  0  0
 19  7  1  0  0  0  0
 20 17  1  0  0  0  0
 20 25  2  0  0  0  0
 21 16  1  0  0  0  0
 21 12  1  0  0  0  0
 22 11  1  0  0  0  0
 24 11  1  0  0  0  0
 26  4  1  0  0  0  0
 27 23  2  0  0  0  0
 28 22  1  0  0  0  0
 28  1  1  0  0  0  0
 28  5  1  0  0  0  0
 29 13  1  0  0  0  0
 30 31  1  0  0  0  0
 31 29  1  0  0  0  0
M  END
>  <MODEL>
6

>  <REMARK>
 VINA RESULT:      -3.4      1.841      5.605
  Name = 
  2 active torsions:
  status: ('A' for Active; 'I' for Inactive)
    1  A    between atoms: C_14  and  C_24
    2  A    between atoms: C_19  and  C_24
                            x       y       z     vdW  Elec       q    Type
                         _______ _______ _______ _____ _____    ______ ____

>  <TORSDO>
F 2

$$$$
=
 OpenBabel11052409433D

 31 36  0  0  1  0  0  0  0  0999 V2000
  161.5890  208.4450  149.2630 N   0  0  2  0  0  0  0  0  0  0  0  0
  160.6780  211.5910  153.9620 O   0  0  0  0  0  0  0  0  0  0  0  0
  161.3930  208.9450  152.8390 C   0  0  1  0  0  3  0  0  0  0  0  0
  162.4540  209.6360  149.0840 C   0  0  2  0  0  3  0  0  0  0  0  0
  162.4620  207.3040  149.6170 C   0  0  1  0  0  3  0  0  0  0  0  0
  160.8310  210.9220  147.8930 O   0  0  0  0  0  1  0  0  0  0  0  0
  160.6420  207.9720  154.6630 C   0  0  0  0  0  0  0  0  0  0  0  0
  160.0660  210.3360  155.9510 C   0  0  0  0  0  3  0  0  0  0  0  0
  160.8640  206.9970  151.5280 N   0  0  0  0  0  2  0  0  0  0  0  0
  160.5410  210.3750  154.6310 C   0  0  0  0  0  0  0  0  0  0  0  0
  160.6710  205.1460  148.5930 C   0  0  1  0  0  3  0  0  0  0  0  0
  160.2940  211.7200  152.5970 C   0  0  0  0  0  2  0  0  0  0  0  0
  161.6090  210.9290  149.0550 C   0  0  1  0  0  0  0  0  0  0  0  0
  160.8300  209.1590  154.0100 C   0  0  0  0  0  0  0  0  0  0  0  0
  160.6570  211.0020  150.2620 C   0  0  0  0  0  2  0  0  0  0  0  0
  161.9860  209.9570  152.0250 N   0  0  0  0  0  2  0  0  0  0  0  0
  161.7990  206.3340  150.6280 C   0  0  1  0  0  3  0  0  0  0  0  0
  161.6340  207.4790  152.6650 C   0  0  2  0  0  3  0  0  0  0  0  0
  161.0610  206.9370  153.9510 C   0  0  0  0  0  2  0  0  0  0  0  0
  161.1690  205.1200  150.0050 C   0  0  0  0  0  0  0  0  0  0  0  0
  161.3450  211.2050  151.6110 C   0  0  2  0  0  3  0  0  0  0  0  0
  160.5450  206.5780  148.0900 C   0  0  0  0  0  2  0  0  0  0  0  0
  159.8750  209.0920  156.5860 C   0  0  0  0  0  3  0  0  0  0  0  0
  161.5810  204.3310  147.6880 C   0  0  0  0  0  1  0  0  0  0  0  0
  161.0460  204.1030  150.6680 O   0  0  0  0  0  0  0  0  0  0  0  0
  163.4260  209.5830  147.8860 C   0  0  0  0  0  1  0  0  0  0  0  0
  160.1630  207.9270  155.9320 N   0  0  0  0  0  0  0  0  0  0  0  0
  161.8370  207.3770  148.2730 C   0  0  1  0  0  3  0  0  0  0  0  0
  162.5400  212.1560  149.0370 C   0  0  0  0  0  2  0  0  0  0  0  0
  161.4140  214.2710  149.0110 O   0  0  0  0  0  1  0  0  0  0  0  0
  162.0080  213.3100  148.1920 C   0  0  0  0  0  2  0  0  0  0  0  0
  1  5  1  0  0  0  0
  2 10  1  0  0  0  0
  3 14  1  0  0  0  0
  4  1  1  0  0  0  0
  5 17  1  0  0  0  0
  6 13  1  0  0  0  0
  7 27  1  0  0  0  0
  8 23  1  0  0  0  0
  9 18  1  0  0  0  0
 10  8  2  0  0  0  0
 11 20  1  0  0  0  0
 12  2  1  0  0  0  0
 13  4  1  0  0  0  0
 13 15  1  0  0  0  0
 14 10  1  0  0  0  0
 14  7  2  0  0  0  0
 15 21  1  0  0  0  0
 16  3  1  0  0  0  0
 17  9  1  0  0  0  0
 18  3  1  0  0  0  0
 18 19  1  0  0  0  0
 19  7  1  0  0  0  0
 20 17  1  0  0  0  0
 20 25  2  0  0  0  0
 21 16  1  0  0  0  0
 21 12  1  0  0  0  0
 22 28  1  0  0  0  0
 22 11  1  0  0  0  0
 24 11  1  0  0  0  0
 26  4  1  0  0  0  0
 27 23  2  0  0  0  0
 28  1  1  0  0  0  0
 28  5  1  0  0  0  0
 29 13  1  0  0  0  0
 31 30  1  0  0  0  0
 31 29  1  0  0  0  0
M  END
>  <MODEL>
7

>  <REMARK>
 VINA RESULT:      -3.3      2.004      5.663
  Name = 
  2 active torsions:
  status: ('A' for Active; 'I' for Inactive)
    1  A    between atoms: C_14  and  C_24
    2  A    between atoms: C_19  and  C_24
                            x       y       z     vdW  Elec       q    Type
                         _______ _______ _______ _____ _____    ______ ____

>  <TORSDO>
F 2

$$$$
=
 OpenBabel11052409433D

 31 36  0  0  1  0  0  0  0  0999 V2000
  160.7550  213.1290  142.4200 N   0  0  2  0  0  0  0  0  0  0  0  0
  158.1650  212.6790  137.3310 O   0  0  0  0  0  0  0  0  0  0  0  0
  158.0990  213.8200  140.0640 C   0  0  1  0  0  3  0  0  0  0  0  0
  161.8030  213.4980  141.4380 C   0  0  2  0  0  3  0  0  0  0  0  0
  160.2970  214.3730  143.0770 C   0  0  1  0  0  3  0  0  0  0  0  0
  162.6820  211.2890  141.2000 O   0  0  0  0  0  1  0  0  0  0  0  0
  155.9080  213.9570  139.9500 C   0  0  0  0  0  0  0  0  0  0  0  0
  155.7680  213.0770  137.3440 C   0  0  0  0  0  3  0  0  0  0  0  0
  158.0040  213.5630  142.4550 N   0  0  0  0  0  2  0  0  0  0  0  0
  157.0150  213.1200  137.9860 C   0  0  0  0  0  0  0  0  0  0  0  0
  159.3660  213.1170  145.6210 C   0  0  1  0  0  3  0  0  0  0  0  0
  159.1420  211.9020  138.0140 C   0  0  0  0  0  2  0  0  0  0  0  0
  162.0880  212.3260  140.4730 C   0  0  1  0  0  0  0  0  0  0  0  0
  157.0520  213.5780  139.3040 C   0  0  0  0  0  0  0  0  0  0  0  0
  160.7870  211.7840  139.8520 C   0  0  0  0  0  2  0  0  0  0  0  0
  159.4530  213.8150  139.6070 N   0  0  0  0  0  2  0  0  0  0  0  0
  158.7800  214.3570  143.3980 C   0  0  1  0  0  3  0  0  0  0  0  0
  157.6480  214.4380  141.3480 C   0  0  2  0  0  3  0  0  0  0  0  0
  156.1530  214.4520  141.1540 C   0  0  0  0  0  2  0  0  0  0  0  0
  158.4460  213.9800  144.8140 C   0  0  0  0  0  0  0  0  0  0  0  0
  160.1010  212.7320  138.8700 C   0  0  2  0  0  3  0  0  0  0  0  0
  160.3800  212.4180  144.7230 C   0  0  0  0  0  2  0  0  0  0  0  0
  154.6100  213.4670  138.0480 C   0  0  0  0  0  3  0  0  0  0  0  0
  160.0640  213.9340  146.6960 C   0  0  0  0  0  1  0  0  0  0  0  0
  157.3990  214.3690  145.3060 O   0  0  0  0  0  0  0  0  0  0  0  0
  163.1120  214.0540  142.0350 C   0  0  0  0  0  1  0  0  0  0  0  0
  154.6950  213.8990  139.3420 N   0  0  0  0  0  0  0  0  0  0  0  0
  161.1330  213.3990  143.8220 C   0  0  1  0  0  3  0  0  0  0  0  0
  163.0520  212.7890  139.3650 C   0  0  0  0  0  2  0  0  0  0  0  0
  163.0810  211.2840  137.5020 O   0  0  0  0  0  1  0  0  0  0  0  0
  163.7680  211.6400  138.6630 C   0  0  0  0  0  2  0  0  0  0  0  0
  1  5  1  0  0  0  0
  1 28  1  0  0  0  0
  2 10  1  0  0  0  0
  2 12  1  0  0  0  0
  3 18  1  0  0  0  0
  4 26  1  0  0  0  0
  4  1  1  0  0  0  0
  5 17  1  0  0  0  0
  5 28  1  0  0  0  0
  7 19  1  0  0  0  0
  8 10  2  0  0  0  0
  8 23  1  0  0  0  0
  9 17  1  0  0  0  0
 10 14  1  0  0  0  0
 11 24  1  0  0  0  0
 12 21  1  0  0  0  0
 13  6  1  0  0  0  0
 13  4  1  0  0  0  0
 14  7  2  0  0  0  0
 14  3  1  0  0  0  0
 15 13  1  0  0  0  0
 16  3  1  0  0  0  0
 17 20  1  0  0  0  0
 18  9  1  0  0  0  0
 19 18  1  0  0  0  0
 20 25  2  0  0  0  0
 20 11  1  0  0  0  0
 21 16  1  0  0  0  0
 21 15  1  0  0  0  0
 22 11  1  0  0  0  0
 23 27  2  0  0  0  0
 27  7  1  0  0  0  0
 28 22  1  0  0  0  0
 29 13  1  0  0  0  0
 30 31  1  0  0  0  0
 31 29  1  0  0  0  0
M  END
>  <MODEL>
8

>  <REMARK>
 VINA RESULT:      -3.1      9.500     13.143
  Name = 
  2 active torsions:
  status: ('A' for Active; 'I' for Inactive)
    1  A    between atoms: C_14  and  C_24
    2  A    between atoms: C_19  and  C_24
                            x       y       z     vdW  Elec       q    Type
                         _______ _______ _______ _____ _____    ______ ____

>  <TORSDO>
F 2

$$$$
=
 OpenBabel11052409433D

 31 36  0  0  1  0  0  0  0  0999 V2000
  160.9500  211.3140  139.2180 N   0  0  2  0  0  0  0  0  0  0  0  0
  155.9480  214.0340  139.8470 O   0  0  0  0  0  0  0  0  0  0  0  0
  157.3400  211.4610  139.3810 C   0  0  1  0  0  3  0  0  0  0  0  0
  161.0970  212.0710  140.4850 C   0  0  2  0  0  3  0  0  0  0  0  0
  160.7620  209.8890  139.5650 C   0  0  1  0  0  3  0  0  0  0  0  0
  162.0440  214.0200  139.4800 O   0  0  0  0  0  1  0  0  0  0  0  0
  155.5500  210.6800  138.3700 C   0  0  0  0  0  0  0  0  0  0  0  0
  154.0280  212.9230  138.8560 C   0  0  0  0  0  3  0  0  0  0  0  0
  158.7620  210.0430  138.0560 N   0  0  0  0  0  2  0  0  0  0  0  0
  155.3730  212.9100  139.2540 C   0  0  0  0  0  0  0  0  0  0  0  0
  161.8170  208.7530  137.0130 C   0  0  1  0  0  3  0  0  0  0  0  0
  157.2630  214.4530  139.4970 C   0  0  0  0  0  2  0  0  0  0  0  0
  160.9510  213.5890  140.2390 C   0  0  1  0  0  0  0  0  0  0  0  0
  156.1140  211.7560  139.0000 C   0  0  0  0  0  0  0  0  0  0  0  0
  159.6700  213.9070  139.4460 C   0  0  0  0  0  2  0  0  0  0  0  0
  158.1110  212.2330  140.3020 N   0  0  0  0  0  2  0  0  0  0  0  0
  159.7850  209.1620  138.6040 C   0  0  1  0  0  3  0  0  0  0  0  0
  157.6530  210.0500  138.9980 C   0  0  2  0  0  3  0  0  0  0  0  0
  156.3760  209.6480  138.3040 C   0  0  0  0  0  2  0  0  0  0  0  0
  160.4550  208.3770  137.5120 C   0  0  0  0  0  0  0  0  0  0  0  0
  158.3680  213.6690  140.2080 C   0  0  2  0  0  3  0  0  0  0  0  0
  162.1870  210.1620  137.4600 C   0  0  0  0  0  2  0  0  0  0  0  0
  153.4850  211.7990  138.2000 C   0  0  0  0  0  3  0  0  0  0  0  0
  162.8550  207.7450  137.4770 C   0  0  0  0  0  1  0  0  0  0  0  0
  159.8710  207.4300  137.0110 O   0  0  0  0  0  0  0  0  0  0  0  0
  162.3680  211.7620  141.3040 C   0  0  0  0  0  1  0  0  0  0  0  0
  154.2550  210.6940  137.9630 N   0  0  0  0  0  0  0  0  0  0  0  0
  162.0420  210.3500  138.9720 C   0  0  1  0  0  3  0  0  0  0  0  0
  160.9400  214.3340  141.5860 C   0  0  0  0  0  2  0  0  0  0  0  0
  159.5380  214.3320  143.5290 O   0  0  0  0  0  1  0  0  0  0  0  0
  160.3410  213.5190  142.7280 C   0  0  0  0  0  2  0  0  0  0  0  0
  1  5  1  0  0  0  0
  1  4  1  0  0  0  0
  3 16  1  0  0  0  0
  4 26  1  0  0  0  0
  6 13  1  0  0  0  0
  7 14  1  0  0  0  0
  8 10  1  0  0  0  0
  9 17  1  0  0  0  0
  9 18  1  0  0  0  0
 10  2  1  0  0  0  0
 11 22  1  0  0  0  0
 11 24  1  0  0  0  0
 11 20  1  0  0  0  0
 12  2  1  0  0  0  0
 12 21  1  0  0  0  0
 13  4  1  0  0  0  0
 13 29  1  0  0  0  0
 14 10  2  0  0  0  0
 14  3  1  0  0  0  0
 15 21  1  0  0  0  0
 15 13  1  0  0  0  0
 17  5  1  0  0  0  0
 18  3  1  0  0  0  0
 19  7  1  0  0  0  0
 19 18  1  0  0  0  0
 20 17  1  0  0  0  0
 21 16  1  0  0  0  0
 22 28  1  0  0  0  0
 23  8  2  0  0  0  0
 25 20  2  0  0  0  0
 27 23  1  0  0  0  0
 27  7  2  0  0  0  0
 28  1  1  0  0  0  0
 28  5  1  0  0  0  0
 29 31  1  0  0  0  0
 31 30  1  0  0  0  0
M  END
>  <MODEL>
9

>  <REMARK>
 VINA RESULT:      -2.7     11.783     14.680
  Name = 
  2 active torsions:
  status: ('A' for Active; 'I' for Inactive)
    1  A    between atoms: C_14  and  C_24
    2  A    between atoms: C_19  and  C_24
                            x       y       z     vdW  Elec       q    Type
                         _______ _______ _______ _____ _____    ______ ____

>  <TORSDO>
F 2

$$$$
