=
 OpenBabel11052409473D

 63 67  0  0  1  0  0  0  0  0999 V2000
  160.0620  211.9780  146.6450 C   0  0  2  0  0  3  0  0  0  0  0  0
  159.5650  213.3310  148.6630 C   0  0  0  0  0  0  0  0  0  0  0  0
  161.5490  211.8060  148.3320 C   0  0  0  0  0  2  0  0  0  0  0  0
  157.5290  214.4530  149.5840 C   0  0  0  0  0  3  0  0  0  0  0  0
  160.9090  212.8900  149.2040 C   0  0  2  0  0  3  0  0  0  0  0  0
  159.1550  212.9130  147.4350 C   0  0  0  0  0  0  0  0  0  0  0  0
  157.8510  213.2710  146.8180 C   0  0  0  0  0  3  0  0  0  0  0  0
  156.7200  213.5450  147.4700 C   0  0  0  0  0  3  0  0  0  0  0  0
  161.4210  212.1560  146.9820 O   0  0  0  0  0  0  0  0  0  0  0  0
  156.6010  213.4760  148.9540 C   0  0  0  0  0  2  0  0  0  0  0  0
  158.8540  214.3570  149.4590 C   0  0  0  0  0  3  0  0  0  0  0  0
  160.3970  213.2600  144.4560 C   0  0  0  0  0  0  0  0  0  0  0  0
  161.0070  214.1960  145.0420 O   0  0  0  0  0  0  0  0  0  0  0  0
  160.2110  213.2960  143.0410 N   0  0  0  0  0  2  0  0  0  0  0  0
  159.8940  212.1470  145.1990 N   0  0  0  0  0  2  0  0  0  0  0  0
  160.7630  214.3580  142.2180 C   0  0  0  0  0  2  0  0  0  0  0  0
  160.4780  214.1070  140.7490 C   0  0  0  0  0  2  0  0  0  0  0  0
  161.1010  212.7880  140.2900 C   0  0  0  0  0  2  0  0  0  0  0  0
  161.4210  212.7720  138.7920 C   0  0  1  0  0  3  0  0  0  0  0  0
  162.4770  213.8220  138.4670 C   0  0  0  0  0  1  0  0  0  0  0  0
  163.2490  211.2380  138.3790 O   0  0  0  0  0  1  0  0  0  0  0  0
  161.8590  211.3790  138.3040 C   0  0  1  0  0  3  0  0  0  0  0  0
  161.1880  210.2110  139.0340 C   0  0  2  0  0  3  0  0  0  0  0  0
  162.0350  209.0990  139.1090 O   0  0  0  0  0  0  0  0  0  0  0  0
  161.1890  207.9960  138.9970 C   0  0  0  0  0  1  0  0  0  0  0  0
  159.8170  209.8370  138.4620 C   0  0  0  0  0  2  0  0  0  0  0  0
  158.8470  209.7990  139.4670 O   0  0  0  0  0  0  0  0  0  0  0  0
  156.8530  212.3860  138.1290 C   0  0  0  0  0  2  0  0  0  0  0  0
  157.8390  210.3140  137.4740 O   0  0  0  0  0  0  0  0  0  0  0  0
  157.0450  211.3820  137.0110 C   0  0  0  0  0  2  0  0  0  0  0  0
  157.4800  211.7340  139.3220 C   0  0  0  0  0  2  0  0  0  0  0  0
  157.6940  210.3130  138.8720 C   0  0  2  0  0  3  0  0  0  0  0  0
  160.8070  212.4340  150.6610 C   0  0  0  0  0  2  0  0  0  0  0  0
  160.2500  211.0230  150.7780 C   0  0  0  0  0  2  0  0  0  0  0  0
  159.2800  211.4190  153.1120 C   0  0  0  0  0  0  0  0  0  0  0  0
  160.4760  209.0050  153.9670 C   0  0  0  0  0  0  0  0  0  0  0  0
  159.9990  210.6170  152.1980 C   0  0  0  0  0  0  0  0  0  0  0  0
  160.5990  209.4360  152.6380 C   0  0  0  0  0  3  0  0  0  0  0  0
  159.1430  210.9830  154.4380 C   0  0  0  0  0  3  0  0  0  0  0  0
  159.7360  209.7920  154.8620 C   0  0  0  0  0  3  0  0  0  0  0  0
  157.0700  214.4500  152.5120 O   0  0  0  0  0  0  0  0  0  0  0  0
  157.4060  213.1770  152.9380 C   0  0  0  0  0  0  0  0  0  0  0  0
  158.7240  212.6730  152.6800 N   0  0  0  0  0  2  0  0  0  0  0  0
  156.5630  212.4980  153.5820 O   0  0  0  0  0  1  0  0  0  0  0  0
  161.6490  206.7870  153.5120 C   0  0  0  0  0  0  0  0  0  0  0  0
  161.1830  207.8250  154.4040 N   0  0  0  0  0  0  0  0  0  0  0  0
  162.5800  206.0180  153.8830 O   0  0  0  0  0  0  0  0  0  0  0  0
  161.4600  207.6770  155.8320 C   0  0  0  0  0  2  0  0  0  0  0  0
  162.2090  208.7630  156.2880 O   0  0  0  0  0  1  0  0  0  0  0  0
  161.0490  206.5630  152.1620 C   0  0  0  0  0  2  0  0  0  0  0  0
  162.1320  206.3940  151.1110 C   0  0  0  0  0  2  0  0  0  0  0  0
  161.7240  205.2610  150.1700 C   0  0  1  0  0  3  0  0  0  0  0  0
  161.6280  203.4450  151.9190 C   0  0  0  0  0  1  0  0  0  0  0  0
  160.3340  203.2050  149.8520 C   0  0  0  0  0  1  0  0  0  0  0  0
  160.8450  204.2100  150.8660 C   0  0  0  0  0  3  0  0  0  0  0  0
  160.8940  207.1900  148.9860 O   0  0  0  0  0  1  0  0  0  0  0  0
  161.0630  205.8050  148.8940 C   0  0  1  0  0  3  0  0  0  0  0  0
  161.8540  205.4410  147.6320 C   0  0  2  0  0  3  0  0  0  0  0  0
  161.2890  204.9110  144.2190 N   0  0  0  0  0  1  0  0  0  0  0  0
  160.6970  206.5580  145.8310 N   0  0  0  0  0  2  0  0  0  0  0  0
  161.8870  206.6080  146.6640 C   0  0  0  0  0  2  0  0  0  0  0  0
  160.5190  205.1720  145.4230 C   0  0  2  0  0  3  0  0  0  0  0  0
  161.0630  204.0620  146.7560 S   0  0  0  0  0  0  0  0  0  0  0  0
  1 15  1  6  0  0  0
  1  9  1  0  0  0  0
  1  6  1  0  0  0  0
  2  5  1  0  0  0  0
  2 11  1  0  0  0  0
  3  5  1  0  0  0  0
  5 33  1  1  0  0  0
  6  2  2  0  0  0  0
  7  6  1  0  0  0  0
  7  8  2  0  0  0  0
  8 10  1  0  0  0  0
  9  3  1  0  0  0  0
 10  4  1  0  0  0  0
 11  4  2  0  0  0  0
 12 13  2  0  0  0  0
 12 15  1  0  0  0  0
 14 12  1  0  0  0  0
 16 14  1  0  0  0  0
 17 16  1  0  0  0  0
 18 17  1  0  0  0  0
 19 20  1  1  0  0  0
 19 18  1  0  0  0  0
 22 21  1  1  0  0  0
 22 19  1  0  0  0  0
 22 23  1  0  0  0  0
 23 26  1  6  0  0  0
 23 24  1  0  0  0  0
 25 24  1  0  0  0  0
 26 27  1  0  0  0  0
 28 31  1  0  0  0  0
 29 32  1  0  0  0  0
 30 29  1  0  0  0  0
 30 28  1  0  0  0  0
 32 31  1  0  0  0  0
 32 27  1  1  0  0  0
 33 34  1  0  0  0  0
 34 37  1  0  0  0  0
 35 39  1  0  0  0  0
 36 46  1  0  0  0  0
 36 40  1  0  0  0  0
 37 38  1  0  0  0  0
 37 35  2  0  0  0  0
 38 36  2  0  0  0  0
 39 40  2  0  0  0  0
 41 42  2  0  0  0  0
 42 44  1  0  0  0  0
 43 42  1  0  0  0  0
 43 35  1  0  0  0  0
 45 47  2  0  0  0  0
 45 46  1  0  0  0  0
 46 48  1  0  0  0  0
 48 49  1  0  0  0  0
 50 45  1  0  0  0  0
 51 50  1  0  0  0  0
 52 55  1  0  0  0  0
 52 51  1  1  0  0  0
 54 55  1  0  0  0  0
 55 53  1  0  0  0  0
 57 56  1  1  0  0  0
 57 52  1  0  0  0  0
 58 57  1  1  0  0  0
 60 61  1  0  0  0  0
 61 58  1  0  0  0  0
 62 59  1  6  0  0  0
 62 60  1  0  0  0  0
 62 63  1  0  0  0  0
 63 58  1  0  0  0  0
M  END
>  <MODEL>
1

>  <REMARK>
 VINA RESULT:      -5.3      0.000      0.000
  Name = 
  23 active torsions:
  status: ('A' for Active; 'I' for Inactive)
    1  A    between atoms: C_1  and  N_60
    2  A    between atoms: C_2  and  C_22
    3  A    between atoms: C_2  and  C_49
    4  A    between atoms: O_3  and  C_10
    5  A    between atoms: C_6  and  C_43
    6  A    between atoms: C_6  and  C_63
    7  A    between atoms: C_9  and  N_56
    8  A    between atoms: C_10  and  C_26
    9  A    between atoms: C_10  and  C_34
   10  A    between atoms: C_11  and  N_50
   11  A    between atoms: C_12  and  C_14
   12  A    between atoms: C_12  and  C_34
   13  A    between atoms: C_14  and  C_53
   14  A    between atoms: C_15  and  N_50
   15  A    between atoms: C_16  and  N_47
   16  A    between atoms: C_16  and  C_53
   17  A    between atoms: C_21  and  C_49
   18  A    between atoms: C_24  and  C_58
   19  A    between atoms: C_26  and  O_30
   20  A    between atoms: C_29  and  C_43
   21  A    between atoms: O_30  and  C_46
   22  A    between atoms: C_31  and  C_63
   23  A    between atoms: C_58  and  C_63
                            x       y       z     vdW  Elec       q    Type
                         _______ _______ _______ _____ _____    ______ ____

>  <TORSDO>
F 23

$$$$
=
 OpenBabel11052409473D

 63 67  0  0  1  0  0  0  0  0999 V2000
  161.4960  206.2140  148.2150 C   0  0  2  0  0  3  0  0  0  0  0  0
  160.7500  205.9370  150.5640 C   0  0  0  0  0  0  0  0  0  0  0  0
  161.4450  208.0960  149.4570 C   0  0  0  0  0  2  0  0  0  0  0  0
  160.5470  204.0050  152.1400 C   0  0  0  0  0  3  0  0  0  0  0  0
  160.8030  207.4450  150.6850 C   0  0  2  0  0  3  0  0  0  0  0  0
  161.0660  205.3370  149.3840 C   0  0  0  0  0  0  0  0  0  0  0  0
  161.0650  203.8670  149.1620 C   0  0  0  0  0  3  0  0  0  0  0  0
  161.3000  202.9310  150.0830 C   0  0  0  0  0  3  0  0  0  0  0  0
  160.9340  207.5070  148.2940 O   0  0  0  0  0  0  0  0  0  0  0  0
  161.6560  203.2530  151.4950 C   0  0  0  0  0  2  0  0  0  0  0  0
  160.1720  205.2160  151.7210 C   0  0  0  0  0  3  0  0  0  0  0  0
  161.8840  205.8200  145.7160 C   0  0  0  0  0  0  0  0  0  0  0  0
  162.8860  206.5860  145.7030 O   0  0  0  0  0  0  0  0  0  0  0  0
  161.4770  205.1440  144.5270 N   0  0  0  0  0  2  0  0  0  0  0  0
  161.1490  205.6120  146.9250 N   0  0  0  0  0  2  0  0  0  0  0  0
  162.2250  205.2520  143.2850 C   0  0  0  0  0  2  0  0  0  0  0  0
  161.3530  205.8120  142.1770 C   0  0  0  0  0  2  0  0  0  0  0  0
  161.8960  207.1530  141.6800 C   0  0  0  0  0  2  0  0  0  0  0  0
  162.6020  207.0420  140.3250 C   0  0  1  0  0  3  0  0  0  0  0  0
  162.4430  205.6340  139.7610 C   0  0  0  0  0  1  0  0  0  0  0  0
  161.5550  207.4890  138.1870 O   0  0  0  0  0  1  0  0  0  0  0  0
  162.1060  208.0990  139.3200 C   0  0  1  0  0  3  0  0  0  0  0  0
  161.1020  209.1010  139.8980 C   0  0  2  0  0  3  0  0  0  0  0  0
  160.0320  209.3180  139.0230 O   0  0  0  0  0  0  0  0  0  0  0  0
  159.3500  210.4140  139.5530 C   0  0  0  0  0  1  0  0  0  0  0  0
  161.7410  210.4200  140.3430 C   0  0  0  0  0  2  0  0  0  0  0  0
  163.1090  210.4380  140.0540 O   0  0  0  0  0  0  0  0  0  0  0  0
  162.1540  212.9850  137.8040 C   0  0  0  0  0  2  0  0  0  0  0  0
  162.8190  212.7110  140.0800 O   0  0  0  0  0  0  0  0  0  0  0  0
  162.4310  213.6720  139.1250 C   0  0  0  0  0  2  0  0  0  0  0  0
  162.5580  211.5620  138.0380 C   0  0  0  0  0  2  0  0  0  0  0  0
  163.3100  211.6210  139.3410 C   0  0  2  0  0  3  0  0  0  0  0  0
  161.5070  207.8820  151.9700 C   0  0  0  0  0  2  0  0  0  0  0  0
  160.5170  208.2040  153.0800 C   0  0  0  0  0  2  0  0  0  0  0  0
  161.1690  210.2220  154.5110 C   0  0  0  0  0  0  0  0  0  0  0  0
  159.4740  211.8350  152.9250 C   0  0  0  0  0  0  0  0  0  0  0  0
  160.4770  209.6640  153.4140 C   0  0  0  0  0  0  0  0  0  0  0  0
  159.6290  210.4680  152.6490 C   0  0  0  0  0  3  0  0  0  0  0  0
  161.0270  211.5920  154.7800 C   0  0  0  0  0  3  0  0  0  0  0  0
  160.1870  212.3880  153.9980 C   0  0  0  0  0  3  0  0  0  0  0  0
  162.4760  207.7840  157.1140 O   0  0  0  0  0  1  0  0  0  0  0  0
  161.5640  208.6070  156.4770 C   0  0  0  0  0  0  0  0  0  0  0  0
  161.9840  209.3820  155.3460 N   0  0  0  0  0  2  0  0  0  0  0  0
  160.3690  208.6280  156.8740 O   0  0  0  0  0  0  0  0  0  0  0  0
  158.7240  213.0180  150.7940 C   0  0  0  0  0  0  0  0  0  0  0  0
  158.5230  212.6130  152.1670 N   0  0  0  0  0  0  0  0  0  0  0  0
  157.7260  213.3280  150.0830 O   0  0  0  0  0  0  0  0  0  0  0  0
  157.2730  212.9990  152.8200 C   0  0  0  0  0  2  0  0  0  0  0  0
  157.0720  212.2250  153.9640 O   0  0  0  0  0  1  0  0  0  0  0  0
  160.0820  213.1180  150.1800 C   0  0  0  0  0  2  0  0  0  0  0  0
  160.0110  212.9190  148.6760 C   0  0  0  0  0  2  0  0  0  0  0  0
  161.3650  213.2890  148.0710 C   0  0  1  0  0  3  0  0  0  0  0  0
  162.0970  211.0860  149.0610 C   0  0  0  0  0  1  0  0  0  0  0  0
  163.7410  212.5160  147.9390 C   0  0  0  0  0  1  0  0  0  0  0  0
  162.2910  212.0720  147.9220 C   0  0  0  0  0  3  0  0  0  0  0  0
  162.4410  214.4520  146.2540 O   0  0  0  0  0  1  0  0  0  0  0  0
  161.1960  214.0450  146.7440 C   0  0  1  0  0  3  0  0  0  0  0  0
  160.4490  213.2140  145.6940 C   0  0  2  0  0  3  0  0  0  0  0  0
  158.9620  213.6380  142.5550 N   0  0  0  0  0  1  0  0  0  0  0  0
  161.0310  214.2190  143.5780 N   0  0  0  0  0  2  0  0  0  0  0  0
  161.2780  213.0700  144.4330 C   0  0  0  0  0  2  0  0  0  0  0  0
  159.5940  214.4510  143.5800 C   0  0  2  0  0  3  0  0  0  0  0  0
  158.9040  214.0350  145.2100 S   0  0  0  0  0  0  0  0  0  0  0  0
  1 15  1  6  0  0  0
  1  9  1  0  0  0  0
  1  6  1  0  0  0  0
  2  5  1  0  0  0  0
  2 11  1  0  0  0  0
  3  5  1  0  0  0  0
  5 33  1  1  0  0  0
  6  2  2  0  0  0  0
  7  6  1  0  0  0  0
  7  8  2  0  0  0  0
  8 10  1  0  0  0  0
  9  3  1  0  0  0  0
 10  4  1  0  0  0  0
 11  4  2  0  0  0  0
 12 15  1  0  0  0  0
 13 12  2  0  0  0  0
 14 12  1  0  0  0  0
 16 14  1  0  0  0  0
 17 16  1  0  0  0  0
 18 17  1  0  0  0  0
 19 20  1  6  0  0  0
 19 18  1  0  0  0  0
 22 21  1  6  0  0  0
 22 23  1  0  0  0  0
 22 19  1  0  0  0  0
 23 26  1  6  0  0  0
 24 25  1  0  0  0  0
 24 23  1  0  0  0  0
 27 26  1  0  0  0  0
 28 31  1  0  0  0  0
 28 30  1  0  0  0  0
 30 29  1  0  0  0  0
 31 32  1  0  0  0  0
 32 27  1  1  0  0  0
 32 29  1  0  0  0  0
 33 34  1  0  0  0  0
 34 37  1  0  0  0  0
 35 39  1  0  0  0  0
 35 43  1  0  0  0  0
 36 40  1  0  0  0  0
 37 35  2  0  0  0  0
 38 36  2  0  0  0  0
 38 37  1  0  0  0  0
 40 39  2  0  0  0  0
 42 44  2  0  0  0  0
 42 41  1  0  0  0  0
 43 42  1  0  0  0  0
 45 46  1  0  0  0  0
 46 48  1  0  0  0  0
 46 36  1  0  0  0  0
 47 45  2  0  0  0  0
 48 49  1  0  0  0  0
 50 45  1  0  0  0  0
 51 50  1  0  0  0  0
 52 51  1  6  0  0  0
 55 54  1  0  0  0  0
 55 52  1  0  0  0  0
 55 53  1  0  0  0  0
 57 56  1  6  0  0  0
 57 52  1  0  0  0  0
 58 57  1  1  0  0  0
 60 62  1  0  0  0  0
 60 61  1  0  0  0  0
 61 58  1  0  0  0  0
 62 59  1  6  0  0  0
 62 63  1  0  0  0  0
 63 58  1  0  0  0  0
M  END
>  <MODEL>
2

>  <REMARK>
 VINA RESULT:      -4.7      2.203      7.094
  Name = 
  23 active torsions:
  status: ('A' for Active; 'I' for Inactive)
    1  A    between atoms: C_1  and  N_60
    2  A    between atoms: C_2  and  C_22
    3  A    between atoms: C_2  and  C_49
    4  A    between atoms: O_3  and  C_10
    5  A    between atoms: C_6  and  C_43
    6  A    between atoms: C_6  and  C_63
    7  A    between atoms: C_9  and  N_56
    8  A    between atoms: C_10  and  C_26
    9  A    between atoms: C_10  and  C_34
   10  A    between atoms: C_11  and  N_50
   11  A    between atoms: C_12  and  C_14
   12  A    between atoms: C_12  and  C_34
   13  A    between atoms: C_14  and  C_53
   14  A    between atoms: C_15  and  N_50
   15  A    between atoms: C_16  and  N_47
   16  A    between atoms: C_16  and  C_53
   17  A    between atoms: C_21  and  C_49
   18  A    between atoms: C_24  and  C_58
   19  A    between atoms: C_26  and  O_30
   20  A    between atoms: C_29  and  C_43
   21  A    between atoms: O_30  and  C_46
   22  A    between atoms: C_31  and  C_63
   23  A    between atoms: C_58  and  C_63
                            x       y       z     vdW  Elec       q    Type
                         _______ _______ _______ _____ _____    ______ ____

>  <TORSDO>
F 23

$$$$
=
 OpenBabel11052409473D

 63 67  0  0  1  0  0  0  0  0999 V2000
  160.0290  211.9600  146.6370 C   0  0  2  0  0  3  0  0  0  0  0  0
  159.5820  213.3190  148.6630 C   0  0  0  0  0  0  0  0  0  0  0  0
  161.5520  211.7860  148.2920 C   0  0  0  0  0  2  0  0  0  0  0  0
  157.5700  214.4510  149.6250 C   0  0  0  0  0  3  0  0  0  0  0  0
  160.9350  212.8730  149.1750 C   0  0  2  0  0  3  0  0  0  0  0  0
  159.1430  212.9000  147.4450 C   0  0  0  0  0  0  0  0  0  0  0  0
  157.8270  213.2620  146.8550 C   0  0  0  0  0  3  0  0  0  0  0  0
  156.7110  213.5420  147.5310 C   0  0  0  0  0  3  0  0  0  0  0  0
  161.3960  212.1330  146.9440 O   0  0  0  0  0  0  0  0  0  0  0  0
  156.6250  213.4760  149.0170 C   0  0  0  0  0  2  0  0  0  0  0  0
  158.8920  214.3500  149.4720 C   0  0  0  0  0  3  0  0  0  0  0  0
  160.3870  213.1940  144.4240 C   0  0  0  0  0  0  0  0  0  0  0  0
  161.0770  214.0910  144.9810 O   0  0  0  0  0  0  0  0  0  0  0  0
  160.1620  213.2300  143.0160 N   0  0  0  0  0  2  0  0  0  0  0  0
  159.8300  212.1270  145.1950 N   0  0  0  0  0  2  0  0  0  0  0  0
  160.7620  214.2430  142.1640 C   0  0  0  0  0  2  0  0  0  0  0  0
  160.0670  214.2970  140.8170 C   0  0  0  0  0  2  0  0  0  0  0  0
  160.4270  213.0760  139.9680 C   0  0  0  0  0  2  0  0  0  0  0  0
  160.9220  213.4510  138.5680 C   0  0  1  0  0  3  0  0  0  0  0  0
  162.0670  214.4530  138.6630 C   0  0  0  0  0  1  0  0  0  0  0  0
  162.6390  211.8220  138.0570 O   0  0  0  0  0  1  0  0  0  0  0  0
  161.3330  212.2170  137.7440 C   0  0  1  0  0  3  0  0  0  0  0  0
  160.3910  211.0170  137.8850 C   0  0  2  0  0  3  0  0  0  0  0  0
  159.0630  211.3750  137.6250 O   0  0  0  0  0  0  0  0  0  0  0  0
  158.3370  210.8690  138.7030 C   0  0  0  0  0  1  0  0  0  0  0  0
  160.5250  210.2880  139.2250 C   0  0  0  0  0  2  0  0  0  0  0  0
  160.2720  208.9200  139.0790 O   0  0  0  0  0  0  0  0  0  0  0  0
  162.6110  206.3240  139.5780 C   0  0  0  0  0  2  0  0  0  0  0  0
  161.6000  207.5570  137.8020 O   0  0  0  0  0  0  0  0  0  0  0  0
  162.5230  206.5290  138.0790 C   0  0  0  0  0  2  0  0  0  0  0  0
  161.7700  207.4230  140.1500 C   0  0  0  0  0  2  0  0  0  0  0  0
  161.5330  208.3320  138.9730 C   0  0  2  0  0  3  0  0  0  0  0  0
  160.8620  212.4210  150.6350 C   0  0  0  0  0  2  0  0  0  0  0  0
  160.3190  211.0060  150.7660 C   0  0  0  0  0  2  0  0  0  0  0  0
  159.1780  211.4070  153.0210 C   0  0  0  0  0  0  0  0  0  0  0  0
  160.5100  209.1330  154.0440 C   0  0  0  0  0  0  0  0  0  0  0  0
  160.0140  210.6340  152.1840 C   0  0  0  0  0  0  0  0  0  0  0  0
  160.6790  209.5230  152.7080 C   0  0  0  0  0  3  0  0  0  0  0  0
  158.9960  211.0100  154.3540 C   0  0  0  0  0  3  0  0  0  0  0  0
  159.6560  209.8880  154.8610 C   0  0  0  0  0  3  0  0  0  0  0  0
  156.9810  214.4530  152.4490 O   0  0  0  0  0  0  0  0  0  0  0  0
  157.3980  213.2670  153.0280 C   0  0  0  0  0  0  0  0  0  0  0  0
  158.5510  212.5940  152.5060 N   0  0  0  0  0  2  0  0  0  0  0  0
  156.7820  212.8210  154.0330 O   0  0  0  0  0  1  0  0  0  0  0  0
  161.7970  206.9490  153.7630 C   0  0  0  0  0  0  0  0  0  0  0  0
  161.2810  208.0320  154.5700 N   0  0  0  0  0  0  0  0  0  0  0  0
  162.7700  206.2640  154.1870 O   0  0  0  0  0  0  0  0  0  0  0  0
  161.5740  208.0180  156.0020 C   0  0  0  0  0  2  0  0  0  0  0  0
  162.4170  209.0830  156.3270 O   0  0  0  0  0  1  0  0  0  0  0  0
  161.2010  206.5820  152.4430 C   0  0  0  0  0  2  0  0  0  0  0  0
  162.2750  206.1090  151.4790 C   0  0  0  0  0  2  0  0  0  0  0  0
  161.6130  205.2680  150.3870 C   0  0  1  0  0  3  0  0  0  0  0  0
  160.9480  203.9520  152.4350 C   0  0  0  0  0  1  0  0  0  0  0  0
  160.8630  202.8860  150.2300 C   0  0  0  0  0  1  0  0  0  0  0  0
  160.6700  204.1990  150.9620 C   0  0  0  0  0  3  0  0  0  0  0  0
  161.6580  207.3090  149.1040 O   0  0  0  0  0  1  0  0  0  0  0  0
  160.9070  206.1550  149.3500 C   0  0  1  0  0  3  0  0  0  0  0  0
  160.6250  205.4060  148.0420 C   0  0  2  0  0  3  0  0  0  0  0  0
  161.7890  205.3150  144.7440 N   0  0  0  0  0  1  0  0  0  0  0  0
  162.7580  205.2980  146.9170 N   0  0  0  0  0  2  0  0  0  0  0  0
  161.7950  204.5140  147.6720 C   0  0  0  0  0  2  0  0  0  0  0  0
  162.0050  206.0890  145.9550 C   0  0  2  0  0  3  0  0  0  0  0  0
  160.4060  206.5730  146.6710 S   0  0  0  0  0  0  0  0  0  0  0  0
  1 15  1  6  0  0  0
  1  9  1  0  0  0  0
  1  6  1  0  0  0  0
  2  5  1  0  0  0  0
  2 11  1  0  0  0  0
  3  5  1  0  0  0  0
  5 33  1  1  0  0  0
  6  2  2  0  0  0  0
  7  6  1  0  0  0  0
  7  8  2  0  0  0  0
  8 10  1  0  0  0  0
  9  3  1  0  0  0  0
 10  4  1  0  0  0  0
 11  4  2  0  0  0  0
 12 13  2  0  0  0  0
 12 15  1  0  0  0  0
 14 12  1  0  0  0  0
 16 14  1  0  0  0  0
 17 16  1  0  0  0  0
 18 17  1  0  0  0  0
 19 20  1  1  0  0  0
 19 18  1  0  0  0  0
 22 23  1  0  0  0  0
 22 21  1  1  0  0  0
 22 19  1  0  0  0  0
 23 26  1  1  0  0  0
 24 23  1  0  0  0  0
 24 25  1  0  0  0  0
 27 26  1  0  0  0  0
 28 31  1  0  0  0  0
 29 30  1  0  0  0  0
 29 32  1  0  0  0  0
 30 28  1  0  0  0  0
 32 27  1  1  0  0  0
 32 31  1  0  0  0  0
 33 34  1  0  0  0  0
 34 37  1  0  0  0  0
 35 39  1  0  0  0  0
 36 46  1  0  0  0  0
 36 40  1  0  0  0  0
 37 38  1  0  0  0  0
 37 35  2  0  0  0  0
 38 36  2  0  0  0  0
 39 40  2  0  0  0  0
 41 42  2  0  0  0  0
 42 44  1  0  0  0  0
 43 35  1  0  0  0  0
 43 42  1  0  0  0  0
 45 47  2  0  0  0  0
 45 46  1  0  0  0  0
 46 48  1  0  0  0  0
 48 49  1  0  0  0  0
 50 45  1  0  0  0  0
 51 50  1  0  0  0  0
 52 55  1  0  0  0  0
 52 51  1  1  0  0  0
 54 55  1  0  0  0  0
 55 53  1  0  0  0  0
 57 56  1  6  0  0  0
 57 52  1  0  0  0  0
 58 57  1  1  0  0  0
 60 61  1  0  0  0  0
 61 58  1  0  0  0  0
 62 59  1  6  0  0  0
 62 63  1  0  0  0  0
 62 60  1  0  0  0  0
 63 58  1  0  0  0  0
M  END
>  <MODEL>
3

>  <REMARK>
 VINA RESULT:      -4.3      0.900      2.100
  Name = 
  23 active torsions:
  status: ('A' for Active; 'I' for Inactive)
    1  A    between atoms: C_1  and  N_60
    2  A    between atoms: C_2  and  C_22
    3  A    between atoms: C_2  and  C_49
    4  A    between atoms: O_3  and  C_10
    5  A    between atoms: C_6  and  C_43
    6  A    between atoms: C_6  and  C_63
    7  A    between atoms: C_9  and  N_56
    8  A    between atoms: C_10  and  C_26
    9  A    between atoms: C_10  and  C_34
   10  A    between atoms: C_11  and  N_50
   11  A    between atoms: C_12  and  C_14
   12  A    between atoms: C_12  and  C_34
   13  A    between atoms: C_14  and  C_53
   14  A    between atoms: C_15  and  N_50
   15  A    between atoms: C_16  and  N_47
   16  A    between atoms: C_16  and  C_53
   17  A    between atoms: C_21  and  C_49
   18  A    between atoms: C_24  and  C_58
   19  A    between atoms: C_26  and  O_30
   20  A    between atoms: C_29  and  C_43
   21  A    between atoms: O_30  and  C_46
   22  A    between atoms: C_31  and  C_63
   23  A    between atoms: C_58  and  C_63
                            x       y       z     vdW  Elec       q    Type
                         _______ _______ _______ _____ _____    ______ ____

>  <TORSDO>
F 23

$$$$
=
 OpenBabel11052409473D

 63 67  0  0  1  0  0  0  0  0999 V2000
  160.7900  212.1650  147.3500 C   0  0  2  0  0  3  0  0  0  0  0  0
  160.7690  212.5930  149.7930 C   0  0  0  0  0  0  0  0  0  0  0  0
  162.2860  210.9930  148.5640 C   0  0  0  0  0  2  0  0  0  0  0  0
  159.1360  213.5960  151.4000 C   0  0  0  0  0  3  0  0  0  0  0  0
  161.9900  211.7030  149.8880 C   0  0  2  0  0  3  0  0  0  0  0  0
  160.1940  212.8330  148.5830 C   0  0  0  0  0  0  0  0  0  0  0  0
  158.9860  213.6740  148.3790 C   0  0  0  0  0  3  0  0  0  0  0  0
  158.0000  213.8630  149.2580 C   0  0  0  0  0  3  0  0  0  0  0  0
  162.1680  211.9060  147.5080 O   0  0  0  0  0  0  0  0  0  0  0  0
  157.9580  213.1900  150.5870 C   0  0  0  0  0  2  0  0  0  0  0  0
  160.3860  213.2990  151.0370 C   0  0  0  0  0  3  0  0  0  0  0  0
  161.6250  213.3520  145.2420 C   0  0  0  0  0  0  0  0  0  0  0  0
  162.8210  213.0270  145.4760 O   0  0  0  0  0  0  0  0  0  0  0  0
  161.2970  214.0980  144.0700 N   0  0  0  0  0  2  0  0  0  0  0  0
  160.5820  212.9680  146.1410 N   0  0  0  0  0  2  0  0  0  0  0  0
  162.2960  214.4530  143.0780 C   0  0  0  0  0  2  0  0  0  0  0  0
  162.2440  213.5050  141.8940 C   0  0  0  0  0  2  0  0  0  0  0  0
  161.8200  214.2430  140.6230 C   0  0  0  0  0  2  0  0  0  0  0  0
  161.9050  213.3640  139.3710 C   0  0  1  0  0  3  0  0  0  0  0  0
  162.6690  212.0820  139.6770 C   0  0  0  0  0  1  0  0  0  0  0  0
  160.4310  213.4850  137.4530 O   0  0  0  0  0  1  0  0  0  0  0  0
  160.5160  213.0530  138.7810 C   0  0  1  0  0  3  0  0  0  0  0  0
  160.1070  211.5790  138.8650 C   0  0  2  0  0  3  0  0  0  0  0  0
  160.6690  210.8310  137.8240 O   0  0  0  0  0  0  0  0  0  0  0  0
  161.1260  209.6610  138.4290 C   0  0  0  0  0  1  0  0  0  0  0  0
  158.5930  211.3680  138.9560 C   0  0  0  0  0  2  0  0  0  0  0  0
  158.0200  211.2910  137.6840 O   0  0  0  0  0  0  0  0  0  0  0  0
  154.9330  210.2170  139.0170 C   0  0  0  0  0  2  0  0  0  0  0  0
  156.4030  212.0950  139.0960 O   0  0  0  0  0  0  0  0  0  0  0  0
  155.1790  211.5980  139.5870 C   0  0  0  0  0  2  0  0  0  0  0  0
  156.0490  210.0170  138.0390 C   0  0  0  0  0  2  0  0  0  0  0  0
  156.6450  211.3930  137.9020 C   0  0  2  0  0  3  0  0  0  0  0  0
  161.8660  210.6980  151.0340 C   0  0  0  0  0  2  0  0  0  0  0  0
  160.8980  209.5720  150.7020 C   0  0  0  0  0  2  0  0  0  0  0  0
  161.0880  208.7260  153.1090 C   0  0  0  0  0  0  0  0  0  0  0  0
  160.8880  206.0770  152.1430 C   0  0  0  0  0  0  0  0  0  0  0  0
  160.9040  208.4820  151.7300 C   0  0  0  0  0  0  0  0  0  0  0  0
  160.8250  207.1680  151.2640 C   0  0  0  0  0  3  0  0  0  0  0  0
  161.1370  207.6360  153.9920 C   0  0  0  0  0  3  0  0  0  0  0  0
  161.0410  206.3270  153.5140 C   0  0  0  0  0  3  0  0  0  0  0  0
  160.6830  212.0930  154.8190 O   0  0  0  0  0  1  0  0  0  0  0  0
  160.3260  210.8300  154.3830 C   0  0  0  0  0  0  0  0  0  0  0  0
  161.2450  210.0740  153.5830 N   0  0  0  0  0  2  0  0  0  0  0  0
  159.2160  210.3470  154.7310 O   0  0  0  0  0  0  0  0  0  0  0  0
  161.0490  204.4170  150.2130 C   0  0  0  0  0  0  0  0  0  0  0  0
  160.8900  204.7330  151.6150 N   0  0  0  0  0  0  0  0  0  0  0  0
  161.4400  203.2650  149.8740 O   0  0  0  0  0  0  0  0  0  0  0  0
  160.7380  203.6230  152.5540 C   0  0  0  0  0  2  0  0  0  0  0  0
  161.6320  202.6000  152.2320 O   0  0  0  0  0  1  0  0  0  0  0  0
  160.7390  205.4010  149.1310 C   0  0  0  0  0  2  0  0  0  0  0  0
  161.7530  205.3020  148.0050 C   0  0  0  0  0  2  0  0  0  0  0  0
  161.1130  204.5550  146.8360 C   0  0  1  0  0  3  0  0  0  0  0  0
  160.2760  206.5480  145.5340 C   0  0  0  0  0  1  0  0  0  0  0  0
  160.7870  204.4600  144.3570 C   0  0  0  0  0  1  0  0  0  0  0  0
  161.2000  205.3420  145.5200 C   0  0  0  0  0  3  0  0  0  0  0  0
  162.7060  202.9300  147.6350 O   0  0  0  0  0  1  0  0  0  0  0  0
  161.6910  203.1380  146.6950 C   0  0  1  0  0  3  0  0  0  0  0  0
  160.6110  202.0560  146.8200 C   0  0  2  0  0  3  0  0  0  0  0  0
  159.8750  198.8930  145.5200 N   0  0  0  0  0  1  0  0  0  0  0  0
  161.7760  199.9730  146.4590 N   0  0  0  0  0  2  0  0  0  0  0  0
  161.1720  200.8120  147.4810 C   0  0  0  0  0  2  0  0  0  0  0  0
  160.8570  199.9470  145.3300 C   0  0  2  0  0  3  0  0  0  0  0  0
  160.0170  201.5530  145.1810 S   0  0  0  0  0  0  0  0  0  0  0  0
  1 15  1  6  0  0  0
  1  9  1  0  0  0  0
  1  6  1  0  0  0  0
  2  5  1  0  0  0  0
  2 11  1  0  0  0  0
  3  5  1  0  0  0  0
  5 33  1  1  0  0  0
  6  2  2  0  0  0  0
  7  6  1  0  0  0  0
  7  8  2  0  0  0  0
  8 10  1  0  0  0  0
  9  3  1  0  0  0  0
 10  4  1  0  0  0  0
 11  4  2  0  0  0  0
 12 13  2  0  0  0  0
 12 15  1  0  0  0  0
 14 12  1  0  0  0  0
 16 14  1  0  0  0  0
 17 16  1  0  0  0  0
 18 17  1  0  0  0  0
 19 20  1  1  0  0  0
 19 18  1  0  0  0  0
 22 21  1  6  0  0  0
 22 23  1  0  0  0  0
 22 19  1  0  0  0  0
 23 26  1  6  0  0  0
 24 25  1  0  0  0  0
 24 23  1  0  0  0  0
 27 26  1  0  0  0  0
 28 30  1  0  0  0  0
 29 30  1  0  0  0  0
 31 28  1  0  0  0  0
 32 27  1  1  0  0  0
 32 31  1  0  0  0  0
 32 29  1  0  0  0  0
 34 33  1  0  0  0  0
 34 37  1  0  0  0  0
 35 43  1  0  0  0  0
 35 39  1  0  0  0  0
 36 40  1  0  0  0  0
 37 35  2  0  0  0  0
 38 37  1  0  0  0  0
 38 36  2  0  0  0  0
 40 39  2  0  0  0  0
 42 44  2  0  0  0  0
 42 41  1  0  0  0  0
 43 42  1  0  0  0  0
 45 46  1  0  0  0  0
 46 36  1  0  0  0  0
 46 48  1  0  0  0  0
 47 45  2  0  0  0  0
 49 48  1  0  0  0  0
 50 45  1  0  0  0  0
 51 50  1  0  0  0  0
 52 51  1  1  0  0  0
 54 55  1  0  0  0  0
 55 53  1  0  0  0  0
 55 52  1  0  0  0  0
 57 52  1  0  0  0  0
 57 56  1  1  0  0  0
 58 57  1  6  0  0  0
 58 61  1  0  0  0  0
 60 61  1  0  0  0  0
 62 59  1  1  0  0  0
 62 60  1  0  0  0  0
 63 62  1  0  0  0  0
 63 58  1  0  0  0  0
M  END
>  <MODEL>
4

>  <REMARK>
 VINA RESULT:      -3.0      2.379      3.519
  Name = 
  23 active torsions:
  status: ('A' for Active; 'I' for Inactive)
    1  A    between atoms: C_1  and  N_60
    2  A    between atoms: C_2  and  C_22
    3  A    between atoms: C_2  and  C_49
    4  A    between atoms: O_3  and  C_10
    5  A    between atoms: C_6  and  C_43
    6  A    between atoms: C_6  and  C_63
    7  A    between atoms: C_9  and  N_56
    8  A    between atoms: C_10  and  C_26
    9  A    between atoms: C_10  and  C_34
   10  A    between atoms: C_11  and  N_50
   11  A    between atoms: C_12  and  C_14
   12  A    between atoms: C_12  and  C_34
   13  A    between atoms: C_14  and  C_53
   14  A    between atoms: C_15  and  N_50
   15  A    between atoms: C_16  and  N_47
   16  A    between atoms: C_16  and  C_53
   17  A    between atoms: C_21  and  C_49
   18  A    between atoms: C_24  and  C_58
   19  A    between atoms: C_26  and  O_30
   20  A    between atoms: C_29  and  C_43
   21  A    between atoms: O_30  and  C_46
   22  A    between atoms: C_31  and  C_63
   23  A    between atoms: C_58  and  C_63
                            x       y       z     vdW  Elec       q    Type
                         _______ _______ _______ _____ _____    ______ ____

>  <TORSDO>
F 23

$$$$
