=
 OpenBabel11052411223D

 41 46  0  0  1  0  0  0  0  0999 V2000
  161.3270  208.0590  150.6230 C   0  0  0  0  0  0  0  0  0  0  0  0
  160.8710  208.2910  154.7930 C   0  0  0  0  0  0  0  0  0  0  0  0
  161.0220  208.2300  153.3940 C   0  0  0  0  0  0  0  0  0  0  0  0
  161.3950  207.9740  149.1180 C   0  0  0  0  0  2  0  0  0  0  0  0
  161.0050  207.0290  152.7600 N   0  0  0  0  0  0  0  0  0  0  0  0
  160.6780  207.0550  155.6050 C   0  0  0  0  0  1  0  0  0  0  0  0
  161.0800  210.7000  154.7150 C   0  0  0  0  0  3  0  0  0  0  0  0
  161.3420  209.3320  151.2440 C   0  0  0  0  0  0  0  0  0  0  0  0
  162.3590  209.0130  148.5630 C   0  0  0  0  0  2  0  0  0  0  0  0
  160.9010  209.5250  155.4440 C   0  0  0  0  0  3  0  0  0  0  0  0
  161.9620  210.3400  149.0120 N   0  0  0  0  0  0  0  0  0  0  0  0
  161.2880  211.6910  150.7940 O   0  0  0  0  0  0  0  0  0  0  0  0
  161.1950  209.4180  152.6480 C   0  0  0  0  0  0  0  0  0  0  0  0
  161.5340  210.5290  150.3710 C   0  0  0  0  0  0  0  0  0  0  0  0
  161.1510  206.8990  151.4150 C   0  0  0  0  0  0  0  0  0  0  0  0
  161.2270  210.6450  153.3280 C   0  0  0  0  0  3  0  0  0  0  0  0
  161.1620  205.2860  149.5240 N   0  0  0  0  0  0  0  0  0  0  0  0
  161.0170  204.4000  151.6110 N   0  0  0  0  0  2  0  0  0  0  0  0
  161.0340  200.8160  147.2880 C   0  0  0  0  0  1  0  0  0  0  0  0
  160.5860  201.1680  149.7180 C   0  0  0  0  0  2  0  0  0  0  0  0
  161.1080  203.9480  149.4460 C   0  0  0  0  0  0  0  0  0  0  0  0
  161.1180  205.5240  150.8590 C   0  0  0  0  0  0  0  0  0  0  0  0
  160.9910  203.4170  150.6970 C   0  0  0  0  0  0  0  0  0  0  0  0
  160.9710  201.9490  150.9820 C   0  0  0  0  0  2  0  0  0  0  0  0
  161.0540  203.1400  148.1870 C   0  0  0  0  0  2  0  0  0  0  0  0
  161.3700  201.6670  148.4940 C   0  0  2  0  0  3  0  0  0  0  0  0
  161.8920  211.4140  148.0330 C   0  0  0  0  0  2  0  0  0  0  0  0
  163.1270  212.2950  148.1290 C   0  0  0  0  0  2  0  0  0  0  0  0
  162.7700  213.7360  147.8170 C   0  0  0  0  0  2  0  0  0  0  0  0
  161.2730  213.9490  147.9560 C   0  0  0  0  0  2  0  0  0  0  0  0
  160.7570  214.4520  146.7620 O   0  0  0  0  0  0  0  0  0  0  0  0
  157.3250  212.5960  146.1870 S   0  0  0  0  0  0  0  0  0  0  0  0
  159.3800  214.2220  146.8430 C   0  0  2  0  0  3  0  0  0  0  0  0
  159.0410  213.4560  148.0980 C   0  0  0  0  0  2  0  0  0  0  0  0
  158.8740  213.4010  145.6650 C   0  0  1  0  0  3  0  0  0  0  0  0
  157.6040  213.0150  147.9380 C   0  0  0  0  0  2  0  0  0  0  0  0
  159.8400  212.3790  145.2930 N   0  0  0  0  0  2  0  0  0  0  0  0
  159.7550  212.2250  143.8490 C   0  0  0  0  0  2  0  0  0  0  0  0
  161.1340  212.3620  143.2330 C   0  0  2  0  0  3  0  0  0  0  0  0
  162.0240  212.8770  144.1760 O   0  0  0  0  0  1  0  0  0  0  0  0
  161.0610  213.3030  142.0480 C   0  0  0  0  0  1  0  0  0  0  0  0
  1  8  2  0  0  0  0
  1 15  1  0  0  0  0
  2 10  1  0  0  0  0
  2  6  1  0  0  0  0
  3  2  2  0  0  0  0
  4  1  1  0  0  0  0
  5  3  1  0  0  0  0
  7 10  2  0  0  0  0
  8 13  1  0  0  0  0
  9 11  1  0  0  0  0
  9  4  1  0  0  0  0
 11 14  1  0  0  0  0
 13 16  2  0  0  0  0
 13  3  1  0  0  0  0
 14 12  2  0  0  0  0
 14  8  1  0  0  0  0
 15  5  2  0  0  0  0
 16  7  1  0  0  0  0
 17 22  2  0  0  0  0
 20 24  1  0  0  0  0
 21 17  1  0  0  0  0
 21 23  2  0  0  0  0
 22 15  1  0  0  0  0
 22 18  1  0  0  0  0
 23 24  1  0  0  0  0
 23 18  1  0  0  0  0
 25 26  1  0  0  0  0
 25 21  1  0  0  0  0
 26 19  1  6  0  0  0
 26 20  1  0  0  0  0
 27 28  1  0  0  0  0
 27 11  1  0  0  0  0
 29 30  1  0  0  0  0
 29 28  1  0  0  0  0
 31 30  1  0  0  0  0
 32 36  1  0  0  0  0
 33 31  1  6  0  0  0
 33 34  1  0  0  0  0
 35 37  1  1  0  0  0
 35 32  1  0  0  0  0
 35 33  1  0  0  0  0
 36 34  1  0  0  0  0
 38 37  1  0  0  0  0
 39 41  1  6  0  0  0
 39 38  1  0  0  0  0
 39 40  1  0  0  0  0
M  END
>  <MODEL>
1

>  <REMARK>
 VINA RESULT:      -8.8      0.000      0.000
  Name = 
  10 active torsions:
  status: ('A' for Active; 'I' for Inactive)
    1  A    between atoms: C_1  and  C_33
    2  A    between atoms: C_4  and  C_21
    3  A    between atoms: C_4  and  C_29
    4  A    between atoms: N_6  and  C_33
    5  A    between atoms: N_6  and  C_40
    6  A    between atoms: C_8  and  O_28
    7  A    between atoms: C_8  and  C_29
    8  A    between atoms: C_11  and  O_28
    9  A    between atoms: C_21  and  N_22
   10  A    between atoms: C_30  and  C_37
                            x       y       z     vdW  Elec       q    Type
                         _______ _______ _______ _____ _____    ______ ____

>  <TORSDO>
F 10

$$$$
=
 OpenBabel11052411223D

 41 46  0  0  1  0  0  0  0  0999 V2000
  161.2980  208.8550  151.6920 C   0  0  0  0  0  0  0  0  0  0  0  0
  160.3150  210.7690  155.3000 C   0  0  0  0  0  0  0  0  0  0  0  0
  160.6470  210.1130  154.0990 C   0  0  0  0  0  0  0  0  0  0  0  0
  161.7430  208.1870  150.4140 C   0  0  0  0  0  2  0  0  0  0  0  0
  160.8070  210.8270  152.9560 N   0  0  0  0  0  0  0  0  0  0  0  0
  160.1440  212.2480  155.3520 C   0  0  0  0  0  1  0  0  0  0  0  0
  160.2900  208.6440  156.4580 C   0  0  0  0  0  3  0  0  0  0  0  0
  161.1480  208.0730  152.8630 C   0  0  0  0  0  0  0  0  0  0  0  0
  161.0900  206.8200  150.2650 C   0  0  0  0  0  2  0  0  0  0  0  0
  160.1380  210.0310  156.4720 C   0  0  0  0  0  3  0  0  0  0  0  0
  161.3890  206.0040  151.4330 N   0  0  0  0  0  0  0  0  0  0  0  0
  161.4940  205.8720  153.7620 O   0  0  0  0  0  0  0  0  0  0  0  0
  160.8110  208.7080  154.0800 C   0  0  0  0  0  0  0  0  0  0  0  0
  161.3380  206.5960  152.7410 C   0  0  0  0  0  0  0  0  0  0  0  0
  161.1210  210.2580  151.7630 C   0  0  0  0  0  0  0  0  0  0  0  0
  160.6230  207.9900  155.2710 C   0  0  0  0  0  3  0  0  0  0  0  0
  162.1640  210.9320  149.6100 N   0  0  0  0  0  0  0  0  0  0  0  0
  160.5310  212.2910  150.4140 N   0  0  0  0  0  0  0  0  0  0  0  0
  162.9420  213.7580  145.5590 C   0  0  0  0  0  1  0  0  0  0  0  0
  161.5150  214.4520  147.4860 C   0  0  0  0  0  2  0  0  0  0  0  0
  161.9720  211.9580  148.7660 C   0  0  1  0  0  3  0  0  0  0  0  0
  161.2600  211.1610  150.5940 C   0  0  0  0  0  0  0  0  0  0  0  0
  161.0120  212.7890  149.2640 C   0  0  0  0  0  0  0  0  0  0  0  0
  160.5030  213.9990  148.5470 C   0  0  0  0  0  2  0  0  0  0  0  0
  162.7610  212.2390  147.5270 C   0  0  0  0  0  2  0  0  0  0  0  0
  162.0200  213.2630  146.6520 C   0  0  2  0  0  3  0  0  0  0  0  0
  161.8540  204.6400  151.2300 C   0  0  0  0  0  2  0  0  0  0  0  0
  160.6770  203.7170  150.9620 C   0  0  0  0  0  2  0  0  0  0  0  0
  161.0650  202.2760  151.2340 C   0  0  0  0  0  2  0  0  0  0  0  0
  160.5120  201.3700  150.1490 C   0  0  0  0  0  2  0  0  0  0  0  0
  161.5050  201.1030  149.2060 O   0  0  0  0  0  0  0  0  0  0  0  0
  160.4450  201.8800  145.4880 S   0  0  0  0  0  0  0  0  0  0  0  0
  160.8180  200.9520  147.9970 C   0  0  2  0  0  3  0  0  0  0  0  0
  161.5450  199.9920  147.0880 C   0  0  0  0  0  2  0  0  0  0  0  0
  160.6940  202.2720  147.2490 C   0  0  1  0  0  3  0  0  0  0  0  0
  160.8910  200.1310  145.7320 C   0  0  0  0  0  2  0  0  0  0  0  0
  161.9060  203.0660  147.3930 N   0  0  0  0  0  2  0  0  0  0  0  0
  161.4890  204.4560  147.4930 C   0  0  0  0  0  2  0  0  0  0  0  0
  162.4730  205.3440  146.7560 C   0  0  2  0  0  3  0  0  0  0  0  0
  162.3220  206.6660  147.1770 O   0  0  0  0  0  1  0  0  0  0  0  0
  162.2070  205.2580  145.2680 C   0  0  0  0  0  1  0  0  0  0  0  0
  1 15  2  0  0  0  0
  1  8  1  0  0  0  0
  2  6  1  0  0  0  0
  2 10  2  0  0  0  0
  3  2  1  0  0  0  0
  4  1  1  0  0  0  0
  5  3  2  0  0  0  0
  7 10  1  0  0  0  0
  8 13  2  0  0  0  0
  9  4  1  0  0  0  0
  9 11  1  0  0  0  0
 11 14  1  0  0  0  0
 13  3  1  0  0  0  0
 13 16  1  0  0  0  0
 14  8  1  0  0  0  0
 14 12  2  0  0  0  0
 15  5  1  0  0  0  0
 16  7  2  0  0  0  0
 17 22  2  0  0  0  0
 18 22  1  0  0  0  0
 20 24  1  0  0  0  0
 21 25  1  1  0  0  0
 21 23  1  0  0  0  0
 21 17  1  0  0  0  0
 22 15  1  0  0  0  0
 23 18  2  0  0  0  0
 24 23  1  0  0  0  0
 26 19  1  6  0  0  0
 26 20  1  0  0  0  0
 26 25  1  0  0  0  0
 27 11  1  0  0  0  0
 28 27  1  0  0  0  0
 28 29  1  0  0  0  0
 30 29  1  0  0  0  0
 31 30  1  0  0  0  0
 32 36  1  0  0  0  0
 32 35  1  0  0  0  0
 33 31  1  1  0  0  0
 34 33  1  0  0  0  0
 35 37  1  6  0  0  0
 35 33  1  0  0  0  0
 36 34  1  0  0  0  0
 37 38  1  0  0  0  0
 39 41  1  6  0  0  0
 39 40  1  0  0  0  0
 39 38  1  0  0  0  0
M  END
>  <MODEL>
2

>  <REMARK>
 VINA RESULT:      -8.4      3.206      8.571
  Name = 
  10 active torsions:
  status: ('A' for Active; 'I' for Inactive)
    1  A    between atoms: C_1  and  C_33
    2  A    between atoms: C_4  and  C_21
    3  A    between atoms: C_4  and  C_29
    4  A    between atoms: N_6  and  C_33
    5  A    between atoms: N_6  and  C_40
    6  A    between atoms: C_8  and  O_28
    7  A    between atoms: C_8  and  C_29
    8  A    between atoms: C_11  and  O_28
    9  A    between atoms: C_21  and  N_22
   10  A    between atoms: C_30  and  C_37
                            x       y       z     vdW  Elec       q    Type
                         _______ _______ _______ _____ _____    ______ ____

>  <TORSDO>
F 10

$$$$
=
 OpenBabel11052411223D

 41 46  0  0  1  0  0  0  0  0999 V2000
  161.1390  208.2040  151.5450 C   0  0  0  0  0  0  0  0  0  0  0  0
  160.4310  208.1830  155.6860 C   0  0  0  0  0  0  0  0  0  0  0  0
  160.6660  208.2060  154.2970 C   0  0  0  0  0  0  0  0  0  0  0  0
  161.2980  208.2060  150.0450 C   0  0  0  0  0  2  0  0  0  0  0  0
  160.7420  207.0440  153.6010 N   0  0  0  0  0  0  0  0  0  0  0  0
  160.2500  206.8970  156.4180 C   0  0  0  0  0  1  0  0  0  0  0  0
  160.5310  210.6000  155.7480 C   0  0  0  0  0  3  0  0  0  0  0  0
  161.0590  209.4390  152.2320 C   0  0  0  0  0  0  0  0  0  0  0  0
  162.2440  209.3150  149.6050 C   0  0  0  0  0  2  0  0  0  0  0  0
  160.3660  209.3790  156.4020 C   0  0  0  0  0  3  0  0  0  0  0  0
  161.7590  210.5960  150.0980 N   0  0  0  0  0  0  0  0  0  0  0  0
  160.9210  211.8160  151.9050 O   0  0  0  0  0  0  0  0  0  0  0  0
  160.8270  209.4410  153.6270 C   0  0  0  0  0  0  0  0  0  0  0  0
  161.2450  210.6910  151.4370 C   0  0  0  0  0  0  0  0  0  0  0  0
  160.9730  206.9950  152.2620 C   0  0  0  0  0  0  0  0  0  0  0  0
  160.7610  210.6280  154.3720 C   0  0  0  0  0  3  0  0  0  0  0  0
  160.9020  205.4780  150.2950 N   0  0  0  0  0  0  0  0  0  0  0  0
  161.2050  204.4960  152.3200 N   0  0  0  0  0  2  0  0  0  0  0  0
  161.0220  201.1300  147.8290 C   0  0  0  0  0  1  0  0  0  0  0  0
  160.9170  201.3150  150.3160 C   0  0  0  0  0  2  0  0  0  0  0  0
  161.0150  204.1500  150.1420 C   0  0  0  0  0  0  0  0  0  0  0  0
  161.0360  205.6530  151.6330 C   0  0  0  0  0  0  0  0  0  0  0  0
  161.1670  203.5580  151.3610 C   0  0  0  0  0  0  0  0  0  0  0  0
  161.3870  202.0910  151.5550 C   0  0  0  0  0  2  0  0  0  0  0  0
  160.8730  203.3950  148.8580 C   0  0  0  0  0  2  0  0  0  0  0  0
  161.4260  201.9700  149.0220 C   0  0  2  0  0  3  0  0  0  0  0  0
  161.6960  211.7200  149.1750 C   0  0  0  0  0  2  0  0  0  0  0  0
  162.9700  211.7950  148.3500 C   0  0  0  0  0  2  0  0  0  0  0  0
  163.0160  213.0960  147.5720 C   0  0  0  0  0  2  0  0  0  0  0  0
  161.6090  213.5920  147.2920 C   0  0  0  0  0  2  0  0  0  0  0  0
  161.5710  214.2270  146.0510 O   0  0  0  0  0  0  0  0  0  0  0  0
  160.4610  212.0700  142.9420 S   0  0  0  0  0  0  0  0  0  0  0  0
  161.6100  213.1870  145.1160 C   0  0  2  0  0  3  0  0  0  0  0  0
  162.4910  213.5540  143.9480 C   0  0  0  0  0  2  0  0  0  0  0  0
  160.2280  212.8800  144.5570 C   0  0  1  0  0  3  0  0  0  0  0  0
  162.2290  212.5100  142.8870 C   0  0  0  0  0  2  0  0  0  0  0  0
  159.4590  214.1010  144.3710 N   0  0  0  0  0  2  0  0  0  0  0  0
  158.0900  213.8000  144.7570 C   0  0  0  0  0  2  0  0  0  0  0  0
  158.0730  213.1200  146.1130 C   0  0  2  0  0  3  0  0  0  0  0  0
  157.0340  212.1890  146.1600 O   0  0  0  0  0  1  0  0  0  0  0  0
  157.8610  214.1620  147.1910 C   0  0  0  0  0  1  0  0  0  0  0  0
  1  8  2  0  0  0  0
  1 15  1  0  0  0  0
  2 10  1  0  0  0  0
  2  6  1  0  0  0  0
  3  2  2  0  0  0  0
  4  1  1  0  0  0  0
  5  3  1  0  0  0  0
  7 10  2  0  0  0  0
  8 13  1  0  0  0  0
  9  4  1  0  0  0  0
  9 11  1  0  0  0  0
 11 14  1  0  0  0  0
 13  3  1  0  0  0  0
 13 16  2  0  0  0  0
 14 12  2  0  0  0  0
 14  8  1  0  0  0  0
 15  5  2  0  0  0  0
 16  7  1  0  0  0  0
 17 22  2  0  0  0  0
 20 24  1  0  0  0  0
 21 17  1  0  0  0  0
 21 23  2  0  0  0  0
 22 15  1  0  0  0  0
 22 18  1  0  0  0  0
 23 24  1  0  0  0  0
 23 18  1  0  0  0  0
 25 26  1  0  0  0  0
 25 21  1  0  0  0  0
 26 19  1  6  0  0  0
 26 20  1  0  0  0  0
 27 11  1  0  0  0  0
 28 27  1  0  0  0  0
 29 28  1  0  0  0  0
 30 29  1  0  0  0  0
 31 30  1  0  0  0  0
 32 35  1  0  0  0  0
 33 31  1  1  0  0  0
 34 33  1  0  0  0  0
 35 37  1  6  0  0  0
 35 33  1  0  0  0  0
 36 32  1  0  0  0  0
 36 34  1  0  0  0  0
 37 38  1  0  0  0  0
 38 39  1  0  0  0  0
 39 40  1  0  0  0  0
 39 41  1  1  0  0  0
M  END
>  <MODEL>
3

>  <REMARK>
 VINA RESULT:      -8.4      1.420      2.374
  Name = 
  10 active torsions:
  status: ('A' for Active; 'I' for Inactive)
    1  A    between atoms: C_1  and  C_33
    2  A    between atoms: C_4  and  C_21
    3  A    between atoms: C_4  and  C_29
    4  A    between atoms: N_6  and  C_33
    5  A    between atoms: N_6  and  C_40
    6  A    between atoms: C_8  and  O_28
    7  A    between atoms: C_8  and  C_29
    8  A    between atoms: C_11  and  O_28
    9  A    between atoms: C_21  and  N_22
   10  A    between atoms: C_30  and  C_37
                            x       y       z     vdW  Elec       q    Type
                         _______ _______ _______ _____ _____    ______ ____

>  <TORSDO>
F 10

$$$$
=
 OpenBabel11052411223D

 41 46  0  0  1  0  0  0  0  0999 V2000
  160.7150  210.1010  152.6680 C   0  0  0  0  0  0  0  0  0  0  0  0
  159.3350  212.8010  155.5740 C   0  0  0  0  0  0  0  0  0  0  0  0
  159.8000  211.8850  154.6120 C   0  0  0  0  0  0  0  0  0  0  0  0
  161.2990  209.1610  151.6420 C   0  0  0  0  0  2  0  0  0  0  0  0
  160.0240  212.2930  153.3370 N   0  0  0  0  0  0  0  0  0  0  0  0
  159.0900  214.2300  155.2270 C   0  0  0  0  0  1  0  0  0  0  0  0
  159.3120  211.0470  157.2410 C   0  0  0  0  0  3  0  0  0  0  0  0
  160.5020  209.6360  153.9880 C   0  0  0  0  0  0  0  0  0  0  0  0
  160.7280  207.7590  151.8080 C   0  0  0  0  0  2  0  0  0  0  0  0
  159.0940  212.3770  156.8820 C   0  0  0  0  0  3  0  0  0  0  0  0
  160.9640  207.2920  153.1670 N   0  0  0  0  0  0  0  0  0  0  0  0
  160.8740  207.7670  155.4520 O   0  0  0  0  0  0  0  0  0  0  0  0
  160.0320  210.5370  154.9710 C   0  0  0  0  0  0  0  0  0  0  0  0
  160.7720  208.1930  154.2690 C   0  0  0  0  0  0  0  0  0  0  0  0
  160.4660  211.4600  152.3590 C   0  0  0  0  0  0  0  0  0  0  0  0
  159.7760  210.1350  156.2910 C   0  0  0  0  0  3  0  0  0  0  0  0
  161.5900  211.5620  150.1440 N   0  0  0  0  0  0  0  0  0  0  0  0
  159.9650  213.1020  150.5270 N   0  0  0  0  0  2  0  0  0  0  0  0
  162.5580  213.2790  145.5490 C   0  0  0  0  0  1  0  0  0  0  0  0
  161.0880  214.4520  147.1910 C   0  0  0  0  0  2  0  0  0  0  0  0
  161.4480  212.3480  149.0660 C   0  0  0  0  0  0  0  0  0  0  0  0
  160.6620  212.0420  151.0080 C   0  0  0  0  0  0  0  0  0  0  0  0
  160.4930  213.2910  149.3080 C   0  0  0  0  0  0  0  0  0  0  0  0
  160.0330  214.2910  148.2950 C   0  0  0  0  0  2  0  0  0  0  0  0
  162.2820  212.3010  147.8250 C   0  0  0  0  0  2  0  0  0  0  0  0
  161.5910  213.0850  146.6970 C   0  0  2  0  0  3  0  0  0  0  0  0
  161.5090  205.9560  153.3590 C   0  0  0  0  0  2  0  0  0  0  0  0
  162.3040  205.5310  152.1350 C   0  0  0  0  0  2  0  0  0  0  0  0
  161.8190  204.1840  151.6350 C   0  0  0  0  0  2  0  0  0  0  0  0
  160.5020  204.3410  150.8960 C   0  0  0  0  0  2  0  0  0  0  0  0
  160.6210  203.8250  149.6060 O   0  0  0  0  0  0  0  0  0  0  0  0
  162.1220  205.7060  146.4820 S   0  0  0  0  0  0  0  0  0  0  0  0
  161.3550  204.7860  148.9030 C   0  0  2  0  0  3  0  0  0  0  0  0
  160.5130  206.0100  148.6390 C   0  0  0  0  0  2  0  0  0  0  0  0
  161.8210  204.2630  147.5510 C   0  0  1  0  0  3  0  0  0  0  0  0
  161.2890  206.8390  147.6410 C   0  0  0  0  0  2  0  0  0  0  0  0
  160.8020  203.4220  146.9410 N   0  0  0  0  0  2  0  0  0  0  0  0
  161.4740  202.2200  146.4720 C   0  0  0  0  0  2  0  0  0  0  0  0
  160.9130  201.0040  147.1830 C   0  0  2  0  0  3  0  0  0  0  0  0
  161.4580  200.9130  148.4650 O   0  0  0  0  0  1  0  0  0  0  0  0
  161.2680  199.7580  146.3990 C   0  0  0  0  0  1  0  0  0  0  0  0
  1  8  1  0  0  0  0
  2 10  2  0  0  0  0
  3 13  1  0  0  0  0
  3  2  1  0  0  0  0
  4  9  1  0  0  0  0
  4  1  1  0  0  0  0
  5  3  2  0  0  0  0
  6  2  1  0  0  0  0
  8 14  1  0  0  0  0
  8 13  2  0  0  0  0
  9 11  1  0  0  0  0
 10  7  1  0  0  0  0
 11 27  1  0  0  0  0
 11 14  1  0  0  0  0
 13 16  1  0  0  0  0
 14 12  2  0  0  0  0
 15  1  2  0  0  0  0
 15  5  1  0  0  0  0
 16  7  2  0  0  0  0
 17 22  2  0  0  0  0
 18 22  1  0  0  0  0
 20 24  1  0  0  0  0
 21 23  2  0  0  0  0
 21 17  1  0  0  0  0
 22 15  1  0  0  0  0
 23 18  1  0  0  0  0
 24 23  1  0  0  0  0
 25 21  1  0  0  0  0
 26 19  1  6  0  0  0
 26 20  1  0  0  0  0
 26 25  1  0  0  0  0
 28 27  1  0  0  0  0
 29 28  1  0  0  0  0
 30 29  1  0  0  0  0
 31 30  1  0  0  0  0
 32 35  1  0  0  0  0
 32 36  1  0  0  0  0
 33 31  1  6  0  0  0
 34 33  1  0  0  0  0
 35 37  1  6  0  0  0
 35 33  1  0  0  0  0
 36 34  1  0  0  0  0
 38 37  1  0  0  0  0
 38 39  1  0  0  0  0
 39 41  1  6  0  0  0
 39 40  1  0  0  0  0
M  END
>  <MODEL>
4

>  <REMARK>
 VINA RESULT:      -7.7      3.491      8.401
  Name = 
  10 active torsions:
  status: ('A' for Active; 'I' for Inactive)
    1  A    between atoms: C_1  and  C_33
    2  A    between atoms: C_4  and  C_21
    3  A    between atoms: C_4  and  C_29
    4  A    between atoms: N_6  and  C_33
    5  A    between atoms: N_6  and  C_40
    6  A    between atoms: C_8  and  O_28
    7  A    between atoms: C_8  and  C_29
    8  A    between atoms: C_11  and  O_28
    9  A    between atoms: C_21  and  N_22
   10  A    between atoms: C_30  and  C_37
                            x       y       z     vdW  Elec       q    Type
                         _______ _______ _______ _____ _____    ______ ____

>  <TORSDO>
F 10

$$$$
=
 OpenBabel11052411223D

 41 46  0  0  1  0  0  0  0  0999 V2000
  160.9100  209.8330  152.1090 C   0  0  0  0  0  0  0  0  0  0  0  0
  159.3660  212.3300  155.1140 C   0  0  0  0  0  0  0  0  0  0  0  0
  159.8870  211.4820  154.1190 C   0  0  0  0  0  0  0  0  0  0  0  0
  161.5520  208.9690  151.0530 C   0  0  0  0  0  2  0  0  0  0  0  0
  160.1240  211.9620  152.8710 N   0  0  0  0  0  0  0  0  0  0  0  0
  159.0760  213.7650  154.8330 C   0  0  0  0  0  1  0  0  0  0  0  0
  159.3730  210.4930  156.6900 C   0  0  0  0  0  3  0  0  0  0  0  0
  160.6860  209.2940  153.3990 C   0  0  0  0  0  0  0  0  0  0  0  0
  161.0300  207.5410  151.1340 C   0  0  0  0  0  2  0  0  0  0  0  0
  159.1120  211.8320  156.3930 C   0  0  0  0  0  3  0  0  0  0  0  0
  161.2530  207.0140  152.4730 N   0  0  0  0  0  0  0  0  0  0  0  0
  161.0950  207.3680  154.7760 O   0  0  0  0  0  0  0  0  0  0  0  0
  160.1610  210.1260  154.4150 C   0  0  0  0  0  0  0  0  0  0  0  0
  161.0040  207.8500  153.6140 C   0  0  0  0  0  0  0  0  0  0  0  0
  160.6180  211.1970  151.8630 C   0  0  0  0  0  0  0  0  0  0  0  0
  159.8910  209.6490  155.7070 C   0  0  0  0  0  3  0  0  0  0  0  0
  161.8570  211.5310  149.7350 N   0  0  0  0  0  0  0  0  0  0  0  0
  160.0250  212.8350  150.0560 N   0  0  0  0  0  2  0  0  0  0  0  0
  162.8830  213.5440  145.2740 C   0  0  0  0  0  1  0  0  0  0  0  0
  161.1730  214.4520  146.8490 C   0  0  0  0  0  2  0  0  0  0  0  0
  161.6830  212.3360  148.6760 C   0  0  0  0  0  0  0  0  0  0  0  0
  160.8210  211.8540  150.5490 C   0  0  0  0  0  0  0  0  0  0  0  0
  160.6000  213.1400  148.8820 C   0  0  0  0  0  0  0  0  0  0  0  0
  160.0800  214.1140  147.8730 C   0  0  0  0  0  2  0  0  0  0  0  0
  162.5920  212.4460  147.4930 C   0  0  0  0  0  2  0  0  0  0  0  0
  161.8790  213.1820  146.3470 C   0  0  2  0  0  3  0  0  0  0  0  0
  161.8430  205.6900  152.6100 C   0  0  0  0  0  2  0  0  0  0  0  0
  161.3660  204.7820  151.4900 C   0  0  0  0  0  2  0  0  0  0  0  0
  161.3860  203.3340  151.9410 C   0  0  0  0  0  2  0  0  0  0  0  0
  160.9160  202.4270  150.8180 C   0  0  0  0  0  2  0  0  0  0  0  0
  160.9130  203.1310  149.6140 O   0  0  0  0  0  0  0  0  0  0  0  0
  160.8540  201.3890  146.0770 S   0  0  0  0  0  0  0  0  0  0  0  0
  160.5780  202.1810  148.6450 C   0  0  2  0  0  3  0  0  0  0  0  0
  161.5520  201.0290  148.6690 C   0  0  0  0  0  2  0  0  0  0  0  0
  160.6140  202.7700  147.2410 C   0  0  1  0  0  3  0  0  0  0  0  0
  161.2780  200.2290  147.4160 C   0  0  0  0  0  2  0  0  0  0  0  0
  161.7160  203.7090  147.1000 N   0  0  0  0  0  2  0  0  0  0  0  0
  161.2740  204.7420  146.1770 C   0  0  0  0  0  2  0  0  0  0  0  0
  161.7450  206.1010  146.6580 C   0  0  2  0  0  3  0  0  0  0  0  0
  162.9010  205.9550  147.4260 O   0  0  0  0  0  1  0  0  0  0  0  0
  160.6600  206.7360  147.5030 C   0  0  0  0  0  1  0  0  0  0  0  0
  1  8  1  0  0  0  0
  2 10  2  0  0  0  0
  3 13  1  0  0  0  0
  3  2  1  0  0  0  0
  4  9  1  0  0  0  0
  4  1  1  0  0  0  0
  5  3  2  0  0  0  0
  6  2  1  0  0  0  0
  8 14  1  0  0  0  0
  8 13  2  0  0  0  0
  9 11  1  0  0  0  0
 10  7  1  0  0  0  0
 11 27  1  0  0  0  0
 11 14  1  0  0  0  0
 13 16  1  0  0  0  0
 14 12  2  0  0  0  0
 15  1  2  0  0  0  0
 15  5  1  0  0  0  0
 16  7  2  0  0  0  0
 17 22  2  0  0  0  0
 18 22  1  0  0  0  0
 20 24  1  0  0  0  0
 21 23  2  0  0  0  0
 21 17  1  0  0  0  0
 22 15  1  0  0  0  0
 23 18  1  0  0  0  0
 24 23  1  0  0  0  0
 25 21  1  0  0  0  0
 26 19  1  6  0  0  0
 26 20  1  0  0  0  0
 26 25  1  0  0  0  0
 28 29  1  0  0  0  0
 28 27  1  0  0  0  0
 30 29  1  0  0  0  0
 31 30  1  0  0  0  0
 32 35  1  0  0  0  0
 32 36  1  0  0  0  0
 33 34  1  0  0  0  0
 33 31  1  1  0  0  0
 35 37  1  1  0  0  0
 35 33  1  0  0  0  0
 36 34  1  0  0  0  0
 38 39  1  0  0  0  0
 38 37  1  0  0  0  0
 39 40  1  0  0  0  0
 39 41  1  1  0  0  0
M  END
>  <MODEL>
5

>  <REMARK>
 VINA RESULT:      -7.6      3.291      8.441
  Name = 
  10 active torsions:
  status: ('A' for Active; 'I' for Inactive)
    1  A    between atoms: C_1  and  C_33
    2  A    between atoms: C_4  and  C_21
    3  A    between atoms: C_4  and  C_29
    4  A    between atoms: N_6  and  C_33
    5  A    between atoms: N_6  and  C_40
    6  A    between atoms: C_8  and  O_28
    7  A    between atoms: C_8  and  C_29
    8  A    between atoms: C_11  and  O_28
    9  A    between atoms: C_21  and  N_22
   10  A    between atoms: C_30  and  C_37
                            x       y       z     vdW  Elec       q    Type
                         _______ _______ _______ _____ _____    ______ ____

>  <TORSDO>
F 10

$$$$
=
 OpenBabel11052411223D

 41 46  0  0  1  0  0  0  0  0999 V2000
  160.5010  210.1360  152.4390 C   0  0  0  0  0  0  0  0  0  0  0  0
  161.0720  213.0530  149.4710 C   0  0  0  0  0  0  0  0  0  0  0  0
  160.8870  212.0640  150.4550 C   0  0  0  0  0  0  0  0  0  0  0  0
  160.2140  209.0640  153.4610 C   0  0  0  0  0  2  0  0  0  0  0  0
  160.1190  212.3230  151.5440 N   0  0  0  0  0  0  0  0  0  0  0  0
  160.4270  214.3920  149.5880 C   0  0  0  0  0  1  0  0  0  0  0  0
  162.4910  211.5470  148.2160 C   0  0  0  0  0  3  0  0  0  0  0  0
  161.3030  209.8220  151.3150 C   0  0  0  0  0  0  0  0  0  0  0  0
  161.4480  208.2030  153.6990 C   0  0  0  0  0  2  0  0  0  0  0  0
  161.8720  212.7890  148.3580 C   0  0  0  0  0  3  0  0  0  0  0  0
  161.9010  207.6390  152.4360 N   0  0  0  0  0  0  0  0  0  0  0  0
  162.4040  208.0090  150.1860 O   0  0  0  0  0  0  0  0  0  0  0  0
  161.5050  210.8000  150.3140 C   0  0  0  0  0  0  0  0  0  0  0  0
  161.9150  208.4600  151.2570 C   0  0  0  0  0  0  0  0  0  0  0  0
  159.9060  211.4170  152.5340 C   0  0  0  0  0  0  0  0  0  0  0  0
  162.3090  210.5620  149.1890 C   0  0  0  0  0  3  0  0  0  0  0  0
  157.7030  211.6730  153.6550 N   0  0  0  0  0  0  0  0  0  0  0  0
  159.5120  212.4440  154.7910 N   0  0  0  0  0  0  0  0  0  0  0  0
  154.4980  212.9990  157.2570 C   0  0  0  0  0  1  0  0  0  0  0  0
  156.9020  213.6730  157.2170 C   0  0  0  0  0  2  0  0  0  0  0  0
  157.3150  212.1780  154.8370 C   0  0  1  0  0  3  0  0  0  0  0  0
  159.0480  211.8400  153.6690 C   0  0  0  0  0  0  0  0  0  0  0  0
  158.3990  212.6670  155.5050 C   0  0  0  0  0  0  0  0  0  0  0  0
  158.3370  213.2430  156.8840 C   0  0  0  0  0  2  0  0  0  0  0  0
  155.9050  212.3110  155.3190 C   0  0  0  0  0  2  0  0  0  0  0  0
  155.8900  212.5820  156.8320 C   0  0  2  0  0  3  0  0  0  0  0  0
  162.2120  206.2170  152.3800 C   0  0  0  0  0  2  0  0  0  0  0  0
  161.0380  205.4020  152.8960 C   0  0  0  0  0  2  0  0  0  0  0  0
  160.6330  204.3570  151.8740 C   0  0  0  0  0  2  0  0  0  0  0  0
  161.5860  204.3820  150.6920 C   0  0  0  0  0  2  0  0  0  0  0  0
  160.8830  204.1230  149.5150 O   0  0  0  0  0  0  0  0  0  0  0  0
  162.2270  205.2030  145.9680 S   0  0  0  0  0  0  0  0  0  0  0  0
  161.4860  204.9400  148.5520 C   0  0  2  0  0  3  0  0  0  0  0  0
  160.4700  205.8600  147.9230 C   0  0  0  0  0  2  0  0  0  0  0  0
  162.1080  204.1220  147.4290 C   0  0  1  0  0  3  0  0  0  0  0  0
  161.1530  206.4700  146.7200 C   0  0  0  0  0  2  0  0  0  0  0  0
  161.2790  202.9710  147.1040 N   0  0  0  0  0  2  0  0  0  0  0  0
  161.1440  202.9450  145.6560 C   0  0  0  0  0  2  0  0  0  0  0  0
  160.6130  201.5960  145.2110 C   0  0  2  0  0  3  0  0  0  0  0  0
  159.2550  201.7010  144.9060 O   0  0  0  0  0  1  0  0  0  0  0  0
  160.7980  200.5920  146.3290 C   0  0  0  0  0  1  0  0  0  0  0  0
  1 15  1  0  0  0  0
  1  4  1  0  0  0  0
  2  6  1  0  0  0  0
  2  3  1  0  0  0  0
  3  5  1  0  0  0  0
  4  9  1  0  0  0  0
  5 15  2  0  0  0  0
  7 10  1  0  0  0  0
  7 16  2  0  0  0  0
  8  1  2  0  0  0  0
 10  2  2  0  0  0  0
 11  9  1  0  0  0  0
 12 14  2  0  0  0  0
 13  3  2  0  0  0  0
 13  8  1  0  0  0  0
 14  8  1  0  0  0  0
 14 11  1  0  0  0  0
 15 22  1  0  0  0  0
 16 13  1  0  0  0  0
 17 22  2  0  0  0  0
 17 21  1  0  0  0  0
 18 23  2  0  0  0  0
 21 25  1  6  0  0  0
 21 23  1  0  0  0  0
 22 18  1  0  0  0  0
 23 24  1  0  0  0  0
 24 20  1  0  0  0  0
 25 26  1  0  0  0  0
 26 20  1  0  0  0  0
 26 19  1  6  0  0  0
 27 11  1  0  0  0  0
 27 28  1  0  0  0  0
 29 28  1  0  0  0  0
 30 29  1  0  0  0  0
 31 30  1  0  0  0  0
 32 36  1  0  0  0  0
 32 35  1  0  0  0  0
 33 31  1  1  0  0  0
 34 33  1  0  0  0  0
 35 37  1  6  0  0  0
 35 33  1  0  0  0  0
 36 34  1  0  0  0  0
 38 37  1  0  0  0  0
 39 38  1  0  0  0  0
 39 41  1  1  0  0  0
 40 39  1  0  0  0  0
M  END
>  <MODEL>
6

>  <REMARK>
 VINA RESULT:      -7.4      3.979      9.092
  Name = 
  10 active torsions:
  status: ('A' for Active; 'I' for Inactive)
    1  A    between atoms: C_1  and  C_33
    2  A    between atoms: C_4  and  C_21
    3  A    between atoms: C_4  and  C_29
    4  A    between atoms: N_6  and  C_33
    5  A    between atoms: N_6  and  C_40
    6  A    between atoms: C_8  and  O_28
    7  A    between atoms: C_8  and  C_29
    8  A    between atoms: C_11  and  O_28
    9  A    between atoms: C_21  and  N_22
   10  A    between atoms: C_30  and  C_37
                            x       y       z     vdW  Elec       q    Type
                         _______ _______ _______ _____ _____    ______ ____

>  <TORSDO>
F 10

$$$$
=
 OpenBabel11052411223D

 41 46  0  0  1  0  0  0  0  0999 V2000
  160.5450  210.2020  152.4270 C   0  0  0  0  0  0  0  0  0  0  0  0
  161.1270  213.1060  149.4490 C   0  0  0  0  0  0  0  0  0  0  0  0
  160.9390  212.1210  150.4370 C   0  0  0  0  0  0  0  0  0  0  0  0
  160.2540  209.1350  153.4540 C   0  0  0  0  0  2  0  0  0  0  0  0
  160.1840  212.3920  151.5320 N   0  0  0  0  0  0  0  0  0  0  0  0
  160.5000  214.4530  149.5700 C   0  0  0  0  0  1  0  0  0  0  0  0
  162.5170  211.5800  148.1860 C   0  0  0  0  0  3  0  0  0  0  0  0
  161.3340  209.8750  151.2980 C   0  0  0  0  0  0  0  0  0  0  0  0
  161.4780  208.2590  153.6830 C   0  0  0  0  0  2  0  0  0  0  0  0
  161.9150  212.8300  148.3300 C   0  0  0  0  0  3  0  0  0  0  0  0
  161.9150  207.6870  152.4170 N   0  0  0  0  0  0  0  0  0  0  0  0
  162.4030  208.0470  150.1620 O   0  0  0  0  0  0  0  0  0  0  0  0
  161.5400  210.8490  150.2930 C   0  0  0  0  0  0  0  0  0  0  0  0
  161.9290  208.5060  151.2370 C   0  0  0  0  0  0  0  0  0  0  0  0
  159.9670  211.4900  152.5250 C   0  0  0  0  0  0  0  0  0  0  0  0
  162.3310  210.5990  149.1610 C   0  0  0  0  0  3  0  0  0  0  0  0
  157.7710  211.8480  153.6320 N   0  0  0  0  0  0  0  0  0  0  0  0
  159.6130  212.4540  154.8160 N   0  0  0  0  0  0  0  0  0  0  0  0
  154.6140  213.2470  157.2490 C   0  0  0  0  0  1  0  0  0  0  0  0
  157.0570  213.7610  157.2600 C   0  0  0  0  0  2  0  0  0  0  0  0
  157.4020  212.3330  154.8280 C   0  0  1  0  0  3  0  0  0  0  0  0
  159.1250  211.9260  153.6660 C   0  0  0  0  0  0  0  0  0  0  0  0
  158.5070  212.7240  155.5260 C   0  0  0  0  0  0  0  0  0  0  0  0
  158.4650  213.2500  156.9260 C   0  0  0  0  0  2  0  0  0  0  0  0
  155.9980  212.5410  155.3000 C   0  0  0  0  0  2  0  0  0  0  0  0
  155.9800  212.7540  156.8220 C   0  0  2  0  0  3  0  0  0  0  0  0
  162.2070  206.2620  152.3610 C   0  0  0  0  0  2  0  0  0  0  0  0
  161.2140  205.5570  151.4520 C   0  0  0  0  0  2  0  0  0  0  0  0
  160.8110  204.2210  152.0480 C   0  0  0  0  0  2  0  0  0  0  0  0
  161.1370  203.0950  151.0830 C   0  0  0  0  0  2  0  0  0  0  0  0
  161.3460  203.6160  149.8060 O   0  0  0  0  0  0  0  0  0  0  0  0
  160.7880  201.6670  146.4230 S   0  0  0  0  0  0  0  0  0  0  0  0
  160.8200  202.6540  148.9380 C   0  0  2  0  0  3  0  0  0  0  0  0
  161.6440  201.3910  148.9780 C   0  0  0  0  0  2  0  0  0  0  0  0
  160.8130  203.1400  147.4950 C   0  0  1  0  0  3  0  0  0  0  0  0
  161.1740  200.5520  147.8120 C   0  0  0  0  0  2  0  0  0  0  0  0
  162.0070  203.9200  147.2050 N   0  0  0  0  0  2  0  0  0  0  0  0
  161.9690  204.2350  145.7850 C   0  0  0  0  0  2  0  0  0  0  0  0
  160.9220  205.2990  145.5200 C   0  0  2  0  0  3  0  0  0  0  0  0
  161.0670  205.7920  144.2230 O   0  0  0  0  0  1  0  0  0  0  0  0
  161.0990  206.4320  146.5090 C   0  0  0  0  0  1  0  0  0  0  0  0
  1 15  1  0  0  0  0
  1  4  1  0  0  0  0
  2  6  1  0  0  0  0
  2  3  1  0  0  0  0
  3  5  1  0  0  0  0
  4  9  1  0  0  0  0
  5 15  2  0  0  0  0
  7 10  1  0  0  0  0
  7 16  2  0  0  0  0
  8  1  2  0  0  0  0
 10  2  2  0  0  0  0
 11  9  1  0  0  0  0
 12 14  2  0  0  0  0
 13  3  2  0  0  0  0
 13  8  1  0  0  0  0
 14  8  1  0  0  0  0
 14 11  1  0  0  0  0
 15 22  1  0  0  0  0
 16 13  1  0  0  0  0
 17 22  2  0  0  0  0
 17 21  1  0  0  0  0
 18 23  2  0  0  0  0
 21 25  1  6  0  0  0
 21 23  1  0  0  0  0
 22 18  1  0  0  0  0
 23 24  1  0  0  0  0
 24 20  1  0  0  0  0
 25 26  1  0  0  0  0
 26 19  1  6  0  0  0
 26 20  1  0  0  0  0
 27 11  1  0  0  0  0
 28 29  1  0  0  0  0
 28 27  1  0  0  0  0
 30 29  1  0  0  0  0
 31 30  1  0  0  0  0
 32 35  1  0  0  0  0
 32 36  1  0  0  0  0
 33 34  1  0  0  0  0
 33 31  1  1  0  0  0
 35 37  1  6  0  0  0
 35 33  1  0  0  0  0
 36 34  1  0  0  0  0
 38 37  1  0  0  0  0
 39 38  1  0  0  0  0
 39 41  1  1  0  0  0
 40 39  1  0  0  0  0
M  END
>  <MODEL>
7

>  <REMARK>
 VINA RESULT:      -7.3      3.879      9.192
  Name = 
  10 active torsions:
  status: ('A' for Active; 'I' for Inactive)
    1  A    between atoms: C_1  and  C_33
    2  A    between atoms: C_4  and  C_21
    3  A    between atoms: C_4  and  C_29
    4  A    between atoms: N_6  and  C_33
    5  A    between atoms: N_6  and  C_40
    6  A    between atoms: C_8  and  O_28
    7  A    between atoms: C_8  and  C_29
    8  A    between atoms: C_11  and  O_28
    9  A    between atoms: C_21  and  N_22
   10  A    between atoms: C_30  and  C_37
                            x       y       z     vdW  Elec       q    Type
                         _______ _______ _______ _____ _____    ______ ____

>  <TORSDO>
F 10

$$$$
=
 OpenBabel11052411223D

 41 46  0  0  1  0  0  0  0  0999 V2000
  161.1350  210.3600  151.3930 C   0  0  0  0  0  0  0  0  0  0  0  0
  158.9670  213.0310  153.8030 C   0  0  0  0  0  0  0  0  0  0  0  0
  159.6960  212.1260  153.0090 C   0  0  0  0  0  0  0  0  0  0  0  0
  161.9940  209.4450  150.5550 C   0  0  0  0  0  2  0  0  0  0  0  0
  160.0540  212.4670  151.7450 N   0  0  0  0  0  0  0  0  0  0  0  0
  158.5830  214.3760  153.2900 C   0  0  0  0  0  1  0  0  0  0  0  0
  158.9310  211.4210  155.6110 C   0  0  0  0  0  3  0  0  0  0  0  0
  160.7880  209.9670  152.7080 C   0  0  0  0  0  0  0  0  0  0  0  0
  161.6020  207.9900  150.7720 C   0  0  0  0  0  2  0  0  0  0  0  0
  158.5880  212.6730  155.0990 C   0  0  0  0  0  3  0  0  0  0  0  0
  161.6900  207.6660  152.1880 N   0  0  0  0  0  0  0  0  0  0  0  0
  161.1860  208.2900  154.3820 O   0  0  0  0  0  0  0  0  0  0  0  0
  160.0530  210.8580  153.5240 C   0  0  0  0  0  0  0  0  0  0  0  0
  161.2090  208.6070  153.1620 C   0  0  0  0  0  0  0  0  0  0  0  0
  160.7520  211.6390  150.9230 C   0  0  0  0  0  0  0  0  0  0  0  0
  159.6560  210.5220  154.8280 C   0  0  0  0  0  3  0  0  0  0  0  0
  160.1140  212.3140  148.6170 N   0  0  0  0  0  0  0  0  0  0  0  0
  162.3210  212.4470  149.1370 N   0  0  0  0  0  2  0  0  0  0  0  0
  160.8050  213.9430  143.9410 C   0  0  0  0  0  1  0  0  0  0  0  0
  162.6650  213.3200  145.4850 C   0  0  0  0  0  2  0  0  0  0  0  0
  160.8020  212.7680  147.5590 C   0  0  0  0  0  0  0  0  0  0  0  0
  161.0700  212.1420  149.5640 C   0  0  0  0  0  0  0  0  0  0  0  0
  162.1310  212.8200  147.8620 C   0  0  0  0  0  0  0  0  0  0  0  0
  163.1790  213.3440  146.9320 C   0  0  0  0  0  2  0  0  0  0  0  0
  160.2420  213.0610  146.2030 C   0  0  0  0  0  2  0  0  0  0  0  0
  161.2430  213.8970  145.3890 C   0  0  2  0  0  3  0  0  0  0  0  0
  162.3780  206.4450  152.5830 C   0  0  0  0  0  2  0  0  0  0  0  0
  161.3800  205.3130  152.7620 C   0  0  0  0  0  2  0  0  0  0  0  0
  161.5800  204.2610  151.6870 C   0  0  0  0  0  2  0  0  0  0  0  0
  160.4490  204.3220  150.6760 C   0  0  0  0  0  2  0  0  0  0  0  0
  160.8600  203.7420  149.4750 O   0  0  0  0  0  0  0  0  0  0  0  0
  162.3200  205.6800  146.3660 S   0  0  0  0  0  0  0  0  0  0  0  0
  161.4760  204.7810  148.7700 C   0  0  2  0  0  3  0  0  0  0  0  0
  160.4580  205.8030  148.3290 C   0  0  0  0  0  2  0  0  0  0  0  0
  162.1750  204.2740  147.5150 C   0  0  1  0  0  3  0  0  0  0  0  0
  161.1720  206.7020  147.3460 C   0  0  0  0  0  2  0  0  0  0  0  0
  161.4000  203.2180  146.8810 N   0  0  0  0  0  2  0  0  0  0  0  0
  161.2880  203.5660  145.4730 C   0  0  0  0  0  2  0  0  0  0  0  0
  160.4560  202.5260  144.7480 C   0  0  2  0  0  3  0  0  0  0  0  0
  159.2140  203.0650  144.4120 O   0  0  0  0  0  1  0  0  0  0  0  0
  160.2540  201.3290  145.6530 C   0  0  0  0  0  1  0  0  0  0  0  0
  1  8  1  0  0  0  0
  2 10  2  0  0  0  0
  3 13  1  0  0  0  0
  3  2  1  0  0  0  0
  4  9  1  0  0  0  0
  4  1  1  0  0  0  0
  5  3  2  0  0  0  0
  6  2  1  0  0  0  0
  8 14  1  0  0  0  0
  8 13  2  0  0  0  0
  9 11  1  0  0  0  0
 10  7  1  0  0  0  0
 11 27  1  0  0  0  0
 11 14  1  0  0  0  0
 13 16  1  0  0  0  0
 14 12  2  0  0  0  0
 15  1  2  0  0  0  0
 15  5  1  0  0  0  0
 16  7  2  0  0  0  0
 17 22  2  0  0  0  0
 18 22  1  0  0  0  0
 20 24  1  0  0  0  0
 21 23  2  0  0  0  0
 21 17  1  0  0  0  0
 22 15  1  0  0  0  0
 23 18  1  0  0  0  0
 24 23  1  0  0  0  0
 25 21  1  0  0  0  0
 26 19  1  6  0  0  0
 26 20  1  0  0  0  0
 26 25  1  0  0  0  0
 27 28  1  0  0  0  0
 29 28  1  0  0  0  0
 30 29  1  0  0  0  0
 31 30  1  0  0  0  0
 32 36  1  0  0  0  0
 32 35  1  0  0  0  0
 33 31  1  6  0  0  0
 34 33  1  0  0  0  0
 35 37  1  6  0  0  0
 35 33  1  0  0  0  0
 36 34  1  0  0  0  0
 38 37  1  0  0  0  0
 39 38  1  0  0  0  0
 39 41  1  1  0  0  0
 40 39  1  0  0  0  0
M  END
>  <MODEL>
8

>  <REMARK>
 VINA RESULT:      -7.0      3.272      8.174
  Name = 
  10 active torsions:
  status: ('A' for Active; 'I' for Inactive)
    1  A    between atoms: C_1  and  C_33
    2  A    between atoms: C_4  and  C_21
    3  A    between atoms: C_4  and  C_29
    4  A    between atoms: N_6  and  C_33
    5  A    between atoms: N_6  and  C_40
    6  A    between atoms: C_8  and  O_28
    7  A    between atoms: C_8  and  C_29
    8  A    between atoms: C_11  and  O_28
    9  A    between atoms: C_21  and  N_22
   10  A    between atoms: C_30  and  C_37
                            x       y       z     vdW  Elec       q    Type
                         _______ _______ _______ _____ _____    ______ ____

>  <TORSDO>
F 10

$$$$
=
 OpenBabel11052411223D

 41 46  0  0  1  0  0  0  0  0999 V2000
  161.2270  205.3750  147.7980 C   0  0  0  0  0  0  0  0  0  0  0  0
  161.2010  202.1540  150.4950 C   0  0  0  0  0  0  0  0  0  0  0  0
  161.2130  203.2230  149.5780 C   0  0  0  0  0  0  0  0  0  0  0  0
  161.3320  206.5330  146.8370 C   0  0  0  0  0  2  0  0  0  0  0  0
  161.2530  204.5040  150.0270 N   0  0  0  0  0  0  0  0  0  0  0  0
  161.2460  202.3950  151.9650 C   0  0  0  0  0  1  0  0  0  0  0  0
  161.1050  200.5780  148.6610 C   0  0  0  0  0  3  0  0  0  0  0  0
  161.1930  204.0550  147.2870 C   0  0  0  0  0  0  0  0  0  0  0  0
  160.4830  206.2830  145.5970 C   0  0  0  0  0  2  0  0  0  0  0  0
  161.1480  200.8390  150.0310 C   0  0  0  0  0  3  0  0  0  0  0  0
  160.8820  205.0280  144.9770 N   0  0  0  0  0  0  0  0  0  0  0  0
  161.3990  202.7690  145.2690 O   0  0  0  0  0  0  0  0  0  0  0  0
  161.1780  202.9650  148.1880 C   0  0  0  0  0  0  0  0  0  0  0  0
  161.1550  203.8850  145.8030 C   0  0  0  0  0  0  0  0  0  0  0  0
  161.2590  205.5800  149.1990 C   0  0  0  0  0  0  0  0  0  0  0  0
  161.1190  201.6340  147.7490 C   0  0  0  0  0  3  0  0  0  0  0  0
  160.8310  207.1430  151.0830 N   0  0  0  0  0  0  0  0  0  0  0  0
  161.7710  208.0380  149.2190 N   0  0  0  0  0  2  0  0  0  0  0  0
  160.7630  211.5120  153.5150 C   0  0  0  0  0  1  0  0  0  0  0  0
  161.3070  211.2790  151.0890 C   0  0  0  0  0  2  0  0  0  0  0  0
  161.0440  208.4550  151.2680 C   0  0  0  0  0  0  0  0  0  0  0  0
  161.2990  206.9230  149.8290 C   0  0  0  0  0  0  0  0  0  0  0  0
  161.5810  208.9980  150.1380 C   0  0  0  0  0  0  0  0  0  0  0  0
  162.0040  210.4270  150.0190 C   0  0  0  0  0  2  0  0  0  0  0  0
  160.6470  209.2520  152.4710 C   0  0  0  0  0  2  0  0  0  0  0  0
  161.3770  210.6050  152.4690 C   0  0  2  0  0  3  0  0  0  0  0  0
  161.1110  205.0030  143.5400 C   0  0  0  0  0  2  0  0  0  0  0  0
  161.9550  206.1950  143.1210 C   0  0  0  0  0  2  0  0  0  0  0  0
  161.5460  206.6700  141.7390 C   0  0  0  0  0  2  0  0  0  0  0  0
  162.7120  206.5430  140.7740 C   0  0  0  0  0  2  0  0  0  0  0  0
  162.8840  207.7430  140.0850 O   0  0  0  0  0  0  0  0  0  0  0  0
  160.1130  209.6590  138.0350 S   0  0  0  0  0  0  0  0  0  0  0  0
  161.6870  207.9280  139.3850 C   0  0  2  0  0  3  0  0  0  0  0  0
  161.8690  207.6000  137.9230 C   0  0  0  0  0  2  0  0  0  0  0  0
  161.2040  209.3690  139.4650 C   0  0  1  0  0  3  0  0  0  0  0  0
  160.6270  208.1080  137.2280 C   0  0  0  0  0  2  0  0  0  0  0  0
  162.3240  210.2970  139.4040 N   0  0  0  0  0  2  0  0  0  0  0  0
  161.8110  211.6030  139.7830 C   0  0  0  0  0  2  0  0  0  0  0  0
  161.2570  211.5510  141.1940 C   0  0  2  0  0  3  0  0  0  0  0  0
  160.0410  212.2330  141.2500 O   0  0  0  0  0  1  0  0  0  0  0  0
  162.2420  212.2040  142.1420 C   0  0  0  0  0  1  0  0  0  0  0  0
  1 15  1  0  0  0  0
  2  6  1  0  0  0  0
  3  5  1  0  0  0  0
  3  2  2  0  0  0  0
  4  1  1  0  0  0  0
  7 10  2  0  0  0  0
  8  1  2  0  0  0  0
  8 13  1  0  0  0  0
  9  4  1  0  0  0  0
 10  2  1  0  0  0  0
 11  9  1  0  0  0  0
 11 14  1  0  0  0  0
 12 14  2  0  0  0  0
 13  3  1  0  0  0  0
 14  8  1  0  0  0  0
 15 22  1  0  0  0  0
 15  5  2  0  0  0  0
 16 13  2  0  0  0  0
 16  7  1  0  0  0  0
 17 21  1  0  0  0  0
 18 22  1  0  0  0  0
 18 23  1  0  0  0  0
 20 26  1  0  0  0  0
 21 25  1  0  0  0  0
 22 17  2  0  0  0  0
 23 21  2  0  0  0  0
 24 23  1  0  0  0  0
 24 20  1  0  0  0  0
 26 25  1  0  0  0  0
 26 19  1  1  0  0  0
 27 11  1  0  0  0  0
 28 27  1  0  0  0  0
 29 28  1  0  0  0  0
 30 29  1  0  0  0  0
 31 30  1  0  0  0  0
 32 35  1  0  0  0  0
 33 35  1  0  0  0  0
 33 31  1  1  0  0  0
 34 33  1  0  0  0  0
 35 37  1  6  0  0  0
 36 34  1  0  0  0  0
 36 32  1  0  0  0  0
 37 38  1  0  0  0  0
 38 39  1  0  0  0  0
 39 40  1  0  0  0  0
 39 41  1  1  0  0  0
M  END
>  <MODEL>
9

>  <REMARK>
 VINA RESULT:      -6.8      4.071      7.784
  Name = 
  10 active torsions:
  status: ('A' for Active; 'I' for Inactive)
    1  A    between atoms: C_1  and  C_33
    2  A    between atoms: C_4  and  C_21
    3  A    between atoms: C_4  and  C_29
    4  A    between atoms: N_6  and  C_33
    5  A    between atoms: N_6  and  C_40
    6  A    between atoms: C_8  and  O_28
    7  A    between atoms: C_8  and  C_29
    8  A    between atoms: C_11  and  O_28
    9  A    between atoms: C_21  and  N_22
   10  A    between atoms: C_30  and  C_37
                            x       y       z     vdW  Elec       q    Type
                         _______ _______ _______ _____ _____    ______ ____

>  <TORSDO>
F 10

$$$$
