=
 OpenBabel11052410573D

 37 40  0  0  1  0  0  0  0  0999 V2000
  162.1810  209.3850  150.8750 C   0  0  2  0  0  3  0  0  0  0  0  0
  162.2050  207.4640  149.5500 C   0  0  2  0  0  3  0  0  0  0  0  0
  161.7300  209.7870  149.5470 N   0  0  0  0  0  0  0  0  0  0  0  0
  162.5060  207.9610  150.8820 N   0  0  0  0  0  2  0  0  0  0  0  0
  162.0720  208.6830  148.6720 C   0  0  0  0  0  2  0  0  0  0  0  0
  160.8890  206.6740  149.5580 C   0  0  2  0  0  3  0  0  0  0  0  0
  160.9970  205.4150  150.3600 C   0  0  0  0  0  0  0  0  0  0  0  0
  161.0940  203.1640  150.4830 N   0  0  0  0  0  0  0  0  0  0  0  0
  160.4740  206.3270  148.1790 N   0  0  0  0  0  2  0  0  0  0  0  0
  161.2070  204.1420  148.2810 N   0  0  0  0  0  2  0  0  0  0  0  0
  160.8290  205.1980  151.6490 C   0  0  0  0  0  3  0  0  0  0  0  0
  160.9340  203.7020  151.8390 C   0  0  0  0  0  2  0  0  0  0  0  0
  161.3650  205.3750  147.6100 N   0  0  0  0  0  2  0  0  0  0  0  0
  161.1640  204.1800  149.7000 C   0  0  0  0  0  0  0  0  0  0  0  0
  160.4800  208.7570  152.3900 O   0  0  0  0  0  0  0  0  0  0  0  0
  161.1210  209.6700  151.8940 C   0  0  0  0  0  0  0  0  0  0  0  0
  160.8760  211.0740  152.3460 C   0  0  0  0  0  2  0  0  0  0  0  0
  159.3850  211.3710  152.4010 C   0  0  0  0  0  2  0  0  0  0  0  0
  159.1550  212.8020  152.2920 N   0  0  0  0  0  2  0  0  0  0  0  0
  158.7710  213.2630  153.6140 C   0  0  0  0  0  2  0  0  0  0  0  0
  157.9960  212.1770  154.3330 C   0  0  2  0  0  3  0  0  0  0  0  0
  156.6330  212.4780  154.3060 O   0  0  0  0  0  1  0  0  0  0  0  0
  158.4760  212.0940  155.7730 C   0  0  0  0  0  2  0  0  0  0  0  0
  161.8110  209.4190  156.0950 C   0  0  0  0  0  3  0  0  0  0  0  0
  160.9320  211.6720  156.0070 C   0  0  0  0  0  3  0  0  0  0  0  0
  159.6350  211.1640  155.8960 C   0  0  0  0  0  0  0  0  0  0  0  0
  159.4280  209.7800  155.8810 C   0  0  0  0  0  3  0  0  0  0  0  0
  160.5130  208.9000  155.9810 C   0  0  0  0  0  0  0  0  0  0  0  0
  162.0200  210.8000  156.1080 C   0  0  0  0  0  3  0  0  0  0  0  0
  160.2870  207.4460  155.9640 C   0  0  0  0  0  0  0  0  0  0  0  0
  159.9920  206.7690  157.1420 O   0  0  0  0  0  1  0  0  0  0  0  0
  160.3570  206.8010  154.8830 O   0  0  0  0  0  0  0  0  0  0  0  0
  162.5470  210.9210  149.1430 C   0  0  0  0  0  2  0  0  0  0  0  0
  162.5760  213.0630  147.9090 C   0  0  0  0  0  1  0  0  0  0  0  0
  160.8990  211.4500  147.5100 F   0  0  0  0  0  0  0  0  0  0  0  0
  160.8710  212.5770  149.4670 F   0  0  0  0  0  0  0  0  0  0  0  0
  161.6820  212.0000  148.5090 C   0  0  0  0  0  0  0  0  0  0  0  0
  1  4  1  0  0  0  0
  1 16  1  1  0  0  0
  2  5  1  6  0  0  0
  2  6  1  0  0  0  0
  2  4  1  0  0  0  0
  3  1  1  0  0  0  0
  5  3  1  0  0  0  0
  6  9  1  6  0  0  0
  6  7  1  0  0  0  0
  7 11  2  0  0  0  0
  8 12  1  0  0  0  0
 10 14  1  0  0  0  0
 11 12  1  0  0  0  0
 13  9  1  0  0  0  0
 13 10  1  0  0  0  0
 14  7  1  0  0  0  0
 14  8  2  0  0  0  0
 16 17  1  0  0  0  0
 16 15  2  0  0  0  0
 17 18  1  0  0  0  0
 19 18  1  0  0  0  0
 19 20  1  0  0  0  0
 20 21  1  0  0  0  0
 21 22  1  1  0  0  0
 21 23  1  0  0  0  0
 23 26  1  0  0  0  0
 24 29  1  0  0  0  0
 25 29  2  0  0  0  0
 26 25  1  0  0  0  0
 27 26  2  0  0  0  0
 27 28  1  0  0  0  0
 28 24  2  0  0  0  0
 30 28  1  0  0  0  0
 30 31  1  0  0  0  0
 32 30  2  0  0  0  0
 33  3  1  0  0  0  0
 34 37  1  0  0  0  0
 35 37  1  0  0  0  0
 37 33  1  0  0  0  0
 37 36  1  0  0  0  0
M  END
>  <MODEL>
1

>  <REMARK>
 VINA RESULT:      -7.4      0.000      0.000
  Name = 
  12 active torsions:
  status: ('A' for Active; 'I' for Inactive)
    1  A    between atoms: C_1  and  C_27
    2  A    between atoms: C_2  and  N_8
    3  A    between atoms: C_2  and  C_35
    4  A    between atoms: C_3  and  C_4
    5  A    between atoms: C_5  and  C_32
    6  A    between atoms: C_7  and  N_15
    7  A    between atoms: C_7  and  C_26
    8  A    between atoms: C_11  and  C_18
    9  A    between atoms: C_11  and  C_29
   10  A    between atoms: N_15  and  C_18
   11  A    between atoms: C_24  and  C_29
   12  A    between atoms: C_26  and  C_27
                            x       y       z     vdW  Elec       q    Type
                         _______ _______ _______ _____ _____    ______ ____

>  <TORSDO>
F 12

$$$$
=
 OpenBabel11052410573D

 37 40  0  0  1  0  0  0  0  0999 V2000
  160.9850  210.5130  154.2130 C   0  0  2  0  0  3  0  0  0  0  0  0
  159.1570  211.8130  154.8560 C   0  0  2  0  0  3  0  0  0  0  0  0
  160.1560  209.6740  155.0720 N   0  0  0  0  0  0  0  0  0  0  0  0
  160.3960  211.8440  154.0960 N   0  0  0  0  0  2  0  0  0  0  0  0
  159.2320  210.5810  155.7230 C   0  0  0  0  0  2  0  0  0  0  0  0
  157.9520  211.7200  153.9110 C   0  0  2  0  0  3  0  0  0  0  0  0
  158.1040  212.6140  152.7200 C   0  0  0  0  0  0  0  0  0  0  0  0
  157.5110  214.4490  151.5500 N   0  0  0  0  0  0  0  0  0  0  0  0
  156.6990  212.0770  154.6180 N   0  0  0  0  0  2  0  0  0  0  0  0
  156.5750  214.2150  153.7600 N   0  0  0  0  0  2  0  0  0  0  0  0
  158.6950  212.4080  151.5590 C   0  0  0  0  0  3  0  0  0  0  0  0
  158.3960  213.6270  150.7160 C   0  0  0  0  0  2  0  0  0  0  0  0
  156.6860  213.4600  154.9490 N   0  0  0  0  0  2  0  0  0  0  0  0
  157.4180  213.8460  152.6790 C   0  0  0  0  0  0  0  0  0  0  0  0
  160.2450  209.1640  152.4190 O   0  0  0  0  0  0  0  0  0  0  0  0
  161.1210  209.8950  152.8550 C   0  0  0  0  0  0  0  0  0  0  0  0
  162.3090  210.2110  152.0040 C   0  0  0  0  0  2  0  0  0  0  0  0
  162.0030  209.9630  150.5350 C   0  0  0  0  0  2  0  0  0  0  0  0
  162.3020  208.5840  150.1870 N   0  0  0  0  0  2  0  0  0  0  0  0
  161.9870  208.4320  148.7780 C   0  0  0  0  0  2  0  0  0  0  0  0
  161.9380  206.9610  148.4170 C   0  0  2  0  0  3  0  0  0  0  0  0
  162.1140  206.8110  147.0400 O   0  0  0  0  0  1  0  0  0  0  0  0
  160.5910  206.3910  148.8300 C   0  0  0  0  0  2  0  0  0  0  0  0
  161.1150  202.9700  151.3600 C   0  0  0  0  0  3  0  0  0  0  0  0
  160.9340  205.3680  151.0890 C   0  0  0  0  0  3  0  0  0  0  0  0
  160.7620  205.2010  149.7110 C   0  0  0  0  0  0  0  0  0  0  0  0
  160.7710  203.9160  149.1590 C   0  0  0  0  0  3  0  0  0  0  0  0
  160.9470  202.7930  149.9790 C   0  0  0  0  0  0  0  0  0  0  0  0
  161.1090  204.2530  151.9130 C   0  0  0  0  0  3  0  0  0  0  0  0
  160.9550  201.4440  149.3900 C   0  0  0  0  0  0  0  0  0  0  0  0
  161.1790  201.2750  148.0290 O   0  0  0  0  0  0  0  0  0  0  0  0
  160.7600  200.4310  150.1140 O   0  0  0  0  0  1  0  0  0  0  0  0
  161.0230  209.1330  156.1070 C   0  0  0  0  0  2  0  0  0  0  0  0
  159.5120  207.1760  156.0760 C   0  0  0  0  0  1  0  0  0  0  0  0
  161.6140  207.1090  155.0030 F   0  0  0  0  0  0  0  0  0  0  0  0
  161.5540  207.1210  157.2600 F   0  0  0  0  0  0  0  0  0  0  0  0
  160.9610  207.6130  156.1130 C   0  0  0  0  0  0  0  0  0  0  0  0
  1 16  1  6  0  0  0
  1  3  1  0  0  0  0
  2  5  1  1  0  0  0
  3  5  1  0  0  0  0
  3 33  1  0  0  0  0
  4  1  1  0  0  0  0
  4  2  1  0  0  0  0
  6  7  1  6  0  0  0
  6  9  1  0  0  0  0
  6  2  1  0  0  0  0
  8 14  2  0  0  0  0
  9 13  1  0  0  0  0
 10 13  1  0  0  0  0
 11  7  2  0  0  0  0
 12  8  1  0  0  0  0
 12 11  1  0  0  0  0
 14  7  1  0  0  0  0
 14 10  1  0  0  0  0
 15 16  2  0  0  0  0
 17 16  1  0  0  0  0
 18 17  1  0  0  0  0
 19 18  1  0  0  0  0
 20 19  1  0  0  0  0
 21 22  1  6  0  0  0
 21 20  1  0  0  0  0
 21 23  1  0  0  0  0
 23 26  1  0  0  0  0
 24 29  1  0  0  0  0
 25 29  2  0  0  0  0
 26 25  1  0  0  0  0
 27 26  2  0  0  0  0
 27 28  1  0  0  0  0
 28 24  2  0  0  0  0
 30 28  1  0  0  0  0
 30 32  1  0  0  0  0
 31 30  2  0  0  0  0
 33 37  1  0  0  0  0
 34 37  1  0  0  0  0
 35 37  1  0  0  0  0
 37 36  1  0  0  0  0
M  END
>  <MODEL>
2

>  <REMARK>
 VINA RESULT:      -7.2      3.428      8.361
  Name = 
  12 active torsions:
  status: ('A' for Active; 'I' for Inactive)
    1  A    between atoms: C_1  and  C_27
    2  A    between atoms: C_2  and  N_8
    3  A    between atoms: C_2  and  C_35
    4  A    between atoms: C_3  and  C_4
    5  A    between atoms: C_5  and  C_32
    6  A    between atoms: C_7  and  N_15
    7  A    between atoms: C_7  and  C_26
    8  A    between atoms: C_11  and  C_18
    9  A    between atoms: C_11  and  C_29
   10  A    between atoms: N_15  and  C_18
   11  A    between atoms: C_24  and  C_29
   12  A    between atoms: C_26  and  C_27
                            x       y       z     vdW  Elec       q    Type
                         _______ _______ _______ _____ _____    ______ ____

>  <TORSDO>
F 12

$$$$
=
 OpenBabel11052410573D

 37 40  0  0  1  0  0  0  0  0999 V2000
  162.2430  208.9340  150.6160 C   0  0  2  0  0  3  0  0  0  0  0  0
  162.2250  207.1970  149.0580 C   0  0  2  0  0  3  0  0  0  0  0  0
  161.7860  209.5080  149.3550 N   0  0  0  0  0  0  0  0  0  0  0  0
  162.5450  207.5160  150.4390 N   0  0  0  0  0  2  0  0  0  0  0  0
  162.1030  208.5200  148.3430 C   0  0  0  0  0  2  0  0  0  0  0  0
  160.8960  206.4320  148.9800 C   0  0  2  0  0  3  0  0  0  0  0  0
  160.9860  205.0880  149.6330 C   0  0  0  0  0  0  0  0  0  0  0  0
  161.0480  202.8370  149.5000 N   0  0  0  0  0  0  0  0  0  0  0  0
  160.4750  206.2500  147.5710 N   0  0  0  0  0  2  0  0  0  0  0  0
  161.1740  204.0560  147.4230 N   0  0  0  0  0  2  0  0  0  0  0  0
  160.8140  204.7290  150.8900 C   0  0  0  0  0  3  0  0  0  0  0  0
  160.8960  203.2200  150.9090 C   0  0  0  0  0  2  0  0  0  0  0  0
  161.3510  205.3550  146.8960 N   0  0  0  0  0  2  0  0  0  0  0  0
  161.1320  203.9330  148.8370 C   0  0  0  0  0  0  0  0  0  0  0  0
  160.6810  210.1930  151.8660 O   0  0  0  0  0  0  0  0  0  0  0  0
  161.1960  209.1030  151.6750 C   0  0  0  0  0  0  0  0  0  0  0  0
  160.7410  207.9220  152.4720 C   0  0  0  0  0  2  0  0  0  0  0  0
  161.0830  208.1000  153.9430 C   0  0  0  0  0  2  0  0  0  0  0  0
  160.5530  206.9900  154.7180 N   0  0  0  0  0  2  0  0  0  0  0  0
  160.1870  207.5270  156.0160 C   0  0  0  0  0  2  0  0  0  0  0  0
  160.9880  208.7820  156.2990 C   0  0  2  0  0  3  0  0  0  0  0  0
  162.0620  208.4740  157.1370 O   0  0  0  0  0  1  0  0  0  0  0  0
  160.0880  209.8060  156.9710 C   0  0  0  0  0  2  0  0  0  0  0  0
  158.3790  212.5010  154.1100 C   0  0  0  0  0  3  0  0  0  0  0  0
  160.3230  211.5640  155.2050 C   0  0  0  0  0  3  0  0  0  0  0  0
  159.4940  210.7350  155.9680 C   0  0  0  0  0  0  0  0  0  0  0  0
  158.1070  210.7940  155.8030 C   0  0  0  0  0  3  0  0  0  0  0  0
  157.5400  211.6760  154.8740 C   0  0  0  0  0  0  0  0  0  0  0  0
  159.7650  212.4460  154.2760 C   0  0  0  0  0  3  0  0  0  0  0  0
  156.0800  211.7320  154.7050 C   0  0  0  0  0  0  0  0  0  0  0  0
  155.4470  212.9480  154.4730 O   0  0  0  0  0  0  0  0  0  0  0  0
  155.3880  210.6790  154.7690 O   0  0  0  0  0  1  0  0  0  0  0  0
  162.6170  210.6720  149.0890 C   0  0  0  0  0  2  0  0  0  0  0  0
  162.6750  212.8910  148.0000 C   0  0  0  0  0  1  0  0  0  0  0  0
  160.9090  211.3790  147.5920 F   0  0  0  0  0  0  0  0  0  0  0  0
  161.0360  212.3680  149.6180 F   0  0  0  0  0  0  0  0  0  0  0  0
  161.7680  211.8260  148.5780 C   0  0  0  0  0  0  0  0  0  0  0  0
  1 16  1  1  0  0  0
  2  5  1  6  0  0  0
  2  4  1  0  0  0  0
  3  1  1  0  0  0  0
  4  1  1  0  0  0  0
  5  3  1  0  0  0  0
  6  9  1  6  0  0  0
  6  2  1  0  0  0  0
  6  7  1  0  0  0  0
  7 11  2  0  0  0  0
  8 12  1  0  0  0  0
 10 14  1  0  0  0  0
 11 12  1  0  0  0  0
 13 10  1  0  0  0  0
 13  9  1  0  0  0  0
 14  8  2  0  0  0  0
 14  7  1  0  0  0  0
 16 15  2  0  0  0  0
 16 17  1  0  0  0  0
 17 18  1  0  0  0  0
 18 19  1  0  0  0  0
 19 20  1  0  0  0  0
 20 21  1  0  0  0  0
 21 23  1  0  0  0  0
 21 22  1  1  0  0  0
 24 29  2  0  0  0  0
 24 28  1  0  0  0  0
 25 26  2  0  0  0  0
 26 23  1  0  0  0  0
 27 26  1  0  0  0  0
 28 27  2  0  0  0  0
 29 25  1  0  0  0  0
 30 32  1  0  0  0  0
 30 28  1  0  0  0  0
 31 30  2  0  0  0  0
 33  3  1  0  0  0  0
 34 37  1  0  0  0  0
 35 37  1  0  0  0  0
 37 33  1  0  0  0  0
 37 36  1  0  0  0  0
M  END
>  <MODEL>
3

>  <REMARK>
 VINA RESULT:      -7.2      1.443      3.319
  Name = 
  12 active torsions:
  status: ('A' for Active; 'I' for Inactive)
    1  A    between atoms: C_1  and  C_27
    2  A    between atoms: C_2  and  N_8
    3  A    between atoms: C_2  and  C_35
    4  A    between atoms: C_3  and  C_4
    5  A    between atoms: C_5  and  C_32
    6  A    between atoms: C_7  and  N_15
    7  A    between atoms: C_7  and  C_26
    8  A    between atoms: C_11  and  C_18
    9  A    between atoms: C_11  and  C_29
   10  A    between atoms: N_15  and  C_18
   11  A    between atoms: C_24  and  C_29
   12  A    between atoms: C_26  and  C_27
                            x       y       z     vdW  Elec       q    Type
                         _______ _______ _______ _____ _____    ______ ____

>  <TORSDO>
F 12

$$$$
=
 OpenBabel11052410573D

 37 40  0  0  1  0  0  0  0  0999 V2000
  160.8570  207.8370  151.5210 C   0  0  2  0  0  3  0  0  0  0  0  0
  160.8920  209.6730  152.9610 C   0  0  2  0  0  3  0  0  0  0  0  0
  161.9720  208.6790  151.0990 N   0  0  0  0  0  0  0  0  0  0  0  0
  160.1650  208.4540  152.6490 N   0  0  0  0  0  2  0  0  0  0  0  0
  161.7700  209.9500  151.7670 C   0  0  0  0  0  2  0  0  0  0  0  0
  161.7540  209.4760  154.2150 C   0  0  2  0  0  3  0  0  0  0  0  0
  161.0450  208.6710  155.2600 C   0  0  0  0  0  0  0  0  0  0  0  0
  160.0140  208.5190  157.2610 N   0  0  0  0  0  0  0  0  0  0  0  0
  162.1390  210.7820  154.8000 N   0  0  0  0  0  2  0  0  0  0  0  0
  160.5630  210.7340  156.4830 N   0  0  0  0  0  2  0  0  0  0  0  0
  160.9640  207.3670  155.4340 C   0  0  0  0  0  3  0  0  0  0  0  0
  160.2290  207.1640  156.7390 C   0  0  0  0  0  2  0  0  0  0  0  0
  161.0050  211.4440  155.3450 N   0  0  0  0  0  2  0  0  0  0  0  0
  160.4590  209.3240  156.3650 C   0  0  0  0  0  0  0  0  0  0  0  0
  162.3710  206.3530  152.5650 O   0  0  0  0  0  0  0  0  0  0  0  0
  161.3490  206.4760  151.9080 C   0  0  0  0  0  0  0  0  0  0  0  0
  160.5630  205.2610  151.5320 C   0  0  0  0  0  2  0  0  0  0  0  0
  160.9400  204.0800  152.4130 C   0  0  0  0  0  2  0  0  0  0  0  0
  161.4120  202.9760  151.5950 N   0  0  0  0  0  2  0  0  0  0  0  0
  161.0180  203.2720  150.2290 C   0  0  0  0  0  2  0  0  0  0  0  0
  160.4820  202.0190  149.5660 C   0  0  2  0  0  3  0  0  0  0  0  0
  160.3400  201.0080  150.5190 O   0  0  0  0  0  1  0  0  0  0  0  0
  161.4520  201.5750  148.4830 C   0  0  0  0  0  2  0  0  0  0  0  0
  160.3700  203.1760  144.6570 C   0  0  0  0  0  3  0  0  0  0  0  0
  160.3860  201.3380  146.2310 C   0  0  0  0  0  3  0  0  0  0  0  0
  161.0660  202.1350  147.1570 C   0  0  0  0  0  0  0  0  0  0  0  0
  161.4010  203.4530  146.8290 C   0  0  0  0  0  3  0  0  0  0  0  0
  161.0550  203.9820  145.5780 C   0  0  0  0  0  0  0  0  0  0  0  0
  160.0370  201.8580  144.9820 C   0  0  0  0  0  3  0  0  0  0  0  0
  161.4110  205.3690  145.2400 C   0  0  0  0  0  0  0  0  0  0  0  0
  160.4320  206.2590  144.8120 O   0  0  0  0  0  0  0  0  0  0  0  0
  162.6040  205.7640  145.3360 O   0  0  0  0  0  1  0  0  0  0  0  0
  161.8120  208.9170  149.6730 C   0  0  0  0  0  2  0  0  0  0  0  0
  161.1440  206.9190  148.3780 C   0  0  0  0  0  1  0  0  0  0  0  0
  163.0590  208.1680  147.7900 F   0  0  0  0  0  0  0  0  0  0  0  0
  163.1160  206.9280  149.6760 F   0  0  0  0  0  0  0  0  0  0  0  0
  162.3230  207.7270  148.8750 C   0  0  0  0  0  0  0  0  0  0  0  0
  1 16  1  1  0  0  0
  1  4  1  0  0  0  0
  2  5  1  6  0  0  0
  2  6  1  0  0  0  0
  3  1  1  0  0  0  0
  3  5  1  0  0  0  0
  4  2  1  0  0  0  0
  6  9  1  1  0  0  0
  6  7  1  0  0  0  0
  7 11  2  0  0  0  0
  7 14  1  0  0  0  0
  9 13  1  0  0  0  0
 11 12  1  0  0  0  0
 12  8  1  0  0  0  0
 13 10  1  0  0  0  0
 14 10  1  0  0  0  0
 14  8  2  0  0  0  0
 16 15  2  0  0  0  0
 17 16  1  0  0  0  0
 17 18  1  0  0  0  0
 19 18  1  0  0  0  0
 20 19  1  0  0  0  0
 21 20  1  0  0  0  0
 21 22  1  1  0  0  0
 23 21  1  0  0  0  0
 24 29  2  0  0  0  0
 24 28  1  0  0  0  0
 25 26  2  0  0  0  0
 26 23  1  0  0  0  0
 27 26  1  0  0  0  0
 28 27  2  0  0  0  0
 29 25  1  0  0  0  0
 30 32  1  0  0  0  0
 30 28  1  0  0  0  0
 31 30  2  0  0  0  0
 33  3  1  0  0  0  0
 34 37  1  0  0  0  0
 35 37  1  0  0  0  0
 37 33  1  0  0  0  0
 37 36  1  0  0  0  0
M  END
>  <MODEL>
4

>  <REMARK>
 VINA RESULT:      -6.9      3.722      8.805
  Name = 
  12 active torsions:
  status: ('A' for Active; 'I' for Inactive)
    1  A    between atoms: C_1  and  C_27
    2  A    between atoms: C_2  and  N_8
    3  A    between atoms: C_2  and  C_35
    4  A    between atoms: C_3  and  C_4
    5  A    between atoms: C_5  and  C_32
    6  A    between atoms: C_7  and  N_15
    7  A    between atoms: C_7  and  C_26
    8  A    between atoms: C_11  and  C_18
    9  A    between atoms: C_11  and  C_29
   10  A    between atoms: N_15  and  C_18
   11  A    between atoms: C_24  and  C_29
   12  A    between atoms: C_26  and  C_27
                            x       y       z     vdW  Elec       q    Type
                         _______ _______ _______ _____ _____    ______ ____

>  <TORSDO>
F 12

$$$$
=
 OpenBabel11052410573D

 37 40  0  0  1  0  0  0  0  0999 V2000
  160.9580  207.0170  149.6520 C   0  0  2  0  0  3  0  0  0  0  0  0
  160.5400  204.7540  149.2640 C   0  0  2  0  0  3  0  0  0  0  0  0
  161.4560  206.2930  150.8160 N   0  0  0  0  0  0  0  0  0  0  0  0
  160.3630  206.0820  148.7000 N   0  0  0  0  0  2  0  0  0  0  0  0
  160.8920  204.9620  150.7160 C   0  0  0  0  0  2  0  0  0  0  0  0
  161.6770  204.0150  148.5470 C   0  0  2  0  0  3  0  0  0  0  0  0
  161.5660  204.1270  147.0580 C   0  0  0  0  0  0  0  0  0  0  0  0
  161.1470  203.2060  145.0420 N   0  0  0  0  0  0  0  0  0  0  0  0
  161.6880  202.5800  148.9160 N   0  0  0  0  0  2  0  0  0  0  0  0
  160.6660  201.8540  146.9800 N   0  0  0  0  0  2  0  0  0  0  0  0
  162.0030  205.0560  146.2300 C   0  0  0  0  0  3  0  0  0  0  0  0
  161.7110  204.5460  144.8380 C   0  0  0  0  0  2  0  0  0  0  0  0
  160.5480  201.9150  148.3860 N   0  0  0  0  0  2  0  0  0  0  0  0
  161.0530  203.0460  146.3120 C   0  0  0  0  0  0  0  0  0  0  0  0
  163.0750  207.1920  148.6160 O   0  0  0  0  0  0  0  0  0  0  0  0
  162.0700  207.7740  148.9930 C   0  0  0  0  0  0  0  0  0  0  0  0
  161.9340  209.2430  148.7500 C   0  0  0  0  0  2  0  0  0  0  0  0
  162.0450  210.0180  150.0540 C   0  0  0  0  0  2  0  0  0  0  0  0
  161.9110  211.4430  149.8020 N   0  0  0  0  0  2  0  0  0  0  0  0
  161.8190  211.6040  148.3620 C   0  0  0  0  0  2  0  0  0  0  0  0
  161.6860  213.0740  148.0160 C   0  0  2  0  0  3  0  0  0  0  0  0
  161.2560  213.7820  149.1400 O   0  0  0  0  0  1  0  0  0  0  0  0
  160.6760  213.2300  146.8910 C   0  0  0  0  0  2  0  0  0  0  0  0
  162.5530  212.8330  143.0580 C   0  0  0  0  0  3  0  0  0  0  0  0
  162.6820  213.4110  145.4040 C   0  0  0  0  0  3  0  0  0  0  0  0
  161.3320  213.0810  145.5610 C   0  0  0  0  0  0  0  0  0  0  0  0
  160.5930  212.6300  144.4620 C   0  0  0  0  0  3  0  0  0  0  0  0
  161.1980  212.5030  143.2050 C   0  0  0  0  0  0  0  0  0  0  0  0
  163.2920  213.2860  144.1530 C   0  0  0  0  0  3  0  0  0  0  0  0
  160.4140  212.0280  142.0540 C   0  0  0  0  0  0  0  0  0  0  0  0
  159.1550  212.5580  141.7970 O   0  0  0  0  0  1  0  0  0  0  0  0
  160.8760  211.1370  141.2900 O   0  0  0  0  0  0  0  0  0  0  0  0
  160.8680  206.9180  151.9920 C   0  0  0  0  0  2  0  0  0  0  0  0
  161.2180  207.2900  154.4110 C   0  0  0  0  0  1  0  0  0  0  0  0
  160.8970  205.1170  153.5460 F   0  0  0  0  0  0  0  0  0  0  0  0
  162.8390  206.1800  153.1000 F   0  0  0  0  0  0  0  0  0  0  0  0
  161.4750  206.3400  153.2610 C   0  0  0  0  0  0  0  0  0  0  0  0
  1 16  1  6  0  0  0
  1  3  1  0  0  0  0
  2  5  1  1  0  0  0
  3 33  1  0  0  0  0
  4  2  1  0  0  0  0
  4  1  1  0  0  0  0
  5  3  1  0  0  0  0
  6  7  1  6  0  0  0
  6  9  1  0  0  0  0
  6  2  1  0  0  0  0
  8 14  2  0  0  0  0
 10 13  1  0  0  0  0
 11  7  2  0  0  0  0
 12  8  1  0  0  0  0
 12 11  1  0  0  0  0
 13  9  1  0  0  0  0
 14 10  1  0  0  0  0
 14  7  1  0  0  0  0
 15 16  2  0  0  0  0
 17 16  1  0  0  0  0
 17 18  1  0  0  0  0
 19 18  1  0  0  0  0
 20 19  1  0  0  0  0
 21 20  1  0  0  0  0
 21 22  1  1  0  0  0
 23 21  1  0  0  0  0
 24 28  2  0  0  0  0
 24 29  1  0  0  0  0
 25 26  1  0  0  0  0
 26 23  1  0  0  0  0
 27 26  2  0  0  0  0
 28 27  1  0  0  0  0
 29 25  2  0  0  0  0
 30 28  1  0  0  0  0
 31 30  1  0  0  0  0
 32 30  2  0  0  0  0
 33 37  1  0  0  0  0
 36 37  1  0  0  0  0
 37 35  1  0  0  0  0
 37 34  1  0  0  0  0
M  END
>  <MODEL>
5

>  <REMARK>
 VINA RESULT:      -6.8      4.326      8.091
  Name = 
  12 active torsions:
  status: ('A' for Active; 'I' for Inactive)
    1  A    between atoms: C_1  and  C_27
    2  A    between atoms: C_2  and  N_8
    3  A    between atoms: C_2  and  C_35
    4  A    between atoms: C_3  and  C_4
    5  A    between atoms: C_5  and  C_32
    6  A    between atoms: C_7  and  N_15
    7  A    between atoms: C_7  and  C_26
    8  A    between atoms: C_11  and  C_18
    9  A    between atoms: C_11  and  C_29
   10  A    between atoms: N_15  and  C_18
   11  A    between atoms: C_24  and  C_29
   12  A    between atoms: C_26  and  C_27
                            x       y       z     vdW  Elec       q    Type
                         _______ _______ _______ _____ _____    ______ ____

>  <TORSDO>
F 12

$$$$
=
 OpenBabel11052410573D

 37 40  0  0  1  0  0  0  0  0999 V2000
  161.3570  209.6100  153.8440 C   0  0  2  0  0  3  0  0  0  0  0  0
  159.8810  210.2730  155.5260 C   0  0  2  0  0  3  0  0  0  0  0  0
  160.5270  208.4510  154.1530 N   0  0  0  0  0  0  0  0  0  0  0  0
  160.9890  210.7310  154.7040 N   0  0  0  0  0  2  0  0  0  0  0  0
  159.8690  208.7690  155.4050 C   0  0  0  0  0  2  0  0  0  0  0  0
  158.5580  210.8540  155.0120 C   0  0  2  0  0  3  0  0  0  0  0  0
  158.6530  212.3270  154.7610 C   0  0  0  0  0  0  0  0  0  0  0  0
  158.1290  214.4530  155.3060 N   0  0  0  0  0  0  0  0  0  0  0  0
  157.4620  210.6050  155.9780 N   0  0  0  0  0  2  0  0  0  0  0  0
  157.4770  212.7340  156.8670 N   0  0  0  0  0  2  0  0  0  0  0  0
  159.0540  212.9950  153.6980 C   0  0  0  0  0  3  0  0  0  0  0  0
  158.7900  214.4530  153.9960 C   0  0  0  0  0  2  0  0  0  0  0  0
  157.6560  211.3650  157.1650 N   0  0  0  0  0  2  0  0  0  0  0  0
  158.1170  213.2310  155.7020 C   0  0  0  0  0  0  0  0  0  0  0  0
  160.1980  210.5960  152.0360 O   0  0  0  0  0  0  0  0  0  0  0  0
  161.1960  209.9970  152.4060 C   0  0  0  0  0  0  0  0  0  0  0  0
  162.2810  209.6940  151.4230 C   0  0  0  0  0  2  0  0  0  0  0  0
  161.9170  210.2120  150.0400 C   0  0  0  0  0  2  0  0  0  0  0  0
  162.0540  209.1520  149.0560 N   0  0  0  0  0  2  0  0  0  0  0  0
  161.7700  207.9060  149.7450 C   0  0  0  0  0  2  0  0  0  0  0  0
  161.9330  206.7400  148.7890 C   0  0  2  0  0  3  0  0  0  0  0  0
  162.3520  207.2120  147.5440 O   0  0  0  0  0  1  0  0  0  0  0  0
  160.6000  206.0240  148.6470 C   0  0  0  0  0  2  0  0  0  0  0  0
  160.9660  201.9160  149.8180 C   0  0  0  0  0  3  0  0  0  0  0  0
  160.7280  204.2510  150.4090 C   0  0  0  0  0  3  0  0  0  0  0  0
  160.7160  204.5940  149.0540 C   0  0  0  0  0  0  0  0  0  0  0  0
  160.8330  203.5960  148.0810 C   0  0  0  0  0  3  0  0  0  0  0  0
  160.9580  202.2520  148.4560 C   0  0  0  0  0  0  0  0  0  0  0  0
  160.8520  202.9120  150.7910 C   0  0  0  0  0  3  0  0  0  0  0  0
  161.0810  201.2080  147.4270 C   0  0  0  0  0  0  0  0  0  0  0  0
  160.6090  201.4340  146.1390 O   0  0  0  0  0  0  0  0  0  0  0  0
  161.6160  200.1000  147.7020 O   0  0  0  0  0  1  0  0  0  0  0  0
  161.4270  207.3380  154.4160 C   0  0  0  0  0  2  0  0  0  0  0  0
  162.8190  206.2880  152.6640 C   0  0  0  0  0  1  0  0  0  0  0  0
  161.0460  205.1080  153.6810 F   0  0  0  0  0  0  0  0  0  0  0  0
  160.5480  206.8010  152.2730 F   0  0  0  0  0  0  0  0  0  0  0  0
  161.4250  206.3650  153.2480 C   0  0  0  0  0  0  0  0  0  0  0  0
  1 16  1  6  0  0  0
  1  3  1  0  0  0  0
  1  4  1  0  0  0  0
  2  5  1  6  0  0  0
  3 33  1  0  0  0  0
  3  5  1  0  0  0  0
  4  2  1  0  0  0  0
  6  7  1  1  0  0  0
  6  2  1  0  0  0  0
  6  9  1  0  0  0  0
  7 14  1  0  0  0  0
  8 14  2  0  0  0  0
  9 13  1  0  0  0  0
 10 13  1  0  0  0  0
 11 12  1  0  0  0  0
 11  7  2  0  0  0  0
 12  8  1  0  0  0  0
 14 10  1  0  0  0  0
 15 16  2  0  0  0  0
 17 16  1  0  0  0  0
 18 17  1  0  0  0  0
 19 20  1  0  0  0  0
 19 18  1  0  0  0  0
 21 22  1  6  0  0  0
 21 20  1  0  0  0  0
 23 21  1  0  0  0  0
 23 26  1  0  0  0  0
 24 29  1  0  0  0  0
 25 29  2  0  0  0  0
 26 25  1  0  0  0  0
 27 28  1  0  0  0  0
 27 26  2  0  0  0  0
 28 24  2  0  0  0  0
 30 32  1  0  0  0  0
 30 28  1  0  0  0  0
 31 30  2  0  0  0  0
 34 37  1  0  0  0  0
 36 37  1  0  0  0  0
 37 35  1  0  0  0  0
 37 33  1  0  0  0  0
M  END
>  <MODEL>
6

>  <REMARK>
 VINA RESULT:      -6.8      3.730      8.617
  Name = 
  12 active torsions:
  status: ('A' for Active; 'I' for Inactive)
    1  A    between atoms: C_1  and  C_27
    2  A    between atoms: C_2  and  N_8
    3  A    between atoms: C_2  and  C_35
    4  A    between atoms: C_3  and  C_4
    5  A    between atoms: C_5  and  C_32
    6  A    between atoms: C_7  and  N_15
    7  A    between atoms: C_7  and  C_26
    8  A    between atoms: C_11  and  C_18
    9  A    between atoms: C_11  and  C_29
   10  A    between atoms: N_15  and  C_18
   11  A    between atoms: C_24  and  C_29
   12  A    between atoms: C_26  and  C_27
                            x       y       z     vdW  Elec       q    Type
                         _______ _______ _______ _____ _____    ______ ____

>  <TORSDO>
F 12

$$$$
=
 OpenBabel11052410573D

 37 40  0  0  1  0  0  0  0  0999 V2000
  160.5170  210.4890  151.2920 C   0  0  2  0  0  3  0  0  0  0  0  0
  159.7180  211.3530  153.3070 C   0  0  2  0  0  3  0  0  0  0  0  0
  160.8610  211.9060  151.3050 N   0  0  0  0  0  0  0  0  0  0  0  0
  159.7860  210.1410  152.5080 N   0  0  0  0  0  2  0  0  0  0  0  0
  160.0750  212.4850  152.3770 C   0  0  0  0  0  2  0  0  0  0  0  0
  160.7230  211.2860  154.4660 C   0  0  2  0  0  3  0  0  0  0  0  0
  160.7260  209.9430  155.1270 C   0  0  0  0  0  0  0  0  0  0  0  0
  160.2490  208.6180  156.8900 N   0  0  0  0  0  0  0  0  0  0  0  0
  160.4210  212.3190  155.4850 N   0  0  0  0  0  2  0  0  0  0  0  0
  159.3900  210.8700  156.9540 N   0  0  0  0  0  2  0  0  0  0  0  0
  161.3900  208.8420  154.8370 C   0  0  0  0  0  3  0  0  0  0  0  0
  161.0840  207.8640  155.9480 C   0  0  0  0  0  2  0  0  0  0  0  0
  159.2030  212.0210  156.1570 N   0  0  0  0  0  2  0  0  0  0  0  0
  160.0500  209.7670  156.3520 C   0  0  0  0  0  0  0  0  0  0  0  0
  162.7810  209.9930  151.7570 O   0  0  0  0  0  0  0  0  0  0  0  0
  161.7560  209.6530  151.1870 C   0  0  0  0  0  0  0  0  0  0  0  0
  161.7300  208.3690  150.4210 C   0  0  0  0  0  2  0  0  0  0  0  0
  161.8140  208.6320  148.9250 C   0  0  0  0  0  2  0  0  0  0  0  0
  162.7290  207.6890  148.3020 N   0  0  0  0  0  2  0  0  0  0  0  0
  161.9630  206.9660  147.3020 C   0  0  0  0  0  2  0  0  0  0  0  0
  162.3090  205.4910  147.3570 C   0  0  2  0  0  3  0  0  0  0  0  0
  162.8670  205.0960  146.1390 O   0  0  0  0  0  1  0  0  0  0  0  0
  161.0450  204.6930  147.6280 C   0  0  0  0  0  2  0  0  0  0  0  0
  161.0610  203.0380  151.5820 C   0  0  0  0  0  3  0  0  0  0  0  0
  160.7770  202.7600  149.1950 C   0  0  0  0  0  3  0  0  0  0  0  0
  161.0610  204.1150  149.0020 C   0  0  0  0  0  0  0  0  0  0  0  0
  161.3420  204.9320  150.1020 C   0  0  0  0  0  3  0  0  0  0  0  0
  161.3440  204.4000  151.3980 C   0  0  0  0  0  0  0  0  0  0  0  0
  160.7780  202.2210  150.4850 C   0  0  0  0  0  3  0  0  0  0  0  0
  161.6400  205.2650  152.5500 C   0  0  0  0  0  0  0  0  0  0  0  0
  162.6910  206.1740  152.4930 O   0  0  0  0  0  0  0  0  0  0  0  0
  160.9440  205.1930  153.5990 O   0  0  0  0  0  1  0  0  0  0  0  0
  160.3690  212.4770  150.0600 C   0  0  0  0  0  2  0  0  0  0  0  0
  161.0470  212.2780  147.6910 C   0  0  0  0  0  1  0  0  0  0  0  0
  161.9020  213.9980  149.0630 F   0  0  0  0  0  0  0  0  0  0  0  0
  162.5850  211.8780  149.4370 F   0  0  0  0  0  0  0  0  0  0  0  0
  161.5120  212.6720  149.0760 C   0  0  0  0  0  0  0  0  0  0  0  0
  1 16  1  1  0  0  0
  1  3  1  0  0  0  0
  1  4  1  0  0  0  0
  2  5  1  6  0  0  0
  2  6  1  0  0  0  0
  3  5  1  0  0  0  0
  4  2  1  0  0  0  0
  6  7  1  1  0  0  0
  6  9  1  0  0  0  0
  7 14  1  0  0  0  0
  9 13  1  0  0  0  0
 11  7  2  0  0  0  0
 11 12  1  0  0  0  0
 12  8  1  0  0  0  0
 13 10  1  0  0  0  0
 14  8  2  0  0  0  0
 14 10  1  0  0  0  0
 16 15  2  0  0  0  0
 17 16  1  0  0  0  0
 18 17  1  0  0  0  0
 19 18  1  0  0  0  0
 20 21  1  0  0  0  0
 20 19  1  0  0  0  0
 21 22  1  6  0  0  0
 21 23  1  0  0  0  0
 23 26  1  0  0  0  0
 25 29  1  0  0  0  0
 26 25  2  0  0  0  0
 26 27  1  0  0  0  0
 27 28  2  0  0  0  0
 28 24  1  0  0  0  0
 28 30  1  0  0  0  0
 29 24  2  0  0  0  0
 30 32  1  0  0  0  0
 31 30  2  0  0  0  0
 33  3  1  0  0  0  0
 34 37  1  0  0  0  0
 35 37  1  0  0  0  0
 37 36  1  0  0  0  0
 37 33  1  0  0  0  0
M  END
>  <MODEL>
7

>  <REMARK>
 VINA RESULT:      -6.4      2.590      7.143
  Name = 
  12 active torsions:
  status: ('A' for Active; 'I' for Inactive)
    1  A    between atoms: C_1  and  C_27
    2  A    between atoms: C_2  and  N_8
    3  A    between atoms: C_2  and  C_35
    4  A    between atoms: C_3  and  C_4
    5  A    between atoms: C_5  and  C_32
    6  A    between atoms: C_7  and  N_15
    7  A    between atoms: C_7  and  C_26
    8  A    between atoms: C_11  and  C_18
    9  A    between atoms: C_11  and  C_29
   10  A    between atoms: N_15  and  C_18
   11  A    between atoms: C_24  and  C_29
   12  A    between atoms: C_26  and  C_27
                            x       y       z     vdW  Elec       q    Type
                         _______ _______ _______ _____ _____    ______ ____

>  <TORSDO>
F 12

$$$$
=
 OpenBabel11052410573D

 37 40  0  0  1  0  0  0  0  0999 V2000
  162.2260  207.2020  151.1150 C   0  0  2  0  0  3  0  0  0  0  0  0
  162.1660  206.9050  148.8010 C   0  0  2  0  0  3  0  0  0  0  0  0
  161.5260  208.3570  150.5620 N   0  0  0  0  0  0  0  0  0  0  0  0
  162.6510  206.3130  150.0370 N   0  0  0  0  0  2  0  0  0  0  0  0
  161.7960  208.3270  149.1380 C   0  0  0  0  0  2  0  0  0  0  0  0
  160.9330  206.1450  148.2930 C   0  0  2  0  0  3  0  0  0  0  0  0
  161.1180  204.6620  148.3700 C   0  0  0  0  0  0  0  0  0  0  0  0
  161.4230  202.6630  147.3680 N   0  0  0  0  0  0  0  0  0  0  0  0
  160.6280  206.5150  146.8910 N   0  0  0  0  0  2  0  0  0  0  0  0
  161.5590  204.6190  145.9640 N   0  0  0  0  0  2  0  0  0  0  0  0
  160.9020  203.8170  149.3590 C   0  0  0  0  0  3  0  0  0  0  0  0
  161.1400  202.4370  148.7900 C   0  0  0  0  0  2  0  0  0  0  0  0
  161.6340  206.0290  146.0110 N   0  0  0  0  0  2  0  0  0  0  0  0
  161.4370  203.9370  147.2020 C   0  0  0  0  0  0  0  0  0  0  0  0
  160.3330  205.8940  151.6570 O   0  0  0  0  0  0  0  0  0  0  0  0
  161.3360  206.4590  152.0640 C   0  0  0  0  0  0  0  0  0  0  0  0
  161.6990  206.3660  153.5120 C   0  0  0  0  0  2  0  0  0  0  0  0
  160.6020  206.9610  154.3820 C   0  0  0  0  0  2  0  0  0  0  0  0
  161.1430  208.0250  155.2110 N   0  0  0  0  0  2  0  0  0  0  0  0
  160.0180  208.6170  155.9140 C   0  0  0  0  0  2  0  0  0  0  0  0
  160.2470  210.1050  156.0890 C   0  0  2  0  0  3  0  0  0  0  0  0
  161.4210  210.3150  156.8170 O   0  0  0  0  0  1  0  0  0  0  0  0
  159.0660  210.7060  156.8330 C   0  0  0  0  0  2  0  0  0  0  0  0
  156.4470  212.7560  154.1280 C   0  0  0  0  0  3  0  0  0  0  0  0
  156.8020  211.5710  156.2090 C   0  0  0  0  0  3  0  0  0  0  0  0
  158.1580  211.4280  155.8980 C   0  0  0  0  0  0  0  0  0  0  0  0
  158.6550  211.9470  154.6980 C   0  0  0  0  0  3  0  0  0  0  0  0
  157.8050  212.6140  153.8070 C   0  0  0  0  0  0  0  0  0  0  0  0
  155.9470  212.2360  155.3250 C   0  0  0  0  0  3  0  0  0  0  0  0
  158.3360  213.1570  152.5470 C   0  0  0  0  0  0  0  0  0  0  0  0
  159.1930  214.2520  152.5610 O   0  0  0  0  0  1  0  0  0  0  0  0
  158.0220  212.6350  151.4430 O   0  0  0  0  0  0  0  0  0  0  0  0
  162.1770  209.5450  151.0940 C   0  0  0  0  0  2  0  0  0  0  0  0
  161.9090  210.5960  153.3160 C   0  0  0  0  0  1  0  0  0  0  0  0
  160.8740  211.5120  151.4020 F   0  0  0  0  0  0  0  0  0  0  0  0
  160.0860  209.5630  152.2280 F   0  0  0  0  0  0  0  0  0  0  0  0
  161.2230  210.3130  151.9970 C   0  0  0  0  0  0  0  0  0  0  0  0
  1 16  1  1  0  0  0
  2  5  1  1  0  0  0
  2  4  1  0  0  0  0
  3 33  1  0  0  0  0
  3  1  1  0  0  0  0
  4  1  1  0  0  0  0
  5  3  1  0  0  0  0
  6  9  1  6  0  0  0
  6  7  1  0  0  0  0
  6  2  1  0  0  0  0
  7 11  2  0  0  0  0
  8 12  1  0  0  0  0
 10 13  1  0  0  0  0
 10 14  1  0  0  0  0
 12 11  1  0  0  0  0
 13  9  1  0  0  0  0
 14  8  2  0  0  0  0
 14  7  1  0  0  0  0
 15 16  2  0  0  0  0
 16 17  1  0  0  0  0
 17 18  1  0  0  0  0
 18 19  1  0  0  0  0
 19 20  1  0  0  0  0
 20 21  1  0  0  0  0
 21 22  1  1  0  0  0
 21 23  1  0  0  0  0
 24 29  1  0  0  0  0
 26 25  1  0  0  0  0
 26 23  1  0  0  0  0
 27 26  2  0  0  0  0
 28 24  2  0  0  0  0
 28 27  1  0  0  0  0
 29 25  2  0  0  0  0
 30 31  1  0  0  0  0
 30 28  1  0  0  0  0
 32 30  2  0  0  0  0
 33 37  1  0  0  0  0
 35 37  1  0  0  0  0
 37 36  1  0  0  0  0
 37 34  1  0  0  0  0
M  END
>  <MODEL>
8

>  <REMARK>
 VINA RESULT:      -6.2      2.284      4.183
  Name = 
  12 active torsions:
  status: ('A' for Active; 'I' for Inactive)
    1  A    between atoms: C_1  and  C_27
    2  A    between atoms: C_2  and  N_8
    3  A    between atoms: C_2  and  C_35
    4  A    between atoms: C_3  and  C_4
    5  A    between atoms: C_5  and  C_32
    6  A    between atoms: C_7  and  N_15
    7  A    between atoms: C_7  and  C_26
    8  A    between atoms: C_11  and  C_18
    9  A    between atoms: C_11  and  C_29
   10  A    between atoms: N_15  and  C_18
   11  A    between atoms: C_24  and  C_29
   12  A    between atoms: C_26  and  C_27
                            x       y       z     vdW  Elec       q    Type
                         _______ _______ _______ _____ _____    ______ ____

>  <TORSDO>
F 12

$$$$
=
 OpenBabel11052410573D

 37 40  0  0  1  0  0  0  0  0999 V2000
  160.4000  210.6570  151.5740 C   0  0  2  0  0  3  0  0  0  0  0  0
  159.5090  211.4000  153.5980 C   0  0  2  0  0  3  0  0  0  0  0  0
  160.5560  212.1080  151.5920 N   0  0  0  0  0  0  0  0  0  0  0  0
  159.7290  210.2110  152.7920 N   0  0  0  0  0  2  0  0  0  0  0  0
  159.7080  212.5740  152.6720 C   0  0  0  0  0  2  0  0  0  0  0  0
  160.5210  211.4600  154.7500 C   0  0  2  0  0  3  0  0  0  0  0  0
  160.6470  210.1450  155.4540 C   0  0  0  0  0  0  0  0  0  0  0  0
  160.2980  208.8400  157.2610 N   0  0  0  0  0  0  0  0  0  0  0  0
  160.1320  212.4940  155.7390 N   0  0  0  0  0  2  0  0  0  0  0  0
  159.2410  211.0070  157.2610 N   0  0  0  0  0  2  0  0  0  0  0  0
  161.4050  209.0990  155.1930 C   0  0  0  0  0  3  0  0  0  0  0  0
  161.1930  208.1330  156.3360 C   0  0  0  0  0  2  0  0  0  0  0  0
  158.9490  212.1110  156.4290 N   0  0  0  0  0  2  0  0  0  0  0  0
  159.9940  209.9490  156.6890 C   0  0  0  0  0  0  0  0  0  0  0  0
  162.6620  210.3330  152.1770 O   0  0  0  0  0  0  0  0  0  0  0  0
  161.7370  209.9920  151.4570 C   0  0  0  0  0  0  0  0  0  0  0  0
  161.9320  208.8700  150.4880 C   0  0  0  0  0  2  0  0  0  0  0  0
  162.2870  207.5830  151.2170 C   0  0  0  0  0  2  0  0  0  0  0  0
  161.0810  206.9350  151.7040 N   0  0  0  0  0  2  0  0  0  0  0  0
  161.5060  205.9390  152.6720 C   0  0  0  0  0  2  0  0  0  0  0  0
  161.1970  204.5500  152.1510 C   0  0  2  0  0  3  0  0  0  0  0  0
  162.3610  203.9730  151.6390 O   0  0  0  0  0  1  0  0  0  0  0  0
  160.1480  204.6510  151.0570 C   0  0  0  0  0  2  0  0  0  0  0  0
  161.4680  202.6310  147.5140 C   0  0  0  0  0  3  0  0  0  0  0  0
  160.5090  202.5570  149.7340 C   0  0  0  0  0  3  0  0  0  0  0  0
  160.5960  203.9500  149.8200 C   0  0  0  0  0  0  0  0  0  0  0  0
  161.1240  204.6820  148.7520 C   0  0  0  0  0  3  0  0  0  0  0  0
  161.5620  204.0290  147.5930 C   0  0  0  0  0  0  0  0  0  0  0  0
  160.9440  201.8980  148.5810 C   0  0  0  0  0  3  0  0  0  0  0  0
  162.1170  204.8060  146.4730 C   0  0  0  0  0  0  0  0  0  0  0  0
  162.0390  206.1940  146.4770 O   0  0  0  0  0  1  0  0  0  0  0  0
  162.6670  204.2220  145.5000 O   0  0  0  0  0  0  0  0  0  0  0  0
  159.9860  212.6150  150.3540 C   0  0  0  0  0  2  0  0  0  0  0  0
  160.5390  212.9540  147.9680 C   0  0  0  0  0  1  0  0  0  0  0  0
  161.5390  214.2740  149.6500 F   0  0  0  0  0  0  0  0  0  0  0  0
  162.1390  212.1040  149.4820 F   0  0  0  0  0  0  0  0  0  0  0  0
  161.0880  212.9960  149.3780 C   0  0  0  0  0  0  0  0  0  0  0  0
  1 16  1  1  0  0  0
  1  3  1  0  0  0  0
  1  4  1  0  0  0  0
  2  5  1  6  0  0  0
  2  6  1  0  0  0  0
  3  5  1  0  0  0  0
  4  2  1  0  0  0  0
  6  7  1  1  0  0  0
  6  9  1  0  0  0  0
  7 14  1  0  0  0  0
  9 13  1  0  0  0  0
 11  7  2  0  0  0  0
 11 12  1  0  0  0  0
 12  8  1  0  0  0  0
 13 10  1  0  0  0  0
 14 10  1  0  0  0  0
 14  8  2  0  0  0  0
 16 15  2  0  0  0  0
 17 18  1  0  0  0  0
 17 16  1  0  0  0  0
 18 19  1  0  0  0  0
 19 20  1  0  0  0  0
 21 22  1  6  0  0  0
 21 20  1  0  0  0  0
 23 21  1  0  0  0  0
 24 28  2  0  0  0  0
 24 29  1  0  0  0  0
 25 26  1  0  0  0  0
 26 23  1  0  0  0  0
 27 26  2  0  0  0  0
 28 27  1  0  0  0  0
 29 25  2  0  0  0  0
 30 31  1  0  0  0  0
 30 28  1  0  0  0  0
 32 30  2  0  0  0  0
 33  3  1  0  0  0  0
 34 37  1  0  0  0  0
 37 36  1  0  0  0  0
 37 35  1  0  0  0  0
 37 33  1  0  0  0  0
M  END
>  <MODEL>
9

>  <REMARK>
 VINA RESULT:      -6.2      2.988      7.704
  Name = 
  12 active torsions:
  status: ('A' for Active; 'I' for Inactive)
    1  A    between atoms: C_1  and  C_27
    2  A    between atoms: C_2  and  N_8
    3  A    between atoms: C_2  and  C_35
    4  A    between atoms: C_3  and  C_4
    5  A    between atoms: C_5  and  C_32
    6  A    between atoms: C_7  and  N_15
    7  A    between atoms: C_7  and  C_26
    8  A    between atoms: C_11  and  C_18
    9  A    between atoms: C_11  and  C_29
   10  A    between atoms: N_15  and  C_18
   11  A    between atoms: C_24  and  C_29
   12  A    between atoms: C_26  and  C_27
                            x       y       z     vdW  Elec       q    Type
                         _______ _______ _______ _____ _____    ______ ____

>  <TORSDO>
F 12

$$$$
