=
 OpenBabel11052411243D

 41 44  0  0  1  0  0  0  0  0999 V2000
  160.3320  211.3710  151.6010 C   0  0  0  0  0  0  0  0  0  0  0  0
  159.5840  213.9890  149.5820 C   0  0  0  0  0  2  0  0  0  0  0  0
  160.5770  213.7990  150.7230 C   0  0  0  0  0  2  0  0  0  0  0  0
  162.4300  208.3760  150.7660 N   0  0  0  0  0  2  0  0  0  0  0  0
  162.7230  206.2630  151.6830 O   0  0  0  0  0  0  0  0  0  0  0  0
  161.5250  211.7390  149.4740 C   0  0  1  0  0  3  0  0  0  0  0  0
  162.2170  210.4740  149.7110 N   0  0  0  0  0  0  0  0  0  0  0  0
  161.8170  209.6670  150.6600 C   0  0  0  0  0  0  0  0  0  0  0  0
  162.1760  207.3950  151.7800 C   0  0  0  0  0  0  0  0  0  0  0  0
  161.1490  212.3790  150.8160 C   0  0  2  0  0  3  0  0  0  0  0  0
  160.1770  213.9850  148.1560 C   0  0  1  0  0  3  0  0  0  0  0  0
  160.7010  210.0850  151.5590 C   0  0  0  0  0  3  0  0  0  0  0  0
  161.6720  213.7080  148.0180 C   0  0  0  0  0  3  0  0  0  0  0  0
  162.2940  212.6670  148.5930 C   0  0  0  0  0  3  0  0  0  0  0  0
  159.3480  213.0940  147.2800 C   0  0  0  0  0  0  0  0  0  0  0  0
  158.1990  212.7220  147.6580 O   0  0  0  0  0  0  0  0  0  0  0  0
  159.8320  212.7290  145.9830 N   0  0  0  0  0  2  0  0  0  0  0  0
  158.9770  212.1430  144.9460 C   0  0  0  0  0  2  0  0  0  0  0  0
  159.4670  214.1380  141.2980 S   0  0  0  0  0  0  0  0  0  0  0  0
  159.3880  212.2720  139.3000 C   0  0  0  0  0  1  0  0  0  0  0  0
  161.1550  212.0370  141.1530 C   0  0  1  0  0  3  0  0  0  0  0  0
  160.3760  212.9820  140.2200 C   0  0  2  0  0  3  0  0  0  0  0  0
  160.4680  211.9830  142.4250 N   0  0  0  0  0  0  0  0  0  0  0  0
  159.6540  212.9660  142.6250 C   0  0  0  0  0  0  0  0  0  0  0  0
  158.8520  213.0490  143.8040 N   0  0  0  0  0  2  0  0  0  0  0  0
  161.4130  210.6390  140.6030 C   0  0  0  0  0  2  0  0  0  0  0  0
  162.1600  210.3850  138.3500 O   0  0  0  0  0  1  0  0  0  0  0  0
  162.5910  210.6670  139.6460 C   0  0  0  0  0  2  0  0  0  0  0  0
  161.3280  207.6810  152.8620 O   0  0  0  0  0  0  0  0  0  0  0  0
  161.0300  206.7080  153.8610 C   0  0  0  0  0  1  0  0  0  0  0  0
  158.8050  211.8140  152.4390 S   0  0  0  0  0  0  0  0  0  0  0  0
  159.3350  211.2160  154.0790 C   0  0  2  0  0  3  0  0  0  0  0  0
  158.1910  211.4120  155.0510 C   0  0  0  0  0  2  0  0  0  0  0  0
  158.8310  212.0050  156.2720 C   0  0  0  0  0  2  0  0  0  0  0  0
  160.2990  212.1500  155.9120 C   0  0  2  0  0  3  0  0  0  0  0  0
  160.4570  211.9470  154.5270 O   0  0  0  0  0  0  0  0  0  0  0  0
  161.1560  211.1550  156.7020 C   0  0  1  0  0  3  0  0  0  0  0  0
  160.2960  210.0270  157.2600 C   0  0  0  0  0  2  0  0  0  0  0  0
  160.6360  208.7780  156.6050 N   0  0  0  0  0  1  0  0  0  0  0  0
  163.4000  210.8580  156.0180 O   0  0  0  0  0  0  0  0  0  0  0  0
  162.2270  210.5880  155.8210 C   0  0  0  0  0  3  0  0  0  0  0  0
  1 31  1  0  0  0  0
  2  3  1  0  0  0  0
  4  9  1  0  0  0  0
  5  9  2  0  0  0  0
  6 14  1  1  0  0  0
  6  7  1  0  0  0  0
  6 10  1  0  0  0  0
  7  8  2  0  0  0  0
  8  4  1  0  0  0  0
  8 12  1  0  0  0  0
  9 29  1  0  0  0  0
 10  3  1  6  0  0  0
 10  1  1  0  0  0  0
 11 15  1  6  0  0  0
 11  2  1  0  0  0  0
 12  1  2  0  0  0  0
 13 11  1  0  0  0  0
 13 14  2  0  0  0  0
 15 16  2  0  0  0  0
 17 15  1  0  0  0  0
 18 17  1  0  0  0  0
 19 24  1  0  0  0  0
 21 26  1  6  0  0  0
 21 23  1  0  0  0  0
 22 20  1  1  0  0  0
 22 21  1  0  0  0  0
 22 19  1  0  0  0  0
 23 24  2  0  0  0  0
 24 25  1  0  0  0  0
 25 18  1  0  0  0  0
 27 28  1  0  0  0  0
 28 26  1  0  0  0  0
 29 30  1  0  0  0  0
 32 31  1  6  0  0  0
 32 36  1  0  0  0  0
 32 33  1  0  0  0  0
 33 34  1  0  0  0  0
 35 34  1  0  0  0  0
 35 37  1  1  0  0  0
 36 35  1  0  0  0  0
 37 41  1  6  0  0  0
 37 38  1  0  0  0  0
 39 38  1  0  0  0  0
 41 40  2  0  0  0  0
M  END
>  <MODEL>
1

>  <REMARK>
 VINA RESULT:      -4.9      0.000      0.000
  Name = 
  11 active torsions:
  status: ('A' for Active; 'I' for Inactive)
    1  A    between atoms: C_1  and  S_21
    2  A    between atoms: C_3  and  S_21
    3  A    between atoms: C_9  and  C_28
    4  A    between atoms: C_10  and  C_15
    5  A    between atoms: C_12  and  N_29
    6  A    between atoms: C_12  and  N_41
    7  A    between atoms: C_13  and  C_30
    8  A    between atoms: C_13  and  C_34
    9  A    between atoms: C_14  and  C_15
   10  A    between atoms: C_15  and  C_26
   11  A    between atoms: C_24  and  O_35
                            x       y       z     vdW  Elec       q    Type
                         _______ _______ _______ _____ _____    ______ ____

>  <TORSDO>
F 11

$$$$
=
 OpenBabel11052411243D

 41 44  0  0  1  0  0  0  0  0999 V2000
  158.1280  213.4440  147.6580 C   0  0  0  0  0  0  0  0  0  0  0  0
  161.2900  212.6390  146.7390 C   0  0  0  0  0  2  0  0  0  0  0  0
  160.4530  213.9060  146.6050 C   0  0  0  0  0  2  0  0  0  0  0  0
  156.9120  214.3420  151.0910 N   0  0  0  0  0  2  0  0  0  0  0  0
  154.8360  214.4510  152.1260 O   0  0  0  0  0  0  0  0  0  0  0  0
  160.0450  213.8310  149.1610 C   0  0  1  0  0  3  0  0  0  0  0  0
  159.0850  214.2500  150.1810 N   0  0  0  0  0  0  0  0  0  0  0  0
  157.8050  214.0480  150.0080 C   0  0  0  0  0  0  0  0  0  0  0  0
  155.4820  214.2550  151.0600 C   0  0  0  0  0  0  0  0  0  0  0  0
  159.4770  214.1290  147.7670 C   0  0  2  0  0  3  0  0  0  0  0  0
  162.3800  212.6540  147.8330 C   0  0  1  0  0  3  0  0  0  0  0  0
  157.3180  213.4650  148.7230 C   0  0  0  0  0  3  0  0  0  0  0  0
  162.4590  213.8890  148.7270 C   0  0  0  0  0  3  0  0  0  0  0  0
  161.4020  214.4190  149.3630 C   0  0  0  0  0  3  0  0  0  0  0  0
  162.3030  211.3820  148.6230 C   0  0  0  0  0  0  0  0  0  0  0  0
  161.9250  211.4060  149.8320 O   0  0  0  0  0  0  0  0  0  0  0  0
  162.5850  210.1340  147.9820 N   0  0  0  0  0  2  0  0  0  0  0  0
  162.2290  208.8360  148.5660 C   0  0  0  0  0  2  0  0  0  0  0  0
  160.9660  208.1950  152.5050 S   0  0  0  0  0  0  0  0  0  0  0  0
  162.2300  205.9590  153.4430 C   0  0  0  0  0  1  0  0  0  0  0  0
  160.7750  205.7730  151.3310 C   0  0  1  0  0  3  0  0  0  0  0  0
  160.9500  206.3860  152.7330 C   0  0  2  0  0  3  0  0  0  0  0  0
  161.2780  206.7150  150.3550 N   0  0  0  0  0  0  0  0  0  0  0  0
  161.3770  207.9250  150.7940 C   0  0  0  0  0  0  0  0  0  0  0  0
  161.9030  208.9770  149.9850 N   0  0  0  0  0  2  0  0  0  0  0  0
  161.3930  204.3930  151.1380 C   0  0  0  0  0  2  0  0  0  0  0  0
  160.1950  202.6030  150.1080 O   0  0  0  0  0  1  0  0  0  0  0  0
  160.8970  203.7790  149.8420 C   0  0  0  0  0  2  0  0  0  0  0  0
  154.8030  213.9490  149.8690 O   0  0  0  0  0  0  0  0  0  0  0  0
  153.4970  214.4520  149.5970 C   0  0  0  0  0  1  0  0  0  0  0  0
  157.6560  212.4730  146.2210 S   0  0  0  0  0  0  0  0  0  0  0  0
  158.5180  213.5350  145.0130 C   0  0  2  0  0  3  0  0  0  0  0  0
  157.4980  214.4530  144.3720 C   0  0  0  0  0  2  0  0  0  0  0  0
  157.8130  214.4010  142.9050 C   0  0  0  0  0  2  0  0  0  0  0  0
  158.9710  213.4250  142.7900 C   0  0  2  0  0  3  0  0  0  0  0  0
  159.1260  212.7450  144.0140 O   0  0  0  0  0  0  0  0  0  0  0  0
  160.2650  214.1550  142.4120 C   0  0  1  0  0  3  0  0  0  0  0  0
  161.4690  213.4980  143.0790 C   0  0  0  0  0  2  0  0  0  0  0  0
  162.0600  212.5270  142.1790 N   0  0  0  0  0  1  0  0  0  0  0  0
  159.8730  213.3150  140.2370 O   0  0  0  0  0  0  0  0  0  0  0  0
  160.4420  214.1470  140.9240 C   0  0  0  0  0  3  0  0  0  0  0  0
  1 10  1  0  0  0  0
  1 12  2  0  0  0  0
  2 11  1  0  0  0  0
  3  2  1  0  0  0  0
  6 14  1  1  0  0  0
  6  7  1  0  0  0  0
  8  7  2  0  0  0  0
  8  4  1  0  0  0  0
  9  4  1  0  0  0  0
  9  5  2  0  0  0  0
 10  3  1  6  0  0  0
 10  6  1  0  0  0  0
 11 15  1  1  0  0  0
 11 13  1  0  0  0  0
 12  8  1  0  0  0  0
 13 14  2  0  0  0  0
 15 16  2  0  0  0  0
 17 18  1  0  0  0  0
 17 15  1  0  0  0  0
 18 25  1  0  0  0  0
 19 22  1  0  0  0  0
 21 26  1  1  0  0  0
 21 22  1  0  0  0  0
 22 20  1  6  0  0  0
 23 24  2  0  0  0  0
 23 21  1  0  0  0  0
 24 19  1  0  0  0  0
 25 24  1  0  0  0  0
 28 27  1  0  0  0  0
 28 26  1  0  0  0  0
 29  9  1  0  0  0  0
 30 29  1  0  0  0  0
 31  1  1  0  0  0  0
 32 31  1  1  0  0  0
 33 32  1  0  0  0  0
 34 33  1  0  0  0  0
 35 37  1  1  0  0  0
 35 34  1  0  0  0  0
 35 36  1  0  0  0  0
 36 32  1  0  0  0  0
 37 41  1  6  0  0  0
 37 38  1  0  0  0  0
 39 38  1  0  0  0  0
 40 41  2  0  0  0  0
M  END
>  <MODEL>
2

>  <REMARK>
 VINA RESULT:      -3.4      3.838     10.093
  Name = 
  11 active torsions:
  status: ('A' for Active; 'I' for Inactive)
    1  A    between atoms: C_1  and  S_21
    2  A    between atoms: C_3  and  S_21
    3  A    between atoms: C_9  and  C_28
    4  A    between atoms: C_10  and  C_15
    5  A    between atoms: C_12  and  N_29
    6  A    between atoms: C_12  and  N_41
    7  A    between atoms: C_13  and  C_30
    8  A    between atoms: C_13  and  C_34
    9  A    between atoms: C_14  and  C_15
   10  A    between atoms: C_15  and  C_26
   11  A    between atoms: C_24  and  O_35
                            x       y       z     vdW  Elec       q    Type
                         _______ _______ _______ _____ _____    ______ ____

>  <TORSDO>
F 11

$$$$
=
 OpenBabel11052411243D

 41 44  0  0  1  0  0  0  0  0999 V2000
  161.5990  207.8190  153.2880 C   0  0  0  0  0  0  0  0  0  0  0  0
  160.2330  208.4050  156.3340 C   0  0  0  0  0  2  0  0  0  0  0  0
  161.6690  208.3280  155.8310 C   0  0  0  0  0  2  0  0  0  0  0  0
  161.9070  210.2260  150.4280 N   0  0  0  0  0  2  0  0  0  0  0  0
  162.3070  210.0320  148.1480 O   0  0  0  0  0  0  0  0  0  0  0  0
  161.0740  210.1060  154.0460 C   0  0  1  0  0  3  0  0  0  0  0  0
  161.4660  210.5740  152.7170 N   0  0  0  0  0  0  0  0  0  0  0  0
  161.6640  209.7200  151.7470 C   0  0  0  0  0  0  0  0  0  0  0  0
  162.2170  209.4500  149.2630 C   0  0  0  0  0  0  0  0  0  0  0  0
  161.8490  208.8290  154.3920 C   0  0  2  0  0  3  0  0  0  0  0  0
  159.6830  209.8220  156.6120 C   0  0  1  0  0  3  0  0  0  0  0  0
  161.5710  208.2560  152.0230 C   0  0  0  0  0  3  0  0  0  0  0  0
  160.5900  211.0040  156.2770 C   0  0  0  0  0  3  0  0  0  0  0  0
  161.2070  211.1590  155.0960 C   0  0  0  0  0  3  0  0  0  0  0  0
  158.3230  209.9530  155.9940 C   0  0  0  0  0  0  0  0  0  0  0  0
  157.9890  209.2050  155.0290 O   0  0  0  0  0  0  0  0  0  0  0  0
  157.3790  210.8730  156.5510 N   0  0  0  0  0  2  0  0  0  0  0  0
  155.9480  210.8430  156.2320 C   0  0  0  0  0  2  0  0  0  0  0  0
  155.6590  214.4530  154.1320 S   0  0  0  0  0  0  0  0  0  0  0  0
  156.0260  213.9140  151.4760 C   0  0  0  0  0  1  0  0  0  0  0  0
  157.8740  213.2700  153.1430 C   0  0  1  0  0  3  0  0  0  0  0  0
  156.8090  214.3010  152.7260 C   0  0  2  0  0  3  0  0  0  0  0  0
  157.2960  212.3950  154.1400 N   0  0  0  0  0  0  0  0  0  0  0  0
  156.2430  212.8740  154.7130 C   0  0  0  0  0  0  0  0  0  0  0  0
  155.5100  212.1270  155.6850 N   0  0  0  0  0  2  0  0  0  0  0  0
  158.4990  212.4750  152.0030 C   0  0  0  0  0  2  0  0  0  0  0  0
  159.8190  213.1750  150.1400 O   0  0  0  0  0  1  0  0  0  0  0  0
  159.7740  213.1530  151.5340 C   0  0  0  0  0  2  0  0  0  0  0  0
  162.4090  208.0610  149.3530 O   0  0  0  0  0  0  0  0  0  0  0  0
  162.3060  207.2120  148.2120 C   0  0  0  0  0  1  0  0  0  0  0  0
  161.1790  206.1060  153.6300 S   0  0  0  0  0  0  0  0  0  0  0  0
  161.4740  205.5190  151.9270 C   0  0  2  0  0  3  0  0  0  0  0  0
  160.5700  206.2950  150.9920 C   0  0  0  0  0  2  0  0  0  0  0  0
  159.9850  205.2540  150.0820 C   0  0  0  0  0  2  0  0  0  0  0  0
  160.5610  203.9380  150.5760 C   0  0  2  0  0  3  0  0  0  0  0  0
  161.1770  204.1430  151.8260 O   0  0  0  0  0  0  0  0  0  0  0  0
  161.5650  203.3680  149.5680 C   0  0  1  0  0  3  0  0  0  0  0  0
  161.5230  201.8440  149.5690 C   0  0  0  0  0  2  0  0  0  0  0  0
  160.3240  201.3850  150.2430 N   0  0  0  0  0  1  0  0  0  0  0  0
  162.0920  203.8050  147.3050 O   0  0  0  0  0  0  0  0  0  0  0  0
  161.2600  203.8840  148.1950 C   0  0  0  0  0  3  0  0  0  0  0  0
  1 31  1  0  0  0  0
  1 10  1  0  0  0  0
  2 11  1  0  0  0  0
  3  2  1  0  0  0  0
  4  8  1  0  0  0  0
  5  9  2  0  0  0  0
  6 10  1  0  0  0  0
  6 14  1  1  0  0  0
  7  6  1  0  0  0  0
  8 12  1  0  0  0  0
  8  7  2  0  0  0  0
  9 29  1  0  0  0  0
  9  4  1  0  0  0  0
 10  3  1  1  0  0  0
 11 15  1  6  0  0  0
 12  1  2  0  0  0  0
 13 11  1  0  0  0  0
 14 13  2  0  0  0  0
 15 17  1  0  0  0  0
 16 15  2  0  0  0  0
 18 17  1  0  0  0  0
 19 24  1  0  0  0  0
 21 26  1  6  0  0  0
 21 23  1  0  0  0  0
 22 20  1  6  0  0  0
 22 21  1  0  0  0  0
 22 19  1  0  0  0  0
 23 24  2  0  0  0  0
 24 25  1  0  0  0  0
 25 18  1  0  0  0  0
 27 28  1  0  0  0  0
 28 26  1  0  0  0  0
 30 29  1  0  0  0  0
 32 31  1  1  0  0  0
 33 32  1  0  0  0  0
 34 35  1  0  0  0  0
 34 33  1  0  0  0  0
 35 37  1  6  0  0  0
 35 36  1  0  0  0  0
 36 32  1  0  0  0  0
 37 41  1  6  0  0  0
 37 38  1  0  0  0  0
 38 39  1  0  0  0  0
 40 41  2  0  0  0  0
M  END
>  <MODEL>
3

>  <REMARK>
 VINA RESULT:      -3.2      5.386      9.175
  Name = 
  11 active torsions:
  status: ('A' for Active; 'I' for Inactive)
    1  A    between atoms: C_1  and  S_21
    2  A    between atoms: C_3  and  S_21
    3  A    between atoms: C_9  and  C_28
    4  A    between atoms: C_10  and  C_15
    5  A    between atoms: C_12  and  N_29
    6  A    between atoms: C_12  and  N_41
    7  A    between atoms: C_13  and  C_30
    8  A    between atoms: C_13  and  C_34
    9  A    between atoms: C_14  and  C_15
   10  A    between atoms: C_15  and  C_26
   11  A    between atoms: C_24  and  O_35
                            x       y       z     vdW  Elec       q    Type
                         _______ _______ _______ _____ _____    ______ ____

>  <TORSDO>
F 11

$$$$
=
 OpenBabel11052411243D

 41 44  0  0  1  0  0  0  0  0999 V2000
  158.0830  213.3940  147.7560 C   0  0  0  0  0  0  0  0  0  0  0  0
  161.2350  212.5100  146.8750 C   0  0  0  0  0  2  0  0  0  0  0  0
  160.4360  213.8010  146.7410 C   0  0  0  0  0  2  0  0  0  0  0  0
  156.8420  214.2940  151.1790 N   0  0  0  0  0  2  0  0  0  0  0  0
  154.7550  214.4520  152.1850 O   0  0  0  0  0  0  0  0  0  0  0  0
  159.9870  213.7140  149.2900 C   0  0  1  0  0  3  0  0  0  0  0  0
  159.0250  214.1500  150.3000 N   0  0  0  0  0  0  0  0  0  0  0  0
  157.7420  213.9850  150.1070 C   0  0  0  0  0  0  0  0  0  0  0  0
  155.4100  214.2480  151.1270 C   0  0  0  0  0  0  0  0  0  0  0  0
  159.4490  214.0400  147.8920 C   0  0  2  0  0  3  0  0  0  0  0  0
  162.3090  212.4850  147.9860 C   0  0  1  0  0  3  0  0  0  0  0  0
  157.2580  213.4280  148.8090 C   0  0  0  0  0  3  0  0  0  0  0  0
  162.4080  213.7090  148.8920 C   0  0  0  0  0  3  0  0  0  0  0  0
  161.3580  214.2620  149.5180 C   0  0  0  0  0  3  0  0  0  0  0  0
  162.1850  211.2080  148.7620 C   0  0  0  0  0  0  0  0  0  0  0  0
  161.7790  211.2300  149.9620 O   0  0  0  0  0  0  0  0  0  0  0  0
  162.4540  209.9600  148.1170 N   0  0  0  0  0  2  0  0  0  0  0  0
  162.0560  208.6650  148.6810 C   0  0  0  0  0  2  0  0  0  0  0  0
  162.6990  204.9250  146.9140 S   0  0  0  0  0  0  0  0  0  0  0  0
  160.3830  203.4850  147.1250 C   0  0  0  0  0  1  0  0  0  0  0  0
  161.5000  204.3650  149.2670 C   0  0  1  0  0  3  0  0  0  0  0  0
  161.6880  203.7460  147.8700 C   0  0  2  0  0  3  0  0  0  0  0  0
  161.6270  205.8020  149.1500 N   0  0  0  0  0  0  0  0  0  0  0  0
  162.2240  206.1910  148.0730 C   0  0  0  0  0  0  0  0  0  0  0  0
  162.3910  207.5750  147.7650 N   0  0  0  0  0  2  0  0  0  0  0  0
  160.2130  203.9800  149.9860 C   0  0  0  0  0  2  0  0  0  0  0  0
  160.7050  201.6440  150.0200 O   0  0  0  0  0  1  0  0  0  0  0  0
  160.4440  202.7440  150.8370 C   0  0  0  0  0  2  0  0  0  0  0  0
  154.7420  213.9710  149.9230 O   0  0  0  0  0  0  0  0  0  0  0  0
  153.4240  214.4530  149.6660 C   0  0  0  0  0  1  0  0  0  0  0  0
  157.6070  212.4500  146.3030 S   0  0  0  0  0  0  0  0  0  0  0  0
  158.5660  213.4620  145.1260 C   0  0  2  0  0  3  0  0  0  0  0  0
  157.6260  214.4530  144.4720 C   0  0  0  0  0  2  0  0  0  0  0  0
  157.9700  214.3930  143.0120 C   0  0  0  0  0  2  0  0  0  0  0  0
  159.0610  213.3410  142.9120 C   0  0  2  0  0  3  0  0  0  0  0  0
  159.1410  212.6410  144.1320 O   0  0  0  0  0  0  0  0  0  0  0  0
  160.4100  213.9830  142.5710 C   0  0  1  0  0  3  0  0  0  0  0  0
  161.5550  213.2100  143.2160 C   0  0  0  0  0  2  0  0  0  0  0  0
  162.7300  214.0560  143.3090 N   0  0  0  0  0  1  0  0  0  0  0  0
  161.1500  213.0990  140.5060 O   0  0  0  0  0  0  0  0  0  0  0  0
  160.5980  214.0210  141.0850 C   0  0  0  0  0  3  0  0  0  0  0  0
  1 10  1  0  0  0  0
  1 12  2  0  0  0  0
  2 11  1  0  0  0  0
  3  2  1  0  0  0  0
  6 14  1  1  0  0  0
  6  7  1  0  0  0  0
  8  7  2  0  0  0  0
  8  4  1  0  0  0  0
  9  4  1  0  0  0  0
  9  5  2  0  0  0  0
 10  3  1  6  0  0  0
 10  6  1  0  0  0  0
 11 15  1  1  0  0  0
 11 13  1  0  0  0  0
 12  8  1  0  0  0  0
 13 14  2  0  0  0  0
 15 16  2  0  0  0  0
 17 18  1  0  0  0  0
 17 15  1  0  0  0  0
 19 22  1  0  0  0  0
 19 24  1  0  0  0  0
 21 26  1  6  0  0  0
 22 20  1  6  0  0  0
 22 21  1  0  0  0  0
 23 21  1  0  0  0  0
 24 23  2  0  0  0  0
 25 24  1  0  0  0  0
 25 18  1  0  0  0  0
 26 28  1  0  0  0  0
 27 28  1  0  0  0  0
 29  9  1  0  0  0  0
 30 29  1  0  0  0  0
 31  1  1  0  0  0  0
 32 31  1  1  0  0  0
 33 32  1  0  0  0  0
 34 33  1  0  0  0  0
 35 37  1  1  0  0  0
 35 34  1  0  0  0  0
 35 36  1  0  0  0  0
 36 32  1  0  0  0  0
 37 41  1  6  0  0  0
 37 38  1  0  0  0  0
 38 39  1  0  0  0  0
 40 41  2  0  0  0  0
M  END
>  <MODEL>
4

>  <REMARK>
 VINA RESULT:      -2.9      4.361      9.758
  Name = 
  11 active torsions:
  status: ('A' for Active; 'I' for Inactive)
    1  A    between atoms: C_1  and  S_21
    2  A    between atoms: C_3  and  S_21
    3  A    between atoms: C_9  and  C_28
    4  A    between atoms: C_10  and  C_15
    5  A    between atoms: C_12  and  N_29
    6  A    between atoms: C_12  and  N_41
    7  A    between atoms: C_13  and  C_30
    8  A    between atoms: C_13  and  C_34
    9  A    between atoms: C_14  and  C_15
   10  A    between atoms: C_15  and  C_26
   11  A    between atoms: C_24  and  O_35
                            x       y       z     vdW  Elec       q    Type
                         _______ _______ _______ _____ _____    ______ ____

>  <TORSDO>
F 11

$$$$
=
 OpenBabel11052411243D

 41 44  0  0  1  0  0  0  0  0999 V2000
  160.9600  211.5570  151.2500 C   0  0  0  0  0  0  0  0  0  0  0  0
  162.7530  208.7710  150.5350 C   0  0  0  0  0  2  0  0  0  0  0  0
  162.9040  209.8710  151.5790 C   0  0  0  0  0  2  0  0  0  0  0  0
  157.7190  211.7600  153.1270 N   0  0  0  0  0  2  0  0  0  0  0  0
  156.0450  213.3530  153.3540 O   0  0  0  0  0  0  0  0  0  0  0  0
  160.4750  209.3980  152.3380 C   0  0  1  0  0  3  0  0  0  0  0  0
  159.3250  210.0410  152.9720 N   0  0  0  0  0  0  0  0  0  0  0  0
  158.9330  211.2270  152.5820 C   0  0  0  0  0  0  0  0  0  0  0  0
  157.1760  213.0630  152.8780 C   0  0  0  0  0  0  0  0  0  0  0  0
  161.5690  210.4400  152.0760 C   0  0  2  0  0  3  0  0  0  0  0  0
  162.2090  207.4180  151.0450 C   0  0  1  0  0  3  0  0  0  0  0  0
  159.7170  211.9580  151.5440 C   0  0  0  0  0  3  0  0  0  0  0  0
  161.7950  207.3370  152.5120 C   0  0  0  0  0  3  0  0  0  0  0  0
  160.9780  208.2200  153.1070 C   0  0  0  0  0  3  0  0  0  0  0  0
  161.1300  206.9410  150.1190 C   0  0  0  0  0  0  0  0  0  0  0  0
  160.1160  206.3390  150.5820 O   0  0  0  0  0  0  0  0  0  0  0  0
  161.2160  207.2360  148.7220 N   0  0  0  0  0  2  0  0  0  0  0  0
  160.0790  207.1010  147.8050 C   0  0  0  0  0  2  0  0  0  0  0  0
  161.5220  204.3520  144.9970 S   0  0  0  0  0  0  0  0  0  0  0  0
  160.2340  201.9740  145.4060 C   0  0  0  0  0  1  0  0  0  0  0  0
  161.5710  203.0140  147.3410 C   0  0  1  0  0  3  0  0  0  0  0  0
  161.4890  202.7300  145.8290 C   0  0  2  0  0  3  0  0  0  0  0  0
  161.0510  204.3420  147.5840 N   0  0  0  0  0  0  0  0  0  0  0  0
  161.0150  205.0930  146.5340 C   0  0  0  0  0  0  0  0  0  0  0  0
  160.4820  206.4180  146.5760 N   0  0  0  0  0  2  0  0  0  0  0  0
  160.8980  201.9830  148.2380 C   0  0  0  0  0  2  0  0  0  0  0  0
  160.7110  201.5220  150.5740 O   0  0  0  0  0  1  0  0  0  0  0  0
  160.7110  202.5520  149.6330 C   0  0  0  0  0  2  0  0  0  0  0  0
  157.8820  214.0030  152.1090 O   0  0  0  0  0  0  0  0  0  0  0  0
  159.1840  214.4520  152.4790 C   0  0  0  0  0  1  0  0  0  0  0  0
  161.7760  212.2350  149.8000 S   0  0  0  0  0  0  0  0  0  0  0  0
  160.2380  212.5350  148.8670 C   0  0  2  0  0  3  0  0  0  0  0  0
  160.4540  212.0950  147.4350 C   0  0  0  0  0  2  0  0  0  0  0  0
  159.8820  213.2090  146.6070 C   0  0  0  0  0  2  0  0  0  0  0  0
  159.4060  214.2390  147.6160 C   0  0  2  0  0  3  0  0  0  0  0  0
  159.9140  213.9090  148.8880 O   0  0  0  0  0  0  0  0  0  0  0  0
  157.8750  214.3060  147.6480 C   0  0  1  0  0  3  0  0  0  0  0  0
  157.2810  213.6640  146.3990 C   0  0  0  0  0  2  0  0  0  0  0  0
  156.1590  214.4530  145.9270 N   0  0  0  0  0  1  0  0  0  0  0  0
  156.7800  212.5400  148.7770 O   0  0  0  0  0  0  0  0  0  0  0  0
  157.3580  213.6110  148.8710 C   0  0  0  0  0  3  0  0  0  0  0  0
  1 12  2  0  0  0  0
  1 10  1  0  0  0  0
  2 11  1  0  0  0  0
  2  3  1  0  0  0  0
  6  7  1  0  0  0  0
  6 14  1  1  0  0  0
  8  7  2  0  0  0  0
  8  4  1  0  0  0  0
  9  4  1  0  0  0  0
  9  5  2  0  0  0  0
 10  3  1  6  0  0  0
 10  6  1  0  0  0  0
 11 15  1  6  0  0  0
 11 13  1  0  0  0  0
 12  8  1  0  0  0  0
 13 14  2  0  0  0  0
 15 16  2  0  0  0  0
 17 15  1  0  0  0  0
 18 17  1  0  0  0  0
 19 22  1  0  0  0  0
 19 24  1  0  0  0  0
 21 23  1  0  0  0  0
 21 26  1  1  0  0  0
 22 20  1  1  0  0  0
 22 21  1  0  0  0  0
 24 25  1  0  0  0  0
 24 23  2  0  0  0  0
 25 18  1  0  0  0  0
 26 28  1  0  0  0  0
 28 27  1  0  0  0  0
 29 30  1  0  0  0  0
 29  9  1  0  0  0  0
 31  1  1  0  0  0  0
 32 36  1  0  0  0  0
 32 31  1  1  0  0  0
 33 32  1  0  0  0  0
 34 33  1  0  0  0  0
 34 35  1  0  0  0  0
 35 37  1  1  0  0  0
 35 36  1  0  0  0  0
 37 38  1  6  0  0  0
 37 41  1  0  0  0  0
 39 38  1  0  0  0  0
 40 41  2  0  0  0  0
M  END
>  <MODEL>
5

>  <REMARK>
 VINA RESULT:      -2.6      4.416      8.465
  Name = 
  11 active torsions:
  status: ('A' for Active; 'I' for Inactive)
    1  A    between atoms: C_1  and  S_21
    2  A    between atoms: C_3  and  S_21
    3  A    between atoms: C_9  and  C_28
    4  A    between atoms: C_10  and  C_15
    5  A    between atoms: C_12  and  N_29
    6  A    between atoms: C_12  and  N_41
    7  A    between atoms: C_13  and  C_30
    8  A    between atoms: C_13  and  C_34
    9  A    between atoms: C_14  and  C_15
   10  A    between atoms: C_15  and  C_26
   11  A    between atoms: C_24  and  O_35
                            x       y       z     vdW  Elec       q    Type
                         _______ _______ _______ _____ _____    ______ ____

>  <TORSDO>
F 11

$$$$
=
 OpenBabel11052411243D

 41 44  0  0  1  0  0  0  0  0999 V2000
  159.1510  212.3190  155.5100 C   0  0  0  0  0  0  0  0  0  0  0  0
  161.9480  210.7500  154.4120 C   0  0  0  0  0  2  0  0  0  0  0  0
  161.5760  211.4230  155.7280 C   0  0  0  0  0  2  0  0  0  0  0  0
  155.9720  210.7330  156.7100 N   0  0  0  0  0  2  0  0  0  0  0  0
  153.7910  211.4600  157.0410 O   0  0  0  0  0  0  0  0  0  0  0  0
  159.4860  209.8980  155.8440 C   0  0  1  0  0  3  0  0  0  0  0  0
  158.1340  209.8470  156.3980 N   0  0  0  0  0  0  0  0  0  0  0  0
  157.3320  210.8740  156.2820 C   0  0  0  0  0  0  0  0  0  0  0  0
  154.9760  211.7630  156.7310 C   0  0  0  0  0  0  0  0  0  0  0  0
  160.0930  211.2840  156.0960 C   0  0  2  0  0  3  0  0  0  0  0  0
  161.9500  209.2050  154.4140 C   0  0  1  0  0  3  0  0  0  0  0  0
  157.8340  212.1340  155.6590 C   0  0  0  0  0  3  0  0  0  0  0  0
  161.4990  208.5040  155.6920 C   0  0  0  0  0  3  0  0  0  0  0  0
  160.3600  208.7930  156.3390 C   0  0  0  0  0  3  0  0  0  0  0  0
  161.2170  208.7100  153.2020 C   0  0  0  0  0  0  0  0  0  0  0  0
  160.2160  209.3480  152.7620 O   0  0  0  0  0  0  0  0  0  0  0  0
  161.7010  207.5590  152.5040 N   0  0  0  0  0  2  0  0  0  0  0  0
  161.2570  207.1970  151.1540 C   0  0  0  0  0  2  0  0  0  0  0  0
  160.2220  203.3430  149.8890 S   0  0  0  0  0  0  0  0  0  0  0  0
  162.1330  202.4920  148.1270 C   0  0  0  0  0  1  0  0  0  0  0  0
  160.8430  204.6570  147.6150 C   0  0  1  0  0  3  0  0  0  0  0  0
  160.7920  203.2180  148.1620 C   0  0  2  0  0  3  0  0  0  0  0  0
  161.0240  205.5620  148.7290 N   0  0  0  0  0  0  0  0  0  0  0  0
  160.7200  205.0520  149.8760 C   0  0  0  0  0  0  0  0  0  0  0  0
  160.8860  205.7830  151.0920 N   0  0  0  0  0  2  0  0  0  0  0  0
  161.8780  204.9070  146.5250 C   0  0  0  0  0  2  0  0  0  0  0  0
  161.6770  205.7350  144.2950 O   0  0  0  0  0  1  0  0  0  0  0  0
  161.2450  204.7280  145.1570 C   0  0  0  0  0  2  0  0  0  0  0  0
  155.3030  213.0890  156.4030 O   0  0  0  0  0  0  0  0  0  0  0  0
  154.3020  214.0590  156.1040 C   0  0  0  0  0  1  0  0  0  0  0  0
  159.7330  213.6790  154.4900 S   0  0  0  0  0  0  0  0  0  0  0  0
  158.8460  213.1500  152.9860 C   0  0  2  0  0  3  0  0  0  0  0  0
  159.8520  212.5530  152.0240 C   0  0  0  0  0  2  0  0  0  0  0  0
  159.5070  213.1570  150.6940 C   0  0  0  0  0  2  0  0  0  0  0  0
  158.3470  214.0950  150.9810 C   0  0  2  0  0  3  0  0  0  0  0  0
  158.2180  214.2560  152.3750 O   0  0  0  0  0  0  0  0  0  0  0  0
  157.0450  213.5540  150.3790 C   0  0  1  0  0  3  0  0  0  0  0  0
  155.8470  214.3570  150.8740 C   0  0  0  0  0  2  0  0  0  0  0  0
  155.2370  213.6840  152.0050 N   0  0  0  0  0  1  0  0  0  0  0  0
  157.0230  212.5890  148.2210 O   0  0  0  0  0  0  0  0  0  0  0  0
  157.1100  213.6100  148.8840 C   0  0  0  0  0  3  0  0  0  0  0  0
  1 12  2  0  0  0  0
  1 10  1  0  0  0  0
  2 11  1  0  0  0  0
  2  3  1  0  0  0  0
  4  9  1  0  0  0  0
  6 10  1  0  0  0  0
  6 14  1  1  0  0  0
  6  7  1  0  0  0  0
  8  7  2  0  0  0  0
  8  4  1  0  0  0  0
  9  5  2  0  0  0  0
 10  3  1  6  0  0  0
 11 15  1  6  0  0  0
 11 13  1  0  0  0  0
 12  8  1  0  0  0  0
 13 14  2  0  0  0  0
 16 15  2  0  0  0  0
 17 15  1  0  0  0  0
 18 17  1  0  0  0  0
 21 26  1  6  0  0  0
 21 22  1  0  0  0  0
 21 23  1  0  0  0  0
 22 20  1  1  0  0  0
 22 19  1  0  0  0  0
 23 24  2  0  0  0  0
 24 19  1  0  0  0  0
 24 25  1  0  0  0  0
 25 18  1  0  0  0  0
 27 28  1  0  0  0  0
 28 26  1  0  0  0  0
 29  9  1  0  0  0  0
 30 29  1  0  0  0  0
 31  1  1  0  0  0  0
 32 31  1  1  0  0  0
 33 32  1  0  0  0  0
 34 35  1  0  0  0  0
 34 33  1  0  0  0  0
 35 37  1  1  0  0  0
 35 36  1  0  0  0  0
 36 32  1  0  0  0  0
 37 41  1  6  0  0  0
 37 38  1  0  0  0  0
 38 39  1  0  0  0  0
 40 41  2  0  0  0  0
M  END
>  <MODEL>
6

>  <REMARK>
 VINA RESULT:      -2.5      5.106      8.433
  Name = 
  11 active torsions:
  status: ('A' for Active; 'I' for Inactive)
    1  A    between atoms: C_1  and  S_21
    2  A    between atoms: C_3  and  S_21
    3  A    between atoms: C_9  and  C_28
    4  A    between atoms: C_10  and  C_15
    5  A    between atoms: C_12  and  N_29
    6  A    between atoms: C_12  and  N_41
    7  A    between atoms: C_13  and  C_30
    8  A    between atoms: C_13  and  C_34
    9  A    between atoms: C_14  and  C_15
   10  A    between atoms: C_15  and  C_26
   11  A    between atoms: C_24  and  O_35
                            x       y       z     vdW  Elec       q    Type
                         _______ _______ _______ _____ _____    ______ ____

>  <TORSDO>
F 11

$$$$
=
 OpenBabel11052411243D

 41 44  0  0  1  0  0  0  0  0999 V2000
  160.4980  210.9710  154.7530 C   0  0  0  0  0  0  0  0  0  0  0  0
  162.2010  208.0800  155.2320 C   0  0  0  0  0  2  0  0  0  0  0  0
  161.9370  209.2950  156.1130 C   0  0  0  0  0  2  0  0  0  0  0  0
  156.7820  211.4710  154.8720 N   0  0  0  0  0  2  0  0  0  0  0  0
  155.3180  213.1160  154.1350 O   0  0  0  0  0  0  0  0  0  0  0  0
  159.4030  208.9700  155.6940 C   0  0  1  0  0  3  0  0  0  0  0  0
  158.1440  209.7120  155.6520 N   0  0  0  0  0  0  0  0  0  0  0  0
  158.0660  210.8490  155.0100 C   0  0  0  0  0  0  0  0  0  0  0  0
  156.5160  212.7460  154.2720 C   0  0  0  0  0  0  0  0  0  0  0  0
  160.5710  209.9490  155.8720 C   0  0  2  0  0  3  0  0  0  0  0  0
  161.3830  206.8110  155.5580 C   0  0  1  0  0  3  0  0  0  0  0  0
  159.2940  211.4320  154.3930 C   0  0  0  0  0  3  0  0  0  0  0  0
  160.3340  206.9180  156.6620 C   0  0  0  0  0  3  0  0  0  0  0  0
  159.4050  207.8840  156.7180 C   0  0  0  0  0  3  0  0  0  0  0  0
  160.8190  206.2490  154.2870 C   0  0  0  0  0  0  0  0  0  0  0  0
  159.6100  206.4660  153.9780 O   0  0  0  0  0  0  0  0  0  0  0  0
  161.6730  205.5310  153.3920 N   0  0  0  0  0  2  0  0  0  0  0  0
  161.3050  205.2300  152.0040 C   0  0  0  0  0  2  0  0  0  0  0  0
  160.1630  201.4830  150.5280 S   0  0  0  0  0  0  0  0  0  0  0  0
  161.9400  200.7700  148.5750 C   0  0  0  0  0  1  0  0  0  0  0  0
  160.6280  202.9670  148.3220 C   0  0  1  0  0  3  0  0  0  0  0  0
  160.6080  201.4900  148.7600 C   0  0  2  0  0  3  0  0  0  0  0  0
  160.8920  203.7850  149.4850 N   0  0  0  0  0  0  0  0  0  0  0  0
  160.6670  203.1890  150.6090 C   0  0  0  0  0  0  0  0  0  0  0  0
  160.9230  203.8260  151.8610 N   0  0  0  0  0  2  0  0  0  0  0  0
  161.5840  203.2990  147.1820 C   0  0  0  0  0  2  0  0  0  0  0  0
  163.0100  205.0650  146.4410 O   0  0  0  0  0  1  0  0  0  0  0  0
  161.8270  204.7970  147.1280 C   0  0  0  0  0  2  0  0  0  0  0  0
  157.5650  213.5700  153.8340 O   0  0  0  0  0  0  0  0  0  0  0  0
  157.6840  213.9760  152.4730 C   0  0  0  0  0  1  0  0  0  0  0  0
  161.9390  211.4500  153.7940 S   0  0  0  0  0  0  0  0  0  0  0  0
  161.3270  210.7630  152.2180 C   0  0  2  0  0  3  0  0  0  0  0  0
  160.6730  209.4270  152.5020 C   0  0  0  0  0  2  0  0  0  0  0  0
  161.2000  208.5150  151.4330 C   0  0  0  0  0  2  0  0  0  0  0  0
  162.1550  209.3740  150.6230 C   0  0  2  0  0  3  0  0  0  0  0  0
  162.3970  210.5760  151.3180 O   0  0  0  0  0  0  0  0  0  0  0  0
  161.5830  209.6630  149.2310 C   0  0  1  0  0  3  0  0  0  0  0  0
  162.3210  210.8260  148.5760 C   0  0  0  0  0  2  0  0  0  0  0  0
  161.3720  211.6950  147.9050 N   0  0  0  0  0  1  0  0  0  0  0  0
  162.7570  207.8550  148.2580 O   0  0  0  0  0  0  0  0  0  0  0  0
  161.6930  208.4430  148.3690 C   0  0  0  0  0  3  0  0  0  0  0  0
  1 10  1  0  0  0  0
  2 11  1  0  0  0  0
  2  3  1  0  0  0  0
  4  8  1  0  0  0  0
  5  9  2  0  0  0  0
  6 10  1  0  0  0  0
  6 14  1  1  0  0  0
  7  6  1  0  0  0  0
  8  7  2  0  0  0  0
  9  4  1  0  0  0  0
 10  3  1  6  0  0  0
 11 15  1  6  0  0  0
 11 13  1  0  0  0  0
 12  1  2  0  0  0  0
 12  8  1  0  0  0  0
 13 14  2  0  0  0  0
 16 15  2  0  0  0  0
 17 15  1  0  0  0  0
 18 17  1  0  0  0  0
 19 24  1  0  0  0  0
 21 26  1  6  0  0  0
 21 22  1  0  0  0  0
 21 23  1  0  0  0  0
 22 20  1  1  0  0  0
 22 19  1  0  0  0  0
 23 24  2  0  0  0  0
 24 25  1  0  0  0  0
 25 18  1  0  0  0  0
 27 28  1  0  0  0  0
 28 26  1  0  0  0  0
 29  9  1  0  0  0  0
 30 29  1  0  0  0  0
 31  1  1  0  0  0  0
 32 33  1  0  0  0  0
 32 31  1  1  0  0  0
 34 33  1  0  0  0  0
 35 37  1  6  0  0  0
 35 36  1  0  0  0  0
 35 34  1  0  0  0  0
 36 32  1  0  0  0  0
 37 41  1  6  0  0  0
 38 37  1  0  0  0  0
 39 38  1  0  0  0  0
 40 41  2  0  0  0  0
M  END
>  <MODEL>
7

>  <REMARK>
 VINA RESULT:      -2.5      4.940      9.099
  Name = 
  11 active torsions:
  status: ('A' for Active; 'I' for Inactive)
    1  A    between atoms: C_1  and  S_21
    2  A    between atoms: C_3  and  S_21
    3  A    between atoms: C_9  and  C_28
    4  A    between atoms: C_10  and  C_15
    5  A    between atoms: C_12  and  N_29
    6  A    between atoms: C_12  and  N_41
    7  A    between atoms: C_13  and  C_30
    8  A    between atoms: C_13  and  C_34
    9  A    between atoms: C_14  and  C_15
   10  A    between atoms: C_15  and  C_26
   11  A    between atoms: C_24  and  O_35
                            x       y       z     vdW  Elec       q    Type
                         _______ _______ _______ _____ _____    ______ ____

>  <TORSDO>
F 11

$$$$
=
 OpenBabel11052411243D

 41 44  0  0  1  0  0  0  0  0999 V2000
  159.6820  211.7020  154.7180 C   0  0  0  0  0  0  0  0  0  0  0  0
  162.2290  209.7580  153.6110 C   0  0  0  0  0  2  0  0  0  0  0  0
  162.0340  210.6150  154.8560 C   0  0  0  0  0  2  0  0  0  0  0  0
  156.5030  210.5740  156.3570 N   0  0  0  0  0  2  0  0  0  0  0  0
  154.4290  211.5360  156.7640 O   0  0  0  0  0  0  0  0  0  0  0  0
  159.8440  209.3170  155.3290 C   0  0  1  0  0  3  0  0  0  0  0  0
  158.5470  209.4590  155.9890 N   0  0  0  0  0  0  0  0  0  0  0  0
  157.8260  210.5360  155.8080 C   0  0  0  0  0  0  0  0  0  0  0  0
  155.6010  211.6880  156.3250 C   0  0  0  0  0  0  0  0  0  0  0  0
  160.5840  210.6600  155.3550 C   0  0  2  0  0  3  0  0  0  0  0  0
  162.1030  208.2310  153.8070 C   0  0  1  0  0  3  0  0  0  0  0  0
  158.3730  211.6600  154.9930 C   0  0  0  0  0  3  0  0  0  0  0  0
  161.7120  207.7330  155.1960 C   0  0  0  0  0  3  0  0  0  0  0  0
  160.6630  208.2020  155.8890 C   0  0  0  0  0  3  0  0  0  0  0  0
  161.2250  207.6660  152.7300 C   0  0  0  0  0  0  0  0  0  0  0  0
  160.6820  208.4370  151.8840 O   0  0  0  0  0  0  0  0  0  0  0  0
  161.0660  206.2490  152.6180 N   0  0  0  0  0  2  0  0  0  0  0  0
  160.5050  205.5980  151.4290 C   0  0  0  0  0  2  0  0  0  0  0  0
  162.3880  205.9420  147.7060 S   0  0  0  0  0  0  0  0  0  0  0  0
  160.8550  204.6270  145.8620 C   0  0  0  0  0  1  0  0  0  0  0  0
  161.7400  203.3290  147.8980 C   0  0  1  0  0  3  0  0  0  0  0  0
  162.0190  204.3920  146.8190 C   0  0  2  0  0  3  0  0  0  0  0  0
  161.2810  204.0020  149.0940 N   0  0  0  0  0  0  0  0  0  0  0  0
  161.5700  205.2600  149.1320 C   0  0  0  0  0  0  0  0  0  0  0  0
  161.1500  206.0940  150.2140 N   0  0  0  0  0  2  0  0  0  0  0  0
  160.7840  202.2160  147.4870 C   0  0  0  0  0  2  0  0  0  0  0  0
  161.8160  200.0860  147.1710 O   0  0  0  0  0  1  0  0  0  0  0  0
  161.2100  200.9050  148.1240 C   0  0  0  0  0  2  0  0  0  0  0  0
  156.0070  212.9290  155.8070 O   0  0  0  0  0  0  0  0  0  0  0  0
  155.9150  214.1300  156.5710 C   0  0  0  0  0  1  0  0  0  0  0  0
  160.2810  212.8700  153.4910 S   0  0  0  0  0  0  0  0  0  0  0  0
  158.7060  212.9710  152.5760 C   0  0  2  0  0  3  0  0  0  0  0  0
  158.8930  212.3050  151.2290 C   0  0  0  0  0  2  0  0  0  0  0  0
  158.2620  213.2510  150.2490 C   0  0  0  0  0  2  0  0  0  0  0  0
  157.7840  214.4220  151.0910 C   0  0  2  0  0  3  0  0  0  0  0  0
  158.3400  214.3210  152.3810 O   0  0  0  0  0  0  0  0  0  0  0  0
  156.2540  214.4530  151.1650 C   0  0  1  0  0  3  0  0  0  0  0  0
  155.6430  213.5950  150.0620 C   0  0  0  0  0  2  0  0  0  0  0  0
  154.9710  214.4420  149.0950 N   0  0  0  0  0  1  0  0  0  0  0  0
  154.6940  214.2640  152.9320 O   0  0  0  0  0  0  0  0  0  0  0  0
  155.7950  213.9610  152.5040 C   0  0  0  0  0  3  0  0  0  0  0  0
  1 12  2  0  0  0  0
  1 10  1  0  0  0  0
  2 11  1  0  0  0  0
  2  3  1  0  0  0  0
  6 10  1  0  0  0  0
  6 14  1  1  0  0  0
  6  7  1  0  0  0  0
  8  7  2  0  0  0  0
  8  4  1  0  0  0  0
  9  4  1  0  0  0  0
  9  5  2  0  0  0  0
 10  3  1  6  0  0  0
 11 15  1  6  0  0  0
 11 13  1  0  0  0  0
 12  8  1  0  0  0  0
 13 14  2  0  0  0  0
 16 15  2  0  0  0  0
 17 15  1  0  0  0  0
 18 17  1  0  0  0  0
 19 24  1  0  0  0  0
 21 26  1  6  0  0  0
 21 23  1  0  0  0  0
 22 20  1  6  0  0  0
 22 19  1  0  0  0  0
 22 21  1  0  0  0  0
 23 24  2  0  0  0  0
 24 25  1  0  0  0  0
 25 18  1  0  0  0  0
 26 28  1  0  0  0  0
 27 28  1  0  0  0  0
 29  9  1  0  0  0  0
 29 30  1  0  0  0  0
 31  1  1  0  0  0  0
 32 31  1  1  0  0  0
 33 32  1  0  0  0  0
 34 35  1  0  0  0  0
 34 33  1  0  0  0  0
 35 37  1  1  0  0  0
 35 36  1  0  0  0  0
 36 32  1  0  0  0  0
 37 38  1  6  0  0  0
 37 41  1  0  0  0  0
 39 38  1  0  0  0  0
 41 40  2  0  0  0  0
M  END
>  <MODEL>
8

>  <REMARK>
 VINA RESULT:      -2.3      5.429      8.546
  Name = 
  11 active torsions:
  status: ('A' for Active; 'I' for Inactive)
    1  A    between atoms: C_1  and  S_21
    2  A    between atoms: C_3  and  S_21
    3  A    between atoms: C_9  and  C_28
    4  A    between atoms: C_10  and  C_15
    5  A    between atoms: C_12  and  N_29
    6  A    between atoms: C_12  and  N_41
    7  A    between atoms: C_13  and  C_30
    8  A    between atoms: C_13  and  C_34
    9  A    between atoms: C_14  and  C_15
   10  A    between atoms: C_15  and  C_26
   11  A    between atoms: C_24  and  O_35
                            x       y       z     vdW  Elec       q    Type
                         _______ _______ _______ _____ _____    ______ ____

>  <TORSDO>
F 11

$$$$
=
 OpenBabel11052411243D

 41 44  0  0  1  0  0  0  0  0999 V2000
  161.3070  207.9130  153.2440 C   0  0  0  0  0  0  0  0  0  0  0  0
  161.0630  211.2830  153.5100 C   0  0  0  0  0  2  0  0  0  0  0  0
  162.2450  210.3240  153.4300 C   0  0  0  0  0  2  0  0  0  0  0  0
  160.8440  205.8320  150.1580 N   0  0  0  0  0  2  0  0  0  0  0  0
  160.4590  203.5820  149.7310 O   0  0  0  0  0  0  0  0  0  0  0  0
  161.2350  209.3610  151.2490 C   0  0  1  0  0  3  0  0  0  0  0  0
  161.2060  208.1450  150.4390 N   0  0  0  0  0  0  0  0  0  0  0  0
  161.0080  206.9800  151.0000 C   0  0  0  0  0  0  0  0  0  0  0  0
  160.6950  204.4740  150.5910 C   0  0  0  0  0  0  0  0  0  0  0  0
  161.9810  209.0880  152.5610 C   0  0  2  0  0  3  0  0  0  0  0  0
  160.7450  212.0820  152.2270 C   0  0  1  0  0  3  0  0  0  0  0  0
  160.8990  206.8880  152.4860 C   0  0  0  0  0  3  0  0  0  0  0  0
  161.5790  211.7760  150.9860 C   0  0  0  0  0  3  0  0  0  0  0  0
  161.7860  210.5380  150.5120 C   0  0  0  0  0  3  0  0  0  0  0  0
  159.2710  212.0130  151.9560 C   0  0  0  0  0  0  0  0  0  0  0  0
  158.5900  211.0380  152.3910 O   0  0  0  0  0  0  0  0  0  0  0  0
  158.6280  213.0910  151.2690 N   0  0  0  0  0  2  0  0  0  0  0  0
  157.1720  213.2670  151.2430 C   0  0  0  0  0  2  0  0  0  0  0  0
  156.9660  214.4200  147.2240 S   0  0  0  0  0  0  0  0  0  0  0  0
  158.3470  212.5770  145.7470 C   0  0  0  0  0  1  0  0  0  0  0  0
  159.5700  213.8330  147.6270 C   0  0  1  0  0  3  0  0  0  0  0  0
  158.5470  213.9000  146.4780 C   0  0  2  0  0  3  0  0  0  0  0  0
  158.8540  213.6020  148.8630 N   0  0  0  0  0  0  0  0  0  0  0  0
  157.5950  213.8860  148.8020 C   0  0  0  0  0  0  0  0  0  0  0  0
  156.7220  213.6700  149.9110 N   0  0  0  0  0  2  0  0  0  0  0  0
  160.6970  212.8240  147.4440 C   0  0  0  0  0  2  0  0  0  0  0  0
  163.0650  212.5570  147.5940 O   0  0  0  0  0  1  0  0  0  0  0  0
  162.0390  213.5000  147.6550 C   0  0  0  0  0  2  0  0  0  0  0  0
  160.7990  204.1360  151.9500 O   0  0  0  0  0  0  0  0  0  0  0  0
  160.9050  202.7810  152.3820 C   0  0  0  0  0  1  0  0  0  0  0  0
  160.8920  207.9260  154.9920 S   0  0  0  0  0  0  0  0  0  0  0  0
  160.0370  209.5370  154.9480 C   0  0  2  0  0  3  0  0  0  0  0  0
  160.5460  210.3790  156.0990 C   0  0  0  0  0  2  0  0  0  0  0  0
  159.3090  210.9730  156.7080 C   0  0  0  0  0  2  0  0  0  0  0  0
  158.1620  210.4040  155.8920 C   0  0  2  0  0  3  0  0  0  0  0  0
  158.6440  209.3550  155.0850 O   0  0  0  0  0  0  0  0  0  0  0  0
  157.5130  211.4930  155.0290 C   0  0  1  0  0  3  0  0  0  0  0  0
  155.9930  211.3920  155.0870 C   0  0  0  0  0  2  0  0  0  0  0  0
  155.5480  211.4620  156.4660 N   0  0  0  0  0  1  0  0  0  0  0  0
  158.0500  213.7730  154.7110 O   0  0  0  0  0  0  0  0  0  0  0  0
  157.9510  212.8470  155.4980 C   0  0  0  0  0  3  0  0  0  0  0  0
  1 31  1  0  0  0  0
  3  2  1  0  0  0  0
  4  9  1  0  0  0  0
  4  8  1  0  0  0  0
  5  9  2  0  0  0  0
  6 14  1  6  0  0  0
  6 10  1  0  0  0  0
  7  8  2  0  0  0  0
  7  6  1  0  0  0  0
  8 12  1  0  0  0  0
  9 29  1  0  0  0  0
 10  1  1  0  0  0  0
 10  3  1  1  0  0  0
 11 15  1  6  0  0  0
 11  2  1  0  0  0  0
 12  1  2  0  0  0  0
 13 11  1  0  0  0  0
 14 13  2  0  0  0  0
 15 16  2  0  0  0  0
 17 15  1  0  0  0  0
 18 17  1  0  0  0  0
 19 24  1  0  0  0  0
 21 26  1  6  0  0  0
 21 23  1  0  0  0  0
 22 20  1  1  0  0  0
 22 19  1  0  0  0  0
 22 21  1  0  0  0  0
 24 23  2  0  0  0  0
 24 25  1  0  0  0  0
 25 18  1  0  0  0  0
 26 28  1  0  0  0  0
 27 28  1  0  0  0  0
 29 30  1  0  0  0  0
 32 31  1  1  0  0  0
 32 36  1  0  0  0  0
 32 33  1  0  0  0  0
 33 34  1  0  0  0  0
 35 37  1  6  0  0  0
 35 34  1  0  0  0  0
 36 35  1  0  0  0  0
 37 38  1  1  0  0  0
 37 41  1  0  0  0  0
 38 39  1  0  0  0  0
 40 41  2  0  0  0  0
M  END
>  <MODEL>
9

>  <REMARK>
 VINA RESULT:      -1.9      3.880      5.089
  Name = 
  11 active torsions:
  status: ('A' for Active; 'I' for Inactive)
    1  A    between atoms: C_1  and  S_21
    2  A    between atoms: C_3  and  S_21
    3  A    between atoms: C_9  and  C_28
    4  A    between atoms: C_10  and  C_15
    5  A    between atoms: C_12  and  N_29
    6  A    between atoms: C_12  and  N_41
    7  A    between atoms: C_13  and  C_30
    8  A    between atoms: C_13  and  C_34
    9  A    between atoms: C_14  and  C_15
   10  A    between atoms: C_15  and  C_26
   11  A    between atoms: C_24  and  O_35
                            x       y       z     vdW  Elec       q    Type
                         _______ _______ _______ _____ _____    ______ ____

>  <TORSDO>
F 11

$$$$
