=
 OpenBabel11042423023D

 65 73  0  0  1  0  0  0  0  0999 V2000
  160.4650  211.1670  153.5320 C   0  0  1  0  0  3  0  0  0  0  0  0
  161.5250  212.7230  149.0210 C   0  0  0  0  0  2  0  0  0  0  0  0
  161.8750  211.9150  150.2250 C   0  0  0  0  0  0  0  0  0  0  0  0
  161.5570  210.0840  153.5890 C   0  0  1  0  0  3  0  0  0  0  0  0
  161.3570  206.1530  151.9490 C   0  0  2  0  0  3  0  0  0  0  0  0
  161.0580  207.7510  148.6620 O   0  0  0  0  0  0  0  0  0  0  0  0
  160.6860  207.6300  150.0050 C   0  0  0  0  0  0  0  0  0  0  0  0
  162.5630  209.3580  147.6350 C   0  0  0  0  0  2  0  0  0  0  0  0
  161.2220  208.7570  152.8900 C   0  0  1  0  0  3  0  0  0  0  0  0
  162.4110  207.9730  148.2660 C   0  0  2  0  0  3  0  0  0  0  0  0
  162.0850  208.5360  151.7890 O   0  0  0  0  0  0  0  0  0  0  0  0
  159.4690  207.7200  150.3160 O   0  0  0  0  0  0  0  0  0  0  0  0
  161.7100  207.3680  151.0720 C   0  0  1  0  0  3  0  0  0  0  0  0
  161.8910  206.3450  153.3710 C   0  0  0  0  0  2  0  0  0  0  0  0
  160.1390  211.7210  152.1650 C   0  0  0  0  0  3  0  0  0  0  0  0
  161.0250  211.8520  151.2110 C   0  0  0  0  0  0  0  0  0  0  0  0
  162.8100  210.5920  153.2230 O   0  0  0  0  0  1  0  0  0  0  0  0
  162.4940  210.6410  149.8080 C   0  0  0  0  0  2  0  0  0  0  0  0
  161.8380  210.3980  148.4730 C   0  0  1  0  0  3  0  0  0  0  0  0
  161.7260  211.7730  147.8400 C   0  0  1  0  0  3  0  0  0  0  0  0
  161.3460  207.6460  153.9480 C   0  0  0  0  0  2  0  0  0  0  0  0
  161.7880  204.8970  151.3100 N   0  0  2  0  0  0  0  0  0  0  0  0
  160.1200  204.7030  147.9910 C   0  0  0  0  0  2  0  0  0  0  0  0
  160.8360  204.5130  150.2610 C   0  0  2  0  0  3  0  0  0  0  0  0
  161.3720  203.3240  149.5140 C   0  0  2  0  0  3  0  0  0  0  0  0
  160.4770  203.2440  148.2940 C   0  0  2  0  0  3  0  0  0  0  0  0
  160.6330  205.5340  149.1630 C   0  0  0  0  0  2  0  0  0  0  0  0
  161.8050  203.8050  152.3030 C   0  0  0  0  0  2  0  0  0  0  0  0
  162.2390  202.4720  151.6670 C   0  0  0  0  0  2  0  0  0  0  0  0
  161.9340  200.8950  149.7770 C   0  0  0  0  0  1  0  0  0  0  0  0
  161.3630  202.1250  150.4590 C   0  0  2  0  0  3  0  0  0  0  0  0
  161.2370  202.6410  147.1240 C   0  0  0  0  0  2  0  0  0  0  0  0
  160.0790  201.8730  145.9520 S   0  0  0  0  0  1  0  0  0  0  0  0
  160.5620  211.8490  146.9060 C   0  0  0  0  0  0  0  0  0  0  0  0
  158.5440  212.2790  144.8540 O   0  0  0  0  0  0  0  0  0  0  0  0
  159.7500  212.5200  144.5880 C   0  0  0  0  0  0  0  0  0  0  0  0
  159.4080  211.5250  147.3000 O   0  0  0  0  0  0  0  0  0  0  0  0
  160.7760  212.3160  145.5700 N   0  0  0  0  0  2  0  0  0  0  0  0
  159.9480  214.4500  140.5140 O   0  0  0  0  0  0  0  0  0  0  0  0
  160.1060  213.0430  143.2280 C   0  0  2  0  0  3  0  0  0  0  0  0
  159.1580  213.3930  141.0400 C   0  0  2  0  0  3  0  0  0  0  0  0
  162.1870  213.9270  141.2070 C   0  0  0  0  0  2  0  0  0  0  0  0
  162.2550  212.5620  141.9320 C   0  0  2  0  0  0  0  0  0  0  0  0
  158.9030  213.6230  142.5140 C   0  0  0  0  0  2  0  0  0  0  0  0
  160.8010  212.4110  139.7320 C   0  0  2  0  0  3  0  0  0  0  0  0
  159.9480  212.1030  140.9460 C   0  0  1  0  0  3  0  0  0  0  0  0
  160.8020  212.0610  142.2530 C   0  0  2  0  0  0  0  0  0  0  0  0
  163.1270  212.6710  143.1740 C   0  0  0  0  0  1  0  0  0  0  0  0
  162.0460  211.5050  139.6520 C   0  0  0  0  0  2  0  0  0  0  0  0
  162.9000  211.5960  140.9300 C   0  0  0  0  0  2  0  0  0  0  0  0
  161.1470  213.8650  140.0520 C   0  0  1  0  0  3  0  0  0  0  0  0
  160.8130  210.6160  142.7640 C   0  0  0  0  0  1  0  0  0  0  0  0
  158.3790  210.0430  153.6590 O   0  0  0  0  0  0  0  0  0  0  0  0
  159.2200  210.7140  154.2430 C   0  0  0  0  0  0  0  0  0  0  0  0
  159.6960  210.0190  156.4550 O   0  0  0  0  0  1  0  0  0  0  0  0
  159.0590  211.0110  155.7030 C   0  0  2  0  0  3  0  0  0  0  0  0
  157.5880  211.0720  156.0880 C   0  0  0  0  0  2  0  0  0  0  0  0
  157.1970  212.4830  156.5170 C   0  0  1  0  0  3  0  0  0  0  0  0
  158.3450  213.1840  156.8920 O   0  0  0  0  0  1  0  0  0  0  0  0
  157.4300  213.6700  154.4490 O   0  0  0  0  0  1  0  0  0  0  0  0
  156.4880  213.2150  155.3760 C   0  0  2  0  0  3  0  0  0  0  0  0
  155.3700  214.2230  157.2350 O   0  0  0  0  0  1  0  0  0  0  0  0
  155.7080  214.4170  155.8940 C   0  0  0  0  0  2  0  0  0  0  0  0
  162.8330  206.9260  147.2900 C   0  0  0  0  0  3  0  0  0  0  0  0
  162.0630  206.5440  146.4270 O   0  0  0  0  0  0  0  0  0  0  0  0
  1  4  1  0  0  0  0
  1 54  1  6  0  0  0
  2  3  1  0  0  0  0
  3 16  2  0  0  0  0
  4 17  1  6  0  0  0
  5 14  1  1  0  0  0
  6  7  1  0  0  0  0
  7 12  2  0  0  0  0
  8 10  1  0  0  0  0
  9  4  1  0  0  0  0
  9 21  1  1  0  0  0
 10 64  1  6  0  0  0
 10  6  1  0  0  0  0
 11  9  1  0  0  0  0
 13  7  1  1  0  0  0
 13 11  1  0  0  0  0
 13  5  1  0  0  0  0
 14 21  1  0  0  0  0
 15  1  1  0  0  0  0
 16 15  2  0  0  0  0
 18  3  1  0  0  0  0
 19  8  1  6  0  0  0
 19 18  1  0  0  0  0
 20 34  1  6  0  0  0
 20 19  1  0  0  0  0
 20  2  1  0  0  0  0
 22  5  1  0  0  0  0
 22 28  1  1  0  0  0
 23 26  1  0  0  0  0
 23 27  1  0  0  0  0
 24 27  1  6  0  0  0
 24 22  1  0  0  0  0
 25 24  1  0  0  0  0
 25 31  1  0  0  0  0
 26 25  1  0  0  0  0
 29 28  1  0  0  0  0
 30 31  1  0  0  0  0
 31 29  1  0  0  0  0
 32 26  1  0  0  0  0
 33 32  1  0  0  0  0
 34 37  2  0  0  0  0
 36 35  2  0  0  0  0
 36 38  1  0  0  0  0
 38 34  1  0  0  0  0
 39 41  1  0  0  0  0
 40 36  1  0  0  0  0
 41 44  1  0  0  0  0
 42 43  1  0  0  0  0
 43 47  1  0  0  0  0
 43 48  1  0  0  0  0
 44 40  1  0  0  0  0
 45 51  1  0  0  0  0
 45 46  1  0  0  0  0
 46 41  1  0  0  0  0
 46 47  1  0  0  0  0
 47 52  1  0  0  0  0
 47 40  1  0  0  0  0
 49 45  1  0  0  0  0
 49 50  1  0  0  0  0
 50 43  1  0  0  0  0
 51 39  1  0  0  0  0
 51 42  1  0  0  0  0
 53 54  2  0  0  0  0
 54 56  1  0  0  0  0
 56 57  1  0  0  0  0
 56 55  1  0  0  0  0
 57 58  1  0  0  0  0
 58 59  1  0  0  0  0
 60 61  1  0  0  0  0
 61 63  1  0  0  0  0
 61 58  1  0  0  0  0
 63 62  1  0  0  0  0
 65 64  2  0  0  0  0
M  END
>  <MODEL>
1

>  <REMARK>
 VINA RESULT:       2.0      0.000      0.000
  Name = 
  11 active torsions:
  status: ('A' for Active; 'I' for Inactive)
    1  A    between atoms: N_2  and  C_17
    2  A    between atoms: C_3  and  C_35
    3  A    between atoms: C_6  and  C_9
    4  A    between atoms: C_9  and  C_52
    5  A    between atoms: C_10  and  C_58
    6  A    between atoms: C_15  and  C_28
    7  A    between atoms: C_29  and  C_32
    8  A    between atoms: C_40  and  C_53
    9  A    between atoms: C_43  and  C_53
   10  A    between atoms: C_43  and  C_65
   11  A    between atoms: C_52  and  C_65
                            x       y       z     vdW  Elec       q    Type
                         _______ _______ _______ _____ _____    ______ ____

>  <TORSDO>
F 11

$$$$
=
 OpenBabel11042423023D

 65 73  0  0  1  0  0  0  0  0999 V2000
  161.5070  211.8070  148.4790 C   0  0  1  0  0  3  0  0  0  0  0  0
  163.0980  207.7140  150.6260 C   0  0  0  0  0  2  0  0  0  0  0  0
  162.8340  209.1810  150.6760 C   0  0  0  0  0  0  0  0  0  0  0  0
  161.4970  212.6650  149.7560 C   0  0  1  0  0  3  0  0  0  0  0  0
  158.4540  212.7860  152.7400 C   0  0  2  0  0  3  0  0  0  0  0  0
  159.1990  209.2500  153.3640 O   0  0  0  0  0  0  0  0  0  0  0  0
  158.9300  210.3120  152.4940 C   0  0  0  0  0  0  0  0  0  0  0  0
  161.3370  208.2460  153.9320 C   0  0  0  0  0  2  0  0  0  0  0  0
  160.2750  212.4910  150.6710 C   0  0  1  0  0  3  0  0  0  0  0  0
  160.2770  209.2870  154.2970 C   0  0  2  0  0  3  0  0  0  0  0  0
  160.6550  211.9400  151.9200 O   0  0  0  0  0  0  0  0  0  0  0  0
  158.1640  210.1230  151.5120 O   0  0  0  0  0  0  0  0  0  0  0  0
  159.5180  211.6730  152.7280 C   0  0  1  0  0  3  0  0  0  0  0  0
  159.0450  214.0980  152.2200 C   0  0  0  0  0  2  0  0  0  0  0  0
  161.5960  210.3120  148.6740 C   0  0  0  0  0  3  0  0  0  0  0  0
  162.2530  209.7520  149.6580 C   0  0  0  0  0  0  0  0  0  0  0  0
  162.7120  212.5790  150.4470 O   0  0  0  0  0  1  0  0  0  0  0  0
  162.3310  209.5510  152.0130 C   0  0  0  0  0  2  0  0  0  0  0  0
  161.6230  208.2910  152.4400 C   0  0  1  0  0  3  0  0  0  0  0  0
  162.4910  207.1620  151.9150 C   0  0  1  0  0  3  0  0  0  0  0  0
  159.6290  213.8780  150.8300 C   0  0  0  0  0  2  0  0  0  0  0  0
  157.8200  212.8960  154.0660 N   0  0  2  0  0  0  0  0  0  0  0  0
  155.5060  210.0080  154.4410 C   0  0  0  0  0  2  0  0  0  0  0  0
  156.5780  212.1130  154.0980 C   0  0  2  0  0  3  0  0  0  0  0  0
  156.0310  212.1050  155.4980 C   0  0  2  0  0  3  0  0  0  0  0  0
  154.9680  211.0260  155.4520 C   0  0  2  0  0  3  0  0  0  0  0  0
  156.7320  210.6400  153.7900 C   0  0  0  0  0  2  0  0  0  0  0  0
  157.4560  214.3000  154.3360 C   0  0  0  0  0  2  0  0  0  0  0  0
  156.7780  214.4530  155.7090 C   0  0  0  0  0  2  0  0  0  0  0  0
  155.0410  213.5910  157.2570 C   0  0  0  0  0  1  0  0  0  0  0  0
  155.5680  213.5200  155.8360 C   0  0  2  0  0  3  0  0  0  0  0  0
  154.8200  210.3770  156.8170 C   0  0  0  0  0  2  0  0  0  0  0  0
  153.4540  209.1780  156.7970 S   0  0  0  0  0  1  0  0  0  0  0  0
  161.6800  205.9390  151.6290 C   0  0  0  0  0  0  0  0  0  0  0  0
  160.0850  203.7090  150.6580 O   0  0  0  0  0  0  0  0  0  0  0  0
  160.7640  204.3800  149.8380 C   0  0  0  0  0  0  0  0  0  0  0  0
  161.0900  205.3350  152.5660 O   0  0  0  0  0  0  0  0  0  0  0  0
  161.5690  205.4840  150.2770 N   0  0  0  0  0  2  0  0  0  0  0  0
  160.5080  202.4210  145.7810 O   0  0  0  0  0  0  0  0  0  0  0  0
  160.7120  204.0210  148.3820 C   0  0  2  0  0  3  0  0  0  0  0  0
  161.4570  202.3320  146.8330 C   0  0  2  0  0  3  0  0  0  0  0  0
  160.1420  204.7790  145.5020 C   0  0  0  0  0  2  0  0  0  0  0  0
  161.0720  205.6120  146.4150 C   0  0  2  0  0  0  0  0  0  0  0  0
  160.7700  202.5240  148.1670 C   0  0  0  0  0  2  0  0  0  0  0  0
  162.3980  203.6790  145.1970 C   0  0  2  0  0  3  0  0  0  0  0  0
  162.4400  203.4790  146.6990 C   0  0  1  0  0  3  0  0  0  0  0  0
  161.7730  204.6690  147.4570 C   0  0  2  0  0  0  0  0  0  0  0  0
  160.2880  206.7370  147.0740 C   0  0  0  0  0  1  0  0  0  0  0  0
  162.9160  205.0710  144.7820 C   0  0  0  0  0  2  0  0  0  0  0  0
  162.1400  206.2000  145.4860 C   0  0  0  0  0  2  0  0  0  0  0  0
  160.8930  203.5200  144.9820 C   0  0  1  0  0  3  0  0  0  0  0  0
  162.8680  205.4130  148.2290 C   0  0  0  0  0  1  0  0  0  0  0  0
  159.2090  211.8780  147.8940 O   0  0  0  0  0  0  0  0  0  0  0  0
  160.3570  212.1670  147.5800 C   0  0  0  0  0  0  0  0  0  0  0  0
  160.0420  214.2340  146.4720 O   0  0  0  0  0  1  0  0  0  0  0  0
  160.6160  212.9660  146.3390 C   0  0  2  0  0  3  0  0  0  0  0  0
  160.0370  212.2750  145.1140 C   0  0  0  0  0  2  0  0  0  0  0  0
  160.6320  212.8500  143.8330 C   0  0  1  0  0  3  0  0  0  0  0  0
  161.9710  212.4630  143.7350 O   0  0  0  0  0  1  0  0  0  0  0  0
  160.7050  211.6250  141.7740 O   0  0  0  0  0  1  0  0  0  0  0  0
  159.8560  212.3570  142.6100 C   0  0  2  0  0  3  0  0  0  0  0  0
  159.8600  213.5510  140.5380 O   0  0  0  0  0  1  0  0  0  0  0  0
  159.2880  213.5230  141.8120 C   0  0  0  0  0  2  0  0  0  0  0  0
  159.7670  209.0250  155.6750 C   0  0  0  0  0  3  0  0  0  0  0  0
  159.6950  207.8830  156.0970 O   0  0  0  0  0  0  0  0  0  0  0  0
  1 54  1  1  0  0  0
  1 15  1  0  0  0  0
  1  4  1  0  0  0  0
  2  3  1  0  0  0  0
  2 20  1  0  0  0  0
  3 18  1  0  0  0  0
  4 17  1  1  0  0  0
  4  9  1  0  0  0  0
  5 14  1  1  0  0  0
  5 22  1  0  0  0  0
  6 10  1  0  0  0  0
  7 13  1  0  0  0  0
  7  6  1  0  0  0  0
  8 10  1  0  0  0  0
  9 21  1  1  0  0  0
  9 11  1  0  0  0  0
 10 64  1  1  0  0  0
 12  7  2  0  0  0  0
 13 11  1  6  0  0  0
 13  5  1  0  0  0  0
 15 16  2  0  0  0  0
 16  3  2  0  0  0  0
 19 18  1  1  0  0  0
 19  8  1  0  0  0  0
 20 34  1  6  0  0  0
 20 19  1  0  0  0  0
 21 14  1  0  0  0  0
 22 24  1  0  0  0  0
 22 28  1  6  0  0  0
 23 26  1  0  0  0  0
 24 27  1  1  0  0  0
 24 25  1  0  0  0  0
 25 31  1  0  0  0  0
 26 25  1  0  0  0  0
 26 32  1  0  0  0  0
 27 23  1  0  0  0  0
 28 29  1  0  0  0  0
 29 31  1  0  0  0  0
 31 30  1  0  0  0  0
 33 32  1  0  0  0  0
 34 37  2  0  0  0  0
 36 38  1  0  0  0  0
 36 35  2  0  0  0  0
 38 34  1  0  0  0  0
 39 41  1  0  0  0  0
 40 36  1  0  0  0  0
 41 44  1  0  0  0  0
 42 43  1  0  0  0  0
 43 48  1  0  0  0  0
 43 47  1  0  0  0  0
 44 40  1  0  0  0  0
 45 46  1  0  0  0  0
 46 41  1  0  0  0  0
 46 47  1  0  0  0  0
 47 52  1  0  0  0  0
 47 40  1  0  0  0  0
 49 45  1  0  0  0  0
 49 50  1  0  0  0  0
 50 43  1  0  0  0  0
 51 45  1  0  0  0  0
 51 42  1  0  0  0  0
 51 39  1  0  0  0  0
 54 53  2  0  0  0  0
 56 55  1  0  0  0  0
 56 54  1  0  0  0  0
 57 56  1  0  0  0  0
 58 57  1  0  0  0  0
 59 58  1  0  0  0  0
 60 61  1  0  0  0  0
 61 58  1  0  0  0  0
 62 63  1  0  0  0  0
 63 61  1  0  0  0  0
 64 65  2  0  0  0  0
M  END
>  <MODEL>
2

>  <REMARK>
 VINA RESULT:       3.9      3.110      9.647
  Name = 
  11 active torsions:
  status: ('A' for Active; 'I' for Inactive)
    1  A    between atoms: N_2  and  C_17
    2  A    between atoms: C_3  and  C_35
    3  A    between atoms: C_6  and  C_9
    4  A    between atoms: C_9  and  C_52
    5  A    between atoms: C_10  and  C_58
    6  A    between atoms: C_15  and  C_28
    7  A    between atoms: C_29  and  C_32
    8  A    between atoms: C_40  and  C_53
    9  A    between atoms: C_43  and  C_53
   10  A    between atoms: C_43  and  C_65
   11  A    between atoms: C_52  and  C_65
                            x       y       z     vdW  Elec       q    Type
                         _______ _______ _______ _____ _____    ______ ____

>  <TORSDO>
F 11

$$$$
