=
 OpenBabel11052411153D

 26 28  0  0  1  0  0  0  0  0999 V2000
  160.9460  201.6110  147.2530 C   0  0  0  0  0  0  0  0  0  0  0  0
  160.7570  201.3290  148.9350 S   0  0  0  0  0  0  0  0  0  0  0  0
  161.0920  203.7860  150.3670 C   0  0  0  0  0  0  0  0  0  0  0  0
  161.3710  205.0300  149.8190 C   0  0  0  0  0  0  0  0  0  0  0  0
  161.2080  202.9660  146.9780 C   0  0  0  0  0  3  0  0  0  0  0  0
  160.9790  203.5800  151.7370 C   0  0  0  0  0  3  0  0  0  0  0  0
  161.1570  204.7000  152.5690 C   0  0  0  0  0  3  0  0  0  0  0  0
  161.4430  205.9770  152.0310 C   0  0  0  0  0  0  0  0  0  0  0  0
  161.0050  202.9410  149.2930 C   0  0  0  0  0  0  0  0  0  0  0  0
  161.5540  206.1470  150.6320 C   0  0  0  0  0  3  0  0  0  0  0  0
  161.2260  203.6680  148.1780 C   0  0  0  0  0  0  0  0  0  0  0  0
  161.4490  204.9670  148.4650 N   0  0  0  0  0  0  0  0  0  0  0  0
  161.4070  199.4470  146.4110 O   0  0  0  0  0  1  0  0  0  0  0  0
  160.1490  200.7960  145.0550 O   0  0  0  0  0  0  0  0  0  0  0  0
  160.8520  200.5630  146.2300 C   0  0  0  0  0  0  0  0  0  0  0  0
  161.7910  206.0380  147.5390 C   0  0  0  0  0  2  0  0  0  0  0  0
  160.5300  206.5750  146.8820 C   0  0  0  0  0  2  0  0  0  0  0  0
  161.8440  205.6750  144.9650 C   0  0  0  0  0  1  0  0  0  0  0  0
  160.4840  206.1730  145.4200 C   0  0  0  0  0  2  0  0  0  0  0  0
  161.6110  207.0510  152.9100 O   0  0  0  0  0  0  0  0  0  0  0  0
  160.6120  208.0530  153.1260 C   0  0  2  0  0  3  0  0  0  0  0  0
  162.1340  209.6860  151.9170 C   0  0  0  0  0  1  0  0  0  0  0  0
  160.7030  209.2250  152.1410 C   0  0  0  0  0  2  0  0  0  0  0  0
  160.5290  208.4660  154.4750 O   0  0  0  0  0  0  0  0  0  0  0  0
  160.7630  207.3630  155.3110 C   0  0  0  0  0  2  0  0  0  0  0  0
  159.6910  207.2080  156.1880 O   0  0  0  0  0  1  0  0  0  0  0  0
  1  2  1  0  0  0  0
  2  9  1  0  0  0  0
  3  6  1  0  0  0  0
  4  3  2  0  0  0  0
  4 10  1  0  0  0  0
  5  1  2  0  0  0  0
  5 11  1  0  0  0  0
  6  7  2  0  0  0  0
  8  7  1  0  0  0  0
  8 20  1  0  0  0  0
  9  3  1  0  0  0  0
 10  8  2  0  0  0  0
 11 12  1  0  0  0  0
 11  9  2  0  0  0  0
 12  4  1  0  0  0  0
 14 15  2  0  0  0  0
 15 13  1  0  0  0  0
 15  1  1  0  0  0  0
 16 12  1  0  0  0  0
 17 16  1  0  0  0  0
 18 19  1  0  0  0  0
 19 17  1  0  0  0  0
 20 21  1  0  0  0  0
 21 23  1  6  0  0  0
 21 24  1  0  0  0  0
 22 23  1  0  0  0  0
 24 25  1  0  0  0  0
 25 26  1  0  0  0  0
M  END
>  <MODEL>
1

>  <REMARK>
 VINA RESULT:      -7.9      0.000      0.000
  Name = 
  9 active torsions:
  status: ('A' for Active; 'I' for Inactive)
    1  A    between atoms: C_1  and  O_11
    2  A    between atoms: C_3  and  C_20
    3  A    between atoms: C_9  and  C_23
    4  A    between atoms: C_9  and  N_24
    5  A    between atoms: O_11  and  C_21
    6  A    between atoms: C_12  and  C_23
    7  A    between atoms: C_16  and  O_26
    8  A    between atoms: C_21  and  C_25
    9  A    between atoms: C_21  and  O_26
                            x       y       z     vdW  Elec       q    Type
                         _______ _______ _______ _____ _____    ______ ____

>  <TORSDO>
F 9

$$$$
=
 OpenBabel11052411153D

 26 28  0  0  1  0  0  0  0  0999 V2000
  161.3640  207.7790  152.5710 C   0  0  0  0  0  0  0  0  0  0  0  0
  161.3940  206.1990  153.2410 S   0  0  0  0  0  0  0  0  0  0  0  0
  161.1220  204.2600  151.1510 C   0  0  0  0  0  0  0  0  0  0  0  0
  160.9810  204.5210  149.7960 C   0  0  0  0  0  0  0  0  0  0  0  0
  161.2250  207.7480  151.1700 C   0  0  0  0  0  3  0  0  0  0  0  0
  161.1070  202.9720  151.6710 C   0  0  0  0  0  3  0  0  0  0  0  0
  160.9440  201.9150  150.7560 C   0  0  0  0  0  3  0  0  0  0  0  0
  160.7970  202.1590  149.3700 C   0  0  0  0  0  0  0  0  0  0  0  0
  161.2360  205.4940  151.7360 C   0  0  0  0  0  0  0  0  0  0  0  0
  160.8150  203.4850  148.8790 C   0  0  0  0  0  3  0  0  0  0  0  0
  161.1600  206.4210  150.7590 C   0  0  0  0  0  0  0  0  0  0  0  0
  161.0100  205.8550  149.5440 N   0  0  0  0  0  0  0  0  0  0  0  0
  161.9540  210.0530  152.8590 O   0  0  0  0  0  0  0  0  0  0  0  0
  161.0220  209.0270  154.6810 O   0  0  0  0  0  1  0  0  0  0  0  0
  161.4650  209.0080  153.3650 C   0  0  0  0  0  0  0  0  0  0  0  0
  160.8250  206.5280  148.2650 C   0  0  0  0  0  2  0  0  0  0  0  0
  162.1410  206.5680  147.5060 C   0  0  0  0  0  2  0  0  0  0  0  0
  160.4960  206.2340  145.6660 C   0  0  0  0  0  1  0  0  0  0  0  0
  161.9460  206.0780  146.0840 C   0  0  0  0  0  2  0  0  0  0  0  0
  160.6370  201.0680  148.5110 O   0  0  0  0  0  0  0  0  0  0  0  0
  161.2250  201.0010  147.2080 C   0  0  2  0  0  3  0  0  0  0  0  0
  161.0560  202.7630  145.3870 C   0  0  0  0  0  1  0  0  0  0  0  0
  160.3520  201.6290  146.1140 C   0  0  0  0  0  2  0  0  0  0  0  0
  161.6840  199.7060  146.8760 O   0  0  0  0  0  0  0  0  0  0  0  0
  161.0550  199.2810  145.6960 C   0  0  0  0  0  2  0  0  0  0  0  0
  161.5990  198.0640  145.2910 O   0  0  0  0  0  1  0  0  0  0  0  0
  1  2  1  0  0  0  0
  1 15  1  0  0  0  0
  3  6  1  0  0  0  0
  3  9  1  0  0  0  0
  4  3  2  0  0  0  0
  5  1  2  0  0  0  0
  7  6  2  0  0  0  0
  8  7  1  0  0  0  0
  9  2  1  0  0  0  0
 10  8  2  0  0  0  0
 10  4  1  0  0  0  0
 11  5  1  0  0  0  0
 11  9  2  0  0  0  0
 12  4  1  0  0  0  0
 12 11  1  0  0  0  0
 13 15  2  0  0  0  0
 15 14  1  0  0  0  0
 16 12  1  0  0  0  0
 17 16  1  0  0  0  0
 18 19  1  0  0  0  0
 19 17  1  0  0  0  0
 20  8  1  0  0  0  0
 21 23  1  6  0  0  0
 21 20  1  0  0  0  0
 22 23  1  0  0  0  0
 24 21  1  0  0  0  0
 25 24  1  0  0  0  0
 26 25  1  0  0  0  0
M  END
>  <MODEL>
2

>  <REMARK>
 VINA RESULT:      -7.8      1.892      7.593
  Name = 
  9 active torsions:
  status: ('A' for Active; 'I' for Inactive)
    1  A    between atoms: C_1  and  O_11
    2  A    between atoms: C_3  and  C_20
    3  A    between atoms: C_9  and  C_23
    4  A    between atoms: C_9  and  N_24
    5  A    between atoms: O_11  and  C_21
    6  A    between atoms: C_12  and  C_23
    7  A    between atoms: C_16  and  O_26
    8  A    between atoms: C_21  and  C_25
    9  A    between atoms: C_21  and  O_26
                            x       y       z     vdW  Elec       q    Type
                         _______ _______ _______ _____ _____    ______ ____

>  <TORSDO>
F 9

$$$$
=
 OpenBabel11052411153D

 26 28  0  0  1  0  0  0  0  0999 V2000
  161.3450  205.7640  147.3010 C   0  0  0  0  0  0  0  0  0  0  0  0
  161.2740  207.3180  148.0250 S   0  0  0  0  0  0  0  0  0  0  0  0
  161.2230  207.0520  150.8760 C   0  0  0  0  0  0  0  0  0  0  0  0
  161.2440  205.8660  151.5950 C   0  0  0  0  0  0  0  0  0  0  0  0
  161.3710  204.7410  148.2670 C   0  0  0  0  0  3  0  0  0  0  0  0
  161.1290  208.2960  151.4870 C   0  0  0  0  0  3  0  0  0  0  0  0
  161.0590  208.3150  152.8920 C   0  0  0  0  0  3  0  0  0  0  0  0
  161.0790  207.1170  153.6440 C   0  0  0  0  0  0  0  0  0  0  0  0
  161.2840  206.6680  149.5620 C   0  0  0  0  0  0  0  0  0  0  0  0
  161.1720  205.8690  152.9870 C   0  0  0  0  0  3  0  0  0  0  0  0
  161.3360  205.3200  149.5300 C   0  0  0  0  0  0  0  0  0  0  0  0
  161.3220  204.7900  150.7710 N   0  0  0  0  0  0  0  0  0  0  0  0
  162.3340  204.9220  145.3210 O   0  0  0  0  0  1  0  0  0  0  0  0
  160.3280  205.9940  145.0550 O   0  0  0  0  0  0  0  0  0  0  0  0
  161.3700  205.5350  145.8520 C   0  0  0  0  0  0  0  0  0  0  0  0
  161.2960  203.3800  151.1360 C   0  0  0  0  0  2  0  0  0  0  0  0
  160.4200  202.6100  150.1630 C   0  0  0  0  0  2  0  0  0  0  0  0
  161.2210  200.9310  148.5060 C   0  0  0  0  0  1  0  0  0  0  0  0
  160.9500  201.2010  149.9750 C   0  0  0  0  0  2  0  0  0  0  0  0
  161.0050  207.2000  155.0380 O   0  0  0  0  0  0  0  0  0  0  0  0
  160.9280  208.4410  155.7480 C   0  0  2  0  0  3  0  0  0  0  0  0
  162.6920  209.8600  156.8970 C   0  0  0  0  0  1  0  0  0  0  0  0
  161.9340  208.5430  156.9020 C   0  0  0  0  0  2  0  0  0  0  0  0
  159.6100  208.7750  156.1310 O   0  0  0  0  0  0  0  0  0  0  0  0
  159.3090  210.0670  155.6700 C   0  0  0  0  0  2  0  0  0  0  0  0
  159.0710  210.9050  156.7570 O   0  0  0  0  0  1  0  0  0  0  0  0
  1  2  1  0  0  0  0
  1  5  2  0  0  0  0
  2  9  1  0  0  0  0
  3  6  2  0  0  0  0
  3  4  1  0  0  0  0
  4 10  2  0  0  0  0
  5 11  1  0  0  0  0
  6  7  1  0  0  0  0
  7  8  2  0  0  0  0
  8 20  1  0  0  0  0
  9  3  1  0  0  0  0
 10  8  1  0  0  0  0
 11  9  2  0  0  0  0
 11 12  1  0  0  0  0
 12 16  1  0  0  0  0
 12  4  1  0  0  0  0
 13 15  1  0  0  0  0
 14 15  2  0  0  0  0
 15  1  1  0  0  0  0
 17 16  1  0  0  0  0
 18 19  1  0  0  0  0
 19 17  1  0  0  0  0
 20 21  1  0  0  0  0
 21 24  1  0  0  0  0
 21 23  1  1  0  0  0
 22 23  1  0  0  0  0
 25 24  1  0  0  0  0
 25 26  1  0  0  0  0
M  END
>  <MODEL>
3

>  <REMARK>
 VINA RESULT:      -7.5      2.439      4.136
  Name = 
  9 active torsions:
  status: ('A' for Active; 'I' for Inactive)
    1  A    between atoms: C_1  and  O_11
    2  A    between atoms: C_3  and  C_20
    3  A    between atoms: C_9  and  C_23
    4  A    between atoms: C_9  and  N_24
    5  A    between atoms: O_11  and  C_21
    6  A    between atoms: C_12  and  C_23
    7  A    between atoms: C_16  and  O_26
    8  A    between atoms: C_21  and  C_25
    9  A    between atoms: C_21  and  O_26
                            x       y       z     vdW  Elec       q    Type
                         _______ _______ _______ _____ _____    ______ ____

>  <TORSDO>
F 9

$$$$
=
 OpenBabel11052411153D

 26 28  0  0  1  0  0  0  0  0999 V2000
  160.9260  202.9110  149.8930 C   0  0  0  0  0  0  0  0  0  0  0  0
  161.0300  203.1800  151.5840 S   0  0  0  0  0  0  0  0  0  0  0  0
  161.1270  205.9940  152.1090 C   0  0  0  0  0  0  0  0  0  0  0  0
  161.1020  207.0100  151.1660 C   0  0  0  0  0  0  0  0  0  0  0  0
  160.9040  204.1210  149.1740 C   0  0  0  0  0  3  0  0  0  0  0  0
  161.2470  206.2390  153.4710 C   0  0  0  0  0  3  0  0  0  0  0  0
  161.3410  207.5840  153.8730 C   0  0  0  0  0  3  0  0  0  0  0  0
  161.3190  208.6360  152.9280 C   0  0  0  0  0  0  0  0  0  0  0  0
  161.0380  204.8360  151.3810 C   0  0  0  0  0  0  0  0  0  0  0  0
  161.1980  208.3470  151.5490 C   0  0  0  0  0  3  0  0  0  0  0  0
  160.9680  205.1760  150.0770 C   0  0  0  0  0  0  0  0  0  0  0  0
  160.9960  206.5140  149.9060 N   0  0  0  0  0  0  0  0  0  0  0  0
  161.0000  200.5460  149.9840 O   0  0  0  0  0  1  0  0  0  0  0  0
  160.6850  201.4540  147.9060 O   0  0  0  0  0  0  0  0  0  0  0  0
  160.8740  201.5810  149.2760 C   0  0  0  0  0  0  0  0  0  0  0  0
  161.0100  207.2510  148.6510 C   0  0  0  0  0  2  0  0  0  0  0  0
  162.3380  207.0430  147.9430 C   0  0  0  0  0  2  0  0  0  0  0  0
  160.6950  206.3210  146.2150 C   0  0  0  0  0  1  0  0  0  0  0  0
  162.1400  206.2400  146.6720 C   0  0  0  0  0  2  0  0  0  0  0  0
  161.4170  209.9530  153.3880 O   0  0  0  0  0  0  0  0  0  0  0  0
  161.3460  210.3080  154.7730 C   0  0  2  0  0  3  0  0  0  0  0  0
  159.0590  210.4030  155.8720 C   0  0  0  0  0  1  0  0  0  0  0  0
  160.1270  211.1750  155.1150 C   0  0  0  0  0  2  0  0  0  0  0  0
  162.5590  210.8360  155.2690 O   0  0  0  0  0  0  0  0  0  0  0  0
  162.6950  210.4860  156.6220 C   0  0  0  0  0  2  0  0  0  0  0  0
  162.5070  209.1130  156.7680 O   0  0  0  0  0  1  0  0  0  0  0  0
  1  2  1  0  0  0  0
  3  6  1  0  0  0  0
  4 10  1  0  0  0  0
  4  3  2  0  0  0  0
  5  1  2  0  0  0  0
  5 11  1  0  0  0  0
  6  7  2  0  0  0  0
  8 20  1  0  0  0  0
  8  7  1  0  0  0  0
  9  2  1  0  0  0  0
  9  3  1  0  0  0  0
 10  8  2  0  0  0  0
 11  9  2  0  0  0  0
 12 11  1  0  0  0  0
 12  4  1  0  0  0  0
 14 15  2  0  0  0  0
 15  1  1  0  0  0  0
 15 13  1  0  0  0  0
 16 12  1  0  0  0  0
 17 16  1  0  0  0  0
 18 19  1  0  0  0  0
 19 17  1  0  0  0  0
 20 21  1  0  0  0  0
 21 23  1  6  0  0  0
 21 24  1  0  0  0  0
 23 22  1  0  0  0  0
 24 25  1  0  0  0  0
 25 26  1  0  0  0  0
M  END
>  <MODEL>
4

>  <REMARK>
 VINA RESULT:      -7.5      2.217      2.997
  Name = 
  9 active torsions:
  status: ('A' for Active; 'I' for Inactive)
    1  A    between atoms: C_1  and  O_11
    2  A    between atoms: C_3  and  C_20
    3  A    between atoms: C_9  and  C_23
    4  A    between atoms: C_9  and  N_24
    5  A    between atoms: O_11  and  C_21
    6  A    between atoms: C_12  and  C_23
    7  A    between atoms: C_16  and  O_26
    8  A    between atoms: C_21  and  C_25
    9  A    between atoms: C_21  and  O_26
                            x       y       z     vdW  Elec       q    Type
                         _______ _______ _______ _____ _____    ______ ____

>  <TORSDO>
F 9

$$$$
=
 OpenBabel11052411153D

 26 28  0  0  1  0  0  0  0  0999 V2000
  160.9490  207.6500  154.7290 C   0  0  0  0  0  0  0  0  0  0  0  0
  161.1030  208.9110  153.5760 S   0  0  0  0  0  0  0  0  0  0  0  0
  161.4610  207.7920  150.9640 C   0  0  0  0  0  0  0  0  0  0  0  0
  161.5130  206.4430  150.6440 C   0  0  0  0  0  0  0  0  0  0  0  0
  161.0250  206.3810  154.1250 C   0  0  0  0  0  3  0  0  0  0  0  0
  161.6240  208.7930  150.0150 C   0  0  0  0  0  3  0  0  0  0  0  0
  161.8440  208.3860  148.6860 C   0  0  0  0  0  3  0  0  0  0  0  0
  161.9020  207.0160  148.3390 C   0  0  0  0  0  0  0  0  0  0  0  0
  161.2570  207.8240  152.3180 C   0  0  0  0  0  0  0  0  0  0  0  0
  161.7340  206.0250  149.3330 C   0  0  0  0  0  3  0  0  0  0  0  0
  161.1980  206.5490  152.7550 C   0  0  0  0  0  0  0  0  0  0  0  0
  161.3440  205.6670  151.7450 N   0  0  0  0  0  0  0  0  0  0  0  0
  160.1100  207.0510  156.8600 O   0  0  0  0  0  1  0  0  0  0  0  0
  161.3230  208.9910  156.7760 O   0  0  0  0  0  0  0  0  0  0  0  0
  160.7680  207.8720  156.1680 C   0  0  0  0  0  0  0  0  0  0  0  0
  161.4040  204.2150  151.8330 C   0  0  0  0  0  2  0  0  0  0  0  0
  160.4660  203.5950  150.8100 C   0  0  0  0  0  2  0  0  0  0  0  0
  159.9100  201.5230  149.5440 C   0  0  0  0  0  1  0  0  0  0  0  0
  160.9190  202.1910  150.4590 C   0  0  0  0  0  2  0  0  0  0  0  0
  162.1260  206.6730  147.0020 O   0  0  0  0  0  0  0  0  0  0  0  0
  161.3920  205.6500  146.3200 C   0  0  2  0  0  3  0  0  0  0  0  0
  161.5690  203.1980  146.9540 C   0  0  0  0  0  1  0  0  0  0  0  0
  162.1780  204.3420  146.1610 C   0  0  0  0  0  2  0  0  0  0  0  0
  160.8140  206.1000  145.1110 O   0  0  0  0  0  0  0  0  0  0  0  0
  161.1160  205.1890  144.0870 C   0  0  0  0  0  2  0  0  0  0  0  0
  161.5270  205.8850  142.9520 O   0  0  0  0  0  1  0  0  0  0  0  0
  1 15  1  0  0  0  0
  2  1  1  0  0  0  0
  3  9  1  0  0  0  0
  4  3  1  0  0  0  0
  4 12  1  0  0  0  0
  5  1  2  0  0  0  0
  6  3  2  0  0  0  0
  7  6  1  0  0  0  0
  8  7  2  0  0  0  0
  8 10  1  0  0  0  0
  9 11  2  0  0  0  0
  9  2  1  0  0  0  0
 10  4  2  0  0  0  0
 11  5  1  0  0  0  0
 12 16  1  0  0  0  0
 12 11  1  0  0  0  0
 15 14  2  0  0  0  0
 15 13  1  0  0  0  0
 17 16  1  0  0  0  0
 18 19  1  0  0  0  0
 19 17  1  0  0  0  0
 20  8  1  0  0  0  0
 21 23  1  6  0  0  0
 21 20  1  0  0  0  0
 23 22  1  0  0  0  0
 24 21  1  0  0  0  0
 25 24  1  0  0  0  0
 26 25  1  0  0  0  0
M  END
>  <MODEL>
5

>  <REMARK>
 VINA RESULT:      -7.4      2.974      8.041
  Name = 
  9 active torsions:
  status: ('A' for Active; 'I' for Inactive)
    1  A    between atoms: C_1  and  O_11
    2  A    between atoms: C_3  and  C_20
    3  A    between atoms: C_9  and  C_23
    4  A    between atoms: C_9  and  N_24
    5  A    between atoms: O_11  and  C_21
    6  A    between atoms: C_12  and  C_23
    7  A    between atoms: C_16  and  O_26
    8  A    between atoms: C_21  and  C_25
    9  A    between atoms: C_21  and  O_26
                            x       y       z     vdW  Elec       q    Type
                         _______ _______ _______ _____ _____    ______ ____

>  <TORSDO>
F 9

$$$$
=
 OpenBabel11052411153D

 26 28  0  0  1  0  0  0  0  0999 V2000
  161.6100  205.4090  147.0650 C   0  0  0  0  0  0  0  0  0  0  0  0
  161.9710  207.0600  147.3630 S   0  0  0  0  0  0  0  0  0  0  0  0
  161.5510  207.6540  150.1330 C   0  0  0  0  0  0  0  0  0  0  0  0
  161.1180  206.7710  151.1100 C   0  0  0  0  0  0  0  0  0  0  0  0
  161.2080  204.7450  148.2390 C   0  0  0  0  0  3  0  0  0  0  0  0
  161.8030  208.9960  150.3940 C   0  0  0  0  0  3  0  0  0  0  0  0
  161.6030  209.4380  151.7150 C   0  0  0  0  0  3  0  0  0  0  0  0
  161.1600  208.5540  152.7270 C   0  0  0  0  0  0  0  0  0  0  0  0
  161.6170  206.9060  148.9870 C   0  0  0  0  0  0  0  0  0  0  0  0
  160.9120  207.1960  152.4220 C   0  0  0  0  0  3  0  0  0  0  0  0
  161.2350  205.6500  149.2940 C   0  0  0  0  0  0  0  0  0  0  0  0
  160.9270  205.5260  150.6020 N   0  0  0  0  0  0  0  0  0  0  0  0
  161.5760  205.4630  144.6990 O   0  0  0  0  0  0  0  0  0  0  0  0
  161.9350  203.4090  145.6440 O   0  0  0  0  0  1  0  0  0  0  0  0
  161.7040  204.7750  145.7460 C   0  0  0  0  0  0  0  0  0  0  0  0
  160.4120  204.3490  151.2880 C   0  0  0  0  0  2  0  0  0  0  0  0
  161.5640  203.4480  151.7030 C   0  0  0  0  0  2  0  0  0  0  0  0
  160.8130  201.7980  149.9940 C   0  0  0  0  0  1  0  0  0  0  0  0
  161.2170  201.9950  151.4440 C   0  0  0  0  0  2  0  0  0  0  0  0
  160.9780  209.0530  154.0200 O   0  0  0  0  0  0  0  0  0  0  0  0
  161.1720  208.2660  155.2000 C   0  0  2  0  0  3  0  0  0  0  0  0
  160.0860  206.9520  157.0820 C   0  0  0  0  0  1  0  0  0  0  0  0
  159.8590  207.7930  155.8370 C   0  0  0  0  0  2  0  0  0  0  0  0
  162.0520  208.8700  156.1260 O   0  0  0  0  0  0  0  0  0  0  0  0
  162.0440  210.2600  155.9310 C   0  0  0  0  0  2  0  0  0  0  0  0
  163.3450  210.7040  155.7030 O   0  0  0  0  0  1  0  0  0  0  0  0
  1  2  1  0  0  0  0
  1  5  2  0  0  0  0
  2  9  1  0  0  0  0
  3  6  2  0  0  0  0
  3  4  1  0  0  0  0
  4 10  2  0  0  0  0
  5 11  1  0  0  0  0
  6  7  1  0  0  0  0
  7  8  2  0  0  0  0
  8 20  1  0  0  0  0
  9 11  2  0  0  0  0
  9  3  1  0  0  0  0
 10  8  1  0  0  0  0
 11 12  1  0  0  0  0
 12  4  1  0  0  0  0
 12 16  1  0  0  0  0
 13 15  2  0  0  0  0
 14 15  1  0  0  0  0
 15  1  1  0  0  0  0
 16 17  1  0  0  0  0
 18 19  1  0  0  0  0
 19 17  1  0  0  0  0
 20 21  1  0  0  0  0
 21 23  1  1  0  0  0
 21 24  1  0  0  0  0
 23 22  1  0  0  0  0
 25 24  1  0  0  0  0
 26 25  1  0  0  0  0
M  END
>  <MODEL>
6

>  <REMARK>
 VINA RESULT:      -7.2      2.275      4.356
  Name = 
  9 active torsions:
  status: ('A' for Active; 'I' for Inactive)
    1  A    between atoms: C_1  and  O_11
    2  A    between atoms: C_3  and  C_20
    3  A    between atoms: C_9  and  C_23
    4  A    between atoms: C_9  and  N_24
    5  A    between atoms: O_11  and  C_21
    6  A    between atoms: C_12  and  C_23
    7  A    between atoms: C_16  and  O_26
    8  A    between atoms: C_21  and  C_25
    9  A    between atoms: C_21  and  O_26
                            x       y       z     vdW  Elec       q    Type
                         _______ _______ _______ _____ _____    ______ ____

>  <TORSDO>
F 9

$$$$
=
 OpenBabel11052411153D

 26 28  0  0  1  0  0  0  0  0999 V2000
  161.5790  205.2330  146.9960 C   0  0  0  0  0  0  0  0  0  0  0  0
  161.9700  206.8640  147.3590 S   0  0  0  0  0  0  0  0  0  0  0  0
  161.6120  207.3410  150.1610 C   0  0  0  0  0  0  0  0  0  0  0  0
  161.1850  206.4210  151.1060 C   0  0  0  0  0  0  0  0  0  0  0  0
  161.1890  204.5230  148.1470 C   0  0  0  0  0  3  0  0  0  0  0  0
  161.8890  208.6650  150.4760 C   0  0  0  0  0  3  0  0  0  0  0  0
  161.7210  209.0520  151.8190 C   0  0  0  0  0  3  0  0  0  0  0  0
  161.2840  208.1300  152.7990 C   0  0  0  0  0  0  0  0  0  0  0  0
  161.6450  206.6440  148.9820 C   0  0  0  0  0  0  0  0  0  0  0  0
  161.0100  206.7900  152.4390 C   0  0  0  0  0  3  0  0  0  0  0  0
  161.2500  205.3800  149.2410 C   0  0  0  0  0  0  0  0  0  0  0  0
  160.9650  205.2030  150.5480 N   0  0  0  0  0  0  0  0  0  0  0  0
  161.7430  205.4050  144.6410 O   0  0  0  0  0  0  0  0  0  0  0  0
  161.5790  203.2800  145.4760 O   0  0  0  0  0  1  0  0  0  0  0  0
  161.6380  204.6560  145.6490 C   0  0  0  0  0  0  0  0  0  0  0  0
  160.4460  204.0040  151.1910 C   0  0  0  0  0  2  0  0  0  0  0  0
  161.5970  203.1180  151.6390 C   0  0  0  0  0  2  0  0  0  0  0  0
  160.3600  201.7290  149.9810 C   0  0  0  0  0  1  0  0  0  0  0  0
  161.4990  201.7540  150.9830 C   0  0  0  0  0  2  0  0  0  0  0  0
  161.1340  208.5730  154.1160 O   0  0  0  0  0  0  0  0  0  0  0  0
  161.1400  209.9570  154.4850 C   0  0  2  0  0  3  0  0  0  0  0  0
  162.2310  209.6910  156.7620 C   0  0  0  0  0  1  0  0  0  0  0  0
  162.3180  210.3390  155.3900 C   0  0  0  0  0  2  0  0  0  0  0  0
  159.8930  210.4000  154.9790 O   0  0  0  0  0  0  0  0  0  0  0  0
  159.2150  211.0960  153.9660 C   0  0  0  0  0  2  0  0  0  0  0  0
  160.1270  211.8510  153.2310 O   0  0  0  0  0  1  0  0  0  0  0  0
  1  2  1  0  0  0  0
  1  5  2  0  0  0  0
  2  9  1  0  0  0  0
  3  6  2  0  0  0  0
  3  4  1  0  0  0  0
  4 10  2  0  0  0  0
  5 11  1  0  0  0  0
  6  7  1  0  0  0  0
  7  8  2  0  0  0  0
  8 20  1  0  0  0  0
  9 11  2  0  0  0  0
  9  3  1  0  0  0  0
 10  8  1  0  0  0  0
 11 12  1  0  0  0  0
 12  4  1  0  0  0  0
 12 16  1  0  0  0  0
 13 15  2  0  0  0  0
 14 15  1  0  0  0  0
 15  1  1  0  0  0  0
 16 17  1  0  0  0  0
 18 19  1  0  0  0  0
 19 17  1  0  0  0  0
 20 21  1  0  0  0  0
 21 24  1  0  0  0  0
 21 23  1  1  0  0  0
 23 22  1  0  0  0  0
 25 24  1  0  0  0  0
 26 25  1  0  0  0  0
M  END
>  <MODEL>
7

>  <REMARK>
 VINA RESULT:      -7.0      2.377      4.223
  Name = 
  9 active torsions:
  status: ('A' for Active; 'I' for Inactive)
    1  A    between atoms: C_1  and  O_11
    2  A    between atoms: C_3  and  C_20
    3  A    between atoms: C_9  and  C_23
    4  A    between atoms: C_9  and  N_24
    5  A    between atoms: O_11  and  C_21
    6  A    between atoms: C_12  and  C_23
    7  A    between atoms: C_16  and  O_26
    8  A    between atoms: C_21  and  C_25
    9  A    between atoms: C_21  and  O_26
                            x       y       z     vdW  Elec       q    Type
                         _______ _______ _______ _____ _____    ______ ____

>  <TORSDO>
F 9

$$$$
=
 OpenBabel11052411153D

 26 28  0  0  1  0  0  0  0  0999 V2000
  160.7880  203.2080  149.8930 C   0  0  0  0  0  0  0  0  0  0  0  0
  161.1620  204.1800  151.2560 S   0  0  0  0  0  0  0  0  0  0  0  0
  161.5620  206.8910  150.4270 C   0  0  0  0  0  0  0  0  0  0  0  0
  161.4790  207.3790  149.1310 C   0  0  0  0  0  0  0  0  0  0  0  0
  160.7580  203.9650  148.7070 C   0  0  0  0  0  3  0  0  0  0  0  0
  161.9010  207.6940  151.5090 C   0  0  0  0  0  3  0  0  0  0  0  0
  162.1610  209.0510  151.2420 C   0  0  0  0  0  3  0  0  0  0  0  0
  162.0840  209.5690  149.9270 C   0  0  0  0  0  0  0  0  0  0  0  0
  161.2740  205.5560  150.3190 C   0  0  0  0  0  0  0  0  0  0  0  0
  161.7380  208.7200  148.8510 C   0  0  0  0  0  3  0  0  0  0  0  0
  161.0390  205.2900  149.0180 C   0  0  0  0  0  0  0  0  0  0  0  0
  161.1500  206.3970  148.2530 N   0  0  0  0  0  0  0  0  0  0  0  0
  161.3520  201.0040  150.5500 O   0  0  0  0  0  1  0  0  0  0  0  0
  159.4020  201.2240  149.3700 O   0  0  0  0  0  0  0  0  0  0  0  0
  160.5390  201.7630  149.9590 C   0  0  0  0  0  0  0  0  0  0  0  0
  161.0360  206.4930  146.8050 C   0  0  0  0  0  2  0  0  0  0  0  0
  162.3500  206.0880  146.1550 C   0  0  0  0  0  2  0  0  0  0  0  0
  161.0080  204.8460  144.4630 C   0  0  0  0  0  1  0  0  0  0  0  0
  162.1890  204.7760  145.4130 C   0  0  0  0  0  2  0  0  0  0  0  0
  162.3560  210.9250  149.7240 O   0  0  0  0  0  0  0  0  0  0  0  0
  161.5070  211.7900  148.9620 C   0  0  2  0  0  3  0  0  0  0  0  0
  163.7260  212.3680  147.8710 C   0  0  0  0  0  1  0  0  0  0  0  0
  162.2120  212.4230  147.7550 C   0  0  0  0  0  2  0  0  0  0  0  0
  160.8210  212.7320  149.7610 O   0  0  0  0  0  0  0  0  0  0  0  0
  160.2120  213.6860  148.9310 C   0  0  0  0  0  2  0  0  0  0  0  0
  159.1850  214.3210  149.6270 O   0  0  0  0  0  1  0  0  0  0  0  0
  1 15  1  0  0  0  0
  1  2  1  0  0  0  0
  3  6  1  0  0  0  0
  4  3  2  0  0  0  0
  5 11  1  0  0  0  0
  5  1  2  0  0  0  0
  7  6  2  0  0  0  0
  8  7  1  0  0  0  0
  9  3  1  0  0  0  0
  9  2  1  0  0  0  0
 10  4  1  0  0  0  0
 10  8  2  0  0  0  0
 11  9  2  0  0  0  0
 12 11  1  0  0  0  0
 12  4  1  0  0  0  0
 14 15  2  0  0  0  0
 15 13  1  0  0  0  0
 16 12  1  0  0  0  0
 17 16  1  0  0  0  0
 18 19  1  0  0  0  0
 19 17  1  0  0  0  0
 20  8  1  0  0  0  0
 21 23  1  6  0  0  0
 21 20  1  0  0  0  0
 21 24  1  0  0  0  0
 23 22  1  0  0  0  0
 25 26  1  0  0  0  0
 25 24  1  0  0  0  0
M  END
>  <MODEL>
8

>  <REMARK>
 VINA RESULT:      -6.9      3.402      4.477
  Name = 
  9 active torsions:
  status: ('A' for Active; 'I' for Inactive)
    1  A    between atoms: C_1  and  O_11
    2  A    between atoms: C_3  and  C_20
    3  A    between atoms: C_9  and  C_23
    4  A    between atoms: C_9  and  N_24
    5  A    between atoms: O_11  and  C_21
    6  A    between atoms: C_12  and  C_23
    7  A    between atoms: C_16  and  O_26
    8  A    between atoms: C_21  and  C_25
    9  A    between atoms: C_21  and  O_26
                            x       y       z     vdW  Elec       q    Type
                         _______ _______ _______ _____ _____    ______ ____

>  <TORSDO>
F 9

$$$$
=
 OpenBabel11052411153D

 26 28  0  0  1  0  0  0  0  0999 V2000
  161.1780  202.3750  148.5150 C   0  0  0  0  0  0  0  0  0  0  0  0
  161.1800  202.2260  150.2250 S   0  0  0  0  0  0  0  0  0  0  0  0
  161.1490  204.8280  151.4190 C   0  0  0  0  0  0  0  0  0  0  0  0
  161.1400  206.0440  150.7510 C   0  0  0  0  0  0  0  0  0  0  0  0
  161.1520  203.7230  148.1110 C   0  0  0  0  0  3  0  0  0  0  0  0
  161.1870  204.7370  152.8050 C   0  0  0  0  0  3  0  0  0  0  0  0
  161.2110  205.9450  153.5260 C   0  0  0  0  0  3  0  0  0  0  0  0
  161.2040  207.1950  152.8630 C   0  0  0  0  0  0  0  0  0  0  0  0
  161.1410  203.8820  150.4290 C   0  0  0  0  0  0  0  0  0  0  0  0
  161.1680  207.2480  151.4510 C   0  0  0  0  0  3  0  0  0  0  0  0
  161.1300  204.5270  149.2440 C   0  0  0  0  0  0  0  0  0  0  0  0
  161.1210  205.8670  149.4040 N   0  0  0  0  0  0  0  0  0  0  0  0
  161.7050  200.1360  147.9560 O   0  0  0  0  0  1  0  0  0  0  0  0
  160.6810  201.3590  146.3130 O   0  0  0  0  0  0  0  0  0  0  0  0
  161.2060  201.2340  147.5930 C   0  0  0  0  0  0  0  0  0  0  0  0
  161.1760  206.8880  148.3680 C   0  0  0  0  0  2  0  0  0  0  0  0
  161.7420  206.2960  147.0880 C   0  0  0  0  0  2  0  0  0  0  0  0
  161.1340  205.4200  144.8360 C   0  0  0  0  0  1  0  0  0  0  0  0
  160.6880  206.2890  145.9970 C   0  0  0  0  0  2  0  0  0  0  0  0
  161.2310  208.3620  153.6340 O   0  0  0  0  0  0  0  0  0  0  0  0
  161.1880  209.6770  153.0700 C   0  0  2  0  0  3  0  0  0  0  0  0
  162.2770  210.1870  155.3060 C   0  0  0  0  0  1  0  0  0  0  0  0
  161.7020  210.7630  154.0230 C   0  0  0  0  0  2  0  0  0  0  0  0
  159.9360  209.9890  152.4950 O   0  0  0  0  0  0  0  0  0  0  0  0
  159.6820  211.3600  152.6590 C   0  0  0  0  0  2  0  0  0  0  0  0
  158.3090  211.5900  152.5930 O   0  0  0  0  0  1  0  0  0  0  0  0
  1  2  1  0  0  0  0
  2  9  1  0  0  0  0
  3  6  1  0  0  0  0
  4  3  2  0  0  0  0
  4 10  1  0  0  0  0
  5  1  2  0  0  0  0
  5 11  1  0  0  0  0
  6  7  2  0  0  0  0
  8  7  1  0  0  0  0
  8 20  1  0  0  0  0
  9  3  1  0  0  0  0
 10  8  2  0  0  0  0
 11 12  1  0  0  0  0
 11  9  2  0  0  0  0
 12  4  1  0  0  0  0
 14 15  2  0  0  0  0
 15 13  1  0  0  0  0
 15  1  1  0  0  0  0
 16 12  1  0  0  0  0
 17 16  1  0  0  0  0
 18 19  1  0  0  0  0
 19 17  1  0  0  0  0
 21 20  1  0  0  0  0
 21 23  1  1  0  0  0
 23 22  1  0  0  0  0
 24 25  1  0  0  0  0
 24 21  1  0  0  0  0
 26 25  1  0  0  0  0
M  END
>  <MODEL>
9

>  <REMARK>
 VINA RESULT:      -6.9      1.651      2.208
  Name = 
  9 active torsions:
  status: ('A' for Active; 'I' for Inactive)
    1  A    between atoms: C_1  and  O_11
    2  A    between atoms: C_3  and  C_20
    3  A    between atoms: C_9  and  C_23
    4  A    between atoms: C_9  and  N_24
    5  A    between atoms: O_11  and  C_21
    6  A    between atoms: C_12  and  C_23
    7  A    between atoms: C_16  and  O_26
    8  A    between atoms: C_21  and  C_25
    9  A    between atoms: C_21  and  O_26
                            x       y       z     vdW  Elec       q    Type
                         _______ _______ _______ _____ _____    ______ ____

>  <TORSDO>
F 9

$$$$
