=
 OpenBabel11052409513D

 26 27  0  0  1  0  0  0  0  0999 V2000
  160.8030  202.0420  147.7330 C   0  0  0  0  0  0  0  0  0  0  0  0
  160.9130  202.9140  149.8630 N   0  0  0  0  0  0  0  0  0  0  0  0
  161.2590  203.1730  148.5100 C   0  0  0  0  0  0  0  0  0  0  0  0
  160.9220  201.8810  146.4890 O   0  0  0  0  0  0  0  0  0  0  0  0
  161.8500  204.2980  148.0750 C   0  0  0  0  0  0  0  0  0  0  0  0
  160.2130  201.1220  148.5780 O   0  0  0  0  0  0  0  0  0  0  0  0
  160.2530  201.6060  149.9210 C   0  0  0  0  0  3  0  0  0  0  0  0
  163.3710  204.6720  146.2900 O   0  0  0  0  0  1  0  0  0  0  0  0
  162.0180  204.5460  146.6060 C   0  0  2  0  0  3  0  0  0  0  0  0
  161.2630  205.8070  146.1980 C   0  0  0  0  0  2  0  0  0  0  0  0
  160.4460  205.5940  144.9300 C   0  0  0  0  0  0  0  0  0  0  0  0
  159.1660  206.0660  145.1330 F   0  0  0  0  0  0  0  0  0  0  0  0
  160.3850  204.2450  144.6240 F   0  0  0  0  0  0  0  0  0  0  0  0
  161.0150  206.2810  143.8730 F   0  0  0  0  0  0  0  0  0  0  0  0
  162.2040  205.3490  148.9880 N   0  0  0  0  0  2  0  0  0  0  0  0
  161.5540  205.7980  151.3350 C   0  0  0  0  0  2  0  0  0  0  0  0
  161.0270  206.9490  152.1880 C   0  0  0  0  0  2  0  0  0  0  0  0
  161.2620  206.0550  149.8560 C   0  0  0  0  0  3  0  0  0  0  0  0
  161.6710  208.2350  151.8590 N   0  0  0  0  0  0  0  0  0  0  0  0
  162.0590  208.3680  150.4430 C   0  0  0  0  0  2  0  0  0  0  0  0
  161.1750  207.5440  149.5050 C   0  0  0  0  0  2  0  0  0  0  0  0
  160.6950  209.2810  152.1370 C   0  0  0  0  0  2  0  0  0  0  0  0
  161.2700  210.2780  152.9770 O   0  0  0  0  0  0  0  0  0  0  0  0
  161.3460  210.1440  154.3670 C   0  0  0  0  0  0  0  0  0  0  0  0
  162.2480  210.7560  154.9980 O   0  0  0  0  0  0  0  0  0  0  0  0
  160.3870  209.2840  155.1240 C   0  0  0  0  0  1  0  0  0  0  0  0
  1  3  1  0  0  0  0
  1  6  1  0  0  0  0
  2  7  2  0  0  0  0
  3  2  1  0  0  0  0
  4  1  2  0  0  0  0
  5  3  2  0  0  0  0
  5 15  1  0  0  0  0
  6  7  1  0  0  0  0
  9  8  1  1  0  0  0
  9  5  1  0  0  0  0
 10  9  1  0  0  0  0
 11 12  1  0  0  0  0
 11 10  1  0  0  0  0
 13 11  1  0  0  0  0
 14 11  1  0  0  0  0
 15 18  1  0  0  0  0
 16 17  1  0  0  0  0
 18 16  1  0  0  0  0
 19 22  1  0  0  0  0
 19 17  1  0  0  0  0
 20 19  1  0  0  0  0
 21 18  1  0  0  0  0
 21 20  1  0  0  0  0
 22 23  1  0  0  0  0
 23 24  1  0  0  0  0
 24 25  2  0  0  0  0
 24 26  1  0  0  0  0
M  END
>  <MODEL>
1

>  <REMARK>
 VINA RESULT:      -7.0      0.000      0.000
  Name = 
  8 active torsions:
  status: ('A' for Active; 'I' for Inactive)
    1  A    between atoms: C_3  and  C_20
    2  A    between atoms: C_4  and  N_18
    3  A    between atoms: C_4  and  O_19
    4  A    between atoms: C_7  and  O_19
    5  A    between atoms: C_10  and  C_14
    6  A    between atoms: C_10  and  C_20
    7  A    between atoms: C_14  and  N_21
    8  A    between atoms: C_16  and  N_21
                            x       y       z     vdW  Elec       q    Type
                         _______ _______ _______ _____ _____    ______ ____

>  <TORSDO>
F 8

$$$$
=
 OpenBabel11052409513D

 26 27  0  0  1  0  0  0  0  0999 V2000
  161.4070  203.4180  148.6250 C   0  0  0  0  0  0  0  0  0  0  0  0
  160.5020  204.2460  150.5760 N   0  0  0  0  0  0  0  0  0  0  0  0
  161.1120  204.6330  149.3530 C   0  0  0  0  0  0  0  0  0  0  0  0
  161.9550  203.3270  147.4950 O   0  0  0  0  0  0  0  0  0  0  0  0
  161.3090  205.9040  148.9650 C   0  0  0  0  0  0  0  0  0  0  0  0
  161.0050  202.3320  149.3780 O   0  0  0  0  0  0  0  0  0  0  0  0
  160.4360  202.7820  150.6080 C   0  0  0  0  0  3  0  0  0  0  0  0
  162.4770  207.4290  147.5680 O   0  0  0  0  0  1  0  0  0  0  0  0
  161.8040  206.2050  147.5830 C   0  0  2  0  0  3  0  0  0  0  0  0
  160.6360  206.2370  146.6030 C   0  0  0  0  0  2  0  0  0  0  0  0
  161.0340  205.7120  145.2280 C   0  0  0  0  0  0  0  0  0  0  0  0
  162.4100  205.6540  145.1500 F   0  0  0  0  0  0  0  0  0  0  0  0
  160.5620  206.5600  144.2410 F   0  0  0  0  0  0  0  0  0  0  0  0
  160.5190  204.4440  145.0320 F   0  0  0  0  0  0  0  0  0  0  0  0
  160.9160  207.0020  149.8030 N   0  0  0  0  0  2  0  0  0  0  0  0
  162.0710  209.0870  150.4780 C   0  0  0  0  0  2  0  0  0  0  0  0
  162.3930  209.8700  151.7480 C   0  0  0  0  0  2  0  0  0  0  0  0
  161.7680  207.6260  150.8160 C   0  0  0  0  0  3  0  0  0  0  0  0
  161.2650  209.8930  152.6980 N   0  0  0  0  0  0  0  0  0  0  0  0
  160.4280  208.6800  152.6660 C   0  0  0  0  0  2  0  0  0  0  0  0
  161.2010  207.4350  152.2280 C   0  0  0  0  0  2  0  0  0  0  0  0
  161.8370  209.9860  154.0350 C   0  0  0  0  0  2  0  0  0  0  0  0
  160.8920  209.5450  155.0050 O   0  0  0  0  0  0  0  0  0  0  0  0
  161.2370  208.7040  156.0680 C   0  0  0  0  0  0  0  0  0  0  0  0
  162.2630  208.9630  156.7520 O   0  0  0  0  0  0  0  0  0  0  0  0
  160.4240  207.4980  156.4100 C   0  0  0  0  0  1  0  0  0  0  0  0
  1  3  1  0  0  0  0
  1  6  1  0  0  0  0
  2  7  2  0  0  0  0
  3  2  1  0  0  0  0
  4  1  2  0  0  0  0
  5  3  2  0  0  0  0
  5 15  1  0  0  0  0
  6  7  1  0  0  0  0
  9  8  1  1  0  0  0
  9  5  1  0  0  0  0
 10  9  1  0  0  0  0
 11 10  1  0  0  0  0
 12 11  1  0  0  0  0
 13 11  1  0  0  0  0
 14 11  1  0  0  0  0
 15 18  1  0  0  0  0
 16 18  1  0  0  0  0
 16 17  1  0  0  0  0
 17 19  1  0  0  0  0
 18 21  1  0  0  0  0
 19 22  1  0  0  0  0
 20 19  1  0  0  0  0
 21 20  1  0  0  0  0
 22 23  1  0  0  0  0
 23 24  1  0  0  0  0
 24 26  1  0  0  0  0
 24 25  2  0  0  0  0
M  END
>  <MODEL>
2

>  <REMARK>
 VINA RESULT:      -7.0      1.566      2.263
  Name = 
  8 active torsions:
  status: ('A' for Active; 'I' for Inactive)
    1  A    between atoms: C_3  and  C_20
    2  A    between atoms: C_4  and  N_18
    3  A    between atoms: C_4  and  O_19
    4  A    between atoms: C_7  and  O_19
    5  A    between atoms: C_10  and  C_14
    6  A    between atoms: C_10  and  C_20
    7  A    between atoms: C_14  and  N_21
    8  A    between atoms: C_16  and  N_21
                            x       y       z     vdW  Elec       q    Type
                         _______ _______ _______ _____ _____    ______ ____

>  <TORSDO>
F 8

$$$$
=
 OpenBabel11052409513D

 26 27  0  0  1  0  0  0  0  0999 V2000
  161.7200  209.6790  151.3160 C   0  0  0  0  0  0  0  0  0  0  0  0
  162.1290  209.6710  149.0470 N   0  0  0  0  0  0  0  0  0  0  0  0
  162.0280  208.8280  150.1860 C   0  0  0  0  0  0  0  0  0  0  0  0
  161.5550  209.3190  152.5110 O   0  0  0  0  0  0  0  0  0  0  0  0
  162.1500  207.4910  150.1600 C   0  0  1  0  0  3  0  0  0  0  0  0
  161.6490  210.9900  150.8860 O   0  0  0  0  0  0  0  0  0  0  0  0
  161.8970  211.0520  149.4810 C   0  0  0  0  0  2  0  0  0  0  0  0
  163.0460  206.2190  151.9550 O   0  0  0  0  0  1  0  0  0  0  0  0
  161.8570  206.6800  151.3880 C   0  0  2  0  0  3  0  0  0  0  0  0
  160.9530  205.5040  151.0340 C   0  0  0  0  0  2  0  0  0  0  0  0
  161.1300  204.3420  152.0030 C   0  0  0  0  0  0  0  0  0  0  0  0
  160.0620  203.4790  151.8720 F   0  0  0  0  0  0  0  0  0  0  0  0
  161.1720  204.8100  153.3050 F   0  0  0  0  0  0  0  0  0  0  0  0
  162.2970  203.6570  151.7210 F   0  0  0  0  0  0  0  0  0  0  0  0
  162.4200  206.7960  148.9330 N   0  0  0  0  0  2  0  0  0  0  0  0
  160.8830  207.0020  147.0020 C   0  0  0  0  0  2  0  0  0  0  0  0
  160.3550  206.1520  145.8500 C   0  0  0  0  0  2  0  0  0  0  0  0
  161.4150  206.1080  148.1230 C   0  0  0  0  0  3  0  0  0  0  0  0
  161.4040  205.3110  145.2430 N   0  0  0  0  0  0  0  0  0  0  0  0
  162.4390  204.8630  146.1920 C   0  0  0  0  0  2  0  0  0  0  0  0
  161.9210  204.7490  147.6270 C   0  0  0  0  0  2  0  0  0  0  0  0
  160.7460  204.1160  144.7290 C   0  0  0  0  0  2  0  0  0  0  0  0
  161.3720  202.9480  145.2510 O   0  0  0  0  0  0  0  0  0  0  0  0
  160.6500  201.8230  145.6600 C   0  0  0  0  0  0  0  0  0  0  0  0
  159.7730  201.3400  144.8940 O   0  0  0  0  0  0  0  0  0  0  0  0
  160.8840  201.1800  146.9880 C   0  0  0  0  0  1  0  0  0  0  0  0
  1  4  2  0  0  0  0
  2  7  1  0  0  0  0
  2  3  2  0  0  0  0
  3  1  1  0  0  0  0
  5 15  1  6  0  0  0
  5  3  1  0  0  0  0
  5  9  1  0  0  0  0
  6  1  1  0  0  0  0
  7  6  1  0  0  0  0
  9  8  1  6  0  0  0
 10  9  1  0  0  0  0
 10 11  1  0  0  0  0
 11 13  1  0  0  0  0
 12 11  1  0  0  0  0
 14 11  1  0  0  0  0
 16 18  1  0  0  0  0
 17 16  1  0  0  0  0
 18 15  1  0  0  0  0
 19 17  1  0  0  0  0
 19 20  1  0  0  0  0
 20 21  1  0  0  0  0
 21 18  1  0  0  0  0
 22 19  1  0  0  0  0
 22 23  1  0  0  0  0
 23 24  1  0  0  0  0
 24 26  1  0  0  0  0
 25 24  2  0  0  0  0
M  END
>  <MODEL>
3

>  <REMARK>
 VINA RESULT:      -6.8      3.352      7.911
  Name = 
  8 active torsions:
  status: ('A' for Active; 'I' for Inactive)
    1  A    between atoms: C_3  and  C_20
    2  A    between atoms: C_4  and  N_18
    3  A    between atoms: C_4  and  O_19
    4  A    between atoms: C_7  and  O_19
    5  A    between atoms: C_10  and  C_14
    6  A    between atoms: C_10  and  C_20
    7  A    between atoms: C_14  and  N_21
    8  A    between atoms: C_16  and  N_21
                            x       y       z     vdW  Elec       q    Type
                         _______ _______ _______ _____ _____    ______ ____

>  <TORSDO>
F 8

$$$$
=
 OpenBabel11052409513D

 26 27  0  0  1  0  0  0  0  0999 V2000
  161.6900  203.8510  146.4510 C   0  0  0  0  0  0  0  0  0  0  0  0
  161.4890  206.1450  146.5470 N   0  0  0  0  0  0  0  0  0  0  0  0
  161.3270  204.9580  147.3100 C   0  0  0  0  0  0  0  0  0  0  0  0
  161.6780  202.6270  146.7500 O   0  0  0  0  0  0  0  0  0  0  0  0
  160.9560  204.9240  148.6000 C   0  0  1  0  0  3  0  0  0  0  0  0
  162.0470  204.3410  145.2100 O   0  0  0  0  0  0  0  0  0  0  0  0
  161.9390  205.7650  145.2040 C   0  0  0  0  0  2  0  0  0  0  0  0
  160.2420  202.6600  148.6840 O   0  0  0  0  0  1  0  0  0  0  0  0
  160.9810  203.6310  149.3610 C   0  0  2  0  0  3  0  0  0  0  0  0
  160.4160  203.8380  150.7620 C   0  0  0  0  0  2  0  0  0  0  0  0
  161.4510  203.5400  151.8410 C   0  0  0  0  0  0  0  0  0  0  0  0
  161.6970  202.1830  151.8650 F   0  0  0  0  0  0  0  0  0  0  0  0
  160.9740  203.9330  153.0790 F   0  0  0  0  0  0  0  0  0  0  0  0
  162.6310  204.2050  151.5690 F   0  0  0  0  0  0  0  0  0  0  0  0
  160.6680  206.1330  149.3200 N   0  0  0  0  0  2  0  0  0  0  0  0
  161.6820  208.3900  149.2250 C   0  0  0  0  0  2  0  0  0  0  0  0
  162.2350  209.4490  150.1760 C   0  0  0  0  0  2  0  0  0  0  0  0
  161.6760  207.0190  149.9020 C   0  0  0  0  0  3  0  0  0  0  0  0
  161.4170  209.5950  151.3950 N   0  0  0  0  0  0  0  0  0  0  0  0
  160.7700  208.3470  151.8370 C   0  0  0  0  0  2  0  0  0  0  0  0
  161.5490  207.0960  151.4280 C   0  0  0  0  0  2  0  0  0  0  0  0
  162.3180  210.0140  152.4620 C   0  0  0  0  0  2  0  0  0  0  0  0
  161.5940  210.7190  153.4660 O   0  0  0  0  0  0  0  0  0  0  0  0
  161.6360  210.3650  154.8180 C   0  0  0  0  0  0  0  0  0  0  0  0
  162.6190  210.7230  155.5200 O   0  0  0  0  0  0  0  0  0  0  0  0
  160.5480  209.5620  155.4520 C   0  0  0  0  0  1  0  0  0  0  0  0
  1  4  2  0  0  0  0
  1  3  1  0  0  0  0
  2  3  2  0  0  0  0
  3  5  1  0  0  0  0
  5 15  1  1  0  0  0
  5  9  1  0  0  0  0
  6  1  1  0  0  0  0
  7  6  1  0  0  0  0
  7  2  1  0  0  0  0
  9  8  1  6  0  0  0
  9 10  1  0  0  0  0
 10 11  1  0  0  0  0
 11 12  1  0  0  0  0
 11 13  1  0  0  0  0
 14 11  1  0  0  0  0
 15 18  1  0  0  0  0
 16 18  1  0  0  0  0
 16 17  1  0  0  0  0
 17 19  1  0  0  0  0
 18 21  1  0  0  0  0
 19 20  1  0  0  0  0
 19 22  1  0  0  0  0
 21 20  1  0  0  0  0
 22 23  1  0  0  0  0
 23 24  1  0  0  0  0
 24 26  1  0  0  0  0
 24 25  2  0  0  0  0
M  END
>  <MODEL>
4

>  <REMARK>
 VINA RESULT:      -6.5      2.959      4.189
  Name = 
  8 active torsions:
  status: ('A' for Active; 'I' for Inactive)
    1  A    between atoms: C_3  and  C_20
    2  A    between atoms: C_4  and  N_18
    3  A    between atoms: C_4  and  O_19
    4  A    between atoms: C_7  and  O_19
    5  A    between atoms: C_10  and  C_14
    6  A    between atoms: C_10  and  C_20
    7  A    between atoms: C_14  and  N_21
    8  A    between atoms: C_16  and  N_21
                            x       y       z     vdW  Elec       q    Type
                         _______ _______ _______ _____ _____    ______ ____

>  <TORSDO>
F 8

$$$$
=
 OpenBabel11052409513D

 26 27  0  0  1  0  0  0  0  0999 V2000
  162.2470  209.1130  150.6250 C   0  0  0  0  0  0  0  0  0  0  0  0
  161.3280  207.6080  149.1390 N   0  0  0  0  0  0  0  0  0  0  0  0
  161.6560  207.7970  150.5090 C   0  0  0  0  0  0  0  0  0  0  0  0
  162.6760  209.6590  151.6750 O   0  0  0  0  0  0  0  0  0  0  0  0
  161.3950  206.9130  151.4850 C   0  0  1  0  0  3  0  0  0  0  0  0
  162.2910  209.6990  149.3750 O   0  0  0  0  0  0  0  0  0  0  0  0
  161.7360  208.8100  148.4050 C   0  0  0  0  0  2  0  0  0  0  0  0
  161.9120  206.1380  153.6710 O   0  0  0  0  0  1  0  0  0  0  0  0
  161.6260  207.2800  152.9210 C   0  0  2  0  0  3  0  0  0  0  0  0
  160.3960  207.9850  153.4850 C   0  0  0  0  0  2  0  0  0  0  0  0
  160.4640  208.1180  155.0010 C   0  0  0  0  0  0  0  0  0  0  0  0
  159.7600  209.2400  155.3870 F   0  0  0  0  0  0  0  0  0  0  0  0
  161.7810  208.2510  155.4080 F   0  0  0  0  0  0  0  0  0  0  0  0
  159.9050  207.0080  155.6050 F   0  0  0  0  0  0  0  0  0  0  0  0
  160.7610  205.6570  151.1970 N   0  0  0  0  0  2  0  0  0  0  0  0
  161.1290  203.2740  151.7640 C   0  0  0  0  0  2  0  0  0  0  0  0
  161.3340  201.9370  151.0570 C   0  0  0  0  0  2  0  0  0  0  0  0
  161.4650  204.4320  150.8220 C   0  0  0  0  0  3  0  0  0  0  0  0
  160.4560  201.7800  149.8820 N   0  0  0  0  0  0  0  0  0  0  0  0
  160.1510  203.0430  149.1860 C   0  0  0  0  0  2  0  0  0  0  0  0
  161.2570  204.0890  149.3420 C   0  0  0  0  0  2  0  0  0  0  0  0
  161.1630  200.9260  148.9350 C   0  0  0  0  0  2  0  0  0  0  0  0
  161.1300  201.5050  147.6340 O   0  0  0  0  0  0  0  0  0  0  0  0
  160.9430  200.7470  146.4740 C   0  0  0  0  0  0  0  0  0  0  0  0
  161.4050  199.5760  146.4210 O   0  0  0  0  0  0  0  0  0  0  0  0
  160.2170  201.2940  145.2890 C   0  0  0  0  0  1  0  0  0  0  0  0
  1  4  2  0  0  0  0
  2  3  2  0  0  0  0
  3  1  1  0  0  0  0
  3  5  1  0  0  0  0
  5 15  1  1  0  0  0
  5  9  1  0  0  0  0
  6  1  1  0  0  0  0
  7  2  1  0  0  0  0
  7  6  1  0  0  0  0
  9 10  1  0  0  0  0
  9  8  1  1  0  0  0
 10 11  1  0  0  0  0
 11 12  1  0  0  0  0
 11 13  1  0  0  0  0
 11 14  1  0  0  0  0
 17 16  1  0  0  0  0
 18 15  1  0  0  0  0
 18 16  1  0  0  0  0
 19 17  1  0  0  0  0
 20 21  1  0  0  0  0
 20 19  1  0  0  0  0
 21 18  1  0  0  0  0
 22 19  1  0  0  0  0
 23 22  1  0  0  0  0
 24 23  1  0  0  0  0
 25 24  2  0  0  0  0
 26 24  1  0  0  0  0
M  END
>  <MODEL>
5

>  <REMARK>
 VINA RESULT:      -6.5      4.363      8.430
  Name = 
  8 active torsions:
  status: ('A' for Active; 'I' for Inactive)
    1  A    between atoms: C_3  and  C_20
    2  A    between atoms: C_4  and  N_18
    3  A    between atoms: C_4  and  O_19
    4  A    between atoms: C_7  and  O_19
    5  A    between atoms: C_10  and  C_14
    6  A    between atoms: C_10  and  C_20
    7  A    between atoms: C_14  and  N_21
    8  A    between atoms: C_16  and  N_21
                            x       y       z     vdW  Elec       q    Type
                         _______ _______ _______ _____ _____    ______ ____

>  <TORSDO>
F 8

$$$$
=
 OpenBabel11052409513D

 26 27  0  0  1  0  0  0  0  0999 V2000
  161.2510  204.0050  146.1600 C   0  0  0  0  0  0  0  0  0  0  0  0
  162.3880  205.9330  146.7140 N   0  0  0  0  0  0  0  0  0  0  0  0
  161.6320  204.8620  147.2620 C   0  0  0  0  0  0  0  0  0  0  0  0
  160.5680  202.9490  146.2240 O   0  0  0  0  0  0  0  0  0  0  0  0
  161.3890  204.6910  148.5720 C   0  0  1  0  0  3  0  0  0  0  0  0
  161.7420  204.5380  144.9840 O   0  0  0  0  0  0  0  0  0  0  0  0
  162.4590  205.7420  145.2620 C   0  0  0  0  0  2  0  0  0  0  0  0
  160.2020  203.6380  150.3390 O   0  0  0  0  0  1  0  0  0  0  0  0
  160.7270  203.4380  149.0620 C   0  0  2  0  0  3  0  0  0  0  0  0
  161.7300  202.2890  149.0800 C   0  0  0  0  0  2  0  0  0  0  0  0
  161.0370  200.9310  149.1070 C   0  0  0  0  0  0  0  0  0  0  0  0
  159.7000  201.1020  148.8150 F   0  0  0  0  0  0  0  0  0  0  0  0
  161.1550  200.3630  150.3640 F   0  0  0  0  0  0  0  0  0  0  0  0
  161.5980  200.0890  148.1650 F   0  0  0  0  0  0  0  0  0  0  0  0
  161.8810  205.6260  149.5450 N   0  0  0  0  0  2  0  0  0  0  0  0
  161.1580  206.5790  151.7130 C   0  0  0  0  0  2  0  0  0  0  0  0
  160.8670  207.9410  152.3380 C   0  0  0  0  0  2  0  0  0  0  0  0
  161.0750  206.6630  150.1890 C   0  0  0  0  0  3  0  0  0  0  0  0
  161.8440  208.9690  151.9290 N   0  0  0  0  0  0  0  0  0  0  0  0
  162.3780  208.7820  150.5680 C   0  0  0  0  0  2  0  0  0  0  0  0
  161.4020  208.0570  149.6400 C   0  0  0  0  0  2  0  0  0  0  0  0
  161.1450  210.2480  151.9440 C   0  0  0  0  0  2  0  0  0  0  0  0
  160.3030  210.3330  153.0900 O   0  0  0  0  0  0  0  0  0  0  0  0
  160.3210  211.4270  153.9610 C   0  0  0  0  0  0  0  0  0  0  0  0
  159.8600  212.5330  153.5720 O   0  0  0  0  0  0  0  0  0  0  0  0
  160.8810  211.3210  155.3420 C   0  0  0  0  0  1  0  0  0  0  0  0
  1  4  2  0  0  0  0
  1  3  1  0  0  0  0
  2  3  2  0  0  0  0
  3  5  1  0  0  0  0
  5  9  1  0  0  0  0
  5 15  1  1  0  0  0
  6  7  1  0  0  0  0
  6  1  1  0  0  0  0
  7  2  1  0  0  0  0
  9 10  1  0  0  0  0
  9  8  1  1  0  0  0
 10 11  1  0  0  0  0
 11 13  1  0  0  0  0
 12 11  1  0  0  0  0
 14 11  1  0  0  0  0
 15 18  1  0  0  0  0
 16 17  1  0  0  0  0
 18 16  1  0  0  0  0
 19 22  1  0  0  0  0
 19 17  1  0  0  0  0
 20 19  1  0  0  0  0
 21 18  1  0  0  0  0
 21 20  1  0  0  0  0
 22 23  1  0  0  0  0
 23 24  1  0  0  0  0
 24 26  1  0  0  0  0
 25 24  2  0  0  0  0
M  END
>  <MODEL>
6

>  <REMARK>
 VINA RESULT:      -6.2      2.598      3.774
  Name = 
  8 active torsions:
  status: ('A' for Active; 'I' for Inactive)
    1  A    between atoms: C_3  and  C_20
    2  A    between atoms: C_4  and  N_18
    3  A    between atoms: C_4  and  O_19
    4  A    between atoms: C_7  and  O_19
    5  A    between atoms: C_10  and  C_14
    6  A    between atoms: C_10  and  C_20
    7  A    between atoms: C_14  and  N_21
    8  A    between atoms: C_16  and  N_21
                            x       y       z     vdW  Elec       q    Type
                         _______ _______ _______ _____ _____    ______ ____

>  <TORSDO>
F 8

$$$$
=
 OpenBabel11052409513D

 26 27  0  0  1  0  0  0  0  0999 V2000
  161.6690  208.0200  148.8200 C   0  0  0  0  0  0  0  0  0  0  0  0
  162.0840  209.4250  150.6000 N   0  0  0  0  0  0  0  0  0  0  0  0
  161.7540  208.0850  150.2630 C   0  0  0  0  0  0  0  0  0  0  0  0
  161.3940  207.0080  148.1240 O   0  0  0  0  0  0  0  0  0  0  0  0
  161.6110  207.0880  151.1520 C   0  0  1  0  0  3  0  0  0  0  0  0
  161.9240  209.2730  148.2970 O   0  0  0  0  0  0  0  0  0  0  0  0
  162.1870  210.1940  149.3560 C   0  0  0  0  0  2  0  0  0  0  0  0
  160.0820  205.4190  150.4310 O   0  0  0  0  0  1  0  0  0  0  0  0
  161.4310  205.6750  150.6810 C   0  0  2  0  0  3  0  0  0  0  0  0
  161.9650  204.7030  151.7270 C   0  0  0  0  0  2  0  0  0  0  0  0
  161.3410  203.3200  151.5880 C   0  0  0  0  0  0  0  0  0  0  0  0
  162.2810  202.3660  151.9160 F   0  0  0  0  0  0  0  0  0  0  0  0
  160.9270  203.1150  150.2830 F   0  0  0  0  0  0  0  0  0  0  0  0
  160.2590  203.1950  152.4390 F   0  0  0  0  0  0  0  0  0  0  0  0
  161.7700  207.3220  152.5600 N   0  0  0  0  0  2  0  0  0  0  0  0
  160.6640  207.0370  154.7570 C   0  0  0  0  0  2  0  0  0  0  0  0
  160.0570  207.8930  155.8650 C   0  0  0  0  0  2  0  0  0  0  0  0
  160.7200  207.8230  153.4470 C   0  0  0  0  0  3  0  0  0  0  0  0
  160.8560  209.1020  156.1450 N   0  0  0  0  0  0  0  0  0  0  0  0
  161.5500  209.6490  154.9650 C   0  0  0  0  0  2  0  0  0  0  0  0
  160.8280  209.3380  153.6530 C   0  0  0  0  0  2  0  0  0  0  0  0
  159.9280  210.1250  156.6100 C   0  0  0  0  0  2  0  0  0  0  0  0
  158.6700  209.9810  155.9570 O   0  0  0  0  0  0  0  0  0  0  0  0
  157.9900  211.0580  155.3810 C   0  0  0  0  0  0  0  0  0  0  0  0
  158.6480  211.9780  154.8260 O   0  0  0  0  0  0  0  0  0  0  0  0
  156.5000  211.1520  155.4130 C   0  0  0  0  0  1  0  0  0  0  0  0
  1  3  1  0  0  0  0
  3  2  2  0  0  0  0
  3  5  1  0  0  0  0
  4  1  2  0  0  0  0
  5 15  1  1  0  0  0
  6  1  1  0  0  0  0
  6  7  1  0  0  0  0
  7  2  1  0  0  0  0
  9  8  1  1  0  0  0
  9  5  1  0  0  0  0
  9 10  1  0  0  0  0
 11 10  1  0  0  0  0
 11 12  1  0  0  0  0
 11 14  1  0  0  0  0
 13 11  1  0  0  0  0
 15 18  1  0  0  0  0
 16 17  1  0  0  0  0
 17 19  1  0  0  0  0
 18 21  1  0  0  0  0
 18 16  1  0  0  0  0
 19 22  1  0  0  0  0
 20 19  1  0  0  0  0
 21 20  1  0  0  0  0
 23 22  1  0  0  0  0
 24 26  1  0  0  0  0
 24 23  1  0  0  0  0
 25 24  2  0  0  0  0
M  END
>  <MODEL>
7

>  <REMARK>
 VINA RESULT:      -6.1      3.729      5.642
  Name = 
  8 active torsions:
  status: ('A' for Active; 'I' for Inactive)
    1  A    between atoms: C_3  and  C_20
    2  A    between atoms: C_4  and  N_18
    3  A    between atoms: C_4  and  O_19
    4  A    between atoms: C_7  and  O_19
    5  A    between atoms: C_10  and  C_14
    6  A    between atoms: C_10  and  C_20
    7  A    between atoms: C_14  and  N_21
    8  A    between atoms: C_16  and  N_21
                            x       y       z     vdW  Elec       q    Type
                         _______ _______ _______ _____ _____    ______ ____

>  <TORSDO>
F 8

$$$$
=
 OpenBabel11052409513D

 26 27  0  0  1  0  0  0  0  0999 V2000
  160.7520  211.5680  155.9370 C   0  0  0  0  0  0  0  0  0  0  0  0
  162.3320  209.9700  155.4230 N   0  0  0  0  0  0  0  0  0  0  0  0
  161.2690  210.7340  154.8730 C   0  0  0  0  0  0  0  0  0  0  0  0
  159.8010  212.3890  155.8600 O   0  0  0  0  0  0  0  0  0  0  0  0
  160.8860  210.6950  153.5860 C   0  0  0  0  0  0  0  0  0  0  0  0
  161.4630  211.3140  157.0940 O   0  0  0  0  0  0  0  0  0  0  0  0
  162.4610  210.3240  156.8400 C   0  0  0  0  0  3  0  0  0  0  0  0
  158.5950  211.0900  153.1010 O   0  0  0  0  0  1  0  0  0  0  0  0
  159.8660  211.6650  153.0700 C   0  0  2  0  0  3  0  0  0  0  0  0
  160.2180  212.0860  151.6470 C   0  0  0  0  0  2  0  0  0  0  0  0
  159.5560  213.4050  151.2660 C   0  0  0  0  0  0  0  0  0  0  0  0
  160.4510  214.1660  150.5430 F   0  0  0  0  0  0  0  0  0  0  0  0
  159.1920  214.1010  152.4050 F   0  0  0  0  0  0  0  0  0  0  0  0
  158.4360  213.1720  150.4890 F   0  0  0  0  0  0  0  0  0  0  0  0
  161.5400  209.8290  152.6460 N   0  0  0  0  0  2  0  0  0  0  0  0
  161.5750  208.3620  150.6510 C   0  0  0  0  0  2  0  0  0  0  0  0
  161.3730  206.8910  150.2940 C   0  0  0  0  0  2  0  0  0  0  0  0
  160.9140  208.6800  151.9920 C   0  0  0  0  0  3  0  0  0  0  0  0
  161.9870  205.9830  151.2800 N   0  0  0  0  0  0  0  0  0  0  0  0
  161.9880  206.5050  152.6590 C   0  0  0  0  0  2  0  0  0  0  0  0
  160.8330  207.4700  152.9300 C   0  0  0  0  0  2  0  0  0  0  0  0
  161.1920  204.7610  151.2840 C   0  0  0  0  0  2  0  0  0  0  0  0
  160.7480  204.4610  149.9640 O   0  0  0  0  0  0  0  0  0  0  0  0
  160.9570  203.2170  149.3600 C   0  0  0  0  0  0  0  0  0  0  0  0
  161.2550  203.1670  148.1370 O   0  0  0  0  0  0  0  0  0  0  0  0
  160.8260  201.9420  150.1270 C   0  0  0  0  0  1  0  0  0  0  0  0
  1  6  1  0  0  0  0
  2  7  2  0  0  0  0
  3  2  1  0  0  0  0
  3  1  1  0  0  0  0
  4  1  2  0  0  0  0
  5  3  2  0  0  0  0
  7  6  1  0  0  0  0
  9  8  1  6  0  0  0
  9  5  1  0  0  0  0
 10  9  1  0  0  0  0
 11 10  1  0  0  0  0
 11 13  1  0  0  0  0
 12 11  1  0  0  0  0
 14 11  1  0  0  0  0
 15  5  1  0  0  0  0
 16 18  1  0  0  0  0
 17 16  1  0  0  0  0
 17 19  1  0  0  0  0
 18 15  1  0  0  0  0
 18 21  1  0  0  0  0
 19 22  1  0  0  0  0
 19 20  1  0  0  0  0
 20 21  1  0  0  0  0
 23 22  1  0  0  0  0
 24 23  1  0  0  0  0
 24 26  1  0  0  0  0
 25 24  2  0  0  0  0
M  END
>  <MODEL>
8

>  <REMARK>
 VINA RESULT:      -5.9      4.021      8.889
  Name = 
  8 active torsions:
  status: ('A' for Active; 'I' for Inactive)
    1  A    between atoms: C_3  and  C_20
    2  A    between atoms: C_4  and  N_18
    3  A    between atoms: C_4  and  O_19
    4  A    between atoms: C_7  and  O_19
    5  A    between atoms: C_10  and  C_14
    6  A    between atoms: C_10  and  C_20
    7  A    between atoms: C_14  and  N_21
    8  A    between atoms: C_16  and  N_21
                            x       y       z     vdW  Elec       q    Type
                         _______ _______ _______ _____ _____    ______ ____

>  <TORSDO>
F 8

$$$$
=
 OpenBabel11052409513D

 26 27  0  0  1  0  0  0  0  0999 V2000
  161.2520  205.9040  148.2630 C   0  0  0  0  0  0  0  0  0  0  0  0
  162.2750  207.5130  149.5580 N   0  0  0  0  0  0  0  0  0  0  0  0
  161.5440  206.2970  149.6250 C   0  0  0  0  0  0  0  0  0  0  0  0
  160.6150  204.8830  147.8910 O   0  0  0  0  0  0  0  0  0  0  0  0
  161.2490  205.6440  150.7610 C   0  0  1  0  0  3  0  0  0  0  0  0
  161.7720  206.8480  147.4000 O   0  0  0  0  0  0  0  0  0  0  0  0
  162.4210  207.8790  148.1460 C   0  0  0  0  0  2  0  0  0  0  0  0
  160.1550  203.9210  151.9750 O   0  0  0  0  0  1  0  0  0  0  0  0
  160.6220  204.2830  150.7110 C   0  0  2  0  0  3  0  0  0  0  0  0
  161.6360  203.2580  150.2120 C   0  0  0  0  0  2  0  0  0  0  0  0
  160.9560  202.0390  149.6010 C   0  0  0  0  0  0  0  0  0  0  0  0
  161.1670  200.9480  150.4190 F   0  0  0  0  0  0  0  0  0  0  0  0
  161.4890  201.7740  148.3520 F   0  0  0  0  0  0  0  0  0  0  0  0
  159.5960  202.2570  149.4860 F   0  0  0  0  0  0  0  0  0  0  0  0
  161.6540  206.1620  152.0380 N   0  0  0  0  0  2  0  0  0  0  0  0
  161.2020  206.7520  154.4010 C   0  0  0  0  0  2  0  0  0  0  0  0
  160.7640  207.9590  155.2270 C   0  0  0  0  0  2  0  0  0  0  0  0
  160.7960  206.9330  152.9370 C   0  0  0  0  0  3  0  0  0  0  0  0
  161.3990  209.2110  154.7750 N   0  0  0  0  0  0  0  0  0  0  0  0
  161.6750  209.2580  153.3280 C   0  0  0  0  0  2  0  0  0  0  0  0
  160.7050  208.4030  152.5100 C   0  0  0  0  0  2  0  0  0  0  0  0
  160.4660  210.2910  155.0710 C   0  0  0  0  0  2  0  0  0  0  0  0
  160.6790  211.3810  154.1790 O   0  0  0  0  0  0  0  0  0  0  0  0
  159.6490  212.2320  153.7660 C   0  0  0  0  0  0  0  0  0  0  0  0
  159.3170  213.2010  154.5000 O   0  0  0  0  0  0  0  0  0  0  0  0
  158.9230  212.0180  152.4790 C   0  0  0  0  0  1  0  0  0  0  0  0
  1  3  1  0  0  0  0
  2  3  2  0  0  0  0
  3  5  1  0  0  0  0
  4  1  2  0  0  0  0
  5 15  1  6  0  0  0
  6  7  1  0  0  0  0
  6  1  1  0  0  0  0
  7  2  1  0  0  0  0
  9  5  1  0  0  0  0
  9  8  1  1  0  0  0
 10  9  1  0  0  0  0
 11 10  1  0  0  0  0
 11 12  1  0  0  0  0
 13 11  1  0  0  0  0
 14 11  1  0  0  0  0
 15 18  1  0  0  0  0
 16 17  1  0  0  0  0
 18 16  1  0  0  0  0
 19 22  1  0  0  0  0
 19 17  1  0  0  0  0
 20 19  1  0  0  0  0
 21 18  1  0  0  0  0
 21 20  1  0  0  0  0
 23 22  1  0  0  0  0
 24 23  1  0  0  0  0
 24 25  2  0  0  0  0
 26 24  1  0  0  0  0
M  END
>  <MODEL>
9

>  <REMARK>
 VINA RESULT:      -5.9      2.862      4.492
  Name = 
  8 active torsions:
  status: ('A' for Active; 'I' for Inactive)
    1  A    between atoms: C_3  and  C_20
    2  A    between atoms: C_4  and  N_18
    3  A    between atoms: C_4  and  O_19
    4  A    between atoms: C_7  and  O_19
    5  A    between atoms: C_10  and  C_14
    6  A    between atoms: C_10  and  C_20
    7  A    between atoms: C_14  and  N_21
    8  A    between atoms: C_16  and  N_21
                            x       y       z     vdW  Elec       q    Type
                         _______ _______ _______ _____ _____    ______ ____

>  <TORSDO>
F 8

$$$$
