=
 OpenBabel11042421383D

 45 50  0  0  1  0  0  0  0  0999 V2000
  159.7080  209.0900  153.5790 C   0  0  0  0  0  2  0  0  0  0  0  0
  161.2790  211.5970  153.4820 N   0  0  2  0  0  0  0  0  0  0  0  0
  159.6810  211.4700  155.4590 O   0  0  0  0  0  0  0  0  0  0  0  0
  160.3720  212.2150  154.4700 C   0  0  2  0  0  3  0  0  0  0  0  0
  158.3530  211.8760  155.7020 C   0  0  0  0  0  0  0  0  0  0  0  0
  159.0230  210.3610  153.0750 C   0  0  0  0  0  2  0  0  0  0  0  0
  159.8180  211.7010  153.2020 C   0  0  2  0  0  0  0  0  0  0  0  0
  157.6310  211.2060  156.4850 O   0  0  0  0  0  0  0  0  0  0  0  0
  161.7570  210.3360  154.0620 C   0  0  0  0  0  2  0  0  0  0  0  0
  157.7180  213.0250  153.4610 C   0  0  0  0  0  2  0  0  0  0  0  0
  161.2040  209.1230  153.3420 C   0  0  2  0  0  3  0  0  0  0  0  0
  157.7740  213.1090  155.0120 C   0  0  0  0  0  2  0  0  0  0  0  0
  159.0920  212.9490  152.7340 C   0  0  2  0  0  3  0  0  0  0  0  0
  158.8760  212.8760  151.2980 N   0  0  0  0  0  2  0  0  0  0  0  0
  160.5190  214.4530  150.7930 O   0  0  0  0  0  0  0  0  0  0  0  0
  159.6210  213.6720  150.3720 C   0  0  0  0  0  0  0  0  0  0  0  0
  160.0180  212.6950  146.6800 C   0  0  0  0  0  0  0  0  0  0  0  0
  160.1960  212.9090  148.1330 C   0  0  0  0  0  3  0  0  0  0  0  0
  157.5580  212.4610  146.7380 C   0  0  0  0  0  3  0  0  0  0  0  0
  159.3460  213.5620  148.9290 C   0  0  0  0  0  0  0  0  0  0  0  0
  157.2130  213.2300  147.7700 C   0  0  0  0  0  3  0  0  0  0  0  0
  158.1380  214.2360  148.3580 C   0  0  0  0  0  2  0  0  0  0  0  0
  158.8560  212.4770  146.1190 N   0  0  0  0  0  0  0  0  0  0  0  0
  161.1780  212.6690  145.9010 O   0  0  0  0  0  0  0  0  0  0  0  0
  161.7350  213.8390  145.3100 C   0  0  0  0  0  2  0  0  0  0  0  0
  162.6800  213.4320  144.1960 C   0  0  2  0  0  3  0  0  0  0  0  0
  163.7320  214.3520  144.1110 O   0  0  0  0  0  1  0  0  0  0  0  0
  161.9200  213.3970  142.8720 C   0  0  0  0  0  2  0  0  0  0  0  0
  160.4180  211.6510  142.4650 C   0  0  0  0  0  1  0  0  0  0  0  0
  162.1730  212.0480  140.9860 C   0  0  0  0  0  1  0  0  0  0  0  0
  161.8190  212.0290  142.3940 N   0  0  0  0  0  0  0  0  0  0  0  0
  161.5470  209.1320  151.8550 C   0  0  0  0  0  2  0  0  0  0  0  0
  160.9140  207.9410  151.1460 C   0  0  0  0  0  2  0  0  0  0  0  0
  161.5290  207.7580  149.7920 C   0  0  0  0  0  0  0  0  0  0  0  0
  161.9220  206.4080  147.7110 C   0  0  0  0  0  2  0  0  0  0  0  0
  160.5920  202.9300  149.7850 C   0  0  2  0  0  3  0  0  0  0  0  0
  160.6550  205.4040  149.6660 C   0  0  0  0  0  2  0  0  0  0  0  0
  160.9030  202.8280  147.4490 O   0  0  0  0  0  0  0  0  0  0  0  0
  161.1690  202.2960  150.8840 O   0  0  0  0  0  1  0  0  0  0  0  0
  160.6770  202.0300  148.5760 C   0  0  0  0  0  2  0  0  0  0  0  0
  161.6950  203.8970  147.8990 C   0  0  1  0  0  3  0  0  0  0  0  0
  161.3710  206.5290  149.0650 N   0  0  0  0  0  0  0  0  0  0  0  0
  161.4330  205.1310  147.0280 C   0  0  0  0  0  2  0  0  0  0  0  0
  161.4200  204.1140  149.3920 C   0  0  2  0  0  3  0  0  0  0  0  0
  162.2160  208.6990  149.3010 O   0  0  0  0  0  0  0  0  0  0  0  0
  2  9  1  1  0  0  0
  2  4  1  0  0  0  0
  3  5  1  0  0  0  0
  4  3  1  1  0  0  0
  5  8  2  0  0  0  0
  6  1  1  0  0  0  0
  7  6  1  1  0  0  0
  7  2  1  0  0  0  0
  7  4  1  0  0  0  0
 10 12  1  0  0  0  0
 11 32  1  6  0  0  0
 11  1  1  0  0  0  0
 11  9  1  0  0  0  0
 12  5  1  0  0  0  0
 13 14  1  6  0  0  0
 13  7  1  0  0  0  0
 13 10  1  0  0  0  0
 16 15  2  0  0  0  0
 16 14  1  0  0  0  0
 17 18  1  0  0  0  0
 18 20  2  0  0  0  0
 19 21  2  0  0  0  0
 20 16  1  0  0  0  0
 21 22  1  0  0  0  0
 22 20  1  0  0  0  0
 23 17  2  0  0  0  0
 23 19  1  0  0  0  0
 24 17  1  0  0  0  0
 25 24  1  0  0  0  0
 26 27  1  6  0  0  0
 26 25  1  0  0  0  0
 28 26  1  0  0  0  0
 30 31  1  0  0  0  0
 31 29  1  0  0  0  0
 31 28  1  0  0  0  0
 33 32  1  0  0  0  0
 34 33  1  0  0  0  0
 35 42  1  0  0  0  0
 36 39  1  1  0  0  0
 38 41  1  0  0  0  0
 38 40  1  0  0  0  0
 40 36  1  0  0  0  0
 41 43  1  6  0  0  0
 41 44  1  0  0  0  0
 42 37  1  0  0  0  0
 42 34  1  0  0  0  0
 43 35  1  0  0  0  0
 44 37  1  6  0  0  0
 44 36  1  0  0  0  0
 45 34  2  0  0  0  0
M  END
>  <MODEL>
1

>  <REMARK>
 VINA RESULT:      -7.3      0.000      0.000
  Name = 
  10 active torsions:
  status: ('A' for Active; 'I' for Inactive)
    1  A    between atoms: C_1  and  O_42
    2  A    between atoms: N_2  and  C_44
    3  A    between atoms: C_3  and  C_38
    4  A    between atoms: C_8  and  C_38
    5  A    between atoms: C_8  and  C_40
    6  A    between atoms: C_14  and  N_28
    7  A    between atoms: C_14  and  C_29
    8  A    between atoms: C_23  and  C_29
    9  A    between atoms: C_23  and  O_42
   10  A    between atoms: C_24  and  C_31
                            x       y       z     vdW  Elec       q    Type
                         _______ _______ _______ _____ _____    ______ ____

>  <TORSDO>
F 10

$$$$
=
 OpenBabel11042421383D

 45 50  0  0  1  0  0  0  0  0999 V2000
  159.6970  213.3820  153.5220 C   0  0  0  0  0  2  0  0  0  0  0  0
  157.9470  211.0480  154.0290 N   0  0  2  0  0  0  0  0  0  0  0  0
  159.2640  211.7990  156.0730 O   0  0  0  0  0  0  0  0  0  0  0  0
  158.6550  210.7810  155.2970 C   0  0  2  0  0  3  0  0  0  0  0  0
  160.5070  211.4590  156.6450 C   0  0  0  0  0  0  0  0  0  0  0  0
  160.3330  211.9930  153.5910 C   0  0  0  0  0  2  0  0  0  0  0  0
  159.4180  210.8070  154.0340 C   0  0  2  0  0  0  0  0  0  0  0  0
  161.1700  212.3350  157.2600 O   0  0  0  0  0  0  0  0  0  0  0  0
  157.5030  212.4470  154.0680 C   0  0  0  0  0  2  0  0  0  0  0  0
  161.3440  209.5860  155.0520 C   0  0  0  0  0  2  0  0  0  0  0  0
  158.2500  213.3170  153.0780 C   0  0  2  0  0  3  0  0  0  0  0  0
  161.0680  210.0460  156.5110 C   0  0  0  0  0  2  0  0  0  0  0  0
  160.0930  209.4500  154.1350 C   0  0  2  0  0  3  0  0  0  0  0  0
  160.5090  209.0150  152.8120 N   0  0  0  0  0  2  0  0  0  0  0  0
  160.7960  206.7880  153.4410 O   0  0  0  0  0  0  0  0  0  0  0  0
  160.8630  207.6590  152.5300 C   0  0  0  0  0  0  0  0  0  0  0  0
  160.9470  205.8760  149.1300 C   0  0  0  0  0  0  0  0  0  0  0  0
  160.6440  206.3200  150.5080 C   0  0  0  0  0  3  0  0  0  0  0  0
  161.5940  208.0980  148.2640 C   0  0  0  0  0  3  0  0  0  0  0  0
  161.2900  207.2830  151.1700 C   0  0  0  0  0  0  0  0  0  0  0  0
  162.0940  208.7010  149.3410 C   0  0  0  0  0  3  0  0  0  0  0  0
  162.4850  207.9490  150.5650 C   0  0  0  0  0  2  0  0  0  0  0  0
  161.3310  206.6870  148.1780 N   0  0  0  0  0  0  0  0  0  0  0  0
  160.7420  204.5230  148.8460 O   0  0  0  0  0  0  0  0  0  0  0  0
  160.6750  203.5250  149.8590 C   0  0  0  0  0  2  0  0  0  0  0  0
  160.6430  202.1560  149.2080 C   0  0  2  0  0  3  0  0  0  0  0  0
  161.2150  201.2110  150.0690 O   0  0  0  0  0  1  0  0  0  0  0  0
  161.4240  202.1970  147.8980 C   0  0  0  0  0  2  0  0  0  0  0  0
  160.9890  202.2880  145.6020 C   0  0  0  0  0  1  0  0  0  0  0  0
  161.0980  200.2310  146.6870 C   0  0  0  0  0  1  0  0  0  0  0  0
  160.6390  201.6000  146.8320 N   0  0  0  0  0  0  0  0  0  0  0  0
  158.1140  212.8060  151.6460 C   0  0  0  0  0  2  0  0  0  0  0  0
  158.7090  213.8000  150.6570 C   0  0  0  0  0  2  0  0  0  0  0  0
  159.7740  213.1380  149.8360 C   0  0  0  0  0  0  0  0  0  0  0  0
  160.9500  212.7450  147.6520 C   0  0  0  0  0  2  0  0  0  0  0  0
  157.5950  214.4000  145.6110 C   0  0  2  0  0  3  0  0  0  0  0  0
  158.8490  214.1640  147.7350 C   0  0  0  0  0  2  0  0  0  0  0  0
  159.5840  213.9920  144.4120 O   0  0  0  0  0  0  0  0  0  0  0  0
  156.2890  213.9180  145.5460 O   0  0  0  0  0  1  0  0  0  0  0  0
  158.2350  214.3220  144.2460 C   0  0  0  0  0  2  0  0  0  0  0  0
  159.6300  213.1510  145.5350 C   0  0  1  0  0  3  0  0  0  0  0  0
  159.8520  213.3470  148.4170 N   0  0  0  0  0  0  0  0  0  0  0  0
  160.9920  213.2880  146.2240 C   0  0  0  0  0  2  0  0  0  0  0  0
  158.4340  213.4770  146.4380 C   0  0  2  0  0  3  0  0  0  0  0  0
  160.5970  212.3680  150.4080 O   0  0  0  0  0  0  0  0  0  0  0  0
  1  6  1  0  0  0  0
  2  7  1  0  0  0  0
  2  9  1  1  0  0  0
  2  4  1  0  0  0  0
  3  5  1  0  0  0  0
  4  3  1  1  0  0  0
  5  8  2  0  0  0  0
  7  6  1  6  0  0  0
  7 13  1  0  0  0  0
  7  4  1  0  0  0  0
 10 12  1  0  0  0  0
 11 32  1  6  0  0  0
 11  1  1  0  0  0  0
 11  9  1  0  0  0  0
 12  5  1  0  0  0  0
 13 14  1  6  0  0  0
 13 10  1  0  0  0  0
 16 14  1  0  0  0  0
 16 15  2  0  0  0  0
 17 18  1  0  0  0  0
 18 20  2  0  0  0  0
 19 21  2  0  0  0  0
 20 16  1  0  0  0  0
 21 22  1  0  0  0  0
 22 20  1  0  0  0  0
 23 19  1  0  0  0  0
 23 17  2  0  0  0  0
 24 17  1  0  0  0  0
 24 25  1  0  0  0  0
 26 25  1  0  0  0  0
 26 27  1  1  0  0  0
 28 26  1  0  0  0  0
 29 31  1  0  0  0  0
 30 31  1  0  0  0  0
 31 28  1  0  0  0  0
 33 32  1  0  0  0  0
 34 45  2  0  0  0  0
 34 33  1  0  0  0  0
 35 42  1  0  0  0  0
 36 39  1  6  0  0  0
 36 44  1  0  0  0  0
 37 42  1  0  0  0  0
 38 41  1  0  0  0  0
 40 38  1  0  0  0  0
 40 36  1  0  0  0  0
 41 43  1  1  0  0  0
 41 44  1  0  0  0  0
 42 34  1  0  0  0  0
 43 35  1  0  0  0  0
 44 37  1  1  0  0  0
M  END
>  <MODEL>
2

>  <REMARK>
 VINA RESULT:      -7.1      2.236      8.147
  Name = 
  10 active torsions:
  status: ('A' for Active; 'I' for Inactive)
    1  A    between atoms: C_1  and  O_42
    2  A    between atoms: N_2  and  C_44
    3  A    between atoms: C_3  and  C_38
    4  A    between atoms: C_8  and  C_38
    5  A    between atoms: C_8  and  C_40
    6  A    between atoms: C_14  and  N_28
    7  A    between atoms: C_14  and  C_29
    8  A    between atoms: C_23  and  C_29
    9  A    between atoms: C_23  and  O_42
   10  A    between atoms: C_24  and  C_31
                            x       y       z     vdW  Elec       q    Type
                         _______ _______ _______ _____ _____    ______ ____

>  <TORSDO>
F 10

$$$$
=
 OpenBabel11042421383D

 45 50  0  0  1  0  0  0  0  0999 V2000
  158.5890  210.0080  154.0570 C   0  0  0  0  0  2  0  0  0  0  0  0
  160.4290  212.3150  153.8160 N   0  0  2  0  0  0  0  0  0  0  0  0
  158.7220  212.5610  155.6890 O   0  0  0  0  0  0  0  0  0  0  0  0
  159.5420  213.1240  154.6780 C   0  0  2  0  0  3  0  0  0  0  0  0
  157.4360  213.1260  155.8050 C   0  0  0  0  0  0  0  0  0  0  0  0
  158.0760  211.2850  153.3880 C   0  0  0  0  0  2  0  0  0  0  0  0
  159.0050  212.5400  153.4340 C   0  0  2  0  0  0  0  0  0  0  0  0
  156.6030  212.6190  156.6010 O   0  0  0  0  0  0  0  0  0  0  0  0
  160.7330  211.0790  154.5470 C   0  0  0  0  0  2  0  0  0  0  0  0
  157.0510  214.0950  153.4260 C   0  0  0  0  0  2  0  0  0  0  0  0
  160.0900  209.8620  153.9150 C   0  0  2  0  0  3  0  0  0  0  0  0
  157.0340  214.3340  154.9620 C   0  0  0  0  0  2  0  0  0  0  0  0
  158.4470  213.8020  152.8000 C   0  0  2  0  0  3  0  0  0  0  0  0
  158.3010  213.6030  151.3680 N   0  0  0  0  0  2  0  0  0  0  0  0
  160.4120  214.4530  150.8570 O   0  0  0  0  0  0  0  0  0  0  0  0
  159.3260  213.9650  150.4380 C   0  0  0  0  0  0  0  0  0  0  0  0
  159.8630  212.6960  146.8530 C   0  0  0  0  0  0  0  0  0  0  0  0
  159.9810  213.0180  148.2930 C   0  0  0  0  0  3  0  0  0  0  0  0
  157.3970  212.5230  146.8150 C   0  0  0  0  0  3  0  0  0  0  0  0
  159.1130  213.7500  148.9960 C   0  0  0  0  0  0  0  0  0  0  0  0
  157.0260  213.3770  147.7670 C   0  0  0  0  0  3  0  0  0  0  0  0
  157.9500  214.4040  148.3200 C   0  0  0  0  0  2  0  0  0  0  0  0
  158.7220  212.4620  146.2570 N   0  0  0  0  0  0  0  0  0  0  0  0
  161.0560  212.5840  146.1340 O   0  0  0  0  0  0  0  0  0  0  0  0
  161.5990  213.6580  145.3730 C   0  0  0  0  0  2  0  0  0  0  0  0
  162.3290  213.0950  144.1680 C   0  0  2  0  0  3  0  0  0  0  0  0
  163.5570  213.7490  144.0130 O   0  0  0  0  0  1  0  0  0  0  0  0
  161.4770  213.2980  142.9180 C   0  0  0  0  0  2  0  0  0  0  0  0
  159.1640  213.2700  142.5750 C   0  0  0  0  0  1  0  0  0  0  0  0
  160.4550  211.4320  141.9620 C   0  0  0  0  0  1  0  0  0  0  0  0
  160.2960  212.4540  142.9790 N   0  0  0  0  0  0  0  0  0  0  0  0
  160.5110  209.6800  152.4590 C   0  0  0  0  0  2  0  0  0  0  0  0
  161.6820  208.7110  152.3510 C   0  0  0  0  0  2  0  0  0  0  0  0
  161.2340  207.3190  152.6810 C   0  0  0  0  0  0  0  0  0  0  0  0
  160.9590  204.8930  152.0960 C   0  0  0  0  0  2  0  0  0  0  0  0
  161.5670  205.8720  147.9930 C   0  0  2  0  0  3  0  0  0  0  0  0
  161.8230  206.5350  150.3670 C   0  0  0  0  0  2  0  0  0  0  0  0
  161.5590  203.6060  148.6460 O   0  0  0  0  0  0  0  0  0  0  0  0
  160.7770  206.6590  147.1580 O   0  0  0  0  0  1  0  0  0  0  0  0
  161.5340  204.4380  147.5220 C   0  0  0  0  0  2  0  0  0  0  0  0
  160.8510  204.2980  149.6410 C   0  0  1  0  0  3  0  0  0  0  0  0
  161.3360  206.2590  151.7180 N   0  0  0  0  0  0  0  0  0  0  0  0
  161.3740  203.8880  151.0220 C   0  0  0  0  0  2  0  0  0  0  0  0
  160.9500  205.8020  149.3550 C   0  0  2  0  0  3  0  0  0  0  0  0
  160.7390  207.0920  153.8220 O   0  0  0  0  0  0  0  0  0  0  0  0
  2  9  1  1  0  0  0
  2  4  1  0  0  0  0
  3  5  1  0  0  0  0
  4  3  1  1  0  0  0
  5  8  2  0  0  0  0
  6  1  1  0  0  0  0
  7  6  1  1  0  0  0
  7  2  1  0  0  0  0
  7  4  1  0  0  0  0
 10 12  1  0  0  0  0
 11 32  1  6  0  0  0
 11  1  1  0  0  0  0
 11  9  1  0  0  0  0
 12  5  1  0  0  0  0
 13 14  1  6  0  0  0
 13 10  1  0  0  0  0
 13  7  1  0  0  0  0
 16 15  2  0  0  0  0
 16 14  1  0  0  0  0
 17 18  1  0  0  0  0
 18 20  2  0  0  0  0
 19 21  2  0  0  0  0
 20 16  1  0  0  0  0
 21 22  1  0  0  0  0
 22 20  1  0  0  0  0
 23 19  1  0  0  0  0
 23 17  2  0  0  0  0
 24 17  1  0  0  0  0
 25 24  1  0  0  0  0
 26 27  1  6  0  0  0
 26 25  1  0  0  0  0
 28 31  1  0  0  0  0
 28 26  1  0  0  0  0
 29 31  1  0  0  0  0
 30 31  1  0  0  0  0
 33 32  1  0  0  0  0
 33 34  1  0  0  0  0
 34 45  2  0  0  0  0
 36 39  1  6  0  0  0
 36 44  1  0  0  0  0
 37 42  1  0  0  0  0
 38 41  1  0  0  0  0
 40 36  1  0  0  0  0
 40 38  1  0  0  0  0
 41 43  1  1  0  0  0
 42 35  1  0  0  0  0
 42 34  1  0  0  0  0
 43 35  1  0  0  0  0
 44 41  1  0  0  0  0
 44 37  1  1  0  0  0
M  END
>  <MODEL>
3

>  <REMARK>
 VINA RESULT:      -6.9      1.417      2.055
  Name = 
  10 active torsions:
  status: ('A' for Active; 'I' for Inactive)
    1  A    between atoms: C_1  and  O_42
    2  A    between atoms: N_2  and  C_44
    3  A    between atoms: C_3  and  C_38
    4  A    between atoms: C_8  and  C_38
    5  A    between atoms: C_8  and  C_40
    6  A    between atoms: C_14  and  N_28
    7  A    between atoms: C_14  and  C_29
    8  A    between atoms: C_23  and  C_29
    9  A    between atoms: C_23  and  O_42
   10  A    between atoms: C_24  and  C_31
                            x       y       z     vdW  Elec       q    Type
                         _______ _______ _______ _____ _____    ______ ____

>  <TORSDO>
F 10

$$$$
=
 OpenBabel11042421383D

 45 50  0  0  1  0  0  0  0  0999 V2000
  158.7760  209.9440  153.9790 C   0  0  0  0  0  2  0  0  0  0  0  0
  160.4500  212.3400  154.4480 N   0  0  2  0  0  0  0  0  0  0  0  0
  157.9860  212.6960  154.9790 O   0  0  0  0  0  0  0  0  0  0  0  0
  159.2390  213.1820  154.5270 C   0  0  2  0  0  3  0  0  0  0  0  0
  156.8650  213.1650  154.2650 C   0  0  0  0  0  0  0  0  0  0  0  0
  158.7420  211.0720  152.9460 C   0  0  0  0  0  2  0  0  0  0  0  0
  159.4940  212.3940  153.3050 C   0  0  2  0  0  0  0  0  0  0  0  0
  155.7230  212.7040  154.5270 O   0  0  0  0  0  0  0  0  0  0  0  0
  160.2770  211.2420  155.4080 C   0  0  0  0  0  2  0  0  0  0  0  0
  157.9010  213.7680  151.9610 C   0  0  0  0  0  2  0  0  0  0  0  0
  160.0930  209.9020  154.7260 C   0  0  2  0  0  3  0  0  0  0  0  0
  157.0200  214.2100  153.1630 C   0  0  0  0  0  2  0  0  0  0  0  0
  159.4030  213.5080  152.2780 C   0  0  2  0  0  3  0  0  0  0  0  0
  160.0910  213.1060  151.0630 N   0  0  0  0  0  2  0  0  0  0  0  0
  158.4700  213.9940  149.6410 O   0  0  0  0  0  0  0  0  0  0  0  0
  159.5600  213.3690  149.7610 C   0  0  0  0  0  0  0  0  0  0  0  0
  160.4050  212.6840  146.0780 C   0  0  0  0  0  0  0  0  0  0  0  0
  159.7550  213.0550  147.3550 C   0  0  0  0  0  3  0  0  0  0  0  0
  162.7010  213.3040  146.7510 C   0  0  0  0  0  3  0  0  0  0  0  0
  160.3000  212.9240  148.5670 C   0  0  0  0  0  0  0  0  0  0  0  0
  162.6920  213.0850  148.0650 C   0  0  0  0  0  3  0  0  0  0  0  0
  161.6370  212.2740  148.7310 C   0  0  0  0  0  2  0  0  0  0  0  0
  161.6830  212.8340  145.8490 N   0  0  0  0  0  0  0  0  0  0  0  0
  159.5700  212.2080  145.0630 O   0  0  0  0  0  0  0  0  0  0  0  0
  159.3670  212.9110  143.8410 C   0  0  0  0  0  2  0  0  0  0  0  0
  160.0420  212.1530  142.7140 C   0  0  2  0  0  3  0  0  0  0  0  0
  161.4320  212.2850  142.8220 O   0  0  0  0  0  1  0  0  0  0  0  0
  159.5750  212.7140  141.3730 C   0  0  0  0  0  2  0  0  0  0  0  0
  160.3390  212.5110  139.1720 C   0  0  0  0  0  1  0  0  0  0  0  0
  160.9110  214.3810  140.4360 C   0  0  0  0  0  1  0  0  0  0  0  0
  160.7180  212.9440  140.5060 N   0  0  0  0  0  0  0  0  0  0  0  0
  161.2620  209.5610  153.8050 C   0  0  0  0  0  2  0  0  0  0  0  0
  160.9540  208.3190  152.9780 C   0  0  0  0  0  2  0  0  0  0  0  0
  161.4390  208.5010  151.5720 C   0  0  0  0  0  0  0  0  0  0  0  0
  161.7040  207.6950  149.2080 C   0  0  0  0  0  2  0  0  0  0  0  0
  160.8170  203.7370  150.5160 C   0  0  2  0  0  3  0  0  0  0  0  0
  160.7090  206.1700  150.9740 C   0  0  0  0  0  2  0  0  0  0  0  0
  160.8950  204.1950  148.2040 O   0  0  0  0  0  0  0  0  0  0  0  0
  161.5420  202.9230  151.3840 O   0  0  0  0  0  1  0  0  0  0  0  0
  160.8360  203.1460  149.1280 C   0  0  0  0  0  2  0  0  0  0  0  0
  161.6580  205.1980  148.8220 C   0  0  1  0  0  3  0  0  0  0  0  0
  161.2870  207.4590  150.5950 N   0  0  0  0  0  0  0  0  0  0  0  0
  161.2310  206.5690  148.2890 C   0  0  0  0  0  2  0  0  0  0  0  0
  161.5230  205.0460  150.3430 C   0  0  2  0  0  3  0  0  0  0  0  0
  162.0110  209.5840  151.2580 O   0  0  0  0  0  0  0  0  0  0  0  0
  1 11  1  0  0  0  0
  2  4  1  0  0  0  0
  2  9  1  1  0  0  0
  4  3  1  1  0  0  0
  5  8  2  0  0  0  0
  5  3  1  0  0  0  0
  6  1  1  0  0  0  0
  7  6  1  6  0  0  0
  7  2  1  0  0  0  0
  7  4  1  0  0  0  0
 10 13  1  0  0  0  0
 10 12  1  0  0  0  0
 11 32  1  6  0  0  0
 11  9  1  0  0  0  0
 12  5  1  0  0  0  0
 13 14  1  6  0  0  0
 13  7  1  0  0  0  0
 15 16  2  0  0  0  0
 16 14  1  0  0  0  0
 17 18  1  0  0  0  0
 18 20  2  0  0  0  0
 19 21  2  0  0  0  0
 20 22  1  0  0  0  0
 20 16  1  0  0  0  0
 21 22  1  0  0  0  0
 23 17  2  0  0  0  0
 23 19  1  0  0  0  0
 24 17  1  0  0  0  0
 25 24  1  0  0  0  0
 26 27  1  1  0  0  0
 26 25  1  0  0  0  0
 28 26  1  0  0  0  0
 29 31  1  0  0  0  0
 30 31  1  0  0  0  0
 31 28  1  0  0  0  0
 33 32  1  0  0  0  0
 34 33  1  0  0  0  0
 35 42  1  0  0  0  0
 36 39  1  1  0  0  0
 38 41  1  0  0  0  0
 38 40  1  0  0  0  0
 40 36  1  0  0  0  0
 41 43  1  6  0  0  0
 41 44  1  0  0  0  0
 42 37  1  0  0  0  0
 42 34  1  0  0  0  0
 43 35  1  0  0  0  0
 44 36  1  0  0  0  0
 44 37  1  6  0  0  0
 45 34  2  0  0  0  0
M  END
>  <MODEL>
4

>  <REMARK>
 VINA RESULT:      -6.1      1.673      2.326
  Name = 
  10 active torsions:
  status: ('A' for Active; 'I' for Inactive)
    1  A    between atoms: C_1  and  O_42
    2  A    between atoms: N_2  and  C_44
    3  A    between atoms: C_3  and  C_38
    4  A    between atoms: C_8  and  C_38
    5  A    between atoms: C_8  and  C_40
    6  A    between atoms: C_14  and  N_28
    7  A    between atoms: C_14  and  C_29
    8  A    between atoms: C_23  and  C_29
    9  A    between atoms: C_23  and  O_42
   10  A    between atoms: C_24  and  C_31
                            x       y       z     vdW  Elec       q    Type
                         _______ _______ _______ _____ _____    ______ ____

>  <TORSDO>
F 10

$$$$
=
 OpenBabel11042421383D

 45 50  0  0  1  0  0  0  0  0999 V2000
  160.1850  208.2110  153.2770 C   0  0  0  0  0  2  0  0  0  0  0  0
  162.0880  210.4790  153.2520 N   0  0  2  0  0  0  0  0  0  0  0  0
  160.5180  210.4860  155.2550 O   0  0  0  0  0  0  0  0  0  0  0  0
  161.2900  211.1720  154.2840 C   0  0  2  0  0  3  0  0  0  0  0  0
  159.2630  211.0610  155.5440 C   0  0  0  0  0  0  0  0  0  0  0  0
  159.6760  209.5870  152.8420 C   0  0  0  0  0  2  0  0  0  0  0  0
  160.6510  210.7960  153.0080 C   0  0  2  0  0  0  0  0  0  0  0  0
  158.4660  210.4620  156.3130 O   0  0  0  0  0  0  0  0  0  0  0  0
  162.3940  209.1390  153.7680 C   0  0  0  0  0  2  0  0  0  0  0  0
  158.7600  212.3850  153.3670 C   0  0  0  0  0  2  0  0  0  0  0  0
  161.6670  208.0480  153.0100 C   0  0  2  0  0  3  0  0  0  0  0  0
  158.8510  212.3910  154.9190 C   0  0  0  0  0  2  0  0  0  0  0  0
  160.0990  212.1530  152.6080 C   0  0  2  0  0  3  0  0  0  0  0  0
  159.8540  212.1750  151.1760 N   0  0  0  0  0  2  0  0  0  0  0  0
  160.3140  214.4500  150.9540 O   0  0  0  0  0  0  0  0  0  0  0  0
  159.9660  213.3700  150.4000 C   0  0  0  0  0  0  0  0  0  0  0  0
  160.3860  212.6100  146.6590 C   0  0  0  0  0  0  0  0  0  0  0  0
  160.5600  212.7510  148.1220 C   0  0  0  0  0  3  0  0  0  0  0  0
  157.9360  212.2910  146.7070 C   0  0  0  0  0  3  0  0  0  0  0  0
  159.6910  213.3300  148.9520 C   0  0  0  0  0  0  0  0  0  0  0  0
  157.5670  212.9910  147.7790 C   0  0  0  0  0  3  0  0  0  0  0  0
  158.4600  213.9930  148.4210 C   0  0  0  0  0  2  0  0  0  0  0  0
  159.2310  212.3840  146.0880 N   0  0  0  0  0  0  0  0  0  0  0  0
  161.5440  212.6660  145.8790 O   0  0  0  0  0  0  0  0  0  0  0  0
  161.8040  213.7230  144.9610 C   0  0  0  0  0  2  0  0  0  0  0  0
  162.8780  213.2820  143.9860 C   0  0  2  0  0  3  0  0  0  0  0  0
  163.9460  214.1880  144.0190 O   0  0  0  0  0  1  0  0  0  0  0  0
  162.2940  213.2280  142.5770 C   0  0  0  0  0  2  0  0  0  0  0  0
  160.4610  211.8140  142.2450 C   0  0  0  0  0  1  0  0  0  0  0  0
  162.3400  211.6250  140.8830 C   0  0  0  0  0  1  0  0  0  0  0  0
  161.9130  211.8650  142.2490 N   0  0  0  0  0  0  0  0  0  0  0  0
  161.9860  208.0760  151.5170 C   0  0  0  0  0  2  0  0  0  0  0  0
  160.8260  207.5140  150.7060 C   0  0  0  0  0  2  0  0  0  0  0  0
  160.8770  206.0160  150.6990 C   0  0  0  0  0  0  0  0  0  0  0  0
  161.3280  203.8290  149.5500 C   0  0  0  0  0  2  0  0  0  0  0  0
  161.1810  205.8370  145.7930 C   0  0  2  0  0  3  0  0  0  0  0  0
  161.4500  206.0050  148.2510 C   0  0  0  0  0  2  0  0  0  0  0  0
  161.9570  203.6110  145.8780 O   0  0  0  0  0  0  0  0  0  0  0  0
  160.1030  206.4820  145.1910 O   0  0  0  0  0  1  0  0  0  0  0  0
  161.5570  204.6160  144.9900 C   0  0  0  0  0  2  0  0  0  0  0  0
  161.1690  203.7910  147.0270 C   0  0  1  0  0  3  0  0  0  0  0  0
  161.2130  205.2910  149.5060 N   0  0  0  0  0  0  0  0  0  0  0  0
  161.9310  203.2830  148.2550 C   0  0  0  0  0  2  0  0  0  0  0  0
  160.7570  205.2670  147.1100 C   0  0  2  0  0  3  0  0  0  0  0  0
  160.5960  205.3900  151.7610 O   0  0  0  0  0  0  0  0  0  0  0  0
  2  9  1  1  0  0  0
  2  4  1  0  0  0  0
  3  5  1  0  0  0  0
  4  3  1  1  0  0  0
  5  8  2  0  0  0  0
  6  1  1  0  0  0  0
  7  6  1  1  0  0  0
  7  2  1  0  0  0  0
  7  4  1  0  0  0  0
 10 12  1  0  0  0  0
 11 32  1  6  0  0  0
 11  1  1  0  0  0  0
 11  9  1  0  0  0  0
 12  5  1  0  0  0  0
 13 14  1  6  0  0  0
 13  7  1  0  0  0  0
 13 10  1  0  0  0  0
 16 15  2  0  0  0  0
 16 14  1  0  0  0  0
 17 18  1  0  0  0  0
 18 20  2  0  0  0  0
 19 21  2  0  0  0  0
 20 16  1  0  0  0  0
 21 22  1  0  0  0  0
 22 20  1  0  0  0  0
 23 17  2  0  0  0  0
 23 19  1  0  0  0  0
 24 17  1  0  0  0  0
 25 24  1  0  0  0  0
 26 27  1  6  0  0  0
 26 25  1  0  0  0  0
 28 26  1  0  0  0  0
 29 31  1  0  0  0  0
 30 31  1  0  0  0  0
 31 28  1  0  0  0  0
 33 32  1  0  0  0  0
 34 33  1  0  0  0  0
 34 45  2  0  0  0  0
 36 39  1  6  0  0  0
 36 44  1  0  0  0  0
 37 42  1  0  0  0  0
 38 41  1  0  0  0  0
 40 36  1  0  0  0  0
 40 38  1  0  0  0  0
 41 44  1  0  0  0  0
 41 43  1  1  0  0  0
 42 35  1  0  0  0  0
 42 34  1  0  0  0  0
 43 35  1  0  0  0  0
 44 37  1  1  0  0  0
M  END
>  <MODEL>
5

>  <REMARK>
 VINA RESULT:      -5.6      1.236      1.993
  Name = 
  10 active torsions:
  status: ('A' for Active; 'I' for Inactive)
    1  A    between atoms: C_1  and  O_42
    2  A    between atoms: N_2  and  C_44
    3  A    between atoms: C_3  and  C_38
    4  A    between atoms: C_8  and  C_38
    5  A    between atoms: C_8  and  C_40
    6  A    between atoms: C_14  and  N_28
    7  A    between atoms: C_14  and  C_29
    8  A    between atoms: C_23  and  C_29
    9  A    between atoms: C_23  and  O_42
   10  A    between atoms: C_24  and  C_31
                            x       y       z     vdW  Elec       q    Type
                         _______ _______ _______ _____ _____    ______ ____

>  <TORSDO>
F 10

$$$$
=
 OpenBabel11042421383D

 45 50  0  0  1  0  0  0  0  0999 V2000
  159.8050  210.2280  152.6250 C   0  0  0  0  0  2  0  0  0  0  0  0
  162.7090  209.6570  152.6970 N   0  0  2  0  0  0  0  0  0  0  0  0
  162.0510  211.3780  150.9420 O   0  0  0  0  0  0  0  0  0  0  0  0
  162.8820  210.3200  151.3880 C   0  0  2  0  0  3  0  0  0  0  0  0
  161.7010  211.3350  149.5770 C   0  0  0  0  0  0  0  0  0  0  0  0
  160.3980  209.3190  151.5470 C   0  0  0  0  0  2  0  0  0  0  0  0
  161.9530  209.1780  151.5040 C   0  0  2  0  0  0  0  0  0  0  0  0
  160.8810  212.1730  149.1180 O   0  0  0  0  0  0  0  0  0  0  0  0
  162.0250  210.6100  153.5790 C   0  0  0  0  0  2  0  0  0  0  0  0
  161.9390  208.8060  149.0350 C   0  0  0  0  0  2  0  0  0  0  0  0
  160.6100  210.1800  153.9080 C   0  0  2  0  0  3  0  0  0  0  0  0
  162.2880  210.2720  148.6530 C   0  0  0  0  0  2  0  0  0  0  0  0
  162.5100  208.3040  150.3940 C   0  0  2  0  0  3  0  0  0  0  0  0
  162.1010  206.9260  150.6100 N   0  0  0  0  0  2  0  0  0  0  0  0
  160.8420  206.8070  148.6510 O   0  0  0  0  0  0  0  0  0  0  0  0
  161.2470  206.2310  149.6990 C   0  0  0  0  0  0  0  0  0  0  0  0
  160.8320  202.4360  149.2770 C   0  0  0  0  0  0  0  0  0  0  0  0
  161.1330  203.8740  149.0990 C   0  0  0  0  0  3  0  0  0  0  0  0
  161.2260  202.3760  151.7160 C   0  0  0  0  0  3  0  0  0  0  0  0
  160.8580  204.8370  149.9810 C   0  0  0  0  0  0  0  0  0  0  0  0
  160.8930  203.6080  152.1000 C   0  0  0  0  0  3  0  0  0  0  0  0
  160.1030  204.5250  151.2340 C   0  0  0  0  0  2  0  0  0  0  0  0
  160.9110  201.8200  150.4280 N   0  0  0  0  0  0  0  0  0  0  0  0
  160.5080  201.7140  148.1260 O   0  0  0  0  0  0  0  0  0  0  0  0
  161.2330  201.8430  146.9070 C   0  0  0  0  0  2  0  0  0  0  0  0
  160.4050  202.6390  145.9170 C   0  0  2  0  0  3  0  0  0  0  0  0
  159.7860  201.7690  145.0120 O   0  0  0  0  0  1  0  0  0  0  0  0
  161.3100  203.6090  145.1620 C   0  0  0  0  0  2  0  0  0  0  0  0
  162.6960  205.4040  145.7290 C   0  0  0  0  0  1  0  0  0  0  0  0
  160.4920  205.7920  145.0860 C   0  0  0  0  0  1  0  0  0  0  0  0
  161.3420  204.8920  145.8430 N   0  0  0  0  0  0  0  0  0  0  0  0
  160.5660  208.8000  154.5590 C   0  0  0  0  0  2  0  0  0  0  0  0
  160.1070  208.9010  156.0080 C   0  0  0  0  0  2  0  0  0  0  0  0
  160.5440  210.2060  156.6000 C   0  0  0  0  0  0  0  0  0  0  0  0
  160.1190  212.6050  157.2080 C   0  0  0  0  0  2  0  0  0  0  0  0
  156.8110  212.6410  154.5210 C   0  0  2  0  0  3  0  0  0  0  0  0
  158.4040  211.3030  155.8670 C   0  0  0  0  0  2  0  0  0  0  0  0
  157.1110  214.4530  156.0010 O   0  0  0  0  0  0  0  0  0  0  0  0
  156.8110  212.4900  153.1350 O   0  0  0  0  0  1  0  0  0  0  0  0
  156.3800  214.0430  154.8800 C   0  0  0  0  0  2  0  0  0  0  0  0
  158.3710  213.8480  155.8690 C   0  0  1  0  0  3  0  0  0  0  0  0
  159.6940  211.3630  156.5540 N   0  0  0  0  0  0  0  0  0  0  0  0
  158.9780  213.6220  157.2580 C   0  0  0  0  0  2  0  0  0  0  0  0
  158.2140  212.5680  155.0370 C   0  0  2  0  0  3  0  0  0  0  0  0
  161.6910  210.2850  157.1270 O   0  0  0  0  0  0  0  0  0  0  0  0
  1 11  1  0  0  0  0
  2  9  1  1  0  0  0
  4  3  1  1  0  0  0
  4  7  1  0  0  0  0
  4  2  1  0  0  0  0
  5  3  1  0  0  0  0
  6  1  1  0  0  0  0
  7  6  1  6  0  0  0
  7  2  1  0  0  0  0
  8  5  2  0  0  0  0
  9 11  1  0  0  0  0
 10 13  1  0  0  0  0
 11 32  1  6  0  0  0
 12 10  1  0  0  0  0
 12  5  1  0  0  0  0
 13 14  1  1  0  0  0
 13  7  1  0  0  0  0
 15 16  2  0  0  0  0
 16 20  1  0  0  0  0
 16 14  1  0  0  0  0
 17 23  2  0  0  0  0
 18 17  1  0  0  0  0
 18 20  2  0  0  0  0
 19 21  2  0  0  0  0
 20 22  1  0  0  0  0
 22 21  1  0  0  0  0
 23 19  1  0  0  0  0
 24 17  1  0  0  0  0
 25 24  1  0  0  0  0
 26 27  1  6  0  0  0
 26 25  1  0  0  0  0
 28 31  1  0  0  0  0
 28 26  1  0  0  0  0
 29 31  1  0  0  0  0
 30 31  1  0  0  0  0
 32 33  1  0  0  0  0
 33 34  1  0  0  0  0
 34 45  2  0  0  0  0
 35 43  1  0  0  0  0
 36 39  1  6  0  0  0
 36 40  1  0  0  0  0
 36 44  1  0  0  0  0
 37 42  1  0  0  0  0
 40 38  1  0  0  0  0
 41 38  1  0  0  0  0
 41 43  1  1  0  0  0
 42 34  1  0  0  0  0
 42 35  1  0  0  0  0
 44 37  1  1  0  0  0
 44 41  1  0  0  0  0
M  END
>  <MODEL>
6

>  <REMARK>
 VINA RESULT:      -5.5      3.666      9.130
  Name = 
  10 active torsions:
  status: ('A' for Active; 'I' for Inactive)
    1  A    between atoms: C_1  and  O_42
    2  A    between atoms: N_2  and  C_44
    3  A    between atoms: C_3  and  C_38
    4  A    between atoms: C_8  and  C_38
    5  A    between atoms: C_8  and  C_40
    6  A    between atoms: C_14  and  N_28
    7  A    between atoms: C_14  and  C_29
    8  A    between atoms: C_23  and  C_29
    9  A    between atoms: C_23  and  O_42
   10  A    between atoms: C_24  and  C_31
                            x       y       z     vdW  Elec       q    Type
                         _______ _______ _______ _____ _____    ______ ____

>  <TORSDO>
F 10

$$$$
=
 OpenBabel11042421383D

 45 50  0  0  1  0  0  0  0  0999 V2000
  160.7080  207.0560  149.1360 C   0  0  0  0  0  2  0  0  0  0  0  0
  163.0420  207.2380  150.9480 N   0  0  2  0  0  0  0  0  0  0  0  0
  162.1160  204.8790  150.7090 O   0  0  0  0  0  0  0  0  0  0  0  0
  162.7490  205.8890  151.4760 C   0  0  2  0  0  3  0  0  0  0  0  0
  161.1700  204.0980  151.4030 C   0  0  0  0  0  0  0  0  0  0  0  0
  160.4640  207.0260  150.6450 C   0  0  0  0  0  2  0  0  0  0  0  0
  161.7200  206.9430  151.5720 C   0  0  2  0  0  0  0  0  0  0  0  0
  160.4830  203.2490  150.7770 O   0  0  0  0  0  0  0  0  0  0  0  0
  163.1280  207.1210  149.4880 C   0  0  0  0  0  2  0  0  0  0  0  0
  160.4540  205.6930  153.3230 C   0  0  0  0  0  2  0  0  0  0  0  0
  161.9750  207.8090  148.7850 C   0  0  2  0  0  3  0  0  0  0  0  0
  160.9540  204.2820  152.9030 C   0  0  0  0  0  2  0  0  0  0  0  0
  161.4400  206.8690  153.0620 C   0  0  2  0  0  3  0  0  0  0  0  0
  160.8350  208.1140  153.5060 N   0  0  0  0  0  2  0  0  0  0  0  0
  161.7040  207.9730  155.6650 O   0  0  0  0  0  0  0  0  0  0  0  0
  160.9960  208.6100  154.8370 C   0  0  0  0  0  0  0  0  0  0  0  0
  158.2870  211.0780  155.9860 C   0  0  0  0  0  0  0  0  0  0  0  0
  159.0480  209.8890  155.5420 C   0  0  0  0  0  3  0  0  0  0  0  0
  160.1340  212.1240  157.2530 C   0  0  0  0  0  3  0  0  0  0  0  0
  160.3460  209.8730  155.2300 C   0  0  0  0  0  0  0  0  0  0  0  0
  161.2150  211.7160  156.5900 C   0  0  0  0  0  3  0  0  0  0  0  0
  161.1390  211.1410  155.2200 C   0  0  0  0  0  2  0  0  0  0  0  0
  158.7900  212.0120  156.7510 N   0  0  0  0  0  0  0  0  0  0  0  0
  156.9460  211.1470  155.6010 O   0  0  0  0  0  0  0  0  0  0  0  0
  156.5340  211.6330  154.3280 C   0  0  0  0  0  2  0  0  0  0  0  0
  156.3790  213.1400  154.3970 C   0  0  2  0  0  3  0  0  0  0  0  0
  155.1900  213.5220  153.7650 O   0  0  0  0  0  1  0  0  0  0  0  0
  157.5660  213.8060  153.7050 C   0  0  0  0  0  2  0  0  0  0  0  0
  157.7220  214.0320  151.3830 C   0  0  0  0  0  1  0  0  0  0  0  0
  159.3030  212.7730  152.5400 C   0  0  0  0  0  1  0  0  0  0  0  0
  157.8890  213.0940  152.4800 N   0  0  0  0  0  0  0  0  0  0  0  0
  161.8810  209.2880  149.1480 C   0  0  0  0  0  2  0  0  0  0  0  0
  161.9560  210.1580  147.9000 C   0  0  0  0  0  2  0  0  0  0  0  0
  161.6320  211.5810  148.2400 C   0  0  0  0  0  0  0  0  0  0  0  0
  160.4520  213.7480  147.7730 C   0  0  0  0  0  2  0  0  0  0  0  0
  159.7800  212.4530  143.7680 C   0  0  2  0  0  3  0  0  0  0  0  0
  160.3300  211.8400  146.1060 C   0  0  0  0  0  2  0  0  0  0  0  0
  158.6760  214.3840  144.5530 O   0  0  0  0  0  0  0  0  0  0  0  0
  160.7140  212.1900  142.7680 O   0  0  0  0  0  1  0  0  0  0  0  0
  158.9540  213.6590  143.3900 C   0  0  0  0  0  2  0  0  0  0  0  0
  159.8030  214.2200  145.3760 C   0  0  1  0  0  3  0  0  0  0  0  0
  160.8130  212.3830  147.3750 N   0  0  0  0  0  0  0  0  0  0  0  0
  159.3850  214.3300  146.8460 C   0  0  0  0  0  2  0  0  0  0  0  0
  160.4830  212.8940  145.0140 C   0  0  2  0  0  3  0  0  0  0  0  0
  162.1120  212.0800  149.2980 O   0  0  0  0  0  0  0  0  0  0  0  0
  1  6  1  0  0  0  0
  2  9  1  6  0  0  0
  2  4  1  0  0  0  0
  2  7  1  0  0  0  0
  3  5  1  0  0  0  0
  4  3  1  6  0  0  0
  4  7  1  0  0  0  0
  5 12  1  0  0  0  0
  7  6  1  6  0  0  0
  7 13  1  0  0  0  0
  8  5  2  0  0  0  0
 11  1  1  0  0  0  0
 11 32  1  1  0  0  0
 11  9  1  0  0  0  0
 12 10  1  0  0  0  0
 13 10  1  0  0  0  0
 13 14  1  6  0  0  0
 14 16  1  0  0  0  0
 16 20  1  0  0  0  0
 16 15  2  0  0  0  0
 17 23  2  0  0  0  0
 18 17  1  0  0  0  0
 20 18  2  0  0  0  0
 21 19  2  0  0  0  0
 22 20  1  0  0  0  0
 22 21  1  0  0  0  0
 23 19  1  0  0  0  0
 24 17  1  0  0  0  0
 25 26  1  0  0  0  0
 25 24  1  0  0  0  0
 26 27  1  6  0  0  0
 28 26  1  0  0  0  0
 29 31  1  0  0  0  0
 31 30  1  0  0  0  0
 31 28  1  0  0  0  0
 33 34  1  0  0  0  0
 33 32  1  0  0  0  0
 34 45  2  0  0  0  0
 36 39  1  6  0  0  0
 36 44  1  0  0  0  0
 37 42  1  0  0  0  0
 38 41  1  0  0  0  0
 40 36  1  0  0  0  0
 40 38  1  0  0  0  0
 41 43  1  1  0  0  0
 42 35  1  0  0  0  0
 42 34  1  0  0  0  0
 43 35  1  0  0  0  0
 44 41  1  0  0  0  0
 44 37  1  1  0  0  0
M  END
>  <MODEL>
7

>  <REMARK>
 VINA RESULT:      -5.3      2.396      8.889
  Name = 
  10 active torsions:
  status: ('A' for Active; 'I' for Inactive)
    1  A    between atoms: C_1  and  O_42
    2  A    between atoms: N_2  and  C_44
    3  A    between atoms: C_3  and  C_38
    4  A    between atoms: C_8  and  C_38
    5  A    between atoms: C_8  and  C_40
    6  A    between atoms: C_14  and  N_28
    7  A    between atoms: C_14  and  C_29
    8  A    between atoms: C_23  and  C_29
    9  A    between atoms: C_23  and  O_42
   10  A    between atoms: C_24  and  C_31
                            x       y       z     vdW  Elec       q    Type
                         _______ _______ _______ _____ _____    ______ ____

>  <TORSDO>
F 10

$$$$
=
 OpenBabel11042421383D

 45 50  0  0  1  0  0  0  0  0999 V2000
  160.6450  206.8930  151.0320 C   0  0  0  0  0  2  0  0  0  0  0  0
  162.7530  208.8810  151.6410 N   0  0  2  0  0  0  0  0  0  0  0  0
  161.7440  207.7970  153.7110 O   0  0  0  0  0  0  0  0  0  0  0  0
  162.3310  208.9090  153.0570 C   0  0  2  0  0  3  0  0  0  0  0  0
  160.6830  208.1040  154.5880 C   0  0  0  0  0  0  0  0  0  0  0  0
  160.2220  208.2790  151.5220 C   0  0  0  0  0  2  0  0  0  0  0  0
  161.3530  209.2450  152.0040 C   0  0  2  0  0  0  0  0  0  0  0  0
  160.0330  207.1720  155.1290 O   0  0  0  0  0  0  0  0  0  0  0  0
  163.0060  207.4780  151.2930 C   0  0  0  0  0  2  0  0  0  0  0  0
  159.8260  210.3620  153.6320 C   0  0  0  0  0  2  0  0  0  0  0  0
  161.9820  206.9310  150.3200 C   0  0  2  0  0  3  0  0  0  0  0  0
  160.3000  209.5540  154.8730 C   0  0  0  0  0  2  0  0  0  0  0  0
  160.8950  210.5950  152.5240 C   0  0  2  0  0  3  0  0  0  0  0  0
  160.3050  211.3600  151.4380 N   0  0  0  0  0  2  0  0  0  0  0  0
  159.7030  213.1580  152.7960 O   0  0  0  0  0  0  0  0  0  0  0  0
  159.7080  212.6430  151.6440 C   0  0  0  0  0  0  0  0  0  0  0  0
  159.1960  213.9710  148.0770 C   0  0  0  0  0  0  0  0  0  0  0  0
  159.7060  213.3250  149.3070 C   0  0  0  0  0  3  0  0  0  0  0  0
  156.7980  213.6230  148.5620 C   0  0  0  0  0  3  0  0  0  0  0  0
  159.1150  213.3640  150.5030 C   0  0  0  0  0  0  0  0  0  0  0  0
  156.7590  213.6480  149.8930 C   0  0  0  0  0  3  0  0  0  0  0  0
  157.8800  214.1820  150.7130 C   0  0  0  0  0  2  0  0  0  0  0  0
  157.9250  214.0550  147.7800 N   0  0  0  0  0  0  0  0  0  0  0  0
  160.1510  214.4530  147.1770 O   0  0  0  0  0  0  0  0  0  0  0  0
  161.0930  213.6050  146.5280 C   0  0  0  0  0  2  0  0  0  0  0  0
  160.5180  213.1430  145.2030 C   0  0  2  0  0  3  0  0  0  0  0  0
  159.8240  211.9400  145.3850 O   0  0  0  0  0  1  0  0  0  0  0  0
  161.6500  212.9360  144.2010 C   0  0  0  0  0  2  0  0  0  0  0  0
  160.2370  213.8470  142.5760 C   0  0  0  0  0  1  0  0  0  0  0  0
  162.2160  212.7970  141.9430 C   0  0  0  0  0  1  0  0  0  0  0  0
  161.1040  212.7200  142.8720 N   0  0  0  0  0  0  0  0  0  0  0  0
  161.9200  207.7460  149.0310 C   0  0  0  0  0  2  0  0  0  0  0  0
  160.8320  207.2160  148.1070 C   0  0  0  0  0  2  0  0  0  0  0  0
  161.3950  206.1740  147.1890 C   0  0  0  0  0  0  0  0  0  0  0  0
  161.7170  203.7800  146.5020 C   0  0  0  0  0  2  0  0  0  0  0  0
  160.4990  202.5570  150.3990 C   0  0  2  0  0  3  0  0  0  0  0  0
  160.5360  204.3390  148.6770 C   0  0  0  0  0  2  0  0  0  0  0  0
  160.7180  200.9360  148.7010 O   0  0  0  0  0  0  0  0  0  0  0  0
  161.1240  202.7940  151.6220 O   0  0  0  0  0  1  0  0  0  0  0  0
  160.5430  201.0820  150.0810 C   0  0  0  0  0  2  0  0  0  0  0  0
  161.5180  202.0200  148.3060 C   0  0  1  0  0  3  0  0  0  0  0  0
  161.2180  204.7740  147.4590 N   0  0  0  0  0  0  0  0  0  0  0  0
  161.2120  202.3790  146.8480 C   0  0  0  0  0  2  0  0  0  0  0  0
  161.3000  203.1730  149.2950 C   0  0  2  0  0  3  0  0  0  0  0  0
  162.0530  206.5440  146.1750 O   0  0  0  0  0  0  0  0  0  0  0  0
  1  6  1  0  0  0  0
  2  9  1  6  0  0  0
  2  7  1  0  0  0  0
  2  4  1  0  0  0  0
  3  5  1  0  0  0  0
  4  3  1  6  0  0  0
  5 12  1  0  0  0  0
  5  8  2  0  0  0  0
  7  6  1  6  0  0  0
  7 13  1  0  0  0  0
  7  4  1  0  0  0  0
 10 12  1  0  0  0  0
 11 32  1  6  0  0  0
 11  1  1  0  0  0  0
 11  9  1  0  0  0  0
 13 14  1  6  0  0  0
 13 10  1  0  0  0  0
 14 16  1  0  0  0  0
 16 15  2  0  0  0  0
 17 18  1  0  0  0  0
 18 20  2  0  0  0  0
 19 21  2  0  0  0  0
 20 22  1  0  0  0  0
 20 16  1  0  0  0  0
 21 22  1  0  0  0  0
 23 17  2  0  0  0  0
 23 19  1  0  0  0  0
 24 17  1  0  0  0  0
 25 24  1  0  0  0  0
 26 27  1  1  0  0  0
 26 25  1  0  0  0  0
 28 26  1  0  0  0  0
 29 31  1  0  0  0  0
 30 31  1  0  0  0  0
 31 28  1  0  0  0  0
 33 32  1  0  0  0  0
 34 42  1  0  0  0  0
 34 33  1  0  0  0  0
 35 43  1  0  0  0  0
 35 42  1  0  0  0  0
 36 39  1  1  0  0  0
 38 40  1  0  0  0  0
 40 36  1  0  0  0  0
 41 43  1  6  0  0  0
 41 38  1  0  0  0  0
 41 44  1  0  0  0  0
 42 37  1  0  0  0  0
 44 37  1  6  0  0  0
 44 36  1  0  0  0  0
 45 34  2  0  0  0  0
M  END
>  <MODEL>
8

>  <REMARK>
 VINA RESULT:      -5.2      2.018      2.861
  Name = 
  10 active torsions:
  status: ('A' for Active; 'I' for Inactive)
    1  A    between atoms: C_1  and  O_42
    2  A    between atoms: N_2  and  C_44
    3  A    between atoms: C_3  and  C_38
    4  A    between atoms: C_8  and  C_38
    5  A    between atoms: C_8  and  C_40
    6  A    between atoms: C_14  and  N_28
    7  A    between atoms: C_14  and  C_29
    8  A    between atoms: C_23  and  C_29
    9  A    between atoms: C_23  and  O_42
   10  A    between atoms: C_24  and  C_31
                            x       y       z     vdW  Elec       q    Type
                         _______ _______ _______ _____ _____    ______ ____

>  <TORSDO>
F 10

$$$$
=
 OpenBabel11042421383D

 45 50  0  0  1  0  0  0  0  0999 V2000
  158.6370  210.4550  154.5730 C   0  0  0  0  0  2  0  0  0  0  0  0
  159.9920  213.0780  154.7970 N   0  0  2  0  0  0  0  0  0  0  0  0
  157.4780  213.1900  155.1830 O   0  0  0  0  0  0  0  0  0  0  0  0
  158.6880  213.7680  154.7210 C   0  0  2  0  0  3  0  0  0  0  0  0
  156.3490  213.4270  154.3730 C   0  0  0  0  0  0  0  0  0  0  0  0
  158.5270  211.4350  153.4050 C   0  0  0  0  0  2  0  0  0  0  0  0
  159.0980  212.8740  153.6200 C   0  0  2  0  0  0  0  0  0  0  0  0
  155.2570  212.8640  154.6470 O   0  0  0  0  0  0  0  0  0  0  0  0
  159.8980  212.0930  155.8810 C   0  0  0  0  0  2  0  0  0  0  0  0
  157.4290  213.8670  152.0520 C   0  0  0  0  0  2  0  0  0  0  0  0
  159.9090  210.6670  155.3690 C   0  0  2  0  0  3  0  0  0  0  0  0
  156.4400  214.3410  153.1530 C   0  0  0  0  0  2  0  0  0  0  0  0
  158.9320  213.8350  152.4570 C   0  0  2  0  0  3  0  0  0  0  0  0
  159.7270  213.3750  151.3300 N   0  0  0  0  0  2  0  0  0  0  0  0
  158.4090  214.4520  149.7350 O   0  0  0  0  0  0  0  0  0  0  0  0
  159.4020  213.7110  149.9780 C   0  0  0  0  0  0  0  0  0  0  0  0
  161.0550  213.4330  146.5230 C   0  0  0  0  0  0  0  0  0  0  0  0
  160.2350  213.8180  147.6930 C   0  0  0  0  0  3  0  0  0  0  0  0
  163.0330  212.6960  147.8080 C   0  0  0  0  0  3  0  0  0  0  0  0
  160.2400  213.2020  148.8780 C   0  0  0  0  0  0  0  0  0  0  0  0
  162.4990  212.2580  148.9470 C   0  0  0  0  0  3  0  0  0  0  0  0
  161.0480  211.9610  149.0840 C   0  0  0  0  0  2  0  0  0  0  0  0
  162.2760  212.9750  146.6170 N   0  0  0  0  0  0  0  0  0  0  0  0
  160.4880  213.6390  145.2620 O   0  0  0  0  0  0  0  0  0  0  0  0
  161.2510  214.0470  144.1320 C   0  0  0  0  0  2  0  0  0  0  0  0
  160.8630  213.1970  142.9370 C   0  0  2  0  0  3  0  0  0  0  0  0
  159.7810  212.3750  143.2750 O   0  0  0  0  0  1  0  0  0  0  0  0
  162.0520  212.3350  142.5190 C   0  0  0  0  0  2  0  0  0  0  0  0
  163.1820  212.9570  140.5680 C   0  0  0  0  0  1  0  0  0  0  0  0
  162.3780  210.7840  140.8080 C   0  0  0  0  0  1  0  0  0  0  0  0
  162.0660  212.1760  141.0750 N   0  0  0  0  0  0  0  0  0  0  0  0
  161.1570  210.3620  154.5450 C   0  0  0  0  0  2  0  0  0  0  0  0
  161.9460  209.2150  155.1630 C   0  0  0  0  0  2  0  0  0  0  0  0
  161.1860  207.9310  155.0260 C   0  0  0  0  0  0  0  0  0  0  0  0
  160.5760  205.8530  153.7540 C   0  0  0  0  0  2  0  0  0  0  0  0
  162.1590  207.6220  150.2150 C   0  0  2  0  0  3  0  0  0  0  0  0
  162.0610  207.6130  152.6910 C   0  0  0  0  0  2  0  0  0  0  0  0
  161.5920  205.3330  150.2020 O   0  0  0  0  0  0  0  0  0  0  0  0
  161.7140  208.7510  149.5300 O   0  0  0  0  0  1  0  0  0  0  0  0
  161.9480  206.3940  149.3630 C   0  0  0  0  0  2  0  0  0  0  0  0
  160.8450  205.9110  151.2410 C   0  0  1  0  0  3  0  0  0  0  0  0
  161.2730  207.1410  153.8290 N   0  0  0  0  0  0  0  0  0  0  0  0
  160.9970  205.0680  152.5120 C   0  0  0  0  0  2  0  0  0  0  0  0
  161.2820  207.3730  151.4020 C   0  0  2  0  0  3  0  0  0  0  0  0
  160.4410  207.5570  155.9770 O   0  0  0  0  0  0  0  0  0  0  0  0
  1 11  1  0  0  0  0
  2  9  1  1  0  0  0
  4  2  1  0  0  0  0
  4  3  1  1  0  0  0
  5  8  2  0  0  0  0
  5  3  1  0  0  0  0
  6  1  1  0  0  0  0
  7  6  1  6  0  0  0
  7  4  1  0  0  0  0
  7  2  1  0  0  0  0
 10 13  1  0  0  0  0
 10 12  1  0  0  0  0
 11 32  1  6  0  0  0
 11  9  1  0  0  0  0
 12  5  1  0  0  0  0
 13 14  1  6  0  0  0
 13  7  1  0  0  0  0
 15 16  2  0  0  0  0
 16 14  1  0  0  0  0
 17 23  2  0  0  0  0
 17 18  1  0  0  0  0
 18 20  2  0  0  0  0
 19 21  2  0  0  0  0
 20 22  1  0  0  0  0
 20 16  1  0  0  0  0
 21 22  1  0  0  0  0
 23 19  1  0  0  0  0
 24 17  1  0  0  0  0
 25 24  1  0  0  0  0
 26 27  1  1  0  0  0
 26 25  1  0  0  0  0
 28 26  1  0  0  0  0
 29 31  1  0  0  0  0
 30 31  1  0  0  0  0
 31 28  1  0  0  0  0
 32 33  1  0  0  0  0
 34 33  1  0  0  0  0
 34 45  2  0  0  0  0
 35 42  1  0  0  0  0
 36 39  1  6  0  0  0
 36 44  1  0  0  0  0
 37 42  1  0  0  0  0
 38 41  1  0  0  0  0
 40 38  1  0  0  0  0
 40 36  1  0  0  0  0
 41 44  1  0  0  0  0
 41 43  1  1  0  0  0
 42 34  1  0  0  0  0
 43 35  1  0  0  0  0
 44 37  1  1  0  0  0
M  END
>  <MODEL>
9

>  <REMARK>
 VINA RESULT:      -4.9      2.219      3.547
  Name = 
  10 active torsions:
  status: ('A' for Active; 'I' for Inactive)
    1  A    between atoms: C_1  and  O_42
    2  A    between atoms: N_2  and  C_44
    3  A    between atoms: C_3  and  C_38
    4  A    between atoms: C_8  and  C_38
    5  A    between atoms: C_8  and  C_40
    6  A    between atoms: C_14  and  N_28
    7  A    between atoms: C_14  and  C_29
    8  A    between atoms: C_23  and  C_29
    9  A    between atoms: C_23  and  O_42
   10  A    between atoms: C_24  and  C_31
                            x       y       z     vdW  Elec       q    Type
                         _______ _______ _______ _____ _____    ______ ____

>  <TORSDO>
F 10

$$$$
