=
 OpenBabel11052410113D

 48 54  0  0  1  0  0  0  0  0999 V2000
  160.8390  211.3370  152.0900 S   0  0  0  0  0  0  0  0  0  0  0  0
  161.1890  205.4190  151.0190 C   0  0  0  0  0  0  0  0  0  0  0  0
  162.3030  207.3980  149.3230 C   0  0  1  0  0  3  0  0  0  0  0  0
  160.4810  208.8220  153.0800 C   0  0  0  0  0  2  0  0  0  0  0  0
  161.8010  209.0210  150.9540 C   0  0  0  0  0  0  0  0  0  0  0  0
  161.7430  206.5050  151.5850 C   0  0  0  0  0  0  0  0  0  0  0  0
  162.1340  208.7530  148.6310 C   0  0  0  0  0  2  0  0  0  0  0  0
  162.0200  207.6260  150.7310 N   0  0  0  0  0  0  0  0  0  0  0  0
  162.2360  206.4840  152.9970 C   0  0  0  0  0  1  0  0  0  0  0  0
  159.3360  210.9020  152.9660 C   0  0  0  0  0  0  0  0  0  0  0  0
  161.3710  206.3350  148.7940 C   0  0  0  0  0  0  0  0  0  0  0  0
  160.9130  205.4200  149.6050 N   0  0  0  0  0  0  0  0  0  0  0  0
  162.1440  209.8010  149.7390 C   0  0  0  0  0  2  0  0  0  0  0  0
  159.2990  209.6560  153.4240 C   0  0  0  0  0  3  0  0  0  0  0  0
  161.1820  209.5800  152.0120 C   0  0  0  0  0  0  0  0  0  0  0  0
  159.7170  213.9630  151.9730 O   0  0  0  0  0  0  0  0  0  0  0  0
  158.3720  212.2180  155.9220 C   0  0  1  0  0  3  0  0  0  0  0  0
  157.0590  211.9820  155.1440 C   0  0  0  0  0  2  0  0  0  0  0  0
  159.3180  213.2550  155.2670 C   0  0  1  0  0  3  0  0  0  0  0  0
  158.6410  214.2400  154.5290 O   0  0  0  0  0  0  0  0  0  0  0  0
  158.0500  212.6140  157.2080 F   0  0  0  0  0  0  0  0  0  0  0  0
  160.1480  213.8510  156.2170 O   0  0  0  0  0  1  0  0  0  0  0  0
  158.2510  211.8180  153.2100 N   0  0  0  0  0  0  0  0  0  0  0  0
  158.4190  213.5650  152.9830 P   0  0  2  0  0  0  0  0  0  0  0  0
  157.1450  214.1130  152.3840 O   0  0  0  0  0  1  0  0  0  0  0  0
  157.1520  211.3520  153.8710 O   0  0  0  0  0  0  0  0  0  0  0  0
  161.1050  206.2270  147.3190 C   0  0  2  0  0  3  0  0  0  0  0  0
  159.7230  206.6050  147.0670 N   0  0  0  0  0  1  0  0  0  0  0  0
  162.5020  204.1220  147.5220 C   0  0  0  0  0  2  0  0  0  0  0  0
  163.2910  204.9580  145.4030 C   0  0  0  0  0  2  0  0  0  0  0  0
  163.7600  204.3860  146.7260 C   0  0  0  0  0  2  0  0  0  0  0  0
  161.8460  204.7930  145.3470 N   0  0  0  0  0  0  0  0  0  0  0  0
  161.3880  204.8080  146.7470 C   0  0  2  0  0  3  0  0  0  0  0  0
  161.2880  205.8550  144.5160 C   0  0  0  0  0  2  0  0  0  0  0  0
  160.4940  204.7550  142.5760 F   0  0  0  0  0  0  0  0  0  0  0  0
  161.5250  205.5480  143.0480 C   0  0  1  0  0  3  0  0  0  0  0  0
  161.5750  206.7850  142.2860 N   0  0  0  0  0  2  0  0  0  0  0  0
  162.0000  206.4430  140.9400 C   0  0  0  0  0  2  0  0  0  0  0  0
  162.0620  207.7020  140.0960 C   0  0  0  0  0  2  0  0  0  0  0  0
  161.8990  207.3600  138.6270 C   0  0  0  0  0  2  0  0  0  0  0  0
  161.2950  208.4750  137.9200 N   0  0  0  0  0  2  0  0  0  0  0  0
  159.9850  208.4890  138.2580 O   0  0  0  0  0  1  0  0  0  0  0  0
  160.8010  203.9450  151.9660 S   0  0  0  0  0  0  0  0  0  0  0  0
  161.5250  202.8570  150.7030 C   0  0  0  0  0  2  0  0  0  0  0  0
  160.5340  201.7750  150.3240 C   0  0  1  0  0  0  0  0  0  0  0  0
  161.1040  200.4940  150.4310 O   0  0  0  0  0  0  0  0  0  0  0  0
  159.9320  201.9850  148.9540 C   0  0  0  0  0  2  0  0  0  0  0  0
  161.1160  201.0670  149.1490 C   0  0  1  0  0  3  0  0  0  0  0  0
  1 10  1  0  0  0  0
  2  6  2  0  0  0  0
  2 43  1  0  0  0  0
  3  7  1  6  0  0  0
  3  8  1  0  0  0  0
  4 14  1  0  0  0  0
  5 15  2  0  0  0  0
  6  9  1  0  0  0  0
  7 13  1  0  0  0  0
  8  5  1  0  0  0  0
  8  6  1  0  0  0  0
 10 23  1  0  0  0  0
 10 14  2  0  0  0  0
 11  3  1  0  0  0  0
 11 12  2  0  0  0  0
 12  2  1  0  0  0  0
 13  5  1  0  0  0  0
 15  1  1  0  0  0  0
 15  4  1  0  0  0  0
 17 21  1  1  0  0  0
 18 17  1  0  0  0  0
 19 17  1  0  0  0  0
 19 22  1  1  0  0  0
 20 19  1  0  0  0  0
 23 26  1  0  0  0  0
 24 16  2  6  0  0  0
 24 23  1  0  0  0  0
 24 20  1  0  0  0  0
 25 24  1  0  0  0  0
 26 18  1  0  0  0  0
 27 28  1  1  0  0  0
 27 11  1  0  0  0  0
 30 31  1  0  0  0  0
 31 29  1  0  0  0  0
 32 30  1  0  0  0  0
 32 33  1  0  0  0  0
 33 27  1  1  0  0  0
 33 29  1  0  0  0  0
 34 32  1  0  0  0  0
 36 35  1  6  0  0  0
 36 34  1  0  0  0  0
 37 36  1  0  0  0  0
 38 37  1  0  0  0  0
 39 38  1  0  0  0  0
 40 39  1  0  0  0  0
 41 42  1  0  0  0  0
 41 40  1  0  0  0  0
 44 43  1  0  0  0  0
 45 46  1  0  0  0  0
 45 44  1  1  0  0  0
 47 45  1  0  0  0  0
 48 47  1  6  0  0  0
 48 45  1  0  0  0  0
 48 46  1  0  0  0  0
M  END
>  <MODEL>
1

>  <REMARK>
 VINA RESULT:      -4.0      0.000      0.000
  Name = 
  13 active torsions:
  status: ('A' for Active; 'I' for Inactive)
    1  A    between atoms: S_1  and  C_7
    2  A    between atoms: S_1  and  C_31
    3  A    between atoms: C_3  and  N_34
    4  A    between atoms: C_3  and  C_35
    5  A    between atoms: C_10  and  C_31
    6  A    between atoms: N_11  and  C_20
    7  A    between atoms: C_20  and  C_35
    8  A    between atoms: C_21  and  C_29
    9  A    between atoms: C_21  and  C_44
   10  A    between atoms: C_27  and  C_32
   11  A    between atoms: C_27  and  N_34
   12  A    between atoms: C_28  and  N_30
   13  A    between atoms: C_32  and  N_41
                            x       y       z     vdW  Elec       q    Type
                         _______ _______ _______ _____ _____    ______ ____

>  <TORSDO>
F 13

$$$$
=
 OpenBabel11052410113D

 48 54  0  0  1  0  0  0  0  0999 V2000
  162.5030  211.9400  147.2410 S   0  0  0  0  0  0  0  0  0  0  0  0
  160.7440  208.8050  152.0760 C   0  0  0  0  0  0  0  0  0  0  0  0
  162.4190  207.7610  150.0420 C   0  0  1  0  0  3  0  0  0  0  0  0
  161.3280  212.0220  149.7010 C   0  0  0  0  0  2  0  0  0  0  0  0
  162.5640  209.9190  149.1100 C   0  0  0  0  0  0  0  0  0  0  0  0
  161.6580  209.6210  151.5230 C   0  0  0  0  0  0  0  0  0  0  0  0
  162.7080  207.6300  148.5440 C   0  0  0  0  0  2  0  0  0  0  0  0
  162.2790  209.1840  150.3030 N   0  0  0  0  0  0  0  0  0  0  0  0
  162.1600  210.8330  152.2400 C   0  0  0  0  0  1  0  0  0  0  0  0
  160.9710  212.8380  147.4970 C   0  0  0  0  0  0  0  0  0  0  0  0
  161.1600  207.0500  150.4740 C   0  0  0  0  0  0  0  0  0  0  0  0
  160.4400  207.5480  151.4430 N   0  0  0  0  0  0  0  0  0  0  0  0
  163.1170  209.0190  148.0660 C   0  0  0  0  0  2  0  0  0  0  0  0
  160.5200  212.8250  148.7450 C   0  0  0  0  0  3  0  0  0  0  0  0
  162.2120  211.1910  148.8430 C   0  0  0  0  0  0  0  0  0  0  0  0
  157.8300  212.1750  147.0520 O   0  0  0  0  0  1  0  0  0  0  0  0
  161.2900  212.4710  144.1560 C   0  0  1  0  0  3  0  0  0  0  0  0
  161.0830  213.9860  144.3720 C   0  0  0  0  0  2  0  0  0  0  0  0
  160.0820  211.6000  144.5800 C   0  0  1  0  0  3  0  0  0  0  0  0
  158.8480  212.2610  144.4590 O   0  0  0  0  0  0  0  0  0  0  0  0
  161.5840  212.2590  142.8200 F   0  0  0  0  0  0  0  0  0  0  0  0
  160.0540  210.3970  143.8730 O   0  0  0  0  0  1  0  0  0  0  0  0
  160.2800  213.5630  146.4610 N   0  0  0  0  0  0  0  0  0  0  0  0
  158.6560  213.1180  145.9170 P   0  0  2  0  0  0  0  0  0  0  0  0
  157.8600  214.3740  145.6490 O   0  0  0  0  0  0  0  0  0  0  0  0
  160.9940  214.4530  145.7140 O   0  0  0  0  0  0  0  0  0  0  0  0
  160.8240  205.6960  149.9140 C   0  0  2  0  0  3  0  0  0  0  0  0
  159.9470  205.8720  148.7670 N   0  0  0  0  0  1  0  0  0  0  0  0
  160.6190  205.0910  152.3670 C   0  0  0  0  0  2  0  0  0  0  0  0
  161.7470  203.1300  151.5330 C   0  0  0  0  0  2  0  0  0  0  0  0
  161.7670  204.1500  152.6550 C   0  0  0  0  0  2  0  0  0  0  0  0
  160.5100  203.3240  150.7920 N   0  0  0  0  0  0  0  0  0  0  0  0
  160.1660  204.7470  150.9560 C   0  0  2  0  0  3  0  0  0  0  0  0
  160.7260  202.9090  149.4100 C   0  0  0  0  0  2  0  0  0  0  0  0
  158.9750  201.3280  149.2220 F   0  0  0  0  0  0  0  0  0  0  0  0
  160.3530  201.4470  149.2390 C   0  0  1  0  0  3  0  0  0  0  0  0
  160.9000  200.9400  147.9920 N   0  0  0  0  0  2  0  0  0  0  0  0
  160.4990  201.8590  146.9410 C   0  0  0  0  0  2  0  0  0  0  0  0
  161.7090  202.6370  146.4620 C   0  0  0  0  0  2  0  0  0  0  0  0
  161.3060  203.6280  145.3860 C   0  0  0  0  0  2  0  0  0  0  0  0
  161.3570  204.9800  145.9110 N   0  0  0  0  0  2  0  0  0  0  0  0
  162.2770  205.6500  145.1780 O   0  0  0  0  0  1  0  0  0  0  0  0
  159.9010  209.2200  153.6050 S   0  0  0  0  0  0  0  0  0  0  0  0
  160.5510  207.7460  154.4460 C   0  0  0  0  0  2  0  0  0  0  0  0
  160.3060  207.8530  155.9380 C   0  0  1  0  0  0  0  0  0  0  0  0
  160.4980  209.1670  156.3990 O   0  0  0  0  0  0  0  0  0  0  0  0
  161.1330  206.8730  156.7380 C   0  0  0  0  0  2  0  0  0  0  0  0
  161.5930  208.2990  156.5430 C   0  0  1  0  0  3  0  0  0  0  0  0
  1 10  1  0  0  0  0
  1 15  1  0  0  0  0
  2 43  1  0  0  0  0
  3  7  1  6  0  0  0
  3  8  1  0  0  0  0
  3 11  1  0  0  0  0
  5  8  1  0  0  0  0
  6  2  2  0  0  0  0
  6  9  1  0  0  0  0
  8  6  1  0  0  0  0
 10 14  2  0  0  0  0
 11 12  2  0  0  0  0
 12  2  1  0  0  0  0
 13  7  1  0  0  0  0
 13  5  1  0  0  0  0
 14  4  1  0  0  0  0
 15  5  2  0  0  0  0
 15  4  1  0  0  0  0
 17 21  1  6  0  0  0
 17 18  1  0  0  0  0
 17 19  1  0  0  0  0
 18 26  1  0  0  0  0
 19 22  1  6  0  0  0
 20 19  1  0  0  0  0
 20 24  1  0  0  0  0
 23 10  1  0  0  0  0
 24 25  2  6  0  0  0
 24 23  1  0  0  0  0
 24 16  1  0  0  0  0
 26 23  1  0  0  0  0
 27 28  1  6  0  0  0
 27 11  1  0  0  0  0
 29 31  1  0  0  0  0
 30 31  1  0  0  0  0
 32 33  1  0  0  0  0
 32 30  1  0  0  0  0
 33 27  1  6  0  0  0
 33 29  1  0  0  0  0
 34 32  1  0  0  0  0
 36 35  1  6  0  0  0
 36 34  1  0  0  0  0
 37 36  1  0  0  0  0
 38 37  1  0  0  0  0
 39 38  1  0  0  0  0
 40 41  1  0  0  0  0
 40 39  1  0  0  0  0
 42 41  1  0  0  0  0
 43 44  1  0  0  0  0
 45 44  1  6  0  0  0
 45 46  1  0  0  0  0
 45 48  1  0  0  0  0
 45 47  1  0  0  0  0
 46 48  1  0  0  0  0
 48 47  1  1  0  0  0
M  END
>  <MODEL>
2

>  <REMARK>
 VINA RESULT:      -2.0      4.489      7.239
  Name = 
  13 active torsions:
  status: ('A' for Active; 'I' for Inactive)
    1  A    between atoms: S_1  and  C_7
    2  A    between atoms: S_1  and  C_31
    3  A    between atoms: C_3  and  N_34
    4  A    between atoms: C_3  and  C_35
    5  A    between atoms: C_10  and  C_31
    6  A    between atoms: N_11  and  C_20
    7  A    between atoms: C_20  and  C_35
    8  A    between atoms: C_21  and  C_29
    9  A    between atoms: C_21  and  C_44
   10  A    between atoms: C_27  and  C_32
   11  A    between atoms: C_27  and  N_34
   12  A    between atoms: C_28  and  N_30
   13  A    between atoms: C_32  and  N_41
                            x       y       z     vdW  Elec       q    Type
                         _______ _______ _______ _____ _____    ______ ____

>  <TORSDO>
F 13

$$$$
