=
 OpenBabel11042422343D

 33 38  0  0  1  0  0  0  0  0999 V2000
  161.5130  205.6340  146.7180 C   0  0  0  0  0  3  0  0  0  0  0  0
  161.7850  209.5860  150.9250 C   0  0  0  0  0  0  0  0  0  0  0  0
  161.5910  209.0990  152.5340 S   0  0  0  0  0  0  0  0  0  0  0  0
  161.2060  203.9200  148.8680 C   0  0  0  0  0  0  0  0  0  0  0  0
  161.4960  207.2960  150.7040 C   0  0  0  0  0  0  0  0  0  0  0  0
  161.3460  205.9300  150.3990 C   0  0  0  0  0  0  0  0  0  0  0  0
  162.0170  210.8360  150.3560 C   0  0  0  0  0  3  0  0  0  0  0  0
  161.4140  207.4820  152.0520 C   0  0  0  0  0  0  0  0  0  0  0  0
  161.3790  204.3040  146.5380 N   0  0  0  0  0  0  0  0  0  0  0  0
  161.1720  205.3040  151.7390 C   0  0  0  0  0  0  0  0  0  0  0  0
  161.4980  206.1440  148.0070 C   0  0  0  0  0  3  0  0  0  0  0  0
  160.9480  202.9030  151.1810 C   0  0  0  0  0  3  0  0  0  0  0  0
  162.1240  210.7100  148.9680 C   0  0  0  0  0  0  0  0  0  0  0  0
  161.7130  208.5210  150.0580 C   0  0  0  0  0  0  0  0  0  0  0  0
  161.3480  205.3170  149.1240 C   0  0  0  0  0  0  0  0  0  0  0  0
  161.0380  202.9020  149.8010 C   0  0  0  0  0  3  0  0  0  0  0  0
  161.2320  203.4850  147.5770 N   0  0  0  0  0  0  0  0  0  0  0  0
  161.9470  209.0830  148.4940 S   0  0  0  0  0  0  0  0  0  0  0  0
  161.0050  203.9690  152.0500 C   0  0  0  0  0  3  0  0  0  0  0  0
  161.2190  206.3070  152.7180 C   0  0  0  0  0  0  0  0  0  0  0  0
  160.5910  207.1440  154.9330 C   0  0  0  0  0  0  0  0  0  0  0  0
  161.1010  206.2030  154.1870 C   0  0  0  0  0  3  0  0  0  0  0  0
  160.0810  208.0910  155.6680 C   0  0  0  0  0  3  0  0  0  0  0  0
  160.9520  209.1860  156.1770 C   0  0  0  0  0  2  0  0  0  0  0  0
  161.1250  211.4530  155.3730 O   0  0  0  0  0  0  0  0  0  0  0  0
  160.2700  210.5320  155.9990 C   0  0  2  0  0  0  0  0  0  0  0  0
  160.8080  211.6980  156.7280 C   0  0  0  0  0  2  0  0  0  0  0  0
  158.8620  210.6200  155.4340 C   0  0  0  0  0  2  0  0  0  0  0  0
  158.9020  211.0780  154.0550 N   0  0  0  0  0  2  0  0  0  0  0  0
  157.8830  212.1050  153.9260 C   0  0  0  0  0  1  0  0  0  0  0  0
  162.4080  211.8480  148.0460 C   0  0  2  0  0  3  0  0  0  0  0  0
  163.7540  212.2030  148.1230 O   0  0  0  0  0  1  0  0  0  0  0  0
  161.5430  213.0400  148.4030 C   0  0  0  0  0  1  0  0  0  0  0  0
  1 11  1  0  0  0  0
  2  3  1  0  0  0  0
  4 15  1  0  0  0  0
  4 16  1  0  0  0  0
  5  8  1  0  0  0  0
  6  5  2  0  0  0  0
  6 10  1  0  0  0  0
  7  2  1  0  0  0  0
  8  3  1  0  0  0  0
  8 20  2  0  0  0  0
  9  1  2  0  0  0  0
  9 17  1  0  0  0  0
 10 19  2  0  0  0  0
 10 20  1  0  0  0  0
 11 15  2  0  0  0  0
 12 19  1  0  0  0  0
 13  7  2  0  0  0  0
 14  5  1  0  0  0  0
 14  2  2  0  0  0  0
 15  6  1  0  0  0  0
 16 12  2  0  0  0  0
 17  4  2  0  0  0  0
 18 13  1  0  0  0  0
 18 14  1  0  0  0  0
 20 22  1  0  0  0  0
 21 23  2  0  0  0  0
 22 21  2  0  0  0  0
 23 24  1  0  0  0  0
 25 26  1  0  0  0  0
 25 27  1  0  0  0  0
 26 28  1  6  0  0  0
 26 24  1  0  0  0  0
 26 27  1  0  0  0  0
 29 28  1  0  0  0  0
 30 29  1  0  0  0  0
 31 32  1  0  0  0  0
 31 33  1  1  0  0  0
 31 13  1  0  0  0  0
M  END
>  <MODEL>
1

>  <REMARK>
 VINA RESULT:      -9.9      0.000      0.000
  Name = 
  6 active torsions:
  status: ('A' for Active; 'I' for Inactive)
    1  A    between atoms: N_3  and  C_30
    2  A    between atoms: C_5  and  C_23
    3  A    between atoms: C_9  and  C_17
    4  A    between atoms: C_9  and  C_33
    5  A    between atoms: C_13  and  C_32
    6  A    between atoms: C_17  and  C_30
                            x       y       z     vdW  Elec       q    Type
                         _______ _______ _______ _____ _____    ______ ____

>  <TORSDO>
F 6

$$$$
=
 OpenBabel11042422343D

 33 38  0  0  1  0  0  0  0  0999 V2000
  160.6920  203.5660  151.5990 C   0  0  0  0  0  3  0  0  0  0  0  0
  161.4730  209.0980  153.0720 C   0  0  0  0  0  0  0  0  0  0  0  0
  161.8810  210.2250  151.8780 S   0  0  0  0  0  0  0  0  0  0  0  0
  161.1880  204.5650  149.0680 C   0  0  0  0  0  0  0  0  0  0  0  0
  161.5110  207.7840  151.1630 C   0  0  0  0  0  0  0  0  0  0  0  0
  161.4840  206.8540  150.1070 C   0  0  0  0  0  0  0  0  0  0  0  0
  161.2660  209.2340  154.4430 C   0  0  0  0  0  3  0  0  0  0  0  0
  161.8290  209.0200  150.6840 C   0  0  0  0  0  0  0  0  0  0  0  0
  160.6730  202.7640  150.5140 N   0  0  0  0  0  0  0  0  0  0  0  0
  161.8160  207.6870  148.9180 C   0  0  0  0  0  0  0  0  0  0  0  0
  160.9640  204.9150  151.4340 C   0  0  0  0  0  3  0  0  0  0  0  0
  161.7260  206.0410  147.0710 C   0  0  0  0  0  3  0  0  0  0  0  0
  160.9230  207.9960  154.9930 C   0  0  0  0  0  0  0  0  0  0  0  0
  161.3040  207.8380  152.5480 C   0  0  0  0  0  0  0  0  0  0  0  0
  161.2180  205.4660  150.1750 C   0  0  0  0  0  0  0  0  0  0  0  0
  161.4120  204.8650  147.7270 C   0  0  0  0  0  3  0  0  0  0  0  0
  160.9120  203.2510  149.2990 N   0  0  0  0  0  0  0  0  0  0  0  0
  160.8710  206.7930  153.7880 S   0  0  0  0  0  0  0  0  0  0  0  0
  161.9100  207.3010  147.5950 C   0  0  0  0  0  3  0  0  0  0  0  0
  162.0230  209.0100  149.3340 C   0  0  0  0  0  0  0  0  0  0  0  0
  161.8390  211.3830  148.7540 C   0  0  0  0  0  0  0  0  0  0  0  0
  162.3680  210.2090  148.5430 C   0  0  0  0  0  3  0  0  0  0  0  0
  161.3030  212.5500  148.9710 C   0  0  0  0  0  3  0  0  0  0  0  0
  160.0260  212.9180  148.2990 C   0  0  0  0  0  2  0  0  0  0  0  0
  157.8130  213.1530  149.2280 O   0  0  0  0  0  0  0  0  0  0  0  0
  159.1190  213.6690  149.2590 C   0  0  2  0  0  0  0  0  0  0  0  0
  157.9980  214.4520  148.7040 C   0  0  0  0  0  2  0  0  0  0  0  0
  159.5620  213.9510  150.6850 C   0  0  0  0  0  2  0  0  0  0  0  0
  159.0930  212.9010  151.5750 N   0  0  0  0  0  2  0  0  0  0  0  0
  158.5040  213.5610  152.7260 C   0  0  0  0  0  1  0  0  0  0  0  0
  160.5980  207.7840  156.4330 C   0  0  2  0  0  3  0  0  0  0  0  0
  159.4640  206.9800  156.5560 O   0  0  0  0  0  1  0  0  0  0  0  0
  160.3570  209.1140  157.1190 C   0  0  0  0  0  1  0  0  0  0  0  0
  2  7  1  0  0  0  0
  3  2  1  0  0  0  0
  4 17  2  0  0  0  0
  4 15  1  0  0  0  0
  5 14  1  0  0  0  0
  6 15  1  0  0  0  0
  6  5  2  0  0  0  0
  7 13  2  0  0  0  0
  8  5  1  0  0  0  0
  8  3  1  0  0  0  0
  9  1  2  0  0  0  0
 10 20  1  0  0  0  0
 10  6  1  0  0  0  0
 11  1  1  0  0  0  0
 12 19  1  0  0  0  0
 12 16  2  0  0  0  0
 13 31  1  0  0  0  0
 14  2  2  0  0  0  0
 14 18  1  0  0  0  0
 15 11  2  0  0  0  0
 16  4  1  0  0  0  0
 17  9  1  0  0  0  0
 18 13  1  0  0  0  0
 19 10  2  0  0  0  0
 20  8  2  0  0  0  0
 21 23  2  0  0  0  0
 22 21  2  0  0  0  0
 22 20  1  0  0  0  0
 24 23  1  0  0  0  0
 25 26  1  0  0  0  0
 26 24  1  6  0  0  0
 26 28  1  0  0  0  0
 27 25  1  0  0  0  0
 27 26  1  0  0  0  0
 28 29  1  0  0  0  0
 29 30  1  0  0  0  0
 31 32  1  0  0  0  0
 31 33  1  6  0  0  0
M  END
>  <MODEL>
2

>  <REMARK>
 VINA RESULT:      -8.9      2.146      5.697
  Name = 
  6 active torsions:
  status: ('A' for Active; 'I' for Inactive)
    1  A    between atoms: N_3  and  C_30
    2  A    between atoms: C_5  and  C_23
    3  A    between atoms: C_9  and  C_17
    4  A    between atoms: C_9  and  C_33
    5  A    between atoms: C_13  and  C_32
    6  A    between atoms: C_17  and  C_30
                            x       y       z     vdW  Elec       q    Type
                         _______ _______ _______ _____ _____    ______ ____

>  <TORSDO>
F 6

$$$$
=
 OpenBabel11042422343D

 33 38  0  0  1  0  0  0  0  0999 V2000
  160.8290  203.5150  152.0230 C   0  0  0  0  0  3  0  0  0  0  0  0
  161.4850  209.1860  152.9090 C   0  0  0  0  0  0  0  0  0  0  0  0
  161.8190  210.1980  151.5940 S   0  0  0  0  0  0  0  0  0  0  0  0
  161.2100  204.2680  149.3880 C   0  0  0  0  0  0  0  0  0  0  0  0
  161.5010  207.6880  151.1400 C   0  0  0  0  0  0  0  0  0  0  0  0
  161.4680  206.6560  150.1830 C   0  0  0  0  0  0  0  0  0  0  0  0
  161.3200  209.4540  154.2650 C   0  0  0  0  0  3  0  0  0  0  0  0
  161.7650  208.8790  150.5290 C   0  0  0  0  0  0  0  0  0  0  0  0
  160.7990  202.6080  151.0250 N   0  0  0  0  0  0  0  0  0  0  0  0
  161.7350  207.3750  148.9060 C   0  0  0  0  0  0  0  0  0  0  0  0
  161.0530  204.8470  151.7140 C   0  0  0  0  0  3  0  0  0  0  0  0
  161.6350  205.5500  147.2360 C   0  0  0  0  0  3  0  0  0  0  0  0
  161.0330  208.2680  154.9480 C   0  0  0  0  0  0  0  0  0  0  0  0
  161.3390  207.8760  152.5190 C   0  0  0  0  0  0  0  0  0  0  0  0
  161.2480  205.2760  150.3980 C   0  0  0  0  0  0  0  0  0  0  0  0
  161.3800  204.4370  148.0170 C   0  0  0  0  0  3  0  0  0  0  0  0
  160.9830  202.9760  149.7590 N   0  0  0  0  0  0  0  0  0  0  0  0
  160.9790  206.9490  153.8710 S   0  0  0  0  0  0  0  0  0  0  0  0
  161.7970  206.8600  147.6250 C   0  0  0  0  0  3  0  0  0  0  0  0
  161.9140  208.7380  149.1800 C   0  0  0  0  0  0  0  0  0  0  0  0
  161.9770  211.1090  148.5700 C   0  0  0  0  0  0  0  0  0  0  0  0
  162.1960  209.8600  148.2620 C   0  0  0  0  0  3  0  0  0  0  0  0
  161.7530  212.3530  148.8860 C   0  0  0  0  0  3  0  0  0  0  0  0
  160.4140  212.9540  148.6320 C   0  0  0  0  0  2  0  0  0  0  0  0
  159.1330  213.9450  146.8450 O   0  0  0  0  0  0  0  0  0  0  0  0
  160.1280  212.9990  147.1400 C   0  0  2  0  0  0  0  0  0  0  0  0
  158.7930  212.5850  146.6650 C   0  0  0  0  0  2  0  0  0  0  0  0
  161.2650  213.0680  146.1340 C   0  0  0  0  0  2  0  0  0  0  0  0
  161.5920  214.4530  145.8390 N   0  0  0  0  0  2  0  0  0  0  0  0
  162.7370  214.4320  144.9460 C   0  0  0  0  0  1  0  0  0  0  0  0
  160.7630  208.1930  156.4130 C   0  0  2  0  0  3  0  0  0  0  0  0
  161.9640  208.1640  157.1210 O   0  0  0  0  0  1  0  0  0  0  0  0
  159.9490  206.9560  156.7350 C   0  0  0  0  0  1  0  0  0  0  0  0
  2  7  1  0  0  0  0
  3  2  1  0  0  0  0
  4 17  2  0  0  0  0
  4 15  1  0  0  0  0
  5 14  1  0  0  0  0
  6 15  1  0  0  0  0
  6  5  2  0  0  0  0
  7 13  2  0  0  0  0
  8  5  1  0  0  0  0
  8  3  1  0  0  0  0
  9  1  2  0  0  0  0
 10 20  1  0  0  0  0
 10  6  1  0  0  0  0
 11  1  1  0  0  0  0
 12 19  1  0  0  0  0
 12 16  2  0  0  0  0
 13 31  1  0  0  0  0
 14  2  2  0  0  0  0
 14 18  1  0  0  0  0
 15 11  2  0  0  0  0
 16  4  1  0  0  0  0
 17  9  1  0  0  0  0
 18 13  1  0  0  0  0
 19 10  2  0  0  0  0
 20  8  2  0  0  0  0
 21 23  2  0  0  0  0
 22 21  2  0  0  0  0
 22 20  1  0  0  0  0
 24 23  1  0  0  0  0
 25 26  1  0  0  0  0
 26 28  1  6  0  0  0
 26 24  1  0  0  0  0
 27 25  1  0  0  0  0
 27 26  1  0  0  0  0
 29 28  1  0  0  0  0
 30 29  1  0  0  0  0
 31 33  1  6  0  0  0
 31 32  1  0  0  0  0
M  END
>  <MODEL>
3

>  <REMARK>
 VINA RESULT:      -8.8      2.609      6.491
  Name = 
  6 active torsions:
  status: ('A' for Active; 'I' for Inactive)
    1  A    between atoms: N_3  and  C_30
    2  A    between atoms: C_5  and  C_23
    3  A    between atoms: C_9  and  C_17
    4  A    between atoms: C_9  and  C_33
    5  A    between atoms: C_13  and  C_32
    6  A    between atoms: C_17  and  C_30
                            x       y       z     vdW  Elec       q    Type
                         _______ _______ _______ _____ _____    ______ ____

>  <TORSDO>
F 6

$$$$
=
 OpenBabel11042422343D

 33 38  0  0  1  0  0  0  0  0999 V2000
  160.3920  212.2250  154.4140 C   0  0  0  0  0  3  0  0  0  0  0  0
  161.8610  208.6440  150.1240 C   0  0  0  0  0  0  0  0  0  0  0  0
  161.9080  206.9770  150.4140 S   0  0  0  0  0  0  0  0  0  0  0  0
  160.0800  209.8430  155.7860 C   0  0  0  0  0  0  0  0  0  0  0  0
  161.2140  208.5230  152.3470 C   0  0  0  0  0  0  0  0  0  0  0  0
  160.8020  208.6230  153.6890 C   0  0  0  0  0  0  0  0  0  0  0  0
  162.1190  209.3930  148.9790 C   0  0  0  0  0  3  0  0  0  0  0  0
  161.4140  207.2150  152.0200 C   0  0  0  0  0  0  0  0  0  0  0  0
  159.9830  212.2070  155.7000 N   0  0  0  0  0  0  0  0  0  0  0  0
  160.7660  207.2030  154.1360 C   0  0  0  0  0  0  0  0  0  0  0  0
  160.6560  211.0240  153.7750 C   0  0  0  0  0  3  0  0  0  0  0  0
  160.0030  207.4010  156.4830 C   0  0  0  0  0  3  0  0  0  0  0  0
  161.9170  210.7500  149.2470 C   0  0  0  0  0  0  0  0  0  0  0  0
  161.4730  209.3450  151.2420 C   0  0  0  0  0  0  0  0  0  0  0  0
  160.5100  209.7960  154.4260 C   0  0  0  0  0  0  0  0  0  0  0  0
  159.8680  208.7680  156.6440 C   0  0  0  0  0  3  0  0  0  0  0  0
  159.8350  211.0570  156.3540 N   0  0  0  0  0  0  0  0  0  0  0  0
  161.4210  210.9790  150.8610 S   0  0  0  0  0  0  0  0  0  0  0  0
  160.4050  206.6980  155.3700 C   0  0  0  0  0  3  0  0  0  0  0  0
  161.1560  206.3810  153.0690 C   0  0  0  0  0  0  0  0  0  0  0  0
  161.4730  204.2590  151.8880 C   0  0  0  0  0  0  0  0  0  0  0  0
  161.2780  204.9110  153.0010 C   0  0  0  0  0  3  0  0  0  0  0  0
  161.6640  203.6180  150.7700 C   0  0  0  0  0  3  0  0  0  0  0  0
  160.4970  203.1980  149.9460 C   0  0  0  0  0  2  0  0  0  0  0  0
  159.9860  201.6350  148.1820 O   0  0  0  0  0  0  0  0  0  0  0  0
  160.9660  202.5120  148.6740 C   0  0  2  0  0  0  0  0  0  0  0  0
  161.1660  201.0500  148.6930 C   0  0  0  0  0  2  0  0  0  0  0  0
  161.5980  203.3140  147.5480 C   0  0  0  0  0  2  0  0  0  0  0  0
  161.2320  204.7160  147.6620 N   0  0  0  0  0  2  0  0  0  0  0  0
  162.1780  205.4630  146.8510 C   0  0  0  0  0  1  0  0  0  0  0  0
  162.0710  211.8330  148.2340 C   0  0  2  0  0  3  0  0  0  0  0  0
  163.4200  212.1540  148.0750 O   0  0  0  0  0  1  0  0  0  0  0  0
  161.3000  213.0660  148.6610 C   0  0  0  0  0  1  0  0  0  0  0  0
  1  9  1  0  0  0  0
  2  3  1  0  0  0  0
  2 14  2  0  0  0  0
  3  8  1  0  0  0  0
  4 17  1  0  0  0  0
  4 16  1  0  0  0  0
  5  6  2  0  0  0  0
  6 10  1  0  0  0  0
  6 15  1  0  0  0  0
  7 13  2  0  0  0  0
  7  2  1  0  0  0  0
  8  5  1  0  0  0  0
  8 20  2  0  0  0  0
  9 17  2  0  0  0  0
 10 19  2  0  0  0  0
 11  1  2  0  0  0  0
 11 15  1  0  0  0  0
 12 16  2  0  0  0  0
 13 18  1  0  0  0  0
 14  5  1  0  0  0  0
 15  4  2  0  0  0  0
 18 14  1  0  0  0  0
 19 12  1  0  0  0  0
 20 10  1  0  0  0  0
 21 22  2  0  0  0  0
 22 20  1  0  0  0  0
 23 21  2  0  0  0  0
 24 23  1  0  0  0  0
 25 26  1  0  0  0  0
 25 27  1  0  0  0  0
 26 28  1  6  0  0  0
 26 27  1  0  0  0  0
 26 24  1  0  0  0  0
 28 29  1  0  0  0  0
 30 29  1  0  0  0  0
 31 33  1  1  0  0  0
 31 13  1  0  0  0  0
 32 31  1  0  0  0  0
M  END
>  <MODEL>
4

>  <REMARK>
 VINA RESULT:      -8.6      2.409      7.178
  Name = 
  6 active torsions:
  status: ('A' for Active; 'I' for Inactive)
    1  A    between atoms: N_3  and  C_30
    2  A    between atoms: C_5  and  C_23
    3  A    between atoms: C_9  and  C_17
    4  A    between atoms: C_9  and  C_33
    5  A    between atoms: C_13  and  C_32
    6  A    between atoms: C_17  and  C_30
                            x       y       z     vdW  Elec       q    Type
                         _______ _______ _______ _____ _____    ______ ____

>  <TORSDO>
F 6

$$$$
=
 OpenBabel11042422343D

 33 38  0  0  1  0  0  0  0  0999 V2000
  161.5900  205.8010  145.9450 C   0  0  0  0  0  3  0  0  0  0  0  0
  161.7440  209.1060  150.6810 C   0  0  0  0  0  0  0  0  0  0  0  0
  161.5300  208.3910  152.1990 S   0  0  0  0  0  0  0  0  0  0  0  0
  161.2670  203.7920  147.8190 C   0  0  0  0  0  0  0  0  0  0  0  0
  161.4870  206.8700  150.1280 C   0  0  0  0  0  0  0  0  0  0  0  0
  161.3580  205.5610  149.6260 C   0  0  0  0  0  0  0  0  0  0  0  0
  161.9710  210.4270  150.3030 C   0  0  0  0  0  3  0  0  0  0  0  0
  161.3800  206.8590  151.4870 C   0  0  0  0  0  0  0  0  0  0  0  0
  161.4750  204.5090  145.5730 N   0  0  0  0  0  0  0  0  0  0  0  0
  161.1690  204.7470  150.8590 C   0  0  0  0  0  0  0  0  0  0  0  0
  161.5470  206.1190  147.2930 C   0  0  0  0  0  3  0  0  0  0  0  0
  160.9840  202.4490  149.9570 C   0  0  0  0  0  3  0  0  0  0  0  0
  162.1030  210.5040  148.9130 C   0  0  0  0  0  0  0  0  0  0  0  0
  161.7000  208.1770  149.6690 C   0  0  0  0  0  0  0  0  0  0  0  0
  161.3890  205.1380  148.2760 C   0  0  0  0  0  0  0  0  0  0  0  0
  161.0960  202.6480  148.5930 C   0  0  0  0  0  3  0  0  0  0  0  0
  161.3200  203.5470  146.4800 N   0  0  0  0  0  0  0  0  0  0  0  0
  161.9530  208.9610  148.2060 S   0  0  0  0  0  0  0  0  0  0  0  0
  161.0130  203.3790  150.9710 C   0  0  0  0  0  3  0  0  0  0  0  0
  161.1870  205.5980  151.9730 C   0  0  0  0  0  0  0  0  0  0  0  0
  160.6840  206.1610  154.3030 C   0  0  0  0  0  0  0  0  0  0  0  0
  161.0470  205.2820  153.4090 C   0  0  0  0  0  3  0  0  0  0  0  0
  160.3230  207.0460  155.1880 C   0  0  0  0  0  3  0  0  0  0  0  0
  161.3510  207.9000  155.8460 C   0  0  0  0  0  2  0  0  0  0  0  0
  159.4090  209.1960  156.4490 O   0  0  0  0  0  0  0  0  0  0  0  0
  160.7800  209.2730  156.1550 C   0  0  2  0  0  0  0  0  0  0  0  0
  159.7660  209.8380  155.2420 C   0  0  0  0  0  2  0  0  0  0  0  0
  161.4940  210.2130  157.1130 C   0  0  0  0  0  2  0  0  0  0  0  0
  162.4200  211.0650  156.3860 N   0  0  0  0  0  2  0  0  0  0  0  0
  163.5580  211.2880  157.2600 C   0  0  0  0  0  1  0  0  0  0  0  0
  162.3880  211.7660  148.1700 C   0  0  2  0  0  3  0  0  0  0  0  0
  163.7400  212.0920  148.2810 O   0  0  0  0  0  1  0  0  0  0  0  0
  161.5420  212.8990  148.7160 C   0  0  0  0  0  1  0  0  0  0  0  0
  1 11  1  0  0  0  0
  2  3  1  0  0  0  0
  4 15  1  0  0  0  0
  4 16  1  0  0  0  0
  5  8  1  0  0  0  0
  6  5  2  0  0  0  0
  6 10  1  0  0  0  0
  7  2  1  0  0  0  0
  8 20  2  0  0  0  0
  8  3  1  0  0  0  0
  9  1  2  0  0  0  0
  9 17  1  0  0  0  0
 10 19  2  0  0  0  0
 10 20  1  0  0  0  0
 11 15  2  0  0  0  0
 12 19  1  0  0  0  0
 13  7  2  0  0  0  0
 14  5  1  0  0  0  0
 14  2  2  0  0  0  0
 15  6  1  0  0  0  0
 16 12  2  0  0  0  0
 17  4  2  0  0  0  0
 18 13  1  0  0  0  0
 18 14  1  0  0  0  0
 20 22  1  0  0  0  0
 21 23  2  0  0  0  0
 22 21  2  0  0  0  0
 23 24  1  0  0  0  0
 26 24  1  6  0  0  0
 26 25  1  0  0  0  0
 26 28  1  0  0  0  0
 27 26  1  0  0  0  0
 27 25  1  0  0  0  0
 29 28  1  0  0  0  0
 29 30  1  0  0  0  0
 31 32  1  0  0  0  0
 31 33  1  1  0  0  0
 31 13  1  0  0  0  0
M  END
>  <MODEL>
5

>  <REMARK>
 VINA RESULT:      -8.5      1.302      1.837
  Name = 
  6 active torsions:
  status: ('A' for Active; 'I' for Inactive)
    1  A    between atoms: N_3  and  C_30
    2  A    between atoms: C_5  and  C_23
    3  A    between atoms: C_9  and  C_17
    4  A    between atoms: C_9  and  C_33
    5  A    between atoms: C_13  and  C_32
    6  A    between atoms: C_17  and  C_30
                            x       y       z     vdW  Elec       q    Type
                         _______ _______ _______ _____ _____    ______ ____

>  <TORSDO>
F 6

$$$$
=
 OpenBabel11042422343D

 33 38  0  0  1  0  0  0  0  0999 V2000
  161.9510  211.2220  150.4270 C   0  0  0  0  0  3  0  0  0  0  0  0
  160.9740  207.8650  155.0280 C   0  0  0  0  0  0  0  0  0  0  0  0
  160.7400  206.2040  154.8080 S   0  0  0  0  0  0  0  0  0  0  0  0
  161.8200  208.7950  149.1050 C   0  0  0  0  0  0  0  0  0  0  0  0
  161.2060  207.6460  152.7320 C   0  0  0  0  0  0  0  0  0  0  0  0
  161.3820  207.6840  151.3360 C   0  0  0  0  0  0  0  0  0  0  0  0
  160.9850  208.6550  156.1740 C   0  0  0  0  0  3  0  0  0  0  0  0
  160.9600  206.3660  153.1340 C   0  0  0  0  0  0  0  0  0  0  0  0
  162.1240  211.1430  149.0920 N   0  0  0  0  0  0  0  0  0  0  0  0
  161.2220  206.2570  150.9390 C   0  0  0  0  0  0  0  0  0  0  0  0
  161.7070  210.0600  151.1440 C   0  0  0  0  0  3  0  0  0  0  0  0
  161.5720  206.3430  148.4890 C   0  0  0  0  0  3  0  0  0  0  0  0
  161.2460  209.9850  155.8280 C   0  0  0  0  0  0  0  0  0  0  0  0
  161.2150  208.5080  153.8360 C   0  0  0  0  0  0  0  0  0  0  0  0
  161.6340  208.8120  150.5200 C   0  0  0  0  0  0  0  0  0  0  0  0
  161.7880  207.6890  148.2600 C   0  0  0  0  0  3  0  0  0  0  0  0
  162.0590  209.9720  148.4610 N   0  0  0  0  0  0  0  0  0  0  0  0
  161.4670  210.1380  154.1460 S   0  0  0  0  0  0  0  0  0  0  0  0
  161.3160  205.6990  149.6790 C   0  0  0  0  0  3  0  0  0  0  0  0
  160.9600  205.4930  152.0850 C   0  0  0  0  0  0  0  0  0  0  0  0
  161.0680  203.1720  151.3090 C   0  0  0  0  0  0  0  0  0  0  0  0
  160.7310  204.0410  152.2230 C   0  0  0  0  0  3  0  0  0  0  0  0
  161.4070  202.3140  150.3900 C   0  0  0  0  0  3  0  0  0  0  0  0
  160.4580  201.9940  149.2880 C   0  0  0  0  0  2  0  0  0  0  0  0
  160.4210  201.2190  147.0050 O   0  0  0  0  0  0  0  0  0  0  0  0
  161.1970  201.8860  147.9650 C   0  0  2  0  0  0  0  0  0  0  0  0
  161.5720  200.5460  147.4720 C   0  0  0  0  0  2  0  0  0  0  0  0
  161.8910  203.0980  147.3630 C   0  0  0  0  0  2  0  0  0  0  0  0
  161.2070  203.5180  146.1520 N   0  0  0  0  0  2  0  0  0  0  0  0
  162.1480  204.3280  145.3990 C   0  0  0  0  0  1  0  0  0  0  0  0
  161.3640  211.0970  156.8160 C   0  0  2  0  0  3  0  0  0  0  0  0
  160.8310  212.2700  156.2810 O   0  0  0  0  0  1  0  0  0  0  0  0
  162.8160  211.3180  157.1880 C   0  0  0  0  0  1  0  0  0  0  0  0
  1 11  1  0  0  0  0
  2  7  1  0  0  0  0
  3  2  1  0  0  0  0
  4 15  1  0  0  0  0
  5  8  1  0  0  0  0
  5 14  1  0  0  0  0
  6  5  2  0  0  0  0
  8  3  1  0  0  0  0
  9  1  2  0  0  0  0
 10  6  1  0  0  0  0
 10 20  1  0  0  0  0
 12 19  1  0  0  0  0
 13  7  2  0  0  0  0
 13 31  1  0  0  0  0
 14 18  1  0  0  0  0
 14  2  2  0  0  0  0
 15 11  2  0  0  0  0
 15  6  1  0  0  0  0
 16 12  2  0  0  0  0
 16  4  1  0  0  0  0
 17  9  1  0  0  0  0
 17  4  2  0  0  0  0
 18 13  1  0  0  0  0
 19 10  2  0  0  0  0
 20 22  1  0  0  0  0
 20  8  2  0  0  0  0
 21 22  2  0  0  0  0
 23 21  2  0  0  0  0
 24 23  1  0  0  0  0
 25 27  1  0  0  0  0
 25 26  1  0  0  0  0
 26 28  1  6  0  0  0
 26 24  1  0  0  0  0
 27 26  1  0  0  0  0
 29 28  1  0  0  0  0
 30 29  1  0  0  0  0
 31 33  1  6  0  0  0
 32 31  1  0  0  0  0
M  END
>  <MODEL>
6

>  <REMARK>
 VINA RESULT:      -8.0      2.846      7.413
  Name = 
  6 active torsions:
  status: ('A' for Active; 'I' for Inactive)
    1  A    between atoms: N_3  and  C_30
    2  A    between atoms: C_5  and  C_23
    3  A    between atoms: C_9  and  C_17
    4  A    between atoms: C_9  and  C_33
    5  A    between atoms: C_13  and  C_32
    6  A    between atoms: C_17  and  C_30
                            x       y       z     vdW  Elec       q    Type
                         _______ _______ _______ _____ _____    ______ ____

>  <TORSDO>
F 6

$$$$
=
 OpenBabel11042422343D

 33 38  0  0  1  0  0  0  0  0999 V2000
  160.5280  205.8830  154.3100 C   0  0  0  0  0  3  0  0  0  0  0  0
  161.3340  205.3520  148.6130 C   0  0  0  0  0  0  0  0  0  0  0  0
  161.7330  206.7200  147.7000 S   0  0  0  0  0  0  0  0  0  0  0  0
  161.2120  208.5100  153.7770 C   0  0  0  0  0  0  0  0  0  0  0  0
  161.4200  207.0050  150.2360 C   0  0  0  0  0  0  0  0  0  0  0  0
  161.4390  207.8820  151.3370 C   0  0  0  0  0  0  0  0  0  0  0  0
  161.1480  204.0200  148.2520 C   0  0  0  0  0  3  0  0  0  0  0  0
  161.7190  207.6880  149.0940 C   0  0  0  0  0  0  0  0  0  0  0  0
  160.5930  206.8020  155.2950 N   0  0  0  0  0  0  0  0  0  0  0  0
  161.8000  209.1890  150.7190 C   0  0  0  0  0  0  0  0  0  0  0  0
  160.8120  206.2700  153.0090 C   0  0  0  0  0  3  0  0  0  0  0  0
  161.8640  210.7040  152.6750 C   0  0  0  0  0  3  0  0  0  0  0  0
  160.8480  203.2620  149.3880 C   0  0  0  0  0  0  0  0  0  0  0  0
  161.2000  205.6520  149.9480 C   0  0  0  0  0  0  0  0  0  0  0  0
  161.1650  207.5840  152.6920 C   0  0  0  0  0  0  0  0  0  0  0  0
  161.5270  209.8650  153.7210 C   0  0  0  0  0  3  0  0  0  0  0  0
  160.9230  208.0640  155.0320 N   0  0  0  0  0  0  0  0  0  0  0  0
  160.8380  204.2410  150.7820 S   0  0  0  0  0  0  0  0  0  0  0  0
  161.9840  210.4110  151.3360 C   0  0  0  0  0  3  0  0  0  0  0  0
  161.9560  209.0100  149.3370 C   0  0  0  0  0  0  0  0  0  0  0  0
  161.9610  211.2440  148.3330 C   0  0  0  0  0  0  0  0  0  0  0  0
  162.3130  209.9880  148.2890 C   0  0  0  0  0  3  0  0  0  0  0  0
  161.6030  212.4950  148.3850 C   0  0  0  0  0  3  0  0  0  0  0  0
  160.2900  212.9160  147.8240 C   0  0  0  0  0  2  0  0  0  0  0  0
  159.1500  213.4390  145.7650 O   0  0  0  0  0  0  0  0  0  0  0  0
  160.4040  213.1510  146.3280 C   0  0  2  0  0  0  0  0  0  0  0  0
  159.7380  212.2040  145.4110 C   0  0  0  0  0  2  0  0  0  0  0  0
  161.4790  214.0660  145.7660 C   0  0  0  0  0  2  0  0  0  0  0  0
  162.7050  213.3200  145.5370 N   0  0  0  0  0  2  0  0  0  0  0  0
  163.0220  213.4570  144.1260 C   0  0  0  0  0  1  0  0  0  0  0  0
  160.6220  201.7870  149.3710 C   0  0  2  0  0  3  0  0  0  0  0  0
  161.2120  201.1990  150.4910 O   0  0  0  0  0  1  0  0  0  0  0  0
  161.2030  201.1810  148.1100 C   0  0  0  0  0  1  0  0  0  0  0  0
  1  9  1  0  0  0  0
  2 14  2  0  0  0  0
  3  2  1  0  0  0  0
  3  8  1  0  0  0  0
  4 17  1  0  0  0  0
  5  6  2  0  0  0  0
  6 15  1  0  0  0  0
  7  2  1  0  0  0  0
  7 13  2  0  0  0  0
  8 20  2  0  0  0  0
  8  5  1  0  0  0  0
 10 19  2  0  0  0  0
 10  6  1  0  0  0  0
 11  1  2  0  0  0  0
 12 16  2  0  0  0  0
 13 18  1  0  0  0  0
 14  5  1  0  0  0  0
 14 18  1  0  0  0  0
 15 11  1  0  0  0  0
 15  4  2  0  0  0  0
 16  4  1  0  0  0  0
 17  9  2  0  0  0  0
 19 12  1  0  0  0  0
 20 10  1  0  0  0  0
 21 23  2  0  0  0  0
 22 21  2  0  0  0  0
 22 20  1  0  0  0  0
 24 23  1  0  0  0  0
 25 26  1  0  0  0  0
 26 28  1  6  0  0  0
 26 24  1  0  0  0  0
 27 25  1  0  0  0  0
 27 26  1  0  0  0  0
 29 28  1  0  0  0  0
 30 29  1  0  0  0  0
 31 33  1  6  0  0  0
 31 13  1  0  0  0  0
 31 32  1  0  0  0  0
M  END
>  <MODEL>
7

>  <REMARK>
 VINA RESULT:      -7.9      3.553      7.859
  Name = 
  6 active torsions:
  status: ('A' for Active; 'I' for Inactive)
    1  A    between atoms: N_3  and  C_30
    2  A    between atoms: C_5  and  C_23
    3  A    between atoms: C_9  and  C_17
    4  A    between atoms: C_9  and  C_33
    5  A    between atoms: C_13  and  C_32
    6  A    between atoms: C_17  and  C_30
                            x       y       z     vdW  Elec       q    Type
                         _______ _______ _______ _____ _____    ______ ____

>  <TORSDO>
F 6

$$$$
=
 OpenBabel11042422343D

 33 38  0  0  1  0  0  0  0  0999 V2000
  162.0160  208.0650  147.7650 C   0  0  0  0  0  3  0  0  0  0  0  0
  160.9160  203.4650  151.0830 C   0  0  0  0  0  0  0  0  0  0  0  0
  160.8220  203.6560  152.7620 S   0  0  0  0  0  0  0  0  0  0  0  0
  161.9560  209.3650  150.2060 C   0  0  0  0  0  0  0  0  0  0  0  0
  161.2780  205.7410  151.3290 C   0  0  0  0  0  0  0  0  0  0  0  0
  161.5050  207.1300  151.3050 C   0  0  0  0  0  0  0  0  0  0  0  0
  160.7690  202.3450  150.2680 C   0  0  0  0  0  3  0  0  0  0  0  0
  161.1110  205.3210  152.6160 C   0  0  0  0  0  0  0  0  0  0  0  0
  162.2020  209.3980  147.8520 N   0  0  0  0  0  0  0  0  0  0  0  0
  161.4430  207.5050  152.7450 C   0  0  0  0  0  0  0  0  0  0  0  0
  161.7870  207.3400  148.9240 C   0  0  0  0  0  3  0  0  0  0  0  0
  161.8050  209.9530  152.6730 C   0  0  0  0  0  3  0  0  0  0  0  0
  160.9180  202.7140  148.9280 C   0  0  0  0  0  0  0  0  0  0  0  0
  161.1610  204.6590  150.4470 C   0  0  0  0  0  0  0  0  0  0  0  0
  161.7450  207.9530  150.1790 C   0  0  0  0  0  0  0  0  0  0  0  0
  161.9680  210.1970  151.3220 C   0  0  0  0  0  3  0  0  0  0  0  0
  162.1720  210.0180  149.0300 N   0  0  0  0  0  0  0  0  0  0  0  0
  161.2070  204.3870  148.7910 S   0  0  0  0  0  0  0  0  0  0  0  0
  161.5740  208.7570  153.3140 C   0  0  0  0  0  3  0  0  0  0  0  0
  161.2020  206.3520  153.5050 C   0  0  0  0  0  0  0  0  0  0  0  0
  160.4690  207.0820  155.7250 C   0  0  0  0  0  0  0  0  0  0  0  0
  161.0520  206.1950  154.9660 C   0  0  0  0  0  3  0  0  0  0  0  0
  159.8860  207.9740  156.4740 C   0  0  0  0  0  3  0  0  0  0  0  0
  160.6790  209.1000  157.0400 C   0  0  0  0  0  2  0  0  0  0  0  0
  161.0640  211.1970  155.9130 O   0  0  0  0  0  0  0  0  0  0  0  0
  160.1020  210.4320  156.5920 C   0  0  2  0  0  0  0  0  0  0  0  0
  160.6500  211.6720  157.1780 C   0  0  0  0  0  2  0  0  0  0  0  0
  158.7560  210.4980  155.8900 C   0  0  0  0  0  2  0  0  0  0  0  0
  158.9250  210.9490  154.5190 N   0  0  0  0  0  2  0  0  0  0  0  0
  157.8120  211.8350  154.2300 C   0  0  0  0  0  1  0  0  0  0  0  0
  160.7880  201.7670  147.7820 C   0  0  2  0  0  3  0  0  0  0  0  0
  161.5800  200.6390  148.0000 O   0  0  0  0  0  1  0  0  0  0  0  0
  161.2060  202.4440  146.4920 C   0  0  0  0  0  1  0  0  0  0  0  0
  1  9  2  0  0  0  0
  1 11  1  0  0  0  0
  2  3  1  0  0  0  0
  4 16  1  0  0  0  0
  5  8  1  0  0  0  0
  6  5  2  0  0  0  0
  6 10  1  0  0  0  0
  7  2  1  0  0  0  0
  8  3  1  0  0  0  0
  8 20  2  0  0  0  0
  9 17  1  0  0  0  0
 10 19  2  0  0  0  0
 10 20  1  0  0  0  0
 11 15  2  0  0  0  0
 12 19  1  0  0  0  0
 13  7  2  0  0  0  0
 14  2  2  0  0  0  0
 14  5  1  0  0  0  0
 15  4  1  0  0  0  0
 15  6  1  0  0  0  0
 16 12  2  0  0  0  0
 17  4  2  0  0  0  0
 18 13  1  0  0  0  0
 18 14  1  0  0  0  0
 20 22  1  0  0  0  0
 21 23  2  0  0  0  0
 22 21  2  0  0  0  0
 23 24  1  0  0  0  0
 25 26  1  0  0  0  0
 25 27  1  0  0  0  0
 26 28  1  6  0  0  0
 26 24  1  0  0  0  0
 26 27  1  0  0  0  0
 29 28  1  0  0  0  0
 30 29  1  0  0  0  0
 31 33  1  6  0  0  0
 31 32  1  0  0  0  0
 31 13  1  0  0  0  0
M  END
>  <MODEL>
8

>  <REMARK>
 VINA RESULT:      -7.7      2.988      5.174
  Name = 
  6 active torsions:
  status: ('A' for Active; 'I' for Inactive)
    1  A    between atoms: N_3  and  C_30
    2  A    between atoms: C_5  and  C_23
    3  A    between atoms: C_9  and  C_17
    4  A    between atoms: C_9  and  C_33
    5  A    between atoms: C_13  and  C_32
    6  A    between atoms: C_17  and  C_30
                            x       y       z     vdW  Elec       q    Type
                         _______ _______ _______ _____ _____    ______ ____

>  <TORSDO>
F 6

$$$$
=
 OpenBabel11042422343D

 33 38  0  0  1  0  0  0  0  0999 V2000
  160.8310  212.6830  150.7140 C   0  0  0  0  0  3  0  0  0  0  0  0
  160.0880  209.5080  155.4840 C   0  0  0  0  0  0  0  0  0  0  0  0
  160.3890  207.8430  155.4280 S   0  0  0  0  0  0  0  0  0  0  0  0
  161.6420  210.2500  149.6790 C   0  0  0  0  0  0  0  0  0  0  0  0
  160.7690  209.2150  153.2870 C   0  0  0  0  0  0  0  0  0  0  0  0
  161.1660  209.2110  151.9370 C   0  0  0  0  0  0  0  0  0  0  0  0
  159.6690  210.3390  156.5190 C   0  0  0  0  0  3  0  0  0  0  0  0
  160.8400  207.9520  153.7950 C   0  0  0  0  0  0  0  0  0  0  0  0
  161.2480  212.5710  149.4360 N   0  0  0  0  0  0  0  0  0  0  0  0
  161.4990  207.7800  151.6900 C   0  0  0  0  0  0  0  0  0  0  0  0
  160.8140  211.5540  151.5180 C   0  0  0  0  0  3  0  0  0  0  0  0
  162.2290  207.8030  149.3240 C   0  0  0  0  0  3  0  0  0  0  0  0
  159.5890  211.6580  156.0620 C   0  0  0  0  0  0  0  0  0  0  0  0
  160.3350  210.1110  154.2730 C   0  0  0  0  0  0  0  0  0  0  0  0
  161.2170  210.3040  151.0400 C   0  0  0  0  0  0  0  0  0  0  0  0
  162.0810  209.1330  148.9740 C   0  0  0  0  0  3  0  0  0  0  0  0
  161.6370  211.3980  148.9440 N   0  0  0  0  0  0  0  0  0  0  0  0
  160.0440  211.7570  154.4240 S   0  0  0  0  0  0  0  0  0  0  0  0
  161.9700  207.1940  150.5310 C   0  0  0  0  0  3  0  0  0  0  0  0
  161.2760  207.0520  152.8670 C   0  0  0  0  0  0  0  0  0  0  0  0
  161.5800  204.7150  152.1980 C   0  0  0  0  0  0  0  0  0  0  0  0
  161.4590  205.6120  153.1390 C   0  0  0  0  0  3  0  0  0  0  0  0
  161.6980  203.8280  151.2520 C   0  0  0  0  0  3  0  0  0  0  0  0
  160.4810  203.1960  150.6720 C   0  0  0  0  0  2  0  0  0  0  0  0
  159.7300  201.7040  148.9330 O   0  0  0  0  0  0  0  0  0  0  0  0
  160.8310  202.4370  149.4030 C   0  0  2  0  0  0  0  0  0  0  0  0
  160.8210  200.9610  149.4380 C   0  0  0  0  0  2  0  0  0  0  0  0
  161.5570  203.1290  148.2610 C   0  0  0  0  0  2  0  0  0  0  0  0
  161.1190  204.5110  148.1510 N   0  0  0  0  0  2  0  0  0  0  0  0
  161.4690  204.9550  146.8140 C   0  0  0  0  0  1  0  0  0  0  0  0
  159.2040  212.8160  156.9200 C   0  0  2  0  0  3  0  0  0  0  0  0
  157.8170  212.8690  157.0590 O   0  0  0  0  0  1  0  0  0  0  0  0
  159.7060  214.1100  156.3100 C   0  0  0  0  0  1  0  0  0  0  0  0
  1 11  1  0  0  0  0
  2  7  1  0  0  0  0
  3  2  1  0  0  0  0
  4 15  1  0  0  0  0
  5  8  1  0  0  0  0
  5 14  1  0  0  0  0
  6  5  2  0  0  0  0
  8  3  1  0  0  0  0
  9  1  2  0  0  0  0
 10  6  1  0  0  0  0
 10 20  1  0  0  0  0
 12 19  1  0  0  0  0
 13  7  2  0  0  0  0
 13 31  1  0  0  0  0
 14 18  1  0  0  0  0
 14  2  2  0  0  0  0
 15 11  2  0  0  0  0
 15  6  1  0  0  0  0
 16 12  2  0  0  0  0
 16  4  1  0  0  0  0
 17  9  1  0  0  0  0
 17  4  2  0  0  0  0
 18 13  1  0  0  0  0
 19 10  2  0  0  0  0
 20 22  1  0  0  0  0
 20  8  2  0  0  0  0
 21 22  2  0  0  0  0
 23 21  2  0  0  0  0
 24 23  1  0  0  0  0
 25 26  1  0  0  0  0
 25 27  1  0  0  0  0
 26 28  1  6  0  0  0
 26 27  1  0  0  0  0
 26 24  1  0  0  0  0
 29 28  1  0  0  0  0
 30 29  1  0  0  0  0
 31 33  1  6  0  0  0
 31 32  1  0  0  0  0
M  END
>  <MODEL>
9

>  <REMARK>
 VINA RESULT:      -7.5      2.919      7.314
  Name = 
  6 active torsions:
  status: ('A' for Active; 'I' for Inactive)
    1  A    between atoms: N_3  and  C_30
    2  A    between atoms: C_5  and  C_23
    3  A    between atoms: C_9  and  C_17
    4  A    between atoms: C_9  and  C_33
    5  A    between atoms: C_13  and  C_32
    6  A    between atoms: C_17  and  C_30
                            x       y       z     vdW  Elec       q    Type
                         _______ _______ _______ _____ _____    ______ ____

>  <TORSDO>
F 6

$$$$
