=
 OpenBabel11042421303D

 69 77  0  0  1  0  0  0  0  0999 V2000
  162.3550  209.4530  150.5290 C   0  0  1  0  0  3  0  0  0  0  0  0
  162.4260  207.9260  150.5640 C   0  0  2  0  0  3  0  0  0  0  0  0
  162.8690  207.2640  149.2500 C   0  0  0  0  0  2  0  0  0  0  0  0
  161.8980  207.4580  148.0850 C   0  0  0  0  0  2  0  0  0  0  0  0
  162.3090  206.6230  146.8830 C   0  0  0  0  0  2  0  0  0  0  0  0
  161.7130  204.5520  148.2060 C   0  0  0  0  0  3  0  0  0  0  0  0
  160.8180  202.6160  147.0630 C   0  0  0  0  0  3  0  0  0  0  0  0
  161.2030  203.2480  148.2480 C   0  0  0  0  0  0  0  0  0  0  0  0
  161.4770  204.5550  145.8260 N   0  0  0  0  0  0  0  0  0  0  0  0
  160.6250  202.6380  144.6310 N   0  0  0  0  0  1  0  0  0  0  0  0
  160.9770  203.2860  145.8480 C   0  0  0  0  0  0  0  0  0  0  0  0
  161.8410  205.2020  146.9720 C   0  0  0  0  0  0  0  0  0  0  0  0
  162.3000  203.7580  151.3480 O   0  0  0  0  0  0  0  0  0  0  0  0
  161.6030  202.8350  150.8520 C   0  0  0  0  0  0  0  0  0  0  0  0
  160.6670  200.2460  149.1890 N   0  0  0  0  0  1  0  0  0  0  0  0
  161.0930  202.5610  149.4930 N   0  0  0  0  0  0  0  0  0  0  0  0
  160.8930  201.3170  151.5440 S   0  0  0  0  0  0  0  0  0  0  0  0
  160.3090  201.4360  149.9420 C   0  0  2  0  0  3  0  0  0  0  0  0
  161.1440  207.3510  151.1530 C   0  0  0  0  0  2  0  0  0  0  0  0
  162.3700  206.7150  153.1030 O   0  0  0  0  0  0  0  0  0  0  0  0
  161.0220  206.6900  153.5050 C   0  0  0  0  0  2  0  0  0  0  0  0
  161.4400  206.2520  152.1550 C   0  0  1  0  0  3  0  0  0  0  0  0
  161.1700  209.9370  149.7140 C   0  0  0  0  0  2  0  0  0  0  0  0
  162.0390  212.8310  146.8210 C   0  0  0  0  0  0  0  0  0  0  0  0
  162.3390  213.5730  145.8490 O   0  0  0  0  0  0  0  0  0  0  0  0
  160.7170  212.1620  146.9100 C   0  0  0  0  0  0  0  0  0  0  0  0
  163.0650  212.5690  147.8910 C   0  0  2  0  0  3  0  0  0  0  0  0
  160.5630  211.1970  147.9090 O   0  0  0  0  0  0  0  0  0  0  0  0
  161.6640  210.6820  148.5670 N   0  0  0  0  0  0  0  0  0  0  0  0
  162.4610  211.7980  149.0700 C   0  0  0  0  0  2  0  0  0  0  0  0
  159.6730  212.4300  146.1180 C   0  0  0  0  0  3  0  0  0  0  0  0
  163.5920  213.7640  148.3480 F   0  0  0  0  0  0  0  0  0  0  0  0
  159.6620  213.4590  145.0350 C   0  0  2  0  0  3  0  0  0  0  0  0
  158.6960  214.4200  145.3200 O   0  0  0  0  0  1  0  0  0  0  0  0
  159.3310  212.7910  143.7120 C   0  0  0  0  0  2  0  0  0  0  0  0
  160.5230  212.0150  143.1730 C   0  0  0  0  0  2  0  0  0  0  0  0
  161.8080  207.2410  137.8210 F   0  0  0  0  0  0  0  0  0  0  0  0
  160.6310  211.0740  140.8460 C   0  0  1  0  0  3  0  0  0  0  0  0
  160.7950  212.3380  141.7140 C   0  0  1  0  0  3  0  0  0  0  0  0
  159.6440  211.2590  139.6700 C   0  0  1  0  0  3  0  0  0  0  0  0
  160.7630  208.1070  137.8480 C   0  0  0  0  0  0  0  0  0  0  0  0
  158.6120  208.7700  137.0390 N   0  0  0  0  0  0  0  0  0  0  0  0
  159.9310  212.5570  138.9030 C   0  0  0  0  0  2  0  0  0  0  0  0
  161.9920  210.6300  140.3110 C   0  0  0  0  0  2  0  0  0  0  0  0
  161.8560  209.4200  139.5680 O   0  0  0  0  0  0  0  0  0  0  0  0
  160.7710  209.2050  138.7120 C   0  0  0  0  0  0  0  0  0  0  0  0
  160.0400  213.7880  139.8070 C   0  0  0  0  0  2  0  0  0  0  0  0
  159.8550  213.4670  141.2900 C   0  0  0  0  0  2  0  0  0  0  0  0
  159.6690  210.0780  138.7380 C   0  0  0  0  0  0  0  0  0  0  0  0
  159.6640  207.9060  137.0120 C   0  0  0  0  0  3  0  0  0  0  0  0
  158.5920  209.8410  137.8760 C   0  0  0  0  0  3  0  0  0  0  0  0
  162.3350  210.0350  151.8250 O   0  0  0  0  0  0  0  0  0  0  0  0
  161.1350  210.3510  152.4680 C   0  0  0  0  0  0  0  0  0  0  0  0
  160.0670  209.7480  152.1660 O   0  0  0  0  0  0  0  0  0  0  0  0
  161.2460  210.9270  154.9220 C   0  0  0  0  0  2  0  0  0  0  0  0
  159.4950  212.9890  154.5950 C   0  0  0  0  0  2  0  0  0  0  0  0
  159.9250  212.3710  153.2710 C   0  0  0  0  0  2  0  0  0  0  0  0
  161.1310  211.4530  153.4840 C   0  0  2  0  0  3  0  0  0  0  0  0
  159.0120  211.9490  155.5150 N   0  0  0  0  0  0  0  0  0  0  0  0
  159.8600  210.7380  155.5510 C   0  0  0  0  0  2  0  0  0  0  0  0
  159.0110  212.5220  156.8530 C   0  0  0  0  0  2  0  0  0  0  0  0
  157.6190  213.0160  157.2130 C   0  0  0  0  0  2  0  0  0  0  0  0
  156.6610  211.9290  157.0880 N   0  0  0  0  0  2  0  0  0  0  0  0
  155.7590  213.3080  154.0510 C   0  0  0  0  0  3  0  0  0  0  0  0
  155.6290  214.4530  154.9490 N   0  0  0  0  0  0  0  0  0  0  0  0
  155.6880  212.1100  154.9020 C   0  0  0  0  0  0  0  0  0  0  0  0
  155.5510  213.9540  156.3290 C   0  0  0  0  0  2  0  0  0  0  0  0
  155.7300  210.9710  154.4640 O   0  0  0  0  0  0  0  0  0  0  0  0
  155.5270  212.4320  156.3290 C   0  0  2  0  0  3  0  0  0  0  0  0
  1 23  1  1  0  0  0
  1  2  1  0  0  0  0
  1 52  1  0  0  0  0
  2  3  1  6  0  0  0
  2 19  1  0  0  0  0
  4  3  1  0  0  0  0
  5 12  1  0  0  0  0
  5  4  1  0  0  0  0
  6  8  1  0  0  0  0
  7  8  2  0  0  0  0
  8 16  1  0  0  0  0
  9 11  2  0  0  0  0
  9 12  1  0  0  0  0
 10 11  1  0  0  0  0
 11  7  1  0  0  0  0
 12  6  2  0  0  0  0
 14 13  2  0  0  0  0
 14 17  1  0  0  0  0
 16 18  1  0  0  0  0
 16 14  1  0  0  0  0
 18 15  1  6  0  0  0
 18 17  1  0  0  0  0
 20 21  1  0  0  0  0
 22 19  1  6  0  0  0
 22 20  1  0  0  0  0
 22 21  1  0  0  0  0
 24 26  1  0  0  0  0
 24 27  1  0  0  0  0
 25 24  2  0  0  0  0
 26 28  1  0  0  0  0
 27 32  1  1  0  0  0
 27 30  1  0  0  0  0
 28 29  1  0  0  0  0
 29 30  1  0  0  0  0
 29 23  1  0  0  0  0
 31 26  2  0  0  0  0
 33 34  1  1  0  0  0
 33 31  1  0  0  0  0
 35 33  1  0  0  0  0
 36 35  1  0  0  0  0
 37 41  1  0  0  0  0
 38 44  1  6  0  0  0
 38 39  1  0  0  0  0
 39 36  1  1  0  0  0
 40 43  1  6  0  0  0
 40 38  1  0  0  0  0
 41 46  1  0  0  0  0
 42 51  2  0  0  0  0
 43 47  1  0  0  0  0
 45 44  1  0  0  0  0
 46 49  2  0  0  0  0
 46 45  1  0  0  0  0
 47 48  1  0  0  0  0
 48 39  1  0  0  0  0
 49 40  1  0  0  0  0
 50 42  1  0  0  0  0
 50 41  2  0  0  0  0
 51 49  1  0  0  0  0
 52 53  1  0  0  0  0
 54 53  2  0  0  0  0
 55 60  1  0  0  0  0
 56 59  1  0  0  0  0
 57 58  1  0  0  0  0
 57 56  1  0  0  0  0
 58 53  1  6  0  0  0
 58 55  1  0  0  0  0
 59 60  1  0  0  0  0
 59 61  1  0  0  0  0
 61 62  1  0  0  0  0
 63 62  1  0  0  0  0
 64 66  1  0  0  0  0
 64 65  2  0  0  0  0
 65 67  1  0  0  0  0
 66 69  1  0  0  0  0
 67 69  1  0  0  0  0
 68 66  2  0  0  0  0
 69 63  1  1  0  0  0
M  END
>  <MODEL>
1

>  <REMARK>
 VINA RESULT:      -5.3      0.000      0.000
  Name = 
  21 active torsions:
  status: ('A' for Active; 'I' for Inactive)
    1  A    between atoms: C_8  and  C_9
    2  A    between atoms: C_8  and  C_37
    3  A    between atoms: C_9  and  C_11
    4  A    between atoms: C_10  and  C_56
    5  A    between atoms: C_10  and  N_66
    6  A    between atoms: C_15  and  C_54
    7  A    between atoms: C_15  and  C_62
    8  A    between atoms: C_18  and  C_51
    9  A    between atoms: C_18  and  C_65
   10  A    between atoms: C_20  and  N_42
   11  A    between atoms: O_26  and  C_27
   12  A    between atoms: O_26  and  C_45
   13  A    between atoms: C_27  and  C_33
   14  A    between atoms: C_37  and  C_59
   15  A    between atoms: N_39  and  C_41
   16  A    between atoms: C_41  and  C_45
   17  A    between atoms: C_45  and  C_51
   18  A    between atoms: C_48  and  C_51
   19  A    between atoms: C_48  and  C_54
   20  A    between atoms: C_56  and  N_64
   21  A    between atoms: N_66  and  C_67
                            x       y       z     vdW  Elec       q    Type
                         _______ _______ _______ _____ _____    ______ ____

>  <TORSDO>
F 21

$$$$
=
 OpenBabel11042421303D

 69 77  0  0  1  0  0  0  0  0999 V2000
  161.4760  212.0630  147.8880 C   0  0  1  0  0  3  0  0  0  0  0  0
  160.5090  212.8260  146.9820 C   0  0  2  0  0  3  0  0  0  0  0  0
  159.7010  211.9530  146.0100 C   0  0  0  0  0  2  0  0  0  0  0  0
  159.5490  212.5410  144.6080 C   0  0  0  0  0  2  0  0  0  0  0  0
  160.0320  211.5650  143.5460 C   0  0  0  0  0  2  0  0  0  0  0  0
  161.2270  212.5440  141.5440 C   0  0  0  0  0  3  0  0  0  0  0  0
  159.9710  213.0950  139.5500 C   0  0  0  0  0  3  0  0  0  0  0  0
  161.1910  213.0210  140.2280 C   0  0  0  0  0  0  0  0  0  0  0  0
  158.8530  212.2530  141.4920 N   0  0  0  0  0  0  0  0  0  0  0  0
  157.5460  212.8210  139.5420 N   0  0  0  0  0  1  0  0  0  0  0  0
  158.7990  212.7150  140.2090 C   0  0  0  0  0  0  0  0  0  0  0  0
  160.0350  212.1540  142.1680 C   0  0  0  0  0  0  0  0  0  0  0  0
  164.0320  214.4450  141.2140 O   0  0  0  0  0  0  0  0  0  0  0  0
  163.6330  214.0790  140.0780 C   0  0  0  0  0  0  0  0  0  0  0  0
  162.0460  213.9130  137.2850 N   0  0  0  0  0  1  0  0  0  0  0  0
  162.3910  213.4500  139.5880 N   0  0  0  0  0  0  0  0  0  0  0  0
  164.3660  214.1820  138.4220 S   0  0  0  0  0  0  0  0  0  0  0  0
  162.9220  213.2820  138.2570 C   0  0  2  0  0  3  0  0  0  0  0  0
  161.2190  214.0030  146.3240 C   0  0  0  0  0  2  0  0  0  0  0  0
  162.7330  213.0970  144.7130 O   0  0  0  0  0  0  0  0  0  0  0  0
  163.0960  214.4520  144.8210 C   0  0  0  0  0  2  0  0  0  0  0  0
  162.6610  213.6660  145.9970 C   0  0  1  0  0  3  0  0  0  0  0  0
  161.3960  212.5500  149.3230 C   0  0  0  0  0  2  0  0  0  0  0  0
  157.6110  213.1250  151.0100 C   0  0  0  0  0  0  0  0  0  0  0  0
  156.4590  213.1300  151.5180 O   0  0  0  0  0  0  0  0  0  0  0  0
  158.8220  212.8720  151.8310 C   0  0  0  0  0  0  0  0  0  0  0  0
  157.7620  213.3220  149.5260 C   0  0  2  0  0  3  0  0  0  0  0  0
  160.0220  212.6750  151.1430 O   0  0  0  0  0  0  0  0  0  0  0  0
  160.0220  212.4240  149.7840 N   0  0  0  0  0  0  0  0  0  0  0  0
  159.2350  213.4640  149.1260 C   0  0  0  0  0  2  0  0  0  0  0  0
  158.8420  212.8370  153.1680 C   0  0  0  0  0  3  0  0  0  0  0  0
  157.0680  214.4500  149.1230 F   0  0  0  0  0  0  0  0  0  0  0  0
  157.6570  213.0690  154.0480 C   0  0  2  0  0  3  0  0  0  0  0  0
  157.1770  214.3610  153.8460 O   0  0  0  0  0  1  0  0  0  0  0  0
  158.0730  212.9100  155.5000 C   0  0  0  0  0  2  0  0  0  0  0  0
  158.0390  211.4500  155.9260 C   0  0  0  0  0  2  0  0  0  0  0  0
  160.5460  205.0830  153.4250 F   0  0  0  0  0  0  0  0  0  0  0  0
  159.6860  209.7280  155.1310 C   0  0  1  0  0  3  0  0  0  0  0  0
  159.4350  210.8840  156.1190 C   0  0  1  0  0  3  0  0  0  0  0  0
  160.9600  209.9150  154.2760 C   0  0  1  0  0  3  0  0  0  0  0  0
  161.0520  206.2960  153.0890 C   0  0  0  0  0  0  0  0  0  0  0  0
  162.3800  207.6450  151.6270 N   0  0  0  0  0  0  0  0  0  0  0  0
  162.1600  210.3160  155.1440 C   0  0  0  0  0  2  0  0  0  0  0  0
  159.7660  208.4030  155.8910 C   0  0  0  0  0  2  0  0  0  0  0  0
  159.9250  207.3210  154.9750 O   0  0  0  0  0  0  0  0  0  0  0  0
  160.7570  207.4270  153.8560 C   0  0  0  0  0  0  0  0  0  0  0  0
  161.8700  211.4990  156.0740 C   0  0  0  0  0  2  0  0  0  0  0  0
  160.4410  212.0250  155.9540 C   0  0  0  0  0  2  0  0  0  0  0  0
  161.2750  208.6780  153.4780 C   0  0  0  0  0  0  0  0  0  0  0  0
  161.8740  206.4280  151.9690 C   0  0  0  0  0  3  0  0  0  0  0  0
  162.1020  208.7610  152.3510 C   0  0  0  0  0  3  0  0  0  0  0  0
  161.2910  210.6560  147.8320 O   0  0  0  0  0  0  0  0  0  0  0  0
  162.2440  209.7710  148.3460 C   0  0  0  0  0  0  0  0  0  0  0  0
  163.4440  210.1360  148.4970 O   0  0  0  0  0  0  0  0  0  0  0  0
  162.9890  207.3690  148.5650 C   0  0  0  0  0  2  0  0  0  0  0  0
  160.6170  206.4640  147.5730 C   0  0  0  0  0  2  0  0  0  0  0  0
  160.6130  207.9670  147.8210 C   0  0  0  0  0  2  0  0  0  0  0  0
  161.8250  208.3680  148.6650 C   0  0  2  0  0  3  0  0  0  0  0  0
  161.7790  206.0820  146.7580 N   0  0  0  0  0  0  0  0  0  0  0  0
  163.0430  206.7260  147.1750 C   0  0  0  0  0  2  0  0  0  0  0  0
  161.9530  204.6430  146.9030 C   0  0  0  0  0  2  0  0  0  0  0  0
  161.1360  203.9070  145.8540 C   0  0  0  0  0  2  0  0  0  0  0  0
  161.6820  202.5750  145.6460 N   0  0  0  0  0  2  0  0  0  0  0  0
  161.2600  199.3240  146.7380 C   0  0  0  0  0  3  0  0  0  0  0  0
  160.6670  199.2690  145.4040 N   0  0  0  0  0  0  0  0  0  0  0  0
  161.2510  200.7410  147.1330 C   0  0  0  0  0  0  0  0  0  0  0  0
  160.3700  200.6420  144.9720 C   0  0  0  0  0  2  0  0  0  0  0  0
  161.6480  201.1410  148.2170 O   0  0  0  0  0  0  0  0  0  0  0  0
  160.6830  201.6190  146.0960 C   0  0  2  0  0  3  0  0  0  0  0  0
  1 23  1  1  0  0  0
  2  3  1  6  0  0  0
  2  1  1  0  0  0  0
  4  3  1  0  0  0  0
  5  4  1  0  0  0  0
  6 12  1  0  0  0  0
  7 11  2  0  0  0  0
  7  8  1  0  0  0  0
  8  6  2  0  0  0  0
  9 12  2  0  0  0  0
 10 11  1  0  0  0  0
 11  9  1  0  0  0  0
 12  5  1  0  0  0  0
 14 13  2  0  0  0  0
 16 14  1  0  0  0  0
 16  8  1  0  0  0  0
 17 14  1  0  0  0  0
 18 15  1  6  0  0  0
 18 17  1  0  0  0  0
 18 16  1  0  0  0  0
 19  2  1  0  0  0  0
 20 21  1  0  0  0  0
 20 22  1  0  0  0  0
 21 22  1  0  0  0  0
 22 19  1  6  0  0  0
 23 29  1  0  0  0  0
 24 25  2  0  0  0  0
 24 26  1  0  0  0  0
 26 31  2  0  0  0  0
 27 32  1  1  0  0  0
 27 24  1  0  0  0  0
 28 26  1  0  0  0  0
 29 28  1  0  0  0  0
 30 27  1  0  0  0  0
 30 29  1  0  0  0  0
 31 33  1  0  0  0  0
 33 34  1  1  0  0  0
 33 35  1  0  0  0  0
 35 36  1  0  0  0  0
 38 44  1  1  0  0  0
 38 39  1  0  0  0  0
 39 36  1  6  0  0  0
 40 38  1  0  0  0  0
 40 43  1  1  0  0  0
 41 37  1  0  0  0  0
 41 46  1  0  0  0  0
 42 50  1  0  0  0  0
 42 51  2  0  0  0  0
 43 47  1  0  0  0  0
 45 44  1  0  0  0  0
 46 45  1  0  0  0  0
 48 47  1  0  0  0  0
 48 39  1  0  0  0  0
 49 46  2  0  0  0  0
 49 40  1  0  0  0  0
 50 41  2  0  0  0  0
 51 49  1  0  0  0  0
 52  1  1  0  0  0  0
 52 53  1  0  0  0  0
 53 54  2  0  0  0  0
 55 58  1  0  0  0  0
 56 57  1  0  0  0  0
 57 58  1  0  0  0  0
 58 53  1  6  0  0  0
 59 61  1  0  0  0  0
 59 60  1  0  0  0  0
 59 56  1  0  0  0  0
 60 55  1  0  0  0  0
 62 61  1  0  0  0  0
 63 62  1  0  0  0  0
 64 66  1  0  0  0  0
 65 64  2  0  0  0  0
 66 68  2  0  0  0  0
 67 65  1  0  0  0  0
 67 69  1  0  0  0  0
 69 63  1  6  0  0  0
 69 66  1  0  0  0  0
M  END
>  <MODEL>
2

>  <REMARK>
 VINA RESULT:      -3.4      4.076     12.118
  Name = 
  21 active torsions:
  status: ('A' for Active; 'I' for Inactive)
    1  A    between atoms: C_8  and  C_9
    2  A    between atoms: C_8  and  C_37
    3  A    between atoms: C_9  and  C_11
    4  A    between atoms: C_10  and  C_56
    5  A    between atoms: C_10  and  N_66
    6  A    between atoms: C_15  and  C_54
    7  A    between atoms: C_15  and  C_62
    8  A    between atoms: C_18  and  C_51
    9  A    between atoms: C_18  and  C_65
   10  A    between atoms: C_20  and  N_42
   11  A    between atoms: O_26  and  C_27
   12  A    between atoms: O_26  and  C_45
   13  A    between atoms: C_27  and  C_33
   14  A    between atoms: C_37  and  C_59
   15  A    between atoms: N_39  and  C_41
   16  A    between atoms: C_41  and  C_45
   17  A    between atoms: C_45  and  C_51
   18  A    between atoms: C_48  and  C_51
   19  A    between atoms: C_48  and  C_54
   20  A    between atoms: C_56  and  N_64
   21  A    between atoms: N_66  and  C_67
                            x       y       z     vdW  Elec       q    Type
                         _______ _______ _______ _____ _____    ______ ____

>  <TORSDO>
F 21

$$$$
=
 OpenBabel11042421303D

 69 77  0  0  1  0  0  0  0  0999 V2000
  161.5490  211.6640  147.9830 C   0  0  1  0  0  3  0  0  0  0  0  0
  160.6790  212.6290  147.1770 C   0  0  2  0  0  3  0  0  0  0  0  0
  159.8240  211.9750  146.0800 C   0  0  0  0  0  2  0  0  0  0  0  0
  160.0360  212.5550  144.6820 C   0  0  0  0  0  2  0  0  0  0  0  0
  160.2530  211.4530  143.6570 C   0  0  0  0  0  2  0  0  0  0  0  0
  159.4770  212.0540  141.3260 C   0  0  0  0  0  3  0  0  0  0  0  0
  161.0150  213.1150  139.7880 C   0  0  0  0  0  3  0  0  0  0  0  0
  159.7390  212.6220  140.0730 C   0  0  0  0  0  0  0  0  0  0  0  0
  161.7470  212.4520  141.9680 N   0  0  0  0  0  0  0  0  0  0  0  0
  163.3330  213.4730  140.4600 N   0  0  0  0  0  1  0  0  0  0  0  0
  162.0200  213.0090  140.7520 C   0  0  0  0  0  0  0  0  0  0  0  0
  160.5040  211.9800  142.2770 C   0  0  0  0  0  0  0  0  0  0  0  0
  156.4240  212.9170  140.1000 O   0  0  0  0  0  0  0  0  0  0  0  0
  157.2440  212.8130  139.1500 C   0  0  0  0  0  0  0  0  0  0  0  0
  159.3870  211.6460  137.0550 N   0  0  0  0  0  1  0  0  0  0  0  0
  158.7130  212.6780  139.0840 N   0  0  0  0  0  0  0  0  0  0  0  0
  157.0430  212.7250  137.3510 S   0  0  0  0  0  0  0  0  0  0  0  0
  158.7250  212.7960  137.6450 C   0  0  2  0  0  3  0  0  0  0  0  0
  161.5070  213.8160  146.7010 C   0  0  0  0  0  2  0  0  0  0  0  0
  163.2860  212.6350  145.6280 O   0  0  0  0  0  0  0  0  0  0  0  0
  163.6050  213.9940  145.4560 C   0  0  0  0  0  2  0  0  0  0  0  0
  162.9890  213.4920  146.7030 C   0  0  1  0  0  3  0  0  0  0  0  0
  161.5750  212.0340  149.4540 C   0  0  0  0  0  2  0  0  0  0  0  0
  157.9330  213.0850  151.2230 C   0  0  0  0  0  0  0  0  0  0  0  0
  156.8030  213.2370  151.7590 O   0  0  0  0  0  0  0  0  0  0  0  0
  159.1240  212.6930  152.0180 C   0  0  0  0  0  0  0  0  0  0  0  0
  158.0700  213.2490  149.7340 C   0  0  2  0  0  3  0  0  0  0  0  0
  160.2730  212.3430  151.3050 O   0  0  0  0  0  0  0  0  0  0  0  0
  160.2080  212.0820  149.9490 N   0  0  0  0  0  0  0  0  0  0  0  0
  159.5380  213.2050  149.2980 C   0  0  0  0  0  2  0  0  0  0  0  0
  159.1730  212.6680  153.3550 C   0  0  0  0  0  3  0  0  0  0  0  0
  157.5090  214.4490  149.3340 F   0  0  0  0  0  0  0  0  0  0  0  0
  158.0480  213.0520  154.2600 C   0  0  2  0  0  3  0  0  0  0  0  0
  157.9000  214.4370  154.2520 O   0  0  0  0  0  1  0  0  0  0  0  0
  158.3610  212.5890  155.6730 C   0  0  0  0  0  2  0  0  0  0  0  0
  158.3180  211.0720  155.7770 C   0  0  0  0  0  2  0  0  0  0  0  0
  160.6950  204.4670  153.8270 F   0  0  0  0  0  0  0  0  0  0  0  0
  159.9320  209.2500  155.1580 C   0  0  1  0  0  3  0  0  0  0  0  0
  159.6910  210.4840  156.0490 C   0  0  1  0  0  3  0  0  0  0  0  0
  161.2310  209.3360  154.3250 C   0  0  1  0  0  3  0  0  0  0  0  0
  161.2450  205.6370  153.4150 C   0  0  0  0  0  0  0  0  0  0  0  0
  162.6480  206.8340  151.8920 N   0  0  0  0  0  0  0  0  0  0  0  0
  162.4200  209.7690  155.1920 C   0  0  0  0  0  2  0  0  0  0  0  0
  159.9540  207.9850  156.0160 C   0  0  0  0  0  2  0  0  0  0  0  0
  160.1030  206.8330  155.1890 O   0  0  0  0  0  0  0  0  0  0  0  0
  160.9640  206.8300  154.0870 C   0  0  0  0  0  0  0  0  0  0  0  0
  162.1440  211.0260  156.0220 C   0  0  0  0  0  2  0  0  0  0  0  0
  160.7340  211.5810  155.8260 C   0  0  0  0  0  2  0  0  0  0  0  0
  161.5290  208.0350  153.6300 C   0  0  0  0  0  0  0  0  0  0  0  0
  162.0980  205.6610  152.3110 C   0  0  0  0  0  3  0  0  0  0  0  0
  162.3850  208.0090  152.5230 C   0  0  0  0  0  3  0  0  0  0  0  0
  161.1640  210.3060  147.8210 O   0  0  0  0  0  0  0  0  0  0  0  0
  161.7180  209.2890  148.6030 C   0  0  0  0  0  0  0  0  0  0  0  0
  162.6340  209.5450  149.4350 O   0  0  0  0  0  0  0  0  0  0  0  0
  162.2460  206.8410  148.9140 C   0  0  0  0  0  2  0  0  0  0  0  0
  161.0490  206.2050  146.5500 C   0  0  0  0  0  2  0  0  0  0  0  0
  160.8370  207.6620  146.9400 C   0  0  0  0  0  2  0  0  0  0  0  0
  161.2410  207.8830  148.3990 C   0  0  2  0  0  3  0  0  0  0  0  0
  162.4780  205.8630  146.5960 N   0  0  0  0  0  0  0  0  0  0  0  0
  163.1800  206.3760  147.7920 C   0  0  0  0  0  2  0  0  0  0  0  0
  162.5730  204.4100  146.6230 C   0  0  0  0  0  2  0  0  0  0  0  0
  161.2300  203.8010  146.9890 C   0  0  0  0  0  2  0  0  0  0  0  0
  161.1300  203.6570  148.4330 N   0  0  0  0  0  2  0  0  0  0  0  0
  161.5920  200.5350  149.8380 C   0  0  0  0  0  3  0  0  0  0  0  0
  161.5580  200.2180  148.4130 N   0  0  0  0  0  0  0  0  0  0  0  0
  160.9250  201.8370  149.9840 C   0  0  0  0  0  0  0  0  0  0  0  0
  160.9430  201.3470  147.7010 C   0  0  0  0  0  2  0  0  0  0  0  0
  160.7480  202.3860  151.0610 O   0  0  0  0  0  0  0  0  0  0  0  0
  160.4660  202.3910  148.7000 C   0  0  2  0  0  3  0  0  0  0  0  0
  1 23  1  1  0  0  0
  2  3  1  6  0  0  0
  2  1  1  0  0  0  0
  4  3  1  0  0  0  0
  5  4  1  0  0  0  0
  6 12  1  0  0  0  0
  7  8  1  0  0  0  0
  7 11  2  0  0  0  0
  8  6  2  0  0  0  0
  9 12  2  0  0  0  0
 10 11  1  0  0  0  0
 11  9  1  0  0  0  0
 12  5  1  0  0  0  0
 14 13  2  0  0  0  0
 16 14  1  0  0  0  0
 16  8  1  0  0  0  0
 17 18  1  0  0  0  0
 17 14  1  0  0  0  0
 18 15  1  6  0  0  0
 18 16  1  0  0  0  0
 19  2  1  0  0  0  0
 20 22  1  0  0  0  0
 21 20  1  0  0  0  0
 21 22  1  0  0  0  0
 22 19  1  6  0  0  0
 23 29  1  0  0  0  0
 24 25  2  0  0  0  0
 24 26  1  0  0  0  0
 26 31  2  0  0  0  0
 27 32  1  1  0  0  0
 27 24  1  0  0  0  0
 28 26  1  0  0  0  0
 29 28  1  0  0  0  0
 30 27  1  0  0  0  0
 30 29  1  0  0  0  0
 31 33  1  0  0  0  0
 33 34  1  1  0  0  0
 33 35  1  0  0  0  0
 35 36  1  0  0  0  0
 38 44  1  1  0  0  0
 38 39  1  0  0  0  0
 39 36  1  6  0  0  0
 40 38  1  0  0  0  0
 40 43  1  1  0  0  0
 41 37  1  0  0  0  0
 41 46  1  0  0  0  0
 42 50  1  0  0  0  0
 42 51  2  0  0  0  0
 43 47  1  0  0  0  0
 45 44  1  0  0  0  0
 46 45  1  0  0  0  0
 48 47  1  0  0  0  0
 48 39  1  0  0  0  0
 49 46  2  0  0  0  0
 49 40  1  0  0  0  0
 50 41  2  0  0  0  0
 51 49  1  0  0  0  0
 52  1  1  0  0  0  0
 52 53  1  0  0  0  0
 53 54  2  0  0  0  0
 56 59  1  0  0  0  0
 56 57  1  0  0  0  0
 57 58  1  0  0  0  0
 58 53  1  6  0  0  0
 58 55  1  0  0  0  0
 59 61  1  0  0  0  0
 59 60  1  0  0  0  0
 60 55  1  0  0  0  0
 61 62  1  0  0  0  0
 62 63  1  0  0  0  0
 64 66  1  0  0  0  0
 65 64  2  0  0  0  0
 66 68  2  0  0  0  0
 67 65  1  0  0  0  0
 67 69  1  0  0  0  0
 69 63  1  6  0  0  0
 69 66  1  0  0  0  0
M  END
>  <MODEL>
3

>  <REMARK>
 VINA RESULT:      -3.1      3.937     11.842
  Name = 
  21 active torsions:
  status: ('A' for Active; 'I' for Inactive)
    1  A    between atoms: C_8  and  C_9
    2  A    between atoms: C_8  and  C_37
    3  A    between atoms: C_9  and  C_11
    4  A    between atoms: C_10  and  C_56
    5  A    between atoms: C_10  and  N_66
    6  A    between atoms: C_15  and  C_54
    7  A    between atoms: C_15  and  C_62
    8  A    between atoms: C_18  and  C_51
    9  A    between atoms: C_18  and  C_65
   10  A    between atoms: C_20  and  N_42
   11  A    between atoms: O_26  and  C_27
   12  A    between atoms: O_26  and  C_45
   13  A    between atoms: C_27  and  C_33
   14  A    between atoms: C_37  and  C_59
   15  A    between atoms: N_39  and  C_41
   16  A    between atoms: C_41  and  C_45
   17  A    between atoms: C_45  and  C_51
   18  A    between atoms: C_48  and  C_51
   19  A    between atoms: C_48  and  C_54
   20  A    between atoms: C_56  and  N_64
   21  A    between atoms: N_66  and  C_67
                            x       y       z     vdW  Elec       q    Type
                         _______ _______ _______ _____ _____    ______ ____

>  <TORSDO>
F 21

$$$$
