=
 OpenBabel11042421043D

 36 42  0  0  1  0  0  0  0  0999 V2000
  162.2440  210.0080  148.8370 C   0  0  0  0  0  3  0  0  0  0  0  0
  161.7700  208.7340  148.5360 C   0  0  0  0  0  3  0  0  0  0  0  0
  161.1910  208.3740  150.8690 C   0  0  0  0  0  0  0  0  0  0  0  0
  161.6320  209.6910  151.1630 C   0  0  0  0  0  0  0  0  0  0  0  0
  162.1710  210.4830  150.1430 C   0  0  0  0  0  3  0  0  0  0  0  0
  161.2340  207.9070  149.5320 C   0  0  0  0  0  0  0  0  0  0  0  0
  159.4780  210.6970  155.3930 C   0  0  2  0  0  3  0  0  0  0  0  0
  160.1210  209.8750  156.2230 C   0  0  0  0  0  3  0  0  0  0  0  0
  160.1830  210.7490  152.9670 C   0  0  1  0  0  3  0  0  0  0  0  0
  160.4600  211.1910  154.3990 C   0  0  1  0  0  0  0  0  0  0  0  0
  161.5070  209.7020  155.7450 C   0  0  0  0  0  3  0  0  0  0  0  0
  160.2690  212.2280  153.3070 C   0  0  0  0  0  2  0  0  0  0  0  0
  161.7220  210.5190  154.7170 C   0  0  1  0  0  3  0  0  0  0  0  0
  161.4740  210.2640  152.4680 N   0  0  0  0  0  0  0  0  0  0  0  0
  162.4680  210.0970  153.5200 C   0  0  0  0  0  2  0  0  0  0  0  0
  156.3100  211.7890  157.0710 C   0  0  0  0  0  2  0  0  0  0  0  0
  155.7390  210.7070  155.1800 C   0  0  0  0  0  2  0  0  0  0  0  0
  158.1140  211.1240  155.5580 N   0  0  0  0  0  0  0  0  0  0  0  0
  157.7570  212.0370  156.6470 C   0  0  0  0  0  2  0  0  0  0  0  0
  157.1150  210.8390  154.5290 C   0  0  0  0  0  2  0  0  0  0  0  0
  155.4640  211.8520  155.9490 O   0  0  0  0  0  0  0  0  0  0  0  0
  161.4150  204.7260  147.0840 C   0  0  2  0  0  3  0  0  0  0  0  0
  159.8750  205.9600  149.8160 O   0  0  0  0  0  0  0  0  0  0  0  0
  162.2060  205.8220  146.8150 C   0  0  0  0  0  2  0  0  0  0  0  0
  160.7580  206.5550  149.1430 C   0  0  0  0  0  0  0  0  0  0  0  0
  161.3010  205.8990  148.0000 N   0  0  0  0  0  0  0  0  0  0  0  0
  162.1680  203.7340  147.7080 O   0  0  0  0  0  0  0  0  0  0  0  0
  161.3090  202.6370  147.7940 C   0  0  0  0  0  2  0  0  0  0  0  0
  160.9030  201.1690  149.7080 C   0  0  0  0  0  2  0  0  0  0  0  0
  159.6740  201.6330  149.2020 O   0  0  0  0  0  0  0  0  0  0  0  0
  160.7450  202.5450  149.1980 C   0  0  2  0  0  3  0  0  0  0  0  0
  160.7220  207.5150  151.8770 O   0  0  0  0  0  0  0  0  0  0  0  0
  161.5700  206.8820  152.8300 C   0  0  1  0  0  3  0  0  0  0  0  0
  160.7820  206.6220  154.1000 C   0  0  0  0  0  1  0  0  0  0  0  0
  162.0920  205.5710  152.2640 C   0  0  0  0  0  2  0  0  0  0  0  0
  161.1070  204.4480  152.5370 C   0  0  0  0  0  1  0  0  0  0  0  0
  1  5  1  0  0  0  0
  2  1  2  0  0  0  0
  2  6  1  0  0  0  0
  3  4  1  0  0  0  0
  3 32  1  0  0  0  0
  4 14  1  0  0  0  0
  5  4  2  0  0  0  0
  6  3  2  0  0  0  0
  7 18  1  1  0  0  0
  7  8  1  0  0  0  0
  9 12  1  6  0  0  0
  9 10  1  0  0  0  0
 10 12  1  1  0  0  0
 10 13  1  0  0  0  0
 10  7  1  0  0  0  0
 11  8  2  0  0  0  0
 13 15  1  6  0  0  0
 13 11  1  0  0  0  0
 14  9  1  0  0  0  0
 14 15  1  0  0  0  0
 17 21  1  0  0  0  0
 18 19  1  0  0  0  0
 19 16  1  0  0  0  0
 20 17  1  0  0  0  0
 20 18  1  0  0  0  0
 21 16  1  0  0  0  0
 22 27  1  1  0  0  0
 22 26  1  0  0  0  0
 24 22  1  0  0  0  0
 24 26  1  0  0  0  0
 25  6  1  0  0  0  0
 25 23  2  0  0  0  0
 26 25  1  0  0  0  0
 27 28  1  0  0  0  0
 30 29  1  0  0  0  0
 31 28  1  6  0  0  0
 31 30  1  0  0  0  0
 31 29  1  0  0  0  0
 32 33  1  0  0  0  0
 33 34  1  1  0  0  0
 35 36  1  0  0  0  0
 35 33  1  0  0  0  0
M  END
>  <MODEL>
1

>  <REMARK>
 VINA RESULT:      -7.5      0.000      0.000
  Name = 
  9 active torsions:
  status: ('A' for Active; 'I' for Inactive)
    1  A    between atoms: C_1  and  O_17
    2  A    between atoms: C_1  and  C_19
    3  A    between atoms: C_3  and  O_22
    4  A    between atoms: C_5  and  N_29
    5  A    between atoms: C_14  and  O_17
    6  A    between atoms: C_16  and  N_34
    7  A    between atoms: C_21  and  C_25
    8  A    between atoms: O_22  and  C_25
    9  A    between atoms: C_23  and  C_33
                            x       y       z     vdW  Elec       q    Type
                         _______ _______ _______ _____ _____    ______ ____

>  <TORSDO>
F 9

$$$$
=
 OpenBabel11042421043D

 36 42  0  0  1  0  0  0  0  0999 V2000
  160.8880  203.7620  150.8750 C   0  0  0  0  0  3  0  0  0  0  0  0
  160.8550  204.1990  149.5540 C   0  0  0  0  0  3  0  0  0  0  0  0
  160.9460  206.5130  150.2940 C   0  0  0  0  0  0  0  0  0  0  0  0
  161.0270  206.0610  151.6380 C   0  0  0  0  0  0  0  0  0  0  0  0
  160.9790  204.6890  151.9090 C   0  0  0  0  0  3  0  0  0  0  0  0
  160.8910  205.5650  149.2420 C   0  0  0  0  0  0  0  0  0  0  0  0
  160.0700  209.7330  154.6610 C   0  0  2  0  0  3  0  0  0  0  0  0
  159.6620  209.0830  155.7510 C   0  0  0  0  0  3  0  0  0  0  0  0
  160.8270  208.3790  152.6660 C   0  0  1  0  0  3  0  0  0  0  0  0
  161.1590  208.9390  154.0450 C   0  0  1  0  0  0  0  0  0  0  0  0
  160.3730  207.7920  155.8310 C   0  0  0  0  0  3  0  0  0  0  0  0
  162.0320  209.2860  152.8530 C   0  0  0  0  0  2  0  0  0  0  0  0
  161.2910  207.7360  154.8700 C   0  0  1  0  0  3  0  0  0  0  0  0
  161.2330  206.9710  152.7260 N   0  0  0  0  0  0  0  0  0  0  0  0
  161.5280  206.5170  154.0780 C   0  0  0  0  0  2  0  0  0  0  0  0
  159.0410  213.3270  154.9330 C   0  0  0  0  0  2  0  0  0  0  0  0
  157.9200  212.4290  153.1990 C   0  0  0  0  0  2  0  0  0  0  0  0
  159.6180  211.0420  154.2720 N   0  0  0  0  0  0  0  0  0  0  0  0
  160.1030  212.2280  154.9850 C   0  0  0  0  0  2  0  0  0  0  0  0
  158.8550  211.2310  153.0400 C   0  0  0  0  0  2  0  0  0  0  0  0
  158.6540  213.5580  153.6010 O   0  0  0  0  0  0  0  0  0  0  0  0
  162.4290  205.4200  145.5330 C   0  0  2  0  0  3  0  0  0  0  0  0
  159.9080  206.6910  147.3750 O   0  0  0  0  0  0  0  0  0  0  0  0
  163.0900  204.7750  146.5560 C   0  0  0  0  0  2  0  0  0  0  0  0
  160.8390  205.9620  147.8120 C   0  0  0  0  0  0  0  0  0  0  0  0
  161.8420  205.5180  146.9020 N   0  0  0  0  0  0  0  0  0  0  0  0
  161.6910  204.5020  144.7870 O   0  0  0  0  0  0  0  0  0  0  0  0
  161.9240  203.2740  145.4060 C   0  0  0  0  0  2  0  0  0  0  0  0
  160.6290  201.7390  146.8020 C   0  0  0  0  0  2  0  0  0  0  0  0
  160.8770  201.1410  145.5520 O   0  0  0  0  0  0  0  0  0  0  0  0
  160.6160  202.5230  145.5520 C   0  0  2  0  0  3  0  0  0  0  0  0
  160.9060  207.8820  149.9820 O   0  0  0  0  0  0  0  0  0  0  0  0
  162.0590  208.6480  149.6520 C   0  0  1  0  0  3  0  0  0  0  0  0
  163.1580  207.7150  149.1770 C   0  0  0  0  0  1  0  0  0  0  0  0
  161.7180  209.6480  148.5590 C   0  0  0  0  0  2  0  0  0  0  0  0
  162.1340  211.0480  148.9730 C   0  0  0  0  0  1  0  0  0  0  0  0
  1  5  1  0  0  0  0
  2  1  2  0  0  0  0
  3  4  1  0  0  0  0
  4  5  2  0  0  0  0
  4 14  1  0  0  0  0
  6  2  1  0  0  0  0
  6  3  2  0  0  0  0
  7 18  1  1  0  0  0
  7  8  1  0  0  0  0
  8 11  2  0  0  0  0
  9 14  1  0  0  0  0
  9 12  1  6  0  0  0
  9 10  1  0  0  0  0
 10 12  1  6  0  0  0
 10  7  1  0  0  0  0
 10 13  1  0  0  0  0
 13 15  1  6  0  0  0
 13 11  1  0  0  0  0
 14 15  1  0  0  0  0
 16 19  1  0  0  0  0
 17 21  1  0  0  0  0
 18 19  1  0  0  0  0
 20 17  1  0  0  0  0
 20 18  1  0  0  0  0
 21 16  1  0  0  0  0
 22 27  1  6  0  0  0
 22 24  1  0  0  0  0
 22 26  1  0  0  0  0
 23 25  2  0  0  0  0
 24 26  1  0  0  0  0
 25  6  1  0  0  0  0
 26 25  1  0  0  0  0
 27 28  1  0  0  0  0
 30 29  1  0  0  0  0
 31 28  1  1  0  0  0
 31 30  1  0  0  0  0
 31 29  1  0  0  0  0
 32  3  1  0  0  0  0
 33 34  1  6  0  0  0
 33 32  1  0  0  0  0
 35 36  1  0  0  0  0
 35 33  1  0  0  0  0
M  END
>  <MODEL>
2

>  <REMARK>
 VINA RESULT:      -6.1      2.051      3.578
  Name = 
  9 active torsions:
  status: ('A' for Active; 'I' for Inactive)
    1  A    between atoms: C_1  and  O_17
    2  A    between atoms: C_1  and  C_19
    3  A    between atoms: C_3  and  O_22
    4  A    between atoms: C_5  and  N_29
    5  A    between atoms: C_14  and  O_17
    6  A    between atoms: C_16  and  N_34
    7  A    between atoms: C_21  and  C_25
    8  A    between atoms: O_22  and  C_25
    9  A    between atoms: C_23  and  C_33
                            x       y       z     vdW  Elec       q    Type
                         _______ _______ _______ _____ _____    ______ ____

>  <TORSDO>
F 9

$$$$
=
 OpenBabel11042421043D

 36 42  0  0  1  0  0  0  0  0999 V2000
  160.2730  206.1500  154.9930 C   0  0  0  0  0  3  0  0  0  0  0  0
  160.9430  205.5920  153.9080 C   0  0  0  0  0  3  0  0  0  0  0  0
  161.4770  207.8110  153.0700 C   0  0  0  0  0  0  0  0  0  0  0  0
  160.8330  208.3740  154.2030 C   0  0  0  0  0  0  0  0  0  0  0  0
  160.2240  207.5330  155.1410 C   0  0  0  0  0  3  0  0  0  0  0  0
  161.5560  206.4020  152.9430 C   0  0  0  0  0  0  0  0  0  0  0  0
  159.0910  212.7560  155.3450 C   0  0  2  0  0  3  0  0  0  0  0  0
  159.5010  212.8860  156.6080 C   0  0  0  0  0  3  0  0  0  0  0  0
  159.7480  210.6720  154.0770 C   0  0  1  0  0  3  0  0  0  0  0  0
  160.1550  212.0460  154.5980 C   0  0  1  0  0  0  0  0  0  0  0  0
  160.7820  212.1720  156.7690 C   0  0  0  0  0  3  0  0  0  0  0  0
  160.2340  211.7410  153.1130 C   0  0  0  0  0  2  0  0  0  0  0  0
  161.1940  211.7350  155.5830 C   0  0  1  0  0  3  0  0  0  0  0  0
  160.8540  209.7850  154.4550 N   0  0  0  0  0  0  0  0  0  0  0  0
  161.7810  210.3970  155.3970 C   0  0  0  0  0  2  0  0  0  0  0  0
  155.5120  213.1260  154.2940 C   0  0  0  0  0  2  0  0  0  0  0  0
  156.7570  214.4150  152.9310 C   0  0  0  0  0  2  0  0  0  0  0  0
  157.8940  213.3480  154.8080 N   0  0  0  0  0  0  0  0  0  0  0  0
  156.5870  213.0030  155.3740 C   0  0  0  0  0  2  0  0  0  0  0  0
  157.9730  214.4530  153.8550 C   0  0  0  0  0  2  0  0  0  0  0  0
  155.5770  214.3970  153.6950 O   0  0  0  0  0  0  0  0  0  0  0  0
  161.4770  203.8510  149.8390 C   0  0  2  0  0  3  0  0  0  0  0  0
  163.4400  206.0130  151.5210 O   0  0  0  0  0  0  0  0  0  0  0  0
  160.3550  203.9760  150.6300 C   0  0  0  0  0  2  0  0  0  0  0  0
  162.2430  205.7410  151.8030 C   0  0  0  0  0  0  0  0  0  0  0  0
  161.5520  204.7880  150.9990 N   0  0  0  0  0  0  0  0  0  0  0  0
  161.3210  204.5890  148.6670 O   0  0  0  0  0  0  0  0  0  0  0  0
  161.6110  203.6890  147.6410 C   0  0  0  0  0  2  0  0  0  0  0  0
  163.0740  204.7460  145.9900 C   0  0  0  0  0  2  0  0  0  0  0  0
  162.2080  205.7110  146.5360 O   0  0  0  0  0  0  0  0  0  0  0  0
  161.6710  204.4290  146.3200 C   0  0  2  0  0  3  0  0  0  0  0  0
  162.0280  208.6190  152.0620 O   0  0  0  0  0  0  0  0  0  0  0  0
  161.2840  209.1150  150.9540 C   0  0  1  0  0  3  0  0  0  0  0  0
  161.9500  210.3740  150.4310 C   0  0  0  0  0  1  0  0  0  0  0  0
  161.2280  208.0620  149.8580 C   0  0  0  0  0  2  0  0  0  0  0  0
  162.3180  208.3100  148.8320 C   0  0  0  0  0  1  0  0  0  0  0  0
  1  5  1  0  0  0  0
  2  1  2  0  0  0  0
  3  4  1  0  0  0  0
  4 14  1  0  0  0  0
  4  5  2  0  0  0  0
  6  3  2  0  0  0  0
  6  2  1  0  0  0  0
  7 18  1  6  0  0  0
  7  8  1  0  0  0  0
  8 11  2  0  0  0  0
  9 12  1  6  0  0  0
  9 14  1  0  0  0  0
  9 10  1  0  0  0  0
 10 12  1  6  0  0  0
 10  7  1  0  0  0  0
 10 13  1  0  0  0  0
 13 15  1  1  0  0  0
 13 11  1  0  0  0  0
 14 15  1  0  0  0  0
 16 19  1  0  0  0  0
 17 21  1  0  0  0  0
 17 20  1  0  0  0  0
 18 19  1  0  0  0  0
 20 18  1  0  0  0  0
 21 16  1  0  0  0  0
 22 27  1  6  0  0  0
 22 24  1  0  0  0  0
 22 26  1  0  0  0  0
 23 25  2  0  0  0  0
 24 26  1  0  0  0  0
 25  6  1  0  0  0  0
 26 25  1  0  0  0  0
 28 27  1  0  0  0  0
 29 31  1  0  0  0  0
 29 30  1  0  0  0  0
 31 30  1  0  0  0  0
 31 28  1  1  0  0  0
 32  3  1  0  0  0  0
 33 34  1  6  0  0  0
 33 32  1  0  0  0  0
 35 33  1  0  0  0  0
 36 35  1  0  0  0  0
M  END
>  <MODEL>
3

>  <REMARK>
 VINA RESULT:      -6.1      1.894      3.696
  Name = 
  9 active torsions:
  status: ('A' for Active; 'I' for Inactive)
    1  A    between atoms: C_1  and  O_17
    2  A    between atoms: C_1  and  C_19
    3  A    between atoms: C_3  and  O_22
    4  A    between atoms: C_5  and  N_29
    5  A    between atoms: C_14  and  O_17
    6  A    between atoms: C_16  and  N_34
    7  A    between atoms: C_21  and  C_25
    8  A    between atoms: O_22  and  C_25
    9  A    between atoms: C_23  and  C_33
                            x       y       z     vdW  Elec       q    Type
                         _______ _______ _______ _____ _____    ______ ____

>  <TORSDO>
F 9

$$$$
=
 OpenBabel11042421043D

 36 42  0  0  1  0  0  0  0  0999 V2000
  161.9790  210.2860  150.0250 C   0  0  0  0  0  3  0  0  0  0  0  0
  162.0650  208.8990  149.9550 C   0  0  0  0  0  3  0  0  0  0  0  0
  161.7520  208.7360  152.3610 C   0  0  0  0  0  0  0  0  0  0  0  0
  161.6170  210.1490  152.4200 C   0  0  0  0  0  0  0  0  0  0  0  0
  161.7510  210.9050  151.2500 C   0  0  0  0  0  3  0  0  0  0  0  0
  161.9470  208.1080  151.1060 C   0  0  0  0  0  0  0  0  0  0  0  0
  158.9230  211.3650  156.2680 C   0  0  2  0  0  3  0  0  0  0  0  0
  159.5130  210.6660  157.2390 C   0  0  0  0  0  3  0  0  0  0  0  0
  159.9040  211.2550  153.9420 C   0  0  1  0  0  3  0  0  0  0  0  0
  159.9840  211.8390  155.3480 C   0  0  1  0  0  0  0  0  0  0  0  0
  160.9530  210.5510  156.9370 C   0  0  0  0  0  3  0  0  0  0  0  0
  159.8600  212.7590  154.1480 C   0  0  0  0  0  2  0  0  0  0  0  0
  161.2380  211.2870  155.8670 C   0  0  1  0  0  3  0  0  0  0  0  0
  161.2720  210.8200  153.6390 N   0  0  0  0  0  0  0  0  0  0  0  0
  162.1430  210.8160  154.8060 C   0  0  0  0  0  2  0  0  0  0  0  0
  155.6550  212.9090  157.2600 C   0  0  0  0  0  2  0  0  0  0  0  0
  155.1990  210.9700  156.2090 C   0  0  0  0  0  2  0  0  0  0  0  0
  157.5260  211.7070  156.2390 N   0  0  0  0  0  0  0  0  0  0  0  0
  157.0810  213.0180  156.7190 C   0  0  0  0  0  2  0  0  0  0  0  0
  156.5660  210.8570  155.5360 C   0  0  0  0  0  2  0  0  0  0  0  0
  154.8190  212.3210  156.2930 O   0  0  0  0  0  0  0  0  0  0  0  0
  160.9400  204.7070  149.2170 C   0  0  2  0  0  3  0  0  0  0  0  0
  162.8230  205.9660  151.7120 O   0  0  0  0  0  0  0  0  0  0  0  0
  160.3490  205.8900  148.8250 C   0  0  0  0  0  2  0  0  0  0  0  0
  162.0630  206.6340  150.9610 C   0  0  0  0  0  0  0  0  0  0  0  0
  161.3180  205.9460  149.9580 N   0  0  0  0  0  0  0  0  0  0  0  0
  161.9670  204.3720  148.3370 O   0  0  0  0  0  0  0  0  0  0  0  0
  161.3200  204.0330  147.1480 C   0  0  0  0  0  2  0  0  0  0  0  0
  161.3840  205.5620  145.2400 C   0  0  0  0  0  2  0  0  0  0  0  0
  161.4440  204.2330  144.7800 O   0  0  0  0  0  0  0  0  0  0  0  0
  162.1370  204.5230  145.9690 C   0  0  2  0  0  3  0  0  0  0  0  0
  161.7090  207.9450  153.5200 O   0  0  0  0  0  0  0  0  0  0  0  0
  160.5690  207.1900  153.9160 C   0  0  1  0  0  3  0  0  0  0  0  0
  160.9910  205.7560  154.1820 C   0  0  0  0  0  1  0  0  0  0  0  0
  159.9610  207.7940  155.1720 C   0  0  0  0  0  2  0  0  0  0  0  0
  160.3990  207.0160  156.3990 C   0  0  0  0  0  1  0  0  0  0  0  0
  1  5  1  0  0  0  0
  2  1  2  0  0  0  0
  2  6  1  0  0  0  0
  3  4  1  0  0  0  0
  3 32  1  0  0  0  0
  4 14  1  0  0  0  0
  5  4  2  0  0  0  0
  6  3  2  0  0  0  0
  7 18  1  1  0  0  0
  7  8  1  0  0  0  0
  9 12  1  6  0  0  0
  9 10  1  0  0  0  0
 10 12  1  6  0  0  0
 10 13  1  0  0  0  0
 10  7  1  0  0  0  0
 11  8  2  0  0  0  0
 13 15  1  6  0  0  0
 13 11  1  0  0  0  0
 14  9  1  0  0  0  0
 14 15  1  0  0  0  0
 17 21  1  0  0  0  0
 18 19  1  0  0  0  0
 19 16  1  0  0  0  0
 20 17  1  0  0  0  0
 20 18  1  0  0  0  0
 21 16  1  0  0  0  0
 22 27  1  6  0  0  0
 22 26  1  0  0  0  0
 24 22  1  0  0  0  0
 24 26  1  0  0  0  0
 25  6  1  0  0  0  0
 25 23  2  0  0  0  0
 26 25  1  0  0  0  0
 28 27  1  0  0  0  0
 29 31  1  0  0  0  0
 30 29  1  0  0  0  0
 30 31  1  0  0  0  0
 31 28  1  1  0  0  0
 32 33  1  0  0  0  0
 33 34  1  1  0  0  0
 33 35  1  0  0  0  0
 35 36  1  0  0  0  0
M  END
>  <MODEL>
4

>  <REMARK>
 VINA RESULT:      -5.8      1.599      2.388
  Name = 
  9 active torsions:
  status: ('A' for Active; 'I' for Inactive)
    1  A    between atoms: C_1  and  O_17
    2  A    between atoms: C_1  and  C_19
    3  A    between atoms: C_3  and  O_22
    4  A    between atoms: C_5  and  N_29
    5  A    between atoms: C_14  and  O_17
    6  A    between atoms: C_16  and  N_34
    7  A    between atoms: C_21  and  C_25
    8  A    between atoms: O_22  and  C_25
    9  A    between atoms: C_23  and  C_33
                            x       y       z     vdW  Elec       q    Type
                         _______ _______ _______ _____ _____    ______ ____

>  <TORSDO>
F 9

$$$$
=
 OpenBabel11042421043D

 36 42  0  0  1  0  0  0  0  0999 V2000
  160.4630  206.9530  156.1290 C   0  0  0  0  0  3  0  0  0  0  0  0
  159.7260  208.1120  156.3560 C   0  0  0  0  0  3  0  0  0  0  0  0
  160.1430  208.8500  154.0780 C   0  0  0  0  0  0  0  0  0  0  0  0
  160.8540  207.6450  153.8370 C   0  0  0  0  0  0  0  0  0  0  0  0
  161.0190  206.7210  154.8750 C   0  0  0  0  0  3  0  0  0  0  0  0
  159.5470  209.0660  155.3450 C   0  0  0  0  0  0  0  0  0  0  0  0
  161.1290  205.2780  149.6100 C   0  0  2  0  0  3  0  0  0  0  0  0
  160.5550  206.1490  148.7780 C   0  0  0  0  0  3  0  0  0  0  0  0
  161.3990  205.9330  152.0360 C   0  0  1  0  0  3  0  0  0  0  0  0
  161.9080  206.0530  150.6040 C   0  0  1  0  0  0  0  0  0  0  0  0
  160.8310  207.5180  149.2550 C   0  0  0  0  0  3  0  0  0  0  0  0
  162.8280  205.5440  151.6980 C   0  0  0  0  0  2  0  0  0  0  0  0
  161.6720  207.4630  150.2840 C   0  0  1  0  0  3  0  0  0  0  0  0
  161.3480  207.3110  152.5330 N   0  0  0  0  0  0  0  0  0  0  0  0
  161.5070  208.3060  151.4810 C   0  0  0  0  0  2  0  0  0  0  0  0
  160.8310  201.9300  147.9520 C   0  0  0  0  0  2  0  0  0  0  0  0
  160.1430  201.6960  150.0840 C   0  0  0  0  0  2  0  0  0  0  0  0
  161.1000  203.8490  149.4460 N   0  0  0  0  0  0  0  0  0  0  0  0
  161.5730  203.2430  148.1980 C   0  0  0  0  0  2  0  0  0  0  0  0
  160.8140  202.9750  150.5830 C   0  0  0  0  0  2  0  0  0  0  0  0
  160.9330  201.1020  149.0840 O   0  0  0  0  0  0  0  0  0  0  0  0
  159.3490  212.7880  156.8450 C   0  0  2  0  0  3  0  0  0  0  0  0
  157.5390  210.3640  155.3610 O   0  0  0  0  0  0  0  0  0  0  0  0
  160.5410  212.1000  156.9200 C   0  0  0  0  0  2  0  0  0  0  0  0
  158.7600  210.2850  155.6600 C   0  0  0  0  0  0  0  0  0  0  0  0
  159.3780  211.3980  156.3020 N   0  0  0  0  0  0  0  0  0  0  0  0
  159.3850  213.6920  155.7850 O   0  0  0  0  0  0  0  0  0  0  0  0
  158.1670  214.3690  155.8550 C   0  0  0  0  0  2  0  0  0  0  0  0
  156.0820  214.3060  154.5770 C   0  0  0  0  0  2  0  0  0  0  0  0
  156.9010  213.2280  154.1940 O   0  0  0  0  0  0  0  0  0  0  0  0
  157.5480  214.4450  154.4740 C   0  0  2  0  0  3  0  0  0  0  0  0
  160.0250  209.8420  153.0910 O   0  0  0  0  0  0  0  0  0  0  0  0
  160.6100  211.1360  153.2000 C   0  0  1  0  0  3  0  0  0  0  0  0
  162.0230  210.9980  153.7370 C   0  0  0  0  0  1  0  0  0  0  0  0
  160.6350  211.8060  151.8360 C   0  0  0  0  0  2  0  0  0  0  0  0
  159.6470  212.9580  151.7950 C   0  0  0  0  0  1  0  0  0  0  0  0
  1  2  1  0  0  0  0
  3  6  1  0  0  0  0
  4  3  2  0  0  0  0
  4  5  1  0  0  0  0
  5  1  2  0  0  0  0
  6 25  1  0  0  0  0
  6  2  2  0  0  0  0
  7  8  1  6  0  0  0
  7 10  1  0  0  0  0
  8 11  2  0  0  0  0
  9 12  1  1  0  0  0
  9 14  1  0  0  0  0
 10 12  1  6  0  0  0
 10  9  1  0  0  0  0
 13 11  1  6  0  0  0
 13 10  1  0  0  0  0
 13 15  1  0  0  0  0
 14  4  1  0  0  0  0
 15 14  1  0  0  0  0
 16 19  1  0  0  0  0
 16 21  1  0  0  0  0
 17 20  1  0  0  0  0
 18  7  1  0  0  0  0
 18 20  1  0  0  0  0
 19 18  1  0  0  0  0
 21 17  1  0  0  0  0
 22 27  1  6  0  0  0
 22 24  1  0  0  0  0
 23 25  2  0  0  0  0
 25 26  1  0  0  0  0
 26 22  1  0  0  0  0
 26 24  1  0  0  0  0
 27 28  1  0  0  0  0
 30 31  1  0  0  0  0
 30 29  1  0  0  0  0
 31 29  1  0  0  0  0
 31 28  1  1  0  0  0
 32 33  1  0  0  0  0
 32  3  1  0  0  0  0
 33 34  1  6  0  0  0
 35 33  1  0  0  0  0
 36 35  1  0  0  0  0
M  END
>  <MODEL>
5

>  <REMARK>
 VINA RESULT:      -5.4      2.036      9.275
  Name = 
  9 active torsions:
  status: ('A' for Active; 'I' for Inactive)
    1  A    between atoms: C_1  and  O_17
    2  A    between atoms: C_1  and  C_19
    3  A    between atoms: C_3  and  O_22
    4  A    between atoms: C_5  and  N_29
    5  A    between atoms: C_14  and  O_17
    6  A    between atoms: C_16  and  N_34
    7  A    between atoms: C_21  and  C_25
    8  A    between atoms: O_22  and  C_25
    9  A    between atoms: C_23  and  C_33
                            x       y       z     vdW  Elec       q    Type
                         _______ _______ _______ _____ _____    ______ ____

>  <TORSDO>
F 9

$$$$
=
 OpenBabel11042421043D

 36 42  0  0  1  0  0  0  0  0999 V2000
  160.0400  207.2970  155.7630 C   0  0  0  0  0  3  0  0  0  0  0  0
  159.8710  208.6580  156.0040 C   0  0  0  0  0  3  0  0  0  0  0  0
  160.9530  209.1880  153.8930 C   0  0  0  0  0  0  0  0  0  0  0  0
  161.0800  207.7990  153.6300 C   0  0  0  0  0  0  0  0  0  0  0  0
  160.6370  206.8730  154.5800 C   0  0  0  0  0  3  0  0  0  0  0  0
  160.3120  209.6160  155.0820 C   0  0  0  0  0  0  0  0  0  0  0  0
  161.1600  205.2370  149.5100 C   0  0  2  0  0  3  0  0  0  0  0  0
  160.8360  206.1660  148.6110 C   0  0  0  0  0  3  0  0  0  0  0  0
  161.3880  205.9320  151.9290 C   0  0  1  0  0  3  0  0  0  0  0  0
  162.0100  205.8830  150.5380 C   0  0  1  0  0  0  0  0  0  0  0  0
  161.3530  207.4720  149.0660 C   0  0  0  0  0  3  0  0  0  0  0  0
  162.7280  205.2480  151.7150 C   0  0  0  0  0  2  0  0  0  0  0  0
  162.0900  207.2950  150.1590 C   0  0  1  0  0  3  0  0  0  0  0  0
  161.5860  207.3140  152.3790 N   0  0  0  0  0  0  0  0  0  0  0  0
  162.0180  208.2070  151.3130 C   0  0  0  0  0  2  0  0  0  0  0  0
  160.7440  201.6290  150.4390 C   0  0  0  0  0  2  0  0  0  0  0  0
  161.2110  201.7150  148.2370 C   0  0  0  0  0  2  0  0  0  0  0  0
  160.8510  203.8370  149.3880 N   0  0  0  0  0  0  0  0  0  0  0  0
  160.3300  203.0970  150.5410 C   0  0  0  0  0  2  0  0  0  0  0  0
  160.8400  203.1880  148.0780 C   0  0  0  0  0  2  0  0  0  0  0  0
  160.3680  201.1100  149.1870 O   0  0  0  0  0  0  0  0  0  0  0  0
  157.8640  212.7650  155.5690 C   0  0  2  0  0  3  0  0  0  0  0  0
  161.0850  211.7850  155.7290 O   0  0  0  0  0  0  0  0  0  0  0  0
  157.3330  211.5640  155.1510 C   0  0  0  0  0  2  0  0  0  0  0  0
  160.1120  211.0510  155.4090 C   0  0  0  0  0  0  0  0  0  0  0  0
  158.8070  211.6250  155.3740 N   0  0  0  0  0  0  0  0  0  0  0  0
  157.6380  212.9390  156.9330 O   0  0  0  0  0  0  0  0  0  0  0  0
  156.7500  214.0120  157.0110 C   0  0  0  0  0  2  0  0  0  0  0  0
  154.3160  214.0790  157.2500 C   0  0  0  0  0  2  0  0  0  0  0  0
  154.7520  212.7410  157.2600 O   0  0  0  0  0  0  0  0  0  0  0  0
  155.4240  213.6200  156.3900 C   0  0  2  0  0  3  0  0  0  0  0  0
  161.4600  210.1530  153.0070 O   0  0  0  0  0  0  0  0  0  0  0  0
  160.7730  210.5860  151.8370 C   0  0  1  0  0  3  0  0  0  0  0  0
  159.5130  211.3270  152.2460 C   0  0  0  0  0  1  0  0  0  0  0  0
  161.6720  211.5010  151.0210 C   0  0  0  0  0  2  0  0  0  0  0  0
  161.5630  211.1690  149.5440 C   0  0  0  0  0  1  0  0  0  0  0  0
  1  2  1  0  0  0  0
  3  6  1  0  0  0  0
  4  3  2  0  0  0  0
  4  5  1  0  0  0  0
  5  1  2  0  0  0  0
  6 25  1  0  0  0  0
  6  2  2  0  0  0  0
  7  8  1  6  0  0  0
  7 10  1  0  0  0  0
  8 11  2  0  0  0  0
  9 12  1  1  0  0  0
  9 14  1  0  0  0  0
 10 12  1  1  0  0  0
 10  9  1  0  0  0  0
 13 11  1  6  0  0  0
 13 10  1  0  0  0  0
 13 15  1  0  0  0  0
 14  4  1  0  0  0  0
 15 14  1  0  0  0  0
 16 19  1  0  0  0  0
 17 21  1  0  0  0  0
 18  7  1  0  0  0  0
 18 19  1  0  0  0  0
 20 17  1  0  0  0  0
 20 18  1  0  0  0  0
 21 16  1  0  0  0  0
 22 27  1  1  0  0  0
 24 26  1  0  0  0  0
 24 22  1  0  0  0  0
 25 23  2  0  0  0  0
 26 25  1  0  0  0  0
 26 22  1  0  0  0  0
 27 28  1  0  0  0  0
 29 30  1  0  0  0  0
 31 28  1  1  0  0  0
 31 29  1  0  0  0  0
 31 30  1  0  0  0  0
 32  3  1  0  0  0  0
 33 34  1  1  0  0  0
 33 32  1  0  0  0  0
 35 33  1  0  0  0  0
 36 35  1  0  0  0  0
M  END
>  <MODEL>
6

>  <REMARK>
 VINA RESULT:      -4.7      1.839      9.387
  Name = 
  9 active torsions:
  status: ('A' for Active; 'I' for Inactive)
    1  A    between atoms: C_1  and  O_17
    2  A    between atoms: C_1  and  C_19
    3  A    between atoms: C_3  and  O_22
    4  A    between atoms: C_5  and  N_29
    5  A    between atoms: C_14  and  O_17
    6  A    between atoms: C_16  and  N_34
    7  A    between atoms: C_21  and  C_25
    8  A    between atoms: O_22  and  C_25
    9  A    between atoms: C_23  and  C_33
                            x       y       z     vdW  Elec       q    Type
                         _______ _______ _______ _____ _____    ______ ____

>  <TORSDO>
F 9

$$$$
