=
 OpenBabel11052410503D

 28 31  0  0  1  0  0  0  0  0999 V2000
  161.6830  206.6500  149.6900 C   0  0  1  0  0  3  0  0  0  0  0  0
  162.0180  211.3890  149.8540 N   0  0  0  0  0  0  0  0  0  0  0  0
  162.1890  209.7370  151.9370 S   0  0  0  0  0  0  0  0  0  0  0  0
  161.8150  208.9520  149.6840 C   0  0  0  0  0  0  0  0  0  0  0  0
  161.9860  210.1740  150.3220 C   0  0  0  0  0  0  0  0  0  0  0  0
  161.6090  208.5370  148.3940 O   0  0  0  0  0  0  0  0  0  0  0  0
  161.8630  207.8790  150.4980 C   0  0  0  0  0  0  0  0  0  0  0  0
  160.4320  205.9180  150.1370 C   0  0  0  0  0  1  0  0  0  0  0  0
  162.0610  208.0950  151.7850 O   0  0  0  0  0  0  0  0  0  0  0  0
  161.4980  207.1510  148.3030 N   0  0  0  0  0  0  0  0  0  0  0  0
  161.4920  213.8740  144.9970 N   0  0  0  0  0  0  0  0  0  0  0  0
  161.6660  213.0690  146.0050 C   0  0  0  0  0  0  0  0  0  0  0  0
  162.9350  212.9890  146.6580 N   0  0  0  0  0  0  0  0  0  0  0  0
  159.0480  213.7440  145.2630 C   0  0  0  0  0  3  0  0  0  0  0  0
  161.8680  211.8430  148.4990 C   0  0  0  0  0  0  0  0  0  0  0  0
  160.7120  211.8230  147.8970 N   0  0  0  0  0  0  0  0  0  0  0  0
  159.2070  212.9080  146.3010 C   0  0  0  0  0  3  0  0  0  0  0  0
  163.0490  212.4060  147.8140 C   0  0  0  0  0  3  0  0  0  0  0  0
  160.1980  213.9930  144.3080 C   0  0  2  0  0  3  0  0  0  0  0  0
  160.5260  212.2080  146.4970 C   0  0  1  0  0  3  0  0  0  0  0  0
  159.0660  212.9100  142.4890 O   0  0  0  0  0  0  0  0  0  0  0  0
  161.2730  212.3580  142.7590 O   0  0  0  0  0  1  0  0  0  0  0  0
  160.1360  213.0590  143.1380 C   0  0  0  0  0  0  0  0  0  0  0  0
  162.6290  206.6730  147.5150 C   0  0  0  0  0  2  0  0  0  0  0  0
  162.3070  205.3290  146.8790 C   0  0  0  0  0  2  0  0  0  0  0  0
  162.4180  205.4150  145.3690 C   0  0  0  0  0  2  0  0  0  0  0  0
  160.1200  206.1350  145.1020 N   0  0  0  0  0  1  0  0  0  0  0  0
  161.0750  205.1000  144.7480 C   0  0  0  0  0  2  0  0  0  0  0  0
  1  8  1  1  0  0  0
  1  7  1  0  0  0  0
  2  5  2  0  0  0  0
  4  5  1  0  0  0  0
  4  7  2  0  0  0  0
  5  3  1  0  0  0  0
  6  4  1  0  0  0  0
  7  9  1  0  0  0  0
  9  3  1  0  0  0  0
 10  6  1  0  0  0  0
 10  1  1  0  0  0  0
 11 12  2  0  0  0  0
 12 20  1  0  0  0  0
 12 13  1  0  0  0  0
 13 18  2  0  0  0  0
 14 17  2  0  0  0  0
 15  2  1  0  0  0  0
 16 15  2  0  0  0  0
 18 15  1  0  0  0  0
 19 23  1  6  0  0  0
 19 11  1  0  0  0  0
 19 14  1  0  0  0  0
 20 17  1  1  0  0  0
 20 16  1  0  0  0  0
 21 23  2  0  0  0  0
 22 23  1  0  0  0  0
 24 10  1  0  0  0  0
 25 24  1  0  0  0  0
 26 25  1  0  0  0  0
 28 27  1  0  0  0  0
 28 26  1  0  0  0  0
M  END
>  <MODEL>
1

>  <REMARK>
 VINA RESULT:      -6.7      0.000      0.000
  Name = 
  6 active torsions:
  status: ('A' for Active; 'I' for Inactive)
    1  A    between atoms: N_3  and  C_13
    2  A    between atoms: C_6  and  C_23
    3  A    between atoms: C_20  and  C_23
    4  A    between atoms: C_20  and  C_26
    5  A    between atoms: C_22  and  CA_27
    6  A    between atoms: N_24  and  C_26
                            x       y       z     vdW  Elec       q    Type
                         _______ _______ _______ _____ _____    ______ ____

>  <TORSDO>
F 6

$$$$
=
 OpenBabel11052410503D

 28 31  0  0  1  0  0  0  0  0999 V2000
  161.0750  208.2320  153.8560 C   0  0  1  0  0  3  0  0  0  0  0  0
  161.9300  208.7860  149.2120 N   0  0  0  0  0  0  0  0  0  0  0  0
  162.3090  210.6260  151.1020 S   0  0  0  0  0  0  0  0  0  0  0  0
  161.4450  208.4240  151.5880 C   0  0  0  0  0  0  0  0  0  0  0  0
  161.8580  209.1320  150.4660 C   0  0  0  0  0  0  0  0  0  0  0  0
  160.9620  207.1650  151.8330 O   0  0  0  0  0  0  0  0  0  0  0  0
  161.5290  209.1060  152.7470 C   0  0  0  0  0  0  0  0  0  0  0  0
  159.8590  208.8420  154.5250 C   0  0  0  0  0  1  0  0  0  0  0  0
  161.9840  210.3440  152.6990 O   0  0  0  0  0  0  0  0  0  0  0  0
  160.6910  206.9630  153.1840 N   0  0  0  0  0  0  0  0  0  0  0  0
  161.1560  203.6880  147.3550 N   0  0  0  0  0  0  0  0  0  0  0  0
  161.1110  204.9500  147.6730 C   0  0  0  0  0  0  0  0  0  0  0  0
  160.5900  205.3590  148.9390 N   0  0  0  0  0  0  0  0  0  0  0  0
  162.7880  204.1540  145.5720 C   0  0  0  0  0  3  0  0  0  0  0  0
  161.5810  207.5370  148.5950 C   0  0  0  0  0  0  0  0  0  0  0  0
  161.9990  207.2260  147.4010 N   0  0  0  0  0  0  0  0  0  0  0  0
  162.7510  205.4600  145.8820 C   0  0  0  0  0  3  0  0  0  0  0  0
  160.7860  206.5680  149.3760 C   0  0  0  0  0  3  0  0  0  0  0  0
  161.6960  203.2280  146.0670 C   0  0  2  0  0  3  0  0  0  0  0  0
  161.6100  205.9970  146.7050 C   0  0  1  0  0  3  0  0  0  0  0  0
  160.2580  204.0820  144.3450 O   0  0  0  0  0  0  0  0  0  0  0  0
  159.9660  201.8750  144.8820 O   0  0  0  0  0  1  0  0  0  0  0  0
  160.6020  203.0980  145.0520 C   0  0  0  0  0  0  0  0  0  0  0  0
  161.6000  205.9280  153.6620 C   0  0  0  0  0  2  0  0  0  0  0  0
  161.9760  204.9830  152.5300 C   0  0  0  0  0  2  0  0  0  0  0  0
  160.9050  203.9260  152.3430 C   0  0  0  0  0  2  0  0  0  0  0  0
  160.6350  202.3110  150.5560 N   0  0  0  0  0  1  0  0  0  0  0  0
  161.5040  202.7240  151.6450 C   0  0  0  0  0  2  0  0  0  0  0  0
  1  8  1  6  0  0  0
  2  5  2  0  0  0  0
  3  9  1  0  0  0  0
  4  6  1  0  0  0  0
  4  7  2  0  0  0  0
  5  3  1  0  0  0  0
  5  4  1  0  0  0  0
  6 10  1  0  0  0  0
  7  1  1  0  0  0  0
  9  7  1  0  0  0  0
 10 24  1  0  0  0  0
 10  1  1  0  0  0  0
 11 12  2  0  0  0  0
 12 13  1  0  0  0  0
 13 18  2  0  0  0  0
 14 17  2  0  0  0  0
 14 19  1  0  0  0  0
 15  2  1  0  0  0  0
 15 18  1  0  0  0  0
 16 15  2  0  0  0  0
 19 23  1  6  0  0  0
 19 11  1  0  0  0  0
 20 17  1  1  0  0  0
 20 16  1  0  0  0  0
 20 12  1  0  0  0  0
 21 23  2  0  0  0  0
 22 23  1  0  0  0  0
 25 24  1  0  0  0  0
 26 25  1  0  0  0  0
 27 28  1  0  0  0  0
 28 26  1  0  0  0  0
M  END
>  <MODEL>
2

>  <REMARK>
 VINA RESULT:      -6.3      4.618      6.825
  Name = 
  6 active torsions:
  status: ('A' for Active; 'I' for Inactive)
    1  A    between atoms: N_3  and  C_13
    2  A    between atoms: C_6  and  C_23
    3  A    between atoms: C_20  and  C_23
    4  A    between atoms: C_20  and  C_26
    5  A    between atoms: C_22  and  CA_27
    6  A    between atoms: N_24  and  C_26
                            x       y       z     vdW  Elec       q    Type
                         _______ _______ _______ _____ _____    ______ ____

>  <TORSDO>
F 6

$$$$
=
 OpenBabel11052410503D

 28 31  0  0  1  0  0  0  0  0999 V2000
  161.0770  209.4430  152.3820 C   0  0  1  0  0  3  0  0  0  0  0  0
  162.2300  208.0060  147.9990 N   0  0  0  0  0  0  0  0  0  0  0  0
  162.3840  210.5020  148.9180 S   0  0  0  0  0  0  0  0  0  0  0  0
  161.5960  208.6670  150.2740 C   0  0  0  0  0  0  0  0  0  0  0  0
  162.0530  208.8520  148.9750 C   0  0  0  0  0  0  0  0  0  0  0  0
  161.1590  207.6040  151.0210 O   0  0  0  0  0  0  0  0  0  0  0  0
  161.5650  209.7850  151.0250 C   0  0  0  0  0  0  0  0  0  0  0  0
  159.7880  210.1890  152.6680 C   0  0  0  0  0  1  0  0  0  0  0  0
  161.9610  210.9120  150.4630 O   0  0  0  0  0  0  0  0  0  0  0  0
  160.8030  207.9840  152.3130 N   0  0  0  0  0  0  0  0  0  0  0  0
  160.5530  202.8020  147.6220 N   0  0  0  0  0  0  0  0  0  0  0  0
  161.1930  203.9310  147.7280 C   0  0  0  0  0  0  0  0  0  0  0  0
  161.5400  204.6790  146.5610 N   0  0  0  0  0  0  0  0  0  0  0  0
  159.8950  202.9050  149.9910 C   0  0  0  0  0  3  0  0  0  0  0  0
  161.9860  206.5910  147.9720 C   0  0  0  0  0  0  0  0  0  0  0  0
  161.7580  205.9160  149.0620 N   0  0  0  0  0  0  0  0  0  0  0  0
  160.5540  204.0670  150.1220 C   0  0  0  0  0  3  0  0  0  0  0  0
  161.9280  205.9160  146.6590 C   0  0  0  0  0  3  0  0  0  0  0  0
  160.1680  202.0100  148.8000 C   0  0  2  0  0  3  0  0  0  0  0  0
  161.5760  204.4640  149.0890 C   0  0  1  0  0  3  0  0  0  0  0  0
  161.6340  200.8450  150.3020 O   0  0  0  0  0  1  0  0  0  0  0  0
  161.7430  200.2030  148.1060 O   0  0  0  0  0  0  0  0  0  0  0  0
  161.2220  200.9950  149.1210 C   0  0  0  0  0  0  0  0  0  0  0  0
  161.7260  207.3260  153.2310 C   0  0  0  0  0  2  0  0  0  0  0  0
  160.9620  206.4930  154.2490 C   0  0  0  0  0  2  0  0  0  0  0  0
  160.3460  207.3830  155.3110 C   0  0  0  0  0  2  0  0  0  0  0  0
  161.3320  209.4750  156.0360 N   0  0  0  0  0  1  0  0  0  0  0  0
  161.4470  208.0300  156.1240 C   0  0  0  0  0  2  0  0  0  0  0  0
  1  8  1  6  0  0  0
  2  5  2  0  0  0  0
  3  5  1  0  0  0  0
  3  9  1  0  0  0  0
  4  6  1  0  0  0  0
  4  7  2  0  0  0  0
  5  4  1  0  0  0  0
  6 10  1  0  0  0  0
  7  1  1  0  0  0  0
  9  7  1  0  0  0  0
 10  1  1  0  0  0  0
 10 24  1  0  0  0  0
 11 12  2  0  0  0  0
 11 19  1  0  0  0  0
 12 20  1  0  0  0  0
 13 18  2  0  0  0  0
 13 12  1  0  0  0  0
 14 17  2  0  0  0  0
 15  2  1  0  0  0  0
 15 16  2  0  0  0  0
 16 20  1  0  0  0  0
 18 15  1  0  0  0  0
 19 23  1  1  0  0  0
 19 14  1  0  0  0  0
 20 17  1  1  0  0  0
 22 23  2  0  0  0  0
 23 21  1  0  0  0  0
 24 25  1  0  0  0  0
 25 26  1  0  0  0  0
 26 28  1  0  0  0  0
 27 28  1  0  0  0  0
M  END
>  <MODEL>
3

>  <REMARK>
 VINA RESULT:      -6.1      4.395      8.481
  Name = 
  6 active torsions:
  status: ('A' for Active; 'I' for Inactive)
    1  A    between atoms: N_3  and  C_13
    2  A    between atoms: C_6  and  C_23
    3  A    between atoms: C_20  and  C_23
    4  A    between atoms: C_20  and  C_26
    5  A    between atoms: C_22  and  CA_27
    6  A    between atoms: N_24  and  C_26
                            x       y       z     vdW  Elec       q    Type
                         _______ _______ _______ _____ _____    ______ ____

>  <TORSDO>
F 6

$$$$
=
 OpenBabel11052410503D

 28 31  0  0  1  0  0  0  0  0999 V2000
  161.3600  205.4510  149.7960 C   0  0  1  0  0  3  0  0  0  0  0  0
  160.9040  208.5680  153.3560 N   0  0  0  0  0  0  0  0  0  0  0  0
  161.6970  206.0350  153.5880 S   0  0  0  0  0  0  0  0  0  0  0  0
  161.0950  207.0180  151.4670 C   0  0  0  0  0  0  0  0  0  0  0  0
  161.1580  207.4200  152.7950 C   0  0  0  0  0  0  0  0  0  0  0  0
  160.7520  207.6060  150.2770 O   0  0  0  0  0  0  0  0  0  0  0  0
  161.4590  205.7390  151.2470 C   0  0  0  0  0  0  0  0  0  0  0  0
  160.3440  204.3500  149.5590 C   0  0  0  0  0  1  0  0  0  0  0  0
  161.8280  205.0190  152.2890 O   0  0  0  0  0  0  0  0  0  0  0  0
  160.8650  206.7220  149.2050 N   0  0  0  0  0  0  0  0  0  0  0  0
  159.7540  213.6070  151.5320 N   0  0  0  0  0  0  0  0  0  0  0  0
  159.8910  212.3310  151.7530 C   0  0  0  0  0  0  0  0  0  0  0  0
  161.0700  211.6450  151.3270 N   0  0  0  0  0  0  0  0  0  0  0  0
  157.9780  213.7510  153.2300 C   0  0  0  0  0  3  0  0  0  0  0  0
  160.4570  209.7930  152.7540 C   0  0  0  0  0  0  0  0  0  0  0  0
  159.3320  210.3520  153.1000 N   0  0  0  0  0  0  0  0  0  0  0  0
  158.1010  212.4360  153.4670 C   0  0  0  0  0  3  0  0  0  0  0  0
  161.3400  210.4540  151.7720 C   0  0  0  0  0  3  0  0  0  0  0  0
  158.5610  214.3500  151.9660 C   0  0  2  0  0  3  0  0  0  0  0  0
  158.8030  211.5600  152.4630 C   0  0  1  0  0  3  0  0  0  0  0  0
  157.8900  214.3700  149.6620 O   0  0  0  0  0  0  0  0  0  0  0  0
  156.1900  214.4520  151.1940 O   0  0  0  0  0  1  0  0  0  0  0  0
  157.5400  214.3940  150.8710 C   0  0  0  0  0  0  0  0  0  0  0  0
  161.9150  207.2300  148.3290 C   0  0  0  0  0  2  0  0  0  0  0  0
  162.0820  206.3260  147.1170 C   0  0  0  0  0  2  0  0  0  0  0  0
  160.7980  206.2770  146.3100 C   0  0  0  0  0  2  0  0  0  0  0  0
  161.3520  204.1170  145.3610 N   0  0  0  0  0  1  0  0  0  0  0  0
  161.0370  205.4970  145.0350 C   0  0  0  0  0  2  0  0  0  0  0  0
  1  8  1  1  0  0  0
  1  7  1  0  0  0  0
  4  5  1  0  0  0  0
  5  2  2  0  0  0  0
  5  3  1  0  0  0  0
  6  4  1  0  0  0  0
  7  4  2  0  0  0  0
  7  9  1  0  0  0  0
  9  3  1  0  0  0  0
 10  1  1  0  0  0  0
 10  6  1  0  0  0  0
 11 12  2  0  0  0  0
 11 19  1  0  0  0  0
 12 20  1  0  0  0  0
 13 12  1  0  0  0  0
 13 18  2  0  0  0  0
 14 17  2  0  0  0  0
 15 16  2  0  0  0  0
 15  2  1  0  0  0  0
 18 15  1  0  0  0  0
 19 23  1  6  0  0  0
 19 14  1  0  0  0  0
 20 16  1  0  0  0  0
 20 17  1  1  0  0  0
 21 23  2  0  0  0  0
 23 22  1  0  0  0  0
 24 10  1  0  0  0  0
 25 24  1  0  0  0  0
 26 25  1  0  0  0  0
 28 27  1  0  0  0  0
 28 26  1  0  0  0  0
M  END
>  <MODEL>
4

>  <REMARK>
 VINA RESULT:      -5.9      4.317      5.101
  Name = 
  6 active torsions:
  status: ('A' for Active; 'I' for Inactive)
    1  A    between atoms: N_3  and  C_13
    2  A    between atoms: C_6  and  C_23
    3  A    between atoms: C_20  and  C_23
    4  A    between atoms: C_20  and  C_26
    5  A    between atoms: C_22  and  CA_27
    6  A    between atoms: N_24  and  C_26
                            x       y       z     vdW  Elec       q    Type
                         _______ _______ _______ _____ _____    ______ ____

>  <TORSDO>
F 6

$$$$
=
 OpenBabel11052410503D

 28 31  0  0  1  0  0  0  0  0999 V2000
  161.2070  202.6780  147.9010 C   0  0  1  0  0  3  0  0  0  0  0  0
  161.2550  204.2880  152.3740 N   0  0  0  0  0  0  0  0  0  0  0  0
  161.2320  201.7290  151.6340 S   0  0  0  0  0  0  0  0  0  0  0  0
  161.2120  203.5410  150.0390 C   0  0  0  0  0  0  0  0  0  0  0  0
  161.2260  203.4000  151.4210 C   0  0  0  0  0  0  0  0  0  0  0  0
  161.2060  204.5920  149.1590 O   0  0  0  0  0  0  0  0  0  0  0  0
  161.2070  202.3810  149.3540 C   0  0  0  0  0  0  0  0  0  0  0  0
  159.9490  202.1210  147.2630 C   0  0  0  0  0  1  0  0  0  0  0  0
  161.2170  201.2590  150.0480 O   0  0  0  0  0  0  0  0  0  0  0  0
  161.1850  204.1630  147.8330 N   0  0  0  0  0  0  0  0  0  0  0  0
  162.0820  209.7040  152.2290 N   0  0  0  0  0  0  0  0  0  0  0  0
  161.6660  208.4750  152.1270 C   0  0  0  0  0  0  0  0  0  0  0  0
  162.1640  207.6260  151.0900 N   0  0  0  0  0  0  0  0  0  0  0  0
  161.2650  209.8300  154.5480 C   0  0  0  0  0  3  0  0  0  0  0  0
  161.2660  205.7210  152.2780 C   0  0  0  0  0  0  0  0  0  0  0  0
  160.7260  206.4710  153.1970 N   0  0  0  0  0  0  0  0  0  0  0  0
  160.8250  208.5650  154.4600 C   0  0  0  0  0  3  0  0  0  0  0  0
  161.9710  206.3410  151.1370 C   0  0  0  0  0  3  0  0  0  0  0  0
  161.6020  210.6030  153.2900 C   0  0  2  0  0  3  0  0  0  0  0  0
  160.6510  207.9300  153.1050 C   0  0  1  0  0  3  0  0  0  0  0  0
  160.3880  211.8600  151.6440 O   0  0  0  0  0  0  0  0  0  0  0  0
  159.3550  211.6190  153.6740 O   0  0  0  0  0  1  0  0  0  0  0  0
  160.4240  211.3980  152.8150 C   0  0  0  0  0  0  0  0  0  0  0  0
  162.4370  204.5870  147.2170 C   0  0  0  0  0  2  0  0  0  0  0  0
  162.2920  205.9770  146.6160 C   0  0  0  0  0  2  0  0  0  0  0  0
  160.9330  206.1350  145.9620 C   0  0  0  0  0  2  0  0  0  0  0  0
  160.4510  204.3290  144.4210 N   0  0  0  0  0  1  0  0  0  0  0  0
  161.0100  205.6650  144.5260 C   0  0  0  0  0  2  0  0  0  0  0  0
  1  8  1  6  0  0  0
  1  7  1  0  0  0  0
  4  5  1  0  0  0  0
  5  3  1  0  0  0  0
  5  2  2  0  0  0  0
  6  4  1  0  0  0  0
  7  4  2  0  0  0  0
  7  9  1  0  0  0  0
  9  3  1  0  0  0  0
 10  1  1  0  0  0  0
 10  6  1  0  0  0  0
 11 19  1  0  0  0  0
 12 11  2  0  0  0  0
 12 20  1  0  0  0  0
 13 18  2  0  0  0  0
 13 12  1  0  0  0  0
 15  2  1  0  0  0  0
 15 16  2  0  0  0  0
 17 14  2  0  0  0  0
 18 15  1  0  0  0  0
 19 23  1  6  0  0  0
 19 14  1  0  0  0  0
 20 16  1  0  0  0  0
 20 17  1  1  0  0  0
 21 23  2  0  0  0  0
 23 22  1  0  0  0  0
 24 10  1  0  0  0  0
 25 24  1  0  0  0  0
 26 25  1  0  0  0  0
 27 28  1  0  0  0  0
 28 26  1  0  0  0  0
M  END
>  <MODEL>
5

>  <REMARK>
 VINA RESULT:      -5.9      5.406      6.956
  Name = 
  6 active torsions:
  status: ('A' for Active; 'I' for Inactive)
    1  A    between atoms: N_3  and  C_13
    2  A    between atoms: C_6  and  C_23
    3  A    between atoms: C_20  and  C_23
    4  A    between atoms: C_20  and  C_26
    5  A    between atoms: C_22  and  CA_27
    6  A    between atoms: N_24  and  C_26
                            x       y       z     vdW  Elec       q    Type
                         _______ _______ _______ _____ _____    ______ ____

>  <TORSDO>
F 6

$$$$
=
 OpenBabel11052410503D

 28 31  0  0  1  0  0  0  0  0999 V2000
  160.5080  207.2550  155.2840 C   0  0  1  0  0  3  0  0  0  0  0  0
  162.1630  210.1660  151.9090 N   0  0  0  0  0  0  0  0  0  0  0  0
  161.9140  210.7530  154.4960 S   0  0  0  0  0  0  0  0  0  0  0  0
  161.2810  208.6090  153.5850 C   0  0  0  0  0  0  0  0  0  0  0  0
  161.8030  209.8050  153.1080 C   0  0  0  0  0  0  0  0  0  0  0  0
  160.9360  207.4000  153.0390 O   0  0  0  0  0  0  0  0  0  0  0  0
  161.0450  208.5860  154.9110 C   0  0  0  0  0  0  0  0  0  0  0  0
  159.1130  207.4060  155.8600 C   0  0  0  0  0  1  0  0  0  0  0  0
  161.3270  209.6740  155.6030 O   0  0  0  0  0  0  0  0  0  0  0  0
  160.4380  206.5180  153.9950 N   0  0  0  0  0  0  0  0  0  0  0  0
  161.2190  207.6160  147.1500 N   0  0  0  0  0  0  0  0  0  0  0  0
  161.6960  208.1600  148.2330 C   0  0  0  0  0  0  0  0  0  0  0  0
  161.9850  209.5590  148.2740 N   0  0  0  0  0  0  0  0  0  0  0  0
  160.4590  205.6510  148.4230 C   0  0  0  0  0  3  0  0  0  0  0  0
  162.1140  209.4180  150.6840 C   0  0  0  0  0  0  0  0  0  0  0  0
  161.9360  208.1280  150.6790 N   0  0  0  0  0  0  0  0  0  0  0  0
  160.9500  206.1930  149.5490 C   0  0  0  0  0  3  0  0  0  0  0  0
  162.1990  210.1570  149.4080 C   0  0  0  0  0  3  0  0  0  0  0  0
  160.8970  206.1830  147.0740 C   0  0  2  0  0  3  0  0  0  0  0  0
  161.9490  207.3160  149.4610 C   0  0  1  0  0  3  0  0  0  0  0  0
  162.4650  204.3660  147.1290 O   0  0  0  0  0  1  0  0  0  0  0  0
  162.7060  205.8370  145.3890 O   0  0  0  0  0  0  0  0  0  0  0  0
  162.0650  205.4080  146.5440 C   0  0  0  0  0  0  0  0  0  0  0  0
  161.3700  205.3990  154.0850 C   0  0  0  0  0  2  0  0  0  0  0  0
  161.6150  204.7980  152.7090 C   0  0  0  0  0  2  0  0  0  0  0  0
  160.5910  203.7200  152.4100 C   0  0  0  0  0  2  0  0  0  0  0  0
  160.7610  202.7160  150.2110 N   0  0  0  0  0  1  0  0  0  0  0  0
  161.2370  202.6310  151.5810 C   0  0  0  0  0  2  0  0  0  0  0  0
  1  8  1  6  0  0  0
  2  5  2  0  0  0  0
  3  9  1  0  0  0  0
  4  7  2  0  0  0  0
  5  4  1  0  0  0  0
  5  3  1  0  0  0  0
  6  4  1  0  0  0  0
  6 10  1  0  0  0  0
  7  1  1  0  0  0  0
  7  9  1  0  0  0  0
 10 24  1  0  0  0  0
 10  1  1  0  0  0  0
 11 12  2  0  0  0  0
 12 13  1  0  0  0  0
 12 20  1  0  0  0  0
 13 18  2  0  0  0  0
 14 17  2  0  0  0  0
 15  2  1  0  0  0  0
 16 15  2  0  0  0  0
 18 15  1  0  0  0  0
 19 23  1  1  0  0  0
 19 11  1  0  0  0  0
 19 14  1  0  0  0  0
 20 17  1  1  0  0  0
 20 16  1  0  0  0  0
 22 23  2  0  0  0  0
 23 21  1  0  0  0  0
 25 24  1  0  0  0  0
 26 25  1  0  0  0  0
 27 28  1  0  0  0  0
 28 26  1  0  0  0  0
M  END
>  <MODEL>
6

>  <REMARK>
 VINA RESULT:      -5.8      3.976      6.070
  Name = 
  6 active torsions:
  status: ('A' for Active; 'I' for Inactive)
    1  A    between atoms: N_3  and  C_13
    2  A    between atoms: C_6  and  C_23
    3  A    between atoms: C_20  and  C_23
    4  A    between atoms: C_20  and  C_26
    5  A    between atoms: C_22  and  CA_27
    6  A    between atoms: N_24  and  C_26
                            x       y       z     vdW  Elec       q    Type
                         _______ _______ _______ _____ _____    ______ ____

>  <TORSDO>
F 6

$$$$
=
 OpenBabel11052410503D

 28 31  0  0  1  0  0  0  0  0999 V2000
  161.4380  206.5040  148.9920 C   0  0  1  0  0  3  0  0  0  0  0  0
  161.0940  205.4310  153.6110 N   0  0  0  0  0  0  0  0  0  0  0  0
  161.5660  203.7060  151.6360 S   0  0  0  0  0  0  0  0  0  0  0  0
  161.2380  206.0660  151.2470 C   0  0  0  0  0  0  0  0  0  0  0  0
  161.2510  205.2050  152.3370 C   0  0  0  0  0  0  0  0  0  0  0  0
  161.0540  207.4110  151.0590 O   0  0  0  0  0  0  0  0  0  0  0  0
  161.4650  205.4740  150.0580 C   0  0  0  0  0  0  0  0  0  0  0  0
  160.3200  206.2020  148.0130 C   0  0  0  0  0  1  0  0  0  0  0  0
  161.6710  204.1710  150.0520 O   0  0  0  0  0  0  0  0  0  0  0  0
  161.1400  207.7680  149.7150 N   0  0  0  0  0  0  0  0  0  0  0  0
  159.3450  210.0780  155.9320 N   0  0  0  0  0  0  0  0  0  0  0  0
  159.9710  209.0070  155.5370 C   0  0  0  0  0  0  0  0  0  0  0  0
  159.6650  207.7350  156.1130 N   0  0  0  0  0  0  0  0  0  0  0  0
  160.0460  211.2840  153.9040 C   0  0  0  0  0  3  0  0  0  0  0  0
  160.8380  206.6720  154.2860 C   0  0  0  0  0  0  0  0  0  0  0  0
  161.2060  207.8140  153.7780 N   0  0  0  0  0  0  0  0  0  0  0  0
  160.7020  210.1910  153.4830 C   0  0  0  0  0  3  0  0  0  0  0  0
  160.0760  206.6370  155.5510 C   0  0  0  0  0  3  0  0  0  0  0  0
  159.6230  211.4010  155.3540 C   0  0  2  0  0  3  0  0  0  0  0  0
  161.0300  209.0960  154.4630 C   0  0  1  0  0  3  0  0  0  0  0  0
  161.7600  211.5690  156.4340 O   0  0  0  0  0  0  0  0  0  0  0  0
  160.4130  213.4140  156.5990 O   0  0  0  0  0  1  0  0  0  0  0  0
  160.6620  212.1210  156.1590 C   0  0  0  0  0  0  0  0  0  0  0  0
  162.3020  208.6360  149.5670 C   0  0  0  0  0  2  0  0  0  0  0  0
  161.9880  209.7950  148.6320 C   0  0  0  0  0  2  0  0  0  0  0  0
  161.9560  211.1030  149.3990 C   0  0  0  0  0  2  0  0  0  0  0  0
  163.3060  212.4360  147.8910 N   0  0  0  0  0  1  0  0  0  0  0  0
  161.9650  212.2580  148.4200 C   0  0  0  0  0  2  0  0  0  0  0  0
  1  8  1  6  0  0  0
  1 10  1  0  0  0  0
  1  7  1  0  0  0  0
  2 15  1  0  0  0  0
  3  5  1  0  0  0  0
  4  5  1  0  0  0  0
  5  2  2  0  0  0  0
  6  4  1  0  0  0  0
  7  4  2  0  0  0  0
  9  7  1  0  0  0  0
  9  3  1  0  0  0  0
 10  6  1  0  0  0  0
 12 11  2  0  0  0  0
 12 13  1  0  0  0  0
 14 19  1  0  0  0  0
 15 18  1  0  0  0  0
 16 15  2  0  0  0  0
 16 20  1  0  0  0  0
 17 14  2  0  0  0  0
 18 13  2  0  0  0  0
 19 11  1  0  0  0  0
 19 23  1  1  0  0  0
 20 17  1  6  0  0  0
 20 12  1  0  0  0  0
 23 21  2  0  0  0  0
 23 22  1  0  0  0  0
 24 10  1  0  0  0  0
 25 26  1  0  0  0  0
 25 24  1  0  0  0  0
 27 28  1  0  0  0  0
 28 26  1  0  0  0  0
M  END
>  <MODEL>
7

>  <REMARK>
 VINA RESULT:      -5.6      4.344      8.185
  Name = 
  6 active torsions:
  status: ('A' for Active; 'I' for Inactive)
    1  A    between atoms: N_3  and  C_13
    2  A    between atoms: C_6  and  C_23
    3  A    between atoms: C_20  and  C_23
    4  A    between atoms: C_20  and  C_26
    5  A    between atoms: C_22  and  CA_27
    6  A    between atoms: N_24  and  C_26
                            x       y       z     vdW  Elec       q    Type
                         _______ _______ _______ _____ _____    ______ ____

>  <TORSDO>
F 6

$$$$
=
 OpenBabel11052410503D

 28 31  0  0  1  0  0  0  0  0999 V2000
  159.6730  211.1140  155.6290 C   0  0  1  0  0  3  0  0  0  0  0  0
  161.2150  206.7660  154.4810 N   0  0  0  0  0  0  0  0  0  0  0  0
  160.7980  207.6760  156.9510 S   0  0  0  0  0  0  0  0  0  0  0  0
  160.4340  209.0340  154.9880 C   0  0  0  0  0  0  0  0  0  0  0  0
  160.8620  207.7430  155.2680 C   0  0  0  0  0  0  0  0  0  0  0  0
  160.2310  209.7780  153.8550 O   0  0  0  0  0  0  0  0  0  0  0  0
  160.1260  209.7740  156.0710 C   0  0  0  0  0  0  0  0  0  0  0  0
  160.6070  212.1780  156.1740 C   0  0  0  0  0  1  0  0  0  0  0  0
  160.2580  209.2090  157.2570 O   0  0  0  0  0  0  0  0  0  0  0  0
  159.7850  211.0650  154.1470 N   0  0  0  0  0  0  0  0  0  0  0  0
  160.6550  206.6710  149.0300 N   0  0  0  0  0  0  0  0  0  0  0  0
  161.0390  206.7570  150.2710 C   0  0  0  0  0  0  0  0  0  0  0  0
  160.8330  207.9620  151.0120 N   0  0  0  0  0  0  0  0  0  0  0  0
  160.7710  204.2140  149.1210 C   0  0  0  0  0  3  0  0  0  0  0  0
  161.2830  206.7370  153.0470 C   0  0  0  0  0  0  0  0  0  0  0  0
  161.5590  205.6410  152.3990 N   0  0  0  0  0  0  0  0  0  0  0  0
  161.1740  204.2820  150.4000 C   0  0  0  0  0  3  0  0  0  0  0  0
  160.9590  207.9730  152.3060 C   0  0  0  0  0  3  0  0  0  0  0  0
  160.8390  205.4440  148.2400 C   0  0  2  0  0  3  0  0  0  0  0  0
  161.7080  205.5810  150.9440 C   0  0  1  0  0  3  0  0  0  0  0  0
  162.6720  206.5950  147.2010 O   0  0  0  0  0  1  0  0  0  0  0  0
  162.7440  204.3080  147.0970 O   0  0  0  0  0  0  0  0  0  0  0  0
  162.1310  205.4930  147.4830 C   0  0  0  0  0  0  0  0  0  0  0  0
  158.4360  211.1930  153.6070 C   0  0  0  0  0  2  0  0  0  0  0  0
  158.2540  212.5500  152.9430 C   0  0  0  0  0  2  0  0  0  0  0  0
  159.5540  213.0130  152.3140 C   0  0  0  0  0  2  0  0  0  0  0  0
  160.3470  213.1010  150.0270 N   0  0  0  0  0  1  0  0  0  0  0  0
  159.2810  213.5240  150.9160 C   0  0  0  0  0  2  0  0  0  0  0  0
  1  7  1  0  0  0  0
  1  8  1  1  0  0  0
  2  5  2  0  0  0  0
  3  9  1  0  0  0  0
  4  5  1  0  0  0  0
  4  7  2  0  0  0  0
  5  3  1  0  0  0  0
  6 10  1  0  0  0  0
  6  4  1  0  0  0  0
  7  9  1  0  0  0  0
 10  1  1  0  0  0  0
 11 12  2  0  0  0  0
 12 20  1  0  0  0  0
 12 13  1  0  0  0  0
 13 18  2  0  0  0  0
 14 17  2  0  0  0  0
 15  2  1  0  0  0  0
 16 15  2  0  0  0  0
 18 15  1  0  0  0  0
 19 23  1  1  0  0  0
 19 11  1  0  0  0  0
 19 14  1  0  0  0  0
 20 17  1  6  0  0  0
 20 16  1  0  0  0  0
 21 23  1  0  0  0  0
 22 23  2  0  0  0  0
 24 10  1  0  0  0  0
 25 24  1  0  0  0  0
 26 25  1  0  0  0  0
 27 28  1  0  0  0  0
 28 26  1  0  0  0  0
M  END
>  <MODEL>
8

>  <REMARK>
 VINA RESULT:      -5.5      4.395      8.093
  Name = 
  6 active torsions:
  status: ('A' for Active; 'I' for Inactive)
    1  A    between atoms: N_3  and  C_13
    2  A    between atoms: C_6  and  C_23
    3  A    between atoms: C_20  and  C_23
    4  A    between atoms: C_20  and  C_26
    5  A    between atoms: C_22  and  CA_27
    6  A    between atoms: N_24  and  C_26
                            x       y       z     vdW  Elec       q    Type
                         _______ _______ _______ _____ _____    ______ ____

>  <TORSDO>
F 6

$$$$
=
 OpenBabel11052410503D

 28 31  0  0  1  0  0  0  0  0999 V2000
  161.4430  208.2900  152.0250 C   0  0  1  0  0  3  0  0  0  0  0  0
  162.2100  207.6050  147.3840 N   0  0  0  0  0  0  0  0  0  0  0  0
  162.3650  209.9350  148.6670 S   0  0  0  0  0  0  0  0  0  0  0  0
  161.7800  207.8750  149.7820 C   0  0  0  0  0  0  0  0  0  0  0  0
  162.0990  208.2800  148.4930 C   0  0  0  0  0  0  0  0  0  0  0  0
  161.4570  206.6890  150.3880 O   0  0  0  0  0  0  0  0  0  0  0  0
  161.7830  208.8610  150.7000 C   0  0  0  0  0  0  0  0  0  0  0  0
  160.1630  208.9170  152.5430 C   0  0  0  0  0  1  0  0  0  0  0  0
  162.0810  210.0800  150.2900 O   0  0  0  0  0  0  0  0  0  0  0  0
  161.2160  206.8470  151.7520 N   0  0  0  0  0  0  0  0  0  0  0  0
  160.7220  202.4540  146.2450 N   0  0  0  0  0  0  0  0  0  0  0  0
  161.3200  203.5760  146.5250 C   0  0  0  0  0  0  0  0  0  0  0  0
  161.6740  204.4890  145.4830 N   0  0  0  0  0  0  0  0  0  0  0  0
  159.9950  202.2110  148.5840 C   0  0  0  0  0  3  0  0  0  0  0  0
  162.0160  206.2000  147.1550 C   0  0  0  0  0  0  0  0  0  0  0  0
  161.7800  205.3750  148.1350 N   0  0  0  0  0  0  0  0  0  0  0  0
  160.6100  203.3630  148.8930 C   0  0  0  0  0  3  0  0  0  0  0  0
  162.0160  205.7110  145.7610 C   0  0  0  0  0  3  0  0  0  0  0  0
  160.3310  201.4970  147.2900 C   0  0  2  0  0  3  0  0  0  0  0  0
  161.6460  203.9290  147.9570 C   0  0  1  0  0  3  0  0  0  0  0  0
  162.0510  200.4360  148.5870 O   0  0  0  0  0  1  0  0  0  0  0  0
  161.6990  199.5660  146.4980 O   0  0  0  0  0  0  0  0  0  0  0  0
  161.4100  200.4790  147.5030 C   0  0  0  0  0  0  0  0  0  0  0  0
  162.2480  206.1030  152.4660 C   0  0  0  0  0  2  0  0  0  0  0  0
  162.2250  204.6360  152.0620 C   0  0  0  0  0  2  0  0  0  0  0  0
  160.9500  203.9720  152.5450 C   0  0  0  0  0  2  0  0  0  0  0  0
  162.2740  202.1090  151.7390 N   0  0  0  0  0  1  0  0  0  0  0  0
  160.9270  202.5320  152.0770 C   0  0  0  0  0  2  0  0  0  0  0  0
  1  8  1  6  0  0  0
  2  5  2  0  0  0  0
  3  9  1  0  0  0  0
  4  6  1  0  0  0  0
  4  7  2  0  0  0  0
  5  3  1  0  0  0  0
  5  4  1  0  0  0  0
  6 10  1  0  0  0  0
  7  1  1  0  0  0  0
  9  7  1  0  0  0  0
 10  1  1  0  0  0  0
 10 24  1  0  0  0  0
 11 12  2  0  0  0  0
 11 19  1  0  0  0  0
 12 20  1  0  0  0  0
 13 18  2  0  0  0  0
 13 12  1  0  0  0  0
 14 17  2  0  0  0  0
 15  2  1  0  0  0  0
 15 16  2  0  0  0  0
 18 15  1  0  0  0  0
 19 23  1  1  0  0  0
 19 14  1  0  0  0  0
 20 16  1  0  0  0  0
 20 17  1  1  0  0  0
 22 23  2  0  0  0  0
 23 21  1  0  0  0  0
 25 24  1  0  0  0  0
 25 26  1  0  0  0  0
 27 28  1  0  0  0  0
 28 26  1  0  0  0  0
M  END
>  <MODEL>
9

>  <REMARK>
 VINA RESULT:      -5.5      4.534      7.990
  Name = 
  6 active torsions:
  status: ('A' for Active; 'I' for Inactive)
    1  A    between atoms: N_3  and  C_13
    2  A    between atoms: C_6  and  C_23
    3  A    between atoms: C_20  and  C_23
    4  A    between atoms: C_20  and  C_26
    5  A    between atoms: C_22  and  CA_27
    6  A    between atoms: N_24  and  C_26
                            x       y       z     vdW  Elec       q    Type
                         _______ _______ _______ _____ _____    ______ ____

>  <TORSDO>
F 6

$$$$
