=
 OpenBabel11042421163D

 53 54  0  0  1  0  0  0  0  0999 V2000
  161.9740  203.9620  152.0980 N   0  0  0  0  0  0  0  0  0  0  0  0
  160.8460  204.5500  152.8380 C   0  0  1  0  0  3  0  0  0  0  0  0
  161.1800  205.9790  152.9190 C   0  0  0  0  0  0  0  0  0  0  0  0
  161.1670  207.2100  155.2180 C   0  0  0  0  0  3  0  0  0  0  0  0
  162.5000  204.9740  151.2670 N   0  0  0  0  0  2  0  0  0  0  0  0
  161.1730  206.5950  154.0700 C   0  0  0  0  0  0  0  0  0  0  0  0
  162.2460  206.2470  151.9360 C   0  0  1  0  0  3  0  0  0  0  0  0
  159.4930  204.4190  152.1320 C   0  0  0  0  0  1  0  0  0  0  0  0
  161.7590  207.2640  150.9200 C   0  0  0  0  0  2  0  0  0  0  0  0
  162.5480  207.1330  149.6230 C   0  0  0  0  0  2  0  0  0  0  0  0
  160.1160  206.2900  148.9820 Cl  0  0  0  0  0  0  0  0  0  0  0  0
  161.6710  206.9240  148.3850 C   0  0  1  0  0  0  0  0  0  0  0  0
  161.3630  208.5280  147.5360 S   0  0  0  0  0  0  0  0  0  0  0  0
  162.1800  209.5680  148.7900 C   0  0  0  0  0  2  0  0  0  0  0  0
  162.0060  211.0040  148.4460 C   0  0  0  0  0  0  0  0  0  0  0  0
  162.8300  211.8530  148.8790 O   0  0  0  0  0  0  0  0  0  0  0  0
  160.8860  211.4100  147.6580 N   0  0  0  0  0  2  0  0  0  0  0  0
  160.6890  212.7880  147.2260 C   0  0  0  0  0  2  0  0  0  0  0  0
  159.4340  212.9360  146.3670 C   0  0  1  0  0  3  0  0  0  0  0  0
  158.4040  213.5590  147.0790 O   0  0  0  0  0  1  0  0  0  0  0  0
  159.7200  213.6620  145.0530 C   0  0  2  0  0  3  0  0  0  0  0  0
  158.5650  213.7510  144.2730 O   0  0  0  0  0  1  0  0  0  0  0  0
  160.8100  212.9370  144.2820 C   0  0  0  0  0  2  0  0  0  0  0  0
  160.2370  211.9760  143.4480 O   0  0  0  0  0  0  0  0  0  0  0  0
  161.1340  211.8510  142.3870 C   0  0  0  0  0  2  0  0  0  0  0  0
  160.3950  211.4570  141.1190 C   0  0  0  0  0  2  0  0  0  0  0  0
  161.6250  209.6430  140.1580 O   0  0  0  0  0  1  0  0  0  0  0  0
  161.3650  211.0090  140.0370 C   0  0  0  0  0  2  0  0  0  0  0  0
  162.2700  205.8640  147.4470 C   0  0  0  0  0  2  0  0  0  0  0  0
  162.2550  206.2640  145.9780 C   0  0  0  0  0  2  0  0  0  0  0  0
  161.1520  205.5180  145.2610 C   0  0  0  0  0  2  0  0  0  0  0  0
  161.3260  205.6450  143.8840 O   0  0  0  0  0  1  0  0  0  0  0  0
  161.5910  202.8220  151.2640 C   0  0  0  0  0  2  0  0  0  0  0  0
  161.4720  203.2260  149.9040 O   0  0  0  0  0  0  0  0  0  0  0  0
  160.8130  201.9170  146.5140 C   0  0  0  0  0  0  0  0  0  0  0  0
  161.4450  200.0640  147.9410 C   0  0  0  0  0  3  0  0  0  0  0  0
  160.9550  202.7970  147.5910 C   0  0  0  0  0  3  0  0  0  0  0  0
  161.3390  202.3180  148.8490 C   0  0  0  0  0  0  0  0  0  0  0  0
  161.0570  200.5500  146.6890 C   0  0  0  0  0  3  0  0  0  0  0  0
  160.4040  202.4320  145.1820 C   0  0  0  0  0  1  0  0  0  0  0  0
  161.5860  200.9450  149.0180 C   0  0  0  0  0  3  0  0  0  0  0  0
  160.2360  208.3450  155.4470 C   0  0  0  0  0  2  0  0  0  0  0  0
  160.9400  209.6480  155.1250 C   0  0  0  0  0  2  0  0  0  0  0  0
  159.9600  210.8060  155.1870 C   0  0  0  0  0  2  0  0  0  0  0  0
  160.4630  211.8960  154.4720 O   0  0  0  0  0  0  0  0  0  0  0  0
  159.3970  212.3300  153.6760 C   0  0  1  0  0  3  0  0  0  0  0  0
  159.5830  211.8760  152.2290 C   0  0  0  0  0  2  0  0  0  0  0  0
  158.0350  213.1030  150.6950 O   0  0  0  0  0  0  0  0  0  0  0  0
  160.2290  213.7430  150.8880 O   0  0  0  0  0  1  0  0  0  0  0  0
  159.3050  212.9660  151.2420 C   0  0  0  0  0  0  0  0  0  0  0  0
  158.0700  211.8320  154.2400 C   0  0  0  0  0  2  0  0  0  0  0  0
  156.9790  212.8770  154.0810 C   0  0  0  0  0  2  0  0  0  0  0  0
  155.7840  212.4040  154.6230 O   0  0  0  0  0  1  0  0  0  0  0  0
  1  2  1  0  0  0  0
  2  8  1  6  0  0  0
  2  3  1  0  0  0  0
  3  6  2  0  0  0  0
  4 42  1  0  0  0  0
  5  7  1  0  0  0  0
  5  1  1  0  0  0  0
  6  4  2  0  0  0  0
  7  9  1  6  0  0  0
  7  3  1  0  0  0  0
 10  9  1  0  0  0  0
 12 11  1  1  0  0  0
 12 10  1  0  0  0  0
 13 12  1  0  0  0  0
 13 14  1  0  0  0  0
 15 14  1  0  0  0  0
 15 16  2  0  0  0  0
 17 15  1  0  0  0  0
 18 17  1  0  0  0  0
 19 20  1  1  0  0  0
 19 18  1  0  0  0  0
 21 22  1  6  0  0  0
 21 19  1  0  0  0  0
 23 21  1  0  0  0  0
 24 23  1  0  0  0  0
 25 24  1  0  0  0  0
 26 25  1  0  0  0  0
 28 27  1  0  0  0  0
 28 26  1  0  0  0  0
 29 12  1  0  0  0  0
 30 29  1  0  0  0  0
 31 30  1  0  0  0  0
 32 31  1  0  0  0  0
 33  1  1  0  0  0  0
 34 33  1  0  0  0  0
 35 39  2  0  0  0  0
 35 37  1  0  0  0  0
 36 41  2  0  0  0  0
 37 38  2  0  0  0  0
 38 41  1  0  0  0  0
 38 34  1  0  0  0  0
 39 36  1  0  0  0  0
 40 35  1  0  0  0  0
 43 44  1  0  0  0  0
 43 42  1  0  0  0  0
 45 44  1  0  0  0  0
 46 47  1  6  0  0  0
 46 51  1  0  0  0  0
 46 45  1  0  0  0  0
 48 50  2  0  0  0  0
 49 50  1  0  0  0  0
 50 47  1  0  0  0  0
 52 51  1  0  0  0  0
 52 53  1  0  0  0  0
M  END
>  <MODEL>
1

>  <REMARK>
 VINA RESULT:      -4.5      0.000      0.000
  Name = 
  29 active torsions:
  status: ('A' for Active; 'I' for Inactive)
    1  A    between atoms: C_1  and  C_12
    2  A    between atoms: C_1  and  O_36
    3  A    between atoms: C_2  and  C_10
    4  A    between atoms: C_3  and  C_22
    5  A    between atoms: C_4  and  C_13
    6  A    between atoms: C_4  and  C_51
    7  A    between atoms: O_6  and  C_19
    8  A    between atoms: O_6  and  C_40
    9  A    between atoms: C_7  and  C_30
   10  A    between atoms: C_7  and  C_50
   11  A    between atoms: C_8  and  C_9
   12  A    between atoms: C_8  and  C_14
   13  A    between atoms: C_10  and  C_35
   14  A    between atoms: C_12  and  C_31
   15  A    between atoms: C_13  and  O_36
   16  A    between atoms: C_14  and  C_23
   17  A    between atoms: N_15  and  C_19
   18  A    between atoms: C_17  and  C_31
   19  A    between atoms: C_17  and  N_52
   20  A    between atoms: C_22  and  S_38
   21  A    between atoms: C_23  and  C_26
   22  A    between atoms: C_23  and  S_38
   23  A    between atoms: C_26  and  C_32
   24  A    between atoms: O_29  and  C_35
   25  A    between atoms: O_29  and  C_41
   26  A    between atoms: C_32  and  C_43
   27  A    between atoms: C_35  and  C_47
   28  A    between atoms: C_41  and  C_50
   29  A    between atoms: C_42  and  C_47
                            x       y       z     vdW  Elec       q    Type
                         _______ _______ _______ _____ _____    ______ ____

>  <TORSDO>
F 29

$$$$
=
 OpenBabel11042421163D

 53 54  0  0  1  0  0  0  0  0999 V2000
  160.9100  213.1680  150.3860 N   0  0  0  0  0  0  0  0  0  0  0  0
  160.4640  213.4290  149.0070 C   0  0  1  0  0  3  0  0  0  0  0  0
  161.3750  212.6240  148.1810 C   0  0  0  0  0  0  0  0  0  0  0  0
  162.6690  213.7150  146.1970 C   0  0  0  0  0  3  0  0  0  0  0  0
  161.4950  211.8840  150.3990 N   0  0  0  0  0  2  0  0  0  0  0  0
  162.0220  213.1700  147.1880 C   0  0  0  0  0  0  0  0  0  0  0  0
  162.0470  211.6550  149.0670 C   0  0  1  0  0  3  0  0  0  0  0  0
  159.0310  212.9740  148.7130 C   0  0  0  0  0  1  0  0  0  0  0  0
  161.7200  210.2430  148.6200 C   0  0  0  0  0  2  0  0  0  0  0  0
  161.4270  209.3620  149.8280 C   0  0  0  0  0  2  0  0  0  0  0  0
  160.3060  206.9590  149.7550 Cl  0  0  0  0  0  0  0  0  0  0  0  0
  161.8180  207.8930  149.6320 C   0  0  1  0  0  0  0  0  0  0  0  0
  162.5310  207.6350  147.9550 S   0  0  0  0  0  0  0  0  0  0  0  0
  162.5710  205.8150  148.0420 C   0  0  0  0  0  2  0  0  0  0  0  0
  162.0320  205.2380  146.7830 C   0  0  0  0  0  0  0  0  0  0  0  0
  161.8150  205.9890  145.7950 O   0  0  0  0  0  0  0  0  0  0  0  0
  161.7310  203.8420  146.7190 N   0  0  0  0  0  2  0  0  0  0  0  0
  161.2650  203.1960  145.4990 C   0  0  0  0  0  2  0  0  0  0  0  0
  160.4760  201.9220  145.8000 C   0  0  1  0  0  3  0  0  0  0  0  0
  160.1070  201.2650  144.6220 O   0  0  0  0  0  1  0  0  0  0  0  0
  161.2320  200.9890  146.7450 C   0  0  2  0  0  3  0  0  0  0  0  0
  161.3170  199.7020  146.2090 O   0  0  0  0  0  1  0  0  0  0  0  0
  160.5400  200.9410  148.0960 C   0  0  0  0  0  2  0  0  0  0  0  0
  161.3590  201.5190  149.0660 O   0  0  0  0  0  0  0  0  0  0  0  0
  160.4920  202.2730  149.8570 C   0  0  0  0  0  2  0  0  0  0  0  0
  161.0320  202.3800  151.2740 C   0  0  0  0  0  2  0  0  0  0  0  0
  161.3930  203.9930  153.0030 O   0  0  0  0  0  1  0  0  0  0  0  0
  160.5410  203.6480  151.9530 C   0  0  0  0  0  2  0  0  0  0  0  0
  162.7510  207.4080  150.7530 C   0  0  0  0  0  2  0  0  0  0  0  0
  162.0300  206.6890  151.8840 C   0  0  0  0  0  2  0  0  0  0  0  0
  161.5800  207.6970  152.9190 C   0  0  0  0  0  2  0  0  0  0  0  0
  161.2710  207.0350  154.1060 O   0  0  0  0  0  1  0  0  0  0  0  0
  159.8230  213.2000  151.3650 C   0  0  0  0  0  2  0  0  0  0  0  0
  159.6940  211.9310  151.9960 O   0  0  0  0  0  0  0  0  0  0  0  0
  160.6030  211.2700  155.5150 C   0  0  0  0  0  0  0  0  0  0  0  0
  158.2440  211.8100  155.4210 C   0  0  0  0  0  3  0  0  0  0  0  0
  160.6960  211.4290  154.1290 C   0  0  0  0  0  3  0  0  0  0  0  0
  159.5660  211.7770  153.3800 C   0  0  0  0  0  0  0  0  0  0  0  0
  159.3770  211.4590  156.1600 C   0  0  0  0  0  3  0  0  0  0  0  0
  161.8060  210.8990  156.3020 C   0  0  0  0  0  1  0  0  0  0  0  0
  158.3370  211.9690  154.0350 C   0  0  0  0  0  3  0  0  0  0  0  0
  162.4440  213.2320  144.8090 C   0  0  0  0  0  2  0  0  0  0  0  0
  163.4460  213.8850  143.8800 C   0  0  0  0  0  2  0  0  0  0  0  0
  162.7520  214.3900  142.6270 C   0  0  0  0  0  2  0  0  0  0  0  0
  163.3070  213.7840  141.4970 O   0  0  0  0  0  0  0  0  0  0  0  0
  162.2310  213.1630  140.8530 C   0  0  1  0  0  3  0  0  0  0  0  0
  162.3310  213.3420  139.3390 C   0  0  0  0  0  2  0  0  0  0  0  0
  164.6660  214.0490  138.7900 O   0  0  0  0  0  1  0  0  0  0  0  0
  163.9710  211.9040  138.3670 O   0  0  0  0  0  0  0  0  0  0  0  0
  163.7010  213.0500  138.8130 C   0  0  0  0  0  0  0  0  0  0  0  0
  162.1640  211.6850  141.2270 C   0  0  0  0  0  2  0  0  0  0  0  0
  161.1040  210.9620  140.4140 C   0  0  0  0  0  2  0  0  0  0  0  0
  161.5940  209.7290  139.9830 O   0  0  0  0  0  1  0  0  0  0  0  0
  1  5  1  0  0  0  0
  1 33  1  0  0  0  0
  2  8  1  1  0  0  0
  2  1  1  0  0  0  0
  3  2  1  0  0  0  0
  3  7  1  0  0  0  0
  4  6  2  0  0  0  0
  6  3  2  0  0  0  0
  7  9  1  6  0  0  0
  7  5  1  0  0  0  0
  9 10  1  0  0  0  0
 12 11  1  1  0  0  0
 12 10  1  0  0  0  0
 12 29  1  0  0  0  0
 13 14  1  0  0  0  0
 13 12  1  0  0  0  0
 15 14  1  0  0  0  0
 16 15  2  0  0  0  0
 17 15  1  0  0  0  0
 18 19  1  0  0  0  0
 18 17  1  0  0  0  0
 19 20  1  6  0  0  0
 19 21  1  0  0  0  0
 21 22  1  6  0  0  0
 21 23  1  0  0  0  0
 23 24  1  0  0  0  0
 24 25  1  0  0  0  0
 25 26  1  0  0  0  0
 26 28  1  0  0  0  0
 28 27  1  0  0  0  0
 29 30  1  0  0  0  0
 30 31  1  0  0  0  0
 31 32  1  0  0  0  0
 33 34  1  0  0  0  0
 34 38  1  0  0  0  0
 35 39  1  0  0  0  0
 35 40  1  0  0  0  0
 36 39  2  0  0  0  0
 37 35  2  0  0  0  0
 38 41  2  0  0  0  0
 38 37  1  0  0  0  0
 41 36  1  0  0  0  0
 42  4  1  0  0  0  0
 43 42  1  0  0  0  0
 44 43  1  0  0  0  0
 45 44  1  0  0  0  0
 46 47  1  6  0  0  0
 46 51  1  0  0  0  0
 46 45  1  0  0  0  0
 48 50  1  0  0  0  0
 49 50  2  0  0  0  0
 50 47  1  0  0  0  0
 52 51  1  0  0  0  0
 53 52  1  0  0  0  0
M  END
>  <MODEL>
2

>  <REMARK>
 VINA RESULT:      -4.3      2.344     10.960
  Name = 
  29 active torsions:
  status: ('A' for Active; 'I' for Inactive)
    1  A    between atoms: C_1  and  C_12
    2  A    between atoms: C_1  and  O_36
    3  A    between atoms: C_2  and  C_10
    4  A    between atoms: C_3  and  C_22
    5  A    between atoms: C_4  and  C_13
    6  A    between atoms: C_4  and  C_51
    7  A    between atoms: O_6  and  C_19
    8  A    between atoms: O_6  and  C_40
    9  A    between atoms: C_7  and  C_30
   10  A    between atoms: C_7  and  C_50
   11  A    between atoms: C_8  and  C_9
   12  A    between atoms: C_8  and  C_14
   13  A    between atoms: C_10  and  C_35
   14  A    between atoms: C_12  and  C_31
   15  A    between atoms: C_13  and  O_36
   16  A    between atoms: C_14  and  C_23
   17  A    between atoms: N_15  and  C_19
   18  A    between atoms: C_17  and  C_31
   19  A    between atoms: C_17  and  N_52
   20  A    between atoms: C_22  and  S_38
   21  A    between atoms: C_23  and  C_26
   22  A    between atoms: C_23  and  S_38
   23  A    between atoms: C_26  and  C_32
   24  A    between atoms: O_29  and  C_35
   25  A    between atoms: O_29  and  C_41
   26  A    between atoms: C_32  and  C_43
   27  A    between atoms: C_35  and  C_47
   28  A    between atoms: C_41  and  C_50
   29  A    between atoms: C_42  and  C_47
                            x       y       z     vdW  Elec       q    Type
                         _______ _______ _______ _____ _____    ______ ____

>  <TORSDO>
F 29

$$$$
=
 OpenBabel11042421163D

 53 54  0  0  1  0  0  0  0  0999 V2000
  160.2600  213.7690  149.3810 N   0  0  0  0  0  0  0  0  0  0  0  0
  160.1280  213.6610  147.9190 C   0  0  1  0  0  3  0  0  0  0  0  0
  161.3370  212.9320  147.5070 C   0  0  0  0  0  0  0  0  0  0  0  0
  162.8750  213.8840  145.6270 C   0  0  0  0  0  3  0  0  0  0  0  0
  161.0320  212.6690  149.8130 N   0  0  0  0  0  2  0  0  0  0  0  0
  162.1060  213.4080  146.5660 C   0  0  0  0  0  0  0  0  0  0  0  0
  161.9250  212.3190  148.7120 C   0  0  1  0  0  3  0  0  0  0  0  0
  158.9100  212.8570  147.4550 C   0  0  0  0  0  1  0  0  0  0  0  0
  161.9610  210.8110  148.5500 C   0  0  0  0  0  2  0  0  0  0  0  0
  161.7050  210.1310  149.8900 C   0  0  0  0  0  2  0  0  0  0  0  0
  160.3630  207.8460  149.7890 Cl  0  0  0  0  0  0  0  0  0  0  0  0
  161.9650  208.6210  149.8770 C   0  0  1  0  0  0  0  0  0  0  0  0
  162.9290  208.1460  148.3830 S   0  0  0  0  0  0  0  0  0  0  0  0
  162.6070  206.3570  148.5090 C   0  0  0  0  0  2  0  0  0  0  0  0
  162.0590  205.8510  147.2230 C   0  0  0  0  0  0  0  0  0  0  0  0
  161.0600  206.4190  146.7040 O   0  0  0  0  0  0  0  0  0  0  0  0
  162.6460  204.7030  146.6070 N   0  0  0  0  0  2  0  0  0  0  0  0
  162.2050  204.1940  145.3150 C   0  0  0  0  0  2  0  0  0  0  0  0
  160.8040  203.5890  145.3950 C   0  0  1  0  0  3  0  0  0  0  0  0
  159.9970  204.0430  144.3470 O   0  0  0  0  0  1  0  0  0  0  0  0
  160.8400  202.0620  145.4480 C   0  0  2  0  0  3  0  0  0  0  0  0
  159.5800  201.5260  145.1750 O   0  0  0  0  0  1  0  0  0  0  0  0
  161.3140  201.5980  146.8150 C   0  0  0  0  0  2  0  0  0  0  0  0
  160.5070  202.1550  147.8070 O   0  0  0  0  0  0  0  0  0  0  0  0
  160.6010  201.2650  148.8780 C   0  0  0  0  0  2  0  0  0  0  0  0
  160.6580  202.0290  150.1910 C   0  0  0  0  0  2  0  0  0  0  0  0
  160.2960  204.3940  150.1720 O   0  0  0  0  0  1  0  0  0  0  0  0
  161.2680  203.4080  149.9950 C   0  0  0  0  0  2  0  0  0  0  0  0
  162.6290  208.1560  151.1830 C   0  0  0  0  0  2  0  0  0  0  0  0
  161.8500  207.0730  151.9160 C   0  0  0  0  0  2  0  0  0  0  0  0
  161.0950  207.6900  153.0740 C   0  0  0  0  0  2  0  0  0  0  0  0
  161.3460  206.9570  154.2330 O   0  0  0  0  0  1  0  0  0  0  0  0
  158.9770  213.7470  150.0840 C   0  0  0  0  0  2  0  0  0  0  0  0
  159.1330  214.2500  151.4070 O   0  0  0  0  0  0  0  0  0  0  0  0
  159.4010  211.9660  154.2970 C   0  0  0  0  0  0  0  0  0  0  0  0
  157.1530  212.8640  154.2360 C   0  0  0  0  0  3  0  0  0  0  0  0
  159.7290  212.7040  153.1550 C   0  0  0  0  0  3  0  0  0  0  0  0
  158.7720  213.5240  152.5460 C   0  0  0  0  0  0  0  0  0  0  0  0
  158.1130  212.0450  154.8360 C   0  0  0  0  0  3  0  0  0  0  0  0
  160.4210  211.0960  154.9370 C   0  0  0  0  0  1  0  0  0  0  0  0
  157.4810  213.6020  153.0950 C   0  0  0  0  0  3  0  0  0  0  0  0
  163.0810  213.1100  144.3750 C   0  0  0  0  0  2  0  0  0  0  0  0
  161.8510  213.2310  143.4990 C   0  0  0  0  0  2  0  0  0  0  0  0
  161.8820  212.1850  142.3990 C   0  0  0  0  0  2  0  0  0  0  0  0
  160.5870  211.9410  141.9340 O   0  0  0  0  0  0  0  0  0  0  0  0
  160.5460  212.5130  140.6580 C   0  0  1  0  0  3  0  0  0  0  0  0
  160.3710  211.4360  139.5880 C   0  0  0  0  0  2  0  0  0  0  0  0
  162.6200  210.3430  139.5400 O   0  0  0  0  0  1  0  0  0  0  0  0
  161.8650  211.5310  137.7290 O   0  0  0  0  0  0  0  0  0  0  0  0
  161.6530  211.1020  138.8920 C   0  0  0  0  0  0  0  0  0  0  0  0
  159.4330  213.5540  140.5730 C   0  0  0  0  0  2  0  0  0  0  0  0
  158.5010  213.4600  141.7690 C   0  0  0  0  0  2  0  0  0  0  0  0
  158.8210  214.4480  142.7010 O   0  0  0  0  0  1  0  0  0  0  0  0
  1  5  1  0  0  0  0
  1 33  1  0  0  0  0
  2  8  1  1  0  0  0
  2  1  1  0  0  0  0
  3  2  1  0  0  0  0
  3  7  1  0  0  0  0
  4  6  2  0  0  0  0
  6  3  2  0  0  0  0
  7  9  1  6  0  0  0
  7  5  1  0  0  0  0
  9 10  1  0  0  0  0
 12 11  1  6  0  0  0
 12 10  1  0  0  0  0
 12 29  1  0  0  0  0
 13 14  1  0  0  0  0
 13 12  1  0  0  0  0
 15 14  1  0  0  0  0
 16 15  2  0  0  0  0
 17 15  1  0  0  0  0
 18 19  1  0  0  0  0
 18 17  1  0  0  0  0
 19 20  1  6  0  0  0
 19 21  1  0  0  0  0
 21 22  1  1  0  0  0
 21 23  1  0  0  0  0
 23 24  1  0  0  0  0
 24 25  1  0  0  0  0
 25 26  1  0  0  0  0
 28 27  1  0  0  0  0
 28 26  1  0  0  0  0
 29 30  1  0  0  0  0
 30 31  1  0  0  0  0
 31 32  1  0  0  0  0
 33 34  1  0  0  0  0
 34 38  1  0  0  0  0
 35 39  1  0  0  0  0
 35 40  1  0  0  0  0
 36 39  2  0  0  0  0
 37 35  2  0  0  0  0
 38 41  2  0  0  0  0
 38 37  1  0  0  0  0
 41 36  1  0  0  0  0
 42  4  1  0  0  0  0
 43 42  1  0  0  0  0
 44 43  1  0  0  0  0
 45 44  1  0  0  0  0
 46 47  1  6  0  0  0
 46 45  1  0  0  0  0
 49 50  2  0  0  0  0
 50 48  1  0  0  0  0
 50 47  1  0  0  0  0
 51 46  1  0  0  0  0
 51 52  1  0  0  0  0
 52 53  1  0  0  0  0
M  END
>  <MODEL>
3

>  <REMARK>
 VINA RESULT:      -4.3      2.175     10.641
  Name = 
  29 active torsions:
  status: ('A' for Active; 'I' for Inactive)
    1  A    between atoms: C_1  and  C_12
    2  A    between atoms: C_1  and  O_36
    3  A    between atoms: C_2  and  C_10
    4  A    between atoms: C_3  and  C_22
    5  A    between atoms: C_4  and  C_13
    6  A    between atoms: C_4  and  C_51
    7  A    between atoms: O_6  and  C_19
    8  A    between atoms: O_6  and  C_40
    9  A    between atoms: C_7  and  C_30
   10  A    between atoms: C_7  and  C_50
   11  A    between atoms: C_8  and  C_9
   12  A    between atoms: C_8  and  C_14
   13  A    between atoms: C_10  and  C_35
   14  A    between atoms: C_12  and  C_31
   15  A    between atoms: C_13  and  O_36
   16  A    between atoms: C_14  and  C_23
   17  A    between atoms: N_15  and  C_19
   18  A    between atoms: C_17  and  C_31
   19  A    between atoms: C_17  and  N_52
   20  A    between atoms: C_22  and  S_38
   21  A    between atoms: C_23  and  C_26
   22  A    between atoms: C_23  and  S_38
   23  A    between atoms: C_26  and  C_32
   24  A    between atoms: O_29  and  C_35
   25  A    between atoms: O_29  and  C_41
   26  A    between atoms: C_32  and  C_43
   27  A    between atoms: C_35  and  C_47
   28  A    between atoms: C_41  and  C_50
   29  A    between atoms: C_42  and  C_47
                            x       y       z     vdW  Elec       q    Type
                         _______ _______ _______ _____ _____    ______ ____

>  <TORSDO>
F 29

$$$$
=
 OpenBabel11042421163D

 53 54  0  0  1  0  0  0  0  0999 V2000
  160.9430  208.7610  151.2240 N   0  0  0  0  0  0  0  0  0  0  0  0
  161.6400  207.6800  150.5090 C   0  0  1  0  0  3  0  0  0  0  0  0
  161.6350  208.1210  149.1070 C   0  0  0  0  0  0  0  0  0  0  0  0
  160.7570  206.5390  147.2280 C   0  0  0  0  0  3  0  0  0  0  0  0
  161.1460  209.9470  150.4870 N   0  0  0  0  0  2  0  0  0  0  0  0
  161.1960  207.3290  148.1670 C   0  0  0  0  0  0  0  0  0  0  0  0
  161.3010  209.5570  149.0890 C   0  0  1  0  0  3  0  0  0  0  0  0
  163.0970  207.4800  150.9370 C   0  0  0  0  0  1  0  0  0  0  0  0
  162.4440  210.3390  148.4690 C   0  0  0  0  0  2  0  0  0  0  0  0
  162.5170  211.7350  149.0750 C   0  0  0  0  0  2  0  0  0  0  0  0
  160.6680  213.5320  149.7010 Cl  0  0  0  0  0  0  0  0  0  0  0  0
  161.5960  212.7540  148.3940 C   0  0  1  0  0  0  0  0  0  0  0  0
  162.5870  214.0420  147.5310 S   0  0  0  0  0  0  0  0  0  0  0  0
  163.0160  213.0170  146.0860 C   0  0  0  0  0  2  0  0  0  0  0  0
  162.6560  213.7340  144.8340 C   0  0  0  0  0  0  0  0  0  0  0  0
  161.6210  214.4530  144.8020 O   0  0  0  0  0  0  0  0  0  0  0  0
  163.4660  213.5700  143.6690 N   0  0  0  0  0  2  0  0  0  0  0  0
  163.2130  214.2930  142.4290 C   0  0  0  0  0  2  0  0  0  0  0  0
  162.6220  213.3810  141.3550 C   0  0  1  0  0  3  0  0  0  0  0  0
  161.2330  213.5270  141.2750 O   0  0  0  0  0  1  0  0  0  0  0  0
  163.2820  213.5960  139.9930 C   0  0  2  0  0  3  0  0  0  0  0  0
  162.5060  214.4380  139.1920 O   0  0  0  0  0  1  0  0  0  0  0  0
  163.4850  212.2620  139.2950 C   0  0  0  0  0  2  0  0  0  0  0  0
  162.7500  211.2720  139.9480 O   0  0  0  0  0  0  0  0  0  0  0  0
  162.2300  210.4840  138.9210 C   0  0  0  0  0  2  0  0  0  0  0  0
  161.0550  209.6660  139.4310 C   0  0  0  0  0  2  0  0  0  0  0  0
  162.3430  207.8060  140.2090 O   0  0  0  0  0  1  0  0  0  0  0  0
  161.3360  208.1760  139.3170 C   0  0  0  0  0  2  0  0  0  0  0  0
  160.5870  212.0610  147.4640 C   0  0  0  0  0  2  0  0  0  0  0  0
  159.5140  212.9940  146.9190 C   0  0  0  0  0  2  0  0  0  0  0  0
  158.7410  212.2910  145.8250 C   0  0  0  0  0  2  0  0  0  0  0  0
  157.4250  212.0930  146.2410 O   0  0  0  0  0  1  0  0  0  0  0  0
  161.4310  208.9660  152.5880 C   0  0  0  0  0  2  0  0  0  0  0  0
  160.3360  209.1010  153.4870 O   0  0  0  0  0  0  0  0  0  0  0  0
  158.4170  211.6150  155.3960 C   0  0  0  0  0  0  0  0  0  0  0  0
  159.6480  212.7550  153.6490 C   0  0  0  0  0  3  0  0  0  0  0  0
  158.9450  210.3920  154.9720 C   0  0  0  0  0  3  0  0  0  0  0  0
  159.8250  210.3410  153.8840 C   0  0  0  0  0  0  0  0  0  0  0  0
  158.7680  212.7960  154.7340 C   0  0  0  0  0  3  0  0  0  0  0  0
  157.4830  211.6600  156.5500 C   0  0  0  0  0  1  0  0  0  0  0  0
  160.1760  211.5320  153.2250 C   0  0  0  0  0  3  0  0  0  0  0  0
  161.6690  206.1020  146.1390 C   0  0  0  0  0  2  0  0  0  0  0  0
  161.2950  204.7010  145.7010 C   0  0  0  0  0  2  0  0  0  0  0  0
  160.9400  203.8490  146.9070 C   0  0  0  0  0  2  0  0  0  0  0  0
  161.9500  203.9380  147.8680 O   0  0  0  0  0  0  0  0  0  0  0  0
  161.5030  203.1530  148.9370 C   0  0  1  0  0  3  0  0  0  0  0  0
  160.7360  204.0060  149.9490 C   0  0  0  0  0  2  0  0  0  0  0  0
  160.5300  203.1990  152.3070 O   0  0  0  0  0  1  0  0  0  0  0  0
  162.3780  204.3830  151.6400 O   0  0  0  0  0  0  0  0  0  0  0  0
  161.2700  203.8680  151.3390 C   0  0  0  0  0  0  0  0  0  0  0  0
  160.6430  201.9990  148.4320 C   0  0  0  0  0  2  0  0  0  0  0  0
  160.1640  201.1280  149.5810 C   0  0  0  0  0  2  0  0  0  0  0  0
  158.7750  201.0060  149.5390 O   0  0  0  0  0  1  0  0  0  0  0  0
  1 33  1  0  0  0  0
  2  8  1  1  0  0  0
  2  1  1  0  0  0  0
  3  2  1  0  0  0  0
  4  6  2  0  0  0  0
  5  1  1  0  0  0  0
  6  3  2  0  0  0  0
  7  9  1  1  0  0  0
  7  3  1  0  0  0  0
  7  5  1  0  0  0  0
  9 10  1  0  0  0  0
 12 10  1  0  0  0  0
 12 11  1  1  0  0  0
 13 12  1  0  0  0  0
 14 13  1  0  0  0  0
 15 14  1  0  0  0  0
 16 15  2  0  0  0  0
 17 15  1  0  0  0  0
 18 17  1  0  0  0  0
 19 20  1  6  0  0  0
 19 18  1  0  0  0  0
 21 22  1  6  0  0  0
 21 19  1  0  0  0  0
 23 24  1  0  0  0  0
 23 21  1  0  0  0  0
 25 26  1  0  0  0  0
 25 24  1  0  0  0  0
 28 26  1  0  0  0  0
 28 27  1  0  0  0  0
 29 12  1  0  0  0  0
 30 29  1  0  0  0  0
 31 32  1  0  0  0  0
 31 30  1  0  0  0  0
 33 34  1  0  0  0  0
 34 38  1  0  0  0  0
 35 40  1  0  0  0  0
 36 39  1  0  0  0  0
 37 35  1  0  0  0  0
 38 37  2  0  0  0  0
 39 35  2  0  0  0  0
 41 36  2  0  0  0  0
 41 38  1  0  0  0  0
 42  4  1  0  0  0  0
 43 42  1  0  0  0  0
 43 44  1  0  0  0  0
 44 45  1  0  0  0  0
 45 46  1  0  0  0  0
 46 51  1  6  0  0  0
 46 47  1  0  0  0  0
 47 50  1  0  0  0  0
 50 49  2  0  0  0  0
 50 48  1  0  0  0  0
 51 52  1  0  0  0  0
 53 52  1  0  0  0  0
M  END
>  <MODEL>
4

>  <REMARK>
 VINA RESULT:      -4.1      2.797      8.220
  Name = 
  29 active torsions:
  status: ('A' for Active; 'I' for Inactive)
    1  A    between atoms: C_1  and  C_12
    2  A    between atoms: C_1  and  O_36
    3  A    between atoms: C_2  and  C_10
    4  A    between atoms: C_3  and  C_22
    5  A    between atoms: C_4  and  C_13
    6  A    between atoms: C_4  and  C_51
    7  A    between atoms: O_6  and  C_19
    8  A    between atoms: O_6  and  C_40
    9  A    between atoms: C_7  and  C_30
   10  A    between atoms: C_7  and  C_50
   11  A    between atoms: C_8  and  C_9
   12  A    between atoms: C_8  and  C_14
   13  A    between atoms: C_10  and  C_35
   14  A    between atoms: C_12  and  C_31
   15  A    between atoms: C_13  and  O_36
   16  A    between atoms: C_14  and  C_23
   17  A    between atoms: N_15  and  C_19
   18  A    between atoms: C_17  and  C_31
   19  A    between atoms: C_17  and  N_52
   20  A    between atoms: C_22  and  S_38
   21  A    between atoms: C_23  and  C_26
   22  A    between atoms: C_23  and  S_38
   23  A    between atoms: C_26  and  C_32
   24  A    between atoms: O_29  and  C_35
   25  A    between atoms: O_29  and  C_41
   26  A    between atoms: C_32  and  C_43
   27  A    between atoms: C_35  and  C_47
   28  A    between atoms: C_41  and  C_50
   29  A    between atoms: C_42  and  C_47
                            x       y       z     vdW  Elec       q    Type
                         _______ _______ _______ _____ _____    ______ ____

>  <TORSDO>
F 29

$$$$
=
 OpenBabel11042421163D

 53 54  0  0  1  0  0  0  0  0999 V2000
  160.5620  213.0740  150.0990 N   0  0  0  0  0  0  0  0  0  0  0  0
  160.2680  213.2590  148.6680 C   0  0  1  0  0  3  0  0  0  0  0  0
  161.3760  212.5750  147.9870 C   0  0  0  0  0  0  0  0  0  0  0  0
  162.7620  213.8100  146.1540 C   0  0  0  0  0  3  0  0  0  0  0  0
  161.3040  211.8800  150.2210 N   0  0  0  0  0  2  0  0  0  0  0  0
  162.0700  213.1930  147.0700 C   0  0  0  0  0  0  0  0  0  0  0  0
  162.0500  211.7130  148.9760 C   0  0  1  0  0  3  0  0  0  0  0  0
  158.9580  212.6120  148.2070 C   0  0  0  0  0  1  0  0  0  0  0  0
  161.9730  210.2660  148.5290 C   0  0  0  0  0  2  0  0  0  0  0  0
  161.2890  209.4210  149.5970 C   0  0  0  0  0  2  0  0  0  0  0  0
  160.2210  206.9930  149.5360 Cl  0  0  0  0  0  0  0  0  0  0  0  0
  161.7220  207.9510  149.5940 C   0  0  1  0  0  0  0  0  0  0  0  0
  162.7150  207.5760  148.0900 S   0  0  0  0  0  0  0  0  0  0  0  0
  162.5860  205.7630  148.2240 C   0  0  0  0  0  2  0  0  0  0  0  0
  161.9250  205.2130  147.0100 C   0  0  0  0  0  0  0  0  0  0  0  0
  161.5120  205.9980  146.1150 O   0  0  0  0  0  0  0  0  0  0  0  0
  161.7310  203.8030  146.8900 N   0  0  0  0  0  2  0  0  0  0  0  0
  161.1530  203.1880  145.7020 C   0  0  0  0  0  2  0  0  0  0  0  0
  160.4130  201.8950  146.0380 C   0  0  1  0  0  3  0  0  0  0  0  0
  160.3950  201.0230  144.9450 O   0  0  0  0  0  1  0  0  0  0  0  0
  160.9820  201.2150  147.2830 C   0  0  2  0  0  3  0  0  0  0  0  0
  161.3350  199.8910  147.0080 O   0  0  0  0  0  1  0  0  0  0  0  0
  159.9650  201.2540  148.4110 C   0  0  0  0  0  2  0  0  0  0  0  0
  160.3910  202.1430  149.3980 O   0  0  0  0  0  0  0  0  0  0  0  0
  161.1510  201.3630  150.2700 C   0  0  0  0  0  2  0  0  0  0  0  0
  161.6570  202.2110  151.4260 C   0  0  0  0  0  2  0  0  0  0  0  0
  160.4700  204.0870  152.3180 O   0  0  0  0  0  1  0  0  0  0  0  0
  161.2630  203.6690  151.2490 C   0  0  0  0  0  2  0  0  0  0  0  0
  162.4540  207.5810  150.8930 C   0  0  0  0  0  2  0  0  0  0  0  0
  161.5900  207.7040  152.1410 C   0  0  0  0  0  2  0  0  0  0  0  0
  162.0630  206.7160  153.1840 C   0  0  0  0  0  2  0  0  0  0  0  0
  161.4010  206.9590  154.3860 O   0  0  0  0  0  1  0  0  0  0  0  0
  159.3630  212.9690  150.9300 C   0  0  0  0  0  2  0  0  0  0  0  0
  159.7110  212.5360  152.2410 O   0  0  0  0  0  0  0  0  0  0  0  0
  157.1020  212.0730  154.8150 C   0  0  0  0  0  0  0  0  0  0  0  0
  158.2730  214.1440  155.2730 C   0  0  0  0  0  3  0  0  0  0  0  0
  157.9170  211.8570  153.7000 C   0  0  0  0  0  3  0  0  0  0  0  0
  158.9120  212.7820  153.3620 C   0  0  0  0  0  0  0  0  0  0  0  0
  157.2790  213.2160  155.6010 C   0  0  0  0  0  3  0  0  0  0  0  0
  156.0480  211.0870  155.1660 C   0  0  0  0  0  1  0  0  0  0  0  0
  159.0870  213.9280  154.1580 C   0  0  0  0  0  3  0  0  0  0  0  0
  162.7840  213.2880  144.7630 C   0  0  0  0  0  2  0  0  0  0  0  0
  161.5130  213.7010  144.0500 C   0  0  0  0  0  2  0  0  0  0  0  0
  160.9520  212.5350  143.2540 C   0  0  0  0  0  2  0  0  0  0  0  0
  159.9120  212.9740  142.4310 O   0  0  0  0  0  0  0  0  0  0  0  0
  160.1760  212.4070  141.1800 C   0  0  1  0  0  3  0  0  0  0  0  0
  159.2830  213.0290  140.1060 C   0  0  0  0  0  2  0  0  0  0  0  0
  159.1260  211.4490  138.1730 O   0  0  0  0  0  0  0  0  0  0  0  0
  157.3810  211.6620  139.6470 O   0  0  0  0  0  1  0  0  0  0  0  0
  158.5430  212.0030  139.3070 C   0  0  0  0  0  0  0  0  0  0  0  0
  161.6510  212.5620  140.8210 C   0  0  0  0  0  2  0  0  0  0  0  0
  162.3350  211.2100  140.7190 C   0  0  0  0  0  2  0  0  0  0  0  0
  161.6700  210.4080  139.7910 O   0  0  0  0  0  1  0  0  0  0  0  0
  1  5  1  0  0  0  0
  1 33  1  0  0  0  0
  2  8  1  6  0  0  0
  2  1  1  0  0  0  0
  3  2  1  0  0  0  0
  3  7  1  0  0  0  0
  4  6  2  0  0  0  0
  6  3  2  0  0  0  0
  7  9  1  6  0  0  0
  7  5  1  0  0  0  0
  9 10  1  0  0  0  0
 12 11  1  6  0  0  0
 12 10  1  0  0  0  0
 12 29  1  0  0  0  0
 13 14  1  0  0  0  0
 13 12  1  0  0  0  0
 15 14  1  0  0  0  0
 16 15  2  0  0  0  0
 17 15  1  0  0  0  0
 18 19  1  0  0  0  0
 18 17  1  0  0  0  0
 19 20  1  6  0  0  0
 19 21  1  0  0  0  0
 21 22  1  6  0  0  0
 21 23  1  0  0  0  0
 23 24  1  0  0  0  0
 24 25  1  0  0  0  0
 25 26  1  0  0  0  0
 28 26  1  0  0  0  0
 28 27  1  0  0  0  0
 29 30  1  0  0  0  0
 30 31  1  0  0  0  0
 31 32  1  0  0  0  0
 33 34  1  0  0  0  0
 34 38  1  0  0  0  0
 35 40  1  0  0  0  0
 35 39  1  0  0  0  0
 36 39  2  0  0  0  0
 37 35  2  0  0  0  0
 38 37  1  0  0  0  0
 38 41  2  0  0  0  0
 41 36  1  0  0  0  0
 42  4  1  0  0  0  0
 43 42  1  0  0  0  0
 44 43  1  0  0  0  0
 45 44  1  0  0  0  0
 46 47  1  6  0  0  0
 46 45  1  0  0  0  0
 48 50  2  0  0  0  0
 50 49  1  0  0  0  0
 50 47  1  0  0  0  0
 51 46  1  0  0  0  0
 52 51  1  0  0  0  0
 53 52  1  0  0  0  0
M  END
>  <MODEL>
5

>  <REMARK>
 VINA RESULT:      -3.9      2.171     10.966
  Name = 
  29 active torsions:
  status: ('A' for Active; 'I' for Inactive)
    1  A    between atoms: C_1  and  C_12
    2  A    between atoms: C_1  and  O_36
    3  A    between atoms: C_2  and  C_10
    4  A    between atoms: C_3  and  C_22
    5  A    between atoms: C_4  and  C_13
    6  A    between atoms: C_4  and  C_51
    7  A    between atoms: O_6  and  C_19
    8  A    between atoms: O_6  and  C_40
    9  A    between atoms: C_7  and  C_30
   10  A    between atoms: C_7  and  C_50
   11  A    between atoms: C_8  and  C_9
   12  A    between atoms: C_8  and  C_14
   13  A    between atoms: C_10  and  C_35
   14  A    between atoms: C_12  and  C_31
   15  A    between atoms: C_13  and  O_36
   16  A    between atoms: C_14  and  C_23
   17  A    between atoms: N_15  and  C_19
   18  A    between atoms: C_17  and  C_31
   19  A    between atoms: C_17  and  N_52
   20  A    between atoms: C_22  and  S_38
   21  A    between atoms: C_23  and  C_26
   22  A    between atoms: C_23  and  S_38
   23  A    between atoms: C_26  and  C_32
   24  A    between atoms: O_29  and  C_35
   25  A    between atoms: O_29  and  C_41
   26  A    between atoms: C_32  and  C_43
   27  A    between atoms: C_35  and  C_47
   28  A    between atoms: C_41  and  C_50
   29  A    between atoms: C_42  and  C_47
                            x       y       z     vdW  Elec       q    Type
                         _______ _______ _______ _____ _____    ______ ____

>  <TORSDO>
F 29

$$$$
=
 OpenBabel11042421163D

 53 54  0  0  1  0  0  0  0  0999 V2000
  161.1720  203.7420  146.2120 N   0  0  0  0  0  0  0  0  0  0  0  0
  162.1430  203.9850  145.1330 C   0  0  1  0  0  3  0  0  0  0  0  0
  161.8840  205.3750  144.7290 C   0  0  0  0  0  0  0  0  0  0  0  0
  161.4670  205.9640  142.2230 C   0  0  0  0  0  3  0  0  0  0  0  0
  160.9000  204.9870  146.8180 N   0  0  0  0  0  2  0  0  0  0  0  0
  161.6750  205.6690  143.4750 C   0  0  0  0  0  0  0  0  0  0  0  0
  161.0760  206.0070  145.7880 C   0  0  1  0  0  3  0  0  0  0  0  0
  163.6080  203.8860  145.5720 C   0  0  0  0  0  1  0  0  0  0  0  0
  161.8310  207.1880  146.3690 C   0  0  0  0  0  2  0  0  0  0  0  0
  162.2780  206.8780  147.7920 C   0  0  0  0  0  2  0  0  0  0  0  0
  160.0480  207.0520  149.2170 Cl  0  0  0  0  0  0  0  0  0  0  0  0
  161.6340  207.7770  148.8530 C   0  0  1  0  0  0  0  0  0  0  0  0
  162.6430  207.7830  150.3910 S   0  0  0  0  0  0  0  0  0  0  0  0
  161.2430  208.0060  151.5370 C   0  0  0  0  0  2  0  0  0  0  0  0
  161.3850  209.2970  152.2610 C   0  0  0  0  0  0  0  0  0  0  0  0
  161.1880  210.3810  151.6500 O   0  0  0  0  0  0  0  0  0  0  0  0
  161.7800  209.2960  153.6350 N   0  0  0  0  0  2  0  0  0  0  0  0
  161.8720  210.5160  154.4250 C   0  0  0  0  0  2  0  0  0  0  0  0
  161.8690  210.2190  155.9240 C   0  0  1  0  0  3  0  0  0  0  0  0
  163.0030  210.7510  156.5480 O   0  0  0  0  0  1  0  0  0  0  0  0
  160.5860  210.6980  156.6020 C   0  0  2  0  0  3  0  0  0  0  0  0
  159.9480  209.6440  157.2600 O   0  0  0  0  0  1  0  0  0  0  0  0
  159.6490  211.3080  155.5730 C   0  0  0  0  0  2  0  0  0  0  0  0
  158.9420  212.3650  156.1470 O   0  0  0  0  0  0  0  0  0  0  0  0
  159.1680  213.4450  155.2930 C   0  0  0  0  0  2  0  0  0  0  0  0
  158.9760  213.0190  153.8470 C   0  0  0  0  0  2  0  0  0  0  0  0
  156.7480  213.5780  153.1760 O   0  0  0  0  0  1  0  0  0  0  0  0
  158.0790  213.9950  153.1030 C   0  0  0  0  0  2  0  0  0  0  0  0
  161.3790  209.1910  148.3070 C   0  0  0  0  0  2  0  0  0  0  0  0
  162.3820  210.2280  148.7940 C   0  0  0  0  0  2  0  0  0  0  0  0
  162.0220  211.5840  148.2290 C   0  0  0  0  0  2  0  0  0  0  0  0
  160.8830  211.4670  147.4340 O   0  0  0  0  0  1  0  0  0  0  0  0
  161.6600  202.8180  147.2370 C   0  0  0  0  0  2  0  0  0  0  0  0
  160.6350  202.5540  148.1880 O   0  0  0  0  0  0  0  0  0  0  0  0
  161.0560  203.8600  151.6180 C   0  0  0  0  0  0  0  0  0  0  0  0
  161.2900  201.4500  151.6810 C   0  0  0  0  0  3  0  0  0  0  0  0
  160.8420  203.8040  150.2370 C   0  0  0  0  0  3  0  0  0  0  0  0
  160.8530  202.5740  149.5690 C   0  0  0  0  0  0  0  0  0  0  0  0
  161.2810  202.6830  152.3390 C   0  0  0  0  0  3  0  0  0  0  0  0
  161.0440  205.1700  152.3180 C   0  0  0  0  0  1  0  0  0  0  0  0
  161.0760  201.3950  150.3010 C   0  0  0  0  0  3  0  0  0  0  0  0
  162.3900  206.8870  141.5140 C   0  0  0  0  0  2  0  0  0  0  0  0
  161.9560  207.0220  140.0680 C   0  0  0  0  0  2  0  0  0  0  0  0
  161.3800  208.4050  139.8190 C   0  0  0  0  0  2  0  0  0  0  0  0
  162.4090  209.3080  139.5390 O   0  0  0  0  0  0  0  0  0  0  0  0
  161.8000  210.5670  139.5550 C   0  0  1  0  0  3  0  0  0  0  0  0
  160.2780  210.4320  139.5550 C   0  0  0  0  0  2  0  0  0  0  0  0
  158.6350  212.1670  138.8160 O   0  0  0  0  0  1  0  0  0  0  0  0
  159.9570  211.0890  137.2830 O   0  0  0  0  0  0  0  0  0  0  0  0
  159.6260  211.2500  138.4860 C   0  0  0  0  0  0  0  0  0  0  0  0
  162.2770  211.3780  140.7560 C   0  0  0  0  0  2  0  0  0  0  0  0
  161.1360  211.6560  141.7190 C   0  0  0  0  0  2  0  0  0  0  0  0
  161.6380  212.1390  142.9270 O   0  0  0  0  0  1  0  0  0  0  0  0
  1  5  1  0  0  0  0
  1 33  1  0  0  0  0
  2  8  1  1  0  0  0
  2  1  1  0  0  0  0
  3  2  1  0  0  0  0
  3  7  1  0  0  0  0
  4  6  2  0  0  0  0
  6  3  2  0  0  0  0
  7  9  1  1  0  0  0
  7  5  1  0  0  0  0
  9 10  1  0  0  0  0
 10 12  1  0  0  0  0
 12 11  1  1  0  0  0
 12 13  1  0  0  0  0
 13 14  1  0  0  0  0
 14 15  1  0  0  0  0
 15 17  1  0  0  0  0
 16 15  2  0  0  0  0
 17 18  1  0  0  0  0
 18 19  1  0  0  0  0
 19 20  1  1  0  0  0
 19 21  1  0  0  0  0
 21 22  1  6  0  0  0
 23 24  1  0  0  0  0
 23 21  1  0  0  0  0
 25 24  1  0  0  0  0
 26 25  1  0  0  0  0
 28 27  1  0  0  0  0
 28 26  1  0  0  0  0
 29 30  1  0  0  0  0
 29 12  1  0  0  0  0
 31 30  1  0  0  0  0
 32 31  1  0  0  0  0
 33 34  1  0  0  0  0
 34 38  1  0  0  0  0
 35 40  1  0  0  0  0
 35 39  1  0  0  0  0
 36 39  2  0  0  0  0
 37 35  2  0  0  0  0
 38 37  1  0  0  0  0
 38 41  2  0  0  0  0
 41 36  1  0  0  0  0
 42  4  1  0  0  0  0
 43 42  1  0  0  0  0
 44 43  1  0  0  0  0
 45 46  1  0  0  0  0
 45 44  1  0  0  0  0
 46 47  1  1  0  0  0
 46 51  1  0  0  0  0
 49 50  2  0  0  0  0
 50 48  1  0  0  0  0
 50 47  1  0  0  0  0
 51 52  1  0  0  0  0
 52 53  1  0  0  0  0
M  END
>  <MODEL>
6

>  <REMARK>
 VINA RESULT:      -3.2      2.482      9.677
  Name = 
  29 active torsions:
  status: ('A' for Active; 'I' for Inactive)
    1  A    between atoms: C_1  and  C_12
    2  A    between atoms: C_1  and  O_36
    3  A    between atoms: C_2  and  C_10
    4  A    between atoms: C_3  and  C_22
    5  A    between atoms: C_4  and  C_13
    6  A    between atoms: C_4  and  C_51
    7  A    between atoms: O_6  and  C_19
    8  A    between atoms: O_6  and  C_40
    9  A    between atoms: C_7  and  C_30
   10  A    between atoms: C_7  and  C_50
   11  A    between atoms: C_8  and  C_9
   12  A    between atoms: C_8  and  C_14
   13  A    between atoms: C_10  and  C_35
   14  A    between atoms: C_12  and  C_31
   15  A    between atoms: C_13  and  O_36
   16  A    between atoms: C_14  and  C_23
   17  A    between atoms: N_15  and  C_19
   18  A    between atoms: C_17  and  C_31
   19  A    between atoms: C_17  and  N_52
   20  A    between atoms: C_22  and  S_38
   21  A    between atoms: C_23  and  C_26
   22  A    between atoms: C_23  and  S_38
   23  A    between atoms: C_26  and  C_32
   24  A    between atoms: O_29  and  C_35
   25  A    between atoms: O_29  and  C_41
   26  A    between atoms: C_32  and  C_43
   27  A    between atoms: C_35  and  C_47
   28  A    between atoms: C_41  and  C_50
   29  A    between atoms: C_42  and  C_47
                            x       y       z     vdW  Elec       q    Type
                         _______ _______ _______ _____ _____    ______ ____

>  <TORSDO>
F 29

$$$$
=
 OpenBabel11042421163D

 53 54  0  0  1  0  0  0  0  0999 V2000
  161.6230  203.4700  151.2300 N   0  0  0  0  0  0  0  0  0  0  0  0
  160.5680  204.0930  152.0460 C   0  0  1  0  0  3  0  0  0  0  0  0
  161.0820  205.4430  152.3200 C   0  0  0  0  0  0  0  0  0  0  0  0
  161.1900  206.3420  154.7660 C   0  0  0  0  0  3  0  0  0  0  0  0
  162.2880  204.5090  150.5450 N   0  0  0  0  0  2  0  0  0  0  0  0
  161.1360  205.8930  153.5440 C   0  0  0  0  0  0  0  0  0  0  0  0
  162.1890  205.7020  151.3810 C   0  0  1  0  0  3  0  0  0  0  0  0
  159.2210  204.2360  151.3300 C   0  0  0  0  0  1  0  0  0  0  0  0
  161.8540  206.9010  150.5150 C   0  0  0  0  0  2  0  0  0  0  0  0
  162.6530  206.8540  149.2180 C   0  0  0  0  0  2  0  0  0  0  0  0
  160.3660  205.9430  148.2290 Cl  0  0  0  0  0  0  0  0  0  0  0  0
  161.7910  206.9780  147.9570 C   0  0  1  0  0  0  0  0  0  0  0  0
  161.2210  208.7130  147.7340 S   0  0  0  0  0  0  0  0  0  0  0  0
  162.2860  209.4320  149.0260 C   0  0  0  0  0  2  0  0  0  0  0  0
  161.9940  210.8830  149.1720 C   0  0  0  0  0  0  0  0  0  0  0  0
  161.9050  211.3890  150.3220 O   0  0  0  0  0  0  0  0  0  0  0  0
  161.7780  211.6800  148.0060 N   0  0  0  0  0  2  0  0  0  0  0  0
  161.5550  213.1190  148.0700 C   0  0  0  0  0  2  0  0  0  0  0  0
  161.3520  213.7200  146.6800 C   0  0  1  0  0  3  0  0  0  0  0  0
  162.2450  213.1710  145.7550 O   0  0  0  0  0  1  0  0  0  0  0  0
  159.9060  213.5870  146.2030 C   0  0  2  0  0  3  0  0  0  0  0  0
  159.0200  213.6380  147.2810 O   0  0  0  0  0  1  0  0  0  0  0  0
  159.7240  212.2820  145.4460 C   0  0  0  0  0  2  0  0  0  0  0  0
  158.6770  212.4100  144.5330 O   0  0  0  0  0  0  0  0  0  0  0  0
  159.2210  213.1330  143.4710 C   0  0  0  0  0  2  0  0  0  0  0  0
  160.3140  212.3240  142.7910 C   0  0  0  0  0  2  0  0  0  0  0  0
  160.9240  212.4380  140.4800 O   0  0  0  0  0  1  0  0  0  0  0  0
  159.9350  211.9890  141.3570 C   0  0  0  0  0  2  0  0  0  0  0  0
  162.5260  206.4330  146.7220 C   0  0  0  0  0  2  0  0  0  0  0  0
  161.8280  205.2510  146.0640 C   0  0  0  0  0  2  0  0  0  0  0  0
  162.0570  205.2960  144.5690 C   0  0  0  0  0  2  0  0  0  0  0  0
  160.8430  205.1160  143.9090 O   0  0  0  0  0  1  0  0  0  0  0  0
  161.1110  202.5130  150.2490 C   0  0  0  0  0  2  0  0  0  0  0  0
  161.5430  202.8710  148.9410 O   0  0  0  0  0  0  0  0  0  0  0  0
  161.2740  200.0280  146.5980 C   0  0  0  0  0  0  0  0  0  0  0  0
  160.1720  201.9440  145.6080 C   0  0  0  0  0  3  0  0  0  0  0  0
  161.5940  200.7930  147.7240 C   0  0  0  0  0  3  0  0  0  0  0  0
  161.2090  202.1360  147.8000 C   0  0  0  0  0  0  0  0  0  0  0  0
  160.5650  200.6050  145.5400 C   0  0  0  0  0  3  0  0  0  0  0  0
  161.6890  198.6040  146.5250 C   0  0  0  0  0  1  0  0  0  0  0  0
  160.4920  202.7080  146.7340 C   0  0  0  0  0  3  0  0  0  0  0  0
  160.4090  207.5470  155.1490 C   0  0  0  0  0  2  0  0  0  0  0  0
  160.8750  208.7320  154.3280 C   0  0  0  0  0  2  0  0  0  0  0  0
  159.9310  209.9070  154.5150 C   0  0  0  0  0  2  0  0  0  0  0  0
  159.0540  209.6510  155.5730 O   0  0  0  0  0  0  0  0  0  0  0  0
  158.5920  210.9090  155.9720 C   0  0  1  0  0  3  0  0  0  0  0  0
  159.5610  212.0060  155.5320 C   0  0  0  0  0  2  0  0  0  0  0  0
  160.3500  213.8420  157.0360 O   0  0  0  0  0  0  0  0  0  0  0  0
  161.2090  211.7240  157.2350 O   0  0  0  0  0  1  0  0  0  0  0  0
  160.4140  212.5070  156.6540 C   0  0  0  0  0  0  0  0  0  0  0  0
  157.1910  211.1650  155.4240 C   0  0  0  0  0  2  0  0  0  0  0  0
  156.4760  212.2380  156.2260 C   0  0  0  0  0  2  0  0  0  0  0  0
  156.5180  213.4530  155.5400 O   0  0  0  0  0  1  0  0  0  0  0  0
  1  2  1  0  0  0  0
  2  8  1  6  0  0  0
  2  3  1  0  0  0  0
  3  6  2  0  0  0  0
  4 42  1  0  0  0  0
  5  1  1  0  0  0  0
  5  7  1  0  0  0  0
  6  4  2  0  0  0  0
  7  9  1  6  0  0  0
  7  3  1  0  0  0  0
 10  9  1  0  0  0  0
 12 11  1  1  0  0  0
 12 10  1  0  0  0  0
 13 12  1  0  0  0  0
 13 14  1  0  0  0  0
 14 15  1  0  0  0  0
 15 16  2  0  0  0  0
 17 18  1  0  0  0  0
 17 15  1  0  0  0  0
 19 20  1  6  0  0  0
 19 18  1  0  0  0  0
 21 19  1  0  0  0  0
 21 22  1  1  0  0  0
 23 21  1  0  0  0  0
 24 23  1  0  0  0  0
 25 24  1  0  0  0  0
 26 25  1  0  0  0  0
 27 28  1  0  0  0  0
 28 26  1  0  0  0  0
 29 12  1  0  0  0  0
 30 29  1  0  0  0  0
 31 30  1  0  0  0  0
 32 31  1  0  0  0  0
 33  1  1  0  0  0  0
 34 33  1  0  0  0  0
 35 37  1  0  0  0  0
 36 41  2  0  0  0  0
 37 38  2  0  0  0  0
 38 34  1  0  0  0  0
 39 36  1  0  0  0  0
 39 35  2  0  0  0  0
 40 35  1  0  0  0  0
 41 38  1  0  0  0  0
 43 44  1  0  0  0  0
 43 42  1  0  0  0  0
 44 45  1  0  0  0  0
 45 46  1  0  0  0  0
 46 51  1  6  0  0  0
 47 46  1  0  0  0  0
 47 50  1  0  0  0  0
 50 48  2  0  0  0  0
 50 49  1  0  0  0  0
 51 52  1  0  0  0  0
 53 52  1  0  0  0  0
M  END
>  <MODEL>
7

>  <REMARK>
 VINA RESULT:      -2.7      1.516      2.359
  Name = 
  29 active torsions:
  status: ('A' for Active; 'I' for Inactive)
    1  A    between atoms: C_1  and  C_12
    2  A    between atoms: C_1  and  O_36
    3  A    between atoms: C_2  and  C_10
    4  A    between atoms: C_3  and  C_22
    5  A    between atoms: C_4  and  C_13
    6  A    between atoms: C_4  and  C_51
    7  A    between atoms: O_6  and  C_19
    8  A    between atoms: O_6  and  C_40
    9  A    between atoms: C_7  and  C_30
   10  A    between atoms: C_7  and  C_50
   11  A    between atoms: C_8  and  C_9
   12  A    between atoms: C_8  and  C_14
   13  A    between atoms: C_10  and  C_35
   14  A    between atoms: C_12  and  C_31
   15  A    between atoms: C_13  and  O_36
   16  A    between atoms: C_14  and  C_23
   17  A    between atoms: N_15  and  C_19
   18  A    between atoms: C_17  and  C_31
   19  A    between atoms: C_17  and  N_52
   20  A    between atoms: C_22  and  S_38
   21  A    between atoms: C_23  and  C_26
   22  A    between atoms: C_23  and  S_38
   23  A    between atoms: C_26  and  C_32
   24  A    between atoms: O_29  and  C_35
   25  A    between atoms: O_29  and  C_41
   26  A    between atoms: C_32  and  C_43
   27  A    between atoms: C_35  and  C_47
   28  A    between atoms: C_41  and  C_50
   29  A    between atoms: C_42  and  C_47
                            x       y       z     vdW  Elec       q    Type
                         _______ _______ _______ _____ _____    ______ ____

>  <TORSDO>
F 29

$$$$
=
 OpenBabel11042421163D

 53 54  0  0  1  0  0  0  0  0999 V2000
  161.6390  211.7370  151.2950 N   0  0  0  0  0  0  0  0  0  0  0  0
  161.0880  212.4810  150.1500 C   0  0  1  0  0  3  0  0  0  0  0  0
  161.7570  211.8850  148.9850 C   0  0  0  0  0  0  0  0  0  0  0  0
  162.9790  213.4000  147.2480 C   0  0  0  0  0  3  0  0  0  0  0  0
  162.0050  210.4580  150.8230 N   0  0  0  0  0  2  0  0  0  0  0  0
  162.3690  212.6440  148.1150 C   0  0  0  0  0  0  0  0  0  0  0  0
  162.3590  210.6100  149.4150 C   0  0  1  0  0  3  0  0  0  0  0  0
  159.5770  212.3180  149.9630 C   0  0  0  0  0  1  0  0  0  0  0  0
  161.7590  209.4680  148.6170 C   0  0  0  0  0  2  0  0  0  0  0  0
  161.8610  208.1650  149.4010 C   0  0  0  0  0  2  0  0  0  0  0  0
  159.7390  206.6000  149.1130 Cl  0  0  0  0  0  0  0  0  0  0  0  0
  161.4170  206.9310  148.6100 C   0  0  1  0  0  0  0  0  0  0  0  0
  161.4280  207.2840  146.8040 S   0  0  0  0  0  0  0  0  0  0  0  0
  162.3360  205.7800  146.3210 C   0  0  0  0  0  2  0  0  0  0  0  0
  161.4890  204.9440  145.4290 C   0  0  0  0  0  0  0  0  0  0  0  0
  160.9220  205.4700  144.4340 O   0  0  0  0  0  0  0  0  0  0  0  0
  161.2970  203.5610  145.7310 N   0  0  0  0  0  2  0  0  0  0  0  0
  160.5380  202.6670  144.8660 C   0  0  0  0  0  2  0  0  0  0  0  0
  160.0830  201.4130  145.6110 C   0  0  1  0  0  3  0  0  0  0  0  0
  159.8760  200.3470  144.7290 O   0  0  0  0  0  1  0  0  0  0  0  0
  161.0490  201.0280  146.7310 C   0  0  2  0  0  3  0  0  0  0  0  0
  161.5990  199.7650  146.5000 O   0  0  0  0  0  1  0  0  0  0  0  0
  160.3290  201.0410  148.0690 C   0  0  0  0  0  2  0  0  0  0  0  0
  160.2620  202.3470  148.5550 O   0  0  0  0  0  0  0  0  0  0  0  0
  160.0300  202.2020  149.9230 C   0  0  0  0  0  2  0  0  0  0  0  0
  161.2200  201.5320  150.5890 C   0  0  0  0  0  2  0  0  0  0  0  0
  160.7460  203.2650  152.1690 O   0  0  0  0  0  1  0  0  0  0  0  0
  161.4250  202.0580  152.0010 C   0  0  0  0  0  2  0  0  0  0  0  0
  162.2580  205.6980  148.9770 C   0  0  0  0  0  2  0  0  0  0  0  0
  162.0520  205.2180  150.4080 C   0  0  0  0  0  2  0  0  0  0  0  0
  162.8050  206.1230  151.3580 C   0  0  0  0  0  2  0  0  0  0  0  0
  162.7860  205.5700  152.6370 O   0  0  0  0  0  1  0  0  0  0  0  0
  160.6890  211.5770  152.3960 C   0  0  0  0  0  2  0  0  0  0  0  0
  160.1580  210.2570  152.3990 O   0  0  0  0  0  0  0  0  0  0  0  0
  160.1420  209.0640  155.8950 C   0  0  0  0  0  0  0  0  0  0  0  0
  160.6920  207.1980  154.4510 C   0  0  0  0  0  3  0  0  0  0  0  0
  160.0420  209.9000  154.7790 C   0  0  0  0  0  3  0  0  0  0  0  0
  160.2680  209.3940  153.4940 C   0  0  0  0  0  0  0  0  0  0  0  0
  160.4680  207.7130  155.7310 C   0  0  0  0  0  3  0  0  0  0  0  0
  159.9020  209.6090  157.2560 C   0  0  0  0  0  1  0  0  0  0  0  0
  160.5920  208.0350  153.3350 C   0  0  0  0  0  3  0  0  0  0  0  0
  162.5230  213.4240  145.8330 C   0  0  0  0  0  2  0  0  0  0  0  0
  161.0910  212.9360  145.7580 C   0  0  0  0  0  2  0  0  0  0  0  0
  160.6240  212.8940  144.3130 C   0  0  0  0  0  2  0  0  0  0  0  0
  161.6800  212.5110  143.4820 O   0  0  0  0  0  0  0  0  0  0  0  0
  161.0860  212.2360  142.2450 C   0  0  1  0  0  3  0  0  0  0  0  0
  160.2660  213.4320  141.7610 C   0  0  0  0  0  2  0  0  0  0  0  0
  159.0610  211.8400  140.2560 O   0  0  0  0  0  0  0  0  0  0  0  0
  158.0410  213.7690  140.9650 O   0  0  0  0  0  1  0  0  0  0  0  0
  159.0560  213.0250  140.9830 C   0  0  0  0  0  0  0  0  0  0  0  0
  162.1440  211.8470  141.2170 C   0  0  0  0  0  2  0  0  0  0  0  0
  162.7540  213.0750  140.5640 C   0  0  0  0  0  2  0  0  0  0  0  0
  162.2370  213.2380  139.2790 O   0  0  0  0  0  1  0  0  0  0  0  0
  1 33  1  0  0  0  0
  2  8  1  6  0  0  0
  2  1  1  0  0  0  0
  3  7  1  0  0  0  0
  3  2  1  0  0  0  0
  4  6  2  0  0  0  0
  5  1  1  0  0  0  0
  6  3  2  0  0  0  0
  7  9  1  6  0  0  0
  7  5  1  0  0  0  0
  9 10  1  0  0  0  0
 12 29  1  0  0  0  0
 12 11  1  1  0  0  0
 12 10  1  0  0  0  0
 13 12  1  0  0  0  0
 14 13  1  0  0  0  0
 15 17  1  0  0  0  0
 15 14  1  0  0  0  0
 16 15  2  0  0  0  0
 18 19  1  0  0  0  0
 18 17  1  0  0  0  0
 19 20  1  6  0  0  0
 19 21  1  0  0  0  0
 21 22  1  6  0  0  0
 21 23  1  0  0  0  0
 23 24  1  0  0  0  0
 24 25  1  0  0  0  0
 25 26  1  0  0  0  0
 26 28  1  0  0  0  0
 28 27  1  0  0  0  0
 29 30  1  0  0  0  0
 30 31  1  0  0  0  0
 31 32  1  0  0  0  0
 33 34  1  0  0  0  0
 34 38  1  0  0  0  0
 35 40  1  0  0  0  0
 36 39  2  0  0  0  0
 37 35  2  0  0  0  0
 38 37  1  0  0  0  0
 39 35  1  0  0  0  0
 41 38  2  0  0  0  0
 41 36  1  0  0  0  0
 42  4  1  0  0  0  0
 43 42  1  0  0  0  0
 44 43  1  0  0  0  0
 45 44  1  0  0  0  0
 46 51  1  6  0  0  0
 46 45  1  0  0  0  0
 47 46  1  0  0  0  0
 48 50  2  0  0  0  0
 49 50  1  0  0  0  0
 50 47  1  0  0  0  0
 52 51  1  0  0  0  0
 53 52  1  0  0  0  0
M  END
>  <MODEL>
8

>  <REMARK>
 VINA RESULT:      -2.5      2.463     10.017
  Name = 
  29 active torsions:
  status: ('A' for Active; 'I' for Inactive)
    1  A    between atoms: C_1  and  C_12
    2  A    between atoms: C_1  and  O_36
    3  A    between atoms: C_2  and  C_10
    4  A    between atoms: C_3  and  C_22
    5  A    between atoms: C_4  and  C_13
    6  A    between atoms: C_4  and  C_51
    7  A    between atoms: O_6  and  C_19
    8  A    between atoms: O_6  and  C_40
    9  A    between atoms: C_7  and  C_30
   10  A    between atoms: C_7  and  C_50
   11  A    between atoms: C_8  and  C_9
   12  A    between atoms: C_8  and  C_14
   13  A    between atoms: C_10  and  C_35
   14  A    between atoms: C_12  and  C_31
   15  A    between atoms: C_13  and  O_36
   16  A    between atoms: C_14  and  C_23
   17  A    between atoms: N_15  and  C_19
   18  A    between atoms: C_17  and  C_31
   19  A    between atoms: C_17  and  N_52
   20  A    between atoms: C_22  and  S_38
   21  A    between atoms: C_23  and  C_26
   22  A    between atoms: C_23  and  S_38
   23  A    between atoms: C_26  and  C_32
   24  A    between atoms: O_29  and  C_35
   25  A    between atoms: O_29  and  C_41
   26  A    between atoms: C_32  and  C_43
   27  A    between atoms: C_35  and  C_47
   28  A    between atoms: C_41  and  C_50
   29  A    between atoms: C_42  and  C_47
                            x       y       z     vdW  Elec       q    Type
                         _______ _______ _______ _____ _____    ______ ____

>  <TORSDO>
F 29

$$$$
=
 OpenBabel11042421163D

 53 54  0  0  1  0  0  0  0  0999 V2000
  162.9570  206.7940  148.6370 N   0  0  0  0  0  0  0  0  0  0  0  0
  161.7650  206.7490  149.5010 C   0  0  1  0  0  3  0  0  0  0  0  0
  161.5150  208.1580  149.8330 C   0  0  0  0  0  0  0  0  0  0  0  0
  161.2380  208.8990  152.3190 C   0  0  0  0  0  3  0  0  0  0  0  0
  162.9580  208.0490  147.9930 N   0  0  0  0  0  2  0  0  0  0  0  0
  161.3760  208.5290  151.0770 C   0  0  0  0  0  0  0  0  0  0  0  0
  162.2880  208.9870  148.8900 C   0  0  1  0  0  3  0  0  0  0  0  0
  160.5120  206.1940  148.8150 C   0  0  0  0  0  1  0  0  0  0  0  0
  161.3450  209.8660  148.0900 C   0  0  0  0  0  2  0  0  0  0  0  0
  161.2880  211.2640  148.6940 C   0  0  0  0  0  2  0  0  0  0  0  0
  162.9960  212.8880  147.4770 Cl  0  0  0  0  0  0  0  0  0  0  0  0
  161.2940  212.3870  147.6520 C   0  0  1  0  0  0  0  0  0  0  0  0
  160.6970  211.7630  146.0270 S   0  0  0  0  0  0  0  0  0  0  0  0
  159.0710  212.5820  146.0930 C   0  0  0  0  0  2  0  0  0  0  0  0
  158.7460  213.1660  144.7650 C   0  0  0  0  0  0  0  0  0  0  0  0
  157.8920  214.0880  144.6810 O   0  0  0  0  0  0  0  0  0  0  0  0
  159.3790  212.6490  143.5930 N   0  0  0  0  0  2  0  0  0  0  0  0
  159.1610  213.2160  142.2680 C   0  0  0  0  0  2  0  0  0  0  0  0
  160.4220  213.8890  141.7280 C   0  0  1  0  0  3  0  0  0  0  0  0
  161.5530  213.4990  142.4510 O   0  0  0  0  0  1  0  0  0  0  0  0
  160.6070  213.6420  140.2310 C   0  0  2  0  0  3  0  0  0  0  0  0
  159.3760  213.6540  139.5690 O   0  0  0  0  0  1  0  0  0  0  0  0
  161.3030  212.3110  140.0030 C   0  0  0  0  0  2  0  0  0  0  0  0
  160.7470  211.6730  138.8940 O   0  0  0  0  0  0  0  0  0  0  0  0
  160.5690  210.3500  139.3000 C   0  0  0  0  0  2  0  0  0  0  0  0
  159.5900  209.6450  138.3760 C   0  0  0  0  0  2  0  0  0  0  0  0
  161.0980  207.8410  138.8190 O   0  0  0  0  0  1  0  0  0  0  0  0
  160.1400  208.3050  137.9160 C   0  0  0  0  0  2  0  0  0  0  0  0
  160.5030  213.6100  148.1430 C   0  0  0  0  0  2  0  0  0  0  0  0
  159.5960  213.3180  149.3300 C   0  0  0  0  0  2  0  0  0  0  0  0
  159.9590  214.2300  150.4810 C   0  0  0  0  0  2  0  0  0  0  0  0
  158.9390  214.2060  151.4310 O   0  0  0  0  0  1  0  0  0  0  0  0
  162.9770  205.7430  147.6180 C   0  0  0  0  0  2  0  0  0  0  0  0
  162.0080  206.0160  146.6120 O   0  0  0  0  0  0  0  0  0  0  0  0
  160.7290  202.6620  145.7430 C   0  0  0  0  0  0  0  0  0  0  0  0
  159.7260  204.2770  144.2430 C   0  0  0  0  0  3  0  0  0  0  0  0
  161.4330  203.6890  146.3800 C   0  0  0  0  0  3  0  0  0  0  0  0
  161.2910  205.0140  145.9530 C   0  0  0  0  0  0  0  0  0  0  0  0
  159.8770  202.9560  144.6740 C   0  0  0  0  0  3  0  0  0  0  0  0
  160.8870  201.2580  146.2020 C   0  0  0  0  0  1  0  0  0  0  0  0
  160.4300  205.3030  144.8800 C   0  0  0  0  0  3  0  0  0  0  0  0
  159.9620  209.5080  152.7740 C   0  0  0  0  0  2  0  0  0  0  0  0
  160.2590  210.7040  153.6540 C   0  0  0  0  0  2  0  0  0  0  0  0
  159.3270  211.8540  153.3140 C   0  0  0  0  0  2  0  0  0  0  0  0
  158.0130  211.5180  153.6510 O   0  0  0  0  0  0  0  0  0  0  0  0
  157.7900  212.1280  154.8910 C   0  0  1  0  0  3  0  0  0  0  0  0
  156.7660  213.2560  154.7610 C   0  0  0  0  0  2  0  0  0  0  0  0
  154.9600  212.3660  156.2440 O   0  0  0  0  0  0  0  0  0  0  0  0
  155.9450  214.3880  156.6960 O   0  0  0  0  0  1  0  0  0  0  0  0
  155.8780  213.3690  155.9600 C   0  0  0  0  0  0  0  0  0  0  0  0
  157.3390  211.0980  155.9220 C   0  0  0  0  0  2  0  0  0  0  0  0
  158.1850  211.1770  157.1820 C   0  0  0  0  0  2  0  0  0  0  0  0
  159.4990  211.5100  156.8530 O   0  0  0  0  0  1  0  0  0  0  0  0
  1  2  1  0  0  0  0
  2  8  1  6  0  0  0
  2  3  1  0  0  0  0
  3  6  2  0  0  0  0
  4 42  1  0  0  0  0
  5  1  1  0  0  0  0
  5  7  1  0  0  0  0
  6  4  2  0  0  0  0
  7  9  1  6  0  0  0
  7  3  1  0  0  0  0
  9 10  1  0  0  0  0
 12 11  1  6  0  0  0
 12 29  1  0  0  0  0
 12 10  1  0  0  0  0
 13 14  1  0  0  0  0
 13 12  1  0  0  0  0
 15 14  1  0  0  0  0
 16 15  2  0  0  0  0
 17 15  1  0  0  0  0
 18 17  1  0  0  0  0
 19 18  1  0  0  0  0
 19 20  1  1  0  0  0
 21 22  1  6  0  0  0
 21 19  1  0  0  0  0
 23 21  1  0  0  0  0
 24 25  1  0  0  0  0
 24 23  1  0  0  0  0
 26 25  1  0  0  0  0
 28 26  1  0  0  0  0
 28 27  1  0  0  0  0
 29 30  1  0  0  0  0
 30 31  1  0  0  0  0
 31 32  1  0  0  0  0
 33  1  1  0  0  0  0
 34 33  1  0  0  0  0
 35 40  1  0  0  0  0
 35 37  1  0  0  0  0
 36 39  1  0  0  0  0
 36 41  2  0  0  0  0
 38 37  2  0  0  0  0
 38 34  1  0  0  0  0
 39 35  2  0  0  0  0
 41 38  1  0  0  0  0
 42 43  1  0  0  0  0
 44 45  1  0  0  0  0
 44 43  1  0  0  0  0
 45 46  1  0  0  0  0
 46 47  1  6  0  0  0
 46 51  1  0  0  0  0
 47 50  1  0  0  0  0
 50 48  2  0  0  0  0
 50 49  1  0  0  0  0
 51 52  1  0  0  0  0
 53 52  1  0  0  0  0
M  END
>  <MODEL>
9

>  <REMARK>
 VINA RESULT:      -2.4      2.595      4.997
  Name = 
  29 active torsions:
  status: ('A' for Active; 'I' for Inactive)
    1  A    between atoms: C_1  and  C_12
    2  A    between atoms: C_1  and  O_36
    3  A    between atoms: C_2  and  C_10
    4  A    between atoms: C_3  and  C_22
    5  A    between atoms: C_4  and  C_13
    6  A    between atoms: C_4  and  C_51
    7  A    between atoms: O_6  and  C_19
    8  A    between atoms: O_6  and  C_40
    9  A    between atoms: C_7  and  C_30
   10  A    between atoms: C_7  and  C_50
   11  A    between atoms: C_8  and  C_9
   12  A    between atoms: C_8  and  C_14
   13  A    between atoms: C_10  and  C_35
   14  A    between atoms: C_12  and  C_31
   15  A    between atoms: C_13  and  O_36
   16  A    between atoms: C_14  and  C_23
   17  A    between atoms: N_15  and  C_19
   18  A    between atoms: C_17  and  C_31
   19  A    between atoms: C_17  and  N_52
   20  A    between atoms: C_22  and  S_38
   21  A    between atoms: C_23  and  C_26
   22  A    between atoms: C_23  and  S_38
   23  A    between atoms: C_26  and  C_32
   24  A    between atoms: O_29  and  C_35
   25  A    between atoms: O_29  and  C_41
   26  A    between atoms: C_32  and  C_43
   27  A    between atoms: C_35  and  C_47
   28  A    between atoms: C_41  and  C_50
   29  A    between atoms: C_42  and  C_47
                            x       y       z     vdW  Elec       q    Type
                         _______ _______ _______ _____ _____    ______ ____

>  <TORSDO>
F 29

$$$$
