=
 OpenBabel11042420253D

 36 41  0  0  1  0  0  0  0  0999 V2000
  161.6250  210.0140  150.7000 C   0  0  0  0  0  0  0  0  0  0  0  0
  158.6130  211.9620  153.0200 C   0  0  0  0  0  3  0  0  0  0  0  0
  161.3500  206.3190  150.0630 C   0  0  0  0  0  0  0  0  0  0  0  0
  160.0140  212.0180  154.9960 C   0  0  0  0  0  0  0  0  0  0  0  0
  161.1070  211.6480  155.7920 O   0  0  0  0  0  0  0  0  0  0  0  0
  159.7550  211.4980  153.6950 C   0  0  0  0  0  0  0  0  0  0  0  0
  161.1240  209.2970  153.6690 C   0  0  0  0  0  0  0  0  0  0  0  0
  162.1670  207.7070  149.2810 S   0  0  0  0  0  0  0  0  0  0  0  0
  162.1000  210.6880  155.4600 C   0  0  2  0  0  3  0  0  0  0  0  0
  160.6140  210.5150  152.9780 C   0  0  0  0  0  0  0  0  0  0  0  0
  161.4730  209.3450  155.1160 C   0  0  1  0  0  3  0  0  0  0  0  0
  158.0530  213.3750  154.8700 C   0  0  0  0  0  3  0  0  0  0  0  0
  161.6400  208.6750  150.7000 C   0  0  0  0  0  0  0  0  0  0  0  0
  161.0360  207.8910  151.7230 N   0  0  0  0  0  0  0  0  0  0  0  0
  161.2340  208.1410  153.0880 N   0  0  0  0  0  0  0  0  0  0  0  0
  163.0480  210.5230  156.6290 C   0  0  0  0  0  1  0  0  0  0  0  0
  160.8730  206.5540  151.2780 C   0  0  0  0  0  3  0  0  0  0  0  0
  159.1550  212.9320  155.5260 N   0  0  0  0  0  0  0  0  0  0  0  0
  160.3500  209.0790  155.9060 O   0  0  0  0  0  1  0  0  0  0  0  0
  157.7610  212.8950  153.6000 C   0  0  0  0  0  3  0  0  0  0  0  0
  160.8970  210.8040  151.7010 C   0  0  0  0  0  3  0  0  0  0  0  0
  161.2210  204.9960  149.3890 C   0  0  0  0  0  2  0  0  0  0  0  0
  160.7730  203.9350  150.3760 C   0  0  0  0  0  2  0  0  0  0  0  0
  161.1030  202.7550  148.2310 C   0  0  0  0  0  1  0  0  0  0  0  0
  160.7830  202.5810  149.7000 C   0  0  0  0  0  2  0  0  0  0  0  0
  162.1690  210.7780  149.5350 C   0  0  0  0  0  2  0  0  0  0  0  0
  161.5280  212.1540  149.4630 C   0  0  0  0  0  2  0  0  0  0  0  0
  162.5670  212.3370  147.3320 O   0  0  0  0  0  0  0  0  0  0  0  0
  161.5930  212.6600  148.0610 C   0  0  0  0  0  0  0  0  0  0  0  0
  160.5930  213.5440  147.5490 N   0  0  0  0  0  2  0  0  0  0  0  0
  159.4170  213.9110  148.3250 C   0  0  0  0  0  2  0  0  0  0  0  0
  157.1230  213.1000  148.9590 C   0  0  0  0  0  2  0  0  0  0  0  0
  157.7580  213.2640  146.5430 C   0  0  1  0  0  3  0  0  0  0  0  0
  157.0710  213.9460  147.7060 C   0  0  2  0  0  3  0  0  0  0  0  0
  158.2520  213.0190  147.9540 C   0  0  2  0  0  0  0  0  0  0  0  0
  156.9940  212.1770  146.1180 O   0  0  0  0  0  1  0  0  0  0  0  0
  1 21  1  0  0  0  0
  2 20  1  0  0  0  0
  2  6  2  0  0  0  0
  3 17  2  0  0  0  0
  4 18  2  0  0  0  0
  4  5  1  0  0  0  0
  6  4  1  0  0  0  0
  7 11  1  0  0  0  0
  8  3  1  0  0  0  0
  8 13  1  0  0  0  0
  9  5  1  0  0  0  0
  9 16  1  1  0  0  0
 10  7  1  0  0  0  0
 10  6  1  0  0  0  0
 11  9  1  0  0  0  0
 11 19  1  1  0  0  0
 12 18  1  0  0  0  0
 13  1  2  0  0  0  0
 13 14  1  0  0  0  0
 14 15  1  0  0  0  0
 15  7  2  0  0  0  0
 17 14  1  0  0  0  0
 20 12  2  0  0  0  0
 21 10  2  0  0  0  0
 22  3  1  0  0  0  0
 22 23  1  0  0  0  0
 24 25  1  0  0  0  0
 25 23  1  0  0  0  0
 26  1  1  0  0  0  0
 27 26  1  0  0  0  0
 28 29  2  0  0  0  0
 29 27  1  0  0  0  0
 30 29  1  0  0  0  0
 30 31  1  0  0  0  0
 33 36  1  1  0  0  0
 33 34  1  0  0  0  0
 33 35  1  0  0  0  0
 34 35  1  0  0  0  0
 34 32  1  1  0  0  0
 35 31  1  1  0  0  0
 35 32  1  0  0  0  0
M  END
>  <MODEL>
1

>  <REMARK>
 VINA RESULT:      -7.8      0.000      0.000
  Name = 
  8 active torsions:
  status: ('A' for Active; 'I' for Inactive)
    1  A    between atoms: C_1  and  C_33
    2  A    between atoms: C_3  and  C_12
    3  A    between atoms: C_12  and  C_22
    4  A    between atoms: C_16  and  C_26
    5  A    between atoms: C_16  and  N_31
    6  A    between atoms: C_22  and  C_23
    7  A    between atoms: C_24  and  C_34
    8  A    between atoms: C_33  and  C_34
                            x       y       z     vdW  Elec       q    Type
                         _______ _______ _______ _____ _____    ______ ____

>  <TORSDO>
F 8

$$$$
=
 OpenBabel11042420253D

 36 41  0  0  1  0  0  0  0  0999 V2000
  161.9960  208.1190  151.6450 C   0  0  0  0  0  0  0  0  0  0  0  0
  159.1030  210.9850  152.9390 C   0  0  0  0  0  3  0  0  0  0  0  0
  161.2960  204.4570  152.1280 C   0  0  0  0  0  0  0  0  0  0  0  0
  160.3590  211.5140  154.9410 C   0  0  0  0  0  0  0  0  0  0  0  0
  161.3390  211.3030  155.9230 O   0  0  0  0  0  0  0  0  0  0  0  0
  160.1270  210.6430  153.8390 C   0  0  0  0  0  0  0  0  0  0  0  0
  161.2030  208.4180  154.6220 C   0  0  0  0  0  0  0  0  0  0  0  0
  162.3360  205.4430  151.0540 S   0  0  0  0  0  0  0  0  0  0  0  0
  162.2210  210.1930  156.0020 C   0  0  2  0  0  3  0  0  0  0  0  0
  160.9010  209.4040  153.5460 C   0  0  0  0  0  0  0  0  0  0  0  0
  161.4530  208.8810  156.0160 C   0  0  1  0  0  3  0  0  0  0  0  0
  158.6010  212.9530  154.2060 C   0  0  0  0  0  3  0  0  0  0  0  0
  161.8390  206.8530  152.0510 C   0  0  0  0  0  0  0  0  0  0  0  0
  161.0710  206.4920  153.1930 N   0  0  0  0  0  0  0  0  0  0  0  0
  161.2040  207.1330  154.4320 N   0  0  0  0  0  0  0  0  0  0  0  0
  163.0570  210.3080  157.2600 C   0  0  0  0  0  1  0  0  0  0  0  0
  160.7700  205.1050  153.1580 C   0  0  0  0  0  3  0  0  0  0  0  0
  159.5890  212.6290  155.0780 N   0  0  0  0  0  0  0  0  0  0  0  0
  160.2540  208.9870  156.7260 O   0  0  0  0  0  1  0  0  0  0  0  0
  158.3390  212.1320  153.1170 C   0  0  0  0  0  3  0  0  0  0  0  0
  161.3070  209.2510  152.2790 C   0  0  0  0  0  3  0  0  0  0  0  0
  161.0470  203.0100  151.8750 C   0  0  0  0  0  2  0  0  0  0  0  0
  160.6910  202.7760  150.4190 C   0  0  0  0  0  2  0  0  0  0  0  0
  161.2000  201.1420  148.6360 C   0  0  0  0  0  1  0  0  0  0  0  0
  160.8320  201.3040  150.0960 C   0  0  0  0  0  2  0  0  0  0  0  0
  162.7120  208.4230  150.3690 C   0  0  0  0  0  2  0  0  0  0  0  0
  162.3410  207.4080  149.3010 C   0  0  0  0  0  2  0  0  0  0  0  0
  161.4430  209.3360  148.2390 O   0  0  0  0  0  0  0  0  0  0  0  0
  161.5730  208.0850  148.2150 C   0  0  0  0  0  0  0  0  0  0  0  0
  160.9430  207.3300  147.1770 N   0  0  0  0  0  2  0  0  0  0  0  0
  161.1010  205.8870  147.0670 C   0  0  0  0  0  2  0  0  0  0  0  0
  162.8220  204.4140  145.9760 C   0  0  0  0  0  2  0  0  0  0  0  0
  160.8860  205.2640  144.6360 C   0  0  1  0  0  3  0  0  0  0  0  0
  161.4380  204.1120  145.4470 C   0  0  2  0  0  3  0  0  0  0  0  0
  161.8310  205.5420  145.7870 C   0  0  2  0  0  0  0  0  0  0  0  0
  161.5780  205.3600  143.4280 O   0  0  0  0  0  1  0  0  0  0  0  0
  1 13  2  0  0  0  0
  1 21  1  0  0  0  0
  2 20  1  0  0  0  0
  2  6  2  0  0  0  0
  3 17  2  0  0  0  0
  4 18  2  0  0  0  0
  4  5  1  0  0  0  0
  5  9  1  0  0  0  0
  6  4  1  0  0  0  0
  7 11  1  0  0  0  0
  8 13  1  0  0  0  0
  8  3  1  0  0  0  0
  9 11  1  0  0  0  0
  9 16  1  1  0  0  0
 10  6  1  0  0  0  0
 10  7  1  0  0  0  0
 11 19  1  6  0  0  0
 12 18  1  0  0  0  0
 13 14  1  0  0  0  0
 14 15  1  0  0  0  0
 15  7  2  0  0  0  0
 17 14  1  0  0  0  0
 20 12  2  0  0  0  0
 21 10  2  0  0  0  0
 22  3  1  0  0  0  0
 23 22  1  0  0  0  0
 24 25  1  0  0  0  0
 25 23  1  0  0  0  0
 26  1  1  0  0  0  0
 27 26  1  0  0  0  0
 29 28  2  0  0  0  0
 29 27  1  0  0  0  0
 30 29  1  0  0  0  0
 31 30  1  0  0  0  0
 33 36  1  6  0  0  0
 33 34  1  0  0  0  0
 33 35  1  0  0  0  0
 34 35  1  0  0  0  0
 34 32  1  6  0  0  0
 35 32  1  0  0  0  0
 35 31  1  1  0  0  0
M  END
>  <MODEL>
2

>  <REMARK>
 VINA RESULT:      -7.6      3.002      4.414
  Name = 
  8 active torsions:
  status: ('A' for Active; 'I' for Inactive)
    1  A    between atoms: C_1  and  C_33
    2  A    between atoms: C_3  and  C_12
    3  A    between atoms: C_12  and  C_22
    4  A    between atoms: C_16  and  C_26
    5  A    between atoms: C_16  and  N_31
    6  A    between atoms: C_22  and  C_23
    7  A    between atoms: C_24  and  C_34
    8  A    between atoms: C_33  and  C_34
                            x       y       z     vdW  Elec       q    Type
                         _______ _______ _______ _____ _____    ______ ____

>  <TORSDO>
F 8

$$$$
=
 OpenBabel11042420253D

 36 41  0  0  1  0  0  0  0  0999 V2000
  161.7710  209.9510  150.6420 C   0  0  0  0  0  0  0  0  0  0  0  0
  158.7340  211.9860  152.8530 C   0  0  0  0  0  3  0  0  0  0  0  0
  161.3340  206.3010  149.8530 C   0  0  0  0  0  0  0  0  0  0  0  0
  160.0130  211.8950  154.9080 C   0  0  0  0  0  0  0  0  0  0  0  0
  161.0340  211.4370  155.7530 O   0  0  0  0  0  0  0  0  0  0  0  0
  159.8060  211.4360  153.5760 C   0  0  0  0  0  0  0  0  0  0  0  0
  161.0520  209.1630  153.5480 C   0  0  0  0  0  0  0  0  0  0  0  0
  162.2710  207.6670  149.1720 S   0  0  0  0  0  0  0  0  0  0  0  0
  161.9910  210.4340  155.4440 C   0  0  2  0  0  3  0  0  0  0  0  0
  160.6520  210.4300  152.8740 C   0  0  0  0  0  0  0  0  0  0  0  0
  161.3140  209.1420  155.0140 C   0  0  1  0  0  3  0  0  0  0  0  0
  158.1400  213.3650  154.7180 C   0  0  0  0  0  3  0  0  0  0  0  0
  161.7120  208.6130  150.5940 C   0  0  0  0  0  0  0  0  0  0  0  0
  161.0050  207.8310  151.5490 N   0  0  0  0  0  0  0  0  0  0  0  0
  161.1340  208.0220  152.9310 N   0  0  0  0  0  0  0  0  0  0  0  0
  162.8560  210.1760  156.6600 C   0  0  0  0  0  1  0  0  0  0  0  0
  160.7970  206.5210  151.0450 C   0  0  0  0  0  3  0  0  0  0  0  0
  159.1740  212.8380  155.4210 N   0  0  0  0  0  0  0  0  0  0  0  0
  160.1330  208.9120  155.7260 O   0  0  0  0  0  1  0  0  0  0  0  0
  157.9000  212.9450  153.4160 C   0  0  0  0  0  3  0  0  0  0  0  0
  161.0270  210.7470  151.6280 C   0  0  0  0  0  3  0  0  0  0  0  0
  161.1750  205.0110  149.1240 C   0  0  0  0  0  2  0  0  0  0  0  0
  161.1070  203.8510  150.0990 C   0  0  0  0  0  2  0  0  0  0  0  0
  161.0340  201.3820  150.0990 C   0  0  0  0  0  1  0  0  0  0  0  0
  160.5530  202.6320  149.3940 C   0  0  0  0  0  2  0  0  0  0  0  0
  162.4250  210.7220  149.5410 C   0  0  0  0  0  2  0  0  0  0  0  0
  161.5230  211.8570  149.0860 C   0  0  0  0  0  2  0  0  0  0  0  0
  163.3920  212.3750  147.7090 O   0  0  0  0  0  0  0  0  0  0  0  0
  162.1820  212.5990  147.9710 C   0  0  0  0  0  0  0  0  0  0  0  0
  161.4730  213.5950  147.2290 N   0  0  0  0  0  2  0  0  0  0  0  0
  160.0600  213.8620  147.4500 C   0  0  0  0  0  2  0  0  0  0  0  0
  159.4130  212.3690  145.5320 C   0  0  0  0  0  2  0  0  0  0  0  0
  157.8550  214.1830  146.2730 C   0  0  1  0  0  3  0  0  0  0  0  0
  158.2080  212.7160  146.3780 C   0  0  2  0  0  3  0  0  0  0  0  0
  159.3010  213.7490  146.1440 C   0  0  2  0  0  0  0  0  0  0  0  0
  157.3320  214.4500  145.0070 O   0  0  0  0  0  1  0  0  0  0  0  0
  1 21  1  0  0  0  0
  2 20  1  0  0  0  0
  2  6  2  0  0  0  0
  3 17  2  0  0  0  0
  4 18  2  0  0  0  0
  4  5  1  0  0  0  0
  6  4  1  0  0  0  0
  7 11  1  0  0  0  0
  8  3  1  0  0  0  0
  8 13  1  0  0  0  0
  9  5  1  0  0  0  0
  9 16  1  1  0  0  0
 10  7  1  0  0  0  0
 10  6  1  0  0  0  0
 11  9  1  0  0  0  0
 11 19  1  1  0  0  0
 12 18  1  0  0  0  0
 13  1  2  0  0  0  0
 13 14  1  0  0  0  0
 14 15  1  0  0  0  0
 15  7  2  0  0  0  0
 17 14  1  0  0  0  0
 20 12  2  0  0  0  0
 21 10  2  0  0  0  0
 22  3  1  0  0  0  0
 22 23  1  0  0  0  0
 25 24  1  0  0  0  0
 25 23  1  0  0  0  0
 26  1  1  0  0  0  0
 27 26  1  0  0  0  0
 28 29  2  0  0  0  0
 29 27  1  0  0  0  0
 30 31  1  0  0  0  0
 30 29  1  0  0  0  0
 32 35  1  0  0  0  0
 33 36  1  6  0  0  0
 33 34  1  0  0  0  0
 34 32  1  6  0  0  0
 35 33  1  0  0  0  0
 35 34  1  0  0  0  0
 35 31  1  1  0  0  0
M  END
>  <MODEL>
3

>  <REMARK>
 VINA RESULT:      -7.5      0.866      1.115
  Name = 
  8 active torsions:
  status: ('A' for Active; 'I' for Inactive)
    1  A    between atoms: C_1  and  C_33
    2  A    between atoms: C_3  and  C_12
    3  A    between atoms: C_12  and  C_22
    4  A    between atoms: C_16  and  C_26
    5  A    between atoms: C_16  and  N_31
    6  A    between atoms: C_22  and  C_23
    7  A    between atoms: C_24  and  C_34
    8  A    between atoms: C_33  and  C_34
                            x       y       z     vdW  Elec       q    Type
                         _______ _______ _______ _____ _____    ______ ____

>  <TORSDO>
F 8

$$$$
=
 OpenBabel11042420253D

 36 41  0  0  1  0  0  0  0  0999 V2000
  161.7060  209.4440  150.9910 C   0  0  0  0  0  0  0  0  0  0  0  0
  162.7120  210.6720  154.9570 C   0  0  0  0  0  3  0  0  0  0  0  0
  162.0280  211.9070  148.1690 C   0  0  0  0  0  0  0  0  0  0  0  0
  160.3870  210.9410  155.5830 C   0  0  0  0  0  0  0  0  0  0  0  0
  159.0120  211.0740  155.3440 O   0  0  0  0  0  0  0  0  0  0  0  0
  161.3680  210.7880  154.5620 C   0  0  0  0  0  0  0  0  0  0  0  0
  160.1560  211.6880  152.4550 C   0  0  0  0  0  0  0  0  0  0  0  0
  162.0050  210.1240  148.3310 S   0  0  0  0  0  0  0  0  0  0  0  0
  158.3820  211.1140  154.0720 C   0  0  2  0  0  3  0  0  0  0  0  0
  161.0830  210.7170  153.1020 C   0  0  0  0  0  0  0  0  0  0  0  0
  158.9750  212.2080  153.1980 C   0  0  1  0  0  3  0  0  0  0  0  0
  162.0850  210.8570  157.2610 C   0  0  0  0  0  3  0  0  0  0  0  0
  161.5890  210.3970  150.0570 C   0  0  0  0  0  0  0  0  0  0  0  0
  161.3440  211.7640  150.3680 N   0  0  0  0  0  0  0  0  0  0  0  0
  160.3470  212.1720  151.2650 N   0  0  0  0  0  0  0  0  0  0  0  0
  156.8980  211.3570  154.2560 C   0  0  0  0  0  1  0  0  0  0  0  0
  161.6450  212.5790  149.2460 C   0  0  0  0  0  3  0  0  0  0  0  0
  160.7860  210.9690  156.8850 N   0  0  0  0  0  0  0  0  0  0  0  0
  159.3180  213.3400  153.9450 O   0  0  0  0  0  1  0  0  0  0  0  0
  163.0760  210.7080  156.2990 C   0  0  0  0  0  3  0  0  0  0  0  0
  161.6960  209.7330  152.4310 C   0  0  0  0  0  3  0  0  0  0  0  0
  162.4480  212.5800  146.9080 C   0  0  0  0  0  2  0  0  0  0  0  0
  161.2410  213.1050  146.1550 C   0  0  0  0  0  2  0  0  0  0  0  0
  163.0240  213.3960  144.4690 C   0  0  0  0  0  1  0  0  0  0  0  0
  161.7030  213.9350  144.9770 C   0  0  0  0  0  2  0  0  0  0  0  0
  162.0860  208.0500  150.6080 C   0  0  0  0  0  2  0  0  0  0  0  0
  160.8470  207.1740  150.5130 C   0  0  0  0  0  2  0  0  0  0  0  0
  161.4810  205.5350  152.1150 O   0  0  0  0  0  0  0  0  0  0  0  0
  161.1930  205.7790  150.9150 C   0  0  0  0  0  0  0  0  0  0  0  0
  161.2480  204.7260  149.9490 N   0  0  0  0  0  2  0  0  0  0  0  0
  160.8750  204.9350  148.5580 C   0  0  0  0  0  2  0  0  0  0  0  0
  161.3620  202.9730  147.0620 C   0  0  0  0  0  2  0  0  0  0  0  0
  162.3920  205.2000  146.5640 C   0  0  1  0  0  3  0  0  0  0  0  0
  161.2530  204.2500  146.2600 C   0  0  2  0  0  3  0  0  0  0  0  0
  161.8830  204.2690  147.6460 C   0  0  2  0  0  0  0  0  0  0  0  0
  163.5780  204.6950  146.0320 O   0  0  0  0  0  1  0  0  0  0  0  0
  1 21  1  0  0  0  0
  2 20  1  0  0  0  0
  3  8  1  0  0  0  0
  3 17  2  0  0  0  0
  4 18  2  0  0  0  0
  5  4  1  0  0  0  0
  6  2  2  0  0  0  0
  6  4  1  0  0  0  0
  7 10  1  0  0  0  0
  7 11  1  0  0  0  0
  8 13  1  0  0  0  0
  9 16  1  1  0  0  0
  9  5  1  0  0  0  0
 10  6  1  0  0  0  0
 11 19  1  1  0  0  0
 11  9  1  0  0  0  0
 13 14  1  0  0  0  0
 13  1  2  0  0  0  0
 14 15  1  0  0  0  0
 15  7  2  0  0  0  0
 17 14  1  0  0  0  0
 18 12  1  0  0  0  0
 20 12  2  0  0  0  0
 21 10  2  0  0  0  0
 22  3  1  0  0  0  0
 23 22  1  0  0  0  0
 24 25  1  0  0  0  0
 25 23  1  0  0  0  0
 26  1  1  0  0  0  0
 27 26  1  0  0  0  0
 27 29  1  0  0  0  0
 29 28  2  0  0  0  0
 30 29  1  0  0  0  0
 31 30  1  0  0  0  0
 32 35  1  0  0  0  0
 33 36  1  6  0  0  0
 33 35  1  0  0  0  0
 34 33  1  0  0  0  0
 34 32  1  6  0  0  0
 34 35  1  0  0  0  0
 35 31  1  1  0  0  0
M  END
>  <MODEL>
4

>  <REMARK>
 VINA RESULT:      -6.3      2.903      6.744
  Name = 
  8 active torsions:
  status: ('A' for Active; 'I' for Inactive)
    1  A    between atoms: C_1  and  C_33
    2  A    between atoms: C_3  and  C_12
    3  A    between atoms: C_12  and  C_22
    4  A    between atoms: C_16  and  C_26
    5  A    between atoms: C_16  and  N_31
    6  A    between atoms: C_22  and  C_23
    7  A    between atoms: C_24  and  C_34
    8  A    between atoms: C_33  and  C_34
                            x       y       z     vdW  Elec       q    Type
                         _______ _______ _______ _____ _____    ______ ____

>  <TORSDO>
F 8

$$$$
=
 OpenBabel11042420253D

 36 41  0  0  1  0  0  0  0  0999 V2000
  161.6840  208.2960  151.8960 C   0  0  0  0  0  0  0  0  0  0  0  0
  158.8510  211.1630  153.3110 C   0  0  0  0  0  3  0  0  0  0  0  0
  161.1320  204.6510  152.6330 C   0  0  0  0  0  0  0  0  0  0  0  0
  160.2760  211.8280  155.1530 C   0  0  0  0  0  0  0  0  0  0  0  0
  161.3500  211.6930  156.0460 O   0  0  0  0  0  0  0  0  0  0  0  0
  159.9650  210.8940  154.1250 C   0  0  0  0  0  0  0  0  0  0  0  0
  161.1690  208.7390  154.9160 C   0  0  0  0  0  0  0  0  0  0  0  0
  162.0380  205.5990  151.4140 S   0  0  0  0  0  0  0  0  0  0  0  0
  162.2660  210.6080  156.0970 C   0  0  2  0  0  3  0  0  0  0  0  0
  160.7410  209.6580  153.8240 C   0  0  0  0  0  0  0  0  0  0  0  0
  161.5390  209.2810  156.2530 C   0  0  1  0  0  3  0  0  0  0  0  0
  158.4180  213.1860  154.5170 C   0  0  0  0  0  3  0  0  0  0  0  0
  161.6010  207.0500  152.3810 C   0  0  0  0  0  0  0  0  0  0  0  0
  160.9540  206.7350  153.6090 N   0  0  0  0  0  0  0  0  0  0  0  0
  161.1880  207.4460  154.7930 N   0  0  0  0  0  0  0  0  0  0  0  0
  163.2140  210.8090  157.2610 C   0  0  0  0  0  1  0  0  0  0  0  0
  160.6880  205.3420  153.6740 C   0  0  0  0  0  3  0  0  0  0  0  0
  159.4930  212.9310  155.3050 N   0  0  0  0  0  0  0  0  0  0  0  0
  160.4100  209.4000  157.0690 O   0  0  0  0  0  1  0  0  0  0  0  0
  158.0760  212.3020  153.5020 C   0  0  0  0  0  3  0  0  0  0  0  0
  161.0280  209.4450  152.5330 C   0  0  0  0  0  3  0  0  0  0  0  0
  160.8990  203.1870  152.4810 C   0  0  0  0  0  2  0  0  0  0  0  0
  161.7830  202.6170  151.3880 C   0  0  0  0  0  2  0  0  0  0  0  0
  160.4910  202.5220  149.2840 C   0  0  0  0  0  1  0  0  0  0  0  0
  160.9560  201.7270  150.4850 C   0  0  0  0  0  2  0  0  0  0  0  0
  162.2670  208.5460  150.5420 C   0  0  0  0  0  2  0  0  0  0  0  0
  161.2570  208.1970  149.4610 C   0  0  0  0  0  2  0  0  0  0  0  0
  162.1670  207.5710  147.3560 O   0  0  0  0  0  0  0  0  0  0  0  0
  161.8340  208.5120  148.1210 C   0  0  0  0  0  0  0  0  0  0  0  0
  162.0590  209.8640  147.7150 N   0  0  0  0  0  2  0  0  0  0  0  0
  161.6470  210.9950  148.5340 C   0  0  0  0  0  2  0  0  0  0  0  0
  160.8090  213.3630  148.4240 C   0  0  0  0  0  2  0  0  0  0  0  0
  162.7070  212.6490  146.9570 C   0  0  1  0  0  3  0  0  0  0  0  0
  162.3110  213.3130  148.2580 C   0  0  2  0  0  3  0  0  0  0  0  0
  161.4390  212.2160  147.6640 C   0  0  2  0  0  0  0  0  0  0  0  0
  162.3860  213.4840  145.8870 O   0  0  0  0  0  1  0  0  0  0  0  0
  1 13  2  0  0  0  0
  1 21  1  0  0  0  0
  2 20  1  0  0  0  0
  2  6  2  0  0  0  0
  3 17  2  0  0  0  0
  4 18  2  0  0  0  0
  4  5  1  0  0  0  0
  5  9  1  0  0  0  0
  6  4  1  0  0  0  0
  7 11  1  0  0  0  0
  8 13  1  0  0  0  0
  8  3  1  0  0  0  0
  9 11  1  0  0  0  0
  9 16  1  1  0  0  0
 10  6  1  0  0  0  0
 10  7  1  0  0  0  0
 11 19  1  1  0  0  0
 12 18  1  0  0  0  0
 13 14  1  0  0  0  0
 14 17  1  0  0  0  0
 14 15  1  0  0  0  0
 15  7  2  0  0  0  0
 20 12  2  0  0  0  0
 21 10  2  0  0  0  0
 22  3  1  0  0  0  0
 23 22  1  0  0  0  0
 24 25  1  0  0  0  0
 25 23  1  0  0  0  0
 26  1  1  0  0  0  0
 27 26  1  0  0  0  0
 28 29  2  0  0  0  0
 29 27  1  0  0  0  0
 30 29  1  0  0  0  0
 30 31  1  0  0  0  0
 33 36  1  6  0  0  0
 33 35  1  0  0  0  0
 33 34  1  0  0  0  0
 34 32  1  6  0  0  0
 35 34  1  0  0  0  0
 35 32  1  0  0  0  0
 35 31  1  1  0  0  0
M  END
>  <MODEL>
5

>  <REMARK>
 VINA RESULT:      -5.9      2.049      2.767
  Name = 
  8 active torsions:
  status: ('A' for Active; 'I' for Inactive)
    1  A    between atoms: C_1  and  C_33
    2  A    between atoms: C_3  and  C_12
    3  A    between atoms: C_12  and  C_22
    4  A    between atoms: C_16  and  C_26
    5  A    between atoms: C_16  and  N_31
    6  A    between atoms: C_22  and  C_23
    7  A    between atoms: C_24  and  C_34
    8  A    between atoms: C_33  and  C_34
                            x       y       z     vdW  Elec       q    Type
                         _______ _______ _______ _____ _____    ______ ____

>  <TORSDO>
F 8

$$$$
=
 OpenBabel11042420253D

 36 41  0  0  1  0  0  0  0  0999 V2000
  161.6660  209.8550  150.8700 C   0  0  0  0  0  0  0  0  0  0  0  0
  162.5680  210.6920  154.9610 C   0  0  0  0  0  3  0  0  0  0  0  0
  161.8970  212.6210  148.3340 C   0  0  0  0  0  0  0  0  0  0  0  0
  160.2270  210.7820  155.5750 C   0  0  0  0  0  0  0  0  0  0  0  0
  158.8490  210.8750  155.3300 O   0  0  0  0  0  0  0  0  0  0  0  0
  161.2250  210.7870  154.5590 C   0  0  0  0  0  0  0  0  0  0  0  0
  159.9930  211.8510  152.5420 C   0  0  0  0  0  0  0  0  0  0  0  0
  161.9580  210.8320  148.3030 S   0  0  0  0  0  0  0  0  0  0  0  0
  158.2310  211.0230  154.0600 C   0  0  2  0  0  3  0  0  0  0  0  0
  160.9590  210.8600  153.0950 C   0  0  0  0  0  0  0  0  0  0  0  0
  158.7800  212.2320  153.3190 C   0  0  1  0  0  3  0  0  0  0  0  0
  161.9090  210.5970  157.2600 C   0  0  0  0  0  3  0  0  0  0  0  0
  161.5120  210.8970  150.0420 C   0  0  0  0  0  0  0  0  0  0  0  0
  161.1970  212.2090  150.4950 N   0  0  0  0  0  0  0  0  0  0  0  0
  160.1730  212.4700  151.4140 N   0  0  0  0  0  0  0  0  0  0  0  0
  156.7360  211.1740  154.2450 C   0  0  0  0  0  1  0  0  0  0  0  0
  161.4710  213.1540  149.4720 C   0  0  0  0  0  3  0  0  0  0  0  0
  160.6100  210.6870  156.8780 N   0  0  0  0  0  0  0  0  0  0  0  0
  159.0600  213.2910  154.1870 O   0  0  0  0  0  1  0  0  0  0  0  0
  162.9160  210.6000  156.3030 C   0  0  0  0  0  3  0  0  0  0  0  0
  161.6260  209.9850  152.3330 C   0  0  0  0  0  3  0  0  0  0  0  0
  162.2970  213.4460  147.1600 C   0  0  0  0  0  2  0  0  0  0  0  0
  161.7850  212.8270  145.8730 C   0  0  0  0  0  2  0  0  0  0  0  0
  162.7240  213.5130  143.6930 C   0  0  0  0  0  1  0  0  0  0  0  0
  161.7450  213.8800  144.7880 C   0  0  0  0  0  2  0  0  0  0  0  0
  162.1160  208.5290  150.3450 C   0  0  0  0  0  2  0  0  0  0  0  0
  160.9720  207.8290  149.6320 C   0  0  0  0  0  2  0  0  0  0  0  0
  162.1800  207.2550  147.6650 O   0  0  0  0  0  0  0  0  0  0  0  0
  161.5230  206.8430  148.6560 C   0  0  0  0  0  0  0  0  0  0  0  0
  161.2740  205.4430  148.8040 N   0  0  0  0  0  2  0  0  0  0  0  0
  160.5670  204.9010  149.9550 C   0  0  0  0  0  2  0  0  0  0  0  0
  161.9950  205.0680  152.0180 C   0  0  0  0  0  2  0  0  0  0  0  0
  161.0030  202.8630  151.3700 C   0  0  1  0  0  3  0  0  0  0  0  0
  160.8530  204.1000  152.2280 C   0  0  2  0  0  3  0  0  0  0  0  0
  161.5380  204.1900  150.8730 C   0  0  2  0  0  0  0  0  0  0  0  0
  162.0550  202.0840  151.8510 O   0  0  0  0  0  1  0  0  0  0  0  0
  1 21  1  0  0  0  0
  2 20  1  0  0  0  0
  3 17  2  0  0  0  0
  4 18  2  0  0  0  0
  5  4  1  0  0  0  0
  6  2  2  0  0  0  0
  6  4  1  0  0  0  0
  7 10  1  0  0  0  0
  7 11  1  0  0  0  0
  8  3  1  0  0  0  0
  8 13  1  0  0  0  0
  9 16  1  1  0  0  0
  9  5  1  0  0  0  0
 10  6  1  0  0  0  0
 11  9  1  0  0  0  0
 11 19  1  1  0  0  0
 13 14  1  0  0  0  0
 13  1  2  0  0  0  0
 14 15  1  0  0  0  0
 15  7  2  0  0  0  0
 17 14  1  0  0  0  0
 18 12  1  0  0  0  0
 20 12  2  0  0  0  0
 21 10  2  0  0  0  0
 22  3  1  0  0  0  0
 23 22  1  0  0  0  0
 24 25  1  0  0  0  0
 25 23  1  0  0  0  0
 26  1  1  0  0  0  0
 27 26  1  0  0  0  0
 28 29  2  0  0  0  0
 29 30  1  0  0  0  0
 29 27  1  0  0  0  0
 30 31  1  0  0  0  0
 33 36  1  1  0  0  0
 33 34  1  0  0  0  0
 34 32  1  1  0  0  0
 35 31  1  6  0  0  0
 35 33  1  0  0  0  0
 35 32  1  0  0  0  0
 35 34  1  0  0  0  0
M  END
>  <MODEL>
6

>  <REMARK>
 VINA RESULT:      -5.7      2.756      6.891
  Name = 
  8 active torsions:
  status: ('A' for Active; 'I' for Inactive)
    1  A    between atoms: C_1  and  C_33
    2  A    between atoms: C_3  and  C_12
    3  A    between atoms: C_12  and  C_22
    4  A    between atoms: C_16  and  C_26
    5  A    between atoms: C_16  and  N_31
    6  A    between atoms: C_22  and  C_23
    7  A    between atoms: C_24  and  C_34
    8  A    between atoms: C_33  and  C_34
                            x       y       z     vdW  Elec       q    Type
                         _______ _______ _______ _____ _____    ______ ____

>  <TORSDO>
F 8

$$$$
=
 OpenBabel11042420253D

 36 41  0  0  1  0  0  0  0  0999 V2000
  161.1450  207.2830  152.6350 C   0  0  0  0  0  0  0  0  0  0  0  0
  162.7060  210.0910  155.4510 C   0  0  0  0  0  3  0  0  0  0  0  0
  161.9310  207.7140  148.9840 C   0  0  0  0  0  0  0  0  0  0  0  0
  160.5870  211.2500  155.6390 C   0  0  0  0  0  0  0  0  0  0  0  0
  159.2860  211.5950  155.2460 O   0  0  0  0  0  0  0  0  0  0  0  0
  161.4200  210.3320  154.9380 C   0  0  0  0  0  0  0  0  0  0  0  0
  160.3590  210.2760  152.5740 C   0  0  0  0  0  0  0  0  0  0  0  0
  161.4380  206.3610  150.0480 S   0  0  0  0  0  0  0  0  0  0  0  0
  158.6070  211.1270  154.0900 C   0  0  2  0  0  3  0  0  0  0  0  0
  161.0300  209.5840  153.7100 C   0  0  0  0  0  0  0  0  0  0  0  0
  159.4140  211.3990  152.8300 C   0  0  1  0  0  3  0  0  0  0  0  0
  162.3070  211.6130  157.2560 C   0  0  0  0  0  3  0  0  0  0  0  0
  161.2270  207.5970  151.3360 C   0  0  0  0  0  0  0  0  0  0  0  0
  161.3820  208.9310  150.8660 N   0  0  0  0  0  0  0  0  0  0  0  0
  160.5940  209.9940  151.3280 N   0  0  0  0  0  0  0  0  0  0  0  0
  157.2590  211.8110  153.9890 C   0  0  0  0  0  1  0  0  0  0  0  0
  161.8160  208.9240  149.5150 C   0  0  0  0  0  3  0  0  0  0  0  0
  161.0640  211.8490  156.7650 N   0  0  0  0  0  0  0  0  0  0  0  0
  160.0990  212.6160  152.9040 O   0  0  0  0  0  1  0  0  0  0  0  0
  163.1540  210.7270  156.6030 C   0  0  0  0  0  3  0  0  0  0  0  0
  161.3090  208.2740  153.7070 C   0  0  0  0  0  3  0  0  0  0  0  0
  162.4330  207.4870  147.5990 C   0  0  0  0  0  2  0  0  0  0  0  0
  161.7020  206.3270  146.9500 C   0  0  0  0  0  2  0  0  0  0  0  0
  162.2620  204.5740  145.3010 C   0  0  0  0  0  1  0  0  0  0  0  0
  162.6960  205.2450  146.5870 C   0  0  0  0  0  2  0  0  0  0  0  0
  161.1080  205.8530  153.0690 C   0  0  0  0  0  2  0  0  0  0  0  0
  161.5690  204.9470  151.9400 C   0  0  0  0  0  2  0  0  0  0  0  0
  160.4520  203.2150  153.1260 O   0  0  0  0  0  0  0  0  0  0  0  0
  160.8320  203.6520  152.0080 C   0  0  0  0  0  0  0  0  0  0  0  0
  160.5930  202.8770  150.8310 N   0  0  0  0  0  2  0  0  0  0  0  0
  160.9620  203.3520  149.5060 C   0  0  0  0  0  2  0  0  0  0  0  0
  161.1630  200.8520  149.3230 C   0  0  0  0  0  2  0  0  0  0  0  0
  160.5380  202.1970  147.3070 C   0  0  1  0  0  3  0  0  0  0  0  0
  160.0290  201.3670  148.4650 C   0  0  2  0  0  3  0  0  0  0  0  0
  161.3070  202.1800  148.6120 C   0  0  2  0  0  0  0  0  0  0  0  0
  161.1700  201.3700  146.3790 O   0  0  0  0  0  1  0  0  0  0  0  0
  1 26  1  0  0  0  0
  1 21  1  0  0  0  0
  2 20  1  0  0  0  0
  3 17  2  0  0  0  0
  3  8  1  0  0  0  0
  4 18  2  0  0  0  0
  5  4  1  0  0  0  0
  6  2  2  0  0  0  0
  6  4  1  0  0  0  0
  7 11  1  0  0  0  0
  7 10  1  0  0  0  0
  8 13  1  0  0  0  0
  9 16  1  6  0  0  0
  9  5  1  0  0  0  0
 10  6  1  0  0  0  0
 11 19  1  1  0  0  0
 11  9  1  0  0  0  0
 13  1  2  0  0  0  0
 14 15  1  0  0  0  0
 14 13  1  0  0  0  0
 15  7  2  0  0  0  0
 17 14  1  0  0  0  0
 18 12  1  0  0  0  0
 20 12  2  0  0  0  0
 21 10  2  0  0  0  0
 22  3  1  0  0  0  0
 23 22  1  0  0  0  0
 24 25  1  0  0  0  0
 25 23  1  0  0  0  0
 27 29  1  0  0  0  0
 27 26  1  0  0  0  0
 29 28  2  0  0  0  0
 30 29  1  0  0  0  0
 31 30  1  0  0  0  0
 33 36  1  6  0  0  0
 33 34  1  0  0  0  0
 33 35  1  0  0  0  0
 34 35  1  0  0  0  0
 34 32  1  6  0  0  0
 35 32  1  0  0  0  0
 35 31  1  1  0  0  0
M  END
>  <MODEL>
7

>  <REMARK>
 VINA RESULT:      -5.3      3.181      6.669
  Name = 
  8 active torsions:
  status: ('A' for Active; 'I' for Inactive)
    1  A    between atoms: C_1  and  C_33
    2  A    between atoms: C_3  and  C_12
    3  A    between atoms: C_12  and  C_22
    4  A    between atoms: C_16  and  C_26
    5  A    between atoms: C_16  and  N_31
    6  A    between atoms: C_22  and  C_23
    7  A    between atoms: C_24  and  C_34
    8  A    between atoms: C_33  and  C_34
                            x       y       z     vdW  Elec       q    Type
                         _______ _______ _______ _____ _____    ______ ____

>  <TORSDO>
F 8

$$$$
