=
 OpenBabel11052410433D

 35 37  0  0  0  0  0  0  0  0999 V2000
  160.1880  206.4670  150.7950 C   0  0  0  0  0  2  0  0  0  0  0  0
  160.7860  205.8470  149.6110 N   0  0  0  0  0  0  0  0  0  0  0  0
  160.9950  207.6570  151.2590 C   0  0  0  0  0  0  0  0  0  0  0  0
  161.7490  207.9280  148.9370 C   0  0  0  0  0  3  0  0  0  0  0  0
  161.3060  206.7180  148.5820 C   0  0  0  0  0  0  0  0  0  0  0  0
  161.6870  208.3780  150.3420 C   0  0  0  0  0  0  0  0  0  0  0  0
  160.2150  206.1490  145.0400 N   0  0  0  0  0  0  0  0  0  0  0  0
  160.1990  206.5060  146.3520 C   0  0  0  0  0  3  0  0  0  0  0  0
  161.3170  205.6000  144.4650 C   0  0  0  0  0  0  0  0  0  0  0  0
  162.4770  205.7390  146.5740 C   0  0  0  0  0  0  0  0  0  0  0  0
  161.3340  206.3200  147.1550 C   0  0  0  0  0  0  0  0  0  0  0  0
  161.2930  205.1580  142.7730 Cl  0  0  0  0  0  0  0  0  0  0  0  0
  163.5850  205.4850  147.3130 F   0  0  0  0  0  0  0  0  0  0  0  0
  162.4660  205.3810  145.2250 C   0  0  0  0  0  3  0  0  0  0  0  0
  160.9050  203.7350  148.3390 C   0  0  0  0  0  3  0  0  0  0  0  0
  161.1860  201.6180  149.4710 C   0  0  0  0  0  3  0  0  0  0  0  0
  161.0780  203.6680  150.7490 C   0  0  0  0  0  3  0  0  0  0  0  0
  161.0340  202.3380  148.2770 C   0  0  0  0  0  0  0  0  0  0  0  0
  160.9340  204.4120  149.5680 C   0  0  0  0  0  0  0  0  0  0  0  0
  161.2070  202.2780  150.7010 C   0  0  0  0  0  3  0  0  0  0  0  0
  161.3490  200.2460  146.9020 C   0  0  0  0  0  1  0  0  0  0  0  0
  160.6400  202.3550  145.7850 C   0  0  0  0  0  1  0  0  0  0  0  0
  161.0090  201.6570  147.0080 N   0  0  0  0  0  0  0  0  0  0  0  0
  161.4480  207.2780  153.5530 O   0  0  0  0  0  0  0  0  0  0  0  0
  160.8980  208.0210  152.6960 C   0  0  0  0  0  0  0  0  0  0  0  0
  160.2290  209.2200  153.1100 N   0  0  0  0  0  2  0  0  0  0  0  0
  159.4590  210.7500  154.6760 O   0  0  0  0  0  0  0  0  0  0  0  0
  160.6070  208.9180  155.5540 N   0  0  0  0  0  2  0  0  0  0  0  0
  160.0730  209.6720  154.4600 C   0  0  0  0  0  0  0  0  0  0  0  0
  160.4480  209.3260  156.9410 C   0  0  0  0  0  2  0  0  0  0  0  0
  161.3980  210.4680  157.2610 C   0  0  0  0  0  2  0  0  0  0  0  0
  162.8370  210.0090  157.1200 C   0  0  0  0  0  2  0  0  0  0  0  0
  163.4880  210.7680  156.1450 O   0  0  0  0  0  1  0  0  0  0  0  0
  162.3600  209.6750  150.6600 C   0  0  0  0  0  2  0  0  0  0  0  0
  162.3020  210.6040  149.4610 C   0  0  0  0  0  1  0  0  0  0  0  0
  1  3  1  0  0  0  0
  2  1  1  0  0  0  0
  3 25  1  0  0  0  0
  4  6  1  0  0  0  0
  5  4  2  0  0  0  0
  5  2  1  0  0  0  0
  6 34  1  0  0  0  0
  6  3  2  0  0  0  0
  7  8  1  0  0  0  0
  8 11  2  0  0  0  0
  9  7  2  0  0  0  0
  9 14  1  0  0  0  0
 10 11  1  0  0  0  0
 10 13  1  0  0  0  0
 11  5  1  0  0  0  0
 12  9  1  0  0  0  0
 14 10  2  0  0  0  0
 15 19  1  0  0  0  0
 16 20  2  0  0  0  0
 18 15  2  0  0  0  0
 18 16  1  0  0  0  0
 19  2  1  0  0  0  0
 19 17  2  0  0  0  0
 20 17  1  0  0  0  0
 21 23  1  0  0  0  0
 22 23  1  0  0  0  0
 23 18  1  0  0  0  0
 25 26  1  0  0  0  0
 25 24  2  0  0  0  0
 26 29  1  0  0  0  0
 28 30  1  0  0  0  0
 29 27  2  0  0  0  0
 29 28  1  0  0  0  0
 30 31  1  0  0  0  0
 32 31  1  0  0  0  0
 33 32  1  0  0  0  0
 35 34  1  0  0  0  0
M  END
>  <MODEL>
1

>  <REMARK>
 VINA RESULT:      -7.4      0.000      0.000
  Name = 
  8 active torsions:
  status: ('A' for Active; 'I' for Inactive)
    1  A    between atoms: C_2  and  C_34
    2  A    between atoms: N_8  and  C_28
    3  A    between atoms: C_11  and  C_14
    4  A    between atoms: C_12  and  C_32
    5  A    between atoms: C_16  and  C_29
    6  A    between atoms: C_23  and  N_27
    7  A    between atoms: N_30  and  C_31
    8  A    between atoms: C_31  and  C_32
                            x       y       z     vdW  Elec       q    Type
                         _______ _______ _______ _____ _____    ______ ____

>  <TORSDO>
F 8

$$$$
=
 OpenBabel11052410433D

 35 37  0  0  0  0  0  0  0  0999 V2000
  160.3590  206.6450  150.8690 C   0  0  0  0  0  2  0  0  0  0  0  0
  160.9200  205.9760  149.6930 N   0  0  0  0  0  0  0  0  0  0  0  0
  161.2010  207.8280  151.2830 C   0  0  0  0  0  0  0  0  0  0  0  0
  161.9180  208.0140  148.9410 C   0  0  0  0  0  3  0  0  0  0  0  0
  161.4410  206.8050  148.6300 C   0  0  0  0  0  0  0  0  0  0  0  0
  161.8930  208.5060  150.3330 C   0  0  0  0  0  0  0  0  0  0  0  0
  160.2780  206.1730  145.1210 N   0  0  0  0  0  0  0  0  0  0  0  0
  160.2940  206.5680  146.4220 C   0  0  0  0  0  3  0  0  0  0  0  0
  161.3510  205.5680  144.5480 C   0  0  0  0  0  0  0  0  0  0  0  0
  162.5460  205.7250  146.6360 C   0  0  0  0  0  0  0  0  0  0  0  0
  161.4330  206.3650  147.2150 C   0  0  0  0  0  0  0  0  0  0  0  0
  161.2860  205.0790  142.8700 Cl  0  0  0  0  0  0  0  0  0  0  0  0
  163.6550  205.4520  147.3670 F   0  0  0  0  0  0  0  0  0  0  0  0
  162.5030  205.3290  145.2980 C   0  0  0  0  0  3  0  0  0  0  0  0
  160.9750  203.8260  148.4810 C   0  0  0  0  0  3  0  0  0  0  0  0
  161.2210  201.7360  149.6710 C   0  0  0  0  0  3  0  0  0  0  0  0
  161.1760  203.8240  150.8910 C   0  0  0  0  0  3  0  0  0  0  0  0
  161.0710  202.4250  148.4580 C   0  0  0  0  0  0  0  0  0  0  0  0
  161.0340  204.5380  149.6900 C   0  0  0  0  0  0  0  0  0  0  0  0
  161.2720  202.4310  150.8810 C   0  0  0  0  0  3  0  0  0  0  0  0
  160.6570  202.3820  145.9700 C   0  0  0  0  0  1  0  0  0  0  0  0
  161.3160  200.2870  147.1420 C   0  0  0  0  0  1  0  0  0  0  0  0
  161.0150  201.7090  147.2100 N   0  0  0  0  0  0  0  0  0  0  0  0
  161.3390  209.4430  153.0110 O   0  0  0  0  0  0  0  0  0  0  0  0
  161.1390  208.2350  152.7100 C   0  0  0  0  0  0  0  0  0  0  0  0
  160.8140  207.2860  153.7350 N   0  0  0  0  0  2  0  0  0  0  0  0
  160.4280  206.6250  155.9260 O   0  0  0  0  0  0  0  0  0  0  0  0
  160.9640  208.8780  155.6450 N   0  0  0  0  0  2  0  0  0  0  0  0
  160.7250  207.5610  155.1380 C   0  0  0  0  0  0  0  0  0  0  0  0
  160.9100  209.1950  157.0640 C   0  0  0  0  0  2  0  0  0  0  0  0
  160.4240  210.6220  157.2610 C   0  0  0  0  0  2  0  0  0  0  0  0
  161.0160  211.5290  156.1990 C   0  0  0  0  0  2  0  0  0  0  0  0
  159.9970  212.2130  155.5330 O   0  0  0  0  0  1  0  0  0  0  0  0
  162.6010  209.7950  150.6010 C   0  0  0  0  0  2  0  0  0  0  0  0
  161.9600  210.9190  149.8090 C   0  0  0  0  0  1  0  0  0  0  0  0
  1  3  1  0  0  0  0
  2  1  1  0  0  0  0
  3 25  1  0  0  0  0
  4  6  1  0  0  0  0
  5  4  2  0  0  0  0
  5  2  1  0  0  0  0
  6 34  1  0  0  0  0
  6  3  2  0  0  0  0
  7  8  1  0  0  0  0
  8 11  2  0  0  0  0
  9  7  2  0  0  0  0
  9 14  1  0  0  0  0
 10 11  1  0  0  0  0
 10 13  1  0  0  0  0
 11  5  1  0  0  0  0
 12  9  1  0  0  0  0
 14 10  2  0  0  0  0
 15 19  1  0  0  0  0
 16 20  2  0  0  0  0
 18 15  2  0  0  0  0
 18 16  1  0  0  0  0
 19  2  1  0  0  0  0
 19 17  2  0  0  0  0
 20 17  1  0  0  0  0
 21 23  1  0  0  0  0
 22 23  1  0  0  0  0
 23 18  1  0  0  0  0
 25 24  2  0  0  0  0
 25 26  1  0  0  0  0
 26 29  1  0  0  0  0
 28 30  1  0  0  0  0
 29 28  1  0  0  0  0
 29 27  2  0  0  0  0
 30 31  1  0  0  0  0
 32 31  1  0  0  0  0
 33 32  1  0  0  0  0
 35 34  1  0  0  0  0
M  END
>  <MODEL>
2

>  <REMARK>
 VINA RESULT:      -7.1      1.065      1.420
  Name = 
  8 active torsions:
  status: ('A' for Active; 'I' for Inactive)
    1  A    between atoms: C_2  and  C_34
    2  A    between atoms: N_8  and  C_28
    3  A    between atoms: C_11  and  C_14
    4  A    between atoms: C_12  and  C_32
    5  A    between atoms: C_16  and  C_29
    6  A    between atoms: C_23  and  N_27
    7  A    between atoms: N_30  and  C_31
    8  A    between atoms: C_31  and  C_32
                            x       y       z     vdW  Elec       q    Type
                         _______ _______ _______ _____ _____    ______ ____

>  <TORSDO>
F 8

$$$$
=
 OpenBabel11052410433D

 35 37  0  0  0  0  0  0  0  0999 V2000
  162.3070  210.8010  149.2830 C   0  0  0  0  0  2  0  0  0  0  0  0
  161.6630  210.1950  150.4510 N   0  0  0  0  0  0  0  0  0  0  0  0
  161.5310  211.9980  148.7880 C   0  0  0  0  0  0  0  0  0  0  0  0
  160.7080  212.2930  151.0830 C   0  0  0  0  0  3  0  0  0  0  0  0
  161.1230  211.0800  151.4590 C   0  0  0  0  0  0  0  0  0  0  0  0
  160.8200  212.7340  149.6790 C   0  0  0  0  0  0  0  0  0  0  0  0
  162.1580  210.0570  154.9150 N   0  0  0  0  0  0  0  0  0  0  0  0
  162.2170  210.4100  153.6030 C   0  0  0  0  0  3  0  0  0  0  0  0
  160.9720  209.9590  155.5720 C   0  0  0  0  0  0  0  0  0  0  0  0
  159.8100  210.5760  153.5520 C   0  0  0  0  0  0  0  0  0  0  0  0
  161.0450  210.6900  152.8860 C   0  0  0  0  0  0  0  0  0  0  0  0
  160.9430  209.5030  157.2610 Cl  0  0  0  0  0  0  0  0  0  0  0  0
  158.6400  210.7810  152.8970 F   0  0  0  0  0  0  0  0  0  0  0  0
  159.7760  210.2110  154.8990 C   0  0  0  0  0  3  0  0  0  0  0  0
  161.4680  208.0150  149.3100 C   0  0  0  0  0  3  0  0  0  0  0  0
  161.1310  205.9800  150.5700 C   0  0  0  0  0  3  0  0  0  0  0  0
  161.3220  208.0980  151.7220 C   0  0  0  0  0  3  0  0  0  0  0  0
  161.2910  206.6220  149.3330 C   0  0  0  0  0  0  0  0  0  0  0  0
  161.4940  208.7630  150.4970 C   0  0  0  0  0  0  0  0  0  0  0  0
  161.1450  206.7130  151.7590 C   0  0  0  0  0  3  0  0  0  0  0  0
  161.5390  204.4370  148.0970 C   0  0  0  0  0  1  0  0  0  0  0  0
  160.9870  206.5080  146.8320 C   0  0  0  0  0  1  0  0  0  0  0  0
  161.2730  205.8670  148.1060 N   0  0  0  0  0  0  0  0  0  0  0  0
  162.8020  212.7380  146.9300 O   0  0  0  0  0  0  0  0  0  0  0  0
  161.6790  212.3520  147.3530 C   0  0  0  0  0  0  0  0  0  0  0  0
  160.5780  212.2180  146.4430 N   0  0  0  0  0  2  0  0  0  0  0  0
  159.5540  212.3600  144.3640 O   0  0  0  0  0  0  0  0  0  0  0  0
  161.7920  213.0150  144.4190 N   0  0  0  0  0  2  0  0  0  0  0  0
  160.6010  212.5270  145.0440 C   0  0  0  0  0  0  0  0  0  0  0  0
  161.8520  213.3670  143.0090 C   0  0  0  0  0  2  0  0  0  0  0  0
  162.3590  212.1850  142.1980 C   0  0  0  0  0  2  0  0  0  0  0  0
  161.2750  211.6890  141.2600 C   0  0  0  0  0  2  0  0  0  0  0  0
  161.6830  210.5050  140.6430 O   0  0  0  0  0  1  0  0  0  0  0  0
  160.1760  214.0390  149.3320 C   0  0  0  0  0  2  0  0  0  0  0  0
  158.6810  213.8540  149.1560 C   0  0  0  0  0  1  0  0  0  0  0  0
  1  2  1  0  0  0  0
  2 19  1  0  0  0  0
  2  5  1  0  0  0  0
  3  1  1  0  0  0  0
  3  6  2  0  0  0  0
  4  5  2  0  0  0  0
  5 11  1  0  0  0  0
  6  4  1  0  0  0  0
  7  9  1  0  0  0  0
  8  7  2  0  0  0  0
  9 12  1  0  0  0  0
 10 14  1  0  0  0  0
 11 10  2  0  0  0  0
 11  8  1  0  0  0  0
 13 10  1  0  0  0  0
 14  9  2  0  0  0  0
 15 18  2  0  0  0  0
 15 19  1  0  0  0  0
 16 20  2  0  0  0  0
 17 20  1  0  0  0  0
 18 16  1  0  0  0  0
 19 17  2  0  0  0  0
 21 23  1  0  0  0  0
 22 23  1  0  0  0  0
 23 18  1  0  0  0  0
 24 25  2  0  0  0  0
 25  3  1  0  0  0  0
 26 25  1  0  0  0  0
 27 29  2  0  0  0  0
 28 29  1  0  0  0  0
 29 26  1  0  0  0  0
 30 28  1  0  0  0  0
 31 30  1  0  0  0  0
 32 31  1  0  0  0  0
 33 32  1  0  0  0  0
 34  6  1  0  0  0  0
 35 34  1  0  0  0  0
M  END
>  <MODEL>
3

>  <REMARK>
 VINA RESULT:      -6.4      5.456      8.844
  Name = 
  8 active torsions:
  status: ('A' for Active; 'I' for Inactive)
    1  A    between atoms: C_2  and  C_34
    2  A    between atoms: N_8  and  C_28
    3  A    between atoms: C_11  and  C_14
    4  A    between atoms: C_12  and  C_32
    5  A    between atoms: C_16  and  C_29
    6  A    between atoms: C_23  and  N_27
    7  A    between atoms: N_30  and  C_31
    8  A    between atoms: C_31  and  C_32
                            x       y       z     vdW  Elec       q    Type
                         _______ _______ _______ _____ _____    ______ ____

>  <TORSDO>
F 8

$$$$
=
 OpenBabel11052410433D

 35 37  0  0  0  0  0  0  0  0999 V2000
  160.4060  207.5940  151.1150 C   0  0  0  0  0  2  0  0  0  0  0  0
  160.9490  206.7360  150.0590 N   0  0  0  0  0  0  0  0  0  0  0  0
  161.2540  208.8290  151.3110 C   0  0  0  0  0  0  0  0  0  0  0  0
  161.9320  208.6180  148.9590 C   0  0  0  0  0  3  0  0  0  0  0  0
  161.4520  207.3740  148.8630 C   0  0  0  0  0  0  0  0  0  0  0  0
  161.9300  209.3360  150.2490 C   0  0  0  0  0  0  0  0  0  0  0  0
  160.2100  206.1130  145.5570 N   0  0  0  0  0  0  0  0  0  0  0  0
  160.2490  206.7210  146.7720 C   0  0  0  0  0  3  0  0  0  0  0  0
  161.2940  205.4680  145.0500 C   0  0  0  0  0  0  0  0  0  0  0  0
  162.5450  206.0250  147.0350 C   0  0  0  0  0  0  0  0  0  0  0  0
  161.4210  206.7030  147.5420 C   0  0  0  0  0  0  0  0  0  0  0  0
  161.2000  204.7010  143.4800 Cl  0  0  0  0  0  0  0  0  0  0  0  0
  163.6880  205.9260  147.7570 F   0  0  0  0  0  0  0  0  0  0  0  0
  162.4790  205.4080  145.7840 C   0  0  0  0  0  3  0  0  0  0  0  0
  161.0030  204.4150  149.2220 C   0  0  0  0  0  3  0  0  0  0  0  0
  161.2530  202.5530  150.7430 C   0  0  0  0  0  3  0  0  0  0  0  0
  161.2090  204.8150  151.5980 C   0  0  0  0  0  3  0  0  0  0  0  0
  161.1000  203.0300  149.4330 C   0  0  0  0  0  0  0  0  0  0  0  0
  161.0640  205.3180  150.2950 C   0  0  0  0  0  0  0  0  0  0  0  0
  161.3060  203.4400  151.8200 C   0  0  0  0  0  3  0  0  0  0  0  0
  160.7570  202.5850  146.9730 C   0  0  0  0  0  1  0  0  0  0  0  0
  161.2650  200.6900  148.5050 C   0  0  0  0  0  1  0  0  0  0  0  0
  161.0410  202.1160  148.3210 N   0  0  0  0  0  0  0  0  0  0  0  0
  161.7310  208.8690  153.6310 O   0  0  0  0  0  0  0  0  0  0  0  0
  161.2150  209.4700  152.6500 C   0  0  0  0  0  0  0  0  0  0  0  0
  160.6420  210.7730  152.8280 N   0  0  0  0  0  2  0  0  0  0  0  0
  160.0170  212.6300  154.0730 O   0  0  0  0  0  0  0  0  0  0  0  0
  161.0520  210.9230  155.2800 N   0  0  0  0  0  2  0  0  0  0  0  0
  160.5490  211.4880  154.0660 C   0  0  0  0  0  0  0  0  0  0  0  0
  160.9530  211.6020  156.5630 C   0  0  0  0  0  2  0  0  0  0  0  0
  159.6600  211.2130  157.2610 C   0  0  0  0  0  2  0  0  0  0  0  0
  158.8760  210.2360  156.4050 C   0  0  0  0  0  2  0  0  0  0  0  0
  157.7260  210.8520  155.9090 O   0  0  0  0  0  1  0  0  0  0  0  0
  162.6410  210.6510  150.2850 C   0  0  0  0  0  2  0  0  0  0  0  0
  162.0320  211.6040  149.2740 C   0  0  0  0  0  1  0  0  0  0  0  0
  1  3  1  0  0  0  0
  2 19  1  0  0  0  0
  2  1  1  0  0  0  0
  3 25  1  0  0  0  0
  4  6  1  0  0  0  0
  5  4  2  0  0  0  0
  5  2  1  0  0  0  0
  6 34  1  0  0  0  0
  6  3  2  0  0  0  0
  7  8  1  0  0  0  0
  8 11  2  0  0  0  0
  9  7  2  0  0  0  0
  9 14  1  0  0  0  0
 10 11  1  0  0  0  0
 10 13  1  0  0  0  0
 11  5  1  0  0  0  0
 12  9  1  0  0  0  0
 14 10  2  0  0  0  0
 15 18  2  0  0  0  0
 15 19  1  0  0  0  0
 16 20  2  0  0  0  0
 17 20  1  0  0  0  0
 18 16  1  0  0  0  0
 19 17  2  0  0  0  0
 21 23  1  0  0  0  0
 23 22  1  0  0  0  0
 23 18  1  0  0  0  0
 25 26  1  0  0  0  0
 25 24  2  0  0  0  0
 26 29  1  0  0  0  0
 28 30  1  0  0  0  0
 29 27  2  0  0  0  0
 29 28  1  0  0  0  0
 30 31  1  0  0  0  0
 32 31  1  0  0  0  0
 33 32  1  0  0  0  0
 35 34  1  0  0  0  0
M  END
>  <MODEL>
4

>  <REMARK>
 VINA RESULT:      -6.2      1.373      1.846
  Name = 
  8 active torsions:
  status: ('A' for Active; 'I' for Inactive)
    1  A    between atoms: C_2  and  C_34
    2  A    between atoms: N_8  and  C_28
    3  A    between atoms: C_11  and  C_14
    4  A    between atoms: C_12  and  C_32
    5  A    between atoms: C_16  and  C_29
    6  A    between atoms: C_23  and  N_27
    7  A    between atoms: N_30  and  C_31
    8  A    between atoms: C_31  and  C_32
                            x       y       z     vdW  Elec       q    Type
                         _______ _______ _______ _____ _____    ______ ____

>  <TORSDO>
F 8

$$$$
=
 OpenBabel11052410433D

 35 37  0  0  0  0  0  0  0  0999 V2000
  160.4570  207.3110  150.2140 C   0  0  0  0  0  2  0  0  0  0  0  0
  161.0330  208.2850  151.1450 N   0  0  0  0  0  0  0  0  0  0  0  0
  161.2050  206.0000  150.2590 C   0  0  0  0  0  0  0  0  0  0  0  0
  161.8160  206.5380  152.5760 C   0  0  0  0  0  3  0  0  0  0  0  0
  161.4380  207.8130  152.4500 C   0  0  0  0  0  0  0  0  0  0  0  0
  161.7980  205.6210  151.4190 C   0  0  0  0  0  0  0  0  0  0  0  0
  162.1560  210.6880  154.7490 N   0  0  0  0  0  0  0  0  0  0  0  0
  162.1720  209.8730  153.6600 C   0  0  0  0  0  3  0  0  0  0  0  0
  161.4210  210.3880  155.8510 C   0  0  0  0  0  0  0  0  0  0  0  0
  160.6640  208.3620  154.7870 C   0  0  0  0  0  0  0  0  0  0  0  0
  161.4180  208.6910  153.6440 C   0  0  0  0  0  0  0  0  0  0  0  0
  161.4290  211.4680  157.2280 Cl  0  0  0  0  0  0  0  0  0  0  0  0
  159.9590  207.2060  154.8510 F   0  0  0  0  0  0  0  0  0  0  0  0
  160.6660  209.2160  155.8910 C   0  0  0  0  0  3  0  0  0  0  0  0
  160.5480  210.7030  151.2340 C   0  0  0  0  0  3  0  0  0  0  0  0
  161.7130  212.2570  149.7950 C   0  0  0  0  0  3  0  0  0  0  0  0
  162.2180  209.8950  149.6840 C   0  0  0  0  0  3  0  0  0  0  0  0
  160.7600  212.0210  150.7970 C   0  0  0  0  0  0  0  0  0  0  0  0
  161.2760  209.6330  150.6920 C   0  0  0  0  0  0  0  0  0  0  0  0
  162.4370  211.2000  149.2400 C   0  0  0  0  0  3  0  0  0  0  0  0
  159.9180  214.3970  150.6940 C   0  0  0  0  0  1  0  0  0  0  0  0
  159.3140  212.9620  152.6370 C   0  0  0  0  0  1  0  0  0  0  0  0
  160.0090  213.1100  151.3670 N   0  0  0  0  0  0  0  0  0  0  0  0
  160.4530  204.1090  149.0440 O   0  0  0  0  0  0  0  0  0  0  0  0
  161.1590  205.1540  149.0390 C   0  0  0  0  0  0  0  0  0  0  0  0
  161.8680  205.5340  147.8500 N   0  0  0  0  0  2  0  0  0  0  0  0
  162.5650  205.2580  145.6540 O   0  0  0  0  0  0  0  0  0  0  0  0
  161.1790  203.5720  146.4780 N   0  0  0  0  0  2  0  0  0  0  0  0
  161.8970  204.8020  146.6200 C   0  0  0  0  0  0  0  0  0  0  0  0
  161.2030  202.7830  145.2560 C   0  0  0  0  0  2  0  0  0  0  0  0
  160.4610  201.4740  145.4660 C   0  0  0  0  0  2  0  0  0  0  0  0
  160.7220  200.9410  146.8620 C   0  0  0  0  0  2  0  0  0  0  0  0
  161.5710  199.8340  146.7990 O   0  0  0  0  0  1  0  0  0  0  0  0
  162.3970  204.2670  151.6270 C   0  0  0  0  0  2  0  0  0  0  0  0
  161.3310  203.2870  152.0810 C   0  0  0  0  0  1  0  0  0  0  0  0
  1  3  1  0  0  0  0
  1  2  1  0  0  0  0
  2  5  1  0  0  0  0
  3  6  2  0  0  0  0
  5  4  2  0  0  0  0
  5 11  1  0  0  0  0
  6 34  1  0  0  0  0
  6  4  1  0  0  0  0
  7  9  1  0  0  0  0
  8  7  2  0  0  0  0
  9 14  2  0  0  0  0
  9 12  1  0  0  0  0
 10 13  1  0  0  0  0
 10 14  1  0  0  0  0
 11  8  1  0  0  0  0
 11 10  2  0  0  0  0
 16 18  2  0  0  0  0
 17 19  1  0  0  0  0
 18 15  1  0  0  0  0
 18 23  1  0  0  0  0
 19  2  1  0  0  0  0
 19 15  2  0  0  0  0
 20 17  2  0  0  0  0
 20 16  1  0  0  0  0
 21 23  1  0  0  0  0
 23 22  1  0  0  0  0
 25 24  2  0  0  0  0
 25  3  1  0  0  0  0
 26 25  1  0  0  0  0
 27 29  2  0  0  0  0
 28 29  1  0  0  0  0
 29 26  1  0  0  0  0
 30 31  1  0  0  0  0
 30 28  1  0  0  0  0
 31 32  1  0  0  0  0
 33 32  1  0  0  0  0
 34 35  1  0  0  0  0
M  END
>  <MODEL>
5

>  <REMARK>
 VINA RESULT:      -5.0      4.289      9.618
  Name = 
  8 active torsions:
  status: ('A' for Active; 'I' for Inactive)
    1  A    between atoms: C_2  and  C_34
    2  A    between atoms: N_8  and  C_28
    3  A    between atoms: C_11  and  C_14
    4  A    between atoms: C_12  and  C_32
    5  A    between atoms: C_16  and  C_29
    6  A    between atoms: C_23  and  N_27
    7  A    between atoms: N_30  and  C_31
    8  A    between atoms: C_31  and  C_32
                            x       y       z     vdW  Elec       q    Type
                         _______ _______ _______ _____ _____    ______ ____

>  <TORSDO>
F 8

$$$$
=
 OpenBabel11052410433D

 35 37  0  0  0  0  0  0  0  0999 V2000
  160.4200  207.1130  150.3940 C   0  0  0  0  0  2  0  0  0  0  0  0
  160.9510  208.1310  151.3030 N   0  0  0  0  0  0  0  0  0  0  0  0
  161.1750  205.8110  150.5250 C   0  0  0  0  0  0  0  0  0  0  0  0
  161.6900  206.4550  152.8380 C   0  0  0  0  0  3  0  0  0  0  0  0
  161.3080  207.7200  152.6420 C   0  0  0  0  0  0  0  0  0  0  0  0
  161.7240  205.4890  151.7230 C   0  0  0  0  0  0  0  0  0  0  0  0
  161.9150  210.6980  154.8400 N   0  0  0  0  0  0  0  0  0  0  0  0
  161.9790  209.8360  153.7900 C   0  0  0  0  0  3  0  0  0  0  0  0
  161.1370  210.4390  155.9240 C   0  0  0  0  0  0  0  0  0  0  0  0
  160.4370  208.3630  154.9200 C   0  0  0  0  0  0  0  0  0  0  0  0
  161.2340  208.6480  153.7950 C   0  0  0  0  0  0  0  0  0  0  0  0
  161.0830  211.5770  157.2520 Cl  0  0  0  0  0  0  0  0  0  0  0  0
  159.7370  207.2050  155.0060 F   0  0  0  0  0  0  0  0  0  0  0  0
  160.3890  209.2630  155.9850 C   0  0  0  0  0  3  0  0  0  0  0  0
  160.5380  210.5640  151.3590 C   0  0  0  0  0  3  0  0  0  0  0  0
  161.6530  212.0490  149.8120 C   0  0  0  0  0  3  0  0  0  0  0  0
  162.0860  209.6710  149.7310 C   0  0  0  0  0  3  0  0  0  0  0  0
  160.7580  211.8640  150.8760 C   0  0  0  0  0  0  0  0  0  0  0  0
  161.2010  209.4600  150.8010 C   0  0  0  0  0  0  0  0  0  0  0  0
  162.3130  210.9580  149.2410 C   0  0  0  0  0  3  0  0  0  0  0  0
  160.1000  214.2990  150.8340 C   0  0  0  0  0  1  0  0  0  0  0  0
  159.3300  212.8510  152.7070 C   0  0  0  0  0  1  0  0  0  0  0  0
  160.0740  212.9870  151.4630 N   0  0  0  0  0  0  0  0  0  0  0  0
  161.5450  205.3750  148.2260 O   0  0  0  0  0  0  0  0  0  0  0  0
  161.1840  204.9130  149.3420 C   0  0  0  0  0  0  0  0  0  0  0  0
  160.8300  203.5280  149.4640 N   0  0  0  0  0  2  0  0  0  0  0  0
  160.4710  201.3830  148.6540 O   0  0  0  0  0  0  0  0  0  0  0  0
  161.1480  202.9480  147.0620 N   0  0  0  0  0  2  0  0  0  0  0  0
  160.8020  202.5710  148.3990 C   0  0  0  0  0  0  0  0  0  0  0  0
  161.1070  202.0150  145.9460 C   0  0  0  0  0  2  0  0  0  0  0  0
  160.4500  202.6710  144.7430 C   0  0  0  0  0  2  0  0  0  0  0  0
  160.4130  204.1770  144.9220 C   0  0  0  0  0  2  0  0  0  0  0  0
  161.3970  204.7760  144.1330 O   0  0  0  0  0  1  0  0  0  0  0  0
  162.3240  204.1500  152.0130 C   0  0  0  0  0  2  0  0  0  0  0  0
  161.2380  203.1580  152.3840 C   0  0  0  0  0  1  0  0  0  0  0  0
  1  3  1  0  0  0  0
  1  2  1  0  0  0  0
  2  5  1  0  0  0  0
  3  6  2  0  0  0  0
  5  4  2  0  0  0  0
  5 11  1  0  0  0  0
  6 34  1  0  0  0  0
  6  4  1  0  0  0  0
  7  9  1  0  0  0  0
  8 11  1  0  0  0  0
  8  7  2  0  0  0  0
  9 14  2  0  0  0  0
  9 12  1  0  0  0  0
 10 13  1  0  0  0  0
 10 14  1  0  0  0  0
 11 10  2  0  0  0  0
 16 18  2  0  0  0  0
 17 19  1  0  0  0  0
 18 15  1  0  0  0  0
 18 23  1  0  0  0  0
 19  2  1  0  0  0  0
 19 15  2  0  0  0  0
 20 17  2  0  0  0  0
 20 16  1  0  0  0  0
 21 23  1  0  0  0  0
 23 22  1  0  0  0  0
 24 25  2  0  0  0  0
 25 26  1  0  0  0  0
 25  3  1  0  0  0  0
 28 29  1  0  0  0  0
 29 27  2  0  0  0  0
 29 26  1  0  0  0  0
 30 28  1  0  0  0  0
 31 32  1  0  0  0  0
 31 30  1  0  0  0  0
 33 32  1  0  0  0  0
 34 35  1  0  0  0  0
M  END
>  <MODEL>
6

>  <REMARK>
 VINA RESULT:      -4.6      4.251      9.575
  Name = 
  8 active torsions:
  status: ('A' for Active; 'I' for Inactive)
    1  A    between atoms: C_2  and  C_34
    2  A    between atoms: N_8  and  C_28
    3  A    between atoms: C_11  and  C_14
    4  A    between atoms: C_12  and  C_32
    5  A    between atoms: C_16  and  C_29
    6  A    between atoms: C_23  and  N_27
    7  A    between atoms: N_30  and  C_31
    8  A    between atoms: C_31  and  C_32
                            x       y       z     vdW  Elec       q    Type
                         _______ _______ _______ _____ _____    ______ ____

>  <TORSDO>
F 8

$$$$
