=
 OpenBabel11052410103D

 54 58  0  0  1  0  0  0  0  0999 V2000
  161.1150  212.6890  150.3740 O   0  0  0  0  0  0  0  0  0  0  0  0
  162.1470  209.2910  151.0750 C   0  0  1  0  0  3  0  0  0  0  0  0
  161.6350  210.7250  149.1950 N   0  0  0  0  0  0  0  0  0  0  0  0
  161.4330  211.4700  150.3780 C   0  0  0  0  0  0  0  0  0  0  0  0
  162.0180  209.4180  149.5880 C   0  0  0  0  0  0  0  0  0  0  0  0
  162.8900  207.6780  147.9490 O   0  0  0  0  0  0  0  0  0  0  0  0
  162.4660  208.5240  148.7460 C   0  0  0  0  0  0  0  0  0  0  0  0
  161.6980  210.6820  151.6170 C   0  0  1  0  0  3  0  0  0  0  0  0
  160.4500  210.6670  152.5010 C   0  0  0  0  0  2  0  0  0  0  0  0
  160.6500  211.4890  153.6470 O   0  0  0  0  0  0  0  0  0  0  0  0
  158.5330  213.0800  152.4350 N   0  0  0  0  0  0  0  0  0  0  0  0
  158.6110  212.9040  153.7820 C   0  0  0  0  0  0  0  0  0  0  0  0
  158.6330  212.5470  156.5400 C   0  0  0  0  0  3  0  0  0  0  0  0
  159.6150  211.9360  155.7590 C   0  0  0  0  0  3  0  0  0  0  0  0
  156.6340  214.2840  154.0430 C   0  0  0  0  0  3  0  0  0  0  0  0
  156.5910  214.4530  152.6590 C   0  0  0  0  0  3  0  0  0  0  0  0
  159.6240  212.1150  154.3730 C   0  0  0  0  0  0  0  0  0  0  0  0
  157.5570  213.8350  151.8640 C   0  0  0  0  0  3  0  0  0  0  0  0
  157.6770  213.3160  155.9590 N   0  0  0  0  0  0  0  0  0  0  0  0
  157.6400  213.5040  154.6150 C   0  0  0  0  0  0  0  0  0  0  0  0
  161.3380  208.0950  151.5840 C   0  0  0  0  0  2  0  0  0  0  0  0
  162.2050  207.1690  152.4220 C   0  0  0  0  0  2  0  0  0  0  0  0
  161.4580  205.8840  152.7340 C   0  0  0  0  0  2  0  0  0  0  0  0
  161.9040  204.7660  151.8060 C   0  0  0  0  0  2  0  0  0  0  0  0
  160.8130  201.9450  152.1520 O   0  0  0  0  0  0  0  0  0  0  0  0
  159.9640  206.6200  148.5730 O   0  0  0  0  0  0  0  0  0  0  0  0
  160.9230  203.1930  148.8360 C   0  0  0  0  0  0  0  0  0  0  0  0
  160.9740  201.6480  147.0260 N   0  0  0  0  0  0  0  0  0  0  0  0
  160.8480  202.6390  151.1020 C   0  0  0  0  0  0  0  0  0  0  0  0
  160.7850  204.4380  149.5890 C   0  0  0  0  0  0  0  0  0  0  0  0
  160.8930  201.4240  145.5960 C   0  0  0  0  0  1  0  0  0  0  0  0
  161.2310  200.4920  147.9080 C   0  0  0  0  0  2  0  0  0  0  0  0
  160.9860  202.0970  149.7620 C   0  0  0  0  0  0  0  0  0  0  0  0
  160.8920  202.9950  147.5210 C   0  0  0  0  0  3  0  0  0  0  0  0
  160.3630  205.5590  149.0680 C   0  0  0  0  0  0  0  0  0  0  0  0
  160.7220  204.1380  151.0700 C   0  0  2  0  0  3  0  0  0  0  0  0
  161.0880  200.8260  149.3780 C   0  0  0  0  0  3  0  0  0  0  0  0
  161.3060  211.1670  147.8460 C   0  0  0  0  0  2  0  0  0  0  0  0
  162.1260  212.3970  147.4910 C   0  0  0  0  0  2  0  0  0  0  0  0
  161.5730  213.0700  146.2460 C   0  0  1  0  0  3  0  0  0  0  0  0
  160.5740  214.0610  146.6190 N   0  0  0  0  0  2  0  0  0  0  0  0
  159.2930  213.5620  146.1520 C   0  0  0  0  0  2  0  0  0  0  0  0
  158.2240  213.8710  147.1780 C   0  0  0  0  0  2  0  0  0  0  0  0
  158.8730  214.4340  148.4260 C   0  0  0  0  0  1  0  0  0  0  0  0
  162.6640  213.7260  145.5430 N   0  0  0  0  0  2  0  0  0  0  0  0
  162.2570  213.9000  144.1550 C   0  0  0  0  0  2  0  0  0  0  0  0
  162.4290  212.6530  143.4200 N   0  0  0  0  0  2  0  0  0  0  0  0
  161.1630  212.2620  142.9620 N   0  0  0  0  0  2  0  0  0  0  0  0
  161.3470  211.6460  141.6550 C   0  0  0  0  0  2  0  0  0  0  0  0
  161.8890  212.6610  140.6540 C   0  0  0  0  0  2  0  0  0  0  0  0
  161.1280  211.4070  138.7340 N   0  0  0  0  0  0  0  0  0  0  0  0
  162.0850  212.0420  139.3060 C   0  0  0  0  0  3  0  0  0  0  0  0
  161.3160  210.8120  137.4370 C   0  0  0  0  0  2  0  0  0  0  0  0
  162.6430  210.4120  137.2820 O   0  0  0  0  0  1  0  0  0  0  0  0
  1  4  2  0  0  0  0
  2 21  1  1  0  0  0
  2  8  1  0  0  0  0
  3  5  1  0  0  0  0
  3  4  1  0  0  0  0
  4  8  1  0  0  0  0
  5  2  1  0  0  0  0
  6  7  2  0  0  0  0
  7  5  2  0  0  0  0
  8  9  1  1  0  0  0
  9 10  1  0  0  0  0
 10 17  1  0  0  0  0
 11 12  1  0  0  0  0
 12 17  2  0  0  0  0
 12 20  1  0  0  0  0
 14 13  2  0  0  0  0
 15 20  1  0  0  0  0
 16 15  2  0  0  0  0
 17 14  1  0  0  0  0
 18 11  2  0  0  0  0
 18 16  1  0  0  0  0
 19 13  1  0  0  0  0
 20 19  2  0  0  0  0
 21 22  1  0  0  0  0
 22 23  1  0  0  0  0
 24 23  1  0  0  0  0
 26 35  2  0  0  0  0
 27 30  1  0  0  0  0
 27 33  1  0  0  0  0
 28 34  1  0  0  0  0
 28 32  1  0  0  0  0
 29 25  2  0  0  0  0
 30 36  1  0  0  0  0
 31 28  1  0  0  0  0
 32 37  1  0  0  0  0
 33 29  1  0  0  0  0
 34 27  2  0  0  0  0
 35 30  2  0  0  0  0
 36 29  1  0  0  0  0
 36 24  1  1  0  0  0
 37 33  2  0  0  0  0
 38  3  1  0  0  0  0
 39 38  1  0  0  0  0
 40 41  1  0  0  0  0
 40 39  1  1  0  0  0
 42 41  1  0  0  0  0
 42 43  1  0  0  0  0
 43 44  1  0  0  0  0
 45 40  1  0  0  0  0
 46 45  1  0  0  0  0
 47 46  1  0  0  0  0
 48 47  1  0  0  0  0
 49 48  1  0  0  0  0
 50 49  1  0  0  0  0
 51 52  2  0  0  0  0
 52 50  1  0  0  0  0
 53 51  1  0  0  0  0
 54 53  1  0  0  0  0
M  END
>  <MODEL>
1

>  <REMARK>
 VINA RESULT:      -6.1      0.000      0.000
  Name = 
  22 active torsions:
  status: ('A' for Active; 'I' for Inactive)
    1  A    between atoms: C_1  and  C_12
    2  A    between atoms: N_2  and  C_17
    3  A    between atoms: N_2  and  C_46
    4  A    between atoms: O_5  and  C_23
    5  A    between atoms: O_5  and  C_36
    6  A    between atoms: C_7  and  C_15
    7  A    between atoms: C_7  and  N_21
    8  A    between atoms: C_8  and  C_35
    9  A    between atoms: C_12  and  N_30
   10  A    between atoms: C_15  and  C_17
   11  A    between atoms: C_17  and  N_30
   12  A    between atoms: C_19  and  N_47
   13  A    between atoms: C_19  and  C_52
   14  A    between atoms: C_23  and  C_53
   15  A    between atoms: N_24  and  C_41
   16  A    between atoms: N_26  and  C_46
   17  A    between atoms: N_26  and  N_47
   18  A    between atoms: C_28  and  C_34
   19  A    between atoms: C_28  and  C_40
   20  A    between atoms: C_34  and  C_35
   21  A    between atoms: C_40  and  C_49
   22  A    between atoms: C_44  and  C_52
                            x       y       z     vdW  Elec       q    Type
                         _______ _______ _______ _____ _____    ______ ____

>  <TORSDO>
F 22

$$$$
=
 OpenBabel11052410103D

 54 58  0  0  1  0  0  0  0  0999 V2000
  162.6180  208.1530  147.5360 O   0  0  0  0  0  0  0  0  0  0  0  0
  161.7760  207.3710  150.9670 C   0  0  1  0  0  3  0  0  0  0  0  0
  161.4350  206.5140  148.7310 N   0  0  0  0  0  0  0  0  0  0  0  0
  162.1780  207.7110  148.6290 C   0  0  0  0  0  0  0  0  0  0  0  0
  161.1510  206.3170  150.1060 C   0  0  0  0  0  0  0  0  0  0  0  0
  160.1620  204.1580  151.0210 O   0  0  0  0  0  0  0  0  0  0  0  0
  160.6430  205.2080  150.5760 C   0  0  0  0  0  0  0  0  0  0  0  0
  162.4370  208.3520  149.9520 C   0  0  1  0  0  3  0  0  0  0  0  0
  161.8770  209.7750  149.9590 C   0  0  0  0  0  2  0  0  0  0  0  0
  161.6620  210.2250  148.6250 O   0  0  0  0  0  0  0  0  0  0  0  0
  159.7360  211.8970  147.2180 N   0  0  0  0  0  0  0  0  0  0  0  0
  161.0070  212.3200  147.4600 C   0  0  0  0  0  0  0  0  0  0  0  0
  163.5540  213.3140  147.9680 C   0  0  0  0  0  3  0  0  0  0  0  0
  163.2110  212.0390  148.4180 C   0  0  0  0  0  3  0  0  0  0  0  0
  160.4920  214.4040  146.3300 C   0  0  0  0  0  3  0  0  0  0  0  0
  159.2010  213.9330  146.0890 C   0  0  0  0  0  3  0  0  0  0  0  0
  161.9390  211.5210  148.1610 C   0  0  0  0  0  0  0  0  0  0  0  0
  158.8380  212.6660  146.5480 C   0  0  0  0  0  3  0  0  0  0  0  0
  162.6540  214.0630  147.2810 N   0  0  0  0  0  0  0  0  0  0  0  0
  161.4030  213.6040  147.0220 C   0  0  0  0  0  0  0  0  0  0  0  0
  160.7320  207.9940  151.8980 C   0  0  0  0  0  2  0  0  0  0  0  0
  160.9140  207.5030  153.3250 C   0  0  0  0  0  2  0  0  0  0  0  0
  160.9140  208.6740  154.2910 C   0  0  0  0  0  2  0  0  0  0  0  0
  161.8650  209.7600  153.8170 C   0  0  0  0  0  2  0  0  0  0  0  0
  161.8680  210.7980  156.6790 O   0  0  0  0  0  0  0  0  0  0  0  0
  159.9810  212.5660  151.3210 O   0  0  0  0  0  0  0  0  0  0  0  0
  159.0940  211.7220  154.6730 C   0  0  0  0  0  0  0  0  0  0  0  0
  157.0550  212.3300  155.7390 N   0  0  0  0  0  0  0  0  0  0  0  0
  161.0610  211.0780  155.7540 C   0  0  0  0  0  0  0  0  0  0  0  0
  160.1240  211.5530  153.6490 C   0  0  0  0  0  0  0  0  0  0  0  0
  155.7200  212.8830  155.6190 C   0  0  0  0  0  1  0  0  0  0  0  0
  157.5030  211.8510  157.0610 C   0  0  0  0  0  2  0  0  0  0  0  0
  159.6600  211.4080  155.9550 C   0  0  0  0  0  0  0  0  0  0  0  0
  157.8540  212.1880  154.5530 C   0  0  0  0  0  3  0  0  0  0  0  0
  160.0510  212.0730  152.4530 C   0  0  0  0  0  0  0  0  0  0  0  0
  161.4280  211.1430  154.2960 C   0  0  2  0  0  3  0  0  0  0  0  0
  158.9740  211.4910  157.0940 C   0  0  0  0  0  3  0  0  0  0  0  0
  160.8940  205.7520  147.6130 C   0  0  0  0  0  2  0  0  0  0  0  0
  161.8550  204.6380  147.2330 C   0  0  0  0  0  2  0  0  0  0  0  0
  162.0390  204.5770  145.7260 C   0  0  1  0  0  3  0  0  0  0  0  0
  161.2320  203.5010  145.1700 N   0  0  0  0  0  2  0  0  0  0  0  0
  161.2190  202.4330  146.1540 C   0  0  0  0  0  2  0  0  0  0  0  0
  160.4280  201.2590  145.6180 C   0  0  0  0  0  2  0  0  0  0  0  0
  161.1030  199.9680  146.0320 C   0  0  0  0  0  1  0  0  0  0  0  0
  161.6170  205.8430  145.1490 N   0  0  0  0  0  2  0  0  0  0  0  0
  161.1560  205.5820  143.7930 C   0  0  0  0  0  2  0  0  0  0  0  0
  162.2000  205.9140  142.8330 N   0  0  0  0  0  2  0  0  0  0  0  0
  161.5780  206.5270  141.7350 N   0  0  0  0  0  2  0  0  0  0  0  0
  162.2920  206.1010  140.5400 C   0  0  0  0  0  2  0  0  0  0  0  0
  162.0480  207.0760  139.3930 C   0  0  0  0  0  2  0  0  0  0  0  0
  161.1260  209.3080  139.3350 N   0  0  0  0  0  0  0  0  0  0  0  0
  161.9350  208.4820  139.8900 C   0  0  0  0  0  3  0  0  0  0  0  0
  161.0150  210.6610  139.8150 C   0  0  0  0  0  2  0  0  0  0  0  0
  161.0980  210.6820  141.2070 O   0  0  0  0  0  1  0  0  0  0  0  0
  1  4  2  0  0  0  0
  2 21  1  6  0  0  0
  3  5  1  0  0  0  0
  4  3  1  0  0  0  0
  4  8  1  0  0  0  0
  5  7  2  0  0  0  0
  5  2  1  0  0  0  0
  7  6  2  0  0  0  0
  8  9  1  6  0  0  0
  8  2  1  0  0  0  0
 10  9  1  0  0  0  0
 11 12  1  0  0  0  0
 12 17  1  0  0  0  0
 13 14  1  0  0  0  0
 15 20  1  0  0  0  0
 16 15  2  0  0  0  0
 16 18  1  0  0  0  0
 17 14  2  0  0  0  0
 17 10  1  0  0  0  0
 18 11  2  0  0  0  0
 19 13  2  0  0  0  0
 20 19  1  0  0  0  0
 20 12  2  0  0  0  0
 21 22  1  0  0  0  0
 22 23  1  0  0  0  0
 24 23  1  0  0  0  0
 26 35  2  0  0  0  0
 27 33  1  0  0  0  0
 28 32  1  0  0  0  0
 29 33  1  0  0  0  0
 29 25  2  0  0  0  0
 30 36  1  0  0  0  0
 30 27  1  0  0  0  0
 31 28  1  0  0  0  0
 32 37  1  0  0  0  0
 33 37  2  0  0  0  0
 34 27  2  0  0  0  0
 34 28  1  0  0  0  0
 35 30  2  0  0  0  0
 36 24  1  6  0  0  0
 36 29  1  0  0  0  0
 38  3  1  0  0  0  0
 39 38  1  0  0  0  0
 40 39  1  1  0  0  0
 41 40  1  0  0  0  0
 41 42  1  0  0  0  0
 43 44  1  0  0  0  0
 43 42  1  0  0  0  0
 45 40  1  0  0  0  0
 46 45  1  0  0  0  0
 47 46  1  0  0  0  0
 48 47  1  0  0  0  0
 49 48  1  0  0  0  0
 50 52  1  0  0  0  0
 50 49  1  0  0  0  0
 51 53  1  0  0  0  0
 51 52  2  0  0  0  0
 53 54  1  0  0  0  0
M  END
>  <MODEL>
2

>  <REMARK>
 VINA RESULT:      -5.9      2.502      8.174
  Name = 
  22 active torsions:
  status: ('A' for Active; 'I' for Inactive)
    1  A    between atoms: C_1  and  C_12
    2  A    between atoms: N_2  and  C_17
    3  A    between atoms: N_2  and  C_46
    4  A    between atoms: O_5  and  C_23
    5  A    between atoms: O_5  and  C_36
    6  A    between atoms: C_7  and  C_15
    7  A    between atoms: C_7  and  N_21
    8  A    between atoms: C_8  and  C_35
    9  A    between atoms: C_12  and  N_30
   10  A    between atoms: C_15  and  C_17
   11  A    between atoms: C_17  and  N_30
   12  A    between atoms: C_19  and  N_47
   13  A    between atoms: C_19  and  C_52
   14  A    between atoms: C_23  and  C_53
   15  A    between atoms: N_24  and  C_41
   16  A    between atoms: N_26  and  C_46
   17  A    between atoms: N_26  and  N_47
   18  A    between atoms: C_28  and  C_34
   19  A    between atoms: C_28  and  C_40
   20  A    between atoms: C_34  and  C_35
   21  A    between atoms: C_40  and  C_49
   22  A    between atoms: C_44  and  C_52
                            x       y       z     vdW  Elec       q    Type
                         _______ _______ _______ _____ _____    ______ ____

>  <TORSDO>
F 22

$$$$
=
 OpenBabel11052410103D

 54 58  0  0  1  0  0  0  0  0999 V2000
  162.4550  212.5170  147.8690 O   0  0  0  0  0  0  0  0  0  0  0  0
  160.1740  213.0170  150.6330 C   0  0  1  0  0  3  0  0  0  0  0  0
  161.8130  211.4210  149.8450 N   0  0  0  0  0  0  0  0  0  0  0  0
  161.7220  212.4600  148.8910 C   0  0  0  0  0  0  0  0  0  0  0  0
  160.8720  211.7130  150.8650 C   0  0  0  0  0  0  0  0  0  0  0  0
  160.7800  210.4410  153.0680 O   0  0  0  0  0  0  0  0  0  0  0  0
  160.8240  211.0590  151.9970 C   0  0  0  0  0  0  0  0  0  0  0  0
  160.7200  213.5040  149.2570 C   0  0  1  0  0  3  0  0  0  0  0  0
  159.6750  213.6330  148.1480 C   0  0  0  0  0  2  0  0  0  0  0  0
  160.2130  214.3610  147.0490 O   0  0  0  0  0  0  0  0  0  0  0  0
  162.0790  213.5290  144.9730 N   0  0  0  0  0  0  0  0  0  0  0  0
  160.7700  213.7820  144.6970 C   0  0  0  0  0  0  0  0  0  0  0  0
  158.1010  214.1980  144.0370 C   0  0  0  0  0  3  0  0  0  0  0  0
  158.5160  214.3590  145.3590 C   0  0  0  0  0  3  0  0  0  0  0  0
  161.1950  213.2540  142.3680 C   0  0  0  0  0  3  0  0  0  0  0  0
  162.5320  213.0150  142.6840 C   0  0  0  0  0  3  0  0  0  0  0  0
  159.8560  214.1650  145.7050 C   0  0  0  0  0  0  0  0  0  0  0  0
  162.9590  213.1560  144.0060 C   0  0  0  0  0  3  0  0  0  0  0  0
  158.9940  213.8460  143.0770 N   0  0  0  0  0  0  0  0  0  0  0  0
  160.3030  213.6330  143.3720 C   0  0  0  0  0  0  0  0  0  0  0  0
  158.6550  212.8350  150.7100 C   0  0  0  0  0  2  0  0  0  0  0  0
  158.0410  213.8070  151.7030 C   0  0  0  0  0  2  0  0  0  0  0  0
  158.3550  213.3790  153.1270 C   0  0  0  0  0  2  0  0  0  0  0  0
  157.1590  213.6170  154.0330 C   0  0  0  0  0  2  0  0  0  0  0  0
  159.1840  214.4530  156.1470 O   0  0  0  0  0  0  0  0  0  0  0  0
  155.2460  210.0830  155.2600 O   0  0  0  0  0  0  0  0  0  0  0  0
  158.6680  210.9680  155.7540 C   0  0  0  0  0  0  0  0  0  0  0  0
  160.3790  209.4650  156.4480 N   0  0  0  0  0  0  0  0  0  0  0  0
  158.7520  213.2960  155.9020 C   0  0  0  0  0  0  0  0  0  0  0  0
  157.3680  211.4830  155.3280 C   0  0  0  0  0  0  0  0  0  0  0  0
  160.7870  208.0980  156.7050 C   0  0  0  0  0  1  0  0  0  0  0  0
  161.3720  210.5430  156.6260 C   0  0  0  0  0  2  0  0  0  0  0  0
  159.5210  212.0760  156.0810 C   0  0  0  0  0  0  0  0  0  0  0  0
  159.0540  209.7090  155.9470 C   0  0  0  0  0  3  0  0  0  0  0  0
  156.2780  210.7640  155.2930 C   0  0  0  0  0  0  0  0  0  0  0  0
  157.3620  212.9930  155.4120 C   0  0  2  0  0  3  0  0  0  0  0  0
  160.7670  211.9280  156.5270 C   0  0  0  0  0  3  0  0  0  0  0  0
  162.5780  210.1920  149.6910 C   0  0  0  0  0  2  0  0  0  0  0  0
  161.6870  209.0960  149.1290 C   0  0  0  0  0  2  0  0  0  0  0  0
  162.1730  207.7270  149.5750 C   0  0  1  0  0  3  0  0  0  0  0  0
  162.2460  207.6750  151.0280 N   0  0  0  0  0  2  0  0  0  0  0  0
  162.2470  206.2710  151.3990 C   0  0  0  0  0  2  0  0  0  0  0  0
  161.0350  205.9720  152.2550 C   0  0  0  0  0  2  0  0  0  0  0  0
  161.3500  206.2930  153.7010 C   0  0  0  0  0  1  0  0  0  0  0  0
  161.2370  206.7190  149.1030 N   0  0  0  0  0  2  0  0  0  0  0  0
  161.1770  206.8130  147.6510 C   0  0  0  0  0  2  0  0  0  0  0  0
  162.2620  206.0470  147.0520 N   0  0  0  0  0  2  0  0  0  0  0  0
  162.0440  206.0290  145.6660 N   0  0  0  0  0  2  0  0  0  0  0  0
  161.4860  204.7270  145.3320 C   0  0  0  0  0  2  0  0  0  0  0  0
  162.1000  203.6380  146.2050 C   0  0  0  0  0  2  0  0  0  0  0  0
  161.4620  202.5850  148.2830 N   0  0  0  0  0  0  0  0  0  0  0  0
  161.0930  203.0730  147.1560 C   0  0  0  0  0  3  0  0  0  0  0  0
  160.4930  202.0410  149.1990 C   0  0  0  0  0  2  0  0  0  0  0  0
  160.3710  202.8710  150.3130 O   0  0  0  0  0  1  0  0  0  0  0  0
  1  4  2  0  0  0  0
  2 21  1  6  0  0  0
  2  5  1  0  0  0  0
  3  5  1  0  0  0  0
  4  8  1  0  0  0  0
  4  3  1  0  0  0  0
  5  7  2  0  0  0  0
  7  6  2  0  0  0  0
  8  9  1  6  0  0  0
  8  2  1  0  0  0  0
 10  9  1  0  0  0  0
 12 11  1  0  0  0  0
 12 17  1  0  0  0  0
 13 14  1  0  0  0  0
 14 17  2  0  0  0  0
 15 16  2  0  0  0  0
 15 20  1  0  0  0  0
 16 18  1  0  0  0  0
 17 10  1  0  0  0  0
 18 11  2  0  0  0  0
 19 20  1  0  0  0  0
 19 13  2  0  0  0  0
 20 12  2  0  0  0  0
 21 22  1  0  0  0  0
 22 23  1  0  0  0  0
 23 24  1  0  0  0  0
 26 35  2  0  0  0  0
 27 34  2  0  0  0  0
 27 33  1  0  0  0  0
 28 32  1  0  0  0  0
 28 31  1  0  0  0  0
 29 33  1  0  0  0  0
 29 25  2  0  0  0  0
 30 36  1  0  0  0  0
 30 27  1  0  0  0  0
 33 37  2  0  0  0  0
 34 28  1  0  0  0  0
 35 30  2  0  0  0  0
 36 24  1  6  0  0  0
 36 29  1  0  0  0  0
 37 32  1  0  0  0  0
 38  3  1  0  0  0  0
 39 38  1  0  0  0  0
 40 39  1  1  0  0  0
 40 41  1  0  0  0  0
 41 42  1  0  0  0  0
 42 43  1  0  0  0  0
 43 44  1  0  0  0  0
 45 40  1  0  0  0  0
 46 45  1  0  0  0  0
 47 46  1  0  0  0  0
 48 47  1  0  0  0  0
 49 48  1  0  0  0  0
 49 50  1  0  0  0  0
 50 52  1  0  0  0  0
 51 53  1  0  0  0  0
 52 51  2  0  0  0  0
 53 54  1  0  0  0  0
M  END
>  <MODEL>
3

>  <REMARK>
 VINA RESULT:      -5.8      2.669      9.576
  Name = 
  22 active torsions:
  status: ('A' for Active; 'I' for Inactive)
    1  A    between atoms: C_1  and  C_12
    2  A    between atoms: N_2  and  C_17
    3  A    between atoms: N_2  and  C_46
    4  A    between atoms: O_5  and  C_23
    5  A    between atoms: O_5  and  C_36
    6  A    between atoms: C_7  and  C_15
    7  A    between atoms: C_7  and  N_21
    8  A    between atoms: C_8  and  C_35
    9  A    between atoms: C_12  and  N_30
   10  A    between atoms: C_15  and  C_17
   11  A    between atoms: C_17  and  N_30
   12  A    between atoms: C_19  and  N_47
   13  A    between atoms: C_19  and  C_52
   14  A    between atoms: C_23  and  C_53
   15  A    between atoms: N_24  and  C_41
   16  A    between atoms: N_26  and  C_46
   17  A    between atoms: N_26  and  N_47
   18  A    between atoms: C_28  and  C_34
   19  A    between atoms: C_28  and  C_40
   20  A    between atoms: C_34  and  C_35
   21  A    between atoms: C_40  and  C_49
   22  A    between atoms: C_44  and  C_52
                            x       y       z     vdW  Elec       q    Type
                         _______ _______ _______ _____ _____    ______ ____

>  <TORSDO>
F 22

$$$$
=
 OpenBabel11052410103D

 54 58  0  0  1  0  0  0  0  0999 V2000
  162.5810  209.0820  151.1170 O   0  0  0  0  0  0  0  0  0  0  0  0
  161.7520  211.3660  148.4350 C   0  0  1  0  0  3  0  0  0  0  0  0
  161.5530  211.1760  150.8390 N   0  0  0  0  0  0  0  0  0  0  0  0
  162.1670  209.9970  150.3570 C   0  0  0  0  0  0  0  0  0  0  0  0
  161.2620  211.9820  149.7090 C   0  0  0  0  0  0  0  0  0  0  0  0
  160.4890  214.4000  149.8960 O   0  0  0  0  0  0  0  0  0  0  0  0
  160.8650  213.2240  149.8050 C   0  0  0  0  0  0  0  0  0  0  0  0
  162.3260  209.9860  148.8740 C   0  0  1  0  0  3  0  0  0  0  0  0
  161.6170  208.7660  148.2840 C   0  0  0  0  0  2  0  0  0  0  0  0
  161.3700  207.8010  149.3030 O   0  0  0  0  0  0  0  0  0  0  0  0
  161.1010  205.8420  151.4410 N   0  0  0  0  0  0  0  0  0  0  0  0
  161.1820  205.4670  150.1350 C   0  0  0  0  0  0  0  0  0  0  0  0
  161.2630  204.5940  147.4960 C   0  0  0  0  0  3  0  0  0  0  0  0
  161.3200  205.9610  147.7710 C   0  0  0  0  0  3  0  0  0  0  0  0
  161.0210  203.1480  150.8270 C   0  0  0  0  0  3  0  0  0  0  0  0
  160.9530  203.5670  152.1560 C   0  0  0  0  0  3  0  0  0  0  0  0
  161.2920  206.4150  149.0920 C   0  0  0  0  0  0  0  0  0  0  0  0
  160.9920  204.9320  152.4450 C   0  0  0  0  0  3  0  0  0  0  0  0
  161.1760  203.6950  148.5090 N   0  0  0  0  0  0  0  0  0  0  0  0
  161.1310  204.0930  149.8060 C   0  0  0  0  0  0  0  0  0  0  0  0
  160.6270  211.3110  147.3980 C   0  0  0  0  0  2  0  0  0  0  0  0
  160.6100  212.5690  146.5460 C   0  0  0  0  0  2  0  0  0  0  0  0
  159.9320  212.2970  145.2140 C   0  0  0  0  0  2  0  0  0  0  0  0
  159.4270  213.5900  144.5960 C   0  0  0  0  0  2  0  0  0  0  0  0
  158.0250  214.1830  141.9590 O   0  0  0  0  0  0  0  0  0  0  0  0
  163.5470  213.1350  143.9100 O   0  0  0  0  0  0  0  0  0  0  0  0
  160.8770  212.0840  141.7870 C   0  0  0  0  0  0  0  0  0  0  0  0
  161.1070  210.6030  139.9380 N   0  0  0  0  0  0  0  0  0  0  0  0
  159.1070  213.5650  142.1400 C   0  0  0  0  0  0  0  0  0  0  0  0
  161.1970  212.8780  142.9730 C   0  0  0  0  0  0  0  0  0  0  0  0
  161.9410  209.6760  139.2000 C   0  0  0  0  0  1  0  0  0  0  0  0
  159.7220  210.8270  139.4770 C   0  0  0  0  0  2  0  0  0  0  0  0
  159.5900  212.4870  141.2940 C   0  0  0  0  0  0  0  0  0  0  0  0
  161.6280  211.2000  141.1370 C   0  0  0  0  0  3  0  0  0  0  0  0
  162.4040  213.0100  143.4550 C   0  0  0  0  0  0  0  0  0  0  0  0
  160.0830  213.8650  143.2450 C   0  0  2  0  0  3  0  0  0  0  0  0
  159.0320  211.9620  140.2050 C   0  0  0  0  0  3  0  0  0  0  0  0
  161.1220  211.4090  152.2100 C   0  0  0  0  0  2  0  0  0  0  0  0
  160.0130  210.4360  152.5760 C   0  0  0  0  0  2  0  0  0  0  0  0
  160.0080  210.1650  154.0710 C   0  0  1  0  0  3  0  0  0  0  0  0
  160.6960  208.9140  154.3520 N   0  0  0  0  0  2  0  0  0  0  0  0
  161.1250  208.9710  155.7380 C   0  0  0  0  0  2  0  0  0  0  0  0
  160.5380  207.8020  156.4990 C   0  0  0  0  0  2  0  0  0  0  0  0
  160.1210  206.7240  155.5200 C   0  0  0  0  0  1  0  0  0  0  0  0
  160.6930  211.2540  154.7490 N   0  0  0  0  0  2  0  0  0  0  0  0
  159.6850  212.2110  155.1840 C   0  0  0  0  0  2  0  0  0  0  0  0
  158.9960  211.7140  156.3680 N   0  0  0  0  0  2  0  0  0  0  0  0
  158.0970  212.7100  156.7760 N   0  0  0  0  0  2  0  0  0  0  0  0
  156.7610  212.1350  156.7260 C   0  0  0  0  0  2  0  0  0  0  0  0
  156.4900  211.5230  155.3560 C   0  0  0  0  0  2  0  0  0  0  0  0
  156.4280  213.5150  153.9900 N   0  0  0  0  0  0  0  0  0  0  0  0
  155.8010  212.4970  154.4530 C   0  0  0  0  0  3  0  0  0  0  0  0
  155.7650  214.4520  153.1210 C   0  0  0  0  0  2  0  0  0  0  0  0
  155.6630  213.9200  151.8350 O   0  0  0  0  0  1  0  0  0  0  0  0
  2 21  1  6  0  0  0
  2  8  1  0  0  0  0
  2  5  1  0  0  0  0
  3 38  1  0  0  0  0
  4  3  1  0  0  0  0
  4  1  2  0  0  0  0
  5  7  2  0  0  0  0
  5  3  1  0  0  0  0
  7  6  2  0  0  0  0
  8  9  1  6  0  0  0
  8  4  1  0  0  0  0
  9 10  1  0  0  0  0
 11 18  1  0  0  0  0
 12 11  2  0  0  0  0
 13 14  1  0  0  0  0
 13 19  2  0  0  0  0
 14 17  2  0  0  0  0
 15 16  1  0  0  0  0
 16 18  2  0  0  0  0
 17 10  1  0  0  0  0
 17 12  1  0  0  0  0
 19 20  1  0  0  0  0
 20 12  1  0  0  0  0
 20 15  2  0  0  0  0
 22 21  1  0  0  0  0
 23 22  1  0  0  0  0
 24 23  1  0  0  0  0
 25 29  2  0  0  0  0
 27 30  1  0  0  0  0
 28 34  1  0  0  0  0
 29 36  1  0  0  0  0
 30 36  1  0  0  0  0
 30 35  2  0  0  0  0
 31 28  1  0  0  0  0
 32 28  1  0  0  0  0
 32 37  1  0  0  0  0
 33 27  1  0  0  0  0
 33 29  1  0  0  0  0
 34 27  2  0  0  0  0
 35 26  2  0  0  0  0
 36 24  1  1  0  0  0
 37 33  2  0  0  0  0
 38 39  1  0  0  0  0
 40 39  1  6  0  0  0
 40 41  1  0  0  0  0
 40 45  1  0  0  0  0
 41 42  1  0  0  0  0
 42 43  1  0  0  0  0
 44 43  1  0  0  0  0
 45 46  1  0  0  0  0
 46 47  1  0  0  0  0
 47 48  1  0  0  0  0
 49 48  1  0  0  0  0
 50 49  1  0  0  0  0
 51 52  2  0  0  0  0
 52 50  1  0  0  0  0
 53 51  1  0  0  0  0
 54 53  1  0  0  0  0
M  END
>  <MODEL>
4

>  <REMARK>
 VINA RESULT:      -5.5      2.642     10.846
  Name = 
  22 active torsions:
  status: ('A' for Active; 'I' for Inactive)
    1  A    between atoms: C_1  and  C_12
    2  A    between atoms: N_2  and  C_17
    3  A    between atoms: N_2  and  C_46
    4  A    between atoms: O_5  and  C_23
    5  A    between atoms: O_5  and  C_36
    6  A    between atoms: C_7  and  C_15
    7  A    between atoms: C_7  and  N_21
    8  A    between atoms: C_8  and  C_35
    9  A    between atoms: C_12  and  N_30
   10  A    between atoms: C_15  and  C_17
   11  A    between atoms: C_17  and  N_30
   12  A    between atoms: C_19  and  N_47
   13  A    between atoms: C_19  and  C_52
   14  A    between atoms: C_23  and  C_53
   15  A    between atoms: N_24  and  C_41
   16  A    between atoms: N_26  and  C_46
   17  A    between atoms: N_26  and  N_47
   18  A    between atoms: C_28  and  C_34
   19  A    between atoms: C_28  and  C_40
   20  A    between atoms: C_34  and  C_35
   21  A    between atoms: C_40  and  C_49
   22  A    between atoms: C_44  and  C_52
                            x       y       z     vdW  Elec       q    Type
                         _______ _______ _______ _____ _____    ______ ____

>  <TORSDO>
F 22

$$$$
=
 OpenBabel11052410103D

 54 58  0  0  1  0  0  0  0  0999 V2000
  161.7570  208.2800  151.2440 O   0  0  0  0  0  0  0  0  0  0  0  0
  162.0360  211.0900  148.9810 C   0  0  1  0  0  3  0  0  0  0  0  0
  161.0230  210.5060  151.0990 N   0  0  0  0  0  0  0  0  0  0  0  0
  161.6850  209.3600  150.6020 C   0  0  0  0  0  0  0  0  0  0  0  0
  161.1850  211.5300  150.1320 C   0  0  0  0  0  0  0  0  0  0  0  0
  160.5540  213.9570  150.5660 O   0  0  0  0  0  0  0  0  0  0  0  0
  160.8610  212.7770  150.3550 C   0  0  0  0  0  0  0  0  0  0  0  0
  162.3360  209.5900  149.2800 C   0  0  1  0  0  3  0  0  0  0  0  0
  161.7900  208.5970  148.2520 C   0  0  0  0  0  2  0  0  0  0  0  0
  162.0430  207.2620  148.6770 O   0  0  0  0  0  0  0  0  0  0  0  0
  161.2280  204.6560  149.6920 N   0  0  0  0  0  0  0  0  0  0  0  0
  161.5090  204.8530  148.3750 C   0  0  0  0  0  0  0  0  0  0  0  0
  161.9850  205.1620  145.6530 C   0  0  0  0  0  3  0  0  0  0  0  0
  162.1090  206.2620  146.5020 C   0  0  0  0  0  3  0  0  0  0  0  0
  161.0290  202.5130  147.9570 C   0  0  0  0  0  3  0  0  0  0  0  0
  160.7600  202.3440  149.3160 C   0  0  0  0  0  3  0  0  0  0  0  0
  161.8840  206.1210  147.8740 C   0  0  0  0  0  0  0  0  0  0  0  0
  160.8630  203.4380  150.1750 C   0  0  0  0  0  3  0  0  0  0  0  0
  161.6410  203.9480  146.1510 N   0  0  0  0  0  0  0  0  0  0  0  0
  161.4000  203.7690  147.4750 C   0  0  0  0  0  0  0  0  0  0  0  0
  161.3270  211.3660  147.6520 C   0  0  0  0  0  2  0  0  0  0  0  0
  160.3630  212.5340  147.7820 C   0  0  0  0  0  2  0  0  0  0  0  0
  160.5530  213.5070  146.6310 C   0  0  0  0  0  2  0  0  0  0  0  0
  159.7290  213.0800  145.4280 C   0  0  0  0  0  2  0  0  0  0  0  0
  158.0980  214.1030  143.0690 O   0  0  0  0  0  0  0  0  0  0  0  0
  163.8080  213.1180  144.4210 O   0  0  0  0  0  0  0  0  0  0  0  0
  161.0640  212.3270  142.2800 C   0  0  0  0  0  0  0  0  0  0  0  0
  161.2540  211.2960  140.1430 N   0  0  0  0  0  0  0  0  0  0  0  0
  159.2300  213.5500  143.0480 C   0  0  0  0  0  0  0  0  0  0  0  0
  161.4170  212.8750  143.5890 C   0  0  0  0  0  0  0  0  0  0  0  0
  162.0910  210.6170  139.1740 C   0  0  0  0  0  1  0  0  0  0  0  0
  159.8270  211.4990  139.8240 C   0  0  0  0  0  2  0  0  0  0  0  0
  159.7200  212.7200  141.9610 C   0  0  0  0  0  0  0  0  0  0  0  0
  161.8220  211.6650  141.4110 C   0  0  0  0  0  3  0  0  0  0  0  0
  162.6450  213.0000  144.0160 C   0  0  0  0  0  0  0  0  0  0  0  0
  160.2630  213.6880  144.1330 C   0  0  2  0  0  3  0  0  0  0  0  0
  159.1180  212.3940  140.8190 C   0  0  0  0  0  3  0  0  0  0  0  0
  160.1690  210.5490  152.2780 C   0  0  0  0  0  2  0  0  0  0  0  0
  160.8860  211.2680  153.4100 C   0  0  0  0  0  2  0  0  0  0  0  0
  160.0230  212.3860  153.9690 C   0  0  1  0  0  3  0  0  0  0  0  0
  158.6640  212.2660  153.4600 N   0  0  0  0  0  2  0  0  0  0  0  0
  158.2780  213.5800  152.9770 C   0  0  0  0  0  2  0  0  0  0  0  0
  156.7970  213.7910  153.2100 C   0  0  0  0  0  2  0  0  0  0  0  0
  156.2520  212.6480  154.0410 C   0  0  0  0  0  1  0  0  0  0  0  0
  160.0050  212.2870  155.4190 N   0  0  0  0  0  2  0  0  0  0  0  0
  158.8370  211.5030  155.7970 C   0  0  0  0  0  2  0  0  0  0  0  0
  159.0260  210.9230  157.1200 N   0  0  0  0  0  2  0  0  0  0  0  0
  160.3930  210.6380  157.2580 N   0  0  0  0  0  2  0  0  0  0  0  0
  160.5530  209.1990  157.1020 C   0  0  0  0  0  2  0  0  0  0  0  0
  161.5830  208.8870  156.0220 C   0  0  0  0  0  2  0  0  0  0  0  0
  161.1270  207.2950  154.2640 N   0  0  0  0  0  0  0  0  0  0  0  0
  161.4130  207.4960  155.4970 C   0  0  0  0  0  3  0  0  0  0  0  0
  160.9650  205.9560  153.7580 C   0  0  0  0  0  2  0  0  0  0  0  0
  162.0070  205.6470  152.8830 O   0  0  0  0  0  1  0  0  0  0  0  0
  2 21  1  6  0  0  0
  2  8  1  0  0  0  0
  2  5  1  0  0  0  0
  3 38  1  0  0  0  0
  4  3  1  0  0  0  0
  4  1  2  0  0  0  0
  5  7  2  0  0  0  0
  5  3  1  0  0  0  0
  7  6  2  0  0  0  0
  8  9  1  6  0  0  0
  8  4  1  0  0  0  0
  9 10  1  0  0  0  0
 11 18  1  0  0  0  0
 12 11  2  0  0  0  0
 13 19  2  0  0  0  0
 13 14  1  0  0  0  0
 14 17  2  0  0  0  0
 15 16  1  0  0  0  0
 16 18  2  0  0  0  0
 17 12  1  0  0  0  0
 17 10  1  0  0  0  0
 19 20  1  0  0  0  0
 20 15  2  0  0  0  0
 20 12  1  0  0  0  0
 21 22  1  0  0  0  0
 23 22  1  0  0  0  0
 24 23  1  0  0  0  0
 27 30  1  0  0  0  0
 28 34  1  0  0  0  0
 29 25  2  0  0  0  0
 29 36  1  0  0  0  0
 30 35  2  0  0  0  0
 30 36  1  0  0  0  0
 31 28  1  0  0  0  0
 32 28  1  0  0  0  0
 32 37  1  0  0  0  0
 33 27  1  0  0  0  0
 33 29  1  0  0  0  0
 34 27  2  0  0  0  0
 35 26  2  0  0  0  0
 36 24  1  1  0  0  0
 37 33  2  0  0  0  0
 38 39  1  0  0  0  0
 40 39  1  6  0  0  0
 40 45  1  0  0  0  0
 41 40  1  0  0  0  0
 42 43  1  0  0  0  0
 42 41  1  0  0  0  0
 43 44  1  0  0  0  0
 45 46  1  0  0  0  0
 46 47  1  0  0  0  0
 47 48  1  0  0  0  0
 49 48  1  0  0  0  0
 50 49  1  0  0  0  0
 51 52  2  0  0  0  0
 52 50  1  0  0  0  0
 53 51  1  0  0  0  0
 54 53  1  0  0  0  0
M  END
>  <MODEL>
5

>  <REMARK>
 VINA RESULT:      -5.3      2.569     10.882
  Name = 
  22 active torsions:
  status: ('A' for Active; 'I' for Inactive)
    1  A    between atoms: C_1  and  C_12
    2  A    between atoms: N_2  and  C_17
    3  A    between atoms: N_2  and  C_46
    4  A    between atoms: O_5  and  C_23
    5  A    between atoms: O_5  and  C_36
    6  A    between atoms: C_7  and  C_15
    7  A    between atoms: C_7  and  N_21
    8  A    between atoms: C_8  and  C_35
    9  A    between atoms: C_12  and  N_30
   10  A    between atoms: C_15  and  C_17
   11  A    between atoms: C_17  and  N_30
   12  A    between atoms: C_19  and  N_47
   13  A    between atoms: C_19  and  C_52
   14  A    between atoms: C_23  and  C_53
   15  A    between atoms: N_24  and  C_41
   16  A    between atoms: N_26  and  C_46
   17  A    between atoms: N_26  and  N_47
   18  A    between atoms: C_28  and  C_34
   19  A    between atoms: C_28  and  C_40
   20  A    between atoms: C_34  and  C_35
   21  A    between atoms: C_40  and  C_49
   22  A    between atoms: C_44  and  C_52
                            x       y       z     vdW  Elec       q    Type
                         _______ _______ _______ _____ _____    ______ ____

>  <TORSDO>
F 22

$$$$
=
 OpenBabel11052410103D

 54 58  0  0  1  0  0  0  0  0999 V2000
  161.1620  205.5930  151.3670 O   0  0  0  0  0  0  0  0  0  0  0  0
  160.9520  209.2030  151.4960 C   0  0  1  0  0  3  0  0  0  0  0  0
  161.7980  207.4430  150.0670 N   0  0  0  0  0  0  0  0  0  0  0  0
  161.2390  206.8400  151.2170 C   0  0  0  0  0  0  0  0  0  0  0  0
  161.6740  208.8460  150.2330 C   0  0  0  0  0  0  0  0  0  0  0  0
  162.1470  210.5080  148.3650 O   0  0  0  0  0  0  0  0  0  0  0  0
  161.9170  209.7000  149.2740 C   0  0  0  0  0  0  0  0  0  0  0  0
  160.6990  207.8320  152.1920 C   0  0  1  0  0  3  0  0  0  0  0  0
  161.3810  207.6530  153.5490 C   0  0  0  0  0  2  0  0  0  0  0  0
  160.5090  208.0650  154.5960 O   0  0  0  0  0  0  0  0  0  0  0  0
  158.6860  210.2960  155.0200 N   0  0  0  0  0  0  0  0  0  0  0  0
  159.8820  210.2190  155.6650 C   0  0  0  0  0  0  0  0  0  0  0  0
  162.2670  210.1230  157.0920 C   0  0  0  0  0  3  0  0  0  0  0  0
  161.9500  209.0880  156.2120 C   0  0  0  0  0  3  0  0  0  0  0  0
  159.3900  212.3260  156.7600 C   0  0  0  0  0  3  0  0  0  0  0  0
  158.1760  212.3790  156.0730 C   0  0  0  0  0  3  0  0  0  0  0  0
  160.7610  209.1270  155.4790 C   0  0  0  0  0  0  0  0  0  0  0  0
  157.8380  211.3440  155.2020 C   0  0  0  0  0  3  0  0  0  0  0  0
  161.4220  211.1730  157.2470 N   0  0  0  0  0  0  0  0  0  0  0  0
  160.2490  211.2440  156.5660 C   0  0  0  0  0  0  0  0  0  0  0  0
  161.7630  210.2150  152.3110 C   0  0  0  0  0  2  0  0  0  0  0  0
  160.9380  211.4550  152.6140 C   0  0  0  0  0  2  0  0  0  0  0  0
  160.4520  212.0950  151.3250 C   0  0  0  0  0  2  0  0  0  0  0  0
  159.5060  213.2460  151.6220 C   0  0  0  0  0  2  0  0  0  0  0  0
  156.8180  214.0670  150.4520 O   0  0  0  0  0  0  0  0  0  0  0  0
  162.5800  214.4530  149.0250 O   0  0  0  0  0  0  0  0  0  0  0  0
  159.3540  213.2210  148.1240 C   0  0  0  0  0  0  0  0  0  0  0  0
  158.7230  212.5180  145.9390 N   0  0  0  0  0  0  0  0  0  0  0  0
  157.8920  213.8330  149.8380 C   0  0  0  0  0  0  0  0  0  0  0  0
  160.1640  213.6920  149.2470 C   0  0  0  0  0  0  0  0  0  0  0  0
  159.1280  212.1920  144.5860 C   0  0  0  0  0  1  0  0  0  0  0  0
  157.3000  212.3780  146.3030 C   0  0  0  0  0  2  0  0  0  0  0  0
  157.9680  213.2840  148.4950 C   0  0  0  0  0  0  0  0  0  0  0  0
  159.7340  212.8790  146.8960 C   0  0  0  0  0  3  0  0  0  0  0  0
  161.4050  214.0830  149.1330 C   0  0  0  0  0  0  0  0  0  0  0  0
  159.2640  214.1120  150.3880 C   0  0  2  0  0  3  0  0  0  0  0  0
  156.9790  212.9420  147.6710 C   0  0  0  0  0  3  0  0  0  0  0  0
  162.5400  206.7520  149.0220 C   0  0  0  0  0  2  0  0  0  0  0  0
  161.5830  206.2640  147.9460 C   0  0  0  0  0  2  0  0  0  0  0  0
  162.2340  205.1840  147.0980 C   0  0  1  0  0  3  0  0  0  0  0  0
  161.3280  204.0550  146.9500 N   0  0  0  0  0  2  0  0  0  0  0  0
  161.0860  203.5330  148.2830 C   0  0  0  0  0  2  0  0  0  0  0  0
  160.8370  202.0420  148.2060 C   0  0  0  0  0  2  0  0  0  0  0  0
  161.1130  201.5580  146.7970 C   0  0  0  0  0  1  0  0  0  0  0  0
  162.5360  205.7350  145.7860 N   0  0  0  0  0  2  0  0  0  0  0  0
  161.3010  205.7470  145.0140 C   0  0  0  0  0  2  0  0  0  0  0  0
  161.5000  205.0810  143.7340 N   0  0  0  0  0  2  0  0  0  0  0  0
  161.1880  206.0080  142.7290 N   0  0  0  0  0  2  0  0  0  0  0  0
  162.4070  206.2540  141.9710 C   0  0  0  0  0  2  0  0  0  0  0  0
  162.0970  206.3930  140.4850 C   0  0  0  0  0  2  0  0  0  0  0  0
  162.2960  208.7530  140.0090 N   0  0  0  0  0  0  0  0  0  0  0  0
  161.5270  207.7400  140.1730 C   0  0  0  0  0  3  0  0  0  0  0  0
  161.7480  210.0500  139.7080 C   0  0  0  0  0  2  0  0  0  0  0  0
  162.7520  211.0170  139.7610 O   0  0  0  0  0  1  0  0  0  0  0  0
  2  8  1  0  0  0  0
  2 21  1  1  0  0  0
  3  5  1  0  0  0  0
  3  4  1  0  0  0  0
  4  1  2  0  0  0  0
  4  8  1  0  0  0  0
  5  2  1  0  0  0  0
  6  7  2  0  0  0  0
  7  5  2  0  0  0  0
  8  9  1  1  0  0  0
  9 10  1  0  0  0  0
 10 17  1  0  0  0  0
 11 18  2  0  0  0  0
 11 12  1  0  0  0  0
 12 20  1  0  0  0  0
 13 19  1  0  0  0  0
 14 13  2  0  0  0  0
 16 15  2  0  0  0  0
 17 12  2  0  0  0  0
 17 14  1  0  0  0  0
 18 16  1  0  0  0  0
 20 15  1  0  0  0  0
 20 19  2  0  0  0  0
 21 22  1  0  0  0  0
 23 24  1  0  0  0  0
 23 22  1  0  0  0  0
 26 35  2  0  0  0  0
 27 33  1  0  0  0  0
 27 30  1  0  0  0  0
 28 32  1  0  0  0  0
 28 34  1  0  0  0  0
 29 36  1  0  0  0  0
 29 25  2  0  0  0  0
 30 36  1  0  0  0  0
 31 28  1  0  0  0  0
 32 37  1  0  0  0  0
 33 29  1  0  0  0  0
 34 27  2  0  0  0  0
 35 30  2  0  0  0  0
 36 24  1  1  0  0  0
 37 33  2  0  0  0  0
 38  3  1  0  0  0  0
 39 38  1  0  0  0  0
 40 39  1  1  0  0  0
 41 40  1  0  0  0  0
 41 42  1  0  0  0  0
 43 42  1  0  0  0  0
 44 43  1  0  0  0  0
 45 40  1  0  0  0  0
 46 45  1  0  0  0  0
 47 46  1  0  0  0  0
 48 47  1  0  0  0  0
 49 48  1  0  0  0  0
 50 49  1  0  0  0  0
 51 52  2  0  0  0  0
 52 50  1  0  0  0  0
 53 54  1  0  0  0  0
 53 51  1  0  0  0  0
M  END
>  <MODEL>
6

>  <REMARK>
 VINA RESULT:      -5.3      2.774      7.422
  Name = 
  22 active torsions:
  status: ('A' for Active; 'I' for Inactive)
    1  A    between atoms: C_1  and  C_12
    2  A    between atoms: N_2  and  C_17
    3  A    between atoms: N_2  and  C_46
    4  A    between atoms: O_5  and  C_23
    5  A    between atoms: O_5  and  C_36
    6  A    between atoms: C_7  and  C_15
    7  A    between atoms: C_7  and  N_21
    8  A    between atoms: C_8  and  C_35
    9  A    between atoms: C_12  and  N_30
   10  A    between atoms: C_15  and  C_17
   11  A    between atoms: C_17  and  N_30
   12  A    between atoms: C_19  and  N_47
   13  A    between atoms: C_19  and  C_52
   14  A    between atoms: C_23  and  C_53
   15  A    between atoms: N_24  and  C_41
   16  A    between atoms: N_26  and  C_46
   17  A    between atoms: N_26  and  N_47
   18  A    between atoms: C_28  and  C_34
   19  A    between atoms: C_28  and  C_40
   20  A    between atoms: C_34  and  C_35
   21  A    between atoms: C_40  and  C_49
   22  A    between atoms: C_44  and  C_52
                            x       y       z     vdW  Elec       q    Type
                         _______ _______ _______ _____ _____    ______ ____

>  <TORSDO>
F 22

$$$$
=
 OpenBabel11052410103D

 54 58  0  0  1  0  0  0  0  0999 V2000
  161.9600  207.2070  151.1700 O   0  0  0  0  0  0  0  0  0  0  0  0
  162.0490  210.2300  149.1840 C   0  0  1  0  0  3  0  0  0  0  0  0
  161.2910  209.4510  151.3450 N   0  0  0  0  0  0  0  0  0  0  0  0
  161.8460  208.3490  150.6550 C   0  0  0  0  0  0  0  0  0  0  0  0
  161.3650  210.5670  150.4720 C   0  0  0  0  0  0  0  0  0  0  0  0
  160.8770  212.9480  151.2250 O   0  0  0  0  0  0  0  0  0  0  0  0
  161.1140  211.7900  150.8590 C   0  0  0  0  0  0  0  0  0  0  0  0
  162.3330  208.7010  149.2890 C   0  0  1  0  0  3  0  0  0  0  0  0
  161.6300  207.8320  148.2460 C   0  0  0  0  0  2  0  0  0  0  0  0
  162.5250  206.8450  147.7440 O   0  0  0  0  0  0  0  0  0  0  0  0
  161.4080  204.7410  149.4190 N   0  0  0  0  0  0  0  0  0  0  0  0
  161.6190  204.5570  148.0860 C   0  0  0  0  0  0  0  0  0  0  0  0
  161.9370  204.0990  145.3620 C   0  0  0  0  0  3  0  0  0  0  0  0
  162.2840  205.3410  145.8970 C   0  0  0  0  0  3  0  0  0  0  0  0
  160.7670  202.2960  148.2990 C   0  0  0  0  0  3  0  0  0  0  0  0
  160.5760  202.5150  149.6630 C   0  0  0  0  0  3  0  0  0  0  0  0
  162.1410  205.5820  147.2650 C   0  0  0  0  0  0  0  0  0  0  0  0
  160.9030  203.7570  150.2090 C   0  0  0  0  0  3  0  0  0  0  0  0
  161.4540  203.1190  146.1660 N   0  0  0  0  0  0  0  0  0  0  0  0
  161.2850  203.3160  147.4990 C   0  0  0  0  0  0  0  0  0  0  0  0
  161.1900  210.6580  147.9910 C   0  0  0  0  0  2  0  0  0  0  0  0
  161.3700  212.1370  147.6940 C   0  0  0  0  0  2  0  0  0  0  0  0
  161.1470  212.4110  146.2160 C   0  0  0  0  0  2  0  0  0  0  0  0
  160.6280  213.8240  146.0050 C   0  0  0  0  0  2  0  0  0  0  0  0
  158.4670  214.1100  143.8800 O   0  0  0  0  0  0  0  0  0  0  0  0
  164.3970  214.4220  144.2470 O   0  0  0  0  0  0  0  0  0  0  0  0
  161.5740  212.7890  142.7970 C   0  0  0  0  0  0  0  0  0  0  0  0
  161.6330  211.4540  140.8270 N   0  0  0  0  0  0  0  0  0  0  0  0
  159.6710  213.7760  143.7220 C   0  0  0  0  0  0  0  0  0  0  0  0
  162.0080  213.6110  143.9260 C   0  0  0  0  0  0  0  0  0  0  0  0
  162.4290  210.7800  139.8210 C   0  0  0  0  0  1  0  0  0  0  0  0
  160.1630  211.3370  140.7600 C   0  0  0  0  0  2  0  0  0  0  0  0
  160.1440  212.8710  142.6880 C   0  0  0  0  0  0  0  0  0  0  0  0
  162.3060  212.1350  141.9000 C   0  0  0  0  0  3  0  0  0  0  0  0
  163.2350  214.0280  144.0910 C   0  0  0  0  0  0  0  0  0  0  0  0
  160.8120  214.2840  144.5610 C   0  0  2  0  0  3  0  0  0  0  0  0
  159.4510  212.2480  141.7370 C   0  0  0  0  0  3  0  0  0  0  0  0
  160.5930  209.3890  152.6220 C   0  0  0  0  0  2  0  0  0  0  0  0
  161.5120  209.8620  153.7370 C   0  0  0  0  0  2  0  0  0  0  0  0
  160.7170  210.1670  154.9950 C   0  0  1  0  0  3  0  0  0  0  0  0
  161.1570  209.3040  156.0810 N   0  0  0  0  0  2  0  0  0  0  0  0
  161.6590  208.0850  155.4730 C   0  0  0  0  0  2  0  0  0  0  0  0
  160.6020  207.0050  155.5550 C   0  0  0  0  0  2  0  0  0  0  0  0
  159.3410  207.5800  156.1650 C   0  0  0  0  0  1  0  0  0  0  0  0
  160.9370  211.5560  155.3650 N   0  0  0  0  0  2  0  0  0  0  0  0
  160.3280  211.7700  156.6710 C   0  0  0  0  0  2  0  0  0  0  0  0
  159.8970  213.1560  156.8040 N   0  0  0  0  0  2  0  0  0  0  0  0
  159.2700  213.5150  155.6020 N   0  0  0  0  0  2  0  0  0  0  0  0
  157.8340  213.4980  155.8400 C   0  0  0  0  0  2  0  0  0  0  0  0
  157.1070  212.8030  154.6930 C   0  0  0  0  0  2  0  0  0  0  0  0
  155.9270  211.6140  156.4330 N   0  0  0  0  0  0  0  0  0  0  0  0
  155.9830  211.9550  155.1990 C   0  0  0  0  0  3  0  0  0  0  0  0
  154.8460  210.7980  156.9210 C   0  0  0  0  0  2  0  0  0  0  0  0
  154.3900  209.9540  155.9070 O   0  0  0  0  0  1  0  0  0  0  0  0
  2 21  1  6  0  0  0
  2  8  1  0  0  0  0
  2  5  1  0  0  0  0
  3 38  1  0  0  0  0
  4  1  2  0  0  0  0
  4  3  1  0  0  0  0
  5  7  2  0  0  0  0
  5  3  1  0  0  0  0
  7  6  2  0  0  0  0
  8  9  1  6  0  0  0
  8  4  1  0  0  0  0
 10  9  1  0  0  0  0
 11 18  1  0  0  0  0
 12 11  2  0  0  0  0
 13 14  1  0  0  0  0
 13 19  2  0  0  0  0
 14 17  2  0  0  0  0
 15 16  1  0  0  0  0
 16 18  2  0  0  0  0
 17 10  1  0  0  0  0
 17 12  1  0  0  0  0
 19 20  1  0  0  0  0
 20 12  1  0  0  0  0
 20 15  2  0  0  0  0
 22 21  1  0  0  0  0
 23 22  1  0  0  0  0
 24 23  1  0  0  0  0
 27 30  1  0  0  0  0
 28 34  1  0  0  0  0
 29 25  2  0  0  0  0
 29 36  1  0  0  0  0
 30 35  2  0  0  0  0
 30 36  1  0  0  0  0
 31 28  1  0  0  0  0
 32 28  1  0  0  0  0
 32 37  1  0  0  0  0
 33 27  1  0  0  0  0
 33 29  1  0  0  0  0
 34 27  2  0  0  0  0
 35 26  2  0  0  0  0
 36 24  1  1  0  0  0
 37 33  2  0  0  0  0
 38 39  1  0  0  0  0
 40 39  1  6  0  0  0
 40 45  1  0  0  0  0
 40 41  1  0  0  0  0
 42 43  1  0  0  0  0
 42 41  1  0  0  0  0
 43 44  1  0  0  0  0
 45 46  1  0  0  0  0
 46 47  1  0  0  0  0
 48 49  1  0  0  0  0
 48 47  1  0  0  0  0
 50 52  1  0  0  0  0
 50 49  1  0  0  0  0
 51 53  1  0  0  0  0
 52 51  2  0  0  0  0
 54 53  1  0  0  0  0
M  END
>  <MODEL>
7

>  <REMARK>
 VINA RESULT:      -5.0      2.679     11.418
  Name = 
  22 active torsions:
  status: ('A' for Active; 'I' for Inactive)
    1  A    between atoms: C_1  and  C_12
    2  A    between atoms: N_2  and  C_17
    3  A    between atoms: N_2  and  C_46
    4  A    between atoms: O_5  and  C_23
    5  A    between atoms: O_5  and  C_36
    6  A    between atoms: C_7  and  C_15
    7  A    between atoms: C_7  and  N_21
    8  A    between atoms: C_8  and  C_35
    9  A    between atoms: C_12  and  N_30
   10  A    between atoms: C_15  and  C_17
   11  A    between atoms: C_17  and  N_30
   12  A    between atoms: C_19  and  N_47
   13  A    between atoms: C_19  and  C_52
   14  A    between atoms: C_23  and  C_53
   15  A    between atoms: N_24  and  C_41
   16  A    between atoms: N_26  and  C_46
   17  A    between atoms: N_26  and  N_47
   18  A    between atoms: C_28  and  C_34
   19  A    between atoms: C_28  and  C_40
   20  A    between atoms: C_34  and  C_35
   21  A    between atoms: C_40  and  C_49
   22  A    between atoms: C_44  and  C_52
                            x       y       z     vdW  Elec       q    Type
                         _______ _______ _______ _____ _____    ______ ____

>  <TORSDO>
F 22

$$$$
=
 OpenBabel11052410103D

 54 58  0  0  1  0  0  0  0  0999 V2000
  160.6570  206.4950  153.3350 O   0  0  0  0  0  0  0  0  0  0  0  0
  161.1000  208.9930  150.7550 C   0  0  1  0  0  3  0  0  0  0  0  0
  160.9810  206.5900  151.0110 N   0  0  0  0  0  0  0  0  0  0  0  0
  160.8630  207.1720  152.2940 C   0  0  0  0  0  0  0  0  0  0  0  0
  161.1630  207.6530  150.0900 C   0  0  0  0  0  0  0  0  0  0  0  0
  161.0730  207.3300  147.5670 O   0  0  0  0  0  0  0  0  0  0  0  0
  161.1170  207.4870  148.7940 C   0  0  0  0  0  0  0  0  0  0  0  0
  160.9440  208.6610  152.2700 C   0  0  1  0  0  3  0  0  0  0  0  0
  162.0910  209.1340  153.1630 C   0  0  0  0  0  2  0  0  0  0  0  0
  161.8220  210.4420  153.6580 O   0  0  0  0  0  0  0  0  0  0  0  0
  160.0290  212.3960  152.4550 N   0  0  0  0  0  0  0  0  0  0  0  0
  159.7490  211.8130  153.6530 C   0  0  0  0  0  0  0  0  0  0  0  0
  159.0430  210.6280  156.0670 C   0  0  0  0  0  3  0  0  0  0  0  0
  160.2320  210.2540  155.4380 C   0  0  0  0  0  3  0  0  0  0  0  0
  157.7030  213.1100  153.7680 C   0  0  0  0  0  3  0  0  0  0  0  0
  158.0270  213.6970  152.5440 C   0  0  0  0  0  3  0  0  0  0  0  0
  160.6060  210.8480  154.2300 C   0  0  0  0  0  0  0  0  0  0  0  0
  159.2040  213.3210  151.8950 C   0  0  0  0  0  3  0  0  0  0  0  0
  158.2400  211.5680  155.5080 N   0  0  0  0  0  0  0  0  0  0  0  0
  158.5580  212.1610  154.3290 C   0  0  0  0  0  0  0  0  0  0  0  0
  162.3260  209.8330  150.3890 C   0  0  0  0  0  2  0  0  0  0  0  0
  161.9160  211.2180  149.9160 C   0  0  0  0  0  2  0  0  0  0  0  0
  161.9550  211.2930  148.4000 C   0  0  0  0  0  2  0  0  0  0  0  0
  163.0150  212.2780  147.9390 C   0  0  0  0  0  2  0  0  0  0  0  0
  161.5630  214.4110  149.5550 O   0  0  0  0  0  0  0  0  0  0  0  0
  162.6610  213.1530  143.8450 O   0  0  0  0  0  0  0  0  0  0  0  0
  160.1940  213.6400  146.3770 C   0  0  0  0  0  0  0  0  0  0  0  0
  157.8950  214.1070  145.9700 N   0  0  0  0  0  0  0  0  0  0  0  0
  161.3380  214.0490  148.3700 C   0  0  0  0  0  0  0  0  0  0  0  0
  161.6010  213.3150  146.1510 C   0  0  0  0  0  0  0  0  0  0  0  0
  156.8070  214.1950  145.0160 C   0  0  0  0  0  1  0  0  0  0  0  0
  157.6100  214.3760  147.3930 C   0  0  0  0  0  2  0  0  0  0  0  0
  160.0300  214.0650  147.7390 C   0  0  0  0  0  0  0  0  0  0  0  0
  159.1870  213.6770  145.5080 C   0  0  0  0  0  3  0  0  0  0  0  0
  162.1460  213.2320  144.9660 C   0  0  0  0  0  0  0  0  0  0  0  0
  162.3960  213.5710  147.4120 C   0  0  2  0  0  3  0  0  0  0  0  0
  158.8600  214.4530  148.2440 C   0  0  0  0  0  3  0  0  0  0  0  0
  161.0990  205.1660  150.7310 C   0  0  0  0  0  2  0  0  0  0  0  0
  162.0640  204.9440  149.5780 C   0  0  0  0  0  2  0  0  0  0  0  0
  161.8130  203.5970  148.9200 C   0  0  1  0  0  3  0  0  0  0  0  0
  160.6440  202.9640  149.5120 N   0  0  0  0  0  2  0  0  0  0  0  0
  160.2270  201.9140  148.6010 C   0  0  0  0  0  2  0  0  0  0  0  0
  161.3160  200.8660  148.5040 C   0  0  0  0  0  2  0  0  0  0  0  0
  161.1720  200.1110  147.1980 C   0  0  0  0  0  1  0  0  0  0  0  0
  161.5810  203.8040  147.4990 N   0  0  0  0  0  2  0  0  0  0  0  0
  162.8560  204.1530  146.8870 C   0  0  0  0  0  2  0  0  0  0  0  0
  162.6590  205.1620  145.8540 N   0  0  0  0  0  2  0  0  0  0  0  0
  161.5910  204.7330  145.0510 N   0  0  0  0  0  2  0  0  0  0  0  0
  161.2020  205.8560  144.2110 C   0  0  0  0  0  2  0  0  0  0  0  0
  161.2170  205.4570  142.7390 C   0  0  0  0  0  2  0  0  0  0  0  0
  161.7770  206.5740  140.6720 N   0  0  0  0  0  0  0  0  0  0  0  0
  162.0130  206.4260  141.9230 C   0  0  0  0  0  3  0  0  0  0  0  0
  162.5420  207.5070  139.8860 C   0  0  0  0  0  2  0  0  0  0  0  0
  161.8260  208.6940  139.7240 O   0  0  0  0  0  1  0  0  0  0  0  0
  2 21  1  1  0  0  0
  2  8  1  0  0  0  0
  3  4  1  0  0  0  0
  4  1  2  0  0  0  0
  5  2  1  0  0  0  0
  5  3  1  0  0  0  0
  6  7  2  0  0  0  0
  7  5  2  0  0  0  0
  8  4  1  0  0  0  0
  8  9  1  1  0  0  0
  9 10  1  0  0  0  0
 10 17  1  0  0  0  0
 11 12  1  0  0  0  0
 12 17  2  0  0  0  0
 12 20  1  0  0  0  0
 14 13  2  0  0  0  0
 15 20  1  0  0  0  0
 16 15  2  0  0  0  0
 17 14  1  0  0  0  0
 18 11  2  0  0  0  0
 18 16  1  0  0  0  0
 19 13  1  0  0  0  0
 20 19  2  0  0  0  0
 22 21  1  0  0  0  0
 23 22  1  0  0  0  0
 24 23  1  0  0  0  0
 26 35  2  0  0  0  0
 27 33  1  0  0  0  0
 28 32  1  0  0  0  0
 29 25  2  0  0  0  0
 30 27  1  0  0  0  0
 30 36  1  0  0  0  0
 31 28  1  0  0  0  0
 32 37  1  0  0  0  0
 33 37  2  0  0  0  0
 33 29  1  0  0  0  0
 34 28  1  0  0  0  0
 34 27  2  0  0  0  0
 35 30  2  0  0  0  0
 36 24  1  1  0  0  0
 36 29  1  0  0  0  0
 38  3  1  0  0  0  0
 39 38  1  0  0  0  0
 40 41  1  0  0  0  0
 40 39  1  1  0  0  0
 42 41  1  0  0  0  0
 43 42  1  0  0  0  0
 44 43  1  0  0  0  0
 45 40  1  0  0  0  0
 46 45  1  0  0  0  0
 47 46  1  0  0  0  0
 48 47  1  0  0  0  0
 49 48  1  0  0  0  0
 50 49  1  0  0  0  0
 51 52  2  0  0  0  0
 52 50  1  0  0  0  0
 53 51  1  0  0  0  0
 54 53  1  0  0  0  0
M  END
>  <MODEL>
8

>  <REMARK>
 VINA RESULT:      -4.9      2.519      8.004
  Name = 
  22 active torsions:
  status: ('A' for Active; 'I' for Inactive)
    1  A    between atoms: C_1  and  C_12
    2  A    between atoms: N_2  and  C_17
    3  A    between atoms: N_2  and  C_46
    4  A    between atoms: O_5  and  C_23
    5  A    between atoms: O_5  and  C_36
    6  A    between atoms: C_7  and  C_15
    7  A    between atoms: C_7  and  N_21
    8  A    between atoms: C_8  and  C_35
    9  A    between atoms: C_12  and  N_30
   10  A    between atoms: C_15  and  C_17
   11  A    between atoms: C_17  and  N_30
   12  A    between atoms: C_19  and  N_47
   13  A    between atoms: C_19  and  C_52
   14  A    between atoms: C_23  and  C_53
   15  A    between atoms: N_24  and  C_41
   16  A    between atoms: N_26  and  C_46
   17  A    between atoms: N_26  and  N_47
   18  A    between atoms: C_28  and  C_34
   19  A    between atoms: C_28  and  C_40
   20  A    between atoms: C_34  and  C_35
   21  A    between atoms: C_40  and  C_49
   22  A    between atoms: C_44  and  C_52
                            x       y       z     vdW  Elec       q    Type
                         _______ _______ _______ _____ _____    ______ ____

>  <TORSDO>
F 22

$$$$
=
 OpenBabel11052410103D

 54 58  0  0  1  0  0  0  0  0999 V2000
  162.8120  210.0400  147.9390 O   0  0  0  0  0  0  0  0  0  0  0  0
  161.2240  211.8680  150.6290 C   0  0  1  0  0  3  0  0  0  0  0  0
  162.0950  209.6630  150.1440 N   0  0  0  0  0  0  0  0  0  0  0  0
  162.2440  210.4550  148.9830 C   0  0  0  0  0  0  0  0  0  0  0  0
  161.4540  210.4710  151.1170 C   0  0  0  0  0  0  0  0  0  0  0  0
  161.2180  209.7770  153.5540 O   0  0  0  0  0  0  0  0  0  0  0  0
  161.3320  210.1140  152.3690 C   0  0  0  0  0  0  0  0  0  0  0  0
  161.7200  211.8420  149.1510 C   0  0  1  0  0  3  0  0  0  0  0  0
  160.6490  212.1250  148.0980 C   0  0  0  0  0  2  0  0  0  0  0  0
  161.2580  212.4730  146.8580 O   0  0  0  0  0  0  0  0  0  0  0  0
  162.5630  213.3400  144.4030 N   0  0  0  0  0  0  0  0  0  0  0  0
  161.2140  213.4260  144.5630 C   0  0  0  0  0  0  0  0  0  0  0  0
  158.4440  213.5740  144.7540 C   0  0  0  0  0  3  0  0  0  0  0  0
  159.1810  213.0570  145.8200 C   0  0  0  0  0  3  0  0  0  0  0  0
  161.0460  214.3800  142.3400 C   0  0  0  0  0  3  0  0  0  0  0  0
  162.4320  214.2890  142.2150 C   0  0  0  0  0  3  0  0  0  0  0  0
  160.5740  212.9860  145.7440 C   0  0  0  0  0  0  0  0  0  0  0  0
  163.1810  213.7580  143.2670 C   0  0  0  0  0  3  0  0  0  0  0  0
  159.0750  214.0080  143.6330 N   0  0  0  0  0  0  0  0  0  0  0  0
  160.4260  213.9440  143.5120 C   0  0  0  0  0  0  0  0  0  0  0  0
  159.7600  212.2720  150.8240 C   0  0  0  0  0  2  0  0  0  0  0  0
  159.6530  213.5460  151.6450 C   0  0  0  0  0  2  0  0  0  0  0  0
  159.6310  213.2190  153.1280 C   0  0  0  0  0  2  0  0  0  0  0  0
  158.3450  213.7170  153.7670 C   0  0  0  0  0  2  0  0  0  0  0  0
  160.0550  214.2440  156.2300 O   0  0  0  0  0  0  0  0  0  0  0  0
  155.5500  210.7020  154.6330 O   0  0  0  0  0  0  0  0  0  0  0  0
  158.9210  210.9140  155.7850 C   0  0  0  0  0  0  0  0  0  0  0  0
  160.1230  209.1410  156.8220 N   0  0  0  0  0  0  0  0  0  0  0  0
  159.4510  213.1840  155.9180 C   0  0  0  0  0  0  0  0  0  0  0  0
  157.8610  211.6550  155.1030 C   0  0  0  0  0  0  0  0  0  0  0  0
  160.1860  207.7350  157.1710 C   0  0  0  0  0  1  0  0  0  0  0  0
  161.2630  210.0080  157.1800 C   0  0  0  0  0  2  0  0  0  0  0  0
  159.9040  211.8470  156.2610 C   0  0  0  0  0  0  0  0  0  0  0  0
  158.9980  209.6170  156.0650 C   0  0  0  0  0  3  0  0  0  0  0  0
  156.6740  211.1660  154.8610 C   0  0  0  0  0  0  0  0  0  0  0  0
  158.1480  213.1380  155.1660 C   0  0  2  0  0  3  0  0  0  0  0  0
  160.9850  211.4780  156.9460 C   0  0  0  0  0  3  0  0  0  0  0  0
  162.3620  208.2340  150.2370 C   0  0  0  0  0  2  0  0  0  0  0  0
  161.3260  207.4610  149.4350 C   0  0  0  0  0  2  0  0  0  0  0  0
  161.5340  205.9640  149.5910 C   0  0  1  0  0  3  0  0  0  0  0  0
  160.8390  205.4870  150.7770 N   0  0  0  0  0  2  0  0  0  0  0  0
  161.8450  205.3030  151.8080 C   0  0  0  0  0  2  0  0  0  0  0  0
  161.1720  204.9260  153.1110 C   0  0  0  0  0  2  0  0  0  0  0  0
  160.5630  203.5450  152.9800 C   0  0  0  0  0  1  0  0  0  0  0  0
  161.0020  205.2910  148.4170 N   0  0  0  0  0  2  0  0  0  0  0  0
  160.7890  203.8930  148.7650 C   0  0  0  0  0  2  0  0  0  0  0  0
  161.4670  203.0270  147.8090 N   0  0  0  0  0  2  0  0  0  0  0  0
  160.6900  201.8670  147.6740 N   0  0  0  0  0  2  0  0  0  0  0  0
  160.9930  201.2920  146.3710 C   0  0  0  0  0  2  0  0  0  0  0  0
  160.3100  202.0830  145.2620 C   0  0  0  0  0  2  0  0  0  0  0  0
  160.3670  204.4720  144.9050 N   0  0  0  0  0  0  0  0  0  0  0  0
  161.0210  203.3720  144.9980 C   0  0  0  0  0  3  0  0  0  0  0  0
  161.0510  205.7130  144.6520 C   0  0  0  0  0  2  0  0  0  0  0  0
  162.2410  205.7590  145.3800 O   0  0  0  0  0  1  0  0  0  0  0  0
  1  4  2  0  0  0  0
  2 21  1  6  0  0  0
  2  5  1  0  0  0  0
  3 38  1  0  0  0  0
  3  5  1  0  0  0  0
  4  8  1  0  0  0  0
  4  3  1  0  0  0  0
  5  7  2  0  0  0  0
  7  6  2  0  0  0  0
  8  9  1  6  0  0  0
  8  2  1  0  0  0  0
 10  9  1  0  0  0  0
 11 12  1  0  0  0  0
 12 17  1  0  0  0  0
 13 14  1  0  0  0  0
 15 20  1  0  0  0  0
 16 15  2  0  0  0  0
 16 18  1  0  0  0  0
 17 14  2  0  0  0  0
 17 10  1  0  0  0  0
 18 11  2  0  0  0  0
 19 13  2  0  0  0  0
 20 19  1  0  0  0  0
 20 12  2  0  0  0  0
 21 22  1  0  0  0  0
 22 23  1  0  0  0  0
 23 24  1  0  0  0  0
 26 35  2  0  0  0  0
 27 34  2  0  0  0  0
 27 33  1  0  0  0  0
 28 31  1  0  0  0  0
 28 32  1  0  0  0  0
 29 25  2  0  0  0  0
 29 33  1  0  0  0  0
 30 36  1  0  0  0  0
 30 27  1  0  0  0  0
 33 37  2  0  0  0  0
 34 28  1  0  0  0  0
 35 30  2  0  0  0  0
 36 24  1  6  0  0  0
 36 29  1  0  0  0  0
 37 32  1  0  0  0  0
 39 38  1  0  0  0  0
 40 39  1  6  0  0  0
 40 41  1  0  0  0  0
 41 42  1  0  0  0  0
 42 43  1  0  0  0  0
 44 43  1  0  0  0  0
 45 46  1  0  0  0  0
 45 40  1  0  0  0  0
 47 46  1  0  0  0  0
 48 47  1  0  0  0  0
 49 48  1  0  0  0  0
 50 49  1  0  0  0  0
 51 52  2  0  0  0  0
 52 50  1  0  0  0  0
 53 51  1  0  0  0  0
 53 54  1  0  0  0  0
M  END
>  <MODEL>
9

>  <REMARK>
 VINA RESULT:      -4.9      2.865      9.535
  Name = 
  22 active torsions:
  status: ('A' for Active; 'I' for Inactive)
    1  A    between atoms: C_1  and  C_12
    2  A    between atoms: N_2  and  C_17
    3  A    between atoms: N_2  and  C_46
    4  A    between atoms: O_5  and  C_23
    5  A    between atoms: O_5  and  C_36
    6  A    between atoms: C_7  and  C_15
    7  A    between atoms: C_7  and  N_21
    8  A    between atoms: C_8  and  C_35
    9  A    between atoms: C_12  and  N_30
   10  A    between atoms: C_15  and  C_17
   11  A    between atoms: C_17  and  N_30
   12  A    between atoms: C_19  and  N_47
   13  A    between atoms: C_19  and  C_52
   14  A    between atoms: C_23  and  C_53
   15  A    between atoms: N_24  and  C_41
   16  A    between atoms: N_26  and  C_46
   17  A    between atoms: N_26  and  N_47
   18  A    between atoms: C_28  and  C_34
   19  A    between atoms: C_28  and  C_40
   20  A    between atoms: C_34  and  C_35
   21  A    between atoms: C_40  and  C_49
   22  A    between atoms: C_44  and  C_52
                            x       y       z     vdW  Elec       q    Type
                         _______ _______ _______ _____ _____    ______ ____

>  <TORSDO>
F 22

$$$$
