=
 OpenBabel11042420283D

 31 33  0  0  1  0  0  0  0  0999 V2000
  159.8950  210.2590  154.3970 C   0  0  0  0  0  0  0  0  0  0  0  0
  160.8090  212.9100  150.1640 C   0  0  0  0  0  3  0  0  0  0  0  0
  158.0330  213.1670  152.7810 C   0  0  2  0  0  3  0  0  0  0  0  0
  161.2890  208.1880  154.0360 C   0  0  0  0  0  2  0  0  0  0  0  0
  157.3240  211.3720  154.3680 C   0  0  0  0  0  3  0  0  0  0  0  0
  159.2990  214.3750  147.4080 O   0  0  0  0  0  0  0  0  0  0  0  0
  158.3420  211.9530  153.6010 C   0  0  0  0  0  0  0  0  0  0  0  0
  158.6100  213.0830  151.3610 C   0  0  1  0  0  3  0  0  0  0  0  0
  160.8130  207.9210  152.6140 C   0  0  0  0  0  2  0  0  0  0  0  0
  161.4700  207.9490  150.2060 C   0  0  1  0  0  3  0  0  0  0  0  0
  157.5870  210.2400  155.1460 C   0  0  0  0  0  3  0  0  0  0  0  0
  159.6300  211.3980  153.6300 C   0  0  0  0  0  3  0  0  0  0  0  0
  161.8300  208.4260  151.6030 C   0  0  0  0  0  2  0  0  0  0  0  0
  157.7440  213.8660  150.3890 C   0  0  0  0  0  2  0  0  0  0  0  0
  161.3200  209.9930  148.7990 C   0  0  0  0  0  2  0  0  0  0  0  0
  162.1910  208.8150  149.1880 C   0  0  0  0  0  2  0  0  0  0  0  0
  159.2310  213.5920  148.3910 C   0  0  0  0  0  0  0  0  0  0  0  0
  158.3840  214.4530  153.5210 C   0  0  0  0  0  1  0  0  0  0  0  0
  158.8680  209.6840  155.1600 C   0  0  0  0  0  3  0  0  0  0  0  0
  161.2780  209.6790  154.3790 C   0  0  2  0  0  3  0  0  0  0  0  0
  160.0550  213.5730  151.2760 C   0  0  0  0  0  2  0  0  0  0  0  0
  160.4520  212.9160  148.8710 C   0  0  0  0  0  0  0  0  0  0  0  0
  161.3680  212.3190  147.8340 C   0  0  0  0  0  2  0  0  0  0  0  0
  162.2010  211.1340  148.3240 C   0  0  0  0  0  2  0  0  0  0  0  0
  157.8880  213.2960  148.9870 C   0  0  0  0  0  2  0  0  0  0  0  0
  161.9910  209.9440  155.6660 C   0  0  0  0  0  0  0  0  0  0  0  0
  162.1370  208.9190  156.5920 O   0  0  0  0  0  1  0  0  0  0  0  0
  162.4930  211.0770  155.9030 O   0  0  0  0  0  0  0  0  0  0  0  0
  161.8920  206.4960  150.0390 C   0  0  0  0  0  2  0  0  0  0  0  0
  160.8750  204.8580  148.6740 O   0  0  0  0  0  0  0  0  0  0  0  0
  160.7430  205.6510  149.5920 C   0  0  0  0  0  3  0  0  0  0  0  0
  1 19  1  0  0  0  0
  2 21  1  0  0  0  0
  3 18  1  1  0  0  0
  3  7  1  0  0  0  0
  4 20  1  0  0  0  0
  5 11  1  0  0  0  0
  6 17  2  0  0  0  0
  7 12  1  0  0  0  0
  7  5  2  0  0  0  0
  8 14  1  6  0  0  0
  8  3  1  0  0  0  0
  9  4  1  0  0  0  0
 10 29  1  1  0  0  0
 10 13  1  0  0  0  0
 11 19  2  0  0  0  0
 12  1  2  0  0  0  0
 13  9  1  0  0  0  0
 15 16  1  0  0  0  0
 16 10  1  0  0  0  0
 17 22  1  0  0  0  0
 17 25  1  0  0  0  0
 20  1  1  0  0  0  0
 20 26  1  1  0  0  0
 21  8  1  0  0  0  0
 22  2  2  0  0  0  0
 23 24  1  0  0  0  0
 23 22  1  0  0  0  0
 24 15  1  0  0  0  0
 25 14  1  0  0  0  0
 26 28  2  0  0  0  0
 26 27  1  0  0  0  0
 30 31  2  0  0  0  0
 31 29  1  0  0  0  0
M  END
>  <MODEL>
1

>  <REMARK>
 VINA RESULT:      -5.7      0.000      0.000
  Name = 
  3 active torsions:
  status: ('A' for Active; 'I' for Inactive)
    1  A    between atoms: C_9  and  C_26
    2  A    between atoms: C_11  and  C_23
    3  A    between atoms: C_23  and  C_24
                            x       y       z     vdW  Elec       q    Type
                         _______ _______ _______ _____ _____    ______ ____

>  <TORSDO>
F 3

$$$$
