=
 OpenBabel11042420443D

 27 30  0  0  1  0  0  0  0  0999 V2000
  161.3140  208.2790  150.6680 N   0  0  0  0  0  0  0  0  0  0  0  0
  161.5940  206.1510  149.3000 C   0  0  0  0  0  0  0  0  0  0  0  0
  161.0690  207.8690  151.8730 C   0  0  1  0  0  3  0  0  0  0  0  0
  161.5640  205.4220  151.6830 C   0  0  0  0  0  3  0  0  0  0  0  0
  161.4370  206.5450  152.3760 C   0  0  0  0  0  3  0  0  0  0  0  0
  161.3690  205.1990  150.2410 C   0  0  0  0  0  0  0  0  0  0  0  0
  161.8570  207.5250  149.6150 N   0  0  0  0  0  0  0  0  0  0  0  0
  161.7040  205.8110  147.8650 C   0  0  0  0  0  0  0  0  0  0  0  0
  160.9450  205.4650  143.5480 O   0  0  0  0  0  0  0  0  0  0  0  0
  162.5340  204.8900  145.0130 N   0  0  0  0  0  0  0  0  0  0  0  0
  160.6720  206.2370  147.0420 C   0  0  0  0  0  3  0  0  0  0  0  0
  161.3420  205.4720  144.7410 C   0  0  0  0  0  0  0  0  0  0  0  0
  163.2220  204.7380  146.1690 C   0  0  0  0  0  3  0  0  0  0  0  0
  160.5160  206.0850  145.6750 C   0  0  0  0  0  3  0  0  0  0  0  0
  162.8520  205.1520  147.4400 C   0  0  0  0  0  3  0  0  0  0  0  0
  160.8540  202.7390  150.7420 C   0  0  0  0  0  3  0  0  0  0  0  0
  160.8180  203.3310  148.5930 C   0  0  0  0  0  3  0  0  0  0  0  0
  160.5500  201.9830  148.7360 C   0  0  0  0  0  3  0  0  0  0  0  0
  160.5710  201.6300  150.0370 N   0  0  0  0  0  2  0  0  0  0  0  0
  160.9930  203.8060  149.8780 C   0  0  0  0  0  0  0  0  0  0  0  0
  160.5160  208.8570  152.8650 C   0  0  0  0  0  2  0  0  0  0  0  0
  161.3450  209.0400  154.0650 N   0  0  0  0  0  0  0  0  0  0  0  0
  161.4650  208.8450  156.5030 C   0  0  0  0  0  2  0  0  0  0  0  0
  161.6430  210.2350  156.6250 O   0  0  0  0  0  0  0  0  0  0  0  0
  162.4540  210.6410  155.5500 C   0  0  0  0  0  2  0  0  0  0  0  0
  160.6420  208.5370  155.2500 C   0  0  0  0  0  2  0  0  0  0  0  0
  161.6970  210.4540  154.2330 C   0  0  0  0  0  2  0  0  0  0  0  0
  1  3  1  0  0  0  0
  2  7  1  0  0  0  0
  2  6  2  0  0  0  0
  3  5  1  0  0  0  0
  3 21  1  1  0  0  0
  4  5  2  0  0  0  0
  6  4  1  0  0  0  0
  7  1  2  0  0  0  0
  8  2  1  0  0  0  0
  9 12  2  0  0  0  0
 10 13  2  0  0  0  0
 11  8  1  0  0  0  0
 12 10  1  0  0  0  0
 12 14  1  0  0  0  0
 13 15  1  0  0  0  0
 14 11  2  0  0  0  0
 15  8  2  0  0  0  0
 17 18  2  0  0  0  0
 17 20  1  0  0  0  0
 18 19  1  0  0  0  0
 19 16  1  0  0  0  0
 20  6  1  0  0  0  0
 20 16  2  0  0  0  0
 21 22  1  0  0  0  0
 22 27  1  0  0  0  0
 22 26  1  0  0  0  0
 23 24  1  0  0  0  0
 25 24  1  0  0  0  0
 26 23  1  0  0  0  0
 27 25  1  0  0  0  0
M  END
>  <MODEL>
1

>  <REMARK>
 VINA RESULT:      -9.1      0.000      0.000
  Name = 
  4 active torsions:
  status: ('A' for Active; 'I' for Inactive)
    1  A    between atoms: C_2  and  C_9
    2  A    between atoms: C_7  and  N_8
    3  A    between atoms: C_7  and  C_18
    4  A    between atoms: C_20  and  C_25
                            x       y       z     vdW  Elec       q    Type
                         _______ _______ _______ _____ _____    ______ ____

>  <TORSDO>
F 4

$$$$
=
 OpenBabel11042420443D

 27 30  0  0  1  0  0  0  0  0999 V2000
  160.9020  203.5750  151.0870 N   0  0  0  0  0  0  0  0  0  0  0  0
  160.8990  203.3550  148.5510 C   0  0  0  0  0  0  0  0  0  0  0  0
  161.1040  204.8350  151.3100 C   0  0  1  0  0  3  0  0  0  0  0  0
  160.8400  205.8030  149.0150 C   0  0  0  0  0  3  0  0  0  0  0  0
  160.8220  205.8930  150.3370 C   0  0  0  0  0  3  0  0  0  0  0  0
  161.1470  204.6340  148.1730 C   0  0  0  0  0  0  0  0  0  0  0  0
  160.4960  202.9880  149.8770 N   0  0  0  0  0  0  0  0  0  0  0  0
  160.9120  202.2420  147.5750 C   0  0  0  0  0  0  0  0  0  0  0  0
  161.5040  198.3330  145.6530 O   0  0  0  0  0  0  0  0  0  0  0  0
  160.5550  200.3000  145.1740 N   0  0  0  0  0  0  0  0  0  0  0  0
  161.5070  201.0590  147.9870 C   0  0  0  0  0  3  0  0  0  0  0  0
  161.2310  199.5010  146.0320 C   0  0  0  0  0  0  0  0  0  0  0  0
  160.1200  201.5780  145.2820 C   0  0  0  0  0  3  0  0  0  0  0  0
  161.6470  199.8610  147.3070 C   0  0  0  0  0  3  0  0  0  0  0  0
  160.2770  202.4420  146.3550 C   0  0  0  0  0  3  0  0  0  0  0  0
  160.9420  205.4900  145.7650 C   0  0  0  0  0  3  0  0  0  0  0  0
  162.9470  204.7200  146.3670 C   0  0  0  0  0  3  0  0  0  0  0  0
  162.9530  205.1290  145.0470 C   0  0  0  0  0  3  0  0  0  0  0  0
  161.7400  205.5940  144.6890 N   0  0  0  0  0  0  0  0  0  0  0  0
  161.6660  204.9690  146.8200 C   0  0  2  0  0  3  0  0  0  0  0  0
  161.5020  205.2600  152.6980 C   0  0  0  0  0  2  0  0  0  0  0  0
  160.9430  206.5520  153.1210 N   0  0  0  0  0  0  0  0  0  0  0  0
  161.1800  208.9890  153.0610 C   0  0  0  0  0  2  0  0  0  0  0  0
  161.3450  209.0270  154.4580 O   0  0  0  0  0  0  0  0  0  0  0  0
  160.4820  208.0560  154.9990 C   0  0  0  0  0  2  0  0  0  0  0  0
  161.6970  207.6550  152.5160 C   0  0  0  0  0  2  0  0  0  0  0  0
  160.9530  206.6590  154.5840 C   0  0  0  0  0  2  0  0  0  0  0  0
  1  3  1  0  0  0  0
  2  7  1  0  0  0  0
  3 21  1  1  0  0  0
  4  5  2  0  0  0  0
  5  3  1  0  0  0  0
  6  2  2  0  0  0  0
  6  4  1  0  0  0  0
  7  1  2  0  0  0  0
  8 11  1  0  0  0  0
  8  2  1  0  0  0  0
  9 12  2  0  0  0  0
 10 13  2  0  0  0  0
 10 12  1  0  0  0  0
 12 14  1  0  0  0  0
 13 15  1  0  0  0  0
 14 11  2  0  0  0  0
 15  8  2  0  0  0  0
 16 20  1  0  0  0  0
 17 20  1  0  0  0  0
 18 17  2  0  0  0  0
 19 18  1  0  0  0  0
 19 16  2  0  0  0  0
 20  6  1  6  0  0  0
 21 22  1  0  0  0  0
 22 27  1  0  0  0  0
 23 24  1  0  0  0  0
 24 25  1  0  0  0  0
 26 23  1  0  0  0  0
 26 22  1  0  0  0  0
 27 25  1  0  0  0  0
M  END
>  <MODEL>
2

>  <REMARK>
 VINA RESULT:      -8.9      2.441      4.403
  Name = 
  4 active torsions:
  status: ('A' for Active; 'I' for Inactive)
    1  A    between atoms: C_2  and  C_9
    2  A    between atoms: C_7  and  N_8
    3  A    between atoms: C_7  and  C_18
    4  A    between atoms: C_20  and  C_25
                            x       y       z     vdW  Elec       q    Type
                         _______ _______ _______ _____ _____    ______ ____

>  <TORSDO>
F 4

$$$$
=
 OpenBabel11042420443D

 27 30  0  0  1  0  0  0  0  0999 V2000
  161.1250  207.4110  151.6170 N   0  0  0  0  0  0  0  0  0  0  0  0
  161.3650  205.4910  149.9640 C   0  0  0  0  0  0  0  0  0  0  0  0
  160.9840  206.8400  152.7720 C   0  0  1  0  0  3  0  0  0  0  0  0
  161.5360  204.4590  152.2260 C   0  0  0  0  0  3  0  0  0  0  0  0
  161.4280  205.4770  153.0680 C   0  0  0  0  0  3  0  0  0  0  0  0
  161.2390  204.4180  150.7840 C   0  0  0  0  0  0  0  0  0  0  0  0
  161.6090  206.8220  150.4380 N   0  0  0  0  0  0  0  0  0  0  0  0
  161.3760  205.3440  148.4920 C   0  0  0  0  0  0  0  0  0  0  0  0
  160.7170  205.9740  144.1910 O   0  0  0  0  0  0  0  0  0  0  0  0
  161.8470  204.5730  145.5170 N   0  0  0  0  0  0  0  0  0  0  0  0
  160.6600  206.2840  147.7660 C   0  0  0  0  0  3  0  0  0  0  0  0
  161.0300  205.6410  145.3620 C   0  0  0  0  0  0  0  0  0  0  0  0
  162.3570  203.9770  146.6210 C   0  0  0  0  0  3  0  0  0  0  0  0
  160.5080  206.4090  146.3950 C   0  0  0  0  0  3  0  0  0  0  0  0
  162.1490  204.3250  147.9470 C   0  0  0  0  0  3  0  0  0  0  0  0
  159.7490  202.7390  149.5450 C   0  0  0  0  0  3  0  0  0  0  0  0
  161.5750  201.9030  150.5140 C   0  0  0  0  0  3  0  0  0  0  0  0
  160.8430  200.9050  149.9010 C   0  0  0  0  0  3  0  0  0  0  0  0
  159.7410  201.4150  149.3160 N   0  0  0  0  0  0  0  0  0  0  0  0
  160.8790  203.0700  150.2680 C   0  0  2  0  0  3  0  0  0  0  0  0
  160.4780  207.6690  153.9220 C   0  0  0  0  0  2  0  0  0  0  0  0
  161.0910  209.0000  154.0260 N   0  0  0  0  0  0  0  0  0  0  0  0
  162.0960  210.6660  155.5130 C   0  0  0  0  0  2  0  0  0  0  0  0
  161.0630  211.5760  155.2240 O   0  0  0  0  0  0  0  0  0  0  0  0
  160.7480  211.4200  153.8620 C   0  0  0  0  0  2  0  0  0  0  0  0
  161.5720  209.2330  155.3920 C   0  0  0  0  0  2  0  0  0  0  0  0
  160.1330  210.0370  153.6300 C   0  0  0  0  0  2  0  0  0  0  0  0
  1  3  1  0  0  0  0
  2  7  1  0  0  0  0
  2  6  2  0  0  0  0
  3  5  1  0  0  0  0
  3 21  1  1  0  0  0
  4  5  2  0  0  0  0
  6  4  1  0  0  0  0
  7  1  2  0  0  0  0
  8  2  1  0  0  0  0
  9 12  2  0  0  0  0
 10 13  2  0  0  0  0
 11  8  1  0  0  0  0
 12 10  1  0  0  0  0
 12 14  1  0  0  0  0
 13 15  1  0  0  0  0
 14 11  2  0  0  0  0
 15  8  2  0  0  0  0
 16 20  1  0  0  0  0
 18 17  2  0  0  0  0
 19 16  2  0  0  0  0
 19 18  1  0  0  0  0
 20 17  1  0  0  0  0
 20  6  1  1  0  0  0
 21 22  1  0  0  0  0
 22 26  1  0  0  0  0
 24 23  1  0  0  0  0
 25 24  1  0  0  0  0
 26 23  1  0  0  0  0
 27 25  1  0  0  0  0
 27 22  1  0  0  0  0
M  END
>  <MODEL>
3

>  <REMARK>
 VINA RESULT:      -8.8      1.117      1.388
  Name = 
  4 active torsions:
  status: ('A' for Active; 'I' for Inactive)
    1  A    between atoms: C_2  and  C_9
    2  A    between atoms: C_7  and  N_8
    3  A    between atoms: C_7  and  C_18
    4  A    between atoms: C_20  and  C_25
                            x       y       z     vdW  Elec       q    Type
                         _______ _______ _______ _____ _____    ______ ____

>  <TORSDO>
F 4

$$$$
=
 OpenBabel11042420443D

 27 30  0  0  1  0  0  0  0  0999 V2000
  161.7350  209.4760  149.9170 N   0  0  0  0  0  0  0  0  0  0  0  0
  161.8600  207.0450  149.1730 C   0  0  0  0  0  0  0  0  0  0  0  0
  161.6260  209.4230  151.2070 C   0  0  1  0  0  3  0  0  0  0  0  0
  162.0950  207.0040  151.6540 C   0  0  0  0  0  3  0  0  0  0  0  0
  162.0470  208.2780  152.0160 C   0  0  0  0  0  3  0  0  0  0  0  0
  161.7390  206.3980  150.3600 C   0  0  0  0  0  0  0  0  0  0  0  0
  162.1570  208.4440  149.0640 N   0  0  0  0  0  0  0  0  0  0  0  0
  161.8080  206.3180  147.8850 C   0  0  0  0  0  0  0  0  0  0  0  0
  160.5700  204.8140  143.9440 O   0  0  0  0  0  0  0  0  0  0  0  0
  162.3150  204.6220  145.3300 N   0  0  0  0  0  0  0  0  0  0  0  0
  160.6890  206.5300  147.0940 C   0  0  0  0  0  3  0  0  0  0  0  0
  161.0980  205.1390  145.0380 C   0  0  0  0  0  0  0  0  0  0  0  0
  163.1290  204.7750  146.4010 C   0  0  0  0  0  3  0  0  0  0  0  0
  160.3800  206.0100  145.8480 C   0  0  0  0  0  3  0  0  0  0  0  0
  162.9030  205.5350  147.5390 C   0  0  0  0  0  3  0  0  0  0  0  0
  160.4640  204.3140  149.5840 C   0  0  0  0  0  3  0  0  0  0  0  0
  161.6600  204.0940  151.4530 C   0  0  0  0  0  3  0  0  0  0  0  0
  161.0020  202.9180  151.1490 C   0  0  0  0  0  3  0  0  0  0  0  0
  160.2820  203.0560  150.0180 N   0  0  0  0  0  0  0  0  0  0  0  0
  161.3250  204.9720  150.4410 C   0  0  2  0  0  3  0  0  0  0  0  0
  161.1880  210.6640  151.9380 C   0  0  0  0  0  2  0  0  0  0  0  0
  160.0980  210.4490  152.9000 N   0  0  0  0  0  0  0  0  0  0  0  0
  158.0010  211.3120  153.8260 C   0  0  0  0  0  2  0  0  0  0  0  0
  158.5930  211.4420  155.0960 O   0  0  0  0  0  0  0  0  0  0  0  0
  159.4560  210.3430  155.2610 C   0  0  0  0  0  2  0  0  0  0  0  0
  159.0670  211.4790  152.7390 C   0  0  0  0  0  2  0  0  0  0  0  0
  160.6190  210.4460  154.2710 C   0  0  0  0  0  2  0  0  0  0  0  0
  1  3  1  0  0  0  0
  2  6  2  0  0  0  0
  3 21  1  1  0  0  0
  3  5  1  0  0  0  0
  4  5  2  0  0  0  0
  6  4  1  0  0  0  0
  7  2  1  0  0  0  0
  7  1  2  0  0  0  0
  8  2  1  0  0  0  0
  9 12  2  0  0  0  0
 10 13  2  0  0  0  0
 11  8  1  0  0  0  0
 12 10  1  0  0  0  0
 12 14  1  0  0  0  0
 13 15  1  0  0  0  0
 14 11  2  0  0  0  0
 15  8  2  0  0  0  0
 16 19  2  0  0  0  0
 16 20  1  0  0  0  0
 18 17  2  0  0  0  0
 19 18  1  0  0  0  0
 20  6  1  1  0  0  0
 20 17  1  0  0  0  0
 21 22  1  0  0  0  0
 22 27  1  0  0  0  0
 23 24  1  0  0  0  0
 24 25  1  0  0  0  0
 26 22  1  0  0  0  0
 26 23  1  0  0  0  0
 27 25  1  0  0  0  0
M  END
>  <MODEL>
4

>  <REMARK>
 VINA RESULT:      -8.4      1.591      2.082
  Name = 
  4 active torsions:
  status: ('A' for Active; 'I' for Inactive)
    1  A    between atoms: C_2  and  C_9
    2  A    between atoms: C_7  and  N_8
    3  A    between atoms: C_7  and  C_18
    4  A    between atoms: C_20  and  C_25
                            x       y       z     vdW  Elec       q    Type
                         _______ _______ _______ _____ _____    ______ ____

>  <TORSDO>
F 4

$$$$
=
 OpenBabel11042420443D

 27 30  0  0  1  0  0  0  0  0999 V2000
  161.4500  207.2220  151.4300 N   0  0  0  0  0  0  0  0  0  0  0  0
  161.2550  205.5060  149.5600 C   0  0  0  0  0  0  0  0  0  0  0  0
  161.6570  208.3500  150.8260 C   0  0  0  0  0  0  0  0  0  0  0  0
  161.2100  207.7320  148.4400 C   0  0  0  0  0  3  0  0  0  0  0  0
  161.2930  208.6080  149.4310 C   0  0  0  0  0  3  0  0  0  0  0  0
  161.4630  206.2820  148.4660 C   0  0  0  0  0  0  0  0  0  0  0  0
  160.9590  206.0370  150.8590 N   0  0  0  0  0  2  0  0  0  0  0  0
  161.2040  204.0300  149.4660 C   0  0  0  0  0  0  0  0  0  0  0  0
  161.1510  199.9060  147.9420 O   0  0  0  0  0  0  0  0  0  0  0  0
  161.1650  200.9550  149.9180 N   0  0  0  0  0  0  0  0  0  0  0  0
  161.2240  203.4860  148.1900 C   0  0  0  0  0  3  0  0  0  0  0  0
  161.1720  200.9990  148.5650 C   0  0  0  0  0  0  0  0  0  0  0  0
  161.1840  201.9320  150.8540 C   0  0  0  0  0  3  0  0  0  0  0  0
  161.2070  202.1580  147.7990 C   0  0  0  0  0  3  0  0  0  0  0  0
  161.2050  203.3040  150.6510 C   0  0  0  0  0  3  0  0  0  0  0  0
  163.1030  205.1540  146.8510 C   0  0  0  0  0  3  0  0  0  0  0  0
  161.1190  205.7150  146.0020 C   0  0  0  0  0  3  0  0  0  0  0  0
  161.9230  205.1390  145.0360 C   0  0  0  0  0  3  0  0  0  0  0  0
  163.1200  204.8010  145.5540 N   0  0  0  0  0  0  0  0  0  0  0  0
  161.8750  205.7040  147.1580 C   0  0  2  0  0  3  0  0  0  0  0  0
  162.1560  209.5140  151.6380 C   0  0  0  0  0  2  0  0  0  0  0  0
  161.3130  209.8550  152.7920 N   0  0  0  0  0  0  0  0  0  0  0  0
  159.5340  211.3010  153.6550 C   0  0  0  0  0  2  0  0  0  0  0  0
  160.4130  211.8420  154.6130 O   0  0  0  0  0  0  0  0  0  0  0  0
  161.2350  210.7900  155.0540 C   0  0  0  0  0  2  0  0  0  0  0  0
  160.3230  210.8710  152.4160 C   0  0  0  0  0  2  0  0  0  0  0  0
  162.1380  210.3250  153.9090 C   0  0  0  0  0  2  0  0  0  0  0  0
  2  7  1  0  0  0  0
  3  1  2  0  0  0  0
  3 21  1  0  0  0  0
  4  6  1  0  0  0  0
  4  5  2  0  0  0  0
  5  3  1  0  0  0  0
  6  2  2  0  0  0  0
  7  1  1  0  0  0  0
  8  2  1  0  0  0  0
  8 15  2  0  0  0  0
  9 12  2  0  0  0  0
 10 13  2  0  0  0  0
 11  8  1  0  0  0  0
 12 10  1  0  0  0  0
 14 11  2  0  0  0  0
 14 12  1  0  0  0  0
 15 13  1  0  0  0  0
 16 20  1  0  0  0  0
 17 20  1  0  0  0  0
 18 19  1  0  0  0  0
 18 17  2  0  0  0  0
 19 16  2  0  0  0  0
 20  6  1  6  0  0  0
 21 22  1  0  0  0  0
 22 27  1  0  0  0  0
 23 24  1  0  0  0  0
 24 25  1  0  0  0  0
 26 22  1  0  0  0  0
 26 23  1  0  0  0  0
 27 25  1  0  0  0  0
M  END
>  <MODEL>
5

>  <REMARK>
 VINA RESULT:      -8.0      1.972      3.921
  Name = 
  4 active torsions:
  status: ('A' for Active; 'I' for Inactive)
    1  A    between atoms: C_2  and  C_9
    2  A    between atoms: C_7  and  N_8
    3  A    between atoms: C_7  and  C_18
    4  A    between atoms: C_20  and  C_25
                            x       y       z     vdW  Elec       q    Type
                         _______ _______ _______ _____ _____    ______ ____

>  <TORSDO>
F 4

$$$$
=
 OpenBabel11042420443D

 27 30  0  0  1  0  0  0  0  0999 V2000
  160.4000  209.4830  153.3470 N   0  0  0  0  0  0  0  0  0  0  0  0
  161.2220  207.5620  151.8940 C   0  0  0  0  0  0  0  0  0  0  0  0
  160.3270  208.9880  154.5420 C   0  0  1  0  0  3  0  0  0  0  0  0
  161.4900  206.7890  154.2480 C   0  0  0  0  0  3  0  0  0  0  0  0
  161.0750  207.8090  154.9850 C   0  0  0  0  0  3  0  0  0  0  0  0
  161.3110  206.5600  152.8050 C   0  0  0  0  0  0  0  0  0  0  0  0
  161.0950  208.9450  152.2520 N   0  0  0  0  0  0  0  0  0  0  0  0
  161.3700  207.3070  150.4440 C   0  0  0  0  0  0  0  0  0  0  0  0
  160.6960  205.9580  146.3140 O   0  0  0  0  0  0  0  0  0  0  0  0
  162.1760  207.1970  147.4430 N   0  0  0  0  0  0  0  0  0  0  0  0
  160.3810  206.5450  149.8400 C   0  0  0  0  0  3  0  0  0  0  0  0
  161.0510  206.4450  147.4180 C   0  0  0  0  0  0  0  0  0  0  0  0
  162.8070  207.8470  148.4500 C   0  0  0  0  0  3  0  0  0  0  0  0
  160.2460  206.1670  148.5150 C   0  0  0  0  0  3  0  0  0  0  0  0
  162.4440  207.8980  149.7880 C   0  0  0  0  0  3  0  0  0  0  0  0
  162.3690  204.4660  151.7710 C   0  0  0  0  0  3  0  0  0  0  0  0
  160.2750  204.2480  152.5040 C   0  0  0  0  0  3  0  0  0  0  0  0
  160.7270  203.0660  151.9490 C   0  0  0  0  0  3  0  0  0  0  0  0
  161.9930  203.2030  151.5080 N   0  0  0  0  0  0  0  0  0  0  0  0
  161.3340  205.1280  152.4000 C   0  0  2  0  0  3  0  0  0  0  0  0
  159.5540  209.7490  155.5860 C   0  0  0  0  0  2  0  0  0  0  0  0
  159.1110  211.0840  155.1580 N   0  0  0  0  0  0  0  0  0  0  0  0
  159.2480  213.4960  155.5560 C   0  0  0  0  0  2  0  0  0  0  0  0
  157.8730  213.5450  155.8510 O   0  0  0  0  0  0  0  0  0  0  0  0
  157.2340  212.6470  154.9770 C   0  0  0  0  0  2  0  0  0  0  0  0
  159.8070  212.1210  155.9270 C   0  0  0  0  0  2  0  0  0  0  0  0
  157.6580  211.2140  155.3100 C   0  0  0  0  0  2  0  0  0  0  0  0
  1  3  1  0  0  0  0
  2  7  1  0  0  0  0
  2  6  2  0  0  0  0
  3  5  1  0  0  0  0
  3 21  1  1  0  0  0
  4  5  2  0  0  0  0
  6  4  1  0  0  0  0
  7  1  2  0  0  0  0
  8  2  1  0  0  0  0
  9 12  2  0  0  0  0
 10 13  2  0  0  0  0
 11  8  1  0  0  0  0
 12 10  1  0  0  0  0
 12 14  1  0  0  0  0
 13 15  1  0  0  0  0
 14 11  2  0  0  0  0
 15  8  2  0  0  0  0
 16 20  1  0  0  0  0
 18 17  2  0  0  0  0
 19 16  2  0  0  0  0
 19 18  1  0  0  0  0
 20 17  1  0  0  0  0
 20  6  1  6  0  0  0
 22 27  1  0  0  0  0
 22 21  1  0  0  0  0
 22 26  1  0  0  0  0
 23 24  1  0  0  0  0
 23 26  1  0  0  0  0
 25 27  1  0  0  0  0
 25 24  1  0  0  0  0
M  END
>  <MODEL>
6

>  <REMARK>
 VINA RESULT:      -7.9      2.432      3.489
  Name = 
  4 active torsions:
  status: ('A' for Active; 'I' for Inactive)
    1  A    between atoms: C_2  and  C_9
    2  A    between atoms: C_7  and  N_8
    3  A    between atoms: C_7  and  C_18
    4  A    between atoms: C_20  and  C_25
                            x       y       z     vdW  Elec       q    Type
                         _______ _______ _______ _____ _____    ______ ____

>  <TORSDO>
F 4

$$$$
=
 OpenBabel11042420443D

 27 30  0  0  1  0  0  0  0  0999 V2000
  160.8150  205.5890  153.1790 N   0  0  0  0  0  0  0  0  0  0  0  0
  161.2610  208.0410  152.6640 C   0  0  0  0  0  0  0  0  0  0  0  0
  161.3320  204.9410  152.1830 C   0  0  0  0  0  0  0  0  0  0  0  0
  162.6130  206.7500  151.0170 C   0  0  0  0  0  3  0  0  0  0  0  0
  162.3800  205.4790  151.3150 C   0  0  0  0  0  3  0  0  0  0  0  0
  161.8880  207.9500  151.4640 C   0  0  0  0  0  0  0  0  0  0  0  0
  161.0670  206.9220  153.5400 N   0  0  0  0  0  2  0  0  0  0  0  0
  160.8290  209.3440  153.2170 C   0  0  0  0  0  0  0  0  0  0  0  0
  158.6290  213.0720  153.9870 O   0  0  0  0  0  0  0  0  0  0  0  0
  160.3720  211.9580  154.8370 N   0  0  0  0  0  0  0  0  0  0  0  0
  159.7210  209.9350  152.6270 C   0  0  0  0  0  3  0  0  0  0  0  0
  159.3710  212.0580  153.9310 C   0  0  0  0  0  0  0  0  0  0  0  0
  161.3180  211.0110  155.0370 C   0  0  0  0  0  3  0  0  0  0  0  0
  159.0870  211.1250  152.9410 C   0  0  0  0  0  3  0  0  0  0  0  0
  161.5190  209.8440  154.3160 C   0  0  0  0  0  3  0  0  0  0  0  0
  161.8330  209.0720  149.1600 C   0  0  0  0  0  3  0  0  0  0  0  0
  162.3180  210.3980  150.8860 C   0  0  0  0  0  3  0  0  0  0  0  0
  162.3410  211.1060  149.7000 C   0  0  0  0  0  3  0  0  0  0  0  0
  162.0460  210.3010  148.6600 N   0  0  0  0  0  0  0  0  0  0  0  0
  161.9770  209.1070  150.5330 C   0  0  2  0  0  3  0  0  0  0  0  0
  160.9510  203.4970  151.9950 C   0  0  0  0  0  2  0  0  0  0  0  0
  161.3190  202.9380  150.6870 N   0  0  0  0  0  0  0  0  0  0  0  0
  161.0180  203.0720  148.2600 C   0  0  0  0  0  2  0  0  0  0  0  0
  160.4650  201.7780  148.2380 O   0  0  0  0  0  0  0  0  0  0  0  0
  161.1750  201.0120  149.1800 C   0  0  0  0  0  2  0  0  0  0  0  0
  160.7260  203.7360  149.6080 C   0  0  0  0  0  2  0  0  0  0  0  0
  160.8930  201.5380  150.5900 C   0  0  0  0  0  2  0  0  0  0  0  0
  1  7  1  0  0  0  0
  2  8  1  0  0  0  0
  2  7  1  0  0  0  0
  3  1  2  0  0  0  0
  4  5  2  0  0  0  0
  4  6  1  0  0  0  0
  5  3  1  0  0  0  0
  6  2  2  0  0  0  0
  8 15  2  0  0  0  0
 10 13  2  0  0  0  0
 11 14  2  0  0  0  0
 11  8  1  0  0  0  0
 12  9  2  0  0  0  0
 12 10  1  0  0  0  0
 14 12  1  0  0  0  0
 15 13  1  0  0  0  0
 16 20  1  0  0  0  0
 18 17  2  0  0  0  0
 19 16  2  0  0  0  0
 19 18  1  0  0  0  0
 20 17  1  0  0  0  0
 20  6  1  6  0  0  0
 21  3  1  0  0  0  0
 22 21  1  0  0  0  0
 23 26  1  0  0  0  0
 24 23  1  0  0  0  0
 24 25  1  0  0  0  0
 25 27  1  0  0  0  0
 26 22  1  0  0  0  0
 27 22  1  0  0  0  0
M  END
>  <MODEL>
7

>  <REMARK>
 VINA RESULT:      -7.5      2.866      8.140
  Name = 
  4 active torsions:
  status: ('A' for Active; 'I' for Inactive)
    1  A    between atoms: C_2  and  C_9
    2  A    between atoms: C_7  and  N_8
    3  A    between atoms: C_7  and  C_18
    4  A    between atoms: C_20  and  C_25
                            x       y       z     vdW  Elec       q    Type
                         _______ _______ _______ _____ _____    ______ ____

>  <TORSDO>
F 4

$$$$
=
 OpenBabel11042420443D

 27 30  0  0  1  0  0  0  0  0999 V2000
  161.4840  210.5450  148.3310 N   0  0  0  0  0  0  0  0  0  0  0  0
  161.8630  208.2330  149.3260 C   0  0  0  0  0  0  0  0  0  0  0  0
  161.5340  211.3540  149.3410 C   0  0  1  0  0  3  0  0  0  0  0  0
  162.3870  209.8470  151.1510 C   0  0  0  0  0  3  0  0  0  0  0  0
  162.2020  211.0410  150.6060 C   0  0  0  0  0  3  0  0  0  0  0  0
  161.9730  208.5280  150.6460 C   0  0  0  0  0  0  0  0  0  0  0  0
  161.9450  209.2190  148.2880 N   0  0  0  0  0  0  0  0  0  0  0  0
  161.7660  206.8360  148.8490 C   0  0  0  0  0  0  0  0  0  0  0  0
  160.6630  202.6020  148.4090 O   0  0  0  0  0  0  0  0  0  0  0  0
  161.9010  204.1240  147.3350 N   0  0  0  0  0  0  0  0  0  0  0  0
  160.9500  205.9830  149.5790 C   0  0  0  0  0  3  0  0  0  0  0  0
  161.0810  203.7880  148.3580 C   0  0  0  0  0  0  0  0  0  0  0  0
  162.5040  205.2900  147.0070 C   0  0  0  0  0  3  0  0  0  0  0  0
  160.6550  204.6480  149.3630 C   0  0  0  0  0  3  0  0  0  0  0  0
  162.4400  206.5010  147.6810 C   0  0  0  0  0  3  0  0  0  0  0  0
  160.7780  207.4780  152.6560 C   0  0  0  0  0  3  0  0  0  0  0  0
  162.6240  206.4400  151.9600 C   0  0  0  0  0  3  0  0  0  0  0  0
  162.0840  205.7990  153.0590 C   0  0  0  0  0  3  0  0  0  0  0  0
  160.9680  206.4290  153.4750 N   0  0  0  0  0  2  0  0  0  0  0  0
  161.7760  207.4980  151.7020 C   0  0  0  0  0  0  0  0  0  0  0  0
  161.0130  212.7550  149.1610 C   0  0  0  0  0  2  0  0  0  0  0  0
  161.1800  213.2940  147.8050 N   0  0  0  0  0  0  0  0  0  0  0  0
  160.3690  213.2730  145.4940 C   0  0  0  0  0  2  0  0  0  0  0  0
  161.6060  212.7760  145.0440 O   0  0  0  0  0  0  0  0  0  0  0  0
  162.6030  213.3990  145.8140 C   0  0  0  0  0  2  0  0  0  0  0  0
  160.1120  212.8010  146.9270 C   0  0  0  0  0  2  0  0  0  0  0  0
  162.4970  212.9350  147.2690 C   0  0  0  0  0  2  0  0  0  0  0  0
  1  3  1  0  0  0  0
  2  6  2  0  0  0  0
  3 21  1  6  0  0  0
  3  5  1  0  0  0  0
  5  4  2  0  0  0  0
  6  4  1  0  0  0  0
  6 20  1  0  0  0  0
  7  1  2  0  0  0  0
  7  2  1  0  0  0  0
  8  2  1  0  0  0  0
  8 11  1  0  0  0  0
 10 12  1  0  0  0  0
 12  9  2  0  0  0  0
 12 14  1  0  0  0  0
 13 10  2  0  0  0  0
 13 15  1  0  0  0  0
 14 11  2  0  0  0  0
 15  8  2  0  0  0  0
 16 19  1  0  0  0  0
 17 18  2  0  0  0  0
 18 19  1  0  0  0  0
 20 17  1  0  0  0  0
 20 16  2  0  0  0  0
 22 21  1  0  0  0  0
 23 26  1  0  0  0  0
 24 23  1  0  0  0  0
 24 25  1  0  0  0  0
 25 27  1  0  0  0  0
 26 22  1  0  0  0  0
 27 22  1  0  0  0  0
M  END
>  <MODEL>
8

>  <REMARK>
 VINA RESULT:      -6.9      4.004      5.868
  Name = 
  4 active torsions:
  status: ('A' for Active; 'I' for Inactive)
    1  A    between atoms: C_2  and  C_9
    2  A    between atoms: C_7  and  N_8
    3  A    between atoms: C_7  and  C_18
    4  A    between atoms: C_20  and  C_25
                            x       y       z     vdW  Elec       q    Type
                         _______ _______ _______ _____ _____    ______ ____

>  <TORSDO>
F 4

$$$$
=
 OpenBabel11042420443D

 27 30  0  0  0  0  0  0  0  0999 V2000
  161.3960  208.8420  150.7810 N   0  0  0  0  0  0  0  0  0  0  0  0
  160.5530  209.2770  153.1430 C   0  0  0  0  0  0  0  0  0  0  0  0
  161.6960  207.5820  150.7620 C   0  0  0  0  0  0  0  0  0  0  0  0
  160.7200  206.7990  152.9320 C   0  0  0  0  0  3  0  0  0  0  0  0
  161.1410  206.5960  151.6910 C   0  0  0  0  0  3  0  0  0  0  0  0
  160.7000  208.0510  153.7060 C   0  0  0  0  0  0  0  0  0  0  0  0
  160.5990  209.5050  151.7280 N   0  0  0  0  0  2  0  0  0  0  0  0
  160.2130  210.4670  153.9530 C   0  0  0  0  0  0  0  0  0  0  0  0
  158.1400  213.9480  155.6610 O   0  0  0  0  0  0  0  0  0  0  0  0
  160.0270  212.7980  156.0020 N   0  0  0  0  0  0  0  0  0  0  0  0
  159.0060  211.0890  153.6710 C   0  0  0  0  0  3  0  0  0  0  0  0
  158.8730  212.9840  155.3200 C   0  0  0  0  0  0  0  0  0  0  0  0
  161.0090  211.8730  155.8820 C   0  0  0  0  0  3  0  0  0  0  0  0
  158.4230  212.1930  154.2700 C   0  0  0  0  0  3  0  0  0  0  0  0
  161.0880  210.8310  154.9700 C   0  0  0  0  0  3  0  0  0  0  0  0
  161.8540  208.0550  155.9950 C   0  0  0  0  0  3  0  0  0  0  0  0
  159.7320  207.3710  155.9670 C   0  0  0  0  0  3  0  0  0  0  0  0
  160.2530  207.3070  157.2450 C   0  0  0  0  0  3  0  0  0  0  0  0
  161.5350  207.7220  157.2570 N   0  0  0  0  0  2  0  0  0  0  0  0
  160.7550  207.8640  155.1810 C   0  0  0  0  0  0  0  0  0  0  0  0
  162.5410  207.0650  149.6280 C   0  0  0  0  0  2  0  0  0  0  0  0
  161.7890  206.3460  148.5900 N   0  0  0  0  0  0  0  0  0  0  0  0
  161.1430  204.1610  147.6920 C   0  0  0  0  0  2  0  0  0  0  0  0
  161.8140  204.4370  146.4860 O   0  0  0  0  0  0  0  0  0  0  0  0
  161.6140  205.8020  146.2090 C   0  0  0  0  0  2  0  0  0  0  0  0
  161.8260  204.9020  148.8440 C   0  0  0  0  0  2  0  0  0  0  0  0
  162.3290  206.6520  147.2620 C   0  0  0  0  0  2  0  0  0  0  0  0
  1  7  1  0  0  0  0
  2  6  2  0  0  0  0
  2  8  1  0  0  0  0
  3  1  2  0  0  0  0
  3  5  1  0  0  0  0
  4  6  1  0  0  0  0
  5  4  2  0  0  0  0
  6 20  1  0  0  0  0
  7  2  1  0  0  0  0
  8 15  2  0  0  0  0
 11  8  1  0  0  0  0
 11 14  2  0  0  0  0
 12  9  2  0  0  0  0
 12 10  1  0  0  0  0
 13 10  2  0  0  0  0
 14 12  1  0  0  0  0
 15 13  1  0  0  0  0
 16 19  1  0  0  0  0
 17 18  2  0  0  0  0
 18 19  1  0  0  0  0
 20 17  1  0  0  0  0
 20 16  2  0  0  0  0
 21  3  1  0  0  0  0
 22 26  1  0  0  0  0
 22 21  1  0  0  0  0
 23 26  1  0  0  0  0
 24 23  1  0  0  0  0
 25 24  1  0  0  0  0
 25 27  1  0  0  0  0
 27 22  1  0  0  0  0
M  END
>  <MODEL>
9

>  <REMARK>
 VINA RESULT:      -6.8      2.284      8.668
  Name = 
  4 active torsions:
  status: ('A' for Active; 'I' for Inactive)
    1  A    between atoms: C_2  and  C_9
    2  A    between atoms: C_7  and  N_8
    3  A    between atoms: C_7  and  C_18
    4  A    between atoms: C_20  and  C_25
                            x       y       z     vdW  Elec       q    Type
                         _______ _______ _______ _____ _____    ______ ____

>  <TORSDO>
F 4

$$$$
