=
 OpenBabel11052410103D

 54 60  0  0  1  0  0  0  0  0999 V2000
  159.6410  213.5240  151.5040 C   0  0  2  0  0  0  0  0  0  0  0  0
  160.2210  212.2030  151.9470 C   0  0  1  0  0  0  0  0  0  0  0  0
  160.2260  211.7120  153.2350 O   0  0  0  0  0  0  0  0  0  0  0  0
  159.2630  214.3970  152.5280 O   0  0  0  0  0  1  0  0  0  0  0  0
  158.7940  212.2760  151.4120 C   0  0  0  0  0  2  0  0  0  0  0  0
  162.2960  211.3930  150.9480 O   0  0  0  0  0  1  0  0  0  0  0  0
  161.0670  210.6410  152.8120 C   0  0  2  0  0  0  0  0  0  0  0  0
  160.6110  209.6810  151.6720 C   0  0  1  0  0  0  0  0  0  0  0  0
  160.2640  209.3970  153.1230 C   0  0  1  0  0  3  0  0  0  0  0  0
  160.9860  211.1040  151.3340 C   0  0  1  0  0  0  0  0  0  0  0  0
  160.0770  214.1000  150.1970 C   0  0  0  0  0  3  0  0  0  0  0  0
  159.2110  213.1100  148.0160 O   0  0  0  0  0  0  0  0  0  0  0  0
  159.6370  213.5970  149.0740 C   0  0  0  0  0  0  0  0  0  0  0  0
  161.6700  208.8240  151.2370 O   0  0  0  0  0  0  0  0  0  0  0  0
  161.8760  209.2280  148.9880 O   0  0  0  0  0  0  0  0  0  0  0  0
  161.7890  208.3790  149.9170 C   0  0  0  0  0  0  0  0  0  0  0  0
  161.7970  206.9170  149.5790 C   0  0  0  0  0  2  0  0  0  0  0  0
  160.6800  206.5600  148.5910 C   0  0  2  0  0  3  0  0  0  0  0  0
  160.3480  205.2050  148.7410 O   0  0  0  0  0  0  0  0  0  0  0  0
  161.5590  204.5530  149.0290 C   0  0  1  0  0  3  0  0  0  0  0  0
  161.7060  204.2070  150.3750 C   0  0  2  0  0  3  0  0  0  0  0  0
  161.2710  203.1360  149.4160 N   0  0  0  0  0  0  0  0  0  0  0  0
  160.8730  201.8000  149.1040 C   0  0  0  0  0  0  0  0  0  0  0  0
  160.5920  200.7490  150.3420 S   0  0  0  0  0  0  0  0  0  0  0  0
  161.6560  198.4750  145.4430 C   0  0  0  0  0  1  0  0  0  0  0  0
  160.4090  200.5920  145.0030 C   0  0  0  0  0  3  0  0  0  0  0  0
  159.8730  201.8080  145.4350 C   0  0  0  0  0  3  0  0  0  0  0  0
  160.0150  202.2020  146.7730 C   0  0  0  0  0  3  0  0  0  0  0  0
  160.7000  201.3880  147.6900 C   0  0  0  0  0  0  0  0  0  0  0  0
  161.0880  199.7700  145.9060 C   0  0  0  0  0  0  0  0  0  0  0  0
  161.2350  200.1680  147.2400 C   0  0  0  0  0  3  0  0  0  0  0  0
  160.5310  204.5560  151.2980 C   0  0  0  0  0  2  0  0  0  0  0  0
  162.4290  205.4650  152.6610 C   0  0  0  0  0  1  0  0  0  0  0  0
  161.0270  204.8800  152.7060 C   0  0  0  0  0  2  0  0  0  0  0  0
  161.0970  206.8450  147.1390 C   0  0  0  0  0  2  0  0  0  0  0  0
  160.2480  206.0650  146.1380 C   0  0  0  0  0  2  0  0  0  0  0  0
  161.0020  205.8940  144.8250 C   0  0  0  0  0  2  0  0  0  0  0  0
  161.4520  204.5120  144.6890 N   0  0  0  0  0  2  0  0  0  0  0  0
  162.6710  204.0310  145.2690 C   0  0  0  0  0  3  0  0  0  0  0  0
  163.4410  204.8150  145.9530 N   0  0  0  0  0  2  0  0  0  0  0  0
  161.1480  208.3500  153.7950 C   0  0  0  0  0  2  0  0  0  0  0  0
  160.8220  208.2240  155.2780 C   0  0  1  0  0  3  0  0  0  0  0  0
  160.9060  206.8960  155.6630 F   0  0  0  0  0  0  0  0  0  0  0  0
  161.7410  209.0850  156.1450 C   0  0  0  0  0  2  0  0  0  0  0  0
  161.0200  210.2860  156.7450 C   0  0  0  0  0  2  0  0  0  0  0  0
  159.6820  209.9700  157.0010 O   0  0  0  0  0  0  0  0  0  0  0  0
  156.9090  211.9950  155.5230 C   0  0  0  0  0  2  0  0  0  0  0  0
  157.0770  213.1910  156.4620 C   0  0  1  0  0  3  0  0  0  0  0  0
  159.9600  212.2600  156.4940 C   0  0  0  0  0  2  0  0  0  0  0  0
  158.2530  213.9740  156.1020 N   0  0  0  0  0  0  0  0  0  0  0  0
  158.0500  210.9720  155.5810 C   0  0  0  0  0  2  0  0  0  0  0  0
  155.8460  214.0720  156.3730 C   0  0  0  0  0  1  0  0  0  0  0  0
  158.9840  211.1570  156.7740 C   0  0  1  0  0  3  0  0  0  0  0  0
  159.6110  213.5150  156.1930 C   0  0  0  0  0  3  0  0  0  0  0  0
  1  2  1  0  0  0  0
  1  4  1  1  0  0  0
  2  5  1  6  0  0  0
  2  3  1  0  0  0  0
  5  1  1  0  0  0  0
  7  9  1  0  0  0  0
  7  3  1  6  0  0  0
  8 14  1  6  0  0  0
  8  7  1  0  0  0  0
  8  9  1  0  0  0  0
  9 41  1  1  0  0  0
 10  6  1  6  0  0  0
 10  8  1  0  0  0  0
 10  2  1  0  0  0  0
 10  7  1  0  0  0  0
 11  1  1  0  0  0  0
 12 13  2  0  0  0  0
 13 11  2  0  0  0  0
 15 16  2  0  0  0  0
 16 14  1  0  0  0  0
 17 16  1  0  0  0  0
 18 35  1  6  0  0  0
 18 19  1  0  0  0  0
 18 17  1  0  0  0  0
 20 19  1  1  0  0  0
 20 22  1  0  0  0  0
 20 21  1  0  0  0  0
 21 32  1  1  0  0  0
 22 21  1  0  0  0  0
 23 22  1  0  0  0  0
 23 24  2  0  0  0  0
 25 30  1  0  0  0  0
 26 27  2  0  0  0  0
 26 30  1  0  0  0  0
 27 28  1  0  0  0  0
 28 29  2  0  0  0  0
 29 23  1  0  0  0  0
 30 31  2  0  0  0  0
 31 29  1  0  0  0  0
 32 34  1  0  0  0  0
 33 34  1  0  0  0  0
 36 35  1  0  0  0  0
 37 36  1  0  0  0  0
 38 37  1  0  0  0  0
 38 39  1  0  0  0  0
 39 40  2  0  0  0  0
 41 42  1  0  0  0  0
 42 43  1  1  0  0  0
 42 44  1  0  0  0  0
 44 45  1  0  0  0  0
 45 46  1  0  0  0  0
 47 51  1  0  0  0  0
 47 48  1  0  0  0  0
 48 52  1  6  0  0  0
 49 53  1  0  0  0  0
 50 54  2  0  0  0  0
 50 48  1  0  0  0  0
 51 53  1  0  0  0  0
 53 46  1  6  0  0  0
 54 49  1  0  0  0  0
M  END
>  <MODEL>
1

>  <REMARK>
 VINA RESULT:      -5.6      0.000      0.000
  Name = 
  21 active torsions:
  status: ('A' for Active; 'I' for Inactive)
    1  A    between atoms: C_2  and  N_42
    2  A    between atoms: C_2  and  C_44
    3  A    between atoms: C_3  and  C_8
    4  A    between atoms: C_6  and  O_34
    5  A    between atoms: C_6  and  C_52
    6  A    between atoms: C_7  and  C_28
    7  A    between atoms: C_7  and  N_30
    8  A    between atoms: C_10  and  C_27
    9  A    between atoms: C_10  and  C_52
   10  A    between atoms: C_11  and  C_38
   11  A    between atoms: C_11  and  C_46
   12  A    between atoms: C_13  and  C_28
   13  A    between atoms: C_13  and  C_46
   14  A    between atoms: C_14  and  C_45
   15  A    between atoms: O_17  and  C_35
   16  A    between atoms: O_17  and  C_46
   17  A    between atoms: C_27  and  C_33
   18  A    between atoms: C_32  and  O_36
   19  A    between atoms: O_34  and  C_50
   20  A    between atoms: O_36  and  C_38
   21  A    between atoms: C_37  and  C_45
                            x       y       z     vdW  Elec       q    Type
                         _______ _______ _______ _____ _____    ______ ____

>  <TORSDO>
F 21

$$$$
=
 OpenBabel11052410103D

 54 60  0  0  1  0  0  0  0  0999 V2000
  160.9590  210.9360  155.9840 C   0  0  2  0  0  0  0  0  0  0  0  0
  160.8080  210.9070  154.4830 C   0  0  1  0  0  0  0  0  0  0  0  0
  160.7650  212.0070  153.6520 O   0  0  0  0  0  0  0  0  0  0  0  0
  160.8420  212.1930  156.5850 O   0  0  0  0  0  1  0  0  0  0  0  0
  162.1880  210.7770  155.1200 C   0  0  0  0  0  2  0  0  0  0  0  0
  159.3320  209.2650  153.4430 O   0  0  0  0  0  1  0  0  0  0  0  0
  160.4260  211.1550  152.5600 C   0  0  2  0  0  0  0  0  0  0  0  0
  161.3640  209.9770  152.1560 C   0  0  1  0  0  0  0  0  0  0  0  0
  161.5480  211.3660  151.5670 C   0  0  1  0  0  3  0  0  0  0  0  0
  160.5800  209.8900  153.4430 C   0  0  1  0  0  0  0  0  0  0  0  0
  160.5690  209.7280  156.7700 C   0  0  0  0  0  3  0  0  0  0  0  0
  162.1790  207.7660  156.9750 O   0  0  0  0  0  0  0  0  0  0  0  0
  161.3900  208.7170  156.8790 C   0  0  0  0  0  0  0  0  0  0  0  0
  160.7510  209.1090  151.1990 O   0  0  0  0  0  0  0  0  0  0  0  0
  162.7100  208.0410  150.6690 O   0  0  0  0  0  0  0  0  0  0  0  0
  161.4620  208.1240  150.5080 C   0  0  0  0  0  0  0  0  0  0  0  0
  160.7780  207.1770  149.5650 C   0  0  0  0  0  2  0  0  0  0  0  0
  161.2670  205.7370  149.7590 C   0  0  2  0  0  3  0  0  0  0  0  0
  161.6190  205.1970  148.5120 O   0  0  0  0  0  0  0  0  0  0  0  0
  160.5970  205.5920  147.6320 C   0  0  1  0  0  3  0  0  0  0  0  0
  161.0650  206.1180  146.4250 C   0  0  2  0  0  3  0  0  0  0  0  0
  160.6020  204.6880  146.4400 N   0  0  0  0  0  0  0  0  0  0  0  0
  160.3640  203.4270  145.8120 C   0  0  0  0  0  0  0  0  0  0  0  0
  159.6550  203.4060  144.3240 S   0  0  0  0  0  0  0  0  0  0  0  0
  161.4260  198.5400  145.5860 C   0  0  0  0  0  1  0  0  0  0  0  0
  161.5090  199.7680  147.7570 C   0  0  0  0  0  3  0  0  0  0  0  0
  161.3740  200.9410  148.5050 C   0  0  0  0  0  3  0  0  0  0  0  0
  161.0080  202.1370  147.8740 C   0  0  0  0  0  3  0  0  0  0  0  0
  160.7680  202.1720  146.4900 C   0  0  0  0  0  0  0  0  0  0  0  0
  161.2790  199.7890  146.3800 C   0  0  0  0  0  0  0  0  0  0  0  0
  160.9070  200.9840  145.7510 C   0  0  0  0  0  3  0  0  0  0  0  0
  162.5880  206.1460  146.2420 C   0  0  0  0  0  2  0  0  0  0  0  0
  163.7250  204.1130  145.3170 C   0  0  0  0  0  1  0  0  0  0  0  0
  162.9950  205.4000  144.9730 C   0  0  0  0  0  2  0  0  0  0  0  0
  160.1950  204.8620  150.4300 C   0  0  0  0  0  2  0  0  0  0  0  0
  160.8100  203.6840  151.1820 C   0  0  0  0  0  2  0  0  0  0  0  0
  161.0870  204.0680  152.6310 C   0  0  0  0  0  2  0  0  0  0  0  0
  161.8890  205.2880  152.6740 N   0  0  0  0  0  2  0  0  0  0  0  0
  161.5990  206.3770  153.5570 C   0  0  0  0  0  3  0  0  0  0  0  0
  160.5950  206.3280  154.3730 N   0  0  0  0  0  2  0  0  0  0  0  0
  160.9840  211.5400  150.1600 C   0  0  0  0  0  2  0  0  0  0  0  0
  162.0950  211.5330  149.1170 C   0  0  1  0  0  3  0  0  0  0  0  0
  161.8200  210.5820  148.1480 F   0  0  0  0  0  0  0  0  0  0  0  0
  162.2860  212.9050  148.4700 C   0  0  0  0  0  2  0  0  0  0  0  0
  161.2560  213.1860  147.3830 C   0  0  0  0  0  2  0  0  0  0  0  0
  161.7230  214.1800  146.5170 O   0  0  0  0  0  0  0  0  0  0  0  0
  159.5530  212.3620  144.0760 C   0  0  0  0  0  2  0  0  0  0  0  0
  160.1110  213.0540  142.8320 C   0  0  1  0  0  3  0  0  0  0  0  0
  162.6070  213.2420  144.5390 C   0  0  0  0  0  2  0  0  0  0  0  0
  161.4360  212.5430  142.5020 N   0  0  0  0  0  0  0  0  0  0  0  0
  160.3570  212.6050  145.3590 C   0  0  0  0  0  2  0  0  0  0  0  0
  159.1780  212.8080  141.6630 C   0  0  0  0  0  1  0  0  0  0  0  0
  161.3780  213.7340  145.2400 C   0  0  1  0  0  3  0  0  0  0  0  0
  162.6110  212.7100  143.3120 C   0  0  0  0  0  3  0  0  0  0  0  0
  1  4  1  1  0  0  0
  1 11  1  0  0  0  0
  2  5  1  6  0  0  0
  2  1  1  0  0  0  0
  3  2  1  0  0  0  0
  5  1  1  0  0  0  0
  7 10  1  0  0  0  0
  7  3  1  1  0  0  0
  8 14  1  6  0  0  0
  8  7  1  0  0  0  0
  8 10  1  0  0  0  0
  9 41  1  6  0  0  0
  9  8  1  0  0  0  0
  9  7  1  0  0  0  0
 10  6  1  1  0  0  0
 10  2  1  0  0  0  0
 11 13  2  0  0  0  0
 13 12  2  0  0  0  0
 16 15  2  0  0  0  0
 16 14  1  0  0  0  0
 17 16  1  0  0  0  0
 18 17  1  6  0  0  0
 18 35  1  0  0  0  0
 19 18  1  0  0  0  0
 20 19  1  1  0  0  0
 21 32  1  1  0  0  0
 21 22  1  0  0  0  0
 21 20  1  0  0  0  0
 22 20  1  0  0  0  0
 23 22  1  0  0  0  0
 23 29  1  0  0  0  0
 24 23  2  0  0  0  0
 25 30  1  0  0  0  0
 26 27  1  0  0  0  0
 28 27  2  0  0  0  0
 29 28  1  0  0  0  0
 30 26  2  0  0  0  0
 31 30  1  0  0  0  0
 31 29  2  0  0  0  0
 34 33  1  0  0  0  0
 34 32  1  0  0  0  0
 35 36  1  0  0  0  0
 36 37  1  0  0  0  0
 37 38  1  0  0  0  0
 38 39  1  0  0  0  0
 39 40  2  0  0  0  0
 42 43  1  6  0  0  0
 42 41  1  0  0  0  0
 44 42  1  0  0  0  0
 45 44  1  0  0  0  0
 46 45  1  0  0  0  0
 47 51  1  0  0  0  0
 48 52  1  6  0  0  0
 48 47  1  0  0  0  0
 49 53  1  0  0  0  0
 50 48  1  0  0  0  0
 50 54  2  0  0  0  0
 53 51  1  0  0  0  0
 53 46  1  1  0  0  0
 54 49  1  0  0  0  0
M  END
>  <MODEL>
2

>  <REMARK>
 VINA RESULT:      -5.1      3.229      7.204
  Name = 
  21 active torsions:
  status: ('A' for Active; 'I' for Inactive)
    1  A    between atoms: C_2  and  N_42
    2  A    between atoms: C_2  and  C_44
    3  A    between atoms: C_3  and  C_8
    4  A    between atoms: C_6  and  O_34
    5  A    between atoms: C_6  and  C_52
    6  A    between atoms: C_7  and  C_28
    7  A    between atoms: C_7  and  N_30
    8  A    between atoms: C_10  and  C_27
    9  A    between atoms: C_10  and  C_52
   10  A    between atoms: C_11  and  C_38
   11  A    between atoms: C_11  and  C_46
   12  A    between atoms: C_13  and  C_28
   13  A    between atoms: C_13  and  C_46
   14  A    between atoms: C_14  and  C_45
   15  A    between atoms: O_17  and  C_35
   16  A    between atoms: O_17  and  C_46
   17  A    between atoms: C_27  and  C_33
   18  A    between atoms: C_32  and  O_36
   19  A    between atoms: O_34  and  C_50
   20  A    between atoms: O_36  and  C_38
   21  A    between atoms: C_37  and  C_45
                            x       y       z     vdW  Elec       q    Type
                         _______ _______ _______ _____ _____    ______ ____

>  <TORSDO>
F 21

$$$$
=
 OpenBabel11052410103D

 54 60  0  0  1  0  0  0  0  0999 V2000
  161.1040  203.8870  151.1080 C   0  0  2  0  0  0  0  0  0  0  0  0
  161.0940  205.0990  152.0060 C   0  0  1  0  0  0  0  0  0  0  0  0
  160.9790  205.0880  153.3800 O   0  0  0  0  0  0  0  0  0  0  0  0
  160.7650  202.6740  151.7150 O   0  0  0  0  0  1  0  0  0  0  0  0
  162.4160  204.4690  151.5780 C   0  0  0  0  0  2  0  0  0  0  0  0
  159.9510  207.1330  151.2880 O   0  0  0  0  0  1  0  0  0  0  0  0
  160.8580  206.5090  153.3710 C   0  0  2  0  0  0  0  0  0  0  0  0
  161.9770  207.3930  152.7440 C   0  0  1  0  0  0  0  0  0  0  0  0
  162.0260  206.9830  154.2050 C   0  0  1  0  0  3  0  0  0  0  0  0
  161.0990  206.5620  151.8400 C   0  0  1  0  0  0  0  0  0  0  0  0
  160.8090  204.0650  149.6540 C   0  0  0  0  0  3  0  0  0  0  0  0
  161.0200  202.0900  148.0610 O   0  0  0  0  0  0  0  0  0  0  0  0
  160.9160  203.0560  148.8300 C   0  0  0  0  0  0  0  0  0  0  0  0
  161.5740  208.7610  152.6240 O   0  0  0  0  0  0  0  0  0  0  0  0
  160.4160  209.9210  151.0190 O   0  0  0  0  0  0  0  0  0  0  0  0
  161.5140  209.4260  151.3960 C   0  0  0  0  0  0  0  0  0  0  0  0
  162.7180  209.5490  150.5090 C   0  0  0  0  0  2  0  0  0  0  0  0
  162.3440  209.4180  149.0280 C   0  0  2  0  0  3  0  0  0  0  0  0
  161.6100  210.5480  148.6360 O   0  0  0  0  0  0  0  0  0  0  0  0
  162.3000  211.6470  149.1750 C   0  0  1  0  0  3  0  0  0  0  0  0
  162.5340  212.6720  148.2540 C   0  0  2  0  0  3  0  0  0  0  0  0
  161.3840  212.8300  149.2080 N   0  0  0  0  0  0  0  0  0  0  0  0
  160.2650  213.5440  149.7370 C   0  0  0  0  0  0  0  0  0  0  0  0
  160.4780  214.4530  151.0960 S   0  0  0  0  0  0  0  0  0  0  0  0
  157.5970  213.0580  145.5280 C   0  0  0  0  0  1  0  0  0  0  0  0
  156.4660  213.3670  147.7310 C   0  0  0  0  0  3  0  0  0  0  0  0
  156.5140  213.5400  149.1170 C   0  0  0  0  0  3  0  0  0  0  0  0
  157.7510  213.5910  149.7760 C   0  0  0  0  0  3  0  0  0  0  0  0
  158.9510  213.4750  149.0550 C   0  0  0  0  0  0  0  0  0  0  0  0
  157.6520  213.2460  147.0030 C   0  0  0  0  0  0  0  0  0  0  0  0
  158.8860  213.3030  147.6610 C   0  0  0  0  0  3  0  0  0  0  0  0
  161.9810  212.4530  146.8390 C   0  0  0  0  0  2  0  0  0  0  0  0
  161.3150  213.7740  144.8150 C   0  0  0  0  0  1  0  0  0  0  0  0
  162.3370  213.6280  145.9310 C   0  0  0  0  0  2  0  0  0  0  0  0
  161.5320  208.1400  148.7610 C   0  0  0  0  0  2  0  0  0  0  0  0
  162.3910  207.0340  148.1550 C   0  0  0  0  0  2  0  0  0  0  0  0
  161.7680  206.5310  146.8590 C   0  0  0  0  0  2  0  0  0  0  0  0
  162.3200  205.2220  146.5200 N   0  0  0  0  0  2  0  0  0  0  0  0
  161.9390  204.4980  145.3440 C   0  0  0  0  0  3  0  0  0  0  0  0
  161.0730  204.9820  144.5120 N   0  0  0  0  0  2  0  0  0  0  0  0
  161.5730  208.0630  155.1840 C   0  0  0  0  0  2  0  0  0  0  0  0
  160.2140  207.7270  155.7860 C   0  0  1  0  0  3  0  0  0  0  0  0
  160.2190  206.4220  156.2480 F   0  0  0  0  0  0  0  0  0  0  0  0
  159.8300  208.6850  156.9130 C   0  0  0  0  0  2  0  0  0  0  0  0
  159.7890  210.1380  156.4560 C   0  0  0  0  0  2  0  0  0  0  0  0
  159.3540  210.2160  155.1290 O   0  0  0  0  0  0  0  0  0  0  0  0
  157.1370  212.7120  153.4470 C   0  0  0  0  0  2  0  0  0  0  0  0
  156.8610  213.5410  154.7020 C   0  0  1  0  0  3  0  0  0  0  0  0
  159.6080  212.5350  155.4910 C   0  0  0  0  0  2  0  0  0  0  0  0
  158.0210  214.3510  155.0560 N   0  0  0  0  0  0  0  0  0  0  0  0
  158.2600  211.6790  153.5960 C   0  0  0  0  0  2  0  0  0  0  0  0
  155.6770  214.4520  154.4490 C   0  0  0  0  0  1  0  0  0  0  0  0
  158.6890  211.4400  155.0420 C   0  0  1  0  0  3  0  0  0  0  0  0
  159.2890  213.8340  155.4880 C   0  0  0  0  0  3  0  0  0  0  0  0
  1  5  1  0  0  0  0
  1  4  1  1  0  0  0
  1  2  1  0  0  0  0
  2  5  1  1  0  0  0
  2  3  1  0  0  0  0
  7  3  1  6  0  0  0
  7  9  1  0  0  0  0
  8 14  1  6  0  0  0
  8  7  1  0  0  0  0
  8  9  1  0  0  0  0
  9 41  1  1  0  0  0
 10  6  1  6  0  0  0
 10  2  1  0  0  0  0
 10  8  1  0  0  0  0
 10  7  1  0  0  0  0
 11  1  1  0  0  0  0
 12 13  2  0  0  0  0
 13 11  2  0  0  0  0
 15 16  2  0  0  0  0
 16 14  1  0  0  0  0
 17 16  1  0  0  0  0
 18 35  1  1  0  0  0
 18 17  1  0  0  0  0
 19 18  1  0  0  0  0
 20 19  1  6  0  0  0
 20 22  1  0  0  0  0
 21 32  1  6  0  0  0
 21 20  1  0  0  0  0
 21 22  1  0  0  0  0
 22 23  1  0  0  0  0
 23 24  2  0  0  0  0
 25 30  1  0  0  0  0
 26 27  1  0  0  0  0
 27 28  2  0  0  0  0
 29 23  1  0  0  0  0
 29 28  1  0  0  0  0
 30 31  1  0  0  0  0
 30 26  2  0  0  0  0
 31 29  2  0  0  0  0
 33 34  1  0  0  0  0
 34 32  1  0  0  0  0
 36 35  1  0  0  0  0
 37 36  1  0  0  0  0
 38 37  1  0  0  0  0
 39 38  1  0  0  0  0
 40 39  2  0  0  0  0
 41 42  1  0  0  0  0
 42 43  1  1  0  0  0
 42 44  1  0  0  0  0
 45 44  1  0  0  0  0
 46 45  1  0  0  0  0
 47 51  1  0  0  0  0
 47 48  1  0  0  0  0
 48 52  1  6  0  0  0
 48 50  1  0  0  0  0
 50 54  2  0  0  0  0
 51 53  1  0  0  0  0
 53 46  1  6  0  0  0
 53 49  1  0  0  0  0
 54 49  1  0  0  0  0
M  END
>  <MODEL>
3

>  <REMARK>
 VINA RESULT:      -4.5      3.011      7.565
  Name = 
  21 active torsions:
  status: ('A' for Active; 'I' for Inactive)
    1  A    between atoms: C_2  and  N_42
    2  A    between atoms: C_2  and  C_44
    3  A    between atoms: C_3  and  C_8
    4  A    between atoms: C_6  and  O_34
    5  A    between atoms: C_6  and  C_52
    6  A    between atoms: C_7  and  C_28
    7  A    between atoms: C_7  and  N_30
    8  A    between atoms: C_10  and  C_27
    9  A    between atoms: C_10  and  C_52
   10  A    between atoms: C_11  and  C_38
   11  A    between atoms: C_11  and  C_46
   12  A    between atoms: C_13  and  C_28
   13  A    between atoms: C_13  and  C_46
   14  A    between atoms: C_14  and  C_45
   15  A    between atoms: O_17  and  C_35
   16  A    between atoms: O_17  and  C_46
   17  A    between atoms: C_27  and  C_33
   18  A    between atoms: C_32  and  O_36
   19  A    between atoms: O_34  and  C_50
   20  A    between atoms: O_36  and  C_38
   21  A    between atoms: C_37  and  C_45
                            x       y       z     vdW  Elec       q    Type
                         _______ _______ _______ _____ _____    ______ ____

>  <TORSDO>
F 21

$$$$
=
 OpenBabel11052410103D

 54 60  0  0  1  0  0  0  0  0999 V2000
  162.5790  204.8210  145.8270 C   0  0  2  0  0  0  0  0  0  0  0  0
  161.9260  205.0450  147.1690 C   0  0  1  0  0  0  0  0  0  0  0  0
  161.5370  204.0620  148.0540 O   0  0  0  0  0  0  0  0  0  0  0  0
  162.6000  203.5000  145.3720 O   0  0  0  0  0  1  0  0  0  0  0  0
  163.4460  205.0710  147.0380 C   0  0  0  0  0  2  0  0  0  0  0  0
  160.2830  206.8310  147.4370 O   0  0  0  0  0  1  0  0  0  0  0  0
  160.8970  205.0530  148.8560 C   0  0  2  0  0  0  0  0  0  0  0  0
  161.7080  206.2580  149.4200 C   0  0  1  0  0  0  0  0  0  0  0  0
  161.5980  204.9550  150.1920 C   0  0  1  0  0  3  0  0  0  0  0  0
  161.4180  206.1910  147.9400 C   0  0  1  0  0  0  0  0  0  0  0  0
  162.5530  205.9240  144.8200 C   0  0  0  0  0  3  0  0  0  0  0  0
  161.1530  205.6850  142.7060 O   0  0  0  0  0  0  0  0  0  0  0  0
  161.8370  205.8080  143.7330 C   0  0  0  0  0  0  0  0  0  0  0  0
  160.8570  207.2520  149.9990 O   0  0  0  0  0  0  0  0  0  0  0  0
  162.3930  208.9090  150.3980 O   0  0  0  0  0  0  0  0  0  0  0  0
  161.3470  208.3090  150.7710 C   0  0  0  0  0  0  0  0  0  0  0  0
  160.6700  208.7340  152.0410 C   0  0  0  0  0  2  0  0  0  0  0  0
  161.0010  210.1880  152.3980 C   0  0  2  0  0  3  0  0  0  0  0  0
  161.1660  210.2960  153.7870 O   0  0  0  0  0  0  0  0  0  0  0  0
  159.8870  210.0950  154.3330 C   0  0  1  0  0  3  0  0  0  0  0  0
  159.9030  209.5950  155.6380 C   0  0  2  0  0  3  0  0  0  0  0  0
  159.6730  211.0680  155.4490 N   0  0  0  0  0  0  0  0  0  0  0  0
  159.4430  212.3890  155.9440 C   0  0  0  0  0  0  0  0  0  0  0  0
  160.6140  213.1060  156.8560 S   0  0  0  0  0  0  0  0  0  0  0  0
  156.1300  213.9810  152.5440 C   0  0  0  0  0  1  0  0  0  0  0  0
  155.7990  214.4520  154.9730 C   0  0  0  0  0  3  0  0  0  0  0  0
  156.2080  214.3530  156.3050 C   0  0  0  0  0  3  0  0  0  0  0  0
  157.3920  213.6740  156.6270 C   0  0  0  0  0  3  0  0  0  0  0  0
  158.1810  213.0940  155.6190 C   0  0  0  0  0  0  0  0  0  0  0  0
  156.5700  213.8760  153.9620 C   0  0  0  0  0  0  0  0  0  0  0  0
  157.7560  213.2040  154.2830 C   0  0  0  0  0  3  0  0  0  0  0  0
  161.2860  209.3840  156.2670 C   0  0  0  0  0  2  0  0  0  0  0  0
  160.4950  207.0580  155.7690 C   0  0  0  0  0  1  0  0  0  0  0  0
  161.6410  207.8990  156.3070 C   0  0  0  0  0  2  0  0  0  0  0  0
  159.9020  211.1520  151.9200 C   0  0  0  0  0  2  0  0  0  0  0  0
  160.4560  212.5410  151.6130 C   0  0  0  0  0  2  0  0  0  0  0  0
  160.3770  212.8230  150.1180 C   0  0  0  0  0  2  0  0  0  0  0  0
  161.5420  212.2550  149.4460 N   0  0  0  0  0  2  0  0  0  0  0  0
  161.8720  212.5470  148.0830 C   0  0  0  0  0  3  0  0  0  0  0  0
  161.1390  213.3450  147.3730 N   0  0  0  0  0  2  0  0  0  0  0  0
  160.5780  204.9720  151.3280 C   0  0  0  0  0  2  0  0  0  0  0  0
  160.9310  203.9500  152.4010 C   0  0  1  0  0  3  0  0  0  0  0  0
  159.7830  203.5630  153.0720 F   0  0  0  0  0  0  0  0  0  0  0  0
  161.6410  202.7270  151.8210 C   0  0  0  0  0  2  0  0  0  0  0  0
  160.9120  202.1470  150.6150 C   0  0  0  0  0  2  0  0  0  0  0  0
  161.7100  201.1910  149.9790 O   0  0  0  0  0  0  0  0  0  0  0  0
  159.1570  201.6530  147.2880 C   0  0  0  0  0  2  0  0  0  0  0  0
  160.1630  201.7400  146.1380 C   0  0  1  0  0  3  0  0  0  0  0  0
  161.8050  199.9660  147.9630 C   0  0  0  0  0  2  0  0  0  0  0  0
  160.7060  200.4250  145.8220 N   0  0  0  0  0  0  0  0  0  0  0  0
  159.7500  201.1830  148.6210 C   0  0  0  0  0  2  0  0  0  0  0  0
  159.4710  202.3010  144.9110 C   0  0  0  0  0  1  0  0  0  0  0  0
  161.2760  201.1860  148.6530 C   0  0  1  0  0  3  0  0  0  0  0  0
  161.5370  199.6420  146.6940 C   0  0  0  0  0  3  0  0  0  0  0  0
  1  4  1  6  0  0  0
  1  5  1  0  0  0  0
  1  2  1  0  0  0  0
  2  5  1  1  0  0  0
  2 10  1  0  0  0  0
  2  3  1  0  0  0  0
  7  3  1  6  0  0  0
  7  8  1  0  0  0  0
  7  9  1  0  0  0  0
  8 14  1  1  0  0  0
  8  9  1  0  0  0  0
  9 41  1  1  0  0  0
 10  6  1  6  0  0  0
 10  7  1  0  0  0  0
 10  8  1  0  0  0  0
 11  1  1  0  0  0  0
 12 13  2  0  0  0  0
 13 11  2  0  0  0  0
 14 16  1  0  0  0  0
 15 16  2  0  0  0  0
 16 17  1  0  0  0  0
 17 18  1  0  0  0  0
 18 35  1  1  0  0  0
 18 19  1  0  0  0  0
 20 19  1  1  0  0  0
 20 22  1  0  0  0  0
 20 21  1  0  0  0  0
 21 32  1  1  0  0  0
 22 21  1  0  0  0  0
 22 23  1  0  0  0  0
 23 24  2  0  0  0  0
 25 30  1  0  0  0  0
 26 27  1  0  0  0  0
 27 28  2  0  0  0  0
 29 23  1  0  0  0  0
 29 28  1  0  0  0  0
 30 31  1  0  0  0  0
 30 26  2  0  0  0  0
 31 29  2  0  0  0  0
 32 34  1  0  0  0  0
 33 34  1  0  0  0  0
 36 35  1  0  0  0  0
 37 36  1  0  0  0  0
 38 37  1  0  0  0  0
 39 38  1  0  0  0  0
 40 39  2  0  0  0  0
 41 42  1  0  0  0  0
 42 43  1  6  0  0  0
 44 42  1  0  0  0  0
 45 44  1  0  0  0  0
 46 45  1  0  0  0  0
 47 51  1  0  0  0  0
 48 52  1  6  0  0  0
 48 47  1  0  0  0  0
 49 53  1  0  0  0  0
 50 48  1  0  0  0  0
 50 54  2  0  0  0  0
 51 53  1  0  0  0  0
 53 46  1  1  0  0  0
 54 49  1  0  0  0  0
M  END
>  <MODEL>
4

>  <REMARK>
 VINA RESULT:      -4.3      3.201     10.784
  Name = 
  21 active torsions:
  status: ('A' for Active; 'I' for Inactive)
    1  A    between atoms: C_2  and  N_42
    2  A    between atoms: C_2  and  C_44
    3  A    between atoms: C_3  and  C_8
    4  A    between atoms: C_6  and  O_34
    5  A    between atoms: C_6  and  C_52
    6  A    between atoms: C_7  and  C_28
    7  A    between atoms: C_7  and  N_30
    8  A    between atoms: C_10  and  C_27
    9  A    between atoms: C_10  and  C_52
   10  A    between atoms: C_11  and  C_38
   11  A    between atoms: C_11  and  C_46
   12  A    between atoms: C_13  and  C_28
   13  A    between atoms: C_13  and  C_46
   14  A    between atoms: C_14  and  C_45
   15  A    between atoms: O_17  and  C_35
   16  A    between atoms: O_17  and  C_46
   17  A    between atoms: C_27  and  C_33
   18  A    between atoms: C_32  and  O_36
   19  A    between atoms: O_34  and  C_50
   20  A    between atoms: O_36  and  C_38
   21  A    between atoms: C_37  and  C_45
                            x       y       z     vdW  Elec       q    Type
                         _______ _______ _______ _____ _____    ______ ____

>  <TORSDO>
F 21

$$$$
=
 OpenBabel11052410103D

 54 60  0  0  1  0  0  0  0  0999 V2000
  162.5900  204.7780  146.1760 C   0  0  2  0  0  0  0  0  0  0  0  0
  162.1200  205.6890  147.2830 C   0  0  1  0  0  0  0  0  0  0  0  0
  161.9030  205.3240  148.5950 O   0  0  0  0  0  0  0  0  0  0  0  0
  162.6070  203.4120  146.4760 O   0  0  0  0  0  1  0  0  0  0  0  0
  163.6050  205.5910  146.9440 C   0  0  0  0  0  2  0  0  0  0  0  0
  160.4510  207.4080  146.8160 O   0  0  0  0  0  1  0  0  0  0  0  0
  161.3370  206.6080  148.8470 C   0  0  2  0  0  0  0  0  0  0  0  0
  162.1630  207.9030  148.5820 C   0  0  1  0  0  0  0  0  0  0  0  0
  162.2200  207.1960  149.9250 C   0  0  1  0  0  3  0  0  0  0  0  0
  161.6730  207.0860  147.4110 C   0  0  1  0  0  0  0  0  0  0  0  0
  162.3730  205.1960  144.7590 C   0  0  0  0  0  3  0  0  0  0  0  0
  160.2080  204.5840  143.5670 O   0  0  0  0  0  0  0  0  0  0  0  0
  161.2650  204.8850  144.1410 C   0  0  0  0  0  0  0  0  0  0  0  0
  161.3570  209.0810  148.6740 O   0  0  0  0  0  0  0  0  0  0  0  0
  162.9090  210.5470  149.5120 O   0  0  0  0  0  0  0  0  0  0  0  0
  161.9020  210.3640  148.7740 C   0  0  0  0  0  0  0  0  0  0  0  0
  161.3080  211.5290  148.0390 C   0  0  0  0  0  2  0  0  0  0  0  0
  161.2570  212.7850  148.9190 C   0  0  2  0  0  3  0  0  0  0  0  0
  159.9270  213.0320  149.2920 O   0  0  0  0  0  0  0  0  0  0  0  0
  159.9990  213.9830  150.3240 C   0  0  1  0  0  3  0  0  0  0  0  0
  158.7520  214.4530  150.7450 C   0  0  2  0  0  3  0  0  0  0  0  0
  159.4240  213.3940  151.5730 N   0  0  0  0  0  0  0  0  0  0  0  0
  159.4760  212.4970  152.6840 C   0  0  0  0  0  0  0  0  0  0  0  0
  160.2240  211.0410  152.4910 S   0  0  0  0  0  0  0  0  0  0  0  0
  155.6690  214.4530  155.2820 C   0  0  0  0  0  1  0  0  0  0  0  0
  157.7390  213.6720  156.4370 C   0  0  0  0  0  3  0  0  0  0  0  0
  159.0150  213.1050  156.4090 C   0  0  0  0  0  3  0  0  0  0  0  0
  159.5820  212.7130  155.1880 C   0  0  0  0  0  3  0  0  0  0  0  0
  158.8810  212.8910  153.9840 C   0  0  0  0  0  0  0  0  0  0  0  0
  157.0290  213.8500  155.2480 C   0  0  0  0  0  0  0  0  0  0  0  0
  157.5990  213.4650  154.0290 C   0  0  0  0  0  3  0  0  0  0  0  0
  157.5270  213.8420  150.0530 C   0  0  0  0  0  2  0  0  0  0  0  0
  155.1020  214.2890  149.5990 C   0  0  0  0  0  1  0  0  0  0  0  0
  156.2370  214.4530  150.5970 C   0  0  0  0  0  2  0  0  0  0  0  0
  161.8390  214.0080  148.1930 C   0  0  0  0  0  2  0  0  0  0  0  0
  162.5710  213.6160  146.9120 C   0  0  0  0  0  2  0  0  0  0  0  0
  162.0660  214.4470  145.7380 C   0  0  0  0  0  2  0  0  0  0  0  0
  163.0270  214.3890  144.6410 N   0  0  0  0  0  2  0  0  0  0  0  0
  162.9280  213.4430  143.5700 C   0  0  0  0  0  3  0  0  0  0  0  0
  161.9620  212.5820  143.5250 N   0  0  0  0  0  2  0  0  0  0  0  0
  161.3690  207.8360  151.0180 C   0  0  0  0  0  2  0  0  0  0  0  0
  161.8160  207.3810  152.4020 C   0  0  1  0  0  3  0  0  0  0  0  0
  162.0770  208.4870  153.1940 F   0  0  0  0  0  0  0  0  0  0  0  0
  160.7800  206.4820  153.0760 C   0  0  0  0  0  2  0  0  0  0  0  0
  161.0330  205.0030  152.8140 C   0  0  0  0  0  2  0  0  0  0  0  0
  162.1000  204.8430  151.9250 O   0  0  0  0  0  0  0  0  0  0  0  0
  160.0440  202.9780  149.4220 C   0  0  0  0  0  2  0  0  0  0  0  0
  161.0760  201.8790  149.1660 C   0  0  1  0  0  3  0  0  0  0  0  0
  161.8620  202.4970  152.0260 C   0  0  0  0  0  2  0  0  0  0  0  0
  161.1260  200.9410  150.2810 N   0  0  0  0  0  0  0  0  0  0  0  0
  160.3500  203.8740  150.6280 C   0  0  0  0  0  2  0  0  0  0  0  0
  160.7040  201.1300  147.9020 C   0  0  0  0  0  1  0  0  0  0  0  0
  161.7700  203.7200  151.1660 C   0  0  1  0  0  3  0  0  0  0  0  0
  161.5670  201.2600  151.6100 C   0  0  0  0  0  3  0  0  0  0  0  0
  1  4  1  1  0  0  0
  1  5  1  0  0  0  0
  1  2  1  0  0  0  0
  2  5  1  1  0  0  0
  2 10  1  0  0  0  0
  2  3  1  0  0  0  0
  7  3  1  6  0  0  0
  7  9  1  0  0  0  0
  8 14  1  1  0  0  0
  8  7  1  0  0  0  0
  8  9  1  0  0  0  0
  9 41  1  1  0  0  0
 10  6  1  6  0  0  0
 10  8  1  0  0  0  0
 10  7  1  0  0  0  0
 11  1  1  0  0  0  0
 12 13  2  0  0  0  0
 13 11  2  0  0  0  0
 14 16  1  0  0  0  0
 16 15  2  0  0  0  0
 17 16  1  0  0  0  0
 18 17  1  6  0  0  0
 18 19  1  0  0  0  0
 20 19  1  6  0  0  0
 20 21  1  0  0  0  0
 20 22  1  0  0  0  0
 21 32  1  6  0  0  0
 21 22  1  0  0  0  0
 22 23  1  0  0  0  0
 23 29  1  0  0  0  0
 24 23  2  0  0  0  0
 27 26  1  0  0  0  0
 28 27  2  0  0  0  0
 29 31  2  0  0  0  0
 29 28  1  0  0  0  0
 30 25  1  0  0  0  0
 30 26  2  0  0  0  0
 31 30  1  0  0  0  0
 32 34  1  0  0  0  0
 33 34  1  0  0  0  0
 35 18  1  0  0  0  0
 36 35  1  0  0  0  0
 37 36  1  0  0  0  0
 38 37  1  0  0  0  0
 39 38  1  0  0  0  0
 40 39  2  0  0  0  0
 41 42  1  0  0  0  0
 42 44  1  0  0  0  0
 42 43  1  1  0  0  0
 45 44  1  0  0  0  0
 46 45  1  0  0  0  0
 47 51  1  0  0  0  0
 48 52  1  6  0  0  0
 48 47  1  0  0  0  0
 48 50  1  0  0  0  0
 50 54  2  0  0  0  0
 51 53  1  0  0  0  0
 53 46  1  1  0  0  0
 53 49  1  0  0  0  0
 54 49  1  0  0  0  0
M  END
>  <MODEL>
5

>  <REMARK>
 VINA RESULT:      -4.3      3.260     10.284
  Name = 
  21 active torsions:
  status: ('A' for Active; 'I' for Inactive)
    1  A    between atoms: C_2  and  N_42
    2  A    between atoms: C_2  and  C_44
    3  A    between atoms: C_3  and  C_8
    4  A    between atoms: C_6  and  O_34
    5  A    between atoms: C_6  and  C_52
    6  A    between atoms: C_7  and  C_28
    7  A    between atoms: C_7  and  N_30
    8  A    between atoms: C_10  and  C_27
    9  A    between atoms: C_10  and  C_52
   10  A    between atoms: C_11  and  C_38
   11  A    between atoms: C_11  and  C_46
   12  A    between atoms: C_13  and  C_28
   13  A    between atoms: C_13  and  C_46
   14  A    between atoms: C_14  and  C_45
   15  A    between atoms: O_17  and  C_35
   16  A    between atoms: O_17  and  C_46
   17  A    between atoms: C_27  and  C_33
   18  A    between atoms: C_32  and  O_36
   19  A    between atoms: O_34  and  C_50
   20  A    between atoms: O_36  and  C_38
   21  A    between atoms: C_37  and  C_45
                            x       y       z     vdW  Elec       q    Type
                         _______ _______ _______ _____ _____    ______ ____

>  <TORSDO>
F 21

$$$$
=
 OpenBabel11052410103D

 54 60  0  0  1  0  0  0  0  0999 V2000
  161.3950  210.1600  156.1420 C   0  0  2  0  0  0  0  0  0  0  0  0
  160.9870  210.4100  154.7110 C   0  0  1  0  0  0  0  0  0  0  0  0
  160.3120  211.5170  154.2440 O   0  0  0  0  0  0  0  0  0  0  0  0
  160.8610  211.0360  157.0910 O   0  0  0  0  0  1  0  0  0  0  0  0
  162.3800  210.8020  155.1940 C   0  0  0  0  0  2  0  0  0  0  0  0
  160.2020  208.5560  153.3310 O   0  0  0  0  0  1  0  0  0  0  0  0
  160.1750  210.8840  152.9730 C   0  0  2  0  0  0  0  0  0  0  0  0
  161.4340  210.4150  152.1840 C   0  0  1  0  0  0  0  0  0  0  0  0
  160.8800  211.8200  152.0170 C   0  0  1  0  0  3  0  0  0  0  0  0
  161.0290  209.6760  153.4360 C   0  0  1  0  0  0  0  0  0  0  0  0
  161.7270  208.7660  156.5630 C   0  0  0  0  0  3  0  0  0  0  0  0
  159.9030  206.9910  156.6450 O   0  0  0  0  0  0  0  0  0  0  0  0
  160.7960  207.8500  156.6080 C   0  0  0  0  0  0  0  0  0  0  0  0
  161.0890  209.6080  151.0550 O   0  0  0  0  0  0  0  0  0  0  0  0
  162.8620  208.2490  150.5330 O   0  0  0  0  0  0  0  0  0  0  0  0
  161.6400  208.3420  150.8340 C   0  0  0  0  0  0  0  0  0  0  0  0
  160.8100  207.0960  150.9290 C   0  0  0  0  0  2  0  0  0  0  0  0
  160.5100  206.5110  149.5430 C   0  0  2  0  0  3  0  0  0  0  0  0
  160.0560  205.1910  149.6890 O   0  0  0  0  0  0  0  0  0  0  0  0
  161.1970  204.3850  149.5350 C   0  0  1  0  0  3  0  0  0  0  0  0
  161.5360  203.6630  150.6820 C   0  0  2  0  0  3  0  0  0  0  0  0
  160.7900  202.9460  149.5920 N   0  0  0  0  0  0  0  0  0  0  0  0
  160.1600  201.7910  149.0360 C   0  0  0  0  0  0  0  0  0  0  0  0
  159.1490  200.9050  149.9900 S   0  0  0  0  0  0  0  0  0  0  0  0
  161.6190  198.4090  145.6440 C   0  0  0  0  0  1  0  0  0  0  0  0
  160.9070  200.6970  144.9450 C   0  0  0  0  0  3  0  0  0  0  0  0
  160.4390  201.9780  145.2490 C   0  0  0  0  0  3  0  0  0  0  0  0
  160.1870  202.3360  146.5800 C   0  0  0  0  0  3  0  0  0  0  0  0
  160.4060  201.4200  147.6220 C   0  0  0  0  0  0  0  0  0  0  0  0
  161.1240  199.7740  145.9700 C   0  0  0  0  0  0  0  0  0  0  0  0
  160.8780  200.1350  147.3010 C   0  0  0  0  0  3  0  0  0  0  0  0
  160.6060  203.8340  151.8910 C   0  0  0  0  0  2  0  0  0  0  0  0
  161.5530  205.6180  153.3770 C   0  0  0  0  0  1  0  0  0  0  0  0
  161.4130  204.1210  153.1570 C   0  0  0  0  0  2  0  0  0  0  0  0
  161.7480  206.5480  148.6330 C   0  0  0  0  0  2  0  0  0  0  0  0
  161.4250  207.1150  147.2540 C   0  0  0  0  0  2  0  0  0  0  0  0
  160.9460  206.0060  146.3250 C   0  0  0  0  0  2  0  0  0  0  0  0
  162.0920  205.3710  145.6800 N   0  0  0  0  0  2  0  0  0  0  0  0
  162.1690  205.1600  144.2660 C   0  0  0  0  0  3  0  0  0  0  0  0
  161.2100  205.5330  143.4800 N   0  0  0  0  0  2  0  0  0  0  0  0
  160.0390  212.0270  150.7610 C   0  0  0  0  0  2  0  0  0  0  0  0
  158.8980  213.0040  151.0170 C   0  0  1  0  0  3  0  0  0  0  0  0
  157.8500  212.3460  151.6380 F   0  0  0  0  0  0  0  0  0  0  0  0
  159.3420  214.2010  151.8570 C   0  0  0  0  0  2  0  0  0  0  0  0
  158.4240  214.4510  153.0470 C   0  0  0  0  0  2  0  0  0  0  0  0
  159.0450  214.0480  154.2320 O   0  0  0  0  0  0  0  0  0  0  0  0
  155.6750  212.4700  154.5910 C   0  0  0  0  0  2  0  0  0  0  0  0
  156.0630  211.5430  155.7440 C   0  0  1  0  0  3  0  0  0  0  0  0
  158.0320  213.7660  156.3460 C   0  0  0  0  0  3  0  0  0  0  0  0
  156.1860  212.2880  156.9910 N   0  0  0  0  0  2  0  0  0  0  0  0
  156.7130  213.5480  154.2600 C   0  0  0  0  0  2  0  0  0  0  0  0
  155.0000  210.4750  155.9060 C   0  0  0  0  0  1  0  0  0  0  0  0
  158.0720  213.3180  154.9170 C   0  0  1  0  0  3  0  0  0  0  0  0
  157.1780  213.2920  157.2600 C   0  0  0  0  0  3  0  0  0  0  0  0
  1 11  1  0  0  0  0
  1  4  1  1  0  0  0
  2  5  1  6  0  0  0
  2  1  1  0  0  0  0
  3  2  1  0  0  0  0
  5  1  1  0  0  0  0
  7 10  1  0  0  0  0
  7  3  1  1  0  0  0
  8 14  1  6  0  0  0
  8  7  1  0  0  0  0
  8 10  1  0  0  0  0
  9 41  1  6  0  0  0
  9  8  1  0  0  0  0
  9  7  1  0  0  0  0
 10  6  1  6  0  0  0
 10  2  1  0  0  0  0
 11 13  2  0  0  0  0
 13 12  2  0  0  0  0
 15 16  2  0  0  0  0
 16 17  1  0  0  0  0
 16 14  1  0  0  0  0
 18 35  1  6  0  0  0
 18 19  1  0  0  0  0
 18 17  1  0  0  0  0
 20 22  1  0  0  0  0
 20 19  1  1  0  0  0
 20 21  1  0  0  0  0
 21 32  1  1  0  0  0
 22 21  1  0  0  0  0
 23 22  1  0  0  0  0
 23 24  2  0  0  0  0
 25 30  1  0  0  0  0
 26 27  2  0  0  0  0
 26 30  1  0  0  0  0
 27 28  1  0  0  0  0
 28 29  2  0  0  0  0
 29 23  1  0  0  0  0
 30 31  2  0  0  0  0
 31 29  1  0  0  0  0
 32 34  1  0  0  0  0
 34 33  1  0  0  0  0
 36 35  1  0  0  0  0
 37 36  1  0  0  0  0
 38 37  1  0  0  0  0
 39 38  1  0  0  0  0
 40 39  2  0  0  0  0
 41 42  1  0  0  0  0
 42 43  1  1  0  0  0
 42 44  1  0  0  0  0
 44 45  1  0  0  0  0
 45 46  1  0  0  0  0
 47 48  1  0  0  0  0
 48 52  1  1  0  0  0
 48 50  1  0  0  0  0
 49 54  2  0  0  0  0
 50 54  1  0  0  0  0
 51 47  1  0  0  0  0
 51 53  1  0  0  0  0
 53 46  1  6  0  0  0
 53 49  1  0  0  0  0
M  END
>  <MODEL>
6

>  <REMARK>
 VINA RESULT:      -3.8      1.772      3.760
  Name = 
  21 active torsions:
  status: ('A' for Active; 'I' for Inactive)
    1  A    between atoms: C_2  and  N_42
    2  A    between atoms: C_2  and  C_44
    3  A    between atoms: C_3  and  C_8
    4  A    between atoms: C_6  and  O_34
    5  A    between atoms: C_6  and  C_52
    6  A    between atoms: C_7  and  C_28
    7  A    between atoms: C_7  and  N_30
    8  A    between atoms: C_10  and  C_27
    9  A    between atoms: C_10  and  C_52
   10  A    between atoms: C_11  and  C_38
   11  A    between atoms: C_11  and  C_46
   12  A    between atoms: C_13  and  C_28
   13  A    between atoms: C_13  and  C_46
   14  A    between atoms: C_14  and  C_45
   15  A    between atoms: O_17  and  C_35
   16  A    between atoms: O_17  and  C_46
   17  A    between atoms: C_27  and  C_33
   18  A    between atoms: C_32  and  O_36
   19  A    between atoms: O_34  and  C_50
   20  A    between atoms: O_36  and  C_38
   21  A    between atoms: C_37  and  C_45
                            x       y       z     vdW  Elec       q    Type
                         _______ _______ _______ _____ _____    ______ ____

>  <TORSDO>
F 21

$$$$
=
 OpenBabel11052410103D

 54 60  0  0  1  0  0  0  0  0999 V2000
  160.9850  210.8450  154.5000 C   0  0  2  0  0  0  0  0  0  0  0  0
  161.0510  210.6700  153.0020 C   0  0  1  0  0  0  0  0  0  0  0  0
  160.9590  211.6770  152.0650 O   0  0  0  0  0  0  0  0  0  0  0  0
  160.5950  212.1100  154.9500 O   0  0  0  0  0  1  0  0  0  0  0  0
  162.3330  210.8200  153.8180 C   0  0  0  0  0  2  0  0  0  0  0  0
  160.0020  208.7300  151.9590 O   0  0  0  0  0  1  0  0  0  0  0  0
  160.9100  210.6960  151.0320 C   0  0  2  0  0  0  0  0  0  0  0  0
  162.0620  209.6590  150.8710 C   0  0  1  0  0  0  0  0  0  0  0  0
  162.1140  211.0060  150.1720 C   0  0  1  0  0  3  0  0  0  0  0  0
  161.1290  209.5490  152.0520 C   0  0  1  0  0  0  0  0  0  0  0  0
  160.6760  209.6570  155.3510 C   0  0  0  0  0  3  0  0  0  0  0  0
  162.2900  208.9530  157.1890 O   0  0  0  0  0  0  0  0  0  0  0  0
  161.5000  209.2890  156.2960 C   0  0  0  0  0  0  0  0  0  0  0  0
  161.7280  208.6270  149.9380 O   0  0  0  0  0  0  0  0  0  0  0  0
  163.6270  207.3690  150.2070 O   0  0  0  0  0  0  0  0  0  0  0  0
  162.6660  207.7060  149.4630 C   0  0  0  0  0  0  0  0  0  0  0  0
  162.5660  207.1250  148.0830 C   0  0  0  0  0  2  0  0  0  0  0  0
  161.3380  206.2180  147.9400 C   0  0  2  0  0  3  0  0  0  0  0  0
  161.6650  204.9270  148.3810 O   0  0  0  0  0  0  0  0  0  0  0  0
  160.4830  204.4130  148.9430 C   0  0  1  0  0  3  0  0  0  0  0  0
  160.3520  203.0280  148.8110 C   0  0  2  0  0  3  0  0  0  0  0  0
  160.8330  203.5690  150.1280 N   0  0  0  0  0  0  0  0  0  0  0  0
  161.2890  203.4100  151.4730 C   0  0  0  0  0  0  0  0  0  0  0  0
  161.6570  201.8950  152.0090 S   0  0  0  0  0  0  0  0  0  0  0  0
  159.6250  206.2260  155.2640 C   0  0  0  0  0  1  0  0  0  0  0  0
  161.6920  206.8540  154.0140 C   0  0  0  0  0  3  0  0  0  0  0  0
  162.6350  206.6160  153.0110 C   0  0  0  0  0  3  0  0  0  0  0  0
  162.5120  205.4900  152.1850 C   0  0  0  0  0  3  0  0  0  0  0  0
  161.4410  204.5950  152.3500 C   0  0  0  0  0  0  0  0  0  0  0  0
  160.6260  205.9710  154.1930 C   0  0  0  0  0  0  0  0  0  0  0  0
  160.5000  204.8500  153.3630 C   0  0  0  0  0  3  0  0  0  0  0  0
  161.5120  202.2990  148.1200 C   0  0  0  0  0  2  0  0  0  0  0  0
  161.2360  200.0950  146.9580 C   0  0  0  0  0  1  0  0  0  0  0  0
  161.0300  201.5970  146.8520 C   0  0  0  0  0  2  0  0  0  0  0  0
  160.8370  206.1690  146.4870 C   0  0  0  0  0  2  0  0  0  0  0  0
  161.9400  205.7560  145.5170 C   0  0  0  0  0  2  0  0  0  0  0  0
  161.4220  204.7020  144.5450 C   0  0  0  0  0  2  0  0  0  0  0  0
  159.9630  204.7370  144.5090 N   0  0  0  0  0  2  0  0  0  0  0  0
  159.1600  203.5590  144.3700 C   0  0  0  0  0  3  0  0  0  0  0  0
  159.7030  202.3880  144.2710 N   0  0  0  0  0  2  0  0  0  0  0  0
  161.7330  210.9710  148.6940 C   0  0  0  0  0  2  0  0  0  0  0  0
  161.6380  212.3780  148.1160 C   0  0  1  0  0  3  0  0  0  0  0  0
  162.7390  212.6280  147.3130 F   0  0  0  0  0  0  0  0  0  0  0  0
  160.3480  212.5890  147.3230 C   0  0  0  0  0  2  0  0  0  0  0  0
  160.6080  212.8480  145.8450 C   0  0  0  0  0  2  0  0  0  0  0  0
  159.5700  212.3220  145.0700 O   0  0  0  0  0  0  0  0  0  0  0  0
  162.2730  212.2810  142.4880 C   0  0  0  0  0  2  0  0  0  0  0  0
  161.3570  211.9280  141.3150 C   0  0  1  0  0  3  0  0  0  0  0  0
  159.3040  213.4010  142.9870 C   0  0  0  0  0  2  0  0  0  0  0  0
  160.5640  213.0820  140.9090 N   0  0  0  0  0  0  0  0  0  0  0  0
  161.5400  212.6790  143.7740 C   0  0  0  0  0  2  0  0  0  0  0  0
  162.2020  211.4680  140.1430 C   0  0  0  0  0  1  0  0  0  0  0  0
  160.0490  212.3540  143.7590 C   0  0  1  0  0  3  0  0  0  0  0  0
  159.5520  213.7130  141.7100 C   0  0  0  0  0  3  0  0  0  0  0  0
  1  4  1  1  0  0  0
  1 11  1  0  0  0  0
  2  5  1  1  0  0  0
  2  1  1  0  0  0  0
  3  2  1  0  0  0  0
  5  1  1  0  0  0  0
  7 10  1  0  0  0  0
  7  3  1  1  0  0  0
  8 14  1  6  0  0  0
  8  7  1  0  0  0  0
  8 10  1  0  0  0  0
  9 41  1  6  0  0  0
  9  8  1  0  0  0  0
  9  7  1  0  0  0  0
 10  6  1  1  0  0  0
 10  2  1  0  0  0  0
 11 13  2  0  0  0  0
 13 12  2  0  0  0  0
 16 14  1  0  0  0  0
 16 15  2  0  0  0  0
 17 16  1  0  0  0  0
 18 35  1  6  0  0  0
 18 17  1  0  0  0  0
 18 19  1  0  0  0  0
 20 19  1  6  0  0  0
 20 22  1  0  0  0  0
 21 32  1  6  0  0  0
 21 20  1  0  0  0  0
 21 22  1  0  0  0  0
 22 23  1  0  0  0  0
 23 24  2  0  0  0  0
 23 29  1  0  0  0  0
 26 30  1  0  0  0  0
 27 26  2  0  0  0  0
 28 29  2  0  0  0  0
 28 27  1  0  0  0  0
 29 31  1  0  0  0  0
 30 25  1  0  0  0  0
 31 30  2  0  0  0  0
 34 33  1  0  0  0  0
 34 32  1  0  0  0  0
 36 35  1  0  0  0  0
 37 36  1  0  0  0  0
 38 37  1  0  0  0  0
 39 38  1  0  0  0  0
 40 39  2  0  0  0  0
 42 43  1  6  0  0  0
 42 41  1  0  0  0  0
 44 42  1  0  0  0  0
 45 44  1  0  0  0  0
 46 45  1  0  0  0  0
 47 51  1  0  0  0  0
 48 52  1  6  0  0  0
 48 47  1  0  0  0  0
 49 53  1  0  0  0  0
 50 48  1  0  0  0  0
 50 54  2  0  0  0  0
 53 51  1  0  0  0  0
 53 46  1  1  0  0  0
 54 49  1  0  0  0  0
M  END
>  <MODEL>
7

>  <REMARK>
 VINA RESULT:      -3.5      3.419      7.981
  Name = 
  21 active torsions:
  status: ('A' for Active; 'I' for Inactive)
    1  A    between atoms: C_2  and  N_42
    2  A    between atoms: C_2  and  C_44
    3  A    between atoms: C_3  and  C_8
    4  A    between atoms: C_6  and  O_34
    5  A    between atoms: C_6  and  C_52
    6  A    between atoms: C_7  and  C_28
    7  A    between atoms: C_7  and  N_30
    8  A    between atoms: C_10  and  C_27
    9  A    between atoms: C_10  and  C_52
   10  A    between atoms: C_11  and  C_38
   11  A    between atoms: C_11  and  C_46
   12  A    between atoms: C_13  and  C_28
   13  A    between atoms: C_13  and  C_46
   14  A    between atoms: C_14  and  C_45
   15  A    between atoms: O_17  and  C_35
   16  A    between atoms: O_17  and  C_46
   17  A    between atoms: C_27  and  C_33
   18  A    between atoms: C_32  and  O_36
   19  A    between atoms: O_34  and  C_50
   20  A    between atoms: O_36  and  C_38
   21  A    between atoms: C_37  and  C_45
                            x       y       z     vdW  Elec       q    Type
                         _______ _______ _______ _____ _____    ______ ____

>  <TORSDO>
F 21

$$$$
=
 OpenBabel11052410103D

 54 60  0  0  1  0  0  0  0  0999 V2000
  161.2680  204.8720  145.3110 C   0  0  2  0  0  0  0  0  0  0  0  0
  161.5380  205.8310  146.4440 C   0  0  1  0  0  0  0  0  0  0  0  0
  162.3460  206.9460  146.3840 O   0  0  0  0  0  0  0  0  0  0  0  0
  162.0690  205.0260  144.1760 O   0  0  0  0  0  1  0  0  0  0  0  0
  160.3120  206.0160  145.5530 C   0  0  0  0  0  2  0  0  0  0  0  0
  161.7850  204.9850  148.7200 O   0  0  0  0  0  1  0  0  0  0  0  0
  162.2050  207.1100  147.7940 C   0  0  2  0  0  0  0  0  0  0  0  0
  160.7930  207.2710  148.4340 C   0  0  1  0  0  0  0  0  0  0  0  0
  161.5760  208.4770  147.9450 C   0  0  1  0  0  3  0  0  0  0  0  0
  161.2020  205.9300  147.8740 C   0  0  1  0  0  0  0  0  0  0  0  0
  160.7340  203.5130  145.6300 C   0  0  0  0  0  3  0  0  0  0  0  0
  161.6690  202.2090  147.6070 O   0  0  0  0  0  0  0  0  0  0  0  0
  161.2090  202.8380  146.6420 C   0  0  0  0  0  0  0  0  0  0  0  0
  160.8400  207.1930  149.8610 O   0  0  0  0  0  0  0  0  0  0  0  0
  163.0700  207.1140  150.3940 O   0  0  0  0  0  0  0  0  0  0  0  0
  161.9390  207.6310  150.6060 C   0  0  0  0  0  0  0  0  0  0  0  0
  161.8000  208.6870  151.6640 C   0  0  0  0  0  2  0  0  0  0  0  0
  160.4780  208.5500  152.4280 C   0  0  2  0  0  3  0  0  0  0  0  0
  159.8330  209.7960  152.4610 O   0  0  0  0  0  0  0  0  0  0  0  0
  160.8250  210.7200  152.8320 C   0  0  1  0  0  3  0  0  0  0  0  0
  160.4540  212.0530  152.6380 C   0  0  2  0  0  3  0  0  0  0  0  0
  160.3550  211.4890  154.0260 N   0  0  0  0  0  0  0  0  0  0  0  0
  160.0410  211.5910  155.4170 C   0  0  0  0  0  0  0  0  0  0  0  0
  161.2630  211.4560  156.5150 S   0  0  0  0  0  0  0  0  0  0  0  0
  155.1990  210.3260  155.2880 C   0  0  0  0  0  1  0  0  0  0  0  0
  155.9740  212.2850  156.6260 C   0  0  0  0  0  3  0  0  0  0  0  0
  156.9910  213.1250  157.0890 C   0  0  0  0  0  3  0  0  0  0  0  0
  158.3200  212.8970  156.7030 C   0  0  0  0  0  3  0  0  0  0  0  0
  158.6440  211.8320  155.8460 C   0  0  0  0  0  0  0  0  0  0  0  0
  156.2830  211.2200  155.7780 C   0  0  0  0  0  0  0  0  0  0  0  0
  157.6090  210.9980  155.3880 C   0  0  0  0  0  3  0  0  0  0  0  0
  159.0390  212.2920  152.0950 C   0  0  0  0  0  2  0  0  0  0  0  0
  157.8970  213.3270  150.1180 C   0  0  0  0  0  1  0  0  0  0  0  0
  159.0220  213.4750  151.1290 C   0  0  0  0  0  2  0  0  0  0  0  0
  160.7020  208.0330  153.8580 C   0  0  0  0  0  2  0  0  0  0  0  0
  161.7690  206.9420  153.9090 C   0  0  0  0  0  2  0  0  0  0  0  0
  161.1680  205.5960  153.5240 C   0  0  0  0  0  2  0  0  0  0  0  0
  161.9990  204.9550  152.5090 N   0  0  0  0  0  2  0  0  0  0  0  0
  161.5760  203.8030  151.7710 C   0  0  0  0  0  3  0  0  0  0  0  0
  160.4140  203.2690  151.9740 N   0  0  0  0  0  2  0  0  0  0  0  0
  162.2810  209.2660  149.0450 C   0  0  0  0  0  2  0  0  0  0  0  0
  162.3710  210.7460  148.6910 C   0  0  1  0  0  3  0  0  0  0  0  0
  163.4760  210.9660  147.8860 F   0  0  0  0  0  0  0  0  0  0  0  0
  161.1040  211.2500  148.0000 C   0  0  0  0  0  2  0  0  0  0  0  0
  161.1080  212.7620  147.8070 C   0  0  0  0  0  2  0  0  0  0  0  0
  159.9540  213.1670  147.1290 O   0  0  0  0  0  0  0  0  0  0  0  0
  162.2530  213.5030  144.2010 C   0  0  0  0  0  2  0  0  0  0  0  0
  161.4560  212.5830  143.2750 C   0  0  1  0  0  3  0  0  0  0  0  0
  159.1310  213.5630  144.9520 C   0  0  0  0  0  2  0  0  0  0  0  0
  160.2500  213.2460  142.7950 N   0  0  0  0  0  0  0  0  0  0  0  0
  161.5260  213.8980  145.4910 C   0  0  0  0  0  2  0  0  0  0  0  0
  162.3190  212.1990  142.0890 C   0  0  0  0  0  1  0  0  0  0  0  0
  160.2790  213.0640  145.7760 C   0  0  1  0  0  3  0  0  0  0  0  0
  159.1390  213.6370  143.6170 C   0  0  0  0  0  3  0  0  0  0  0  0
  1  4  1  6  0  0  0
  1  5  1  0  0  0  0
  1 11  1  0  0  0  0
  1  2  1  0  0  0  0
  2  5  1  6  0  0  0
  2 10  1  0  0  0  0
  3  2  1  0  0  0  0
  7  3  1  6  0  0  0
  7 10  1  0  0  0  0
  7  9  1  0  0  0  0
  7  8  1  0  0  0  0
  8 14  1  1  0  0  0
  9  8  1  0  0  0  0
  9 41  1  1  0  0  0
 10  8  1  0  0  0  0
 10  6  1  1  0  0  0
 11 13  2  0  0  0  0
 13 12  2  0  0  0  0
 14 16  1  0  0  0  0
 15 16  2  0  0  0  0
 16 17  1  0  0  0  0
 18 17  1  1  0  0  0
 18 19  1  0  0  0  0
 18 35  1  0  0  0  0
 20 19  1  6  0  0  0
 20 22  1  0  0  0  0
 21 32  1  6  0  0  0
 21 20  1  0  0  0  0
 21 22  1  0  0  0  0
 22 23  1  0  0  0  0
 23 29  1  0  0  0  0
 23 24  2  0  0  0  0
 25 30  1  0  0  0  0
 26 27  1  0  0  0  0
 28 27  2  0  0  0  0
 29 28  1  0  0  0  0
 30 26  2  0  0  0  0
 31 30  1  0  0  0  0
 31 29  2  0  0  0  0
 33 34  1  0  0  0  0
 34 32  1  0  0  0  0
 35 36  1  0  0  0  0
 37 36  1  0  0  0  0
 38 37  1  0  0  0  0
 39 40  2  0  0  0  0
 39 38  1  0  0  0  0
 42 43  1  6  0  0  0
 42 41  1  0  0  0  0
 44 42  1  0  0  0  0
 45 44  1  0  0  0  0
 46 45  1  0  0  0  0
 47 51  1  0  0  0  0
 48 52  1  6  0  0  0
 48 47  1  0  0  0  0
 49 53  1  0  0  0  0
 50 48  1  0  0  0  0
 50 54  2  0  0  0  0
 51 53  1  0  0  0  0
 53 46  1  1  0  0  0
 54 49  1  0  0  0  0
M  END
>  <MODEL>
8

>  <REMARK>
 VINA RESULT:      -3.5      3.552     10.224
  Name = 
  21 active torsions:
  status: ('A' for Active; 'I' for Inactive)
    1  A    between atoms: C_2  and  N_42
    2  A    between atoms: C_2  and  C_44
    3  A    between atoms: C_3  and  C_8
    4  A    between atoms: C_6  and  O_34
    5  A    between atoms: C_6  and  C_52
    6  A    between atoms: C_7  and  C_28
    7  A    between atoms: C_7  and  N_30
    8  A    between atoms: C_10  and  C_27
    9  A    between atoms: C_10  and  C_52
   10  A    between atoms: C_11  and  C_38
   11  A    between atoms: C_11  and  C_46
   12  A    between atoms: C_13  and  C_28
   13  A    between atoms: C_13  and  C_46
   14  A    between atoms: C_14  and  C_45
   15  A    between atoms: O_17  and  C_35
   16  A    between atoms: O_17  and  C_46
   17  A    between atoms: C_27  and  C_33
   18  A    between atoms: C_32  and  O_36
   19  A    between atoms: O_34  and  C_50
   20  A    between atoms: O_36  and  C_38
   21  A    between atoms: C_37  and  C_45
                            x       y       z     vdW  Elec       q    Type
                         _______ _______ _______ _____ _____    ______ ____

>  <TORSDO>
F 21

$$$$
=
 OpenBabel11052410103D

 54 61  0  0  1  0  0  0  0  0999 V2000
  160.9830  202.7600  149.5690 C   0  0  2  0  0  0  0  0  0  0  0  0
  160.9570  204.1340  150.1910 C   0  0  1  0  0  0  0  0  0  0  0  0
  160.1340  204.5410  151.2190 O   0  0  0  0  0  0  0  0  0  0  0  0
  159.9440  201.9020  149.9400 O   0  0  0  0  0  1  0  0  0  0  0  0
  161.9460  203.0830  150.6870 C   0  0  0  0  0  2  0  0  0  0  0  0
  161.2460  206.1090  148.7860 O   0  0  0  0  0  0  0  0  0  0  0  0
  160.5860  205.8820  151.0360 C   0  0  2  0  0  0  0  0  0  0  0  0
  162.1020  206.2260  151.1410 C   0  0  1  0  0  0  0  0  0  0  0  0
  161.2050  206.2470  152.3660 C   0  0  1  0  0  3  0  0  0  0  0  0
  161.6040  205.4350  149.9550 C   0  0  1  0  0  0  0  0  0  0  0  0
  161.6020  202.5920  148.2200 C   0  0  0  0  0  3  0  0  0  0  0  0
  160.2510  201.5730  146.3170 O   0  0  0  0  0  0  0  0  0  0  0  0
  160.9150  202.0690  147.2390 C   0  0  0  0  0  0  0  0  0  0  0  0
  162.3800  207.5590  150.7050 O   0  0  0  0  0  0  0  0  0  0  0  0
  160.6390  207.6710  149.2150 O   0  0  0  0  0  0  0  0  0  0  0  0
  161.7410  208.1450  149.6080 C   0  0  2  0  0  3  0  0  0  0  0  0
  162.3430  209.3090  148.8770 C   0  0  0  0  0  2  0  0  0  0  0  0
  161.4560  210.5560  148.9750 C   0  0  2  0  0  3  0  0  0  0  0  0
  161.5750  211.3000  147.7910 O   0  0  0  0  0  0  0  0  0  0  0  0
  161.0750  212.5770  148.1000 C   0  0  1  0  0  3  0  0  0  0  0  0
  161.5360  213.5830  147.2470 C   0  0  2  0  0  3  0  0  0  0  0  0
  160.1630  213.0240  147.0010 N   0  0  0  0  0  0  0  0  0  0  0  0
  158.9350  212.9530  146.2740 C   0  0  0  0  0  0  0  0  0  0  0  0
  157.5440  212.6400  147.1020 S   0  0  0  0  0  0  0  0  0  0  0  0
  160.4280  211.6160  141.6860 C   0  0  0  0  0  1  0  0  0  0  0  0
  158.9460  213.5950  142.0230 C   0  0  0  0  0  3  0  0  0  0  0  0
  158.2210  214.4530  142.8550 C   0  0  0  0  0  3  0  0  0  0  0  0
  158.2090  214.2430  144.2410 C   0  0  0  0  0  3  0  0  0  0  0  0
  158.9260  213.1770  144.8090 C   0  0  0  0  0  0  0  0  0  0  0  0
  159.6590  212.5290  142.5740 C   0  0  0  0  0  0  0  0  0  0  0  0
  159.6510  212.3230  143.9590 C   0  0  0  0  0  3  0  0  0  0  0  0
  162.4660  213.1380  146.1110 C   0  0  0  0  0  2  0  0  0  0  0  0
  162.9290  213.9720  143.7920 C   0  0  0  0  0  1  0  0  0  0  0  0
  162.9030  214.3350  145.2680 C   0  0  0  0  0  2  0  0  0  0  0  0
  161.8340  211.4250  150.1850 C   0  0  0  0  0  2  0  0  0  0  0  0
  161.2820  210.8570  151.4900 C   0  0  0  0  0  2  0  0  0  0  0  0
  160.0610  211.6510  151.9380 C   0  0  0  0  0  2  0  0  0  0  0  0
  160.1240  213.0040  151.3940 N   0  0  0  0  0  2  0  0  0  0  0  0
  158.9680  213.7090  150.9280 C   0  0  0  0  0  3  0  0  0  0  0  0
  157.7920  213.1690  150.9710 N   0  0  0  0  0  2  0  0  0  0  0  0
  160.7510  207.6390  152.7980 C   0  0  0  0  0  2  0  0  0  0  0  0
  160.8990  207.8240  154.3030 C   0  0  1  0  0  3  0  0  0  0  0  0
  161.9450  207.0440  154.7690 F   0  0  0  0  0  0  0  0  0  0  0  0
  161.1230  209.2880  154.6840 C   0  0  0  0  0  2  0  0  0  0  0  0
  160.0620  209.8090  155.6450 C   0  0  0  0  0  2  0  0  0  0  0  0
  160.4430  211.0510  156.1610 O   0  0  0  0  0  0  0  0  0  0  0  0
  156.7640  211.5970  155.7890 C   0  0  0  0  0  2  0  0  0  0  0  0
  156.7720  213.0410  156.2950 C   0  0  1  0  0  3  0  0  0  0  0  0
  159.5800  213.0060  155.1570 C   0  0  0  0  0  3  0  0  0  0  0  0
  157.3190  213.9420  155.2870 N   0  0  0  0  0  2  0  0  0  0  0  0
  158.1520  211.0110  155.5030 C   0  0  0  0  0  2  0  0  0  0  0  0
  155.3540  213.4630  156.6230 C   0  0  0  0  0  1  0  0  0  0  0  0
  159.3000  211.8460  156.0630 C   0  0  1  0  0  3  0  0  0  0  0  0
  158.6770  213.9340  154.8210 C   0  0  0  0  0  3  0  0  0  0  0  0
  1  4  1  1  0  0  0
  1  2  1  0  0  0  0
  1  5  1  0  0  0  0
  2  5  1  1  0  0  0
  2  3  1  0  0  0  0
  6 15  1  0  0  0  0
  7  8  1  0  0  0  0
  7  3  1  1  0  0  0
  7  9  1  0  0  0  0
  8 14  1  6  0  0  0
  8  9  1  0  0  0  0
  9 41  1  6  0  0  0
 10  6  1  6  0  0  0
 10  2  1  0  0  0  0
 10  7  1  0  0  0  0
 10  8  1  0  0  0  0
 11  1  1  0  0  0  0
 12 13  2  0  0  0  0
 13 11  2  0  0  0  0
 15 16  1  0  0  0  0
 16 17  1  6  0  0  0
 16 14  1  0  0  0  0
 18 17  1  6  0  0  0
 18 35  1  0  0  0  0
 19 18  1  0  0  0  0
 20 19  1  6  0  0  0
 21 32  1  6  0  0  0
 21 20  1  0  0  0  0
 22 21  1  0  0  0  0
 22 20  1  0  0  0  0
 23 22  1  0  0  0  0
 23 24  2  0  0  0  0
 25 30  1  0  0  0  0
 26 30  2  0  0  0  0
 26 27  1  0  0  0  0
 27 28  2  0  0  0  0
 28 29  1  0  0  0  0
 29 23  1  0  0  0  0
 30 31  1  0  0  0  0
 31 29  2  0  0  0  0
 33 34  1  0  0  0  0
 34 32  1  0  0  0  0
 35 36  1  0  0  0  0
 36 37  1  0  0  0  0
 38 37  1  0  0  0  0
 39 40  2  0  0  0  0
 39 38  1  0  0  0  0
 41 42  1  0  0  0  0
 42 44  1  0  0  0  0
 42 43  1  6  0  0  0
 44 45  1  0  0  0  0
 45 46  1  0  0  0  0
 47 48  1  0  0  0  0
 48 52  1  6  0  0  0
 49 53  1  0  0  0  0
 50 48  1  0  0  0  0
 51 47  1  0  0  0  0
 51 53  1  0  0  0  0
 53 46  1  6  0  0  0
 54 49  2  0  0  0  0
 54 50  1  0  0  0  0
M  END
>  <MODEL>
9

>  <REMARK>
 VINA RESULT:      -3.3      3.707      8.422
  Name = 
  21 active torsions:
  status: ('A' for Active; 'I' for Inactive)
    1  A    between atoms: C_2  and  N_42
    2  A    between atoms: C_2  and  C_44
    3  A    between atoms: C_3  and  C_8
    4  A    between atoms: C_6  and  O_34
    5  A    between atoms: C_6  and  C_52
    6  A    between atoms: C_7  and  C_28
    7  A    between atoms: C_7  and  N_30
    8  A    between atoms: C_10  and  C_27
    9  A    between atoms: C_10  and  C_52
   10  A    between atoms: C_11  and  C_38
   11  A    between atoms: C_11  and  C_46
   12  A    between atoms: C_13  and  C_28
   13  A    between atoms: C_13  and  C_46
   14  A    between atoms: C_14  and  C_45
   15  A    between atoms: O_17  and  C_35
   16  A    between atoms: O_17  and  C_46
   17  A    between atoms: C_27  and  C_33
   18  A    between atoms: C_32  and  O_36
   19  A    between atoms: O_34  and  C_50
   20  A    between atoms: O_36  and  C_38
   21  A    between atoms: C_37  and  C_45
                            x       y       z     vdW  Elec       q    Type
                         _______ _______ _______ _____ _____    ______ ____

>  <TORSDO>
F 21

$$$$
