=
 OpenBabel11052410163D

 25 29  0  0  1  0  0  0  0  0999 V2000
  160.8200  204.9790  150.1230 C   0  0  0  0  0  0  0  0  0  0  0  0
  160.8480  204.7140  147.5100 C   0  0  1  0  0  3  0  0  0  0  0  0
  160.3280  203.6870  150.4200 C   0  0  0  0  0  0  0  0  0  0  0  0
  161.6000  207.1600  150.9230 C   0  0  0  0  0  3  0  0  0  0  0  0
  161.6410  207.6400  149.6120 C   0  0  0  0  0  3  0  0  0  0  0  0
  161.3590  202.4370  147.0650 C   0  0  0  0  0  2  0  0  0  0  0  0
  159.9110  205.9020  145.6270 O   0  0  0  0  0  1  0  0  0  0  0  0
  161.3450  207.1250  147.1370 C   0  0  0  0  0  2  0  0  0  0  0  0
  161.0410  205.7980  146.4380 C   0  0  1  0  0  0  0  0  0  0  0  0
  162.6510  205.8850  144.6890 O   0  0  0  0  0  0  0  0  0  0  0  0
  161.3180  206.7760  148.5720 C   0  0  0  0  0  0  0  0  0  0  0  0
  161.9470  203.7300  147.3900 N   0  0  1  0  0  0  0  0  0  0  0  0
  162.2030  205.3230  145.6770 C   0  0  0  0  0  0  0  0  0  0  0  0
  160.1290  201.5250  149.1450 C   0  0  0  0  0  2  0  0  0  0  0  0
  160.3320  203.2250  151.7390 C   0  0  0  0  0  3  0  0  0  0  0  0
  162.7790  204.0930  146.2420 C   0  0  0  0  0  2  0  0  0  0  0  0
  161.3430  201.5650  148.2800 C   0  0  0  0  0  0  0  0  0  0  0  0
  162.3220  200.8970  148.5680 O   0  0  0  0  0  0  0  0  0  0  0  0
  161.2050  205.8350  151.1970 C   0  0  0  0  0  0  0  0  0  0  0  0
  160.7720  204.0440  152.7770 C   0  0  0  0  0  3  0  0  0  0  0  0
  159.7040  202.8870  149.4150 N   0  0  0  0  0  2  0  0  0  0  0  0
  160.9610  205.4670  148.8010 C   0  0  0  0  0  0  0  0  0  0  0  0
  161.1900  205.3500  152.5210 C   0  0  0  0  0  0  0  0  0  0  0  0
  161.6050  206.1650  153.6360 C   0  0  0  0  0  0  0  0  0  0  0  0
  161.9370  206.8200  154.5320 N   0  0  0  0  0  0  0  0  0  0  0  0
  1  3  2  0  0  0  0
  1 19  1  0  0  0  0
  2 22  1  1  0  0  0
  3 15  1  0  0  0  0
  4 19  1  0  0  0  0
  5  4  2  0  0  0  0
  6 12  1  0  0  0  0
  6 17  1  0  0  0  0
  8 11  1  0  0  0  0
  9  7  1  6  0  0  0
  9  8  1  0  0  0  0
  9  2  1  0  0  0  0
 10 13  2  0  0  0  0
 11 22  2  0  0  0  0
 11  5  1  0  0  0  0
 12 16  1  6  0  0  0
 12  2  1  0  0  0  0
 13 16  1  0  0  0  0
 13  9  1  0  0  0  0
 14 21  1  0  0  0  0
 15 20  2  0  0  0  0
 17 18  2  0  0  0  0
 17 14  1  0  0  0  0
 19 23  2  0  0  0  0
 21  3  1  0  0  0  0
 22  1  1  0  0  0  0
 23 20  1  0  0  0  0
 23 24  1  0  0  0  0
 24 25  3  0  0  0  0
M  END
>  <MODEL>
1

>  <REMARK>
 VINA RESULT:      -7.3      0.000      0.000
  Name = 
  1 active torsions:
  status: ('A' for Active; 'I' for Inactive)
    1  A    between atoms: C_4  and  C_25
                            x       y       z     vdW  Elec       q    Type
                         _______ _______ _______ _____ _____    ______ ____

>  <TORSDO>
F 1

$$$$
=
 OpenBabel11052410163D

 25 29  0  0  1  0  0  0  0  0999 V2000
  161.4170  206.1830  151.5210 C   0  0  0  0  0  0  0  0  0  0  0  0
  161.6970  208.6880  152.2610 C   0  0  1  0  0  3  0  0  0  0  0  0
  161.5090  205.6130  152.8120 C   0  0  0  0  0  0  0  0  0  0  0  0
  161.1210  205.8720  149.1080 C   0  0  0  0  0  3  0  0  0  0  0  0
  161.3950  207.2240  148.8880 C   0  0  0  0  0  3  0  0  0  0  0  0
  160.6840  208.8790  154.4010 C   0  0  0  0  0  2  0  0  0  0  0  0
  163.1710  210.5170  151.6990 O   0  0  0  0  0  1  0  0  0  0  0  0
  161.9000  209.4980  149.9160 C   0  0  0  0  0  2  0  0  0  0  0  0
  161.9480  209.9240  151.3850 C   0  0  1  0  0  0  0  0  0  0  0  0
  160.6840  211.9360  151.2610 O   0  0  0  0  0  0  0  0  0  0  0  0
  161.6290  208.0480  149.9840 C   0  0  0  0  0  0  0  0  0  0  0  0
  160.4100  208.8630  152.9700 N   0  0  1  0  0  0  0  0  0  0  0  0
  160.8240  210.8110  151.7150 C   0  0  0  0  0  0  0  0  0  0  0  0
  161.3230  206.4950  155.1620 C   0  0  0  0  0  2  0  0  0  0  0  0
  161.1960  204.2640  153.0020 C   0  0  0  0  0  3  0  0  0  0  0  0
  159.8750  210.1870  152.6500 C   0  0  0  0  0  2  0  0  0  0  0  0
  160.2980  207.5680  155.0080 C   0  0  0  0  0  0  0  0  0  0  0  0
  159.1490  207.3720  155.3660 O   0  0  0  0  0  0  0  0  0  0  0  0
  161.1160  205.3380  150.4120 C   0  0  0  0  0  0  0  0  0  0  0  0
  160.8380  203.4580  151.9230 C   0  0  0  0  0  3  0  0  0  0  0  0
  162.0430  206.3540  153.9080 N   0  0  0  0  0  2  0  0  0  0  0  0
  161.5980  207.5650  151.2730 C   0  0  0  0  0  0  0  0  0  0  0  0
  160.8130  203.9770  150.6290 C   0  0  0  0  0  0  0  0  0  0  0  0
  160.4680  203.0910  149.5440 C   0  0  0  0  0  0  0  0  0  0  0  0
  160.1910  202.3800  148.6740 N   0  0  0  0  0  0  0  0  0  0  0  0
  1  3  2  0  0  0  0
  2 22  1  6  0  0  0
  2 12  1  0  0  0  0
  3 15  1  0  0  0  0
  3 21  1  0  0  0  0
  4 19  1  0  0  0  0
  5  4  2  0  0  0  0
  5 11  1  0  0  0  0
  6 17  1  0  0  0  0
  8 11  1  0  0  0  0
  8  9  1  0  0  0  0
  9  7  1  1  0  0  0
  9 13  1  0  0  0  0
  9  2  1  0  0  0  0
 10 13  2  0  0  0  0
 11 22  2  0  0  0  0
 12 16  1  6  0  0  0
 12  6  1  0  0  0  0
 13 16  1  0  0  0  0
 17 14  1  0  0  0  0
 17 18  2  0  0  0  0
 19 23  2  0  0  0  0
 19  1  1  0  0  0  0
 20 15  2  0  0  0  0
 21 14  1  0  0  0  0
 22  1  1  0  0  0  0
 23 20  1  0  0  0  0
 24 23  1  0  0  0  0
 25 24  3  0  0  0  0
M  END
>  <MODEL>
2

>  <REMARK>
 VINA RESULT:      -7.1      3.534      6.228
  Name = 
  1 active torsions:
  status: ('A' for Active; 'I' for Inactive)
    1  A    between atoms: C_4  and  C_25
                            x       y       z     vdW  Elec       q    Type
                         _______ _______ _______ _____ _____    ______ ____

>  <TORSDO>
F 1

$$$$
=
 OpenBabel11052410163D

 25 29  0  0  1  0  0  0  0  0999 V2000
  161.6570  207.9480  151.4940 C   0  0  0  0  0  0  0  0  0  0  0  0
  161.8160  205.3980  150.8820 C   0  0  1  0  0  3  0  0  0  0  0  0
  162.1730  208.4480  150.2760 C   0  0  0  0  0  0  0  0  0  0  0  0
  160.7470  208.3940  153.7250 C   0  0  0  0  0  3  0  0  0  0  0  0
  160.7790  207.0300  154.0240 C   0  0  0  0  0  3  0  0  0  0  0  0
  161.4190  205.2360  148.5460 C   0  0  0  0  0  2  0  0  0  0  0  0
  162.8380  203.4340  151.8490 O   0  0  0  0  0  1  0  0  0  0  0  0
  161.2610  204.6710  153.1980 C   0  0  0  0  0  2  0  0  0  0  0  0
  161.6590  204.1790  151.8050 C   0  0  1  0  0  0  0  0  0  0  0  0
  160.1700  202.3370  151.5860 O   0  0  0  0  0  0  0  0  0  0  0  0
  161.2020  206.1390  153.0440 C   0  0  0  0  0  0  0  0  0  0  0  0
  160.7640  205.3450  149.8430 N   0  0  1  0  0  0  0  0  0  0  0  0
  160.5690  203.4180  151.1810 C   0  0  0  0  0  0  0  0  0  0  0  0
  162.5360  207.4930  147.9750 C   0  0  0  0  0  2  0  0  0  0  0  0
  162.0960  209.8150  149.9940 C   0  0  0  0  0  3  0  0  0  0  0  0
  160.0010  204.1080  150.0120 C   0  0  0  0  0  2  0  0  0  0  0  0
  161.3830  206.5560  147.8450 C   0  0  0  0  0  0  0  0  0  0  0  0
  160.4110  206.8700  147.1780 O   0  0  0  0  0  0  0  0  0  0  0  0
  161.1690  208.8690  152.4670 C   0  0  0  0  0  0  0  0  0  0  0  0
  161.5560  210.7020  150.9230 C   0  0  0  0  0  3  0  0  0  0  0  0
  162.8920  207.6020  149.3780 N   0  0  0  0  0  2  0  0  0  0  0  0
  161.5890  206.5660  151.7940 C   0  0  0  0  0  0  0  0  0  0  0  0
  161.1100  210.2450  152.1640 C   0  0  0  0  0  0  0  0  0  0  0  0
  160.5920  211.2110  153.1010 C   0  0  0  0  0  0  0  0  0  0  0  0
  160.1760  211.9870  153.8530 N   0  0  0  0  0  0  0  0  0  0  0  0
  1 22  2  0  0  0  0
  1 19  1  0  0  0  0
  2 22  1  1  0  0  0
  2  9  1  0  0  0  0
  3  1  1  0  0  0  0
  4  5  1  0  0  0  0
  9  7  1  1  0  0  0
  9  8  1  0  0  0  0
 11  8  1  0  0  0  0
 11  5  2  0  0  0  0
 12  6  1  6  0  0  0
 12 16  1  0  0  0  0
 12  2  1  0  0  0  0
 13 10  2  0  0  0  0
 13  9  1  0  0  0  0
 14 21  1  0  0  0  0
 15  3  2  0  0  0  0
 15 20  1  0  0  0  0
 16 13  1  0  0  0  0
 17 14  1  0  0  0  0
 17  6  1  0  0  0  0
 18 17  2  0  0  0  0
 19  4  2  0  0  0  0
 20 23  2  0  0  0  0
 21  3  1  0  0  0  0
 22 11  1  0  0  0  0
 23 19  1  0  0  0  0
 23 24  1  0  0  0  0
 24 25  3  0  0  0  0
M  END
>  <MODEL>
3

>  <REMARK>
 VINA RESULT:      -6.3      2.591      5.352
  Name = 
  1 active torsions:
  status: ('A' for Active; 'I' for Inactive)
    1  A    between atoms: C_4  and  C_25
                            x       y       z     vdW  Elec       q    Type
                         _______ _______ _______ _____ _____    ______ ____

>  <TORSDO>
F 1

$$$$
=
 OpenBabel11052410163D

 25 29  0  0  1  0  0  0  0  0999 V2000
  160.9530  205.8970  150.9790 C   0  0  0  0  0  0  0  0  0  0  0  0
  160.9070  208.4750  151.4810 C   0  0  1  0  0  3  0  0  0  0  0  0
  160.8310  205.9940  149.5740 C   0  0  0  0  0  0  0  0  0  0  0  0
  161.1820  204.4870  152.9710 C   0  0  0  0  0  3  0  0  0  0  0  0
  161.0260  205.6040  153.7950 C   0  0  0  0  0  3  0  0  0  0  0  0
  161.9660  209.5410  149.6410 C   0  0  0  0  0  2  0  0  0  0  0  0
  159.5920  209.9590  152.8600 O   0  0  0  0  0  1  0  0  0  0  0  0
  160.7400  208.1290  153.9400 C   0  0  0  0  0  2  0  0  0  0  0  0
  160.7530  209.1860  152.8340 C   0  0  1  0  0  0  0  0  0  0  0  0
  162.1870  210.7980  153.8340 O   0  0  0  0  0  0  0  0  0  0  0  0
  160.8830  206.8560  153.2060 C   0  0  0  0  0  0  0  0  0  0  0  0
  162.2150  208.8460  150.8970 N   0  0  1  0  0  0  0  0  0  0  0  0
  161.9560  210.0240  152.9180 C   0  0  0  0  0  0  0  0  0  0  0  0
  161.1310  207.8390  147.8880 C   0  0  0  0  0  2  0  0  0  0  0  0
  161.0260  204.8630  148.7770 C   0  0  0  0  0  3  0  0  0  0  0  0
  162.8610  209.8220  151.7750 C   0  0  0  0  0  2  0  0  0  0  0  0
  162.2440  208.6290  148.4900 C   0  0  0  0  0  0  0  0  0  0  0  0
  163.3770  208.5220  148.0510 O   0  0  0  0  0  0  0  0  0  0  0  0
  161.1600  204.6140  151.5670 C   0  0  0  0  0  0  0  0  0  0  0  0
  161.2950  203.6240  149.3550 C   0  0  0  0  0  3  0  0  0  0  0  0
  160.3820  207.2000  148.9550 N   0  0  0  0  0  2  0  0  0  0  0  0
  160.8910  207.0200  151.8400 C   0  0  0  0  0  0  0  0  0  0  0  0
  161.3450  203.4850  150.7420 C   0  0  0  0  0  0  0  0  0  0  0  0
  161.5940  202.1740  151.2880 C   0  0  0  0  0  0  0  0  0  0  0  0
  161.7940  201.1200  151.7260 N   0  0  0  0  0  0  0  0  0  0  0  0
  1 19  2  0  0  0  0
  1 22  1  0  0  0  0
  2 22  1  1  0  0  0
  2  9  1  0  0  0  0
  3  1  1  0  0  0  0
  4  5  2  0  0  0  0
  9  7  1  1  0  0  0
  9 13  1  0  0  0  0
  9  8  1  0  0  0  0
 11  5  1  0  0  0  0
 11  8  1  0  0  0  0
 12  6  1  6  0  0  0
 12  2  1  0  0  0  0
 12 16  1  0  0  0  0
 13 10  2  0  0  0  0
 14 17  1  0  0  0  0
 14 21  1  0  0  0  0
 15 20  1  0  0  0  0
 15  3  2  0  0  0  0
 16 13  1  0  0  0  0
 17  6  1  0  0  0  0
 18 17  2  0  0  0  0
 19  4  1  0  0  0  0
 20 23  2  0  0  0  0
 21  3  1  0  0  0  0
 22 11  2  0  0  0  0
 23 24  1  0  0  0  0
 23 19  1  0  0  0  0
 24 25  3  0  0  0  0
M  END
>  <MODEL>
4

>  <REMARK>
 VINA RESULT:      -5.7      3.399      5.939
  Name = 
  1 active torsions:
  status: ('A' for Active; 'I' for Inactive)
    1  A    between atoms: C_4  and  C_25
                            x       y       z     vdW  Elec       q    Type
                         _______ _______ _______ _____ _____    ______ ____

>  <TORSDO>
F 1

$$$$
=
 OpenBabel11052410163D

 25 29  0  0  1  0  0  0  0  0999 V2000
  159.8170  211.2220  153.8510 C   0  0  0  0  0  0  0  0  0  0  0  0
  161.1170  209.2280  154.9620 C   0  0  1  0  0  3  0  0  0  0  0  0
  160.5380  211.2390  152.6350 C   0  0  0  0  0  0  0  0  0  0  0  0
  158.0270  212.1560  155.2410 C   0  0  0  0  0  3  0  0  0  0  0  0
  158.4380  211.3700  156.3200 C   0  0  0  0  0  3  0  0  0  0  0  0
  161.7340  207.7570  153.2020 C   0  0  0  0  0  2  0  0  0  0  0  0
  162.3310  208.8690  157.0200 O   0  0  0  0  0  1  0  0  0  0  0  0
  160.0250  209.5720  157.1720 C   0  0  0  0  0  2  0  0  0  0  0  0
  161.0760  208.7510  156.4220 C   0  0  1  0  0  0  0  0  0  0  0  0
  160.5690  206.5840  157.2600 O   0  0  0  0  0  0  0  0  0  0  0  0
  159.4970  210.4880  156.1410 C   0  0  0  0  0  0  0  0  0  0  0  0
  160.6420  208.1300  154.0920 N   0  0  1  0  0  0  0  0  0  0  0  0
  160.6680  207.3450  156.3100 C   0  0  0  0  0  0  0  0  0  0  0  0
  162.0760  209.6310  151.4570 C   0  0  0  0  0  2  0  0  0  0  0  0
  160.0810  212.0120  151.5640 C   0  0  0  0  0  3  0  0  0  0  0  0
  160.3810  206.9530  154.9210 C   0  0  0  0  0  2  0  0  0  0  0  0
  161.4890  208.3120  151.8350 C   0  0  0  0  0  0  0  0  0  0  0  0
  160.8060  207.6950  151.0350 O   0  0  0  0  0  0  0  0  0  0  0  0
  158.6940  212.0880  154.0000 C   0  0  0  0  0  0  0  0  0  0  0  0
  158.9440  212.8060  151.6950 C   0  0  0  0  0  3  0  0  0  0  0  0
  161.8010  210.5840  152.5180 N   0  0  0  0  0  2  0  0  0  0  0  0
  160.1490  210.3720  154.9340 C   0  0  0  0  0  0  0  0  0  0  0  0
  158.2570  212.8660  152.9080 C   0  0  0  0  0  0  0  0  0  0  0  0
  157.1060  213.7300  152.9990 C   0  0  0  0  0  0  0  0  0  0  0  0
  156.1800  214.4220  153.0710 N   0  0  0  0  0  0  0  0  0  0  0  0
  1 19  2  0  0  0  0
  1 22  1  0  0  0  0
  2 22  1  1  0  0  0
  2  9  1  0  0  0  0
  3  1  1  0  0  0  0
  4  5  2  0  0  0  0
  9  7  1  1  0  0  0
  9  8  1  0  0  0  0
 11  5  1  0  0  0  0
 11  8  1  0  0  0  0
 12  6  1  6  0  0  0
 12 16  1  0  0  0  0
 12  2  1  0  0  0  0
 13  9  1  0  0  0  0
 13 10  2  0  0  0  0
 14 17  1  0  0  0  0
 14 21  1  0  0  0  0
 15 20  1  0  0  0  0
 15  3  2  0  0  0  0
 16 13  1  0  0  0  0
 17  6  1  0  0  0  0
 18 17  2  0  0  0  0
 19  4  1  0  0  0  0
 20 23  2  0  0  0  0
 21  3  1  0  0  0  0
 22 11  2  0  0  0  0
 23 24  1  0  0  0  0
 23 19  1  0  0  0  0
 24 25  3  0  0  0  0
M  END
>  <MODEL>
5

>  <REMARK>
 VINA RESULT:      -5.6      5.961      9.007
  Name = 
  1 active torsions:
  status: ('A' for Active; 'I' for Inactive)
    1  A    between atoms: C_4  and  C_25
                            x       y       z     vdW  Elec       q    Type
                         _______ _______ _______ _____ _____    ______ ____

>  <TORSDO>
F 1

$$$$
=
 OpenBabel11052410163D

 25 29  0  0  1  0  0  0  0  0999 V2000
  160.9380  203.9440  148.9740 C   0  0  0  0  0  0  0  0  0  0  0  0
  161.0020  205.7400  150.8900 C   0  0  1  0  0  3  0  0  0  0  0  0
  160.8140  204.8510  147.8950 C   0  0  0  0  0  0  0  0  0  0  0  0
  161.1160  201.6290  149.7570 C   0  0  0  0  0  3  0  0  0  0  0  0
  161.0100  202.0560  151.0820 C   0  0  0  0  0  3  0  0  0  0  0  0
  162.0970  207.6480  149.9940 C   0  0  0  0  0  2  0  0  0  0  0  0
  159.7570  206.1760  152.9140 O   0  0  0  0  0  1  0  0  0  0  0  0
  160.8310  204.0240  152.6860 C   0  0  0  0  0  2  0  0  0  0  0  0
  160.8840  205.5280  152.4070 C   0  0  1  0  0  0  0  0  0  0  0  0
  162.3890  206.2030  154.1210 O   0  0  0  0  0  0  0  0  0  0  0  0
  160.9170  203.4190  151.3420 C   0  0  0  0  0  0  0  0  0  0  0  0
  162.3220  206.3410  150.5980 N   0  0  1  0  0  0  0  0  0  0  0  0
  162.1210  206.1200  152.9320 C   0  0  0  0  0  0  0  0  0  0  0  0
  161.1830  207.3230  147.6000 C   0  0  0  0  0  2  0  0  0  0  0  0
  160.9580  204.3950  146.5820 C   0  0  0  0  0  3  0  0  0  0  0  0
  163.0120  206.5970  151.8630 C   0  0  0  0  0  2  0  0  0  0  0  0
  162.3310  207.5750  148.5190 C   0  0  0  0  0  0  0  0  0  0  0  0
  163.4560  207.7100  148.0690 O   0  0  0  0  0  0  0  0  0  0  0  0
  161.0940  202.5550  148.6940 C   0  0  0  0  0  0  0  0  0  0  0  0
  161.1770  203.0450  146.3180 C   0  0  0  0  0  3  0  0  0  0  0  0
  160.4130  206.2030  148.1120 N   0  0  0  0  0  2  0  0  0  0  0  0
  160.9260  204.3520  150.3300 C   0  0  0  0  0  0  0  0  0  0  0  0
  161.2270  202.1180  147.3590 C   0  0  0  0  0  0  0  0  0  0  0  0
  161.4230  200.7280  147.0280 C   0  0  0  0  0  0  0  0  0  0  0  0
  161.5810  199.6130  146.7610 N   0  0  0  0  0  0  0  0  0  0  0  0
  1 22  1  0  0  0  0
  2 22  1  6  0  0  0
  2  9  1  0  0  0  0
  3 21  1  0  0  0  0
  3  1  1  0  0  0  0
  4  5  2  0  0  0  0
  5 11  1  0  0  0  0
  9  8  1  0  0  0  0
  9  7  1  1  0  0  0
  9 13  1  0  0  0  0
 11  8  1  0  0  0  0
 12  6  1  1  0  0  0
 12  2  1  0  0  0  0
 12 16  1  0  0  0  0
 13 10  2  0  0  0  0
 14 21  1  0  0  0  0
 14 17  1  0  0  0  0
 15  3  2  0  0  0  0
 16 13  1  0  0  0  0
 17  6  1  0  0  0  0
 18 17  2  0  0  0  0
 19  1  2  0  0  0  0
 19  4  1  0  0  0  0
 20 15  1  0  0  0  0
 20 23  2  0  0  0  0
 22 11  2  0  0  0  0
 23 19  1  0  0  0  0
 24 23  1  0  0  0  0
 25 24  3  0  0  0  0
M  END
>  <MODEL>
6

>  <REMARK>
 VINA RESULT:      -5.3      2.751      6.071
  Name = 
  1 active torsions:
  status: ('A' for Active; 'I' for Inactive)
    1  A    between atoms: C_4  and  C_25
                            x       y       z     vdW  Elec       q    Type
                         _______ _______ _______ _____ _____    ______ ____

>  <TORSDO>
F 1

$$$$
=
 OpenBabel11052410163D

 25 29  0  0  1  0  0  0  0  0999 V2000
  160.3060  210.7870  152.5460 C   0  0  0  0  0  0  0  0  0  0  0  0
  159.9530  209.6750  154.9000 C   0  0  1  0  0  3  0  0  0  0  0  0
  159.4320  211.8810  152.7420 C   0  0  0  0  0  0  0  0  0  0  0  0
  161.8790  209.5930  151.0940 C   0  0  0  0  0  3  0  0  0  0  0  0
  161.9390  208.5380  152.0060 C   0  0  0  0  0  3  0  0  0  0  0  0
  159.5880  211.4470  156.4380 C   0  0  0  0  0  2  0  0  0  0  0  0
  159.2850  207.5030  155.7190 O   0  0  0  0  0  1  0  0  0  0  0  0
  161.2120  207.6220  154.2670 C   0  0  0  0  0  2  0  0  0  0  0  0
  160.3910  208.2820  155.3770 C   0  0  1  0  0  0  0  0  0  0  0  0
  161.7270  207.7120  157.2610 O   0  0  0  0  0  0  0  0  0  0  0  0
  161.2240  208.6370  153.1950 C   0  0  0  0  0  0  0  0  0  0  0  0
  160.6210  210.6950  155.7380 N   0  0  1  0  0  0  0  0  0  0  0  0
  161.2240  208.5700  156.5520 C   0  0  0  0  0  0  0  0  0  0  0  0
  158.3550  212.9590  154.7460 C   0  0  0  0  0  2  0  0  0  0  0  0
  159.4210  212.9370  151.8260 C   0  0  0  0  0  3  0  0  0  0  0  0
  161.3950  210.0140  156.7770 C   0  0  0  0  0  2  0  0  0  0  0  0
  159.4040  212.7830  155.7910 C   0  0  0  0  0  0  0  0  0  0  0  0
  160.1150  213.7210  156.1090 O   0  0  0  0  0  0  0  0  0  0  0  0
  161.0810  210.7270  151.3500 C   0  0  0  0  0  0  0  0  0  0  0  0
  160.2300  212.9030  150.6920 C   0  0  0  0  0  3  0  0  0  0  0  0
  158.4630  211.8710  153.7890 N   0  0  0  0  0  2  0  0  0  0  0  0
  160.4620  209.7440  153.4910 C   0  0  0  0  0  0  0  0  0  0  0  0
  161.0450  211.8000  150.4360 C   0  0  0  0  0  0  0  0  0  0  0  0
  161.8370  211.8020  149.2310 C   0  0  0  0  0  0  0  0  0  0  0  0
  162.4730  211.8040  148.2630 N   0  0  0  0  0  0  0  0  0  0  0  0
  1  3  1  0  0  0  0
  1 22  1  0  0  0  0
  2 22  1  6  0  0  0
  2  9  1  0  0  0  0
  2 12  1  0  0  0  0
  3 21  1  0  0  0  0
  4 19  1  0  0  0  0
  4  5  2  0  0  0  0
  5 11  1  0  0  0  0
  8  9  1  0  0  0  0
  9  7  1  1  0  0  0
  9 13  1  0  0  0  0
 11 22  2  0  0  0  0
 11  8  1  0  0  0  0
 12  6  1  1  0  0  0
 12 16  1  0  0  0  0
 13 16  1  0  0  0  0
 13 10  2  0  0  0  0
 14 17  1  0  0  0  0
 15  3  2  0  0  0  0
 17 18  2  0  0  0  0
 17  6  1  0  0  0  0
 19  1  2  0  0  0  0
 20 15  1  0  0  0  0
 21 14  1  0  0  0  0
 23 20  2  0  0  0  0
 23 19  1  0  0  0  0
 24 23  1  0  0  0  0
 25 24  3  0  0  0  0
M  END
>  <MODEL>
7

>  <REMARK>
 VINA RESULT:      -5.1      6.483      9.568
  Name = 
  1 active torsions:
  status: ('A' for Active; 'I' for Inactive)
    1  A    between atoms: C_4  and  C_25
                            x       y       z     vdW  Elec       q    Type
                         _______ _______ _______ _____ _____    ______ ____

>  <TORSDO>
F 1

$$$$
=
 OpenBabel11052410163D

 25 29  0  0  1  0  0  0  0  0999 V2000
  161.6040  204.4650  148.4600 C   0  0  0  0  0  0  0  0  0  0  0  0
  161.3480  202.6960  146.5350 C   0  0  1  0  0  3  0  0  0  0  0  0
  162.3140  205.4310  147.7100 C   0  0  0  0  0  0  0  0  0  0  0  0
  160.5890  203.7930  150.5870 C   0  0  0  0  0  3  0  0  0  0  0  0
  160.3410  202.5150  150.0790 C   0  0  0  0  0  3  0  0  0  0  0  0
  161.1450  203.9220  144.5110 C   0  0  0  0  0  2  0  0  0  0  0  0
  161.8970  200.3640  146.2260 O   0  0  0  0  0  1  0  0  0  0  0  0
  160.4560  200.9530  148.0730 C   0  0  0  0  0  2  0  0  0  0  0  0
  160.8850  201.2340  146.6310 C   0  0  1  0  0  0  0  0  0  0  0  0
  159.1090  200.1620  145.4670 O   0  0  0  0  0  0  0  0  0  0  0  0
  160.6820  202.2410  148.7600 C   0  0  0  0  0  0  0  0  0  0  0  0
  160.4050  203.4350  145.6670 N   0  0  1  0  0  0  0  0  0  0  0  0
  159.7360  201.1790  145.7180 C   0  0  0  0  0  0  0  0  0  0  0  0
  162.7060  205.8400  145.2570 C   0  0  0  0  0  2  0  0  0  0  0  0
  162.5150  206.7110  148.2350 C   0  0  0  0  0  3  0  0  0  0  0  0
  159.4140  202.4950  145.1420 C   0  0  0  0  0  2  0  0  0  0  0  0
  161.4180  205.3850  144.6590 C   0  0  0  0  0  0  0  0  0  0  0  0
  160.5860  206.2030  144.3030 O   0  0  0  0  0  0  0  0  0  0  0  0
  161.2060  204.7800  149.7920 C   0  0  0  0  0  0  0  0  0  0  0  0
  162.0650  207.0330  149.5130 C   0  0  0  0  0  3  0  0  0  0  0  0
  162.9450  205.0880  146.4770 N   0  0  0  0  0  2  0  0  0  0  0  0
  161.2560  203.1920  147.9460 C   0  0  0  0  0  0  0  0  0  0  0  0
  161.4300  206.0760  150.3040 C   0  0  0  0  0  0  0  0  0  0  0  0
  161.0130  206.4540  151.6310 C   0  0  0  0  0  0  0  0  0  0  0  0
  160.6790  206.7580  152.6980 N   0  0  0  0  0  0  0  0  0  0  0  0
  1 19  1  0  0  0  0
  2  9  1  0  0  0  0
  2 22  1  1  0  0  0
  3 15  2  0  0  0  0
  3  1  1  0  0  0  0
  5  4  1  0  0  0  0
  6 17  1  0  0  0  0
  8 11  1  0  0  0  0
  9  7  1  6  0  0  0
  9  8  1  0  0  0  0
 10 13  2  0  0  0  0
 11  5  2  0  0  0  0
 12  6  1  6  0  0  0
 12  2  1  0  0  0  0
 13  9  1  0  0  0  0
 14 21  1  0  0  0  0
 15 20  1  0  0  0  0
 16 12  1  0  0  0  0
 16 13  1  0  0  0  0
 17 14  1  0  0  0  0
 18 17  2  0  0  0  0
 19 23  1  0  0  0  0
 19  4  2  0  0  0  0
 20 23  2  0  0  0  0
 21  3  1  0  0  0  0
 22  1  2  0  0  0  0
 22 11  1  0  0  0  0
 23 24  1  0  0  0  0
 24 25  3  0  0  0  0
M  END
>  <MODEL>
8

>  <REMARK>
 VINA RESULT:      -4.8      1.773      4.449
  Name = 
  1 active torsions:
  status: ('A' for Active; 'I' for Inactive)
    1  A    between atoms: C_4  and  C_25
                            x       y       z     vdW  Elec       q    Type
                         _______ _______ _______ _____ _____    ______ ____

>  <TORSDO>
F 1

$$$$
=
 OpenBabel11052410163D

 25 29  0  0  1  0  0  0  0  0999 V2000
  160.6270  210.5310  152.7500 C   0  0  0  0  0  0  0  0  0  0  0  0
  159.9980  212.7940  151.5720 C   0  0  1  0  0  3  0  0  0  0  0  0
  160.1850  210.8860  154.0460 C   0  0  0  0  0  0  0  0  0  0  0  0
  161.6250  208.8620  151.2590 C   0  0  0  0  0  3  0  0  0  0  0  0
  161.6930  209.8050  150.2300 C   0  0  0  0  0  3  0  0  0  0  0  0
  158.0500  213.6050  152.6620 C   0  0  0  0  0  2  0  0  0  0  0  0
  161.1560  214.4530  150.2540 O   0  0  0  0  0  1  0  0  0  0  0  0
  161.1600  212.1720  149.4610 C   0  0  0  0  0  2  0  0  0  0  0  0
  160.3930  213.2880  150.1720 C   0  0  1  0  0  0  0  0  0  0  0  0
  158.9790  214.0010  148.3980 O   0  0  0  0  0  0  0  0  0  0  0  0
  161.1880  211.0800  150.4550 C   0  0  0  0  0  0  0  0  0  0  0  0
  158.5230  212.6840  151.6370 N   0  0  1  0  0  0  0  0  0  0  0  0
  159.1010  213.5400  149.5220 C   0  0  0  0  0  0  0  0  0  0  0  0
  158.6960  212.6840  154.9860 C   0  0  0  0  0  2  0  0  0  0  0  0
  160.0970  209.9100  155.0440 C   0  0  0  0  0  3  0  0  0  0  0  0
  157.9620  213.1650  150.3740 C   0  0  0  0  0  2  0  0  0  0  0  0
  157.6870  212.8480  153.8990 C   0  0  0  0  0  0  0  0  0  0  0  0
  156.5770  212.3580  154.0160 O   0  0  0  0  0  0  0  0  0  0  0  0
  161.0860  209.2020  152.5160 C   0  0  0  0  0  0  0  0  0  0  0  0
  160.4860  208.5970  154.7890 C   0  0  0  0  0  3  0  0  0  0  0  0
  159.9500  212.2490  154.3970 N   0  0  0  0  0  2  0  0  0  0  0  0
  160.6250  211.4350  151.6600 C   0  0  0  0  0  0  0  0  0  0  0  0
  160.9970  208.2370  153.5420 C   0  0  0  0  0  0  0  0  0  0  0  0
  161.4140  206.8720  153.3430 C   0  0  0  0  0  0  0  0  0  0  0  0
  161.7490  205.7750  153.1830 N   0  0  0  0  0  0  0  0  0  0  0  0
  1  3  2  0  0  0  0
  2 12  1  0  0  0  0
  2 22  1  6  0  0  0
  3 21  1  0  0  0  0
  3 15  1  0  0  0  0
  4 19  1  0  0  0  0
  5 11  1  0  0  0  0
  5  4  2  0  0  0  0
  6 17  1  0  0  0  0
  8  9  1  0  0  0  0
  8 11  1  0  0  0  0
  9  7  1  1  0  0  0
  9  2  1  0  0  0  0
 10 13  2  0  0  0  0
 11 22  2  0  0  0  0
 12 16  1  6  0  0  0
 12  6  1  0  0  0  0
 13  9  1  0  0  0  0
 13 16  1  0  0  0  0
 17 18  2  0  0  0  0
 17 14  1  0  0  0  0
 19  1  1  0  0  0  0
 19 23  2  0  0  0  0
 20 15  2  0  0  0  0
 21 14  1  0  0  0  0
 22  1  1  0  0  0  0
 23 20  1  0  0  0  0
 24 23  1  0  0  0  0
 25 24  3  0  0  0  0
M  END
>  <MODEL>
9

>  <REMARK>
 VINA RESULT:      -4.7      5.846      8.456
  Name = 
  1 active torsions:
  status: ('A' for Active; 'I' for Inactive)
    1  A    between atoms: C_4  and  C_25
                            x       y       z     vdW  Elec       q    Type
                         _______ _______ _______ _____ _____    ______ ____

>  <TORSDO>
F 1

$$$$
