=
 OpenBabel11042423083D

 37 43  0  0  1  0  0  0  0  0999 V2000
  161.7010  207.6890  153.3590 N   0  0  2  0  0  0  0  0  0  0  0  0
  161.0450  208.1810  152.1480 C   0  0  1  0  0  3  0  0  0  0  0  0
  158.8320  210.7390  156.0000 N   0  0  0  0  0  0  0  0  0  0  0  0
  160.6740  207.4280  154.3710 C   0  0  2  0  0  3  0  0  0  0  0  0
  160.2340  210.6620  153.6080 C   0  0  0  0  0  0  0  0  0  0  0  0
  160.4300  209.6590  154.5790 C   0  0  0  0  0  0  0  0  0  0  0  0
  160.8550  210.6330  152.3150 N   0  0  0  0  0  2  0  0  0  0  0  0
  159.6830  209.6990  155.7880 C   0  0  0  0  0  0  0  0  0  0  0  0
  161.5030  208.6280  154.4880 C   0  0  2  0  0  3  0  0  0  0  0  0
  158.6540  211.7380  155.0950 C   0  0  0  0  0  0  0  0  0  0  0  0
  159.3450  211.7010  153.8800 C   0  0  0  0  0  3  0  0  0  0  0  0
  161.0620  206.7500  155.6570 C   0  0  0  0  0  2  0  0  0  0  0  0
  161.6490  209.5470  151.7470 C   0  0  2  0  0  3  0  0  0  0  0  0
  159.7450  208.6350  156.8450 C   0  0  0  0  0  3  0  0  0  0  0  0
  160.3050  207.3990  156.8040 C   0  0  0  0  0  3  0  0  0  0  0  0
  156.4610  213.0430  153.3290 O   0  0  0  0  0  0  0  0  0  0  0  0
  156.0510  214.4350  155.1990 N   0  0  0  0  0  0  0  0  0  0  0  0
  156.7190  213.3960  154.5090 C   0  0  0  0  0  0  0  0  0  0  0  0
  157.6710  213.4740  156.5080 N   0  0  0  0  0  0  0  0  0  0  0  0
  157.7200  212.8380  155.3850 C   0  0  0  0  0  0  0  0  0  0  0  0
  156.6300  214.4530  156.3620 C   0  0  0  0  0  3  0  0  0  0  0  0
  161.1170  207.1250  151.0800 C   0  0  0  0  0  0  0  0  0  0  0  0
  161.1030  207.5100  149.7370 C   0  0  0  0  0  3  0  0  0  0  0  0
  161.2950  204.8020  150.4030 C   0  0  0  0  0  3  0  0  0  0  0  0
  161.2160  205.7660  151.4110 C   0  0  0  0  0  3  0  0  0  0  0  0
  161.1830  206.5460  148.7300 C   0  0  0  0  0  3  0  0  0  0  0  0
  161.2790  205.1810  149.0510 C   0  0  0  0  0  0  0  0  0  0  0  0
  160.9730  202.8060  148.2540 C   0  0  0  0  0  1  0  0  0  0  0  0
  161.8370  204.5290  146.6790 C   0  0  0  0  0  1  0  0  0  0  0  0
  161.3620  204.1880  148.0110 N   0  0  0  0  0  0  0  0  0  0  0  0
  161.7610  209.7640  150.2380 C   0  0  0  0  0  2  0  0  0  0  0  0
  161.2590  213.1710  147.9180 C   0  0  0  0  0  2  0  0  0  0  0  0
  162.0650  211.2170  149.9160 C   0  0  1  0  0  3  0  0  0  0  0  0
  162.7760  211.3300  148.5880 C   0  0  0  0  0  3  0  0  0  0  0  0
  162.4370  212.2590  147.6840 C   0  0  0  0  0  3  0  0  0  0  0  0
  161.0090  213.3490  149.3480 N   0  0  0  0  0  2  0  0  0  0  0  0
  160.7690  212.0300  149.9290 C   0  0  0  0  0  2  0  0  0  0  0  0
  1  4  1  0  0  0  0
  1  9  1  0  0  0  0
  2  1  1  0  0  0  0
  4  9  1  0  0  0  0
  4 12  1  0  0  0  0
  5 11  2  0  0  0  0
  5  6  1  0  0  0  0
  6  8  2  0  0  0  0
  7  5  1  0  0  0  0
  8  3  1  0  0  0  0
  8 14  1  0  0  0  0
  9  6  1  0  0  0  0
 10 20  1  0  0  0  0
 10  3  2  0  0  0  0
 11 10  1  0  0  0  0
 12 15  1  0  0  0  0
 13  2  1  0  0  0  0
 13  7  1  0  0  0  0
 15 14  2  0  0  0  0
 16 18  2  0  0  0  0
 17 21  2  0  0  0  0
 18 17  1  0  0  0  0
 18 20  1  0  0  0  0
 20 19  2  0  0  0  0
 21 19  1  0  0  0  0
 22 25  1  0  0  0  0
 22  2  1  0  0  0  0
 23 22  2  0  0  0  0
 24 25  2  0  0  0  0
 26 27  2  0  0  0  0
 26 23  1  0  0  0  0
 27 24  1  0  0  0  0
 29 30  1  0  0  0  0
 30 28  1  0  0  0  0
 30 27  1  0  0  0  0
 31 13  1  0  0  0  0
 32 36  1  0  0  0  0
 33 37  1  0  0  0  0
 33 31  1  0  0  0  0
 34 33  1  0  0  0  0
 35 32  1  0  0  0  0
 35 34  2  0  0  0  0
 36 37  1  0  0  0  0
M  END
>  <MODEL>
1

>  <REMARK>
 VINA RESULT:      -6.4      0.000      0.000
  Name = 
  5 active torsions:
  status: ('A' for Active; 'I' for Inactive)
    1  A    between atoms: C_4  and  C_13
    2  A    between atoms: C_14  and  C_24
    3  A    between atoms: C_16  and  C_22
    4  A    between atoms: C_16  and  C_29
    5  A    between atoms: N_26  and  C_37
                            x       y       z     vdW  Elec       q    Type
                         _______ _______ _______ _____ _____    ______ ____

>  <TORSDO>
F 5

$$$$
