=
 OpenBabel11052410123D

 48 52  0  0  1  0  0  0  0  0999 V2000
  161.4240  212.1660  149.0240 C   0  0  2  0  0  3  0  0  0  0  0  0
  159.9570  214.1390  147.4920 C   0  0  0  0  0  3  0  0  0  0  0  0
  162.2640  209.9600  150.0650 N   0  0  0  0  0  2  0  0  0  0  0  0
  158.7650  214.4530  151.6630 O   0  0  0  0  0  0  0  0  0  0  0  0
  160.2130  212.7420  150.9880 N   0  0  0  0  0  0  0  0  0  0  0  0
  159.3510  213.3740  151.9440 C   0  0  0  0  0  0  0  0  0  0  0  0
  160.8530  211.5200  151.2080 N   0  0  0  0  0  0  0  0  0  0  0  0
  160.4730  213.1300  149.6460 C   0  0  0  0  0  0  0  0  0  0  0  0
  160.6450  211.4790  147.5280 S   0  0  0  0  0  0  0  0  0  0  0  0
  159.7880  214.0460  148.9560 C   0  0  0  0  0  3  0  0  0  0  0  0
  160.4310  213.1170  146.7670 C   0  0  0  0  0  0  0  0  0  0  0  0
  161.5010  211.1660  150.1420 C   0  0  0  0  0  0  0  0  0  0  0  0
  162.9170  214.0540  145.4160 N   0  0  0  0  0  2  0  0  0  0  0  0
  162.7990  213.6560  141.2130 N   0  0  0  0  0  0  0  0  0  0  0  0
  161.5570  213.2750  141.1700 C   0  0  0  0  0  0  0  0  0  0  0  0
  163.1230  213.8810  142.5540 N   0  0  0  0  0  2  0  0  0  0  0  0
  160.6570  213.3310  145.3670 N   0  0  0  0  0  2  0  0  0  0  0  0
  160.9490  213.1960  142.4590 N   0  0  0  0  0  2  0  0  0  0  0  0
  161.9830  213.6000  143.3040 N   0  0  0  0  0  0  0  0  0  0  0  0
  161.9020  213.6400  144.7290 C   0  0  0  0  0  0  0  0  0  0  0  0
  161.9680  210.7980  137.1310 C   0  0  0  0  0  1  0  0  0  0  0  0
  161.1850  211.5150  139.3660 C   0  0  1  0  0  3  0  0  0  0  0  0
  160.8430  212.8990  139.9040 C   0  0  2  0  0  3  0  0  0  0  0  0
  161.1490  213.8660  138.8530 N   0  0  0  0  0  2  0  0  0  0  0  0
  161.9350  213.1750  137.8290 C   0  0  0  0  0  2  0  0  0  0  0  0
  162.1980  211.7530  138.2820 C   0  0  2  0  0  3  0  0  0  0  0  0
  162.9570  210.1350  140.2760 O   0  0  0  0  0  1  0  0  0  0  0  0
  161.5990  210.4480  140.3850 C   0  0  0  0  0  2  0  0  0  0  0  0
  160.9800  208.9810  151.8970 C   0  0  0  0  0  1  0  0  0  0  0  0
  162.2960  208.9730  151.1390 C   0  0  1  0  0  3  0  0  0  0  0  0
  162.1090  206.5980  151.4690 O   0  0  0  0  0  1  0  0  0  0  0  0
  162.5670  207.5790  150.5850 C   0  0  1  0  0  3  0  0  0  0  0  0
  161.9020  207.4190  149.2230 C   0  0  0  0  0  2  0  0  0  0  0  0
  160.8290  206.3410  149.2420 C   0  0  0  0  0  2  0  0  0  0  0  0
  161.3520  205.0140  148.6890 C   0  0  2  0  0  3  0  0  0  0  0  0
  160.8760  205.0710  144.6610 O   0  0  0  0  0  0  0  0  0  0  0  0
  160.4000  206.1280  146.7900 C   0  0  0  0  0  2  0  0  0  0  0  0
  162.2390  204.9890  144.9970 C   0  0  0  0  0  2  0  0  0  0  0  0
  161.1500  204.9440  147.2290 N   0  0  0  0  0  0  0  0  0  0  0  0
  162.4290  204.8140  146.5100 C   0  0  0  0  0  2  0  0  0  0  0  0
  160.3880  206.2480  145.2590 C   0  0  0  0  0  2  0  0  0  0  0  0
  160.8020  203.8320  149.4660 C   0  0  0  0  0  0  0  0  0  0  0  0
  160.7020  202.6980  148.9280 O   0  0  0  0  0  0  0  0  0  0  0  0
  160.4850  203.9680  150.8500 N   0  0  0  0  0  1  0  0  0  0  0  0
  159.1700  212.7790  153.3010 C   0  0  0  0  0  2  0  0  0  0  0  0
  157.7260  212.3470  153.5100 C   0  0  0  0  0  2  0  0  0  0  0  0
  156.1120  211.4990  155.2120 C   0  0  0  0  0  1  0  0  0  0  0  0
  157.3600  212.3310  154.9870 C   0  0  0  0  0  2  0  0  0  0  0  0
  1  9  1  6  0  0  0
  1  8  1  0  0  0  0
  1 12  1  0  0  0  0
  2 10  1  0  0  0  0
  3 12  1  0  0  0  0
  3 30  1  0  0  0  0
  4  6  2  0  0  0  0
  5  7  1  0  0  0  0
  5  6  1  0  0  0  0
  6 45  1  0  0  0  0
  8  5  1  0  0  0  0
 10  8  2  0  0  0  0
 11  2  2  0  0  0  0
 11  9  1  0  0  0  0
 12  7  2  0  0  0  0
 14 16  1  0  0  0  0
 15 14  2  0  0  0  0
 15 18  1  0  0  0  0
 16 19  1  0  0  0  0
 17 11  1  0  0  0  0
 18 19  1  0  0  0  0
 19 20  1  0  0  0  0
 20 17  1  0  0  0  0
 20 13  2  0  0  0  0
 22 23  1  0  0  0  0
 22 28  1  1  0  0  0
 23 15  1  1  0  0  0
 24 23  1  0  0  0  0
 25 26  1  0  0  0  0
 25 24  1  0  0  0  0
 26 21  1  6  0  0  0
 26 22  1  0  0  0  0
 27 28  1  0  0  0  0
 30 29  1  6  0  0  0
 32 30  1  0  0  0  0
 32 31  1  1  0  0  0
 33 34  1  0  0  0  0
 33 32  1  0  0  0  0
 35 34  1  1  0  0  0
 35 42  1  0  0  0  0
 36 38  1  0  0  0  0
 36 41  1  0  0  0  0
 37 39  1  0  0  0  0
 38 40  1  0  0  0  0
 39 35  1  0  0  0  0
 40 39  1  0  0  0  0
 41 37  1  0  0  0  0
 42 44  1  0  0  0  0
 43 42  2  0  0  0  0
 45 46  1  0  0  0  0
 46 48  1  0  0  0  0
 48 47  1  0  0  0  0
M  END
>  <MODEL>
1

>  <REMARK>
 VINA RESULT:      -6.9      0.000      0.000
  Name = 
  13 active torsions:
  status: ('A' for Active; 'I' for Inactive)
    1  A    between atoms: C_5  and  C_14
    2  A    between atoms: C_7  and  C_10
    3  A    between atoms: C_9  and  C_26
    4  A    between atoms: C_9  and  C_39
    5  A    between atoms: N_13  and  C_40
    6  A    between atoms: C_17  and  C_32
    7  A    between atoms: N_19  and  C_30
    8  A    between atoms: C_26  and  C_27
    9  A    between atoms: C_30  and  C_36
   10  A    between atoms: C_32  and  C_34
   11  A    between atoms: C_32  and  N_42
   12  A    between atoms: C_34  and  C_43
   13  A    between atoms: C_36  and  C_43
                            x       y       z     vdW  Elec       q    Type
                         _______ _______ _______ _____ _____    ______ ____

>  <TORSDO>
F 13

$$$$
=
 OpenBabel11052410123D

 48 52  0  0  1  0  0  0  0  0999 V2000
  161.5580  212.1490  149.1160 C   0  0  2  0  0  3  0  0  0  0  0  0
  160.2260  214.3080  147.7180 C   0  0  0  0  0  3  0  0  0  0  0  0
  162.2460  209.8310  150.0150 N   0  0  0  0  0  2  0  0  0  0  0  0
  159.0710  214.4480  151.9070 O   0  0  0  0  0  0  0  0  0  0  0  0
  160.3950  212.6860  151.1200 N   0  0  0  0  0  0  0  0  0  0  0  0
  159.5810  213.3170  152.1180 C   0  0  0  0  0  0  0  0  0  0  0  0
  160.9500  211.4120  151.2610 N   0  0  0  0  0  0  0  0  0  0  0  0
  160.6770  213.1370  149.8030 C   0  0  0  0  0  0  0  0  0  0  0  0
  160.7290  211.6100  147.5870 S   0  0  0  0  0  0  0  0  0  0  0  0
  160.0550  214.1380  149.1740 C   0  0  0  0  0  3  0  0  0  0  0  0
  160.6260  213.3030  146.9280 C   0  0  0  0  0  0  0  0  0  0  0  0
  161.5690  211.0800  150.1700 C   0  0  0  0  0  0  0  0  0  0  0  0
  163.1740  214.1180  145.6140 N   0  0  0  0  0  2  0  0  0  0  0  0
  163.0040  213.9970  141.3960 N   0  0  0  0  0  0  0  0  0  0  0  0
  161.7340  213.7220  141.3410 C   0  0  0  0  0  0  0  0  0  0  0  0
  163.3520  214.1100  142.7450 N   0  0  0  0  0  2  0  0  0  0  0  0
  160.8620  213.5850  145.5420 N   0  0  0  0  0  2  0  0  0  0  0  0
  161.1290  213.6120  142.6290 N   0  0  0  0  0  2  0  0  0  0  0  0
  162.1960  213.8760  143.4870 N   0  0  0  0  0  0  0  0  0  0  0  0
  162.1250  213.8320  144.9120 C   0  0  0  0  0  0  0  0  0  0  0  0
  161.8660  211.3830  137.2020 C   0  0  0  0  0  1  0  0  0  0  0  0
  161.1640  212.0950  139.4660 C   0  0  1  0  0  3  0  0  0  0  0  0
  160.9860  213.4870  140.0610 C   0  0  2  0  0  3  0  0  0  0  0  0
  161.4100  214.4530  139.0510 N   0  0  0  0  0  2  0  0  0  0  0  0
  162.1120  213.7160  137.9990 C   0  0  0  0  0  2  0  0  0  0  0  0
  162.2030  212.2560  138.3920 C   0  0  2  0  0  3  0  0  0  0  0  0
  162.8000  210.6070  140.4550 O   0  0  0  0  0  1  0  0  0  0  0  0
  161.4440  210.9450  140.4390 C   0  0  0  0  0  2  0  0  0  0  0  0
  160.8590  208.7570  151.7120 C   0  0  0  0  0  1  0  0  0  0  0  0
  162.2140  208.7810  151.0270 C   0  0  1  0  0  3  0  0  0  0  0  0
  162.5020  206.4190  151.3790 O   0  0  0  0  0  1  0  0  0  0  0  0
  162.5040  207.4210  150.4030 C   0  0  1  0  0  3  0  0  0  0  0  0
  161.4770  207.1100  149.3220 C   0  0  0  0  0  2  0  0  0  0  0  0
  160.5810  205.9450  149.7120 C   0  0  0  0  0  2  0  0  0  0  0  0
  160.7140  204.7770  148.7320 C   0  0  2  0  0  3  0  0  0  0  0  0
  161.8080  201.4510  150.7800 O   0  0  0  0  0  0  0  0  0  0  0  0
  160.9940  203.7320  150.8730 C   0  0  0  0  0  2  0  0  0  0  0  0
  160.8430  201.1380  149.8070 C   0  0  0  0  0  2  0  0  0  0  0  0
  161.1930  203.5670  149.4270 N   0  0  0  0  0  0  0  0  0  0  0  0
  160.5290  202.3530  148.9230 C   0  0  0  0  0  2  0  0  0  0  0  0
  161.2250  202.4130  151.6250 C   0  0  0  0  0  2  0  0  0  0  0  0
  161.5170  205.1690  147.5060 C   0  0  0  0  0  0  0  0  0  0  0  0
  162.5780  204.5590  147.2090 O   0  0  0  0  0  0  0  0  0  0  0  0
  161.0260  206.1690  146.6160 N   0  0  0  0  0  1  0  0  0  0  0  0
  159.3630  212.6530  153.4380 C   0  0  0  0  0  2  0  0  0  0  0  0
  158.7680  213.6320  154.4400 C   0  0  0  0  0  2  0  0  0  0  0  0
  157.1400  211.7420  154.4480 C   0  0  0  0  0  1  0  0  0  0  0  0
  157.4330  213.1350  154.9740 C   0  0  0  0  0  2  0  0  0  0  0  0
  1  9  1  6  0  0  0
  1  8  1  0  0  0  0
  1 12  1  0  0  0  0
  2 10  1  0  0  0  0
  3 12  1  0  0  0  0
  3 30  1  0  0  0  0
  4  6  2  0  0  0  0
  5  7  1  0  0  0  0
  5  6  1  0  0  0  0
  6 45  1  0  0  0  0
  8  5  1  0  0  0  0
 10  8  2  0  0  0  0
 11  9  1  0  0  0  0
 11  2  2  0  0  0  0
 12  7  2  0  0  0  0
 14 16  1  0  0  0  0
 15 14  2  0  0  0  0
 15 18  1  0  0  0  0
 16 19  1  0  0  0  0
 17 11  1  0  0  0  0
 18 19  1  0  0  0  0
 19 20  1  0  0  0  0
 20 17  1  0  0  0  0
 20 13  2  0  0  0  0
 22 23  1  0  0  0  0
 22 28  1  1  0  0  0
 23 15  1  1  0  0  0
 24 23  1  0  0  0  0
 25 26  1  0  0  0  0
 25 24  1  0  0  0  0
 26 21  1  6  0  0  0
 26 22  1  0  0  0  0
 28 27  1  0  0  0  0
 30 29  1  6  0  0  0
 32 30  1  0  0  0  0
 32 31  1  1  0  0  0
 33 34  1  0  0  0  0
 33 32  1  0  0  0  0
 35 39  1  0  0  0  0
 35 34  1  1  0  0  0
 36 41  1  0  0  0  0
 37 41  1  0  0  0  0
 38 36  1  0  0  0  0
 39 37  1  0  0  0  0
 40 39  1  0  0  0  0
 40 38  1  0  0  0  0
 42 35  1  0  0  0  0
 43 42  2  0  0  0  0
 44 42  1  0  0  0  0
 45 46  1  0  0  0  0
 46 48  1  0  0  0  0
 47 48  1  0  0  0  0
M  END
>  <MODEL>
2

>  <REMARK>
 VINA RESULT:      -6.3      1.035      2.254
  Name = 
  13 active torsions:
  status: ('A' for Active; 'I' for Inactive)
    1  A    between atoms: C_5  and  C_14
    2  A    between atoms: C_7  and  C_10
    3  A    between atoms: C_9  and  C_26
    4  A    between atoms: C_9  and  C_39
    5  A    between atoms: N_13  and  C_40
    6  A    between atoms: C_17  and  C_32
    7  A    between atoms: N_19  and  C_30
    8  A    between atoms: C_26  and  C_27
    9  A    between atoms: C_30  and  C_36
   10  A    between atoms: C_32  and  C_34
   11  A    between atoms: C_32  and  N_42
   12  A    between atoms: C_34  and  C_43
   13  A    between atoms: C_36  and  C_43
                            x       y       z     vdW  Elec       q    Type
                         _______ _______ _______ _____ _____    ______ ____

>  <TORSDO>
F 13

$$$$
=
 OpenBabel11052410123D

 48 52  0  0  1  0  0  0  0  0999 V2000
  161.5580  211.6580  150.4240 C   0  0  2  0  0  3  0  0  0  0  0  0
  160.3100  213.9090  149.0950 C   0  0  0  0  0  3  0  0  0  0  0  0
  162.2140  209.2820  151.1850 N   0  0  0  0  0  2  0  0  0  0  0  0
  158.7780  213.6730  153.1580 O   0  0  0  0  0  0  0  0  0  0  0  0
  160.2080  212.0040  152.3500 N   0  0  0  0  0  0  0  0  0  0  0  0
  159.2930  212.5350  153.3190 C   0  0  0  0  0  0  0  0  0  0  0  0
  160.7760  210.7320  152.4350 N   0  0  0  0  0  0  0  0  0  0  0  0
  160.5970  212.5700  151.1070 C   0  0  0  0  0  0  0  0  0  0  0  0
  160.8830  211.2390  148.7850 S   0  0  0  0  0  0  0  0  0  0  0  0
  160.0120  213.6120  150.5100 C   0  0  0  0  0  3  0  0  0  0  0  0
  160.8020  212.9800  148.2640 C   0  0  0  0  0  0  0  0  0  0  0  0
  161.4980  210.5030  151.3820 C   0  0  0  0  0  0  0  0  0  0  0  0
  163.4650  212.8360  146.9330 N   0  0  0  0  0  2  0  0  0  0  0  0
  163.3120  213.5840  142.7800 N   0  0  0  0  0  0  0  0  0  0  0  0
  162.0520  213.9030  142.7680 C   0  0  0  0  0  0  0  0  0  0  0  0
  163.6570  213.2820  144.1000 N   0  0  0  0  0  2  0  0  0  0  0  0
  161.1550  213.3840  146.9340 N   0  0  0  0  0  2  0  0  0  0  0  0
  161.4430  213.8300  144.0570 N   0  0  0  0  0  2  0  0  0  0  0  0
  162.5070  213.4410  144.8710 N   0  0  0  0  0  0  0  0  0  0  0  0
  162.4070  213.1690  146.2680 C   0  0  0  0  0  0  0  0  0  0  0  0
  159.9500  212.0750  138.9130 C   0  0  0  0  0  1  0  0  0  0  0  0
  160.2660  213.2180  141.0850 C   0  0  1  0  0  3  0  0  0  0  0  0
  161.2920  214.2570  141.5230 C   0  0  2  0  0  3  0  0  0  0  0  0
  162.2200  214.4520  140.4110 N   0  0  0  0  0  2  0  0  0  0  0  0
  161.9900  213.3760  139.4460 C   0  0  0  0  0  2  0  0  0  0  0  0
  160.9430  212.4300  139.9990 C   0  0  2  0  0  3  0  0  0  0  0  0
  160.2430  211.1030  142.2660 O   0  0  0  0  0  1  0  0  0  0  0  0
  159.6290  212.3560  142.1790 C   0  0  0  0  0  2  0  0  0  0  0  0
  160.7550  208.1400  152.7730 C   0  0  0  0  0  1  0  0  0  0  0  0
  162.1150  208.1490  152.0980 C   0  0  1  0  0  3  0  0  0  0  0  0
  161.8780  205.7550  152.1180 O   0  0  0  0  0  1  0  0  0  0  0  0
  162.3340  206.8360  151.3560 C   0  0  1  0  0  3  0  0  0  0  0  0
  161.6260  206.8720  150.0080 C   0  0  0  0  0  2  0  0  0  0  0  0
  160.6410  205.7220  149.8570 C   0  0  0  0  0  2  0  0  0  0  0  0
  161.2730  204.5280  149.1380 C   0  0  2  0  0  3  0  0  0  0  0  0
  160.8860  205.0700  145.1370 O   0  0  0  0  0  0  0  0  0  0  0  0
  160.5870  205.9860  147.3610 C   0  0  0  0  0  2  0  0  0  0  0  0
  162.2010  204.6930  145.4600 C   0  0  0  0  0  2  0  0  0  0  0  0
  161.0860  204.6420  147.6790 N   0  0  0  0  0  0  0  0  0  0  0  0
  162.3280  204.3370  146.9480 C   0  0  0  0  0  2  0  0  0  0  0  0
  160.6240  206.2550  145.8500 C   0  0  0  0  0  2  0  0  0  0  0  0
  160.8160  203.2120  149.7390 C   0  0  0  0  0  0  0  0  0  0  0  0
  160.2990  202.3190  149.0160 O   0  0  0  0  0  0  0  0  0  0  0  0
  161.0590  202.9290  151.1160 N   0  0  0  0  0  1  0  0  0  0  0  0
  158.9720  211.7590  154.5540 C   0  0  0  0  0  2  0  0  0  0  0  0
  160.0660  211.9310  155.5970 C   0  0  0  0  0  2  0  0  0  0  0  0
  161.5100  209.9470  156.0460 C   0  0  0  0  0  1  0  0  0  0  0  0
  160.2360  210.6720  156.4350 C   0  0  0  0  0  2  0  0  0  0  0  0
  1  9  1  6  0  0  0
  1  8  1  0  0  0  0
  1 12  1  0  0  0  0
  2 10  1  0  0  0  0
  3 12  1  0  0  0  0
  3 30  1  0  0  0  0
  4  6  2  0  0  0  0
  5  7  1  0  0  0  0
  5  6  1  0  0  0  0
  6 45  1  0  0  0  0
  8  5  1  0  0  0  0
 10  8  2  0  0  0  0
 11  9  1  0  0  0  0
 11  2  2  0  0  0  0
 12  7  2  0  0  0  0
 14 16  1  0  0  0  0
 15 14  2  0  0  0  0
 15 18  1  0  0  0  0
 16 19  1  0  0  0  0
 17 11  1  0  0  0  0
 18 19  1  0  0  0  0
 19 20  1  0  0  0  0
 20 13  2  0  0  0  0
 20 17  1  0  0  0  0
 22 23  1  0  0  0  0
 22 28  1  1  0  0  0
 23 15  1  1  0  0  0
 24 23  1  0  0  0  0
 25 26  1  0  0  0  0
 25 24  1  0  0  0  0
 26 21  1  6  0  0  0
 26 22  1  0  0  0  0
 28 27  1  0  0  0  0
 30 29  1  6  0  0  0
 32 30  1  0  0  0  0
 32 31  1  1  0  0  0
 33 32  1  0  0  0  0
 34 33  1  0  0  0  0
 35 42  1  0  0  0  0
 35 34  1  1  0  0  0
 36 38  1  0  0  0  0
 36 41  1  0  0  0  0
 37 39  1  0  0  0  0
 38 40  1  0  0  0  0
 39 35  1  0  0  0  0
 40 39  1  0  0  0  0
 41 37  1  0  0  0  0
 42 44  1  0  0  0  0
 43 42  2  0  0  0  0
 45 46  1  0  0  0  0
 46 48  1  0  0  0  0
 47 48  1  0  0  0  0
M  END
>  <MODEL>
3

>  <REMARK>
 VINA RESULT:      -6.0      1.550      1.922
  Name = 
  13 active torsions:
  status: ('A' for Active; 'I' for Inactive)
    1  A    between atoms: C_5  and  C_14
    2  A    between atoms: C_7  and  C_10
    3  A    between atoms: C_9  and  C_26
    4  A    between atoms: C_9  and  C_39
    5  A    between atoms: N_13  and  C_40
    6  A    between atoms: C_17  and  C_32
    7  A    between atoms: N_19  and  C_30
    8  A    between atoms: C_26  and  C_27
    9  A    between atoms: C_30  and  C_36
   10  A    between atoms: C_32  and  C_34
   11  A    between atoms: C_32  and  N_42
   12  A    between atoms: C_34  and  C_43
   13  A    between atoms: C_36  and  C_43
                            x       y       z     vdW  Elec       q    Type
                         _______ _______ _______ _____ _____    ______ ____

>  <TORSDO>
F 13

$$$$
=
 OpenBabel11052410123D

 48 52  0  0  1  0  0  0  0  0999 V2000
  160.0940  209.2200  152.5170 C   0  0  2  0  0  3  0  0  0  0  0  0
  161.7660  206.9010  152.9850 C   0  0  0  0  0  3  0  0  0  0  0  0
  159.1650  211.4780  151.6840 N   0  0  0  0  0  2  0  0  0  0  0  0
  161.8660  209.4210  156.5270 O   0  0  0  0  0  0  0  0  0  0  0  0
  160.7420  210.1500  154.6070 N   0  0  0  0  0  0  0  0  0  0  0  0
  161.2990  210.3630  155.9120 C   0  0  0  0  0  0  0  0  0  0  0  0
  160.1470  211.1560  153.8440 N   0  0  0  0  0  0  0  0  0  0  0  0
  160.7980  208.9770  153.8090 C   0  0  0  0  0  0  0  0  0  0  0  0
  161.2610  208.8900  151.1590 S   0  0  0  0  0  0  0  0  0  0  0  0
  161.5730  207.9140  154.0420 C   0  0  0  0  0  3  0  0  0  0  0  0
  161.5520  207.1760  151.6910 C   0  0  0  0  0  0  0  0  0  0  0  0
  159.8060  210.6840  152.6850 C   0  0  0  0  0  0  0  0  0  0  0  0
  160.6420  204.3520  151.9770 N   0  0  0  0  0  2  0  0  0  0  0  0
  160.7780  202.1690  148.3650 N   0  0  0  0  0  0  0  0  0  0  0  0
  161.3540  203.1130  147.6830 C   0  0  0  0  0  0  0  0  0  0  0  0
  160.6090  202.6370  149.6710 N   0  0  0  0  0  2  0  0  0  0  0  0
  161.6670  206.1040  150.7460 N   0  0  0  0  0  2  0  0  0  0  0  0
  161.6070  204.2870  148.4540 N   0  0  0  0  0  2  0  0  0  0  0  0
  161.1240  203.9310  149.7130 N   0  0  0  0  0  0  0  0  0  0  0  0
  161.0920  204.7950  150.8480 C   0  0  0  0  0  0  0  0  0  0  0  0
  161.2650  205.4910  143.5640 C   0  0  0  0  0  1  0  0  0  0  0  0
  162.1150  204.3160  145.5690 C   0  0  1  0  0  3  0  0  0  0  0  0
  161.6740  203.0100  146.2200 C   0  0  2  0  0  3  0  0  0  0  0  0
  160.5050  202.5290  145.4870 N   0  0  0  0  0  2  0  0  0  0  0  0
  160.0400  203.6180  144.6280 C   0  0  0  0  0  2  0  0  0  0  0  0
  160.8890  204.8470  144.8820 C   0  0  2  0  0  3  0  0  0  0  0  0
  162.2210  206.5970  146.3790 O   0  0  0  0  0  1  0  0  0  0  0  0
  162.8250  205.3390  146.4620 C   0  0  0  0  0  2  0  0  0  0  0  0
  159.5400  213.4020  153.1380 C   0  0  0  0  0  1  0  0  0  0  0  0
  158.9300  212.9090  151.8380 C   0  0  1  0  0  3  0  0  0  0  0  0
  160.8270  214.0860  150.9420 O   0  0  0  0  0  1  0  0  0  0  0  0
  159.5170  213.6830  150.6640 C   0  0  1  0  0  3  0  0  0  0  0  0
  159.4810  212.8280  149.4030 C   0  0  0  0  0  2  0  0  0  0  0  0
  159.7620  213.6510  148.1550 C   0  0  0  0  0  2  0  0  0  0  0  0
  159.3020  212.9290  146.8870 C   0  0  2  0  0  3  0  0  0  0  0  0
  161.8420  213.6780  143.8140 O   0  0  0  0  0  0  0  0  0  0  0  0
  161.5720  213.2530  146.1860 C   0  0  0  0  0  2  0  0  0  0  0  0
  161.0140  212.5810  143.5160 C   0  0  0  0  0  2  0  0  0  0  0  0
  160.1710  213.2760  145.7460 N   0  0  0  0  0  0  0  0  0  0  0  0
  159.9460  212.3790  144.6000 C   0  0  0  0  0  2  0  0  0  0  0  0
  162.5350  213.3440  144.9930 C   0  0  0  0  0  2  0  0  0  0  0  0
  157.8170  213.1280  146.6410 C   0  0  0  0  0  0  0  0  0  0  0  0
  157.0670  212.1460  146.3980 O   0  0  0  0  0  0  0  0  0  0  0  0
  157.2330  214.4210  146.7840 N   0  0  0  0  0  1  0  0  0  0  0  0
  161.1760  211.6960  156.5730 C   0  0  0  0  0  2  0  0  0  0  0  0
  159.8250  211.8320  157.2610 C   0  0  0  0  0  2  0  0  0  0  0  0
  157.7620  213.2310  157.1830 C   0  0  0  0  0  1  0  0  0  0  0  0
  159.2780  213.2460  157.1310 C   0  0  0  0  0  2  0  0  0  0  0  0
  1  9  1  6  0  0  0
  1 12  1  0  0  0  0
  1  8  1  0  0  0  0
  2 10  1  0  0  0  0
  3 30  1  0  0  0  0
  3 12  1  0  0  0  0
  5  6  1  0  0  0  0
  6  4  2  0  0  0  0
  6 45  1  0  0  0  0
  7  5  1  0  0  0  0
  8 10  2  0  0  0  0
  8  5  1  0  0  0  0
  9 11  1  0  0  0  0
 11  2  2  0  0  0  0
 12  7  2  0  0  0  0
 14 16  1  0  0  0  0
 15 14  2  0  0  0  0
 15 18  1  0  0  0  0
 16 19  1  0  0  0  0
 17 20  1  0  0  0  0
 17 11  1  0  0  0  0
 18 19  1  0  0  0  0
 19 20  1  0  0  0  0
 20 13  2  0  0  0  0
 22 23  1  0  0  0  0
 22 28  1  1  0  0  0
 23 15  1  1  0  0  0
 24 23  1  0  0  0  0
 25 26  1  0  0  0  0
 25 24  1  0  0  0  0
 26 21  1  6  0  0  0
 26 22  1  0  0  0  0
 27 28  1  0  0  0  0
 30 29  1  1  0  0  0
 32 31  1  1  0  0  0
 32 30  1  0  0  0  0
 33 32  1  0  0  0  0
 34 33  1  0  0  0  0
 35 34  1  1  0  0  0
 36 41  1  0  0  0  0
 38 36  1  0  0  0  0
 38 40  1  0  0  0  0
 39 37  1  0  0  0  0
 39 35  1  0  0  0  0
 40 39  1  0  0  0  0
 41 37  1  0  0  0  0
 42 44  1  0  0  0  0
 42 35  1  0  0  0  0
 43 42  2  0  0  0  0
 45 46  1  0  0  0  0
 48 47  1  0  0  0  0
 48 46  1  0  0  0  0
M  END
>  <MODEL>
4

>  <REMARK>
 VINA RESULT:      -5.4      3.199      8.492
  Name = 
  13 active torsions:
  status: ('A' for Active; 'I' for Inactive)
    1  A    between atoms: C_5  and  C_14
    2  A    between atoms: C_7  and  C_10
    3  A    between atoms: C_9  and  C_26
    4  A    between atoms: C_9  and  C_39
    5  A    between atoms: N_13  and  C_40
    6  A    between atoms: C_17  and  C_32
    7  A    between atoms: N_19  and  C_30
    8  A    between atoms: C_26  and  C_27
    9  A    between atoms: C_30  and  C_36
   10  A    between atoms: C_32  and  C_34
   11  A    between atoms: C_32  and  N_42
   12  A    between atoms: C_34  and  C_43
   13  A    between atoms: C_36  and  C_43
                            x       y       z     vdW  Elec       q    Type
                         _______ _______ _______ _____ _____    ______ ____

>  <TORSDO>
F 13

$$$$
=
 OpenBabel11052410123D

 48 52  0  0  1  0  0  0  0  0999 V2000
  160.6810  207.5570  151.1650 C   0  0  2  0  0  3  0  0  0  0  0  0
  161.3320  207.7330  148.3480 C   0  0  0  0  0  3  0  0  0  0  0  0
  160.7850  207.6260  153.7410 N   0  0  0  0  0  2  0  0  0  0  0  0
  161.2450  203.5390  149.4920 O   0  0  0  0  0  0  0  0  0  0  0  0
  160.9870  205.1990  151.1220 N   0  0  0  0  0  0  0  0  0  0  0  0
  161.1990  203.8400  150.7130 C   0  0  0  0  0  0  0  0  0  0  0  0
  160.9770  205.6170  152.4540 N   0  0  0  0  0  0  0  0  0  0  0  0
  160.8860  206.3570  150.3040 C   0  0  0  0  0  0  0  0  0  0  0  0
  162.0100  208.7490  150.8090 S   0  0  0  0  0  0  0  0  0  0  0  0
  161.1870  206.4190  149.0040 C   0  0  0  0  0  3  0  0  0  0  0  0
  161.5830  208.8500  149.0440 C   0  0  0  0  0  0  0  0  0  0  0  0
  160.8390  206.9050  152.5090 C   0  0  0  0  0  0  0  0  0  0  0  0
  162.2900  211.5540  150.0790 N   0  0  0  0  0  2  0  0  0  0  0  0
  162.7720  214.4450  147.0390 N   0  0  0  0  0  0  0  0  0  0  0  0
  162.3850  213.6630  146.0760 C   0  0  0  0  0  0  0  0  0  0  0  0
  162.7000  213.7150  148.2290 N   0  0  0  0  0  2  0  0  0  0  0  0
  161.6090  210.0960  148.3340 N   0  0  0  0  0  2  0  0  0  0  0  0
  162.0380  212.3530  146.5230 N   0  0  0  0  0  2  0  0  0  0  0  0
  162.2460  212.4390  147.8990 N   0  0  0  0  0  0  0  0  0  0  0  0
  162.0920  211.3560  148.8160 C   0  0  0  0  0  0  0  0  0  0  0  0
  160.1460  212.9560  141.9390 C   0  0  0  0  0  1  0  0  0  0  0  0
  160.9730  214.0620  143.9930 C   0  0  1  0  0  3  0  0  0  0  0  0
  162.3570  214.0700  144.6310 C   0  0  2  0  0  3  0  0  0  0  0  0
  163.2070  213.1790  143.8450 N   0  0  0  0  0  2  0  0  0  0  0  0
  162.3380  212.4060  142.9560 C   0  0  0  0  0  2  0  0  0  0  0  0
  160.8930  212.7630  143.2420 C   0  0  2  0  0  3  0  0  0  0  0  0
  159.0060  213.1750  145.0950 O   0  0  0  0  0  1  0  0  0  0  0  0
  159.7750  214.3280  144.9110 C   0  0  0  0  0  2  0  0  0  0  0  0
  162.4140  207.1930  155.5070 C   0  0  0  0  0  1  0  0  0  0  0  0
  160.9840  206.9910  155.0400 C   0  0  1  0  0  3  0  0  0  0  0  0
  160.6860  207.8650  157.2610 O   0  0  0  0  0  1  0  0  0  0  0  0
  160.0170  207.5580  156.0720 C   0  0  1  0  0  3  0  0  0  0  0  0
  159.3240  208.7970  155.5170 C   0  0  0  0  0  2  0  0  0  0  0  0
  160.3050  209.9370  155.2900 C   0  0  0  0  0  2  0  0  0  0  0  0
  159.5920  211.2890  155.2160 C   0  0  2  0  0  3  0  0  0  0  0  0
  155.7150  211.1980  156.4050 O   0  0  0  0  0  0  0  0  0  0  0  0
  157.9440  212.0790  156.7690 C   0  0  0  0  0  2  0  0  0  0  0  0
  155.8060  211.5110  155.0380 C   0  0  0  0  0  2  0  0  0  0  0  0
  158.1870  211.1610  155.6490 N   0  0  0  0  0  0  0  0  0  0  0  0
  157.2530  211.4010  154.5370 C   0  0  0  0  0  2  0  0  0  0  0  0
  156.4460  212.1870  157.0900 C   0  0  0  0  0  2  0  0  0  0  0  0
  159.7850  211.9450  153.8610 C   0  0  0  0  0  0  0  0  0  0  0  0
  160.2300  211.2860  152.8840 O   0  0  0  0  0  0  0  0  0  0  0  0
  159.3670  213.2930  153.6510 N   0  0  0  0  0  1  0  0  0  0  0  0
  161.3280  202.7600  151.7360 C   0  0  0  0  0  2  0  0  0  0  0  0
  161.5920  201.4180  151.0700 C   0  0  0  0  0  2  0  0  0  0  0  0
  161.1910  200.6400  148.7350 C   0  0  0  0  0  1  0  0  0  0  0  0
  160.5350  201.1020  150.0220 C   0  0  0  0  0  2  0  0  0  0  0  0
  1  8  1  6  0  0  0
  1 12  1  0  0  0  0
  2 10  1  0  0  0  0
  2 11  2  0  0  0  0
  3 30  1  0  0  0  0
  4  6  2  0  0  0  0
  5  7  1  0  0  0  0
  6  5  1  0  0  0  0
  6 45  1  0  0  0  0
  7 12  2  0  0  0  0
  8  5  1  0  0  0  0
  9  1  1  0  0  0  0
 10  8  2  0  0  0  0
 11  9  1  0  0  0  0
 12  3  1  0  0  0  0
 14 16  1  0  0  0  0
 15 18  1  0  0  0  0
 15 14  2  0  0  0  0
 17 20  1  0  0  0  0
 17 11  1  0  0  0  0
 18 19  1  0  0  0  0
 19 16  1  0  0  0  0
 19 20  1  0  0  0  0
 20 13  2  0  0  0  0
 22 23  1  0  0  0  0
 22 28  1  1  0  0  0
 23 15  1  1  0  0  0
 24 23  1  0  0  0  0
 25 26  1  0  0  0  0
 25 24  1  0  0  0  0
 26 21  1  6  0  0  0
 26 22  1  0  0  0  0
 28 27  1  0  0  0  0
 30 29  1  1  0  0  0
 30 32  1  0  0  0  0
 32 31  1  1  0  0  0
 33 32  1  0  0  0  0
 34 33  1  0  0  0  0
 35 34  1  6  0  0  0
 35 39  1  0  0  0  0
 36 41  1  0  0  0  0
 37 41  1  0  0  0  0
 38 36  1  0  0  0  0
 39 37  1  0  0  0  0
 40 38  1  0  0  0  0
 40 39  1  0  0  0  0
 42 35  1  0  0  0  0
 43 42  2  0  0  0  0
 44 42  1  0  0  0  0
 46 45  1  0  0  0  0
 47 48  1  0  0  0  0
 48 46  1  0  0  0  0
M  END
>  <MODEL>
5

>  <REMARK>
 VINA RESULT:      -5.0      2.967      8.139
  Name = 
  13 active torsions:
  status: ('A' for Active; 'I' for Inactive)
    1  A    between atoms: C_5  and  C_14
    2  A    between atoms: C_7  and  C_10
    3  A    between atoms: C_9  and  C_26
    4  A    between atoms: C_9  and  C_39
    5  A    between atoms: N_13  and  C_40
    6  A    between atoms: C_17  and  C_32
    7  A    between atoms: N_19  and  C_30
    8  A    between atoms: C_26  and  C_27
    9  A    between atoms: C_30  and  C_36
   10  A    between atoms: C_32  and  C_34
   11  A    between atoms: C_32  and  N_42
   12  A    between atoms: C_34  and  C_43
   13  A    between atoms: C_36  and  C_43
                            x       y       z     vdW  Elec       q    Type
                         _______ _______ _______ _____ _____    ______ ____

>  <TORSDO>
F 13

$$$$
=
 OpenBabel11052410123D

 48 52  0  0  1  0  0  0  0  0999 V2000
  160.7020  207.7700  151.0950 C   0  0  2  0  0  3  0  0  0  0  0  0
  161.4790  207.8980  148.3070 C   0  0  0  0  0  3  0  0  0  0  0  0
  160.6780  207.9210  153.6700 N   0  0  0  0  0  2  0  0  0  0  0  0
  161.5560  203.7410  149.5800 O   0  0  0  0  0  0  0  0  0  0  0  0
  161.1330  205.4320  151.1420 N   0  0  0  0  0  0  0  0  0  0  0  0
  161.4360  204.0750  150.7880 C   0  0  0  0  0  0  0  0  0  0  0  0
  161.0370  205.8880  152.4580 N   0  0  0  0  0  0  0  0  0  0  0  0
  161.0120  206.5580  150.2840 C   0  0  0  0  0  0  0  0  0  0  0  0
  161.9830  209.0220  150.7630 S   0  0  0  0  0  0  0  0  0  0  0  0
  161.3710  206.5980  148.9980 C   0  0  0  0  0  3  0  0  0  0  0  0
  161.6370  209.0470  148.9780 C   0  0  0  0  0  0  0  0  0  0  0  0
  160.8290  207.1680  152.4650 C   0  0  0  0  0  0  0  0  0  0  0  0
  162.8420  211.6710  149.7170 N   0  0  0  0  0  2  0  0  0  0  0  0
  162.9210  214.4420  146.5310 N   0  0  0  0  0  0  0  0  0  0  0  0
  162.2440  213.6930  145.7120 C   0  0  0  0  0  0  0  0  0  0  0  0
  163.0450  213.7430  147.7360 N   0  0  0  0  0  2  0  0  0  0  0  0
  161.6310  210.2710  148.2310 N   0  0  0  0  0  2  0  0  0  0  0  0
  161.8720  212.4370  146.2790 N   0  0  0  0  0  2  0  0  0  0  0  0
  162.3960  212.5210  147.5690 N   0  0  0  0  0  0  0  0  0  0  0  0
  162.3420  211.4770  148.5400 C   0  0  0  0  0  0  0  0  0  0  0  0
  159.3680  212.7680  142.0390 C   0  0  0  0  0  1  0  0  0  0  0  0
  160.4600  213.9590  143.9130 C   0  0  1  0  0  3  0  0  0  0  0  0
  161.9310  214.0770  144.2960 C   0  0  2  0  0  3  0  0  0  0  0  0
  162.6920  213.2410  143.3710 N   0  0  0  0  0  2  0  0  0  0  0  0
  161.7400  212.3950  142.6500 C   0  0  0  0  0  2  0  0  0  0  0  0
  160.3460  212.6480  143.1880 C   0  0  2  0  0  3  0  0  0  0  0  0
  158.4330  213.1670  144.9780 O   0  0  0  0  0  1  0  0  0  0  0  0
  159.4270  214.1480  145.0290 C   0  0  0  0  0  2  0  0  0  0  0  0
  162.3110  207.0180  155.2440 C   0  0  0  0  0  1  0  0  0  0  0  0
  160.8470  207.3370  154.9960 C   0  0  1  0  0  3  0  0  0  0  0  0
  161.3610  209.1100  156.5370 O   0  0  0  0  0  1  0  0  0  0  0  0
  160.3330  208.2840  156.0740 C   0  0  1  0  0  3  0  0  0  0  0  0
  159.1820  209.1210  155.5290 C   0  0  0  0  0  2  0  0  0  0  0  0
  159.5670  210.5870  155.3920 C   0  0  0  0  0  2  0  0  0  0  0  0
  158.4070  211.4270  154.8540 C   0  0  2  0  0  3  0  0  0  0  0  0
  159.6260  213.9310  151.9050 O   0  0  0  0  0  0  0  0  0  0  0  0
  159.5640  211.6670  152.7660 C   0  0  0  0  0  2  0  0  0  0  0  0
  158.2440  214.0620  152.1240 C   0  0  0  0  0  2  0  0  0  0  0  0
  158.8890  212.3940  153.8490 N   0  0  0  0  0  0  0  0  0  0  0  0
  157.7930  213.2350  153.3370 C   0  0  0  0  0  2  0  0  0  0  0  0
  159.8510  212.5830  151.5690 C   0  0  0  0  0  2  0  0  0  0  0  0
  157.5900  212.0320  155.9810 C   0  0  0  0  0  0  0  0  0  0  0  0
  158.0560  212.9670  156.6850 O   0  0  0  0  0  0  0  0  0  0  0  0
  156.2420  211.6170  156.1920 N   0  0  0  0  0  1  0  0  0  0  0  0
  161.5720  203.0350  151.8490 C   0  0  0  0  0  2  0  0  0  0  0  0
  160.6330  201.8680  151.5820 C   0  0  0  0  0  2  0  0  0  0  0  0
  160.2750  200.9530  149.2890 C   0  0  0  0  0  1  0  0  0  0  0  0
  161.1850  200.9480  150.5030 C   0  0  0  0  0  2  0  0  0  0  0  0
  1  8  1  6  0  0  0
  1 12  1  0  0  0  0
  2 11  2  0  0  0  0
  2 10  1  0  0  0  0
  3 30  1  0  0  0  0
  4  6  2  0  0  0  0
  5  7  1  0  0  0  0
  6  5  1  0  0  0  0
  6 45  1  0  0  0  0
  7 12  2  0  0  0  0
  8  5  1  0  0  0  0
  9  1  1  0  0  0  0
 10  8  2  0  0  0  0
 11  9  1  0  0  0  0
 12  3  1  0  0  0  0
 14 16  1  0  0  0  0
 15 18  1  0  0  0  0
 15 14  2  0  0  0  0
 17 20  1  0  0  0  0
 17 11  1  0  0  0  0
 18 19  1  0  0  0  0
 19 16  1  0  0  0  0
 19 20  1  0  0  0  0
 20 13  2  0  0  0  0
 22 23  1  0  0  0  0
 22 28  1  1  0  0  0
 23 15  1  1  0  0  0
 24 23  1  0  0  0  0
 25 26  1  0  0  0  0
 25 24  1  0  0  0  0
 26 21  1  6  0  0  0
 26 22  1  0  0  0  0
 27 28  1  0  0  0  0
 30 29  1  1  0  0  0
 30 32  1  0  0  0  0
 32 31  1  6  0  0  0
 33 32  1  0  0  0  0
 34 33  1  0  0  0  0
 35 34  1  1  0  0  0
 35 42  1  0  0  0  0
 36 38  1  0  0  0  0
 37 39  1  0  0  0  0
 38 40  1  0  0  0  0
 39 35  1  0  0  0  0
 40 39  1  0  0  0  0
 41 36  1  0  0  0  0
 41 37  1  0  0  0  0
 42 44  1  0  0  0  0
 42 43  2  0  0  0  0
 46 45  1  0  0  0  0
 47 48  1  0  0  0  0
 48 46  1  0  0  0  0
M  END
>  <MODEL>
6

>  <REMARK>
 VINA RESULT:      -4.6      2.877      7.780
  Name = 
  13 active torsions:
  status: ('A' for Active; 'I' for Inactive)
    1  A    between atoms: C_5  and  C_14
    2  A    between atoms: C_7  and  C_10
    3  A    between atoms: C_9  and  C_26
    4  A    between atoms: C_9  and  C_39
    5  A    between atoms: N_13  and  C_40
    6  A    between atoms: C_17  and  C_32
    7  A    between atoms: N_19  and  C_30
    8  A    between atoms: C_26  and  C_27
    9  A    between atoms: C_30  and  C_36
   10  A    between atoms: C_32  and  C_34
   11  A    between atoms: C_32  and  N_42
   12  A    between atoms: C_34  and  C_43
   13  A    between atoms: C_36  and  C_43
                            x       y       z     vdW  Elec       q    Type
                         _______ _______ _______ _____ _____    ______ ____

>  <TORSDO>
F 13

$$$$
