=
 OpenBabel11052410143D

 25 28  0  0  1  0  0  0  0  0999 V2000
  160.2280  209.9710  152.6310 C   0  0  2  0  0  3  0  0  0  0  0  0
  162.1860  208.3400  151.0190 C   0  0  0  0  0  2  0  0  0  0  0  0
  162.5300  209.7300  151.5640 C   0  0  0  0  0  2  0  0  0  0  0  0
  160.3940  208.4520  152.8520 C   0  0  1  0  0  3  0  0  0  0  0  0
  160.8530  207.7820  151.5480 C   0  0  2  0  0  3  0  0  0  0  0  0
  161.3390  208.1210  154.0080 C   0  0  0  0  0  1  0  0  0  0  0  0
  161.2820  210.5990  151.7010 C   0  0  0  0  0  2  0  0  0  0  0  0
  160.9370  206.3690  151.6930 O   0  0  0  0  0  0  0  0  0  0  0  0
  161.1940  202.8230  147.4760 N   0  0  0  0  0  0  0  0  0  0  0  0
  160.8360  203.3710  152.1320 C   0  0  0  0  0  1  0  0  0  0  0  0
  161.1400  203.7890  148.4050 C   0  0  0  0  0  0  0  0  0  0  0  0
  161.1390  205.1620  148.1940 C   0  0  0  0  0  3  0  0  0  0  0  0
  161.1770  200.3960  147.6630 N   0  0  0  0  0  1  0  0  0  0  0  0
  161.0640  203.2460  149.6520 C   0  0  0  0  0  0  0  0  0  0  0  0
  161.0670  205.9900  149.3260 C   0  0  0  0  0  3  0  0  0  0  0  0
  161.0630  201.9050  149.5710 N   0  0  0  0  0  2  0  0  0  0  0  0
  161.0000  205.4520  150.6320 C   0  0  0  0  0  0  0  0  0  0  0  0
  161.1460  201.6980  148.2320 C   0  0  0  0  0  0  0  0  0  0  0  0
  160.9860  204.0350  150.8030 C   0  0  0  0  0  0  0  0  0  0  0  0
  160.1470  210.6970  153.8910 N   0  0  0  0  0  2  0  0  0  0  0  0
  158.1650  211.9370  153.2340 C   0  0  0  0  0  2  0  0  0  0  0  0
  158.5650  212.4920  154.5840 C   0  0  2  0  0  3  0  0  0  0  0  0
  159.6360  212.0280  153.5910 C   0  0  1  0  0  3  0  0  0  0  0  0
  158.2240  211.4790  155.6700 C   0  0  0  0  0  2  0  0  0  0  0  0
  156.9080  211.0480  155.5090 O   0  0  0  0  0  1  0  0  0  0  0  0
  1  4  1  0  0  0  0
  1 20  1  1  0  0  0
  2  5  1  0  0  0  0
  2  3  1  0  0  0  0
  3  7  1  0  0  0  0
  4  6  1  1  0  0  0
  5  8  1  1  0  0  0
  5  4  1  0  0  0  0
  7  1  1  0  0  0  0
  9 18  2  0  0  0  0
  9 11  1  0  0  0  0
 11 14  1  0  0  0  0
 12 11  2  0  0  0  0
 12 15  1  0  0  0  0
 13 18  1  0  0  0  0
 14 19  2  0  0  0  0
 15 17  2  0  0  0  0
 16 14  1  0  0  0  0
 17 19  1  0  0  0  0
 17  8  1  0  0  0  0
 18 16  1  0  0  0  0
 19 10  1  0  0  0  0
 21 23  1  0  0  0  0
 21 22  1  0  0  0  0
 22 24  1  1  0  0  0
 23 20  1  1  0  0  0
 23 22  1  0  0  0  0
 25 24  1  0  0  0  0
M  END
>  <MODEL>
1

>  <REMARK>
 VINA RESULT:      -7.6      0.000      0.000
  Name = 
  5 active torsions:
  status: ('A' for Active; 'I' for Inactive)
    1  A    between atoms: C_1  and  N_19
    2  A    between atoms: C_6  and  C_8
    3  A    between atoms: C_9  and  O_17
    4  A    between atoms: O_17  and  C_20
    5  A    between atoms: N_19  and  C_23
                            x       y       z     vdW  Elec       q    Type
                         _______ _______ _______ _____ _____    ______ ____

>  <TORSDO>
F 5

$$$$
=
 OpenBabel11052410143D

 25 28  0  0  1  0  0  0  0  0999 V2000
  160.4620  205.8480  149.6060 C   0  0  2  0  0  3  0  0  0  0  0  0
  161.8050  205.7370  152.3030 C   0  0  0  0  0  2  0  0  0  0  0  0
  161.9580  204.6210  151.2630 C   0  0  0  0  0  2  0  0  0  0  0  0
  161.1310  207.0910  150.2310 C   0  0  1  0  0  3  0  0  0  0  0  0
  161.0940  206.9890  151.7630 C   0  0  2  0  0  3  0  0  0  0  0  0
  162.5560  207.3140  149.7240 C   0  0  0  0  0  1  0  0  0  0  0  0
  160.7330  204.5320  150.3570 C   0  0  0  0  0  2  0  0  0  0  0  0
  161.6290  208.1570  152.3740 O   0  0  0  0  0  0  0  0  0  0  0  0
  158.6560  212.0450  154.9180 N   0  0  0  0  0  0  0  0  0  0  0  0
  160.9600  207.9660  155.3250 C   0  0  0  0  0  1  0  0  0  0  0  0
  159.3660  211.1770  154.1820 C   0  0  0  0  0  0  0  0  0  0  0  0
  159.7100  211.2940  152.8410 C   0  0  0  0  0  3  0  0  0  0  0  0
  157.9930  212.0140  157.2610 N   0  0  0  0  0  1  0  0  0  0  0  0
  159.7520  210.1140  154.9400 C   0  0  0  0  0  0  0  0  0  0  0  0
  160.4720  210.2590  152.2770 C   0  0  0  0  0  3  0  0  0  0  0  0
  159.3060  210.2600  156.1980 N   0  0  0  0  0  2  0  0  0  0  0  0
  160.8750  209.1380  153.0390 C   0  0  0  0  0  0  0  0  0  0  0  0
  158.6450  211.4440  156.1340 C   0  0  0  0  0  0  0  0  0  0  0  0
  160.5160  209.0660  154.4180 C   0  0  0  0  0  0  0  0  0  0  0  0
  160.7790  205.7150  148.1910 N   0  0  0  0  0  2  0  0  0  0  0  0
  161.1760  203.7720  146.7900 C   0  0  0  0  0  2  0  0  0  0  0  0
  162.4750  204.5490  146.7860 C   0  0  2  0  0  3  0  0  0  0  0  0
  161.5960  204.5180  148.0420 C   0  0  1  0  0  3  0  0  0  0  0  0
  162.3150  205.8000  145.9300 C   0  0  0  0  0  2  0  0  0  0  0  0
  161.6420  205.4760  144.7530 O   0  0  0  0  0  1  0  0  0  0  0  0
  1 20  1  6  0  0  0
  1  4  1  0  0  0  0
  1  7  1  0  0  0  0
  3  2  1  0  0  0  0
  4  6  1  6  0  0  0
  4  5  1  0  0  0  0
  5  2  1  0  0  0  0
  5  8  1  1  0  0  0
  7  3  1  0  0  0  0
  8 17  1  0  0  0  0
  9 18  2  0  0  0  0
 11  9  1  0  0  0  0
 11 14  1  0  0  0  0
 12 11  2  0  0  0  0
 14 16  1  0  0  0  0
 15 12  1  0  0  0  0
 15 17  2  0  0  0  0
 17 19  1  0  0  0  0
 18 16  1  0  0  0  0
 18 13  1  0  0  0  0
 19 14  2  0  0  0  0
 19 10  1  0  0  0  0
 21 23  1  0  0  0  0
 22 24  1  6  0  0  0
 22 21  1  0  0  0  0
 22 23  1  0  0  0  0
 23 20  1  6  0  0  0
 25 24  1  0  0  0  0
M  END
>  <MODEL>
2

>  <REMARK>
 VINA RESULT:      -7.6      2.359      8.634
  Name = 
  5 active torsions:
  status: ('A' for Active; 'I' for Inactive)
    1  A    between atoms: C_1  and  N_19
    2  A    between atoms: C_6  and  C_8
    3  A    between atoms: C_9  and  O_17
    4  A    between atoms: O_17  and  C_20
    5  A    between atoms: N_19  and  C_23
                            x       y       z     vdW  Elec       q    Type
                         _______ _______ _______ _____ _____    ______ ____

>  <TORSDO>
F 5

$$$$
=
 OpenBabel11052410143D

 25 28  0  0  1  0  0  0  0  0999 V2000
  160.1640  209.6420  152.7760 C   0  0  2  0  0  3  0  0  0  0  0  0
  162.3920  208.5920  151.0360 C   0  0  0  0  0  2  0  0  0  0  0  0
  162.5300  209.8770  151.8600 C   0  0  0  0  0  2  0  0  0  0  0  0
  160.5070  208.1380  152.7170 C   0  0  1  0  0  3  0  0  0  0  0  0
  161.1140  207.7950  151.3480 C   0  0  2  0  0  3  0  0  0  0  0  0
  161.4240  207.6930  153.8570 C   0  0  0  0  0  1  0  0  0  0  0  0
  161.1780  210.5560  152.0650 C   0  0  0  0  0  2  0  0  0  0  0  0
  161.3670  206.3990  151.2280 O   0  0  0  0  0  0  0  0  0  0  0  0
  161.3250  203.6260  146.4600 N   0  0  0  0  0  0  0  0  0  0  0  0
  160.7870  203.4250  151.1270 C   0  0  0  0  0  1  0  0  0  0  0  0
  161.3640  204.4160  147.5430 C   0  0  0  0  0  0  0  0  0  0  0  0
  161.5840  205.7870  147.5780 C   0  0  0  0  0  3  0  0  0  0  0  0
  160.9280  201.2360  146.2150 N   0  0  0  0  0  1  0  0  0  0  0  0
  161.1350  203.6890  148.6720 C   0  0  0  0  0  0  0  0  0  0  0  0
  161.5730  206.4120  148.8360 C   0  0  0  0  0  3  0  0  0  0  0  0
  160.9360  202.3990  148.3550 N   0  0  0  0  0  2  0  0  0  0  0  0
  161.3500  205.6780  150.0230 C   0  0  0  0  0  0  0  0  0  0  0  0
  161.0640  202.4120  147.0040 C   0  0  0  0  0  0  0  0  0  0  0  0
  161.1120  204.2730  149.9410 C   0  0  0  0  0  0  0  0  0  0  0  0
  159.9270  210.0900  154.1410 N   0  0  0  0  0  2  0  0  0  0  0  0
  160.0850  212.1380  155.4370 C   0  0  0  0  0  2  0  0  0  0  0  0
  161.3540  211.3680  155.7350 C   0  0  2  0  0  3  0  0  0  0  0  0
  160.7160  211.2990  154.3430 C   0  0  1  0  0  3  0  0  0  0  0  0
  161.0290  210.1870  156.6420 C   0  0  0  0  0  2  0  0  0  0  0  0
  162.1700  209.4060  156.8160 O   0  0  0  0  0  1  0  0  0  0  0  0
  1 20  1  1  0  0  0
  2  5  1  0  0  0  0
  2  3  1  0  0  0  0
  3  7  1  0  0  0  0
  4  1  1  0  0  0  0
  4  6  1  1  0  0  0
  5  8  1  1  0  0  0
  5  4  1  0  0  0  0
  7  1  1  0  0  0  0
  9 18  2  0  0  0  0
  9 11  1  0  0  0  0
 11 12  2  0  0  0  0
 11 14  1  0  0  0  0
 12 15  1  0  0  0  0
 13 18  1  0  0  0  0
 14 19  2  0  0  0  0
 15 17  2  0  0  0  0
 16 14  1  0  0  0  0
 17  8  1  0  0  0  0
 18 16  1  0  0  0  0
 19 17  1  0  0  0  0
 19 10  1  0  0  0  0
 21 22  1  0  0  0  0
 22 24  1  1  0  0  0
 23 20  1  1  0  0  0
 23 21  1  0  0  0  0
 23 22  1  0  0  0  0
 24 25  1  0  0  0  0
M  END
>  <MODEL>
3

>  <REMARK>
 VINA RESULT:      -7.5      1.674      1.792
  Name = 
  5 active torsions:
  status: ('A' for Active; 'I' for Inactive)
    1  A    between atoms: C_1  and  N_19
    2  A    between atoms: C_6  and  C_8
    3  A    between atoms: C_9  and  O_17
    4  A    between atoms: O_17  and  C_20
    5  A    between atoms: N_19  and  C_23
                            x       y       z     vdW  Elec       q    Type
                         _______ _______ _______ _____ _____    ______ ____

>  <TORSDO>
F 5

$$$$
=
 OpenBabel11052410143D

 25 28  0  0  1  0  0  0  0  0999 V2000
  160.4340  205.8040  149.6020 C   0  0  2  0  0  3  0  0  0  0  0  0
  161.7340  205.6580  152.3190 C   0  0  0  0  0  2  0  0  0  0  0  0
  161.9160  204.5620  151.2620 C   0  0  0  0  0  2  0  0  0  0  0  0
  161.0800  207.0420  150.2590 C   0  0  1  0  0  3  0  0  0  0  0  0
  161.0180  206.9130  151.7890 C   0  0  2  0  0  3  0  0  0  0  0  0
  162.5120  207.2890  149.7810 C   0  0  0  0  0  1  0  0  0  0  0  0
  160.7070  204.4770  150.3340 C   0  0  0  0  0  2  0  0  0  0  0  0
  161.5320  208.0750  152.4290 O   0  0  0  0  0  0  0  0  0  0  0  0
  159.1530  210.6140  156.7090 N   0  0  0  0  0  0  0  0  0  0  0  0
  160.6310  210.9650  152.2590 C   0  0  0  0  0  1  0  0  0  0  0  0
  159.7380  209.8820  155.7510 C   0  0  0  0  0  0  0  0  0  0  0  0
  160.1060  208.5440  155.8190 C   0  0  0  0  0  3  0  0  0  0  0  0
  158.4220  212.9360  156.7510 N   0  0  0  0  0  1  0  0  0  0  0  0
  159.9300  210.6310  154.6290 C   0  0  0  0  0  0  0  0  0  0  0  0
  160.7010  207.9780  154.6800 C   0  0  0  0  0  3  0  0  0  0  0  0
  159.4700  211.8770  154.8250 N   0  0  0  0  0  2  0  0  0  0  0  0
  160.9230  208.7370  153.5080 C   0  0  0  0  0  0  0  0  0  0  0  0
  159.0120  211.8180  156.1010 C   0  0  0  0  0  0  0  0  0  0  0  0
  160.5140  210.1040  153.4740 C   0  0  0  0  0  0  0  0  0  0  0  0
  160.7770  205.6990  148.1900 N   0  0  0  0  0  2  0  0  0  0  0  0
  161.1810  203.7750  146.7650 C   0  0  0  0  0  2  0  0  0  0  0  0
  162.4810  204.5490  146.7830 C   0  0  2  0  0  3  0  0  0  0  0  0
  161.5920  204.5020  148.0310 C   0  0  1  0  0  3  0  0  0  0  0  0
  162.3310  205.8120  145.9430 C   0  0  0  0  0  2  0  0  0  0  0  0
  161.7170  205.4960  144.7320 O   0  0  0  0  0  1  0  0  0  0  0  0
  1 20  1  6  0  0  0
  1  4  1  0  0  0  0
  1  7  1  0  0  0  0
  3  2  1  0  0  0  0
  4  6  1  6  0  0  0
  4  5  1  0  0  0  0
  5  2  1  0  0  0  0
  5  8  1  1  0  0  0
  7  3  1  0  0  0  0
  8 17  1  0  0  0  0
 10 19  1  0  0  0  0
 11 12  1  0  0  0  0
 11  9  1  0  0  0  0
 14 16  1  0  0  0  0
 14 11  2  0  0  0  0
 15 12  2  0  0  0  0
 16 18  1  0  0  0  0
 17 15  1  0  0  0  0
 18  9  2  0  0  0  0
 18 13  1  0  0  0  0
 19 17  2  0  0  0  0
 19 14  1  0  0  0  0
 21 22  1  0  0  0  0
 21 23  1  0  0  0  0
 22 24  1  6  0  0  0
 22 23  1  0  0  0  0
 23 20  1  6  0  0  0
 25 24  1  0  0  0  0
M  END
>  <MODEL>
4

>  <REMARK>
 VINA RESULT:      -7.5      2.383      8.832
  Name = 
  5 active torsions:
  status: ('A' for Active; 'I' for Inactive)
    1  A    between atoms: C_1  and  N_19
    2  A    between atoms: C_6  and  C_8
    3  A    between atoms: C_9  and  O_17
    4  A    between atoms: O_17  and  C_20
    5  A    between atoms: N_19  and  C_23
                            x       y       z     vdW  Elec       q    Type
                         _______ _______ _______ _____ _____    ______ ____

>  <TORSDO>
F 5

$$$$
=
 OpenBabel11052410143D

 25 28  0  0  1  0  0  0  0  0999 V2000
  160.7920  207.5410  152.4510 C   0  0  2  0  0  3  0  0  0  0  0  0
  161.8670  208.7760  149.9200 C   0  0  0  0  0  2  0  0  0  0  0  0
  161.9480  209.4850  151.2770 C   0  0  0  0  0  2  0  0  0  0  0  0
  161.5760  206.7110  151.4140 C   0  0  1  0  0  3  0  0  0  0  0  0
  161.3920  207.3160  150.0140 C   0  0  2  0  0  3  0  0  0  0  0  0
  163.0580  206.5680  151.7660 C   0  0  0  0  0  1  0  0  0  0  0  0
  160.8050  209.0590  152.1960 C   0  0  0  0  0  2  0  0  0  0  0  0
  162.0360  206.5280  149.0190 O   0  0  0  0  0  0  0  0  0  0  0  0
  160.4730  201.4350  147.5890 N   0  0  0  0  0  0  0  0  0  0  0  0
  162.2450  205.5480  146.1570 C   0  0  0  0  0  1  0  0  0  0  0  0
  160.8160  202.6390  148.0690 C   0  0  0  0  0  0  0  0  0  0  0  0
  160.7620  203.0660  149.3900 C   0  0  0  0  0  3  0  0  0  0  0  0
  160.5300  200.5160  145.3350 N   0  0  0  0  0  1  0  0  0  0  0  0
  161.2670  203.4410  147.0650 C   0  0  0  0  0  0  0  0  0  0  0  0
  161.1840  204.3780  149.6630 C   0  0  0  0  0  3  0  0  0  0  0  0
  161.2330  202.7790  145.8970 N   0  0  0  0  0  2  0  0  0  0  0  0
  161.6440  205.2350  148.6370 C   0  0  0  0  0  0  0  0  0  0  0  0
  160.7420  201.5690  146.2670 C   0  0  0  0  0  0  0  0  0  0  0  0
  161.7000  204.7500  147.2950 C   0  0  0  0  0  0  0  0  0  0  0  0
  161.2080  207.2390  153.8140 N   0  0  0  0  0  2  0  0  0  0  0  0
  160.3830  206.9960  156.0850 C   0  0  0  0  0  2  0  0  0  0  0  0
  160.3050  208.4760  155.7790 C   0  0  2  0  0  3  0  0  0  0  0  0
  160.0510  207.4440  154.6750 C   0  0  1  0  0  3  0  0  0  0  0  0
  161.7090  209.0700  155.7820 C   0  0  0  0  0  2  0  0  0  0  0  0
  162.3420  208.7620  156.9850 O   0  0  0  0  0  1  0  0  0  0  0  0
  1 20  1  1  0  0  0
  2  5  1  0  0  0  0
  2  3  1  0  0  0  0
  3  7  1  0  0  0  0
  4  6  1  1  0  0  0
  4  1  1  0  0  0  0
  5  8  1  6  0  0  0
  5  4  1  0  0  0  0
  7  1  1  0  0  0  0
  9 11  1  0  0  0  0
 10 19  1  0  0  0  0
 11 12  1  0  0  0  0
 12 15  2  0  0  0  0
 13 18  1  0  0  0  0
 14 19  1  0  0  0  0
 14 11  2  0  0  0  0
 16 18  1  0  0  0  0
 16 14  1  0  0  0  0
 17  8  1  0  0  0  0
 17 15  1  0  0  0  0
 18  9  2  0  0  0  0
 19 17  2  0  0  0  0
 22 24  1  6  0  0  0
 22 21  1  0  0  0  0
 23 20  1  6  0  0  0
 23 22  1  0  0  0  0
 23 21  1  0  0  0  0
 24 25  1  0  0  0  0
M  END
>  <MODEL>
5

>  <REMARK>
 VINA RESULT:      -7.4      2.484      3.414
  Name = 
  5 active torsions:
  status: ('A' for Active; 'I' for Inactive)
    1  A    between atoms: C_1  and  N_19
    2  A    between atoms: C_6  and  C_8
    3  A    between atoms: C_9  and  O_17
    4  A    between atoms: O_17  and  C_20
    5  A    between atoms: N_19  and  C_23
                            x       y       z     vdW  Elec       q    Type
                         _______ _______ _______ _____ _____    ______ ____

>  <TORSDO>
F 5

$$$$
=
 OpenBabel11052410143D

 25 28  0  0  1  0  0  0  0  0999 V2000
  160.7100  205.3570  150.1980 C   0  0  2  0  0  3  0  0  0  0  0  0
  161.2070  204.8360  153.1260 C   0  0  0  0  0  2  0  0  0  0  0  0
  161.3510  203.7420  152.0620 C   0  0  0  0  0  2  0  0  0  0  0  0
  161.4750  206.3640  151.0830 C   0  0  1  0  0  3  0  0  0  0  0  0
  161.0020  206.2430  152.5390 C   0  0  2  0  0  3  0  0  0  0  0  0
  162.9930  206.2140  150.9780 C   0  0  0  0  0  1  0  0  0  0  0  0
  160.4330  204.0000  150.8700 C   0  0  0  0  0  2  0  0  0  0  0  0
  161.6270  207.2150  153.3700 O   0  0  0  0  0  0  0  0  0  0  0  0
  159.0270  211.3740  155.8930 N   0  0  0  0  0  0  0  0  0  0  0  0
  161.3550  209.9390  152.0680 C   0  0  0  0  0  1  0  0  0  0  0  0
  159.6280  210.2840  155.3930 C   0  0  0  0  0  0  0  0  0  0  0  0
  159.7080  209.0250  155.9740 C   0  0  0  0  0  3  0  0  0  0  0  0
  158.7680  213.6280  155.0080 N   0  0  0  0  0  1  0  0  0  0  0  0
  160.1690  210.5560  154.1730 C   0  0  0  0  0  0  0  0  0  0  0  0
  160.3850  208.0250  155.2590 C   0  0  0  0  0  3  0  0  0  0  0  0
  159.9330  211.8360  153.8400 N   0  0  0  0  0  2  0  0  0  0  0  0
  160.9670  208.2840  153.9970 C   0  0  0  0  0  0  0  0  0  0  0  0
  159.2400  212.2900  154.9150 C   0  0  0  0  0  0  0  0  0  0  0  0
  160.8470  209.5880  153.4270 C   0  0  0  0  0  0  0  0  0  0  0  0
  161.3540  205.1750  148.9040 N   0  0  0  0  0  2  0  0  0  0  0  0
  161.9400  207.0230  147.4410 C   0  0  0  0  0  2  0  0  0  0  0  0
  161.2670  205.9980  146.5540 C   0  0  2  0  0  3  0  0  0  0  0  0
  160.8090  206.1840  148.0050 C   0  0  1  0  0  3  0  0  0  0  0  0
  162.2110  204.8220  146.3320 C   0  0  0  0  0  2  0  0  0  0  0  0
  161.5470  203.8180  145.6280 O   0  0  0  0  0  1  0  0  0  0  0  0
  1 20  1  6  0  0  0
  1  7  1  0  0  0  0
  1  4  1  0  0  0  0
  3  2  1  0  0  0  0
  4  6  1  1  0  0  0
  4  5  1  0  0  0  0
  5  2  1  0  0  0  0
  5  8  1  1  0  0  0
  7  3  1  0  0  0  0
  8 17  1  0  0  0  0
 10 19  1  0  0  0  0
 11  9  1  0  0  0  0
 11 12  1  0  0  0  0
 14 11  2  0  0  0  0
 15 12  2  0  0  0  0
 16 14  1  0  0  0  0
 16 18  1  0  0  0  0
 17 15  1  0  0  0  0
 18 13  1  0  0  0  0
 18  9  2  0  0  0  0
 19 17  2  0  0  0  0
 19 14  1  0  0  0  0
 21 23  1  0  0  0  0
 22 24  1  1  0  0  0
 22 21  1  0  0  0  0
 22 23  1  0  0  0  0
 23 20  1  1  0  0  0
 25 24  1  0  0  0  0
M  END
>  <MODEL>
6

>  <REMARK>
 VINA RESULT:      -7.4      2.331      8.568
  Name = 
  5 active torsions:
  status: ('A' for Active; 'I' for Inactive)
    1  A    between atoms: C_1  and  N_19
    2  A    between atoms: C_6  and  C_8
    3  A    between atoms: C_9  and  O_17
    4  A    between atoms: O_17  and  C_20
    5  A    between atoms: N_19  and  C_23
                            x       y       z     vdW  Elec       q    Type
                         _______ _______ _______ _____ _____    ______ ____

>  <TORSDO>
F 5

$$$$
=
 OpenBabel11052410143D

 25 28  0  0  1  0  0  0  0  0999 V2000
  161.8220  204.6580  148.4760 C   0  0  2  0  0  3  0  0  0  0  0  0
  162.3310  207.5750  147.9120 C   0  0  0  0  0  2  0  0  0  0  0  0
  161.9810  206.5740  146.8050 C   0  0  0  0  0  2  0  0  0  0  0  0
  161.2690  205.7690  149.3930 C   0  0  1  0  0  3  0  0  0  0  0  0
  162.1860  207.0000  149.3310 C   0  0  2  0  0  3  0  0  0  0  0  0
  159.8210  206.1400  149.0690 C   0  0  0  0  0  1  0  0  0  0  0  0
  162.4430  205.1640  147.1620 C   0  0  0  0  0  2  0  0  0  0  0  0
  161.7510  208.0160  150.2280 O   0  0  0  0  0  0  0  0  0  0  0  0
  160.8240  207.2220  155.6070 N   0  0  0  0  0  0  0  0  0  0  0  0
  160.7610  210.2560  152.0150 C   0  0  0  0  0  1  0  0  0  0  0  0
  161.0860  207.2790  154.2930 C   0  0  0  0  0  0  0  0  0  0  0  0
  161.4950  206.2370  153.4700 C   0  0  0  0  0  3  0  0  0  0  0  0
  160.0800  208.9230  157.1830 N   0  0  0  0  0  1  0  0  0  0  0  0
  160.8810  208.5390  153.8200 C   0  0  0  0  0  0  0  0  0  0  0  0
  161.7030  206.5290  152.1120 C   0  0  0  0  0  3  0  0  0  0  0  0
  160.4740  209.3430  154.8160 N   0  0  0  0  0  2  0  0  0  0  0  0
  161.5090  207.8320  151.5990 C   0  0  0  0  0  0  0  0  0  0  0  0
  160.4580  208.4990  155.8790 C   0  0  0  0  0  0  0  0  0  0  0  0
  161.0720  208.8700  152.4760 C   0  0  0  0  0  0  0  0  0  0  0  0
  160.8280  203.6240  148.2170 N   0  0  0  0  0  2  0  0  0  0  0  0
  159.7710  201.6740  149.2050 C   0  0  0  0  0  2  0  0  0  0  0  0
  161.1490  201.2180  148.7770 C   0  0  2  0  0  3  0  0  0  0  0  0
  160.9320  202.6460  149.2910 C   0  0  1  0  0  3  0  0  0  0  0  0
  161.1920  201.0890  147.2590 C   0  0  0  0  0  2  0  0  0  0  0  0
  161.5810  199.7960  146.9110 O   0  0  0  0  0  1  0  0  0  0  0  0
  1 20  1  6  0  0  0
  1  4  1  0  0  0  0
  2  5  1  0  0  0  0
  3  7  1  0  0  0  0
  3  2  1  0  0  0  0
  4  6  1  6  0  0  0
  5  4  1  0  0  0  0
  5  8  1  1  0  0  0
  7  1  1  0  0  0  0
  8 17  1  0  0  0  0
  9 18  2  0  0  0  0
 10 19  1  0  0  0  0
 11  9  1  0  0  0  0
 12 11  2  0  0  0  0
 14 11  1  0  0  0  0
 14 16  1  0  0  0  0
 15 12  1  0  0  0  0
 16 18  1  0  0  0  0
 17 15  2  0  0  0  0
 17 19  1  0  0  0  0
 18 13  1  0  0  0  0
 19 14  2  0  0  0  0
 21 23  1  0  0  0  0
 22 24  1  6  0  0  0
 22 21  1  0  0  0  0
 22 23  1  0  0  0  0
 23 20  1  6  0  0  0
 25 24  1  0  0  0  0
M  END
>  <MODEL>
7

>  <REMARK>
 VINA RESULT:      -7.2      2.525      8.360
  Name = 
  5 active torsions:
  status: ('A' for Active; 'I' for Inactive)
    1  A    between atoms: C_1  and  N_19
    2  A    between atoms: C_6  and  C_8
    3  A    between atoms: C_9  and  O_17
    4  A    between atoms: O_17  and  C_20
    5  A    between atoms: N_19  and  C_23
                            x       y       z     vdW  Elec       q    Type
                         _______ _______ _______ _____ _____    ______ ____

>  <TORSDO>
F 5

$$$$
=
 OpenBabel11052410143D

 25 28  0  0  1  0  0  0  0  0999 V2000
  161.6510  209.7300  154.8800 C   0  0  2  0  0  3  0  0  0  0  0  0
  160.4530  207.0430  154.2220 C   0  0  0  0  0  2  0  0  0  0  0  0
  160.0040  207.8670  155.4340 C   0  0  0  0  0  2  0  0  0  0  0  0
  161.3070  209.3290  153.4300 C   0  0  1  0  0  3  0  0  0  0  0  0
  161.3980  207.8030  153.2760 C   0  0  2  0  0  3  0  0  0  0  0  0
  159.9430  209.8520  152.9770 C   0  0  0  0  0  1  0  0  0  0  0  0
  161.1310  208.7560  155.9530 C   0  0  0  0  0  2  0  0  0  0  0  0
  161.1670  207.4030  151.9300 O   0  0  0  0  0  0  0  0  0  0  0  0
  160.9680  202.1570  150.2380 N   0  0  0  0  0  0  0  0  0  0  0  0
  160.9430  206.6910  148.9910 C   0  0  0  0  0  1  0  0  0  0  0  0
  161.0270  203.3820  150.7810 C   0  0  0  0  0  0  0  0  0  0  0  0
  161.1770  203.7010  152.1240 C   0  0  0  0  0  3  0  0  0  0  0  0
  160.7390  201.4210  147.9280 N   0  0  0  0  0  1  0  0  0  0  0  0
  160.9350  204.3360  149.8140 C   0  0  0  0  0  0  0  0  0  0  0  0
  161.2220  205.0630  152.4640 C   0  0  0  0  0  3  0  0  0  0  0  0
  160.8170  203.7590  148.6070 N   0  0  0  0  0  2  0  0  0  0  0  0
  161.1170  206.0730  151.4810 C   0  0  0  0  0  0  0  0  0  0  0  0
  160.8390  202.4380  148.9170 C   0  0  0  0  0  0  0  0  0  0  0  0
  160.9810  205.7020  150.1090 C   0  0  0  0  0  0  0  0  0  0  0  0
  161.2410  211.0960  155.1760 N   0  0  0  0  0  2  0  0  0  0  0  0
  160.7760  212.4420  157.1430 C   0  0  0  0  0  2  0  0  0  0  0  0
  159.4240  212.0480  156.5910 C   0  0  2  0  0  3  0  0  0  0  0  0
  160.6110  211.0840  156.4900 C   0  0  1  0  0  3  0  0  0  0  0  0
  159.1430  212.8440  155.3220 C   0  0  0  0  0  2  0  0  0  0  0  0
  157.9330  212.4260  154.7680 O   0  0  0  0  0  1  0  0  0  0  0  0
  1 20  1  1  0  0  0
  1  7  1  0  0  0  0
  2  3  1  0  0  0  0
  3  7  1  0  0  0  0
  4  6  1  1  0  0  0
  4  1  1  0  0  0  0
  5  8  1  6  0  0  0
  5  4  1  0  0  0  0
  5  2  1  0  0  0  0
  9 11  1  0  0  0  0
 10 19  1  0  0  0  0
 11 12  1  0  0  0  0
 12 15  2  0  0  0  0
 13 18  1  0  0  0  0
 14 19  1  0  0  0  0
 14 11  2  0  0  0  0
 16 18  1  0  0  0  0
 16 14  1  0  0  0  0
 17  8  1  0  0  0  0
 17 15  1  0  0  0  0
 18  9  2  0  0  0  0
 19 17  2  0  0  0  0
 22 24  1  6  0  0  0
 22 21  1  0  0  0  0
 23 20  1  6  0  0  0
 23 22  1  0  0  0  0
 23 21  1  0  0  0  0
 25 24  1  0  0  0  0
M  END
>  <MODEL>
8

>  <REMARK>
 VINA RESULT:      -7.0      1.494      2.852
  Name = 
  5 active torsions:
  status: ('A' for Active; 'I' for Inactive)
    1  A    between atoms: C_1  and  N_19
    2  A    between atoms: C_6  and  C_8
    3  A    between atoms: C_9  and  O_17
    4  A    between atoms: O_17  and  C_20
    5  A    between atoms: N_19  and  C_23
                            x       y       z     vdW  Elec       q    Type
                         _______ _______ _______ _____ _____    ______ ____

>  <TORSDO>
F 5

$$$$
=
 OpenBabel11052410143D

 25 28  0  0  1  0  0  0  0  0999 V2000
  161.4490  204.3100  148.8870 C   0  0  2  0  0  3  0  0  0  0  0  0
  161.2080  207.2230  149.6240 C   0  0  0  0  0  2  0  0  0  0  0  0
  160.2940  206.5610  148.5860 C   0  0  0  0  0  2  0  0  0  0  0  0
  161.5580  204.7880  150.3510 C   0  0  1  0  0  3  0  0  0  0  0  0
  162.0940  206.2270  150.3910 C   0  0  2  0  0  3  0  0  0  0  0  0
  160.2380  204.6660  151.1140 C   0  0  0  0  0  1  0  0  0  0  0  0
  160.9920  205.3930  147.8940 C   0  0  0  0  0  2  0  0  0  0  0  0
  162.2850  206.6720  151.7290 O   0  0  0  0  0  0  0  0  0  0  0  0
  160.4840  211.4980  153.7030 N   0  0  0  0  0  0  0  0  0  0  0  0
  160.7480  206.8460  154.3370 C   0  0  0  0  0  1  0  0  0  0  0  0
  160.9760  210.3980  153.1150 C   0  0  0  0  0  0  0  0  0  0  0  0
  161.7210  210.3300  151.9440 C   0  0  0  0  0  3  0  0  0  0  0  0
  159.1970  211.8000  155.7470 N   0  0  0  0  0  1  0  0  0  0  0  0
  160.6640  209.2890  153.8420 C   0  0  0  0  0  0  0  0  0  0  0  0
  162.1410  209.0590  151.5180 C   0  0  0  0  0  3  0  0  0  0  0  0
  159.9590  209.6360  154.9300 N   0  0  0  0  0  2  0  0  0  0  0  0
  161.8200  207.8920  152.2470 C   0  0  0  0  0  0  0  0  0  0  0  0
  159.8740  210.9850  154.8000 C   0  0  0  0  0  0  0  0  0  0  0  0
  161.0680  208.0080  153.4550 C   0  0  0  0  0  0  0  0  0  0  0  0
  160.6260  203.1140  148.7670 N   0  0  0  0  0  2  0  0  0  0  0  0
  160.3080  200.9140  149.7460 C   0  0  0  0  0  2  0  0  0  0  0  0
  161.4380  200.7580  148.7520 C   0  0  2  0  0  3  0  0  0  0  0  0
  161.2760  202.0630  149.5400 C   0  0  1  0  0  3  0  0  0  0  0  0
  160.8770  200.7980  147.3360 C   0  0  0  0  0  2  0  0  0  0  0  0
  161.4310  199.7610  146.5860 O   0  0  0  0  0  1  0  0  0  0  0  0
  1 20  1  1  0  0  0
  1  4  1  0  0  0  0
  2  5  1  0  0  0  0
  3  2  1  0  0  0  0
  4  5  1  0  0  0  0
  4  6  1  6  0  0  0
  5  8  1  1  0  0  0
  7  3  1  0  0  0  0
  7  1  1  0  0  0  0
  8 17  1  0  0  0  0
  9 18  2  0  0  0  0
 11  9  1  0  0  0  0
 11 14  1  0  0  0  0
 12 11  2  0  0  0  0
 14 16  1  0  0  0  0
 15 12  1  0  0  0  0
 15 17  2  0  0  0  0
 17 19  1  0  0  0  0
 18 16  1  0  0  0  0
 18 13  1  0  0  0  0
 19 14  2  0  0  0  0
 19 10  1  0  0  0  0
 22 24  1  6  0  0  0
 22 23  1  0  0  0  0
 22 21  1  0  0  0  0
 23 20  1  6  0  0  0
 23 21  1  0  0  0  0
 25 24  1  0  0  0  0
M  END
>  <MODEL>
9

>  <REMARK>
 VINA RESULT:      -6.9      2.101      8.639
  Name = 
  5 active torsions:
  status: ('A' for Active; 'I' for Inactive)
    1  A    between atoms: C_1  and  N_19
    2  A    between atoms: C_6  and  C_8
    3  A    between atoms: C_9  and  O_17
    4  A    between atoms: O_17  and  C_20
    5  A    between atoms: N_19  and  C_23
                            x       y       z     vdW  Elec       q    Type
                         _______ _______ _______ _____ _____    ______ ____

>  <TORSDO>
F 5

$$$$
