=
 OpenBabel11052412173D

 52 56  0  0  1  0  0  0  0  0999 V2000
  160.8760  211.6980  151.7560 C   0  0  2  0  0  3  0  0  0  0  0  0
  161.9750  210.7850  149.8510 O   0  0  0  0  0  0  0  0  0  0  0  0
  161.2340  211.6990  150.3010 C   0  0  0  0  0  0  0  0  0  0  0  0
  160.7370  212.7370  149.4420 N   0  0  0  0  0  2  0  0  0  0  0  0
  159.8130  212.5900  147.1430 C   0  0  0  0  0  3  0  0  0  0  0  0
  161.2390  213.0630  145.2400 C   0  0  0  0  0  0  0  0  0  0  0  0
  160.8860  212.8200  148.0190 C   0  0  0  0  0  0  0  0  0  0  0  0
  159.9900  212.7130  145.7610 C   0  0  0  0  0  3  0  0  0  0  0  0
  162.1320  213.1770  147.4950 C   0  0  0  0  0  3  0  0  0  0  0  0
  162.3100  213.2990  146.1150 C   0  0  0  0  0  3  0  0  0  0  0  0
  161.3910  213.2090  143.8240 N   0  0  0  0  0  2  0  0  0  0  0  0
  162.5070  212.6440  143.0760 C   0  0  0  0  0  2  0  0  0  0  0  0
  162.2340  212.7090  141.5810 C   0  0  0  0  0  2  0  0  0  0  0  0
  162.2520  211.3180  140.9670 C   0  0  0  0  0  2  0  0  0  0  0  0
  160.8820  210.9590  140.3840 C   0  0  0  0  0  2  0  0  0  0  0  0
  160.9060  210.6060  138.8910 C   0  0  1  0  0  0  0  0  0  0  0  0
  160.4030  209.1850  138.7690 C   0  0  0  0  0  0  0  0  0  0  0  0
  159.3150  208.9460  138.1780 O   0  0  0  0  0  0  0  0  0  0  0  0
  161.1580  208.1190  139.2430 O   0  0  0  0  0  1  0  0  0  0  0  0
  159.7270  212.7240  138.8640 F   0  0  0  0  0  0  0  0  0  0  0  0
  159.9880  211.5790  138.1320 C   0  0  0  0  0  2  0  0  0  0  0  0
  162.3580  210.7200  138.3870 C   0  0  0  0  0  2  0  0  0  0  0  0
  162.5240  211.6310  137.1770 C   0  0  0  0  0  1  0  0  0  0  0  0
  161.5440  210.5470  152.4960 C   0  0  0  0  0  2  0  0  0  0  0  0
  160.6210  209.3400  152.5120 C   0  0  0  0  0  2  0  0  0  0  0  0
  161.2280  208.2160  153.3360 C   0  0  2  0  0  0  0  0  0  0  0  0
  160.9330  204.9530  152.6060 N   0  0  0  0  0  0  0  0  0  0  0  0
  161.3510  205.8870  153.4000 C   0  0  0  0  0  0  0  0  0  0  0  0
  161.0500  204.5600  150.1890 C   0  0  0  0  0  0  0  0  0  0  0  0
  160.5880  206.2680  154.5290 N   0  0  0  0  0  2  0  0  0  0  0  0
  161.2530  205.3350  151.2740 C   0  0  0  0  0  0  0  0  0  0  0  0
  162.0080  207.0420  152.7410 C   0  0  1  0  0  3  0  0  0  0  0  0
  162.0790  207.4180  150.3290 O   0  0  0  0  0  0  0  0  0  0  0  0
  161.7860  206.6920  151.3150 C   0  0  0  0  0  0  0  0  0  0  0  0
  160.3230  207.7010  154.4550 C   0  0  1  0  0  3  0  0  0  0  0  0
  161.5630  208.5320  154.7780 C   0  0  0  0  0  2  0  0  0  0  0  0
  161.7950  203.8890  147.9030 C   0  0  0  0  0  2  0  0  0  0  0  0
  162.1290  204.4240  146.5120 C   0  0  0  0  0  2  0  0  0  0  0  0
  160.3500  205.9290  148.2120 C   0  0  0  0  0  2  0  0  0  0  0  0
  161.4460  205.0560  148.8280 C   0  0  0  0  0  3  0  0  0  0  0  0
  160.9920  205.1710  145.9740 N   0  0  0  0  0  0  0  0  0  0  0  0
  161.3930  205.6520  144.6660 C   0  0  0  0  0  1  0  0  0  0  0  0
  160.7730  206.3520  146.8080 C   0  0  0  0  0  2  0  0  0  0  0  0
  161.1270  202.2150  150.7270 O   0  0  0  0  0  0  0  0  0  0  0  0
  160.4760  203.1990  150.2870 C   0  0  0  0  0  3  0  0  0  0  0  0
  159.3640  211.7320  151.9760 C   0  0  0  0  0  2  0  0  0  0  0  0
  158.9560  212.6110  153.1540 C   0  0  0  0  0  2  0  0  0  0  0  0
  157.6880  212.0840  153.8000 C   0  0  0  0  0  2  0  0  0  0  0  0
  159.1620  211.0280  155.5540 N   0  0  0  0  0  2  0  0  0  0  0  0
  157.9430  211.6920  155.2170 C   0  0  0  0  0  0  0  0  0  0  0  0
  157.0910  211.9630  156.1070 O   0  0  0  0  0  0  0  0  0  0  0  0
  159.4940  210.6700  156.9210 C   0  0  0  0  0  1  0  0  0  0  0  0
  1 46  1  6  0  0  0
  1 24  1  0  0  0  0
  2  3  2  0  0  0  0
  3  1  1  0  0  0  0
  4  3  1  0  0  0  0
  5  7  1  0  0  0  0
  6  8  1  0  0  0  0
  6 10  2  0  0  0  0
  7  4  1  0  0  0  0
  8  5  2  0  0  0  0
  9  7  2  0  0  0  0
 10  9  1  0  0  0  0
 11  6  1  0  0  0  0
 12 11  1  0  0  0  0
 13 12  1  0  0  0  0
 14 13  1  0  0  0  0
 15 14  1  0  0  0  0
 16 21  1  6  0  0  0
 16 15  1  0  0  0  0
 17 16  1  0  0  0  0
 17 19  1  0  0  0  0
 18 17  2  0  0  0  0
 21 20  1  0  0  0  0
 22 16  1  0  0  0  0
 23 22  1  0  0  0  0
 24 25  1  0  0  0  0
 26 25  1  6  0  0  0
 26 35  1  0  0  0  0
 26 36  1  0  0  0  0
 27 28  2  0  0  0  0
 28 30  1  0  0  0  0
 29 45  1  0  0  0  0
 29 31  2  0  0  0  0
 31 34  1  0  0  0  0
 31 27  1  0  0  0  0
 32 34  1  6  0  0  0
 32 26  1  0  0  0  0
 32 28  1  0  0  0  0
 33 34  2  0  0  0  0
 35 30  1  0  0  0  0
 35 36  1  1  0  0  0
 37 40  1  0  0  0  0
 38 37  1  0  0  0  0
 39 40  1  0  0  0  0
 40 29  1  0  0  0  0
 41 38  1  0  0  0  0
 41 43  1  0  0  0  0
 42 41  1  0  0  0  0
 43 39  1  0  0  0  0
 45 44  2  0  0  0  0
 46 47  1  0  0  0  0
 47 48  1  0  0  0  0
 48 50  1  0  0  0  0
 49 52  1  0  0  0  0
 50 49  1  0  0  0  0
 50 51  2  0  0  0  0
M  END
>  <MODEL>
1

>  <REMARK>
 VINA RESULT:      -7.0      0.000      0.000
  Name = 
  20 active torsions:
  status: ('A' for Active; 'I' for Inactive)
    1  A    between atoms: C_1  and  C_49
    2  A    between atoms: C_3  and  N_4
    3  A    between atoms: C_3  and  C_35
    4  A    between atoms: N_4  and  C_19
    5  A    between atoms: C_12  and  C_47
    6  A    between atoms: C_14  and  C_23
    7  A    between atoms: C_14  and  C_52
    8  A    between atoms: C_15  and  C_20
    9  A    between atoms: C_15  and  C_31
   10  A    between atoms: C_16  and  C_23
   11  A    between atoms: C_18  and  C_24
   12  A    between atoms: C_21  and  C_47
   13  A    between atoms: C_22  and  N_36
   14  A    between atoms: C_24  and  C_42
   15  A    between atoms: C_24  and  C_52
   16  A    between atoms: C_27  and  C_47
   17  A    between atoms: C_28  and  C_33
   18  A    between atoms: C_28  and  C_47
   19  A    between atoms: C_33  and  C_35
   20  A    between atoms: C_42  and  C_49
                            x       y       z     vdW  Elec       q    Type
                         _______ _______ _______ _____ _____    ______ ____

>  <TORSDO>
F 20

$$$$
=
 OpenBabel11052412173D

 52 56  0  0  1  0  0  0  0  0999 V2000
  161.6980  210.6100  151.2570 C   0  0  2  0  0  3  0  0  0  0  0  0
  161.9440  210.0570  148.9540 O   0  0  0  0  0  0  0  0  0  0  0  0
  161.7160  210.9620  149.8000 C   0  0  0  0  0  0  0  0  0  0  0  0
  161.4820  212.3160  149.3870 N   0  0  0  0  0  2  0  0  0  0  0  0
  160.1210  212.7810  147.3640 C   0  0  0  0  0  3  0  0  0  0  0  0
  161.1550  213.8100  145.4280 C   0  0  0  0  0  0  0  0  0  0  0  0
  161.3490  212.7950  148.0430 C   0  0  0  0  0  0  0  0  0  0  0  0
  160.0250  213.2870  146.0640 C   0  0  0  0  0  3  0  0  0  0  0  0
  162.4760  213.3270  147.4070 C   0  0  0  0  0  3  0  0  0  0  0  0
  162.3820  213.8320  146.1080 C   0  0  0  0  0  3  0  0  0  0  0  0
  161.0290  214.3480  144.1070 N   0  0  0  0  0  2  0  0  0  0  0  0
  160.5350  213.5770  142.9730 C   0  0  0  0  0  2  0  0  0  0  0  0
  161.4230  212.3680  142.7240 C   0  0  0  0  0  2  0  0  0  0  0  0
  160.6400  211.2500  142.0530 C   0  0  0  0  0  2  0  0  0  0  0  0
  160.2200  211.6490  140.6360 C   0  0  0  0  0  2  0  0  0  0  0  0
  161.0550  210.9980  139.5240 C   0  0  1  0  0  0  0  0  0  0  0  0
  162.0430  212.0410  139.0520 C   0  0  0  0  0  0  0  0  0  0  0  0
  161.6790  212.9390  138.2450 O   0  0  0  0  0  0  0  0  0  0  0  0
  163.3410  212.0690  139.5480 O   0  0  0  0  0  1  0  0  0  0  0  0
  162.0300  208.8150  139.1270 F   0  0  0  0  0  0  0  0  0  0  0  0
  161.7840  209.7720  140.0970 C   0  0  0  0  0  2  0  0  0  0  0  0
  160.1060  210.5850  138.3820 C   0  0  0  0  0  2  0  0  0  0  0  0
  158.8370  209.8850  138.8530 C   0  0  0  0  0  1  0  0  0  0  0  0
  162.1360  209.1710  151.4910 C   0  0  0  0  0  2  0  0  0  0  0  0
  160.9850  208.3690  152.0720 C   0  0  0  0  0  2  0  0  0  0  0  0
  161.5030  207.1350  152.7920 C   0  0  2  0  0  0  0  0  0  0  0  0
  160.9610  203.9800  151.7830 N   0  0  0  0  0  0  0  0  0  0  0  0
  161.4480  204.8060  152.6530 C   0  0  0  0  0  0  0  0  0  0  0  0
  161.0500  203.7900  149.3410 C   0  0  0  0  0  0  0  0  0  0  0  0
  160.7160  205.1450  153.8150 N   0  0  0  0  0  2  0  0  0  0  0  0
  161.3110  204.4500  150.4880 C   0  0  0  0  0  0  0  0  0  0  0  0
  162.1920  205.9620  152.0930 C   0  0  1  0  0  3  0  0  0  0  0  0
  162.2940  206.5390  149.7230 O   0  0  0  0  0  0  0  0  0  0  0  0
  161.9460  205.7540  150.6430 C   0  0  0  0  0  0  0  0  0  0  0  0
  160.5610  206.5950  153.8680 C   0  0  1  0  0  3  0  0  0  0  0  0
  161.8600  207.2980  154.2540 C   0  0  0  0  0  2  0  0  0  0  0  0
  161.4440  203.3130  146.9230 C   0  0  0  0  0  2  0  0  0  0  0  0
  161.8280  203.9510  145.5890 C   0  0  0  0  0  2  0  0  0  0  0  0
  160.6340  205.5860  147.6450 C   0  0  0  0  0  2  0  0  0  0  0  0
  161.4840  204.3710  148.0260 C   0  0  0  0  0  3  0  0  0  0  0  0
  160.9080  205.0450  145.2730 N   0  0  0  0  0  0  0  0  0  0  0  0
  161.3450  205.6020  144.0070 C   0  0  0  0  0  1  0  0  0  0  0  0
  161.0710  206.0960  146.2750 C   0  0  0  0  0  2  0  0  0  0  0  0
  160.9100  201.4270  149.7740 O   0  0  0  0  0  0  0  0  0  0  0  0
  160.3750  202.4730  149.3240 C   0  0  0  0  0  3  0  0  0  0  0  0
  160.3490  210.9210  151.9060 C   0  0  0  0  0  2  0  0  0  0  0  0
  160.4850  211.6960  153.2130 C   0  0  0  0  0  2  0  0  0  0  0  0
  159.4750  212.8270  153.2710 C   0  0  0  0  0  2  0  0  0  0  0  0
  157.0590  212.5900  153.9560 N   0  0  0  0  0  2  0  0  0  0  0  0
  158.4420  212.5570  154.3120 C   0  0  0  0  0  0  0  0  0  0  0  0
  158.7950  212.2850  155.4920 O   0  0  0  0  0  0  0  0  0  0  0  0
  156.0080  212.2820  154.9090 C   0  0  0  0  0  1  0  0  0  0  0  0
  1 24  1  6  0  0  0
  1 46  1  0  0  0  0
  2  3  2  0  0  0  0
  3  1  1  0  0  0  0
  4  3  1  0  0  0  0
  5  7  1  0  0  0  0
  6  8  1  0  0  0  0
  6 10  2  0  0  0  0
  7  4  1  0  0  0  0
  8  5  2  0  0  0  0
  9  7  2  0  0  0  0
 10  9  1  0  0  0  0
 11  6  1  0  0  0  0
 12 11  1  0  0  0  0
 13 12  1  0  0  0  0
 14 13  1  0  0  0  0
 15 14  1  0  0  0  0
 16 22  1  6  0  0  0
 16 21  1  0  0  0  0
 16 15  1  0  0  0  0
 17 16  1  0  0  0  0
 17 19  1  0  0  0  0
 18 17  2  0  0  0  0
 20 21  1  0  0  0  0
 22 23  1  0  0  0  0
 24 25  1  0  0  0  0
 26 25  1  6  0  0  0
 26 35  1  0  0  0  0
 26 36  1  0  0  0  0
 27 28  2  0  0  0  0
 28 30  1  0  0  0  0
 29 31  2  0  0  0  0
 30 35  1  0  0  0  0
 31 34  1  0  0  0  0
 31 27  1  0  0  0  0
 32 34  1  6  0  0  0
 32 28  1  0  0  0  0
 32 26  1  0  0  0  0
 33 34  2  0  0  0  0
 35 36  1  1  0  0  0
 37 40  1  0  0  0  0
 38 37  1  0  0  0  0
 39 40  1  0  0  0  0
 40 29  1  0  0  0  0
 41 38  1  0  0  0  0
 41 43  1  0  0  0  0
 42 41  1  0  0  0  0
 43 39  1  0  0  0  0
 45 29  1  0  0  0  0
 45 44  2  0  0  0  0
 46 47  1  0  0  0  0
 47 48  1  0  0  0  0
 48 50  1  0  0  0  0
 49 50  1  0  0  0  0
 49 52  1  0  0  0  0
 50 51  2  0  0  0  0
M  END
>  <MODEL>
2

>  <REMARK>
 VINA RESULT:      -6.6      1.646      1.970
  Name = 
  20 active torsions:
  status: ('A' for Active; 'I' for Inactive)
    1  A    between atoms: C_1  and  C_49
    2  A    between atoms: C_3  and  N_4
    3  A    between atoms: C_3  and  C_35
    4  A    between atoms: N_4  and  C_19
    5  A    between atoms: C_12  and  C_47
    6  A    between atoms: C_14  and  C_23
    7  A    between atoms: C_14  and  C_52
    8  A    between atoms: C_15  and  C_20
    9  A    between atoms: C_15  and  C_31
   10  A    between atoms: C_16  and  C_23
   11  A    between atoms: C_18  and  C_24
   12  A    between atoms: C_21  and  C_47
   13  A    between atoms: C_22  and  N_36
   14  A    between atoms: C_24  and  C_42
   15  A    between atoms: C_24  and  C_52
   16  A    between atoms: C_27  and  C_47
   17  A    between atoms: C_28  and  C_33
   18  A    between atoms: C_28  and  C_47
   19  A    between atoms: C_33  and  C_35
   20  A    between atoms: C_42  and  C_49
                            x       y       z     vdW  Elec       q    Type
                         _______ _______ _______ _____ _____    ______ ____

>  <TORSDO>
F 20

$$$$
=
 OpenBabel11052412173D

 52 56  0  0  1  0  0  0  0  0999 V2000
  162.2940  210.7350  149.5890 C   0  0  2  0  0  3  0  0  0  0  0  0
  162.2750  208.6450  148.4510 O   0  0  0  0  0  0  0  0  0  0  0  0
  162.0820  209.2530  149.5370 C   0  0  0  0  0  0  0  0  0  0  0  0
  161.6600  208.5480  150.7140 N   0  0  0  0  0  2  0  0  0  0  0  0
  162.3250  206.3960  151.7580 C   0  0  0  0  0  3  0  0  0  0  0  0
  161.1650  204.3550  151.1520 C   0  0  0  0  0  0  0  0  0  0  0  0
  161.5270  207.1280  150.8650 C   0  0  0  0  0  0  0  0  0  0  0  0
  162.1430  205.0170  151.9000 C   0  0  0  0  0  3  0  0  0  0  0  0
  160.5440  206.4650  150.1230 C   0  0  0  0  0  3  0  0  0  0  0  0
  160.3620  205.0870  150.2650 C   0  0  0  0  0  3  0  0  0  0  0  0
  160.9780  202.9480  151.3340 N   0  0  0  0  0  2  0  0  0  0  0  0
  160.2630  202.1050  150.3820 C   0  0  0  0  0  2  0  0  0  0  0  0
  161.2160  201.5720  149.3240 C   0  0  0  0  0  2  0  0  0  0  0  0
  160.9280  202.2020  147.9690 C   0  0  0  0  0  2  0  0  0  0  0  0
  161.6800  203.5260  147.8090 C   0  0  0  0  0  2  0  0  0  0  0  0
  161.5380  204.1680  146.4230 C   0  0  1  0  0  0  0  0  0  0  0  0
  162.8630  204.8250  146.1070 C   0  0  0  0  0  0  0  0  0  0  0  0
  163.1360  205.9600  146.5820 O   0  0  0  0  0  1  0  0  0  0  0  0
  163.8230  204.1650  145.3500 O   0  0  0  0  0  0  0  0  0  0  0  0
  160.0260  203.3270  144.7250 F   0  0  0  0  0  0  0  0  0  0  0  0
  161.2100  203.0730  145.3950 C   0  0  0  0  0  2  0  0  0  0  0  0
  160.4080  205.2140  146.4850 C   0  0  0  0  0  2  0  0  0  0  0  0
  160.2740  206.0570  145.2230 C   0  0  0  0  0  1  0  0  0  0  0  0
  161.7130  211.3390  150.8610 C   0  0  0  0  0  2  0  0  0  0  0  0
  160.2120  211.5160  150.7100 C   0  0  0  0  0  2  0  0  0  0  0  0
  159.7950  212.9160  151.1300 C   0  0  2  0  0  0  0  0  0  0  0  0
  157.6960  213.5950  153.6600 N   0  0  0  0  0  0  0  0  0  0  0  0
  158.4240  214.0070  152.6710 C   0  0  0  0  0  0  0  0  0  0  0  0
  158.0510  212.0790  155.5520 C   0  0  0  0  0  0  0  0  0  0  0  0
  157.8480  214.2430  151.4000 N   0  0  0  0  0  2  0  0  0  0  0  0
  158.4570  212.6490  154.4000 C   0  0  0  0  0  0  0  0  0  0  0  0
  159.7780  213.4070  152.5780 C   0  0  1  0  0  3  0  0  0  0  0  0
  160.5760  211.5460  153.9430 O   0  0  0  0  0  0  0  0  0  0  0  0
  159.6950  212.4020  153.6680 C   0  0  0  0  0  0  0  0  0  0  0  0
  158.5560  213.4430  150.4060 C   0  0  1  0  0  3  0  0  0  0  0  0
  159.9390  214.0090  150.0920 C   0  0  0  0  0  2  0  0  0  0  0  0
  159.1010  209.8150  155.4570 C   0  0  0  0  0  2  0  0  0  0  0  0
  160.0670  208.8760  156.1760 C   0  0  0  0  0  2  0  0  0  0  0  0
  160.3150  211.7240  156.5640 C   0  0  0  0  0  2  0  0  0  0  0  0
  158.9470  211.1050  156.2640 C   0  0  0  0  0  3  0  0  0  0  0  0
  161.3680  209.5250  156.3410 N   0  0  0  0  0  0  0  0  0  0  0  0
  162.2180  208.5780  157.0380 C   0  0  0  0  0  1  0  0  0  0  0  0
  161.2060  210.6770  157.2260 C   0  0  0  0  0  2  0  0  0  0  0  0
  155.6650  211.8930  155.8020 O   0  0  0  0  0  0  0  0  0  0  0  0
  156.7510  212.4050  156.1800 C   0  0  0  0  0  3  0  0  0  0  0  0
  161.7840  211.4340  148.3290 C   0  0  0  0  0  2  0  0  0  0  0  0
  162.7460  212.4980  147.8110 C   0  0  0  0  0  2  0  0  0  0  0  0
  161.9860  213.6110  147.1140 C   0  0  0  0  0  2  0  0  0  0  0  0
  162.8640  213.2610  144.7750 N   0  0  0  0  0  2  0  0  0  0  0  0
  161.7580  213.2730  145.6790 C   0  0  0  0  0  0  0  0  0  0  0  0
  160.5970  212.9850  145.2780 O   0  0  0  0  0  0  0  0  0  0  0  0
  162.7170  212.8870  143.3800 C   0  0  0  0  0  1  0  0  0  0  0  0
  1 46  1  6  0  0  0
  1 24  1  0  0  0  0
  2  3  2  0  0  0  0
  3  1  1  0  0  0  0
  3  4  1  0  0  0  0
  4  7  1  0  0  0  0
  5  8  1  0  0  0  0
  6 11  1  0  0  0  0
  6  8  2  0  0  0  0
  7  5  2  0  0  0  0
  9 10  2  0  0  0  0
  9  7  1  0  0  0  0
 10  6  1  0  0  0  0
 12 11  1  0  0  0  0
 13 12  1  0  0  0  0
 14 13  1  0  0  0  0
 15 14  1  0  0  0  0
 16 21  1  6  0  0  0
 16 22  1  0  0  0  0
 16 15  1  0  0  0  0
 17 16  1  0  0  0  0
 17 18  1  0  0  0  0
 19 17  2  0  0  0  0
 20 21  1  0  0  0  0
 23 22  1  0  0  0  0
 25 24  1  0  0  0  0
 26 25  1  6  0  0  0
 26 32  1  0  0  0  0
 27 31  1  0  0  0  0
 28 27  2  0  0  0  0
 29 45  1  0  0  0  0
 29 40  1  0  0  0  0
 30 28  1  0  0  0  0
 31 29  2  0  0  0  0
 32 28  1  6  0  0  0
 32 34  1  0  0  0  0
 34 33  2  0  0  0  0
 34 31  1  0  0  0  0
 35 36  1  6  0  0  0
 35 26  1  0  0  0  0
 35 30  1  0  0  0  0
 36 26  1  0  0  0  0
 37 38  1  0  0  0  0
 37 40  1  0  0  0  0
 38 41  1  0  0  0  0
 39 43  1  0  0  0  0
 40 39  1  0  0  0  0
 41 42  1  0  0  0  0
 41 43  1  0  0  0  0
 44 45  2  0  0  0  0
 47 46  1  0  0  0  0
 48 47  1  0  0  0  0
 49 50  1  0  0  0  0
 50 48  1  0  0  0  0
 51 50  2  0  0  0  0
 52 49  1  0  0  0  0
M  END
>  <MODEL>
3

>  <REMARK>
 VINA RESULT:      -5.3      3.536      9.343
  Name = 
  20 active torsions:
  status: ('A' for Active; 'I' for Inactive)
    1  A    between atoms: C_1  and  C_49
    2  A    between atoms: C_3  and  N_4
    3  A    between atoms: C_3  and  C_35
    4  A    between atoms: N_4  and  C_19
    5  A    between atoms: C_12  and  C_47
    6  A    between atoms: C_14  and  C_23
    7  A    between atoms: C_14  and  C_52
    8  A    between atoms: C_15  and  C_20
    9  A    between atoms: C_15  and  C_31
   10  A    between atoms: C_16  and  C_23
   11  A    between atoms: C_18  and  C_24
   12  A    between atoms: C_21  and  C_47
   13  A    between atoms: C_22  and  N_36
   14  A    between atoms: C_24  and  C_42
   15  A    between atoms: C_24  and  C_52
   16  A    between atoms: C_27  and  C_47
   17  A    between atoms: C_28  and  C_33
   18  A    between atoms: C_28  and  C_47
   19  A    between atoms: C_33  and  C_35
   20  A    between atoms: C_42  and  C_49
                            x       y       z     vdW  Elec       q    Type
                         _______ _______ _______ _____ _____    ______ ____

>  <TORSDO>
F 20

$$$$
=
 OpenBabel11052412173D

 52 56  0  0  1  0  0  0  0  0999 V2000
  161.1080  210.0980  152.0890 C   0  0  2  0  0  3  0  0  0  0  0  0
  161.8320  208.5790  150.4050 O   0  0  0  0  0  0  0  0  0  0  0  0
  161.2450  208.7230  151.5100 C   0  0  0  0  0  0  0  0  0  0  0  0
  160.7040  207.5940  152.2120 N   0  0  0  0  0  2  0  0  0  0  0  0
  161.2490  205.2430  152.7940 C   0  0  0  0  0  3  0  0  0  0  0  0
  161.0530  203.5100  151.1090 C   0  0  0  0  0  0  0  0  0  0  0  0
  160.8500  206.2120  151.8600 C   0  0  0  0  0  0  0  0  0  0  0  0
  161.3480  203.8990  152.4190 C   0  0  0  0  0  3  0  0  0  0  0  0
  160.5480  205.8190  150.5520 C   0  0  0  0  0  3  0  0  0  0  0  0
  160.6480  204.4770  150.1770 C   0  0  0  0  0  3  0  0  0  0  0  0
  161.1360  202.1260  150.7550 N   0  0  0  0  0  2  0  0  0  0  0  0
  160.4680  201.5560  149.5910 C   0  0  0  0  0  2  0  0  0  0  0  0
  161.4880  201.1500  148.5380 C   0  0  0  0  0  2  0  0  0  0  0  0
  161.3230  201.9830  147.2750 C   0  0  0  0  0  2  0  0  0  0  0  0
  161.6850  203.4480  147.5340 C   0  0  0  0  0  2  0  0  0  0  0  0
  161.5130  204.3640  146.3150 C   0  0  1  0  0  0  0  0  0  0  0  0
  162.8990  204.8100  145.9050 C   0  0  0  0  0  0  0  0  0  0  0  0
  163.9130  204.3530  146.4980 O   0  0  0  0  0  1  0  0  0  0  0  0
  163.0810  205.6730  144.8310 O   0  0  0  0  0  0  0  0  0  0  0  0
  160.3650  204.4030  144.1810 F   0  0  0  0  0  0  0  0  0  0  0  0
  160.8350  203.5740  145.1850 C   0  0  0  0  0  2  0  0  0  0  0  0
  160.6490  205.5710  146.7320 C   0  0  0  0  0  2  0  0  0  0  0  0
  161.4470  206.7370  147.3000 C   0  0  0  0  0  1  0  0  0  0  0  0
  160.7840  211.1290  151.0160 C   0  0  0  0  0  2  0  0  0  0  0  0
  162.0350  211.4520  150.2170 C   0  0  0  0  0  2  0  0  0  0  0  0
  161.7050  212.3850  149.0640 C   0  0  2  0  0  0  0  0  0  0  0  0
  158.6050  213.3880  148.2590 N   0  0  0  0  0  0  0  0  0  0  0  0
  159.8750  213.3730  148.0060 C   0  0  0  0  0  0  0  0  0  0  0  0
  157.2450  213.7950  150.2570 C   0  0  0  0  0  0  0  0  0  0  0  0
  160.4140  212.4540  147.0750 N   0  0  0  0  0  2  0  0  0  0  0  0
  158.4380  213.6230  149.6510 C   0  0  0  0  0  0  0  0  0  0  0  0
  160.7630  213.5860  149.1750 C   0  0  1  0  0  3  0  0  0  0  0  0
  160.0180  213.6600  151.4990 O   0  0  0  0  0  0  0  0  0  0  0  0
  159.7590  213.6010  150.2680 C   0  0  0  0  0  0  0  0  0  0  0  0
  161.4560  211.6740  147.7340 C   0  0  1  0  0  3  0  0  0  0  0  0
  162.7300  212.4860  147.9550 C   0  0  0  0  0  2  0  0  0  0  0  0
  155.7410  214.2490  152.1970 C   0  0  0  0  0  2  0  0  0  0  0  0
  155.7120  214.4500  153.7100 C   0  0  0  0  0  2  0  0  0  0  0  0
  157.8680  212.9410  152.5280 C   0  0  0  0  0  2  0  0  0  0  0  0
  157.1860  214.0590  151.7340 C   0  0  0  0  0  3  0  0  0  0  0  0
  156.3080  213.2940  154.3820 N   0  0  0  0  0  0  0  0  0  0  0  0
  156.2530  213.5680  155.8050 C   0  0  0  0  0  1  0  0  0  0  0  0
  157.7230  213.2230  154.0210 C   0  0  0  0  0  2  0  0  0  0  0  0
  154.8470  213.8700  150.0720 O   0  0  0  0  0  0  0  0  0  0  0  0
  155.9680  213.7720  149.5090 C   0  0  0  0  0  3  0  0  0  0  0  0
  162.3240  210.4930  152.9270 C   0  0  0  0  0  2  0  0  0  0  0  0
  162.4440  209.6850  154.2150 C   0  0  0  0  0  2  0  0  0  0  0  0
  161.8000  210.4270  155.3720 C   0  0  0  0  0  2  0  0  0  0  0  0
  160.9620  208.1160  155.9400 N   0  0  0  0  0  2  0  0  0  0  0  0
  160.8710  209.5300  156.1190 C   0  0  0  0  0  0  0  0  0  0  0  0
  160.0240  210.0240  156.9130 O   0  0  0  0  0  0  0  0  0  0  0  0
  160.1250  207.1880  156.6780 C   0  0  0  0  0  1  0  0  0  0  0  0
  1 24  1  6  0  0  0
  1 46  1  0  0  0  0
  2  3  2  0  0  0  0
  3  1  1  0  0  0  0
  3  4  1  0  0  0  0
  6  8  2  0  0  0  0
  7  4  1  0  0  0  0
  7  5  2  0  0  0  0
  8  5  1  0  0  0  0
  9  7  1  0  0  0  0
 10  9  2  0  0  0  0
 10  6  1  0  0  0  0
 11  6  1  0  0  0  0
 12 11  1  0  0  0  0
 13 12  1  0  0  0  0
 14 15  1  0  0  0  0
 14 13  1  0  0  0  0
 16 21  1  6  0  0  0
 16 22  1  0  0  0  0
 16 15  1  0  0  0  0
 17 16  1  0  0  0  0
 17 18  1  0  0  0  0
 19 17  2  0  0  0  0
 20 21  1  0  0  0  0
 22 23  1  0  0  0  0
 25 24  1  0  0  0  0
 26 32  1  0  0  0  0
 26 25  1  1  0  0  0
 27 31  1  0  0  0  0
 28 27  2  0  0  0  0
 29 40  1  0  0  0  0
 30 35  1  0  0  0  0
 30 28  1  0  0  0  0
 31 29  2  0  0  0  0
 31 34  1  0  0  0  0
 32 28  1  6  0  0  0
 32 34  1  0  0  0  0
 34 33  2  0  0  0  0
 35 36  1  6  0  0  0
 35 26  1  0  0  0  0
 36 26  1  0  0  0  0
 37 38  1  0  0  0  0
 38 41  1  0  0  0  0
 39 43  1  0  0  0  0
 40 37  1  0  0  0  0
 40 39  1  0  0  0  0
 41 42  1  0  0  0  0
 43 41  1  0  0  0  0
 45 44  2  0  0  0  0
 45 29  1  0  0  0  0
 46 47  1  0  0  0  0
 47 48  1  0  0  0  0
 48 50  1  0  0  0  0
 49 50  1  0  0  0  0
 49 52  1  0  0  0  0
 50 51  2  0  0  0  0
M  END
>  <MODEL>
4

>  <REMARK>
 VINA RESULT:      -4.4      4.416      9.149
  Name = 
  20 active torsions:
  status: ('A' for Active; 'I' for Inactive)
    1  A    between atoms: C_1  and  C_49
    2  A    between atoms: C_3  and  N_4
    3  A    between atoms: C_3  and  C_35
    4  A    between atoms: N_4  and  C_19
    5  A    between atoms: C_12  and  C_47
    6  A    between atoms: C_14  and  C_23
    7  A    between atoms: C_14  and  C_52
    8  A    between atoms: C_15  and  C_20
    9  A    between atoms: C_15  and  C_31
   10  A    between atoms: C_16  and  C_23
   11  A    between atoms: C_18  and  C_24
   12  A    between atoms: C_21  and  C_47
   13  A    between atoms: C_22  and  N_36
   14  A    between atoms: C_24  and  C_42
   15  A    between atoms: C_24  and  C_52
   16  A    between atoms: C_27  and  C_47
   17  A    between atoms: C_28  and  C_33
   18  A    between atoms: C_28  and  C_47
   19  A    between atoms: C_33  and  C_35
   20  A    between atoms: C_42  and  C_49
                            x       y       z     vdW  Elec       q    Type
                         _______ _______ _______ _____ _____    ______ ____

>  <TORSDO>
F 20

$$$$
