=
 OpenBabel11052411533D

 32 35  0  0  1  0  0  0  0  0999 V2000
  161.2640  209.4050  152.9310 C   0  0  0  0  0  0  0  0  0  0  0  0
  160.3430  210.2870  153.1280 N   0  0  0  0  0  0  0  0  0  0  0  0
  161.4390  208.3160  153.9470 C   0  0  0  0  0  2  0  0  0  0  0  0
  161.1650  207.9650  156.3770 C   0  0  0  0  0  2  0  0  0  0  0  0
  160.5180  208.5390  155.1340 C   0  0  0  0  0  3  0  0  0  0  0  0
  160.0640  207.1980  155.6750 C   0  0  0  0  0  2  0  0  0  0  0  0
  160.0610  211.3800  152.2230 C   0  0  0  0  0  2  0  0  0  0  0  0
  157.4450  213.2620  153.3300 C   0  0  0  0  0  3  0  0  0  0  0  0
  158.5050  213.2600  152.3920 N   0  0  0  0  0  0  0  0  0  0  0  0
  157.8260  212.7100  154.4630 C   0  0  0  0  0  0  0  0  0  0  0  0
  159.6750  212.6380  152.9950 C   0  0  1  0  0  3  0  0  0  0  0  0
  159.2410  212.2540  154.4090 C   0  0  0  0  0  3  0  0  0  0  0  0
  155.3470  211.4810  156.8670 O   0  0  0  0  0  1  0  0  0  0  0  0
  156.9980  212.5360  155.6190 N   0  0  0  0  0  2  0  0  0  0  0  0
  155.6220  210.7040  154.7320 O   0  0  0  0  0  0  0  0  0  0  0  0
  155.9650  211.5580  155.7740 C   0  0  0  0  0  0  0  0  0  0  0  0
  162.1330  209.4340  151.6970 C   0  0  0  0  0  2  0  0  0  0  0  0
  162.3100  208.1510  151.1710 O   0  0  0  0  0  0  0  0  0  0  0  0
  161.0510  207.7890  150.6920 C   0  0  0  0  0  2  0  0  0  0  0  0
  161.1360  206.4580  150.0180 C   0  0  0  0  0  0  0  0  0  0  0  0
  160.8660  202.6240  152.0610 O   0  0  0  0  0  1  0  0  0  0  0  0
  161.1800  200.4320  147.7740 N   0  0  0  0  0  1  0  0  0  0  0  0
  161.2170  204.0510  148.6330 C   0  0  0  0  0  0  0  0  0  0  0  0
  161.3100  205.2360  147.9770 N   0  0  0  0  0  0  0  0  0  0  0  0
  161.2700  206.4210  148.6320 C   0  0  0  0  0  3  0  0  0  0  0  0
  161.1540  201.6330  148.5360 C   0  0  0  0  0  0  0  0  0  0  0  0
  161.0250  201.5780  149.9220 C   0  0  0  0  0  3  0  0  0  0  0  0
  161.0510  205.2530  150.7450 C   0  0  0  0  0  0  0  0  0  0  0  0
  161.2490  202.8660  147.8940 C   0  0  0  0  0  3  0  0  0  0  0  0
  160.9030  205.3230  152.2350 C   0  0  0  0  0  1  0  0  0  0  0  0
  161.0910  204.0160  150.0490 C   0  0  0  0  0  0  0  0  0  0  0  0
  160.9970  202.7490  150.6830 C   0  0  0  0  0  0  0  0  0  0  0  0
  1  2  2  0  0  0  0
  1  3  1  0  0  0  0
  3  5  1  0  0  0  0
  5  6  1  0  0  0  0
  5  4  1  0  0  0  0
  6  4  1  0  0  0  0
  7  2  1  0  0  0  0
  8 10  1  0  0  0  0
  9 11  1  0  0  0  0
  9  8  2  0  0  0  0
 10 14  1  0  0  0  0
 11  7  1  6  0  0  0
 11 12  1  0  0  0  0
 12 10  2  0  0  0  0
 14 16  1  0  0  0  0
 15 16  2  0  0  0  0
 16 13  1  0  0  0  0
 17  1  1  0  0  0  0
 18 17  1  0  0  0  0
 19 18  1  0  0  0  0
 20 19  1  0  0  0  0
 20 28  1  0  0  0  0
 22 26  1  0  0  0  0
 23 31  1  0  0  0  0
 24 25  1  0  0  0  0
 24 23  2  0  0  0  0
 25 20  2  0  0  0  0
 26 27  1  0  0  0  0
 27 32  2  0  0  0  0
 28 30  1  0  0  0  0
 29 26  2  0  0  0  0
 29 23  1  0  0  0  0
 31 32  1  0  0  0  0
 31 28  2  0  0  0  0
 32 21  1  0  0  0  0
M  END
>  <MODEL>
1

>  <REMARK>
 VINA RESULT:      -8.1      0.000      0.000
  Name = 
  9 active torsions:
  status: ('A' for Active; 'I' for Inactive)
    1  A    between atoms: C_1  and  C_19
    2  A    between atoms: C_3  and  C_15
    3  A    between atoms: C_3  and  C_29
    4  A    between atoms: C_11  and  C_15
    5  A    between atoms: C_12  and  N_16
    6  A    between atoms: N_14  and  C_21
    7  A    between atoms: C_19  and  O_25
    8  A    between atoms: C_21  and  C_23
    9  A    between atoms: O_25  and  C_29
                            x       y       z     vdW  Elec       q    Type
                         _______ _______ _______ _____ _____    ______ ____

>  <TORSDO>
F 9

$$$$
=
 OpenBabel11052411533D

 32 35  0  0  1  0  0  0  0  0999 V2000
  161.3920  206.8150  153.2370 C   0  0  0  0  0  0  0  0  0  0  0  0
  160.9870  207.5160  154.2430 N   0  0  0  0  0  0  0  0  0  0  0  0
  162.1130  207.5140  152.1240 C   0  0  0  0  0  2  0  0  0  0  0  0
  161.9940  209.3200  150.4410 C   0  0  0  0  0  2  0  0  0  0  0  0
  161.3620  208.7640  151.7000 C   0  0  0  0  0  3  0  0  0  0  0  0
  162.2920  209.9590  151.7810 C   0  0  0  0  0  2  0  0  0  0  0  0
  160.2910  206.9670  155.3860 C   0  0  0  0  0  2  0  0  0  0  0  0
  162.0230  209.6240  156.6330 C   0  0  0  0  0  3  0  0  0  0  0  0
  162.0280  208.2090  156.5780 N   0  0  0  0  0  0  0  0  0  0  0  0
  160.7910  210.0790  156.7450 C   0  0  0  0  0  0  0  0  0  0  0  0
  160.6590  207.7230  156.6590 C   0  0  1  0  0  3  0  0  0  0  0  0
  159.7940  208.9770  156.7750 C   0  0  0  0  0  3  0  0  0  0  0  0
  159.8680  213.5230  155.8940 O   0  0  0  0  0  1  0  0  0  0  0  0
  160.4230  211.4620  156.8120 N   0  0  0  0  0  2  0  0  0  0  0  0
  160.5010  211.9120  154.3970 O   0  0  0  0  0  0  0  0  0  0  0  0
  160.2460  212.3390  155.6950 C   0  0  0  0  0  0  0  0  0  0  0  0
  161.1820  205.3210  153.1820 C   0  0  0  0  0  2  0  0  0  0  0  0
  161.8020  204.7640  152.0610 O   0  0  0  0  0  0  0  0  0  0  0  0
  160.7570  204.2250  151.3100 C   0  0  0  0  0  2  0  0  0  0  0  0
  160.9260  204.6010  149.8740 C   0  0  0  0  0  0  0  0  0  0  0  0
  161.1250  201.7690  146.5750 O   0  0  0  0  0  1  0  0  0  0  0  0
  161.3990  205.4970  143.5240 N   0  0  0  0  0  1  0  0  0  0  0  0
  161.1510  205.4400  147.2340 C   0  0  0  0  0  0  0  0  0  0  0  0
  161.0980  206.3400  148.2500 N   0  0  0  0  0  0  0  0  0  0  0  0
  160.9850  205.9530  149.5430 C   0  0  0  0  0  3  0  0  0  0  0  0
  161.3060  205.0110  144.8580 C   0  0  0  0  0  0  0  0  0  0  0  0
  161.2600  203.6400  145.0990 C   0  0  0  0  0  3  0  0  0  0  0  0
  160.9930  203.6290  148.8560 C   0  0  0  0  0  0  0  0  0  0  0  0
  161.2510  205.9080  145.9220 C   0  0  0  0  0  3  0  0  0  0  0  0
  160.9230  202.1820  149.2400 C   0  0  0  0  0  1  0  0  0  0  0  0
  161.1080  204.0440  147.5030 C   0  0  0  0  0  0  0  0  0  0  0  0
  161.1660  203.1470  146.4040 C   0  0  0  0  0  0  0  0  0  0  0  0
  1  2  2  0  0  0  0
  2  7  1  0  0  0  0
  3  1  1  0  0  0  0
  4  5  1  0  0  0  0
  4  6  1  0  0  0  0
  5  6  1  0  0  0  0
  5  3  1  0  0  0  0
  8 10  1  0  0  0  0
  9  8  2  0  0  0  0
  9 11  1  0  0  0  0
 10 12  2  0  0  0  0
 10 14  1  0  0  0  0
 11  7  1  6  0  0  0
 11 12  1  0  0  0  0
 15 16  2  0  0  0  0
 16 13  1  0  0  0  0
 16 14  1  0  0  0  0
 17  1  1  0  0  0  0
 18 17  1  0  0  0  0
 19 18  1  0  0  0  0
 20 19  1  0  0  0  0
 22 26  1  0  0  0  0
 23 31  1  0  0  0  0
 23 24  1  0  0  0  0
 24 25  2  0  0  0  0
 25 20  1  0  0  0  0
 26 27  2  0  0  0  0
 26 29  1  0  0  0  0
 27 32  1  0  0  0  0
 28 30  1  0  0  0  0
 28 20  2  0  0  0  0
 29 23  2  0  0  0  0
 31 28  1  0  0  0  0
 32 21  1  0  0  0  0
 32 31  2  0  0  0  0
M  END
>  <MODEL>
2

>  <REMARK>
 VINA RESULT:      -8.1      2.705      4.454
  Name = 
  9 active torsions:
  status: ('A' for Active; 'I' for Inactive)
    1  A    between atoms: C_1  and  C_19
    2  A    between atoms: C_3  and  C_15
    3  A    between atoms: C_3  and  C_29
    4  A    between atoms: C_11  and  C_15
    5  A    between atoms: C_12  and  N_16
    6  A    between atoms: N_14  and  C_21
    7  A    between atoms: C_19  and  O_25
    8  A    between atoms: C_21  and  C_23
    9  A    between atoms: O_25  and  C_29
                            x       y       z     vdW  Elec       q    Type
                         _______ _______ _______ _____ _____    ______ ____

>  <TORSDO>
F 9

$$$$
=
 OpenBabel11052411533D

 32 35  0  0  1  0  0  0  0  0999 V2000
  160.8960  209.2490  153.0850 C   0  0  0  0  0  0  0  0  0  0  0  0
  159.9890  210.1540  153.2390 N   0  0  0  0  0  0  0  0  0  0  0  0
  160.9080  208.0840  154.0280 C   0  0  0  0  0  2  0  0  0  0  0  0
  161.2670  207.8620  156.4640 C   0  0  0  0  0  2  0  0  0  0  0  0
  160.3980  208.4980  155.3980 C   0  0  0  0  0  3  0  0  0  0  0  0
  159.9100  207.2710  156.1430 C   0  0  0  0  0  2  0  0  0  0  0  0
  159.8570  211.3200  152.3930 C   0  0  0  0  0  2  0  0  0  0  0  0
  157.2480  213.1990  153.5230 C   0  0  0  0  0  3  0  0  0  0  0  0
  158.3320  213.2200  152.6140 N   0  0  0  0  0  0  0  0  0  0  0  0
  157.5890  212.5840  154.6380 C   0  0  0  0  0  0  0  0  0  0  0  0
  159.4740  212.5470  153.2160 C   0  0  1  0  0  3  0  0  0  0  0  0
  158.9950  212.1040  154.5980 C   0  0  0  0  0  3  0  0  0  0  0  0
  155.0840  211.2380  156.9510 O   0  0  0  0  0  1  0  0  0  0  0  0
  156.7280  212.3710  155.7620 N   0  0  0  0  0  2  0  0  0  0  0  0
  155.4770  210.4730  154.8300 O   0  0  0  0  0  0  0  0  0  0  0  0
  155.7390  211.3440  155.8810 C   0  0  0  0  0  0  0  0  0  0  0  0
  161.9080  209.3270  151.9680 C   0  0  0  0  0  2  0  0  0  0  0  0
  162.2340  208.0560  151.4890 O   0  0  0  0  0  0  0  0  0  0  0  0
  161.5290  207.9370  150.2920 C   0  0  0  0  0  2  0  0  0  0  0  0
  161.3520  206.4920  149.9560 C   0  0  0  0  0  0  0  0  0  0  0  0
  161.6970  204.8150  145.9550 O   0  0  0  0  0  1  0  0  0  0  0  0
  160.9580  200.4340  147.8360 N   0  0  0  0  0  1  0  0  0  0  0  0
  161.0890  203.7670  149.4820 C   0  0  0  0  0  0  0  0  0  0  0  0
  160.9700  204.2710  150.7370 N   0  0  0  0  0  0  0  0  0  0  0  0
  161.0980  205.5950  150.9920 C   0  0  0  0  0  3  0  0  0  0  0  0
  161.0810  201.8400  148.0180 C   0  0  0  0  0  0  0  0  0  0  0  0
  161.3270  202.6660  146.9240 C   0  0  0  0  0  3  0  0  0  0  0  0
  161.4680  206.0190  148.6340 C   0  0  0  0  0  0  0  0  0  0  0  0
  160.9630  202.3890  149.2930 C   0  0  0  0  0  3  0  0  0  0  0  0
  161.7460  207.0060  147.5410 C   0  0  0  0  0  1  0  0  0  0  0  0
  161.3360  204.6280  148.3780 C   0  0  0  0  0  0  0  0  0  0  0  0
  161.4520  204.0490  147.0870 C   0  0  0  0  0  0  0  0  0  0  0  0
  1  2  2  0  0  0  0
  1  3  1  0  0  0  0
  3  5  1  0  0  0  0
  5  6  1  0  0  0  0
  5  4  1  0  0  0  0
  6  4  1  0  0  0  0
  7  2  1  0  0  0  0
  8 10  1  0  0  0  0
  9 11  1  0  0  0  0
  9  8  2  0  0  0  0
 10 14  1  0  0  0  0
 11  7  1  6  0  0  0
 11 12  1  0  0  0  0
 12 10  2  0  0  0  0
 14 16  1  0  0  0  0
 15 16  2  0  0  0  0
 16 13  1  0  0  0  0
 17  1  1  0  0  0  0
 18 17  1  0  0  0  0
 19 18  1  0  0  0  0
 20 19  1  0  0  0  0
 20 25  1  0  0  0  0
 21 32  1  0  0  0  0
 22 26  1  0  0  0  0
 23 24  1  0  0  0  0
 24 25  2  0  0  0  0
 26 29  2  0  0  0  0
 27 32  2  0  0  0  0
 27 26  1  0  0  0  0
 28 20  2  0  0  0  0
 29 23  1  0  0  0  0
 30 28  1  0  0  0  0
 31 28  1  0  0  0  0
 31 23  2  0  0  0  0
 32 31  1  0  0  0  0
M  END
>  <MODEL>
3

>  <REMARK>
 VINA RESULT:      -7.9      1.341      1.961
  Name = 
  9 active torsions:
  status: ('A' for Active; 'I' for Inactive)
    1  A    between atoms: C_1  and  C_19
    2  A    between atoms: C_3  and  C_15
    3  A    between atoms: C_3  and  C_29
    4  A    between atoms: C_11  and  C_15
    5  A    between atoms: C_12  and  N_16
    6  A    between atoms: N_14  and  C_21
    7  A    between atoms: C_19  and  O_25
    8  A    between atoms: C_21  and  C_23
    9  A    between atoms: O_25  and  C_29
                            x       y       z     vdW  Elec       q    Type
                         _______ _______ _______ _____ _____    ______ ____

>  <TORSDO>
F 9

$$$$
=
 OpenBabel11052411533D

 32 35  0  0  1  0  0  0  0  0999 V2000
  160.9260  205.5450  150.2050 C   0  0  0  0  0  0  0  0  0  0  0  0
  160.5230  204.7230  149.2950 N   0  0  0  0  0  0  0  0  0  0  0  0
  160.7880  207.0160  149.9490 C   0  0  0  0  0  2  0  0  0  0  0  0
  162.6760  207.3860  148.3980 C   0  0  0  0  0  2  0  0  0  0  0  0
  161.1670  207.3490  148.5160 C   0  0  0  0  0  3  0  0  0  0  0  0
  161.8940  208.6790  148.4860 C   0  0  0  0  0  2  0  0  0  0  0  0
  160.5870  203.2830  149.4180 C   0  0  0  0  0  2  0  0  0  0  0  0
  160.8010  202.1560  146.2090 C   0  0  0  0  0  3  0  0  0  0  0  0
  160.8130  201.7160  147.5550 N   0  0  0  0  0  2  0  0  0  0  0  0
  161.4340  203.3060  146.0920 C   0  0  0  0  0  0  0  0  0  0  0  0
  161.5230  202.6900  148.3700 C   0  0  1  0  0  3  0  0  0  0  0  0
  161.9590  203.7850  147.3970 C   0  0  0  0  0  2  0  0  0  0  0  0
  161.3180  205.8900  143.4950 O   0  0  0  0  0  0  0  0  0  0  0  0
  161.5960  204.0400  144.8730 N   0  0  0  0  0  2  0  0  0  0  0  0
  160.2230  205.9780  145.5030 O   0  0  0  0  0  1  0  0  0  0  0  0
  161.0530  205.3340  144.5920 C   0  0  0  0  0  0  0  0  0  0  0  0
  161.4950  205.0560  151.5140 C   0  0  0  0  0  2  0  0  0  0  0  0
  160.7890  205.5790  152.6010 O   0  0  0  0  0  0  0  0  0  0  0  0
  161.7480  206.2600  153.3510 C   0  0  0  0  0  2  0  0  0  0  0  0
  161.1000  207.3900  154.0830 C   0  0  0  0  0  0  0  0  0  0  0  0
  160.8650  211.4820  152.6210 O   0  0  0  0  0  1  0  0  0  0  0  0
  158.3070  212.6310  156.5470 N   0  0  0  0  0  1  0  0  0  0  0  0
  159.7840  209.3810  155.5060 C   0  0  0  0  0  0  0  0  0  0  0  0
  159.8530  208.1120  155.9840 N   0  0  0  0  0  0  0  0  0  0  0  0
  160.4860  207.1250  155.3050 C   0  0  0  0  0  3  0  0  0  0  0  0
  159.0110  211.6570  155.7870 C   0  0  0  0  0  0  0  0  0  0  0  0
  159.6040  212.0110  154.5760 C   0  0  0  0  0  3  0  0  0  0  0  0
  161.0690  208.6950  153.5530 C   0  0  0  0  0  0  0  0  0  0  0  0
  159.1010  210.3460  156.2490 C   0  0  0  0  0  3  0  0  0  0  0  0
  161.7350  208.9500  152.2350 C   0  0  0  0  0  1  0  0  0  0  0  0
  160.4000  209.7220  154.2710 C   0  0  0  0  0  0  0  0  0  0  0  0
  160.2980  211.0640  153.8180 C   0  0  0  0  0  0  0  0  0  0  0  0
  1 17  1  0  0  0  0
  2  7  1  0  0  0  0
  2  1  2  0  0  0  0
  3  1  1  0  0  0  0
  4  6  1  0  0  0  0
  4  5  1  0  0  0  0
  5  3  1  0  0  0  0
  6  5  1  0  0  0  0
  8  9  1  0  0  0  0
  9 11  1  0  0  0  0
 10  8  2  0  0  0  0
 10 12  1  0  0  0  0
 11  7  1  1  0  0  0
 12 11  1  0  0  0  0
 13 16  2  0  0  0  0
 14 10  1  0  0  0  0
 16 14  1  0  0  0  0
 16 15  1  0  0  0  0
 17 18  1  0  0  0  0
 18 19  1  0  0  0  0
 19 20  1  0  0  0  0
 20 25  1  0  0  0  0
 21 32  1  0  0  0  0
 23 24  1  0  0  0  0
 23 29  1  0  0  0  0
 25 24  2  0  0  0  0
 26 29  2  0  0  0  0
 26 22  1  0  0  0  0
 27 26  1  0  0  0  0
 28 20  2  0  0  0  0
 28 31  1  0  0  0  0
 30 28  1  0  0  0  0
 31 23  2  0  0  0  0
 32 31  1  0  0  0  0
 32 27  2  0  0  0  0
M  END
>  <MODEL>
4

>  <REMARK>
 VINA RESULT:      -7.9      2.625      9.724
  Name = 
  9 active torsions:
  status: ('A' for Active; 'I' for Inactive)
    1  A    between atoms: C_1  and  C_19
    2  A    between atoms: C_3  and  C_15
    3  A    between atoms: C_3  and  C_29
    4  A    between atoms: C_11  and  C_15
    5  A    between atoms: C_12  and  N_16
    6  A    between atoms: N_14  and  C_21
    7  A    between atoms: C_19  and  O_25
    8  A    between atoms: C_21  and  C_23
    9  A    between atoms: O_25  and  C_29
                            x       y       z     vdW  Elec       q    Type
                         _______ _______ _______ _____ _____    ______ ____

>  <TORSDO>
F 9

$$$$
=
 OpenBabel11052411533D

 32 35  0  0  1  0  0  0  0  0999 V2000
  160.9470  205.0710  149.8590 C   0  0  0  0  0  0  0  0  0  0  0  0
  161.3380  205.1410  148.6310 N   0  0  0  0  0  0  0  0  0  0  0  0
  160.5830  203.7280  150.4160 C   0  0  0  0  0  2  0  0  0  0  0  0
  159.7870  201.6240  149.3930 C   0  0  0  0  0  2  0  0  0  0  0  0
  160.9210  202.6270  149.4250 C   0  0  0  0  0  3  0  0  0  0  0  0
  161.0510  201.3100  150.1640 C   0  0  0  0  0  2  0  0  0  0  0  0
  161.7290  206.3690  147.9750 C   0  0  0  0  0  2  0  0  0  0  0  0
  162.5910  204.0680  145.6140 C   0  0  0  0  0  3  0  0  0  0  0  0
  163.0600  205.2340  146.2650 N   0  0  0  0  0  2  0  0  0  0  0  0
  161.2940  204.1490  145.3940 C   0  0  0  0  0  0  0  0  0  0  0  0
  161.9430  206.1420  146.4810 C   0  0  1  0  0  3  0  0  0  0  0  0
  160.7260  205.4280  145.8950 C   0  0  0  0  0  2  0  0  0  0  0  0
  159.5500  201.0210  144.6130 O   0  0  0  0  0  0  0  0  0  0  0  0
  160.4970  203.1370  144.7680 N   0  0  0  0  0  2  0  0  0  0  0  0
  161.0130  201.3260  146.3470 O   0  0  0  0  0  1  0  0  0  0  0  0
  160.3250  201.7950  145.2330 C   0  0  0  0  0  0  0  0  0  0  0  0
  160.8830  206.2970  150.7380 C   0  0  0  0  0  2  0  0  0  0  0  0
  160.9030  205.9510  152.0920 O   0  0  0  0  0  0  0  0  0  0  0  0
  161.8770  206.7760  152.6530 C   0  0  0  0  0  2  0  0  0  0  0  0
  161.2330  207.7490  153.5870 C   0  0  0  0  0  0  0  0  0  0  0  0
  160.4400  211.9260  152.6570 O   0  0  0  0  0  1  0  0  0  0  0  0
  158.3280  212.3800  156.9710 N   0  0  0  0  0  1  0  0  0  0  0  0
  159.9420  209.4300  155.3830 C   0  0  0  0  0  0  0  0  0  0  0  0
  160.1870  208.1310  155.6960 N   0  0  0  0  0  0  0  0  0  0  0  0
  160.8110  207.2930  154.8340 C   0  0  0  0  0  3  0  0  0  0  0  0
  159.0120  211.5700  156.0220 C   0  0  0  0  0  0  0  0  0  0  0  0
  159.4050  212.1100  154.8000 C   0  0  0  0  0  3  0  0  0  0  0  0
  161.0160  209.0920  153.2220 C   0  0  0  0  0  0  0  0  0  0  0  0
  159.2790  210.2340  156.3120 C   0  0  0  0  0  3  0  0  0  0  0  0
  161.4760  209.5530  151.8730 C   0  0  0  0  0  1  0  0  0  0  0  0
  160.3570  209.9620  154.1320 C   0  0  0  0  0  0  0  0  0  0  0  0
  160.0760  211.3260  153.8560 C   0  0  0  0  0  0  0  0  0  0  0  0
  1  3  1  0  0  0  0
  1 17  1  0  0  0  0
  2  1  2  0  0  0  0
  4  5  1  0  0  0  0
  4  6  1  0  0  0  0
  5  6  1  0  0  0  0
  5  3  1  0  0  0  0
  7  2  1  0  0  0  0
  8  9  1  0  0  0  0
  9 11  1  0  0  0  0
 10  8  2  0  0  0  0
 10 12  1  0  0  0  0
 11  7  1  1  0  0  0
 12 11  1  0  0  0  0
 13 16  2  0  0  0  0
 14 16  1  0  0  0  0
 14 10  1  0  0  0  0
 16 15  1  0  0  0  0
 17 18  1  0  0  0  0
 18 19  1  0  0  0  0
 19 20  1  0  0  0  0
 20 25  1  0  0  0  0
 21 32  1  0  0  0  0
 23 24  1  0  0  0  0
 23 29  1  0  0  0  0
 25 24  2  0  0  0  0
 26 29  2  0  0  0  0
 26 22  1  0  0  0  0
 27 26  1  0  0  0  0
 28 20  2  0  0  0  0
 28 31  1  0  0  0  0
 30 28  1  0  0  0  0
 31 23  2  0  0  0  0
 32 31  1  0  0  0  0
 32 27  2  0  0  0  0
M  END
>  <MODEL>
5

>  <REMARK>
 VINA RESULT:      -7.8      2.646      9.859
  Name = 
  9 active torsions:
  status: ('A' for Active; 'I' for Inactive)
    1  A    between atoms: C_1  and  C_19
    2  A    between atoms: C_3  and  C_15
    3  A    between atoms: C_3  and  C_29
    4  A    between atoms: C_11  and  C_15
    5  A    between atoms: C_12  and  N_16
    6  A    between atoms: N_14  and  C_21
    7  A    between atoms: C_19  and  O_25
    8  A    between atoms: C_21  and  C_23
    9  A    between atoms: O_25  and  C_29
                            x       y       z     vdW  Elec       q    Type
                         _______ _______ _______ _____ _____    ______ ____

>  <TORSDO>
F 9

$$$$
=
 OpenBabel11052411533D

 32 35  0  0  1  0  0  0  0  0999 V2000
  162.0070  209.7640  149.2690 C   0  0  0  0  0  0  0  0  0  0  0  0
  161.9170  210.0570  150.5230 N   0  0  0  0  0  0  0  0  0  0  0  0
  161.7500  210.8460  148.2630 C   0  0  0  0  0  2  0  0  0  0  0  0
  161.0670  213.2060  148.5300 C   0  0  0  0  0  2  0  0  0  0  0  0
  162.1620  212.2000  148.8150 C   0  0  0  0  0  3  0  0  0  0  0  0
  162.3140  213.1830  147.6710 C   0  0  0  0  0  2  0  0  0  0  0  0
  162.1510  209.1130  151.5940 C   0  0  0  0  0  2  0  0  0  0  0  0
  160.8970  208.6660  154.7310 C   0  0  0  0  0  3  0  0  0  0  0  0
  161.1440  207.9840  153.5150 N   0  0  0  0  0  0  0  0  0  0  0  0
  160.5000  209.9000  154.4980 C   0  0  0  0  0  0  0  0  0  0  0  0
  160.8770  208.8820  152.4010 C   0  0  1  0  0  3  0  0  0  0  0  0
  160.4350  210.1960  153.0430 C   0  0  0  0  0  3  0  0  0  0  0  0
  158.7310  212.0380  156.8940 O   0  0  0  0  0  1  0  0  0  0  0  0
  160.1800  210.8700  155.5030 N   0  0  0  0  0  2  0  0  0  0  0  0
  157.7380  210.6280  155.3890 O   0  0  0  0  0  0  0  0  0  0  0  0
  158.8660  211.2010  155.9630 C   0  0  0  0  0  0  0  0  0  0  0  0
  162.3920  208.3800  148.8070 C   0  0  0  0  0  2  0  0  0  0  0  0
  161.2900  207.6910  148.2960 O   0  0  0  0  0  0  0  0  0  0  0  0
  161.0790  206.6440  149.1930 C   0  0  0  0  0  2  0  0  0  0  0  0
  161.1530  205.3400  148.4670 C   0  0  0  0  0  0  0  0  0  0  0  0
  161.1890  201.4320  150.3840 O   0  0  0  0  0  1  0  0  0  0  0  0
  161.2170  199.3980  146.0100 N   0  0  0  0  0  1  0  0  0  0  0  0
  161.2000  202.9850  146.9930 C   0  0  0  0  0  0  0  0  0  0  0  0
  161.1980  204.1940  146.3750 N   0  0  0  0  0  0  0  0  0  0  0  0
  161.1710  205.3540  147.0740 C   0  0  0  0  0  3  0  0  0  0  0  0
  161.2140  200.5710  146.8140 C   0  0  0  0  0  0  0  0  0  0  0  0
  161.2040  200.4650  148.2030 C   0  0  0  0  0  3  0  0  0  0  0  0
  161.1710  204.1090  149.1540 C   0  0  0  0  0  0  0  0  0  0  0  0
  161.2120  201.8270  146.2110 C   0  0  0  0  0  3  0  0  0  0  0  0
  161.1470  204.1240  150.6520 C   0  0  0  0  0  1  0  0  0  0  0  0
  161.1950  202.8980  148.4120 C   0  0  0  0  0  0  0  0  0  0  0  0
  161.1990  201.6090  149.0060 C   0  0  0  0  0  0  0  0  0  0  0  0
  1  2  2  0  0  0  0
  2  7  1  0  0  0  0
  3  5  1  0  0  0  0
  3  1  1  0  0  0  0
  4  5  1  0  0  0  0
  6  4  1  0  0  0  0
  6  5  1  0  0  0  0
  9  8  2  0  0  0  0
 10  8  1  0  0  0  0
 10 14  1  0  0  0  0
 11  7  1  1  0  0  0
 11 12  1  0  0  0  0
 11  9  1  0  0  0  0
 12 10  2  0  0  0  0
 14 16  1  0  0  0  0
 15 16  2  0  0  0  0
 16 13  1  0  0  0  0
 17  1  1  0  0  0  0
 18 17  1  0  0  0  0
 18 19  1  0  0  0  0
 20 28  1  0  0  0  0
 20 19  1  0  0  0  0
 22 26  1  0  0  0  0
 23 31  1  0  0  0  0
 24 23  2  0  0  0  0
 24 25  1  0  0  0  0
 25 20  2  0  0  0  0
 26 27  1  0  0  0  0
 27 32  2  0  0  0  0
 28 30  1  0  0  0  0
 29 26  2  0  0  0  0
 29 23  1  0  0  0  0
 31 32  1  0  0  0  0
 31 28  2  0  0  0  0
 32 21  1  0  0  0  0
M  END
>  <MODEL>
6

>  <REMARK>
 VINA RESULT:      -7.7      2.325      4.123
  Name = 
  9 active torsions:
  status: ('A' for Active; 'I' for Inactive)
    1  A    between atoms: C_1  and  C_19
    2  A    between atoms: C_3  and  C_15
    3  A    between atoms: C_3  and  C_29
    4  A    between atoms: C_11  and  C_15
    5  A    between atoms: C_12  and  N_16
    6  A    between atoms: N_14  and  C_21
    7  A    between atoms: C_19  and  O_25
    8  A    between atoms: C_21  and  C_23
    9  A    between atoms: O_25  and  C_29
                            x       y       z     vdW  Elec       q    Type
                         _______ _______ _______ _____ _____    ______ ____

>  <TORSDO>
F 9

$$$$
=
 OpenBabel11052411533D

 32 35  0  0  1  0  0  0  0  0999 V2000
  160.8280  205.5810  149.4340 C   0  0  0  0  0  0  0  0  0  0  0  0
  161.2480  205.4760  148.2170 N   0  0  0  0  0  0  0  0  0  0  0  0
  160.4580  204.3290  150.1710 C   0  0  0  0  0  2  0  0  0  0  0  0
  161.3800  202.5260  151.5880 C   0  0  0  0  0  2  0  0  0  0  0  0
  161.5130  203.9860  151.2090 C   0  0  0  0  0  3  0  0  0  0  0  0
  160.8310  203.5960  152.5070 C   0  0  0  0  0  2  0  0  0  0  0  0
  161.6480  206.5990  147.3990 C   0  0  0  0  0  2  0  0  0  0  0  0
  162.5380  204.0070  145.3740 C   0  0  0  0  0  3  0  0  0  0  0  0
  162.9880  205.2620  145.8500 N   0  0  0  0  0  2  0  0  0  0  0  0
  161.2380  204.0300  145.1610 C   0  0  0  0  0  0  0  0  0  0  0  0
  161.8540  206.1690  145.9500 C   0  0  1  0  0  3  0  0  0  0  0  0
  160.6470  205.3550  145.4840 C   0  0  0  0  0  2  0  0  0  0  0  0
  159.4720  200.8300  144.8880 O   0  0  0  0  0  0  0  0  0  0  0  0
  160.4570  202.9250  144.6920 N   0  0  0  0  0  2  0  0  0  0  0  0
  160.8320  201.4510  146.6220 O   0  0  0  0  0  1  0  0  0  0  0  0
  160.2250  201.7010  145.3960 C   0  0  0  0  0  0  0  0  0  0  0  0
  160.7380  206.9200  150.1250 C   0  0  0  0  0  2  0  0  0  0  0  0
  161.9930  207.5270  150.2190 O   0  0  0  0  0  0  0  0  0  0  0  0
  162.3340  207.4280  151.5680 C   0  0  0  0  0  2  0  0  0  0  0  0
  161.6850  208.5370  152.3310 C   0  0  0  0  0  0  0  0  0  0  0  0
  159.6910  208.0680  156.1720 O   0  0  0  0  0  1  0  0  0  0  0  0
  158.9220  212.8300  156.2400 N   0  0  0  0  0  1  0  0  0  0  0  0
  160.5970  210.7010  153.6910 C   0  0  0  0  0  0  0  0  0  0  0  0
  161.2080  210.8680  152.4900 N   0  0  0  0  0  0  0  0  0  0  0  0
  161.7480  209.8270  151.8110 C   0  0  0  0  0  3  0  0  0  0  0  0
  159.4430  211.6840  155.5780 C   0  0  0  0  0  0  0  0  0  0  0  0
  159.3290  210.4260  156.1670 C   0  0  0  0  0  3  0  0  0  0  0  0
  161.0470  208.3100  153.5670 C   0  0  0  0  0  0  0  0  0  0  0  0
  160.0750  211.8200  154.3440 C   0  0  0  0  0  3  0  0  0  0  0  0
  160.9980  206.9120  154.1040 C   0  0  0  0  0  1  0  0  0  0  0  0
  160.4860  209.4080  154.2720 C   0  0  0  0  0  0  0  0  0  0  0  0
  159.8380  209.2910  155.5300 C   0  0  0  0  0  0  0  0  0  0  0  0
  1 17  1  0  0  0  0
  1  3  1  0  0  0  0
  2  1  2  0  0  0  0
  3  5  1  0  0  0  0
  4  6  1  0  0  0  0
  5  4  1  0  0  0  0
  5  6  1  0  0  0  0
  7  2  1  0  0  0  0
  8  9  1  0  0  0  0
  9 11  1  0  0  0  0
 10  8  2  0  0  0  0
 10 12  1  0  0  0  0
 11  7  1  1  0  0  0
 12 11  1  0  0  0  0
 13 16  2  0  0  0  0
 14 10  1  0  0  0  0
 14 16  1  0  0  0  0
 16 15  1  0  0  0  0
 17 18  1  0  0  0  0
 18 19  1  0  0  0  0
 19 20  1  0  0  0  0
 20 28  1  0  0  0  0
 23 31  1  0  0  0  0
 23 29  1  0  0  0  0
 24 23  2  0  0  0  0
 25 20  2  0  0  0  0
 25 24  1  0  0  0  0
 26 27  1  0  0  0  0
 26 22  1  0  0  0  0
 28 30  1  0  0  0  0
 28 31  2  0  0  0  0
 29 26  2  0  0  0  0
 31 32  1  0  0  0  0
 32 27  2  0  0  0  0
 32 21  1  0  0  0  0
M  END
>  <MODEL>
7

>  <REMARK>
 VINA RESULT:      -7.7      2.621      9.438
  Name = 
  9 active torsions:
  status: ('A' for Active; 'I' for Inactive)
    1  A    between atoms: C_1  and  C_19
    2  A    between atoms: C_3  and  C_15
    3  A    between atoms: C_3  and  C_29
    4  A    between atoms: C_11  and  C_15
    5  A    between atoms: C_12  and  N_16
    6  A    between atoms: N_14  and  C_21
    7  A    between atoms: C_19  and  O_25
    8  A    between atoms: C_21  and  C_23
    9  A    between atoms: O_25  and  C_29
                            x       y       z     vdW  Elec       q    Type
                         _______ _______ _______ _____ _____    ______ ____

>  <TORSDO>
F 9

$$$$
=
 OpenBabel11052411533D

 32 35  0  0  1  0  0  0  0  0999 V2000
  160.9270  206.2410  148.1160 C   0  0  0  0  0  0  0  0  0  0  0  0
  160.6790  205.0290  148.4860 N   0  0  0  0  0  0  0  0  0  0  0  0
  161.1380  206.5120  146.6570 C   0  0  0  0  0  2  0  0  0  0  0  0
  162.4220  204.8660  145.3340 C   0  0  0  0  0  2  0  0  0  0  0  0
  161.0460  205.2260  145.8540 C   0  0  0  0  0  3  0  0  0  0  0  0
  161.4100  205.5090  144.4090 C   0  0  0  0  0  2  0  0  0  0  0  0
  160.4450  204.6330  149.8580 C   0  0  0  0  0  2  0  0  0  0  0  0
  160.4760  201.2420  150.1890 C   0  0  0  0  0  3  0  0  0  0  0  0
  160.5080  202.4410  150.9400 N   0  0  0  0  0  2  0  0  0  0  0  0
  161.1750  201.3710  149.0790 C   0  0  0  0  0  0  0  0  0  0  0  0
  161.3050  203.4300  150.2290 C   0  0  1  0  0  3  0  0  0  0  0  0
  161.7740  202.7260  148.9560 C   0  0  0  0  0  2  0  0  0  0  0  0
  161.3190  199.5390  145.9080 O   0  0  0  0  0  0  0  0  0  0  0  0
  161.3400  200.3550  148.0830 N   0  0  0  0  0  2  0  0  0  0  0  0
  160.5500  201.6790  146.1690 O   0  0  0  0  0  1  0  0  0  0  0  0
  161.0790  200.5010  146.6830 C   0  0  0  0  0  0  0  0  0  0  0  0
  160.9760  207.3750  149.1110 C   0  0  0  0  0  2  0  0  0  0  0  0
  162.2930  207.7510  149.3870 O   0  0  0  0  0  0  0  0  0  0  0  0
  162.5400  207.2590  150.6690 C   0  0  0  0  0  2  0  0  0  0  0  0
  162.0060  208.2170  151.6840 C   0  0  0  0  0  0  0  0  0  0  0  0
  160.1640  207.0640  155.4550 O   0  0  0  0  0  1  0  0  0  0  0  0
  159.7370  211.7410  156.5600 N   0  0  0  0  0  1  0  0  0  0  0  0
  161.1370  210.1050  153.5280 C   0  0  0  0  0  0  0  0  0  0  0  0
  161.7020  210.4860  152.3530 N   0  0  0  0  0  0  0  0  0  0  0  0
  162.1360  209.5830  151.4420 C   0  0  0  0  0  3  0  0  0  0  0  0
  160.1440  210.7320  155.6440 C   0  0  0  0  0  0  0  0  0  0  0  0
  159.9690  209.3870  155.9640 C   0  0  0  0  0  3  0  0  0  0  0  0
  161.4120  207.7720  152.8820 C   0  0  0  0  0  0  0  0  0  0  0  0
  160.7270  211.0890  154.4300 C   0  0  0  0  0  3  0  0  0  0  0  0
  161.2890  206.2970  153.1170 C   0  0  0  0  0  1  0  0  0  0  0  0
  160.9630  208.7270  153.8320 C   0  0  0  0  0  0  0  0  0  0  0  0
  160.3670  208.3840  155.0750 C   0  0  0  0  0  0  0  0  0  0  0  0
  1  2  2  0  0  0  0
  1 17  1  0  0  0  0
  2  7  1  0  0  0  0
  3  1  1  0  0  0  0
  4  5  1  0  0  0  0
  5  3  1  0  0  0  0
  6  4  1  0  0  0  0
  6  5  1  0  0  0  0
  8  9  1  0  0  0  0
 10  8  2  0  0  0  0
 11  7  1  6  0  0  0
 11  9  1  0  0  0  0
 12 10  1  0  0  0  0
 12 11  1  0  0  0  0
 13 16  2  0  0  0  0
 14 10  1  0  0  0  0
 15 16  1  0  0  0  0
 16 14  1  0  0  0  0
 17 18  1  0  0  0  0
 18 19  1  0  0  0  0
 19 20  1  0  0  0  0
 20 28  1  0  0  0  0
 23 31  1  0  0  0  0
 23 29  1  0  0  0  0
 24 23  2  0  0  0  0
 25 20  2  0  0  0  0
 25 24  1  0  0  0  0
 26 27  1  0  0  0  0
 26 22  1  0  0  0  0
 28 30  1  0  0  0  0
 28 31  2  0  0  0  0
 29 26  2  0  0  0  0
 31 32  1  0  0  0  0
 32 21  1  0  0  0  0
 32 27  2  0  0  0  0
M  END
>  <MODEL>
8

>  <REMARK>
 VINA RESULT:      -7.7      2.638      9.677
  Name = 
  9 active torsions:
  status: ('A' for Active; 'I' for Inactive)
    1  A    between atoms: C_1  and  C_19
    2  A    between atoms: C_3  and  C_15
    3  A    between atoms: C_3  and  C_29
    4  A    between atoms: C_11  and  C_15
    5  A    between atoms: C_12  and  N_16
    6  A    between atoms: N_14  and  C_21
    7  A    between atoms: C_19  and  O_25
    8  A    between atoms: C_21  and  C_23
    9  A    between atoms: O_25  and  C_29
                            x       y       z     vdW  Elec       q    Type
                         _______ _______ _______ _____ _____    ______ ____

>  <TORSDO>
F 9

$$$$
=
 OpenBabel11052411533D

 32 35  0  0  1  0  0  0  0  0999 V2000
  161.5210  205.9480  147.5480 C   0  0  0  0  0  0  0  0  0  0  0  0
  161.2220  204.8170  148.0950 N   0  0  0  0  0  0  0  0  0  0  0  0
  162.0350  205.9450  146.1390 C   0  0  0  0  0  2  0  0  0  0  0  0
  160.7440  204.4980  144.6070 C   0  0  0  0  0  2  0  0  0  0  0  0
  160.8840  205.9050  145.1490 C   0  0  0  0  0  3  0  0  0  0  0  0
  161.4190  205.5660  143.7720 C   0  0  0  0  0  2  0  0  0  0  0  0
  160.7070  204.6790  149.4400 C   0  0  0  0  0  2  0  0  0  0  0  0
  159.9710  201.3580  149.6380 C   0  0  0  0  0  3  0  0  0  0  0  0
  159.9610  202.5550  150.3940 N   0  0  0  0  0  2  0  0  0  0  0  0
  161.0300  201.3130  148.8560 C   0  0  0  0  0  0  0  0  0  0  0  0
  161.1320  203.3480  150.0500 C   0  0  1  0  0  3  0  0  0  0  0  0
  161.8810  202.5230  149.0030 C   0  0  0  0  0  2  0  0  0  0  0  0
  161.4790  199.2690  145.8460 O   0  0  0  0  0  0  0  0  0  0  0  0
  161.3430  200.2500  147.9480 N   0  0  0  0  0  2  0  0  0  0  0  0
  160.4520  201.3130  145.9200 O   0  0  0  0  0  1  0  0  0  0  0  0
  161.1050  200.2530  146.5370 C   0  0  0  0  0  0  0  0  0  0  0  0
  161.3330  207.2540  148.2810 C   0  0  0  0  0  2  0  0  0  0  0  0
  162.4610  207.5740  149.0410 O   0  0  0  0  0  0  0  0  0  0  0  0
  162.0780  208.6860  149.7910 C   0  0  0  0  0  2  0  0  0  0  0  0
  161.7660  208.2630  151.1900 C   0  0  0  0  0  0  0  0  0  0  0  0
  160.0850  210.8630  154.2500 O   0  0  0  0  0  1  0  0  0  0  0  0
  159.9740  207.0880  157.2530 N   0  0  0  0  0  1  0  0  0  0  0  0
  161.1460  207.3250  153.7310 C   0  0  0  0  0  0  0  0  0  0  0  0
  161.6770  206.4990  152.7930 N   0  0  0  0  0  0  0  0  0  0  0  0
  161.9830  206.9350  151.5470 C   0  0  0  0  0  3  0  0  0  0  0  0
  160.2920  207.6270  155.9750 C   0  0  0  0  0  0  0  0  0  0  0  0
  160.0480  208.9720  155.7050 C   0  0  0  0  0  3  0  0  0  0  0  0
  161.2310  209.1630  152.1340 C   0  0  0  0  0  0  0  0  0  0  0  0
  160.8390  206.8070  154.9910 C   0  0  0  0  0  3  0  0  0  0  0  0
  161.0040  210.5860  151.7210 C   0  0  0  0  0  1  0  0  0  0  0  0
  160.9100  208.6960  153.4360 C   0  0  0  0  0  0  0  0  0  0  0  0
  160.3530  209.5150  154.4540 C   0  0  0  0  0  0  0  0  0  0  0  0
  1  2  2  0  0  0  0
  1 17  1  0  0  0  0
  2  7  1  0  0  0  0
  3  1  1  0  0  0  0
  4  5  1  0  0  0  0
  5  3  1  0  0  0  0
  6  4  1  0  0  0  0
  6  5  1  0  0  0  0
  8  9  1  0  0  0  0
 10 12  1  0  0  0  0
 10  8  2  0  0  0  0
 11  7  1  6  0  0  0
 11  9  1  0  0  0  0
 12 11  1  0  0  0  0
 13 16  2  0  0  0  0
 14 10  1  0  0  0  0
 15 16  1  0  0  0  0
 16 14  1  0  0  0  0
 17 18  1  0  0  0  0
 18 19  1  0  0  0  0
 19 20  1  0  0  0  0
 20 25  2  0  0  0  0
 20 28  1  0  0  0  0
 21 32  1  0  0  0  0
 23 29  1  0  0  0  0
 24 23  2  0  0  0  0
 25 24  1  0  0  0  0
 26 22  1  0  0  0  0
 27 26  1  0  0  0  0
 28 31  2  0  0  0  0
 29 26  2  0  0  0  0
 30 28  1  0  0  0  0
 31 23  1  0  0  0  0
 31 32  1  0  0  0  0
 32 27  2  0  0  0  0
M  END
>  <MODEL>
9

>  <REMARK>
 VINA RESULT:      -7.6      3.096      9.624
  Name = 
  9 active torsions:
  status: ('A' for Active; 'I' for Inactive)
    1  A    between atoms: C_1  and  C_19
    2  A    between atoms: C_3  and  C_15
    3  A    between atoms: C_3  and  C_29
    4  A    between atoms: C_11  and  C_15
    5  A    between atoms: C_12  and  N_16
    6  A    between atoms: N_14  and  C_21
    7  A    between atoms: C_19  and  O_25
    8  A    between atoms: C_21  and  C_23
    9  A    between atoms: O_25  and  C_29
                            x       y       z     vdW  Elec       q    Type
                         _______ _______ _______ _____ _____    ______ ____

>  <TORSDO>
F 9

$$$$
