=
 OpenBabel11052410543D

 30 33  0  0  0  0  0  0  0  0999 V2000
  161.4900  207.6060  150.9100 C   0  0  0  0  0  3  0  0  0  0  0  0
  161.3250  209.2130  152.7240 C   0  0  0  0  0  0  0  0  0  0  0  0
  160.7400  208.3890  155.0020 N   0  0  0  0  0  2  0  0  0  0  0  0
  161.1970  206.5560  151.7890 C   0  0  0  0  0  0  0  0  0  0  0  0
  161.0020  208.1660  153.6110 C   0  0  0  0  0  0  0  0  0  0  0  0
  159.9420  209.5400  156.8490 O   0  0  0  0  0  0  0  0  0  0  0  0
  161.5000  210.6060  153.2360 C   0  0  0  0  0  2  0  0  0  0  0  0
  160.2130  211.1340  153.7700 C   0  0  0  0  0  3  0  0  0  0  0  0
  160.9600  206.8520  153.1380 C   0  0  0  0  0  3  0  0  0  0  0  0
  159.6560  210.6550  154.8380 N   0  0  0  0  0  0  0  0  0  0  0  0
  160.1380  209.5440  155.6070 C   0  0  0  0  0  0  0  0  0  0  0  0
  161.5580  208.9240  151.3630 C   0  0  0  0  0  0  0  0  0  0  0  0
  160.9580  200.8980  148.6210 C   0  0  0  0  0  3  0  0  0  0  0  0
  161.1390  204.8760  149.9260 C   0  0  0  0  0  3  0  0  0  0  0  0
  161.0170  202.5120  150.4240 C   0  0  0  0  0  0  0  0  0  0  0  0
  161.0810  203.2660  148.1120 C   0  0  0  0  0  3  0  0  0  0  0  0
  160.9570  201.1850  149.9900 C   0  0  0  0  0  3  0  0  0  0  0  0
  161.0720  204.0830  152.2030 C   0  0  0  0  0  3  0  0  0  0  0  0
  161.0790  203.5570  149.4790 C   0  0  0  0  0  0  0  0  0  0  0  0
  161.0210  201.9360  147.6850 C   0  0  0  0  0  3  0  0  0  0  0  0
  161.1360  205.1570  151.3010 C   0  0  0  0  0  0  0  0  0  0  0  0
  161.0150  202.8000  151.7530 N   0  0  0  0  0  0  0  0  0  0  0  0
  162.1530  210.8250  149.6210 C   0  0  0  0  0  0  0  0  0  0  0  0
  161.8820  209.9610  150.4170 C   0  0  0  0  0  0  0  0  0  0  0  0
  162.4810  211.8710  148.6490 C   0  0  0  0  0  2  0  0  0  0  0  0
  161.2380  212.5590  148.1870 C   0  0  0  0  0  0  0  0  0  0  0  0
  160.5510  212.0630  147.3070 O   0  0  0  0  0  0  0  0  0  0  0  0
  160.8410  213.8590  148.8060 C   0  0  0  0  0  2  0  0  0  0  0  0
  159.7500  213.4360  150.9860 C   0  0  0  0  0  1  0  0  0  0  0  0
  159.5100  213.7200  149.5180 C   0  0  0  0  0  2  0  0  0  0  0  0
  1 12  2  0  0  0  0
  1  4  1  0  0  0  0
  2  7  1  0  0  0  0
  2  5  2  0  0  0  0
  3 11  1  0  0  0  0
  4  9  2  0  0  0  0
  5  3  1  0  0  0  0
  7  8  1  0  0  0  0
  8 10  2  0  0  0  0
  9  5  1  0  0  0  0
 10 11  1  0  0  0  0
 11  6  2  0  0  0  0
 12  2  1  0  0  0  0
 13 17  1  0  0  0  0
 14 21  2  0  0  0  0
 15 22  1  0  0  0  0
 16 19  2  0  0  0  0
 17 15  2  0  0  0  0
 19 14  1  0  0  0  0
 19 15  1  0  0  0  0
 20 16  1  0  0  0  0
 20 13  2  0  0  0  0
 21  4  1  0  0  0  0
 21 18  1  0  0  0  0
 22 18  2  0  0  0  0
 23 24  3  0  0  0  0
 24 12  1  0  0  0  0
 25 23  1  0  0  0  0
 26 25  1  0  0  0  0
 26 28  1  0  0  0  0
 27 26  2  0  0  0  0
 28 30  1  0  0  0  0
 30 29  1  0  0  0  0
M  END
>  <MODEL>
1

>  <REMARK>
 VINA RESULT:      -9.7      0.000      0.000
  Name = 
  6 active torsions:
  status: ('A' for Active; 'I' for Inactive)
    1  A    between atoms: C_2  and  C_27
    2  A    between atoms: C_2  and  C_28
    3  A    between atoms: C_9  and  C_18
    4  A    between atoms: C_9  and  C_27
    5  A    between atoms: C_10  and  C_21
    6  A    between atoms: C_20  and  C_29
                            x       y       z     vdW  Elec       q    Type
                         _______ _______ _______ _____ _____    ______ ____

>  <TORSDO>
F 6

$$$$
=
 OpenBabel11052410543D

 30 33  0  0  0  0  0  0  0  0999 V2000
  161.4700  207.5920  150.9230 C   0  0  0  0  0  3  0  0  0  0  0  0
  161.3150  209.1890  152.7470 C   0  0  0  0  0  0  0  0  0  0  0  0
  160.7600  208.3500  155.0270 N   0  0  0  0  0  2  0  0  0  0  0  0
  161.1940  206.5350  151.8010 C   0  0  0  0  0  0  0  0  0  0  0  0
  161.0080  208.1360  153.6320 C   0  0  0  0  0  0  0  0  0  0  0  0
  159.9740  209.4870  156.8880 O   0  0  0  0  0  0  0  0  0  0  0  0
  161.4860  210.5800  153.2630 C   0  0  0  0  0  2  0  0  0  0  0  0
  160.2030  211.0970  153.8140 C   0  0  0  0  0  3  0  0  0  0  0  0
  160.9690  206.8240  153.1540 C   0  0  0  0  0  3  0  0  0  0  0  0
  159.6600  210.6100  154.8860 N   0  0  0  0  0  0  0  0  0  0  0  0
  160.1580  209.4980  155.6440 C   0  0  0  0  0  0  0  0  0  0  0  0
  161.5350  208.9080  151.3820 C   0  0  0  0  0  0  0  0  0  0  0  0
  160.9670  200.8910  148.6090 C   0  0  0  0  0  3  0  0  0  0  0  0
  161.1370  204.8630  149.9310 C   0  0  0  0  0  3  0  0  0  0  0  0
  161.0240  202.4970  150.4190 C   0  0  0  0  0  0  0  0  0  0  0  0
  161.0800  203.2610  148.1100 C   0  0  0  0  0  3  0  0  0  0  0  0
  160.9680  201.1720  149.9790 C   0  0  0  0  0  3  0  0  0  0  0  0
  161.0790  204.0600  152.2040 C   0  0  0  0  0  3  0  0  0  0  0  0
  161.0810  203.5460  149.4780 C   0  0  0  0  0  0  0  0  0  0  0  0
  161.0230  201.9320  147.6770 C   0  0  0  0  0  3  0  0  0  0  0  0
  161.1370  205.1380  151.3070 C   0  0  0  0  0  0  0  0  0  0  0  0
  161.0250  202.7790  151.7490 N   0  0  0  0  0  0  0  0  0  0  0  0
  162.0990  210.8210  149.6430 C   0  0  0  0  0  0  0  0  0  0  0  0
  161.8430  209.9510  150.4380 C   0  0  0  0  0  0  0  0  0  0  0  0
  162.4100  211.8740  148.6720 C   0  0  0  0  0  2  0  0  0  0  0  0
  161.2650  212.8260  148.5560 C   0  0  0  0  0  0  0  0  0  0  0  0
  160.6730  213.2020  149.5570 O   0  0  0  0  0  0  0  0  0  0  0  0
  160.8460  213.3160  147.2080 C   0  0  0  0  0  2  0  0  0  0  0  0
  159.6700  212.2510  145.3100 C   0  0  0  0  0  1  0  0  0  0  0  0
  159.5660  212.6320  146.7720 C   0  0  0  0  0  2  0  0  0  0  0  0
  1 12  2  0  0  0  0
  1  4  1  0  0  0  0
  2  7  1  0  0  0  0
  2  5  2  0  0  0  0
  3 11  1  0  0  0  0
  4  9  2  0  0  0  0
  5  3  1  0  0  0  0
  7  8  1  0  0  0  0
  8 10  2  0  0  0  0
  9  5  1  0  0  0  0
 10 11  1  0  0  0  0
 11  6  2  0  0  0  0
 12  2  1  0  0  0  0
 13 17  1  0  0  0  0
 14 21  2  0  0  0  0
 15 22  1  0  0  0  0
 16 19  2  0  0  0  0
 17 15  2  0  0  0  0
 19 14  1  0  0  0  0
 19 15  1  0  0  0  0
 20 16  1  0  0  0  0
 20 13  2  0  0  0  0
 21  4  1  0  0  0  0
 21 18  1  0  0  0  0
 22 18  2  0  0  0  0
 23 24  3  0  0  0  0
 24 12  1  0  0  0  0
 25 23  1  0  0  0  0
 26 25  1  0  0  0  0
 26 27  2  0  0  0  0
 28 26  1  0  0  0  0
 29 30  1  0  0  0  0
 30 28  1  0  0  0  0
M  END
>  <MODEL>
2

>  <REMARK>
 VINA RESULT:      -9.5      0.893      1.314
  Name = 
  6 active torsions:
  status: ('A' for Active; 'I' for Inactive)
    1  A    between atoms: C_2  and  C_27
    2  A    between atoms: C_2  and  C_28
    3  A    between atoms: C_9  and  C_18
    4  A    between atoms: C_9  and  C_27
    5  A    between atoms: C_10  and  C_21
    6  A    between atoms: C_20  and  C_29
                            x       y       z     vdW  Elec       q    Type
                         _______ _______ _______ _____ _____    ______ ____

>  <TORSDO>
F 6

$$$$
=
 OpenBabel11052410543D

 30 33  0  0  0  0  0  0  0  0999 V2000
  161.7560  208.0100  148.7120 C   0  0  0  0  0  3  0  0  0  0  0  0
  161.8430  208.9440  150.9530 C   0  0  0  0  0  0  0  0  0  0  0  0
  161.5400  207.4160  152.8980 N   0  0  0  0  0  2  0  0  0  0  0  0
  161.5630  206.7250  149.2350 C   0  0  0  0  0  0  0  0  0  0  0  0
  161.6210  207.6590  151.4880 C   0  0  0  0  0  0  0  0  0  0  0  0
  160.9960  207.8890  155.1020 O   0  0  0  0  0  0  0  0  0  0  0  0
  162.0990  210.1030  151.8610 C   0  0  0  0  0  2  0  0  0  0  0  0
  160.8980  210.3940  152.6910 C   0  0  0  0  0  3  0  0  0  0  0  0
  161.5020  206.5660  150.6270 C   0  0  0  0  0  3  0  0  0  0  0  0
  160.4730  209.5820  153.6090 N   0  0  0  0  0  0  0  0  0  0  0  0
  161.0340  208.2970  153.9130 C   0  0  0  0  0  0  0  0  0  0  0  0
  161.8990  209.1140  149.5540 C   0  0  0  0  0  0  0  0  0  0  0  0
  160.9190  201.0020  146.2480 C   0  0  0  0  0  3  0  0  0  0  0  0
  161.3030  204.2590  148.8560 C   0  0  0  0  0  3  0  0  0  0  0  0
  161.1660  203.3830  146.6050 C   0  0  0  0  0  0  0  0  0  0  0  0
  161.0560  201.8710  148.5070 C   0  0  0  0  0  3  0  0  0  0  0  0
  161.0370  202.2980  145.7340 C   0  0  0  0  0  3  0  0  0  0  0  0
  161.4090  205.7210  146.9400 C   0  0  0  0  0  3  0  0  0  0  0  0
  161.1750  203.1670  147.9980 C   0  0  0  0  0  0  0  0  0  0  0  0
  160.9280  200.7890  147.6300 C   0  0  0  0  0  3  0  0  0  0  0  0
  161.4230  205.5560  148.3340 C   0  0  0  0  0  0  0  0  0  0  0  0
  161.2820  204.6460  146.1150 N   0  0  0  0  0  0  0  0  0  0  0  0
  162.2910  211.4910  148.4590 C   0  0  0  0  0  0  0  0  0  0  0  0
  162.1140  210.4080  148.9600 C   0  0  0  0  0  0  0  0  0  0  0  0
  162.5020  212.8050  147.8450 C   0  0  0  0  0  2  0  0  0  0  0  0
  161.5400  213.0130  146.7210 C   0  0  0  0  0  0  0  0  0  0  0  0
  161.9180  212.9200  145.5630 O   0  0  0  0  0  0  0  0  0  0  0  0
  160.1130  213.3380  147.0220 C   0  0  0  0  0  2  0  0  0  0  0  0
  157.8010  212.5570  146.6180 C   0  0  0  0  0  1  0  0  0  0  0  0
  159.1950  212.6460  146.0340 C   0  0  0  0  0  2  0  0  0  0  0  0
  1  4  2  0  0  0  0
  1 12  1  0  0  0  0
  2  5  1  0  0  0  0
  2  7  1  0  0  0  0
  3 11  1  0  0  0  0
  4  9  1  0  0  0  0
  5  3  1  0  0  0  0
  7  8  1  0  0  0  0
  8 10  2  0  0  0  0
  9  5  2  0  0  0  0
 10 11  1  0  0  0  0
 11  6  2  0  0  0  0
 12  2  2  0  0  0  0
 13 20  1  0  0  0  0
 15 19  1  0  0  0  0
 17 13  2  0  0  0  0
 17 15  1  0  0  0  0
 18 21  2  0  0  0  0
 19 16  1  0  0  0  0
 19 14  2  0  0  0  0
 20 16  2  0  0  0  0
 21 14  1  0  0  0  0
 21  4  1  0  0  0  0
 22 15  2  0  0  0  0
 22 18  1  0  0  0  0
 23 24  3  0  0  0  0
 24 12  1  0  0  0  0
 25 23  1  0  0  0  0
 26 28  1  0  0  0  0
 26 25  1  0  0  0  0
 27 26  2  0  0  0  0
 30 29  1  0  0  0  0
 30 28  1  0  0  0  0
M  END
>  <MODEL>
3

>  <REMARK>
 VINA RESULT:      -8.9      2.031      2.793
  Name = 
  6 active torsions:
  status: ('A' for Active; 'I' for Inactive)
    1  A    between atoms: C_2  and  C_27
    2  A    between atoms: C_2  and  C_28
    3  A    between atoms: C_9  and  C_18
    4  A    between atoms: C_9  and  C_27
    5  A    between atoms: C_10  and  C_21
    6  A    between atoms: C_20  and  C_29
                            x       y       z     vdW  Elec       q    Type
                         _______ _______ _______ _____ _____    ______ ____

>  <TORSDO>
F 6

$$$$
=
 OpenBabel11052410543D

 30 33  0  0  0  0  0  0  0  0999 V2000
  161.5760  207.6990  149.8870 C   0  0  0  0  0  3  0  0  0  0  0  0
  161.5700  209.0220  151.9240 C   0  0  0  0  0  0  0  0  0  0  0  0
  161.0590  207.8900  154.0850 N   0  0  0  0  0  2  0  0  0  0  0  0
  161.2810  206.5400  150.6170 C   0  0  0  0  0  0  0  0  0  0  0  0
  161.2440  207.8670  152.6640 C   0  0  0  0  0  0  0  0  0  0  0  0
  160.4020  208.7810  156.1220 O   0  0  0  0  0  0  0  0  0  0  0  0
  161.8290  210.3160  152.6250 C   0  0  0  0  0  2  0  0  0  0  0  0
  160.5950  210.8040  153.3000 C   0  0  0  0  0  3  0  0  0  0  0  0
  161.1220  206.6410  152.0060 C   0  0  0  0  0  3  0  0  0  0  0  0
  160.0690  210.1920  154.3150 N   0  0  0  0  0  0  0  0  0  0  0  0
  160.5390  208.9620  154.8850 C   0  0  0  0  0  0  0  0  0  0  0  0
  161.7240  208.9310  150.5250 C   0  0  0  0  0  0  0  0  0  0  0  0
  160.9190  201.3920  146.6860 C   0  0  0  0  0  3  0  0  0  0  0  0
  161.3560  205.1180  148.5520 C   0  0  0  0  0  3  0  0  0  0  0  0
  160.8480  202.7560  148.6840 C   0  0  0  0  0  0  0  0  0  0  0  0
  161.4300  203.7580  146.5440 C   0  0  0  0  0  3  0  0  0  0  0  0
  160.7020  201.5130  148.0620 C   0  0  0  0  0  3  0  0  0  0  0  0
  160.7720  204.0820  150.6510 C   0  0  0  0  0  3  0  0  0  0  0  0
  161.2140  203.8840  147.9190 C   0  0  0  0  0  0  0  0  0  0  0  0
  161.2820  202.5100  145.9290 C   0  0  0  0  0  3  0  0  0  0  0  0
  161.1350  205.2330  149.9330 C   0  0  0  0  0  0  0  0  0  0  0  0
  160.6380  202.8840  150.0210 N   0  0  0  0  0  0  0  0  0  0  0  0
  162.3130  211.0510  149.0550 C   0  0  0  0  0  0  0  0  0  0  0  0
  162.0470  210.0840  149.7260 C   0  0  0  0  0  0  0  0  0  0  0  0
  162.6300  212.2270  148.2400 C   0  0  0  0  0  2  0  0  0  0  0  0
  161.6960  213.3480  148.5620 C   0  0  0  0  0  0  0  0  0  0  0  0
  161.8640  214.4510  148.0640 O   0  0  0  0  0  0  0  0  0  0  0  0
  160.5560  213.1140  149.4990 C   0  0  0  0  0  2  0  0  0  0  0  0
  159.4270  214.0110  151.5090 C   0  0  0  0  0  1  0  0  0  0  0  0
  160.2630  214.3680  150.2980 C   0  0  0  0  0  2  0  0  0  0  0  0
  1 12  2  0  0  0  0
  1  4  1  0  0  0  0
  2  7  1  0  0  0  0
  2  5  2  0  0  0  0
  3 11  1  0  0  0  0
  4  9  2  0  0  0  0
  5  3  1  0  0  0  0
  7  8  1  0  0  0  0
  8 10  2  0  0  0  0
  9  5  1  0  0  0  0
 10 11  1  0  0  0  0
 11  6  2  0  0  0  0
 12  2  1  0  0  0  0
 13 17  1  0  0  0  0
 14 21  2  0  0  0  0
 15 22  1  0  0  0  0
 16 19  2  0  0  0  0
 17 15  2  0  0  0  0
 19 14  1  0  0  0  0
 19 15  1  0  0  0  0
 20 16  1  0  0  0  0
 20 13  2  0  0  0  0
 21  4  1  0  0  0  0
 21 18  1  0  0  0  0
 22 18  2  0  0  0  0
 23 24  3  0  0  0  0
 24 12  1  0  0  0  0
 25 26  1  0  0  0  0
 25 23  1  0  0  0  0
 26 28  1  0  0  0  0
 27 26  2  0  0  0  0
 28 30  1  0  0  0  0
 30 29  1  0  0  0  0
M  END
>  <MODEL>
4

>  <REMARK>
 VINA RESULT:      -8.9      1.156      1.348
  Name = 
  6 active torsions:
  status: ('A' for Active; 'I' for Inactive)
    1  A    between atoms: C_2  and  C_27
    2  A    between atoms: C_2  and  C_28
    3  A    between atoms: C_9  and  C_18
    4  A    between atoms: C_9  and  C_27
    5  A    between atoms: C_10  and  C_21
    6  A    between atoms: C_20  and  C_29
                            x       y       z     vdW  Elec       q    Type
                         _______ _______ _______ _____ _____    ______ ____

>  <TORSDO>
F 6

$$$$
=
 OpenBabel11052410543D

 30 33  0  0  0  0  0  0  0  0999 V2000
  160.9730  205.6380  151.8400 C   0  0  0  0  0  3  0  0  0  0  0  0
  161.1240  208.0530  151.6230 C   0  0  0  0  0  0  0  0  0  0  0  0
  161.5090  209.0290  149.3630 N   0  0  0  0  0  2  0  0  0  0  0  0
  161.1410  205.4850  150.4580 C   0  0  0  0  0  0  0  0  0  0  0  0
  161.3230  207.9070  150.2360 C   0  0  0  0  0  0  0  0  0  0  0  0
  162.2590  211.1350  148.7510 O   0  0  0  0  0  0  0  0  0  0  0  0
  161.0070  209.4140  152.2280 C   0  0  0  0  0  2  0  0  0  0  0  0
  162.2870  210.1620  152.0900 C   0  0  0  0  0  3  0  0  0  0  0  0
  161.3100  206.6300  149.6690 C   0  0  0  0  0  3  0  0  0  0  0  0
  162.7440  210.5520  150.9410 N   0  0  0  0  0  0  0  0  0  0  0  0
  162.1430  210.2800  149.6670 C   0  0  0  0  0  0  0  0  0  0  0  0
  160.9600  206.9050  152.4260 C   0  0  0  0  0  0  0  0  0  0  0  0
  161.1070  200.1410  146.7800 C   0  0  0  0  0  3  0  0  0  0  0  0
  161.1060  203.9840  148.4480 C   0  0  0  0  0  3  0  0  0  0  0  0
  161.1450  201.5810  148.7240 C   0  0  0  0  0  0  0  0  0  0  0  0
  161.0680  202.5480  146.4930 C   0  0  0  0  0  3  0  0  0  0  0  0
  161.1450  200.2990  148.1690 C   0  0  0  0  0  3  0  0  0  0  0  0
  161.1800  202.9810  150.6410 C   0  0  0  0  0  3  0  0  0  0  0  0
  161.1060  202.7110  147.8810 C   0  0  0  0  0  0  0  0  0  0  0  0
  161.0690  201.2620  145.9440 C   0  0  0  0  0  3  0  0  0  0  0  0
  161.1430  204.1360  149.8430 C   0  0  0  0  0  0  0  0  0  0  0  0
  161.1810  201.7440  150.0740 N   0  0  0  0  0  0  0  0  0  0  0  0
  160.6050  207.0850  155.0420 C   0  0  0  0  0  0  0  0  0  0  0  0
  160.7640  207.0020  153.8500 C   0  0  0  0  0  0  0  0  0  0  0  0
  160.4160  207.1890  156.4920 C   0  0  0  0  0  2  0  0  0  0  0  0
  160.9620  208.4850  156.9950 C   0  0  0  0  0  0  0  0  0  0  0  0
  162.1500  208.5910  157.2600 O   0  0  0  0  0  0  0  0  0  0  0  0
  160.0460  209.6520  157.1730 C   0  0  0  0  0  2  0  0  0  0  0  0
  158.9430  210.6710  155.2070 C   0  0  0  0  0  1  0  0  0  0  0  0
  160.2140  210.6330  156.0300 C   0  0  0  0  0  2  0  0  0  0  0  0
  1 12  1  0  0  0  0
  2  7  1  0  0  0  0
  2 12  2  0  0  0  0
  3 11  1  0  0  0  0
  3  5  1  0  0  0  0
  4  1  2  0  0  0  0
  5  2  1  0  0  0  0
  6 11  2  0  0  0  0
  8  7  1  0  0  0  0
  9  5  2  0  0  0  0
  9  4  1  0  0  0  0
 10  8  2  0  0  0  0
 11 10  1  0  0  0  0
 12 24  1  0  0  0  0
 13 17  1  0  0  0  0
 14 21  2  0  0  0  0
 15 22  1  0  0  0  0
 16 19  2  0  0  0  0
 17 15  2  0  0  0  0
 19 14  1  0  0  0  0
 19 15  1  0  0  0  0
 20 16  1  0  0  0  0
 20 13  2  0  0  0  0
 21  4  1  0  0  0  0
 21 18  1  0  0  0  0
 22 18  2  0  0  0  0
 23 25  1  0  0  0  0
 24 23  3  0  0  0  0
 25 26  1  0  0  0  0
 26 28  1  0  0  0  0
 26 27  2  0  0  0  0
 29 30  1  0  0  0  0
 30 28  1  0  0  0  0
M  END
>  <MODEL>
5

>  <REMARK>
 VINA RESULT:      -8.7      2.234      5.122
  Name = 
  6 active torsions:
  status: ('A' for Active; 'I' for Inactive)
    1  A    between atoms: C_2  and  C_27
    2  A    between atoms: C_2  and  C_28
    3  A    between atoms: C_9  and  C_18
    4  A    between atoms: C_9  and  C_27
    5  A    between atoms: C_10  and  C_21
    6  A    between atoms: C_20  and  C_29
                            x       y       z     vdW  Elec       q    Type
                         _______ _______ _______ _____ _____    ______ ____

>  <TORSDO>
F 6

$$$$
=
 OpenBabel11052410543D

 30 33  0  0  0  0  0  0  0  0999 V2000
  160.9310  208.3520  151.0330 C   0  0  0  0  0  3  0  0  0  0  0  0
  160.9010  208.8070  153.4190 C   0  0  0  0  0  0  0  0  0  0  0  0
  161.0810  206.8920  155.0040 N   0  0  0  0  0  2  0  0  0  0  0  0
  161.0860  206.9810  151.2780 C   0  0  0  0  0  0  0  0  0  0  0  0
  161.0280  207.4270  153.6750 C   0  0  0  0  0  0  0  0  0  0  0  0
  160.5530  206.7610  157.2570 O   0  0  0  0  0  0  0  0  0  0  0  0
  160.9110  209.7860  154.5470 C   0  0  0  0  0  2  0  0  0  0  0  0
  159.7190  209.5940  155.4190 C   0  0  0  0  0  3  0  0  0  0  0  0
  161.1370  206.5350  152.6050 C   0  0  0  0  0  3  0  0  0  0  0  0
  159.5550  208.5340  156.1480 N   0  0  0  0  0  0  0  0  0  0  0  0
  160.4280  207.3970  156.1790 C   0  0  0  0  0  0  0  0  0  0  0  0
  160.8410  209.2640  152.0860 C   0  0  0  0  0  0  0  0  0  0  0  0
  161.6670  203.6980  145.7120 C   0  0  0  0  0  3  0  0  0  0  0  0
  161.3880  206.4720  148.8390 C   0  0  0  0  0  3  0  0  0  0  0  0
  161.3780  204.1800  148.0660 C   0  0  0  0  0  0  0  0  0  0  0  0
  161.6790  205.9980  146.4780 C   0  0  0  0  0  3  0  0  0  0  0  0
  161.4710  203.2540  147.0240 C   0  0  0  0  0  3  0  0  0  0  0  0
  161.0920  204.6380  150.3780 C   0  0  0  0  0  3  0  0  0  0  0  0
  161.4830  205.5590  147.7900 C   0  0  0  0  0  0  0  0  0  0  0  0
  161.7710  205.0660  145.4390 C   0  0  0  0  0  3  0  0  0  0  0  0
  161.1900  206.0210  150.1530 C   0  0  0  0  0  0  0  0  0  0  0  0
  161.1860  203.7580  149.3440 N   0  0  0  0  0  0  0  0  0  0  0  0
  160.5830  211.8330  151.5070 C   0  0  0  0  0  0  0  0  0  0  0  0
  160.7020  210.6630  151.7730 C   0  0  0  0  0  0  0  0  0  0  0  0
  160.4350  213.2530  151.1790 C   0  0  0  0  0  2  0  0  0  0  0  0
  159.7070  213.4140  149.8840 C   0  0  0  0  0  0  0  0  0  0  0  0
  158.5530  213.8140  149.8730 O   0  0  0  0  0  0  0  0  0  0  0  0
  160.3990  213.0800  148.6030 C   0  0  0  0  0  2  0  0  0  0  0  0
  162.7870  212.7030  148.0820 C   0  0  0  0  0  1  0  0  0  0  0  0
  161.7720  213.7190  148.5630 C   0  0  0  0  0  2  0  0  0  0  0  0
  1  4  2  0  0  0  0
  1 12  1  0  0  0  0
  2  5  1  0  0  0  0
  2  7  1  0  0  0  0
  3 11  1  0  0  0  0
  4  9  1  0  0  0  0
  5  3  1  0  0  0  0
  7  8  1  0  0  0  0
  8 10  2  0  0  0  0
  9  5  2  0  0  0  0
 10 11  1  0  0  0  0
 11  6  2  0  0  0  0
 12  2  2  0  0  0  0
 13 17  1  0  0  0  0
 14 21  2  0  0  0  0
 15 22  1  0  0  0  0
 16 19  2  0  0  0  0
 17 15  2  0  0  0  0
 19 15  1  0  0  0  0
 19 14  1  0  0  0  0
 20 13  2  0  0  0  0
 20 16  1  0  0  0  0
 21 18  1  0  0  0  0
 21  4  1  0  0  0  0
 22 18  2  0  0  0  0
 23 24  3  0  0  0  0
 24 12  1  0  0  0  0
 25 23  1  0  0  0  0
 26 25  1  0  0  0  0
 27 26  2  0  0  0  0
 28 26  1  0  0  0  0
 29 30  1  0  0  0  0
 30 28  1  0  0  0  0
M  END
>  <MODEL>
6

>  <REMARK>
 VINA RESULT:      -8.0      1.787      2.516
  Name = 
  6 active torsions:
  status: ('A' for Active; 'I' for Inactive)
    1  A    between atoms: C_2  and  C_27
    2  A    between atoms: C_2  and  C_28
    3  A    between atoms: C_9  and  C_18
    4  A    between atoms: C_9  and  C_27
    5  A    between atoms: C_10  and  C_21
    6  A    between atoms: C_20  and  C_29
                            x       y       z     vdW  Elec       q    Type
                         _______ _______ _______ _____ _____    ______ ____

>  <TORSDO>
F 6

$$$$
=
 OpenBabel11052410543D

 30 33  0  0  0  0  0  0  0  0999 V2000
  160.2650  208.6680  153.1450 C   0  0  0  0  0  3  0  0  0  0  0  0
  161.6310  208.7670  151.1380 C   0  0  0  0  0  0  0  0  0  0  0  0
  162.0900  210.9910  150.1120 N   0  0  0  0  0  2  0  0  0  0  0  0
  160.1430  210.0630  153.1520 C   0  0  0  0  0  0  0  0  0  0  0  0
  161.4890  210.1690  151.1210 C   0  0  0  0  0  0  0  0  0  0  0  0
  162.8230  211.5320  147.9810 O   0  0  0  0  0  0  0  0  0  0  0  0
  162.5060  208.0860  150.1360 C   0  0  0  0  0  2  0  0  0  0  0  0
  161.9590  208.2550  148.7610 C   0  0  0  0  0  3  0  0  0  0  0  0
  160.7650  210.8000  152.1360 C   0  0  0  0  0  3  0  0  0  0  0  0
  161.9220  209.4060  148.1650 N   0  0  0  0  0  0  0  0  0  0  0  0
  162.3270  210.6580  148.7360 C   0  0  0  0  0  0  0  0  0  0  0  0
  161.0010  208.0170  152.1540 C   0  0  0  0  0  0  0  0  0  0  0  0
  156.0610  213.3730  156.9580 C   0  0  0  0  0  3  0  0  0  0  0  0
  158.1970  211.4570  153.9040 C   0  0  0  0  0  3  0  0  0  0  0  0
  157.9390  212.0250  156.2420 C   0  0  0  0  0  0  0  0  0  0  0  0
  156.3110  212.8090  154.6130 C   0  0  0  0  0  3  0  0  0  0  0  0
  157.2280  212.6630  157.2610 C   0  0  0  0  0  3  0  0  0  0  0  0
  159.7870  210.7030  155.5540 C   0  0  0  0  0  3  0  0  0  0  0  0
  157.4780  212.0990  154.9110 C   0  0  0  0  0  0  0  0  0  0  0  0
  155.6040  213.4460  155.6380 C   0  0  0  0  0  3  0  0  0  0  0  0
  159.3670  210.7470  154.2140 C   0  0  0  0  0  0  0  0  0  0  0  0
  159.0750  211.3330  156.5270 N   0  0  0  0  0  0  0  0  0  0  0  0
  161.1930  205.3800  152.2560 C   0  0  0  0  0  0  0  0  0  0  0  0
  161.1080  206.5820  152.2080 C   0  0  0  0  0  0  0  0  0  0  0  0
  161.2910  203.9190  152.3160 C   0  0  0  0  0  2  0  0  0  0  0  0
  161.0290  203.3250  150.9700 C   0  0  0  0  0  0  0  0  0  0  0  0
  161.0000  202.1120  150.8280 O   0  0  0  0  0  0  0  0  0  0  0  0
  160.8030  204.2240  149.7990 C   0  0  0  0  0  2  0  0  0  0  0  0
  161.9000  204.3420  147.5840 C   0  0  0  0  0  1  0  0  0  0  0  0
  161.0620  203.4790  148.5040 C   0  0  0  0  0  2  0  0  0  0  0  0
  1  4  1  0  0  0  0
  2 12  1  0  0  0  0
  3  5  1  0  0  0  0
  4 21  1  0  0  0  0
  5  2  2  0  0  0  0
  5  9  1  0  0  0  0
  6 11  2  0  0  0  0
  7  2  1  0  0  0  0
  8  7  1  0  0  0  0
  9  4  2  0  0  0  0
 10 11  1  0  0  0  0
 10  8  2  0  0  0  0
 11  3  1  0  0  0  0
 12 24  1  0  0  0  0
 12  1  2  0  0  0  0
 13 17  1  0  0  0  0
 14 21  2  0  0  0  0
 14 19  1  0  0  0  0
 15 22  1  0  0  0  0
 15 17  2  0  0  0  0
 16 19  2  0  0  0  0
 16 20  1  0  0  0  0
 18 22  2  0  0  0  0
 19 15  1  0  0  0  0
 20 13  2  0  0  0  0
 21 18  1  0  0  0  0
 23 25  1  0  0  0  0
 24 23  3  0  0  0  0
 26 25  1  0  0  0  0
 27 26  2  0  0  0  0
 28 26  1  0  0  0  0
 29 30  1  0  0  0  0
 30 28  1  0  0  0  0
M  END
>  <MODEL>
7

>  <REMARK>
 VINA RESULT:      -7.5      3.314      8.788
  Name = 
  6 active torsions:
  status: ('A' for Active; 'I' for Inactive)
    1  A    between atoms: C_2  and  C_27
    2  A    between atoms: C_2  and  C_28
    3  A    between atoms: C_9  and  C_18
    4  A    between atoms: C_9  and  C_27
    5  A    between atoms: C_10  and  C_21
    6  A    between atoms: C_20  and  C_29
                            x       y       z     vdW  Elec       q    Type
                         _______ _______ _______ _____ _____    ______ ____

>  <TORSDO>
F 6

$$$$
=
 OpenBabel11052410543D

 30 33  0  0  0  0  0  0  0  0999 V2000
  160.9730  206.5030  149.9610 C   0  0  0  0  0  3  0  0  0  0  0  0
  160.6970  204.1570  149.3940 C   0  0  0  0  0  0  0  0  0  0  0  0
  160.6570  202.4780  151.2350 N   0  0  0  0  0  2  0  0  0  0  0  0
  161.0070  206.1880  151.3260 C   0  0  0  0  0  0  0  0  0  0  0  0
  160.7590  203.8270  150.7630 C   0  0  0  0  0  0  0  0  0  0  0  0
  160.9740  200.1830  151.1730 O   0  0  0  0  0  0  0  0  0  0  0  0
  160.4250  203.0980  148.3760 C   0  0  0  0  0  2  0  0  0  0  0  0
  161.5400  202.1120  148.3350 C   0  0  0  0  0  3  0  0  0  0  0  0
  160.8940  204.8450  151.7110 C   0  0  0  0  0  3  0  0  0  0  0  0
  161.7930  201.3060  149.3190 N   0  0  0  0  0  0  0  0  0  0  0  0
  161.1050  201.2830  150.5780 C   0  0  0  0  0  0  0  0  0  0  0  0
  160.8180  205.5060  148.9980 C   0  0  0  0  0  0  0  0  0  0  0  0
  161.3960  210.0530  156.5230 C   0  0  0  0  0  3  0  0  0  0  0  0
  160.9450  206.9860  153.7040 C   0  0  0  0  0  3  0  0  0  0  0  0
  161.4630  209.2910  154.2260 C   0  0  0  0  0  0  0  0  0  0  0  0
  160.8760  207.7410  156.0080 C   0  0  0  0  0  3  0  0  0  0  0  0
  161.6140  210.3140  155.1660 C   0  0  0  0  0  3  0  0  0  0  0  0
  161.5300  208.5580  151.9700 C   0  0  0  0  0  3  0  0  0  0  0  0
  161.0920  207.9980  154.6510 C   0  0  0  0  0  0  0  0  0  0  0  0
  161.0290  208.7710  156.9430 C   0  0  0  0  0  3  0  0  0  0  0  0
  161.1630  207.2550  152.3440 C   0  0  0  0  0  0  0  0  0  0  0  0
  161.6710  209.5360  152.9050 N   0  0  0  0  0  0  0  0  0  0  0  0
  160.7260  206.2110  146.4490 C   0  0  0  0  0  0  0  0  0  0  0  0
  160.7700  205.8910  147.6110 C   0  0  0  0  0  0  0  0  0  0  0  0
  160.6680  206.5960  145.0360 C   0  0  0  0  0  2  0  0  0  0  0  0
  161.1480  205.4760  144.1720 C   0  0  0  0  0  0  0  0  0  0  0  0
  161.4680  205.6880  143.0120 O   0  0  0  0  0  0  0  0  0  0  0  0
  161.2340  204.0950  144.7350 C   0  0  0  0  0  2  0  0  0  0  0  0
  160.0870  201.9140  144.9520 C   0  0  0  0  0  1  0  0  0  0  0  0
  159.9250  203.3590  144.5290 C   0  0  0  0  0  2  0  0  0  0  0  0
  1  4  1  0  0  0  0
  2  5  2  0  0  0  0
  4  9  2  0  0  0  0
  4 21  1  0  0  0  0
  5  3  1  0  0  0  0
  5  9  1  0  0  0  0
  7  2  1  0  0  0  0
  8  7  1  0  0  0  0
  8 10  2  0  0  0  0
 10 11  1  0  0  0  0
 11  6  2  0  0  0  0
 11  3  1  0  0  0  0
 12  2  1  0  0  0  0
 12  1  2  0  0  0  0
 13 20  1  0  0  0  0
 14 19  1  0  0  0  0
 15 19  2  0  0  0  0
 15 17  1  0  0  0  0
 16 20  2  0  0  0  0
 17 13  2  0  0  0  0
 18 21  1  0  0  0  0
 18 22  2  0  0  0  0
 19 16  1  0  0  0  0
 21 14  2  0  0  0  0
 22 15  1  0  0  0  0
 23 24  3  0  0  0  0
 24 12  1  0  0  0  0
 25 23  1  0  0  0  0
 26 28  1  0  0  0  0
 26 25  1  0  0  0  0
 27 26  2  0  0  0  0
 30 28  1  0  0  0  0
 30 29  1  0  0  0  0
M  END
>  <MODEL>
8

>  <REMARK>
 VINA RESULT:      -6.9      3.616      8.135
  Name = 
  6 active torsions:
  status: ('A' for Active; 'I' for Inactive)
    1  A    between atoms: C_2  and  C_27
    2  A    between atoms: C_2  and  C_28
    3  A    between atoms: C_9  and  C_18
    4  A    between atoms: C_9  and  C_27
    5  A    between atoms: C_10  and  C_21
    6  A    between atoms: C_20  and  C_29
                            x       y       z     vdW  Elec       q    Type
                         _______ _______ _______ _____ _____    ______ ____

>  <TORSDO>
F 6

$$$$
=
 OpenBabel11052410543D

 30 33  0  0  0  0  0  0  0  0999 V2000
  161.6350  208.0260  148.6100 C   0  0  0  0  0  3  0  0  0  0  0  0
  161.1620  206.8720  150.6950 C   0  0  0  0  0  0  0  0  0  0  0  0
  160.8910  208.2200  152.7740 N   0  0  0  0  0  2  0  0  0  0  0  0
  161.5850  209.2640  149.2630 C   0  0  0  0  0  0  0  0  0  0  0  0
  161.1380  208.1110  151.3660 C   0  0  0  0  0  0  0  0  0  0  0  0
  160.9940  207.5760  154.9980 O   0  0  0  0  0  0  0  0  0  0  0  0
  160.8320  205.6130  151.4290 C   0  0  0  0  0  2  0  0  0  0  0  0
  161.8500  205.3360  152.4790 C   0  0  0  0  0  3  0  0  0  0  0  0
  161.3310  209.2900  150.6410 C   0  0  0  0  0  3  0  0  0  0  0  0
  161.9870  206.0840  153.5290 N   0  0  0  0  0  0  0  0  0  0  0  0
  161.2510  207.2850  153.8020 C   0  0  0  0  0  0  0  0  0  0  0  0
  161.4240  206.8370  149.3100 C   0  0  0  0  0  0  0  0  0  0  0  0
  161.6260  214.4520  145.3660 C   0  0  0  0  0  3  0  0  0  0  0  0
  160.9520  210.8800  147.4510 C   0  0  0  0  0  3  0  0  0  0  0  0
  162.2420  212.9000  147.1190 C   0  0  0  0  0  0  0  0  0  0  0  0
  160.3280  212.4300  145.6920 C   0  0  0  0  0  3  0  0  0  0  0  0
  162.4670  214.0910  146.4240 C   0  0  0  0  0  3  0  0  0  0  0  0
  162.8580  211.3860  148.8400 C   0  0  0  0  0  3  0  0  0  0  0  0
  161.1660  212.0660  146.7500 C   0  0  0  0  0  0  0  0  0  0  0  0
  160.5590  213.6240  145.0010 C   0  0  0  0  0  3  0  0  0  0  0  0
  161.8000  210.5230  148.5110 C   0  0  0  0  0  0  0  0  0  0  0  0
  163.0550  212.5410  148.1480 N   0  0  0  0  0  0  0  0  0  0  0  0
  161.4990  204.5550  147.9720 C   0  0  0  0  0  0  0  0  0  0  0  0
  161.4680  205.5950  148.5820 C   0  0  0  0  0  0  0  0  0  0  0  0
  161.5310  203.2920  147.2290 C   0  0  0  0  0  2  0  0  0  0  0  0
  160.9910  202.1810  148.0690 C   0  0  0  0  0  0  0  0  0  0  0  0
  161.0720  201.0240  147.6850 O   0  0  0  0  0  0  0  0  0  0  0  0
  160.3500  202.4940  149.3810 C   0  0  0  0  0  2  0  0  0  0  0  0
  161.5450  202.0720  151.5060 C   0  0  0  0  0  1  0  0  0  0  0  0
  160.7130  201.4400  150.4090 C   0  0  0  0  0  2  0  0  0  0  0  0
  1  4  2  0  0  0  0
  1 12  1  0  0  0  0
  2  5  1  0  0  0  0
  2  7  1  0  0  0  0
  3 11  1  0  0  0  0
  4  9  1  0  0  0  0
  5  3  1  0  0  0  0
  7  8  1  0  0  0  0
  8 10  2  0  0  0  0
  9  5  2  0  0  0  0
 10 11  1  0  0  0  0
 11  6  2  0  0  0  0
 12  2  2  0  0  0  0
 13 17  1  0  0  0  0
 14 21  2  0  0  0  0
 15 22  1  0  0  0  0
 16 19  2  0  0  0  0
 17 15  2  0  0  0  0
 19 15  1  0  0  0  0
 19 14  1  0  0  0  0
 20 13  2  0  0  0  0
 20 16  1  0  0  0  0
 21 18  1  0  0  0  0
 21  4  1  0  0  0  0
 22 18  2  0  0  0  0
 23 24  3  0  0  0  0
 24 12  1  0  0  0  0
 25 23  1  0  0  0  0
 25 26  1  0  0  0  0
 26 28  1  0  0  0  0
 27 26  2  0  0  0  0
 28 30  1  0  0  0  0
 30 29  1  0  0  0  0
M  END
>  <MODEL>
9

>  <REMARK>
 VINA RESULT:      -6.7      3.035      8.225
  Name = 
  6 active torsions:
  status: ('A' for Active; 'I' for Inactive)
    1  A    between atoms: C_2  and  C_27
    2  A    between atoms: C_2  and  C_28
    3  A    between atoms: C_9  and  C_18
    4  A    between atoms: C_9  and  C_27
    5  A    between atoms: C_10  and  C_21
    6  A    between atoms: C_20  and  C_29
                            x       y       z     vdW  Elec       q    Type
                         _______ _______ _______ _____ _____    ______ ____

>  <TORSDO>
F 6

$$$$
