=
 OpenBabel11052411473D

 40 45  0  0  1  0  0  0  0  0999 V2000
  161.0700  210.1900  154.3390 C   0  0  2  0  0  0  0  0  0  0  0  0
  161.0630  207.6650  153.8870 O   0  0  0  0  0  0  0  0  0  0  0  0
  160.9080  210.5580  152.8330 C   0  0  1  0  0  3  0  0  0  0  0  0
  160.2650  208.4730  155.8610 O   0  0  0  0  0  0  0  0  0  0  0  0
  160.7710  208.7390  154.7410 C   0  0  0  0  0  0  0  0  0  0  0  0
  160.3640  211.0920  156.4490 C   0  0  1  0  0  3  0  0  0  0  0  0
  161.6080  207.8270  152.5830 C   0  0  2  0  0  3  0  0  0  0  0  0
  160.5400  208.3810  151.6300 C   0  0  0  0  0  2  0  0  0  0  0  0
  161.3990  211.3560  155.3370 C   0  0  1  0  0  0  0  0  0  0  0  0
  159.8910  209.6690  152.1320 C   0  0  0  0  0  2  0  0  0  0  0  0
  161.7950  211.1580  156.8080 C   0  0  0  0  0  2  0  0  0  0  0  0
  162.4670  210.4370  154.7530 C   0  0  0  0  0  2  0  0  0  0  0  0
  157.5800  213.5380  151.4150 N   0  0  0  0  0  0  0  0  0  0  0  0
  158.8430  213.0480  151.3900 C   0  0  0  0  0  0  0  0  0  0  0  0
  160.6870  212.0260  152.4270 C   0  0  2  0  0  3  0  0  0  0  0  0
  159.8710  213.1280  150.3360 C   0  0  0  0  0  3  0  0  0  0  0  0
  159.2750  212.4420  152.5030 C   0  0  0  0  0  0  0  0  0  0  0  0
  158.0900  212.4750  153.6970 S   0  0  0  0  0  0  0  0  0  0  0  0
  155.6990  213.6430  152.9680 N   0  0  0  0  0  1  0  0  0  0  0  0
  161.0630  212.3570  150.9610 C   0  0  0  0  0  3  0  0  0  0  0  0
  157.0340  213.2790  152.6310 C   0  0  0  0  0  0  0  0  0  0  0  0
  159.1860  214.4530  157.0910 N   0  0  0  0  0  0  0  0  0  0  0  0
  159.6240  212.3590  156.7470 C   0  0  0  0  0  0  0  0  0  0  0  0
  158.0270  213.7820  157.2580 C   0  0  0  0  0  2  0  0  0  0  0  0
  160.1550  213.5960  156.7850 N   0  0  0  0  0  0  0  0  0  0  0  0
  158.2830  212.4450  157.0430 C   0  0  0  0  0  0  0  0  0  0  0  0
  157.3150  211.3210  157.2040 C   0  0  0  0  0  2  0  0  0  0  0  0
  155.9240  211.7530  156.7850 C   0  0  0  0  0  1  0  0  0  0  0  0
  162.1300  206.5470  152.0800 N   0  0  0  0  0  0  0  0  0  0  0  0
  161.3950  205.3810  152.5990 C   0  0  0  0  0  2  0  0  0  0  0  0
  160.8000  204.5080  151.5080 C   0  0  0  0  0  2  0  0  0  0  0  0
  161.2190  202.7630  151.8180 S   0  0  0  0  0  0  0  0  0  0  0  0
  160.6810  203.1630  149.1340 C   0  0  0  0  0  1  0  0  0  0  0  0
  160.4750  202.1590  150.2580 C   0  0  1  0  0  3  0  0  0  0  0  0
  161.0180  200.8620  149.8920 N   0  0  0  0  0  2  0  0  0  0  0  0
  161.5630  201.0050  148.5550 C   0  0  0  0  0  1  0  0  0  0  0  0
  162.2160  206.4980  150.6110 C   0  0  0  0  0  2  0  0  0  0  0  0
  162.6160  207.8410  149.9940 C   0  0  0  0  0  2  0  0  0  0  0  0
  161.1630  207.0530  148.1150 C   0  0  0  0  0  1  0  0  0  0  0  0
  162.4090  207.8410  148.4870 C   0  0  0  0  0  2  0  0  0  0  0  0
  1  5  1  0  0  0  0
  1 12  1  6  0  0  0
  1  9  1  0  0  0  0
  2  5  1  0  0  0  0
  3 10  1  1  0  0  0
  3  1  1  0  0  0  0
  5  4  2  0  0  0  0
  6 23  1  1  0  0  0
  6 11  1  0  0  0  0
  7 29  1  6  0  0  0
  7  2  1  0  0  0  0
  8 10  1  0  0  0  0
  8  7  1  0  0  0  0
  9 12  1  6  0  0  0
  9  6  1  0  0  0  0
  9 11  1  0  0  0  0
 13 21  2  0  0  0  0
 14 13  1  0  0  0  0
 14 17  2  0  0  0  0
 15 20  1  6  0  0  0
 15 17  1  0  0  0  0
 15  3  1  0  0  0  0
 16 20  2  0  0  0  0
 16 14  1  0  0  0  0
 17 18  1  0  0  0  0
 21 19  1  0  0  0  0
 21 18  1  0  0  0  0
 22 24  1  0  0  0  0
 23 25  1  0  0  0  0
 23 26  2  0  0  0  0
 25 22  2  0  0  0  0
 26 27  1  0  0  0  0
 26 24  1  0  0  0  0
 28 27  1  0  0  0  0
 29 30  1  0  0  0  0
 31 32  1  0  0  0  0
 31 30  1  0  0  0  0
 34 33  1  6  0  0  0
 34 32  1  0  0  0  0
 35 34  1  0  0  0  0
 36 35  1  0  0  0  0
 37 29  1  0  0  0  0
 38 37  1  0  0  0  0
 39 40  1  0  0  0  0
 40 38  1  0  0  0  0
M  END
>  <MODEL>
1

>  <REMARK>
 VINA RESULT:      -4.5      0.000      0.000
  Name = 
  12 active torsions:
  status: ('A' for Active; 'I' for Inactive)
    1  A    between atoms: C_5  and  C_15
    2  A    between atoms: C_7  and  C_10
    3  A    between atoms: C_7  and  S_36
    4  A    between atoms: C_10  and  N_28
    5  A    between atoms: C_11  and  C_16
    6  A    between atoms: C_12  and  N_28
    7  A    between atoms: C_12  and  C_30
    8  A    between atoms: N_13  and  C_35
    9  A    between atoms: C_19  and  C_37
   10  A    between atoms: C_24  and  N_28
   11  A    between atoms: C_29  and  C_30
   12  A    between atoms: C_35  and  S_36
                            x       y       z     vdW  Elec       q    Type
                         _______ _______ _______ _____ _____    ______ ____

>  <TORSDO>
F 12

$$$$
=
 OpenBabel11052411473D

 40 45  0  0  1  0  0  0  0  0999 V2000
  161.6180  209.8630  150.8330 C   0  0  2  0  0  0  0  0  0  0  0  0
  161.2760  207.4330  150.0870 O   0  0  0  0  0  0  0  0  0  0  0  0
  162.0070  210.3490  149.4040 C   0  0  1  0  0  3  0  0  0  0  0  0
  160.0690  208.2740  151.8250 O   0  0  0  0  0  0  0  0  0  0  0  0
  160.9410  208.4900  150.9450 C   0  0  0  0  0  0  0  0  0  0  0  0
  160.4720  210.7670  152.7390 C   0  0  1  0  0  3  0  0  0  0  0  0
  162.2210  207.5520  149.0300 C   0  0  2  0  0  3  0  0  0  0  0  0
  161.6290  208.3810  147.8830 C   0  0  0  0  0  2  0  0  0  0  0  0
  161.8330  210.8660  152.0210 C   0  0  1  0  0  0  0  0  0  0  0  0
  161.1120  209.7470  148.3310 C   0  0  0  0  0  2  0  0  0  0  0  0
  161.7040  210.4970  153.5060 C   0  0  0  0  0  2  0  0  0  0  0  0
  162.8360  209.7740  151.6650 C   0  0  0  0  0  2  0  0  0  0  0  0
  160.3850  213.8820  146.7860 N   0  0  0  0  0  0  0  0  0  0  0  0
  161.3840  213.2010  147.3980 C   0  0  0  0  0  0  0  0  0  0  0  0
  162.2060  211.8510  149.1370 C   0  0  2  0  0  3  0  0  0  0  0  0
  162.8290  213.1710  147.1070 C   0  0  0  0  0  3  0  0  0  0  0  0
  161.0470  212.4800  148.4750 C   0  0  0  0  0  0  0  0  0  0  0  0
  159.4070  212.6390  148.8100 S   0  0  0  0  0  0  0  0  0  0  0  0
  157.9790  214.2040  147.0420 N   0  0  0  0  0  1  0  0  0  0  0  0
  163.3740  212.1910  148.1790 C   0  0  0  0  0  3  0  0  0  0  0  0
  159.2250  213.6520  147.4530 C   0  0  0  0  0  0  0  0  0  0  0  0
  159.3550  214.2070  152.6350 N   0  0  0  0  0  0  0  0  0  0  0  0
  159.9290  212.1440  152.9630 C   0  0  0  0  0  0  0  0  0  0  0  0
  159.0290  213.9130  153.9110 C   0  0  0  0  0  2  0  0  0  0  0  0
  159.9020  213.1410  152.0590 N   0  0  0  0  0  0  0  0  0  0  0  0
  159.3860  212.6020  154.1420 C   0  0  0  0  0  0  0  0  0  0  0  0
  159.2920  211.8760  155.4420 C   0  0  0  0  0  2  0  0  0  0  0  0
  157.9650  211.1530  155.5530 C   0  0  0  0  0  1  0  0  0  0  0  0
  162.6230  206.2210  148.5470 N   0  0  0  0  0  0  0  0  0  0  0  0
  162.0970  205.1240  149.3760 C   0  0  0  0  0  2  0  0  0  0  0  0
  160.8710  204.4520  148.7820 C   0  0  0  0  0  2  0  0  0  0  0  0
  160.6880  202.7780  149.4770 S   0  0  0  0  0  0  0  0  0  0  0  0
  161.5200  200.4630  148.2100 C   0  0  0  0  0  1  0  0  0  0  0  0
  161.2160  201.9300  147.9430 C   0  0  1  0  0  3  0  0  0  0  0  0
  160.2100  202.0630  146.9040 N   0  0  0  0  0  2  0  0  0  0  0  0
  160.6580  201.2480  145.7900 C   0  0  0  0  0  1  0  0  0  0  0  0
  162.2990  206.0030  147.1270 C   0  0  0  0  0  2  0  0  0  0  0  0
  163.2280  204.9870  146.4550 C   0  0  0  0  0  2  0  0  0  0  0  0
  161.3380  205.1060  144.8190 C   0  0  0  0  0  1  0  0  0  0  0  0
  162.5410  204.3020  145.2830 C   0  0  0  0  0  2  0  0  0  0  0  0
  1  5  1  0  0  0  0
  1 12  1  1  0  0  0
  1  9  1  0  0  0  0
  2  5  1  0  0  0  0
  3 10  1  6  0  0  0
  3  1  1  0  0  0  0
  5  4  2  0  0  0  0
  6 23  1  1  0  0  0
  6 11  1  0  0  0  0
  7 29  1  6  0  0  0
  7  2  1  0  0  0  0
  8 10  1  0  0  0  0
  8  7  1  0  0  0  0
  9 12  1  6  0  0  0
  9  6  1  0  0  0  0
  9 11  1  0  0  0  0
 13 14  1  0  0  0  0
 13 21  2  0  0  0  0
 14 17  2  0  0  0  0
 15 20  1  6  0  0  0
 15  3  1  0  0  0  0
 16 14  1  0  0  0  0
 16 20  2  0  0  0  0
 17 18  1  0  0  0  0
 17 15  1  0  0  0  0
 19 21  1  0  0  0  0
 21 18  1  0  0  0  0
 22 24  1  0  0  0  0
 23 26  2  0  0  0  0
 24 26  1  0  0  0  0
 25 22  2  0  0  0  0
 25 23  1  0  0  0  0
 26 27  1  0  0  0  0
 27 28  1  0  0  0  0
 29 30  1  0  0  0  0
 31 30  1  0  0  0  0
 31 32  1  0  0  0  0
 34 33  1  1  0  0  0
 34 32  1  0  0  0  0
 35 34  1  0  0  0  0
 36 35  1  0  0  0  0
 37 29  1  0  0  0  0
 38 37  1  0  0  0  0
 39 40  1  0  0  0  0
 40 38  1  0  0  0  0
M  END
>  <MODEL>
2

>  <REMARK>
 VINA RESULT:      -3.3      2.739      3.909
  Name = 
  12 active torsions:
  status: ('A' for Active; 'I' for Inactive)
    1  A    between atoms: C_5  and  C_15
    2  A    between atoms: C_7  and  C_10
    3  A    between atoms: C_7  and  S_36
    4  A    between atoms: C_10  and  N_28
    5  A    between atoms: C_11  and  C_16
    6  A    between atoms: C_12  and  N_28
    7  A    between atoms: C_12  and  C_30
    8  A    between atoms: N_13  and  C_35
    9  A    between atoms: C_19  and  C_37
   10  A    between atoms: C_24  and  N_28
   11  A    between atoms: C_29  and  C_30
   12  A    between atoms: C_35  and  S_36
                            x       y       z     vdW  Elec       q    Type
                         _______ _______ _______ _____ _____    ______ ____

>  <TORSDO>
F 12

$$$$
=
 OpenBabel11052411473D

 40 45  0  0  1  0  0  0  0  0999 V2000
  161.6810  209.8590  150.7120 C   0  0  2  0  0  0  0  0  0  0  0  0
  161.3990  207.4590  149.8510 O   0  0  0  0  0  0  0  0  0  0  0  0
  162.0290  210.4270  149.3030 C   0  0  1  0  0  3  0  0  0  0  0  0
  160.1990  208.1750  151.6490 O   0  0  0  0  0  0  0  0  0  0  0  0
  161.0470  208.4620  150.7660 C   0  0  0  0  0  0  0  0  0  0  0  0
  160.5430  210.6310  152.6800 C   0  0  1  0  0  3  0  0  0  0  0  0
  162.3210  207.6600  148.7860 C   0  0  2  0  0  3  0  0  0  0  0  0
  161.6830  208.5270  147.6920 C   0  0  0  0  0  2  0  0  0  0  0  0
  161.8870  210.8080  151.9450 C   0  0  1  0  0  0  0  0  0  0  0  0
  161.1320  209.8520  148.2160 C   0  0  0  0  0  2  0  0  0  0  0  0
  161.7970  210.3620  153.4120 C   0  0  0  0  0  2  0  0  0  0  0  0
  162.9160  209.7670  151.5180 C   0  0  0  0  0  2  0  0  0  0  0  0
  160.2950  214.0240  146.8490 N   0  0  0  0  0  0  0  0  0  0  0  0
  161.3150  213.3490  147.4320 C   0  0  0  0  0  0  0  0  0  0  0  0
  162.1770  211.9460  149.1090 C   0  0  2  0  0  3  0  0  0  0  0  0
  162.7610  213.3810  147.1460 C   0  0  0  0  0  3  0  0  0  0  0  0
  161.0000  212.5660  148.4730 C   0  0  0  0  0  0  0  0  0  0  0  0
  159.3550  212.6540  148.8080 S   0  0  0  0  0  0  0  0  0  0  0  0
  157.8780  214.2520  147.1100 N   0  0  0  0  0  1  0  0  0  0  0  0
  163.3350  212.3710  148.1730 C   0  0  0  0  0  3  0  0  0  0  0  0
  159.1410  213.7240  147.5000 C   0  0  0  0  0  0  0  0  0  0  0  0
  159.3050  214.0300  152.7620 N   0  0  0  0  0  0  0  0  0  0  0  0
  159.9630  211.9780  152.9820 C   0  0  0  0  0  0  0  0  0  0  0  0
  159.0430  213.6740  154.0380 C   0  0  0  0  0  2  0  0  0  0  0  0
  159.8650  213.0080  152.1220 N   0  0  0  0  0  0  0  0  0  0  0  0
  159.4540  212.3680  154.2000 C   0  0  0  0  0  0  0  0  0  0  0  0
  159.4390  211.5880  155.4710 C   0  0  0  0  0  2  0  0  0  0  0  0
  160.5070  212.0930  156.4190 C   0  0  0  0  0  1  0  0  0  0  0  0
  162.7530  206.3680  148.2290 N   0  0  0  0  0  0  0  0  0  0  0  0
  162.3500  205.2200  149.0570 C   0  0  0  0  0  2  0  0  0  0  0  0
  160.9360  204.7420  148.7800 C   0  0  0  0  0  2  0  0  0  0  0  0
  160.8300  202.9430  149.0500 S   0  0  0  0  0  0  0  0  0  0  0  0
  161.6720  202.4530  151.6390 C   0  0  0  0  0  1  0  0  0  0  0  0
  160.5360  203.0870  150.8510 C   0  0  1  0  0  3  0  0  0  0  0  0
  160.3560  204.4750  151.2390 N   0  0  0  0  0  2  0  0  0  0  0  0
  161.1220  204.6660  152.4560 C   0  0  0  0  0  1  0  0  0  0  0  0
  162.3340  206.1750  146.8310 C   0  0  0  0  0  2  0  0  0  0  0  0
  163.0190  204.9780  146.1640 C   0  0  0  0  0  2  0  0  0  0  0  0
  161.0890  205.1040  144.5770 C   0  0  0  0  0  1  0  0  0  0  0  0
  162.0390  204.1790  145.3200 C   0  0  0  0  0  2  0  0  0  0  0  0
  1  5  1  0  0  0  0
  1 12  1  1  0  0  0
  1  9  1  0  0  0  0
  2  5  1  0  0  0  0
  3 10  1  6  0  0  0
  3  1  1  0  0  0  0
  5  4  2  0  0  0  0
  6 23  1  1  0  0  0
  6 11  1  0  0  0  0
  7 29  1  6  0  0  0
  7  2  1  0  0  0  0
  8 10  1  0  0  0  0
  8  7  1  0  0  0  0
  9 12  1  6  0  0  0
  9  6  1  0  0  0  0
  9 11  1  0  0  0  0
 13 14  1  0  0  0  0
 13 21  2  0  0  0  0
 14 17  2  0  0  0  0
 15 20  1  6  0  0  0
 15  3  1  0  0  0  0
 16 14  1  0  0  0  0
 16 20  2  0  0  0  0
 17 18  1  0  0  0  0
 17 15  1  0  0  0  0
 19 21  1  0  0  0  0
 21 18  1  0  0  0  0
 22 24  1  0  0  0  0
 23 26  2  0  0  0  0
 24 26  1  0  0  0  0
 25 22  2  0  0  0  0
 25 23  1  0  0  0  0
 26 27  1  0  0  0  0
 27 28  1  0  0  0  0
 29 30  1  0  0  0  0
 31 32  1  0  0  0  0
 31 30  1  0  0  0  0
 32 34  1  0  0  0  0
 34 35  1  0  0  0  0
 34 33  1  1  0  0  0
 35 36  1  0  0  0  0
 37 29  1  0  0  0  0
 38 37  1  0  0  0  0
 39 40  1  0  0  0  0
 40 38  1  0  0  0  0
M  END
>  <MODEL>
3

>  <REMARK>
 VINA RESULT:      -3.1      2.736      4.081
  Name = 
  12 active torsions:
  status: ('A' for Active; 'I' for Inactive)
    1  A    between atoms: C_5  and  C_15
    2  A    between atoms: C_7  and  C_10
    3  A    between atoms: C_7  and  S_36
    4  A    between atoms: C_10  and  N_28
    5  A    between atoms: C_11  and  C_16
    6  A    between atoms: C_12  and  N_28
    7  A    between atoms: C_12  and  C_30
    8  A    between atoms: N_13  and  C_35
    9  A    between atoms: C_19  and  C_37
   10  A    between atoms: C_24  and  N_28
   11  A    between atoms: C_29  and  C_30
   12  A    between atoms: C_35  and  S_36
                            x       y       z     vdW  Elec       q    Type
                         _______ _______ _______ _____ _____    ______ ____

>  <TORSDO>
F 12

$$$$
=
 OpenBabel11052411473D

 40 45  0  0  1  0  0  0  0  0999 V2000
  158.7630  213.0340  139.9850 C   0  0  2  0  0  0  0  0  0  0  0  0
  159.4290  213.8020  142.3400 O   0  0  0  0  0  0  0  0  0  0  0  0
  160.0600  212.1930  139.7870 C   0  0  1  0  0  3  0  0  0  0  0  0
  157.2300  213.5650  141.7960 O   0  0  0  0  0  0  0  0  0  0  0  0
  158.4260  213.4740  141.4170 C   0  0  0  0  0  0  0  0  0  0  0  0
  156.4620  212.8930  139.3120 C   0  0  1  0  0  3  0  0  0  0  0  0
  160.8190  213.7130  142.0510 C   0  0  2  0  0  3  0  0  0  0  0  0
  161.2540  212.2420  142.0000 C   0  0  0  0  0  2  0  0  0  0  0  0
  157.8450  213.2530  138.7310 C   0  0  1  0  0  0  0  0  0  0  0  0
  160.4240  211.3990  141.0340 C   0  0  0  0  0  2  0  0  0  0  0  0
  156.6480  214.2160  138.6850 C   0  0  0  0  0  2  0  0  0  0  0  0
  158.8670  214.2820  139.2010 C   0  0  0  0  0  2  0  0  0  0  0  0
  162.4440  208.5100  138.1390 N   0  0  0  0  0  0  0  0  0  0  0  0
  161.8610  209.7250  137.9960 C   0  0  0  0  0  0  0  0  0  0  0  0
  160.2090  211.3050  138.5400 C   0  0  2  0  0  3  0  0  0  0  0  0
  162.1210  210.7920  137.0120 C   0  0  0  0  0  3  0  0  0  0  0  0
  160.8490  210.0070  138.8260 C   0  0  0  0  0  0  0  0  0  0  0  0
  160.5410  208.7120  139.8520 S   0  0  0  0  0  0  0  0  0  0  0  0
  162.2200  206.5400  139.5650 N   0  0  0  0  0  1  0  0  0  0  0  0
  161.1130  211.8940  137.4280 C   0  0  0  0  0  3  0  0  0  0  0  0
  161.8220  207.8420  139.1450 C   0  0  0  0  0  0  0  0  0  0  0  0
  155.4150  210.1440  137.2050 N   0  0  0  0  0  0  0  0  0  0  0  0
  155.7900  211.9040  138.4110 C   0  0  0  0  0  0  0  0  0  0  0  0
  154.3220  210.9280  137.0950 C   0  0  0  0  0  3  0  0  0  0  0  0
  156.3060  210.7310  137.9970 N   0  0  0  0  0  2  0  0  0  0  0  0
  154.5390  212.0560  137.8570 C   0  0  0  0  0  0  0  0  0  0  0  0
  153.6360  213.2390  137.9650 C   0  0  0  0  0  2  0  0  0  0  0  0
  152.5380  212.9800  138.9770 C   0  0  0  0  0  1  0  0  0  0  0  0
  161.6030  214.4450  143.0590 N   0  0  0  0  0  0  0  0  0  0  0  0
  160.9800  214.4330  144.3930 C   0  0  0  0  0  2  0  0  0  0  0  0
  161.7120  213.5550  145.3930 C   0  0  0  0  0  2  0  0  0  0  0  0
  160.5430  212.3810  146.1520 S   0  0  0  0  0  0  0  0  0  0  0  0
  158.2450  213.1090  147.5090 C   0  0  0  0  0  1  0  0  0  0  0  0
  159.5460  213.6820  146.9670 C   0  0  1  0  0  3  0  0  0  0  0  0
  160.3010  214.3280  148.0260 N   0  0  0  0  0  2  0  0  0  0  0  0
  160.3110  213.4070  149.1470 C   0  0  0  0  0  1  0  0  0  0  0  0
  163.0040  213.9990  143.1330 C   0  0  0  0  0  2  0  0  0  0  0  0
  163.8370  214.4530  141.9310 C   0  0  0  0  0  2  0  0  0  0  0  0
  163.4130  214.3120  139.4690 C   0  0  0  0  0  1  0  0  0  0  0  0
  163.6500  213.5200  140.7440 C   0  0  0  0  0  2  0  0  0  0  0  0
  1 12  1  6  0  0  0
  1  5  1  0  0  0  0
  3  1  1  0  0  0  0
  3 10  1  1  0  0  0
  5  4  2  0  0  0  0
  5  2  1  0  0  0  0
  6 23  1  6  0  0  0
  7  2  1  0  0  0  0
  7 29  1  1  0  0  0
  8  7  1  0  0  0  0
  9 11  1  1  0  0  0
  9 12  1  0  0  0  0
  9  6  1  0  0  0  0
  9  1  1  0  0  0  0
 10  8  1  0  0  0  0
 11  6  1  0  0  0  0
 13 21  2  0  0  0  0
 14 13  1  0  0  0  0
 14 17  2  0  0  0  0
 15 20  1  6  0  0  0
 15 17  1  0  0  0  0
 15  3  1  0  0  0  0
 16 20  2  0  0  0  0
 16 14  1  0  0  0  0
 17 18  1  0  0  0  0
 21 19  1  0  0  0  0
 21 18  1  0  0  0  0
 22 25  1  0  0  0  0
 24 22  2  0  0  0  0
 24 26  1  0  0  0  0
 25 23  1  0  0  0  0
 26 27  1  0  0  0  0
 26 23  2  0  0  0  0
 27 28  1  0  0  0  0
 29 37  1  0  0  0  0
 29 30  1  0  0  0  0
 30 31  1  0  0  0  0
 31 32  1  0  0  0  0
 32 34  1  0  0  0  0
 34 33  1  1  0  0  0
 34 35  1  0  0  0  0
 35 36  1  0  0  0  0
 38 37  1  0  0  0  0
 39 40  1  0  0  0  0
 40 38  1  0  0  0  0
M  END
>  <MODEL>
4

>  <REMARK>
 VINA RESULT:      -2.3     10.616     14.826
  Name = 
  12 active torsions:
  status: ('A' for Active; 'I' for Inactive)
    1  A    between atoms: C_5  and  C_15
    2  A    between atoms: C_7  and  C_10
    3  A    between atoms: C_7  and  S_36
    4  A    between atoms: C_10  and  N_28
    5  A    between atoms: C_11  and  C_16
    6  A    between atoms: C_12  and  N_28
    7  A    between atoms: C_12  and  C_30
    8  A    between atoms: N_13  and  C_35
    9  A    between atoms: C_19  and  C_37
   10  A    between atoms: C_24  and  N_28
   11  A    between atoms: C_29  and  C_30
   12  A    between atoms: C_35  and  S_36
                            x       y       z     vdW  Elec       q    Type
                         _______ _______ _______ _____ _____    ______ ____

>  <TORSDO>
F 12

$$$$
=
 OpenBabel11052411473D

 40 45  0  0  1  0  0  0  0  0999 V2000
  161.5870  209.8400  150.9920 C   0  0  2  0  0  0  0  0  0  0  0  0
  161.1650  211.4290  149.0240 O   0  0  0  0  0  0  0  0  0  0  0  0
  160.9010  210.7820  152.0270 C   0  0  1  0  0  3  0  0  0  0  0  0
  161.2590  209.1810  148.6750 O   0  0  0  0  0  0  0  0  0  0  0  0
  161.3250  210.1230  149.5060 C   0  0  0  0  0  0  0  0  0  0  0  0
  161.8280  207.4730  150.6680 C   0  0  1  0  0  3  0  0  0  0  0  0
  161.1850  212.5810  149.8600 C   0  0  2  0  0  3  0  0  0  0  0  0
  159.8940  212.6570  150.6860 C   0  0  0  0  0  2  0  0  0  0  0  0
  162.3820  208.6080  151.5520 C   0  0  1  0  0  0  0  0  0  0  0  0
  159.6130  211.3860  151.4860 C   0  0  0  0  0  2  0  0  0  0  0  0
  163.2870  207.6970  150.7080 C   0  0  0  0  0  2  0  0  0  0  0  0
  163.0530  209.9190  151.1590 C   0  0  0  0  0  2  0  0  0  0  0  0
  159.2840  212.1970  156.1920 N   0  0  0  0  0  0  0  0  0  0  0  0
  160.1570  211.5170  155.4110 C   0  0  0  0  0  0  0  0  0  0  0  0
  160.6860  210.2990  153.4720 C   0  0  2  0  0  3  0  0  0  0  0  0
  161.5360  211.0770  155.6910 C   0  0  0  0  0  3  0  0  0  0  0  0
  159.7080  211.1150  154.2150 C   0  0  0  0  0  0  0  0  0  0  0  0
  158.1000  211.5610  154.0030 S   0  0  0  0  0  0  0  0  0  0  0  0
  156.9810  213.0010  156.0740 N   0  0  0  0  0  1  0  0  0  0  0  0
  161.9430  210.3670  154.3730 C   0  0  0  0  0  3  0  0  0  0  0  0
  158.1020  212.3100  155.5320 C   0  0  0  0  0  0  0  0  0  0  0  0
  160.8390  205.1780  153.2840 N   0  0  0  0  0  0  0  0  0  0  0  0
  161.3830  206.3390  151.5390 C   0  0  0  0  0  0  0  0  0  0  0  0
  160.7240  204.3550  152.2210 C   0  0  0  0  0  3  0  0  0  0  0  0
  161.2400  206.3780  152.8770 N   0  0  0  0  0  2  0  0  0  0  0  0
  161.0660  205.0750  151.0970 C   0  0  0  0  0  0  0  0  0  0  0  0
  161.1670  204.5470  149.7050 C   0  0  0  0  0  2  0  0  0  0  0  0
  160.7600  203.0880  149.6580 C   0  0  0  0  0  1  0  0  0  0  0  0
  161.3510  213.8000  149.0530 N   0  0  0  0  0  0  0  0  0  0  0  0
  162.3840  213.6670  148.0130 C   0  0  0  0  0  2  0  0  0  0  0  0
  162.0330  214.3790  146.7180 C   0  0  0  0  0  2  0  0  0  0  0  0
  162.6620  213.4240  145.3000 S   0  0  0  0  0  0  0  0  0  0  0  0
  161.9140  213.8410  142.6690 C   0  0  0  0  0  1  0  0  0  0  0  0
  161.5130  214.1850  144.0960 C   0  0  1  0  0  3  0  0  0  0  0  0
  160.1430  213.7760  144.3550 N   0  0  0  0  0  2  0  0  0  0  0  0
  160.0510  212.3780  143.9760 C   0  0  0  0  0  1  0  0  0  0  0  0
  160.0860  214.2810  148.4730 C   0  0  0  0  0  2  0  0  0  0  0  0
  159.3640  213.2100  147.6500 C   0  0  0  0  0  2  0  0  0  0  0  0
  157.2390  212.7580  146.4080 C   0  0  0  0  0  1  0  0  0  0  0  0
  157.8660  213.4720  147.5940 C   0  0  0  0  0  2  0  0  0  0  0  0
  1 12  1  6  0  0  0
  1  9  1  0  0  0  0
  1  3  1  0  0  0  0
  2  5  1  0  0  0  0
  2  7  1  0  0  0  0
  3 10  1  6  0  0  0
  3 15  1  0  0  0  0
  4  5  2  0  0  0  0
  5  1  1  0  0  0  0
  6 11  1  0  0  0  0
  6 23  1  1  0  0  0
  6  9  1  0  0  0  0
  7 29  1  6  0  0  0
  7  8  1  0  0  0  0
  8 10  1  0  0  0  0
  9 11  1  6  0  0  0
 12  9  1  0  0  0  0
 14 16  1  0  0  0  0
 14 13  1  0  0  0  0
 15 17  1  0  0  0  0
 15 20  1  1  0  0  0
 17 14  2  0  0  0  0
 18 17  1  0  0  0  0
 18 21  1  0  0  0  0
 20 16  2  0  0  0  0
 21 19  1  0  0  0  0
 21 13  2  0  0  0  0
 23 25  1  0  0  0  0
 24 22  2  0  0  0  0
 25 22  1  0  0  0  0
 26 23  2  0  0  0  0
 26 24  1  0  0  0  0
 27 26  1  0  0  0  0
 28 27  1  0  0  0  0
 30 29  1  0  0  0  0
 31 30  1  0  0  0  0
 32 31  1  0  0  0  0
 34 33  1  6  0  0  0
 34 35  1  0  0  0  0
 34 32  1  0  0  0  0
 36 35  1  0  0  0  0
 37 29  1  0  0  0  0
 38 37  1  0  0  0  0
 39 40  1  0  0  0  0
 40 38  1  0  0  0  0
M  END
>  <MODEL>
5

>  <REMARK>
 VINA RESULT:      -2.2      3.599      7.939
  Name = 
  12 active torsions:
  status: ('A' for Active; 'I' for Inactive)
    1  A    between atoms: C_5  and  C_15
    2  A    between atoms: C_7  and  C_10
    3  A    between atoms: C_7  and  S_36
    4  A    between atoms: C_10  and  N_28
    5  A    between atoms: C_11  and  C_16
    6  A    between atoms: C_12  and  N_28
    7  A    between atoms: C_12  and  C_30
    8  A    between atoms: N_13  and  C_35
    9  A    between atoms: C_19  and  C_37
   10  A    between atoms: C_24  and  N_28
   11  A    between atoms: C_29  and  C_30
   12  A    between atoms: C_35  and  S_36
                            x       y       z     vdW  Elec       q    Type
                         _______ _______ _______ _____ _____    ______ ____

>  <TORSDO>
F 12

$$$$
=
 OpenBabel11052411473D

 40 45  0  0  1  0  0  0  0  0999 V2000
  161.6840  209.8120  150.7330 C   0  0  2  0  0  0  0  0  0  0  0  0
  161.4380  207.4020  149.8890 O   0  0  0  0  0  0  0  0  0  0  0  0
  161.9230  210.3900  149.3050 C   0  0  1  0  0  3  0  0  0  0  0  0
  160.3260  208.0760  151.7590 O   0  0  0  0  0  0  0  0  0  0  0  0
  161.1070  208.3920  150.8250 C   0  0  0  0  0  0  0  0  0  0  0  0
  160.6430  210.5450  152.7680 C   0  0  1  0  0  3  0  0  0  0  0  0
  162.2840  207.6350  148.7690 C   0  0  2  0  0  3  0  0  0  0  0  0
  161.5490  208.4760  147.7180 C   0  0  0  0  0  2  0  0  0  0  0  0
  161.9310  210.7700  151.9510 C   0  0  1  0  0  0  0  0  0  0  0  0
  160.9830  209.7810  148.2750 C   0  0  0  0  0  2  0  0  0  0  0  0
  161.9480  210.3230  153.4210 C   0  0  0  0  0  2  0  0  0  0  0  0
  162.9690  209.7660  151.4610 C   0  0  0  0  0  2  0  0  0  0  0  0
  161.5380  213.7060  146.0150 N   0  0  0  0  0  0  0  0  0  0  0  0
  162.1090  213.1740  147.1230 C   0  0  0  0  0  0  0  0  0  0  0  0
  162.0030  211.9130  149.1040 C   0  0  2  0  0  3  0  0  0  0  0  0
  163.4500  213.3890  147.6960 C   0  0  0  0  0  3  0  0  0  0  0  0
  161.3390  212.3690  147.8680 C   0  0  0  0  0  0  0  0  0  0  0  0
  159.7950  212.2490  147.2140 S   0  0  0  0  0  0  0  0  0  0  0  0
  159.3910  213.6240  144.8560 N   0  0  0  0  0  1  0  0  0  0  0  0
  163.4390  212.4730  148.9470 C   0  0  0  0  0  3  0  0  0  0  0  0
  160.2560  213.2670  145.9290 C   0  0  0  0  0  0  0  0  0  0  0  0
  159.4030  213.6210  154.2150 N   0  0  0  0  0  0  0  0  0  0  0  0
  160.0330  211.8700  153.1060 C   0  0  0  0  0  0  0  0  0  0  0  0
  158.9510  213.7780  152.9530 C   0  0  0  0  0  3  0  0  0  0  0  0
  160.0550  212.4670  154.3130 N   0  0  0  0  0  2  0  0  0  0  0  0
  159.3420  212.6730  152.2280 C   0  0  0  0  0  0  0  0  0  0  0  0
  158.9890  212.3760  150.8100 C   0  0  0  0  0  2  0  0  0  0  0  0
  157.9470  213.3530  150.3040 C   0  0  0  0  0  1  0  0  0  0  0  0
  162.7290  206.3580  148.1860 N   0  0  0  0  0  0  0  0  0  0  0  0
  162.3190  205.1880  148.9800 C   0  0  0  0  0  2  0  0  0  0  0  0
  160.9930  204.5930  148.5380 C   0  0  0  0  0  2  0  0  0  0  0  0
  161.1800  202.8000  148.2770 S   0  0  0  0  0  0  0  0  0  0  0  0
  159.8070  200.9540  149.8130 C   0  0  0  0  0  1  0  0  0  0  0  0
  160.4220  202.3430  149.8790 C   0  0  1  0  0  3  0  0  0  0  0  0
  161.3950  202.4210  150.9550 N   0  0  0  0  0  2  0  0  0  0  0  0
  160.8320  203.3050  151.9580 C   0  0  0  0  0  1  0  0  0  0  0  0
  162.3290  206.1990  146.7780 C   0  0  0  0  0  2  0  0  0  0  0  0
  163.0830  205.0700  146.0700 C   0  0  0  0  0  2  0  0  0  0  0  0
  160.9000  205.1470  144.8500 C   0  0  0  0  0  1  0  0  0  0  0  0
  162.2170  204.4060  145.0110 C   0  0  0  0  0  2  0  0  0  0  0  0
  1  5  1  0  0  0  0
  1 12  1  1  0  0  0
  1  9  1  0  0  0  0
  2  5  1  0  0  0  0
  3 10  1  6  0  0  0
  3  1  1  0  0  0  0
  5  4  2  0  0  0  0
  6 23  1  1  0  0  0
  6 11  1  0  0  0  0
  7 29  1  6  0  0  0
  7  2  1  0  0  0  0
  8 10  1  0  0  0  0
  8  7  1  0  0  0  0
  9 12  1  6  0  0  0
  9  6  1  0  0  0  0
  9 11  1  0  0  0  0
 13 14  1  0  0  0  0
 14 16  1  0  0  0  0
 14 17  2  0  0  0  0
 15 20  1  6  0  0  0
 15  3  1  0  0  0  0
 16 20  2  0  0  0  0
 17 15  1  0  0  0  0
 18 17  1  0  0  0  0
 19 21  1  0  0  0  0
 21 13  2  0  0  0  0
 21 18  1  0  0  0  0
 22 25  1  0  0  0  0
 23 25  1  0  0  0  0
 24 22  2  0  0  0  0
 26 24  1  0  0  0  0
 26 23  2  0  0  0  0
 27 26  1  0  0  0  0
 28 27  1  0  0  0  0
 29 30  1  0  0  0  0
 31 30  1  0  0  0  0
 32 31  1  0  0  0  0
 32 34  1  0  0  0  0
 34 33  1  6  0  0  0
 34 35  1  0  0  0  0
 35 36  1  0  0  0  0
 37 29  1  0  0  0  0
 38 37  1  0  0  0  0
 39 40  1  0  0  0  0
 40 38  1  0  0  0  0
M  END
>  <MODEL>
6

>  <REMARK>
 VINA RESULT:      -2.1      3.056      4.518
  Name = 
  12 active torsions:
  status: ('A' for Active; 'I' for Inactive)
    1  A    between atoms: C_5  and  C_15
    2  A    between atoms: C_7  and  C_10
    3  A    between atoms: C_7  and  S_36
    4  A    between atoms: C_10  and  N_28
    5  A    between atoms: C_11  and  C_16
    6  A    between atoms: C_12  and  N_28
    7  A    between atoms: C_12  and  C_30
    8  A    between atoms: N_13  and  C_35
    9  A    between atoms: C_19  and  C_37
   10  A    between atoms: C_24  and  N_28
   11  A    between atoms: C_29  and  C_30
   12  A    between atoms: C_35  and  S_36
                            x       y       z     vdW  Elec       q    Type
                         _______ _______ _______ _____ _____    ______ ____

>  <TORSDO>
F 12

$$$$
=
 OpenBabel11052411473D

 40 45  0  0  1  0  0  0  0  0999 V2000
  161.7390  205.3470  147.7880 C   0  0  2  0  0  0  0  0  0  0  0  0
  160.9950  207.7930  147.9900 O   0  0  0  0  0  0  0  0  0  0  0  0
  161.6820  205.1010  149.3260 C   0  0  1  0  0  3  0  0  0  0  0  0
  160.4780  206.5940  146.1250 O   0  0  0  0  0  0  0  0  0  0  0  0
  161.0330  206.6010  147.2530 C   0  0  0  0  0  0  0  0  0  0  0  0
  161.3390  204.0720  145.7930 C   0  0  1  0  0  3  0  0  0  0  0  0
  161.5550  207.9280  149.2910 C   0  0  2  0  0  3  0  0  0  0  0  0
  160.6890  207.1870  150.3190 C   0  0  0  0  0  2  0  0  0  0  0  0
  162.3990  204.2330  146.9010 C   0  0  1  0  0  0  0  0  0  0  0  0
  160.4460  205.7220  149.9600 C   0  0  0  0  0  2  0  0  0  0  0  0
  162.7290  204.3880  145.4090 C   0  0  0  0  0  2  0  0  0  0  0  0
  163.1490  205.4750  147.3670 C   0  0  0  0  0  2  0  0  0  0  0  0
  159.3390  201.3290  150.8260 N   0  0  0  0  0  0  0  0  0  0  0  0
  160.3710  202.2050  150.8870 C   0  0  0  0  0  0  0  0  0  0  0  0
  161.8960  203.6810  149.8790 C   0  0  2  0  0  3  0  0  0  0  0  0
  161.2550  202.5520  152.0160 C   0  0  0  0  0  3  0  0  0  0  0  0
  160.7040  202.8230  149.7470 C   0  0  0  0  0  0  0  0  0  0  0  0
  159.7250  202.3060  148.4810 S   0  0  0  0  0  0  0  0  0  0  0  0
  157.7630  200.4870  149.1610 N   0  0  0  0  0  1  0  0  0  0  0  0
  162.1990  203.6150  151.3960 C   0  0  0  0  0  3  0  0  0  0  0  0
  158.8700  201.2930  149.5520 C   0  0  0  0  0  0  0  0  0  0  0  0
  161.0190  200.4680  145.8790 N   0  0  0  0  0  0  0  0  0  0  0  0
  161.0010  202.6210  145.6380 C   0  0  0  0  0  0  0  0  0  0  0  0
  160.0770  200.7470  144.9530 C   0  0  0  0  0  3  0  0  0  0  0  0
  161.5830  201.5990  146.2930 N   0  0  0  0  0  2  0  0  0  0  0  0
  160.0480  202.1140  144.7840 C   0  0  0  0  0  0  0  0  0  0  0  0
  159.2200  202.8660  143.7980 C   0  0  0  0  0  2  0  0  0  0  0  0
  158.0930  203.5990  144.4970 C   0  0  0  0  0  1  0  0  0  0  0  0
  161.6790  209.3490  149.6540 N   0  0  0  0  0  0  0  0  0  0  0  0
  162.2930  209.5550  150.9760 C   0  0  0  0  0  2  0  0  0  0  0  0
  161.3770  210.2560  151.9650 C   0  0  0  0  0  2  0  0  0  0  0  0
  161.9500  209.9410  153.6650 S   0  0  0  0  0  0  0  0  0  0  0  0
  161.1990  207.2890  153.8970 C   0  0  0  0  0  1  0  0  0  0  0  0
  160.6520  208.7020  154.0250 C   0  0  1  0  0  3  0  0  0  0  0  0
  160.0850  208.9130  155.3460 N   0  0  0  0  0  2  0  0  0  0  0  0
  160.2090  207.6530  156.0540 C   0  0  0  0  0  1  0  0  0  0  0  0
  162.3720  210.1460  148.6280 C   0  0  0  0  0  2  0  0  0  0  0  0
  161.9570  211.6200  148.6390 C   0  0  0  0  0  2  0  0  0  0  0  0
  162.4930  213.9220  147.8170 C   0  0  0  0  0  1  0  0  0  0  0  0
  162.9910  212.4910  147.9430 C   0  0  0  0  0  2  0  0  0  0  0  0
  1 12  1  1  0  0  0
  1  3  1  0  0  0  0
  2  7  1  0  0  0  0
  3 15  1  0  0  0  0
  3 10  1  6  0  0  0
  4  5  2  0  0  0  0
  5  1  1  0  0  0  0
  5  2  1  0  0  0  0
  6 23  1  6  0  0  0
  6  9  1  0  0  0  0
  7 29  1  1  0  0  0
  7  8  1  0  0  0  0
  9 11  1  6  0  0  0
  9 12  1  0  0  0  0
  9  1  1  0  0  0  0
 10  8  1  0  0  0  0
 11  6  1  0  0  0  0
 13 14  1  0  0  0  0
 14 16  1  0  0  0  0
 15 20  1  1  0  0  0
 17 15  1  0  0  0  0
 17 14  2  0  0  0  0
 18 21  1  0  0  0  0
 18 17  1  0  0  0  0
 19 21  1  0  0  0  0
 20 16  2  0  0  0  0
 21 13  2  0  0  0  0
 22 25  1  0  0  0  0
 23 25  1  0  0  0  0
 24 22  2  0  0  0  0
 26 24  1  0  0  0  0
 26 23  2  0  0  0  0
 27 28  1  0  0  0  0
 27 26  1  0  0  0  0
 29 30  1  0  0  0  0
 30 31  1  0  0  0  0
 31 32  1  0  0  0  0
 32 34  1  0  0  0  0
 34 33  1  1  0  0  0
 34 35  1  0  0  0  0
 35 36  1  0  0  0  0
 37 38  1  0  0  0  0
 37 29  1  0  0  0  0
 39 40  1  0  0  0  0
 40 38  1  0  0  0  0
M  END
>  <MODEL>
7

>  <REMARK>
 VINA RESULT:      -2.0      3.849     10.484
  Name = 
  12 active torsions:
  status: ('A' for Active; 'I' for Inactive)
    1  A    between atoms: C_5  and  C_15
    2  A    between atoms: C_7  and  C_10
    3  A    between atoms: C_7  and  S_36
    4  A    between atoms: C_10  and  N_28
    5  A    between atoms: C_11  and  C_16
    6  A    between atoms: C_12  and  N_28
    7  A    between atoms: C_12  and  C_30
    8  A    between atoms: N_13  and  C_35
    9  A    between atoms: C_19  and  C_37
   10  A    between atoms: C_24  and  N_28
   11  A    between atoms: C_29  and  C_30
   12  A    between atoms: C_35  and  S_36
                            x       y       z     vdW  Elec       q    Type
                         _______ _______ _______ _____ _____    ______ ____

>  <TORSDO>
F 12

$$$$
=
 OpenBabel11052411473D

 40 45  0  0  1  0  0  0  0  0999 V2000
  161.8080  205.2880  147.7120 C   0  0  2  0  0  0  0  0  0  0  0  0
  161.2160  207.7630  148.0300 O   0  0  0  0  0  0  0  0  0  0  0  0
  161.8030  204.9890  149.2410 C   0  0  1  0  0  3  0  0  0  0  0  0
  160.5520  206.6640  146.1500 O   0  0  0  0  0  0  0  0  0  0  0  0
  161.1540  206.5980  147.2520 C   0  0  0  0  0  0  0  0  0  0  0  0
  161.2510  204.1110  145.6950 C   0  0  1  0  0  3  0  0  0  0  0  0
  161.8380  207.8180  149.3090 C   0  0  2  0  0  3  0  0  0  0  0  0
  160.9750  207.0910  150.3480 C   0  0  0  0  0  2  0  0  0  0  0  0
  162.3650  204.1710  146.7600 C   0  0  1  0  0  0  0  0  0  0  0  0
  160.6330  205.6560  149.9510 C   0  0  0  0  0  2  0  0  0  0  0  0
  162.6390  204.3620  145.2600 C   0  0  0  0  0  2  0  0  0  0  0  0
  163.2050  205.3520  147.2330 C   0  0  0  0  0  2  0  0  0  0  0  0
  159.3070  201.2850  150.6620 N   0  0  0  0  0  0  0  0  0  0  0  0
  160.3840  202.1050  150.7290 C   0  0  0  0  0  0  0  0  0  0  0  0
  161.9570  203.5400  149.7360 C   0  0  2  0  0  3  0  0  0  0  0  0
  161.3110  202.3640  151.8460 C   0  0  0  0  0  3  0  0  0  0  0  0
  160.7200  202.7480  149.6030 C   0  0  0  0  0  0  0  0  0  0  0  0
  159.6850  202.3300  148.3460 S   0  0  0  0  0  0  0  0  0  0  0  0
  157.6500  200.5880  149.0100 N   0  0  0  0  0  1  0  0  0  0  0  0
  162.2930  203.4010  151.2410 C   0  0  0  0  0  3  0  0  0  0  0  0
  158.8060  201.3210  149.4000 C   0  0  0  0  0  0  0  0  0  0  0  0
  160.7270  200.5300  145.6720 N   0  0  0  0  0  0  0  0  0  0  0  0
  160.8240  202.6880  145.5060 C   0  0  0  0  0  0  0  0  0  0  0  0
  159.7640  200.8950  144.7990 C   0  0  0  0  0  3  0  0  0  0  0  0
  161.3730  201.6110  146.0980 N   0  0  0  0  0  2  0  0  0  0  0  0
  159.8070  202.2670  144.6790 C   0  0  0  0  0  0  0  0  0  0  0  0
  158.9820  203.1010  143.7570 C   0  0  0  0  0  2  0  0  0  0  0  0
  157.8470  203.7640  144.5110 C   0  0  0  0  0  1  0  0  0  0  0  0
  162.0600  209.2160  149.7140 N   0  0  0  0  0  0  0  0  0  0  0  0
  161.7780  210.1790  148.6360 C   0  0  0  0  0  2  0  0  0  0  0  0
  162.0460  211.6220  149.0300 C   0  0  0  0  0  2  0  0  0  0  0  0
  162.4380  212.6030  147.5470 S   0  0  0  0  0  0  0  0  0  0  0  0
  159.7780  213.3350  147.7480 C   0  0  0  0  0  1  0  0  0  0  0  0
  160.7350  212.5350  146.8780 C   0  0  1  0  0  3  0  0  0  0  0  0
  160.6970  213.0090  145.5060 N   0  0  0  0  0  2  0  0  0  0  0  0
  159.7070  212.2020  144.8180 C   0  0  0  0  0  1  0  0  0  0  0  0
  161.3340  209.5810  150.9410 C   0  0  0  0  0  2  0  0  0  0  0  0
  162.2690  209.9300  152.1040 C   0  0  0  0  0  2  0  0  0  0  0  0
  160.8310  208.9080  153.8780 C   0  0  0  0  0  1  0  0  0  0  0  0
  161.4880  210.1860  153.3840 C   0  0  0  0  0  2  0  0  0  0  0  0
  1 12  1  1  0  0  0
  1  3  1  0  0  0  0
  2  7  1  0  0  0  0
  3 15  1  0  0  0  0
  3 10  1  6  0  0  0
  4  5  2  0  0  0  0
  5  1  1  0  0  0  0
  5  2  1  0  0  0  0
  6 23  1  6  0  0  0
  6  9  1  0  0  0  0
  7 29  1  1  0  0  0
  7  8  1  0  0  0  0
  9 11  1  6  0  0  0
  9 12  1  0  0  0  0
  9  1  1  0  0  0  0
 10  8  1  0  0  0  0
 11  6  1  0  0  0  0
 13 14  1  0  0  0  0
 14 16  1  0  0  0  0
 15 20  1  1  0  0  0
 17 15  1  0  0  0  0
 17 14  2  0  0  0  0
 18 21  1  0  0  0  0
 18 17  1  0  0  0  0
 19 21  1  0  0  0  0
 20 16  2  0  0  0  0
 21 13  2  0  0  0  0
 22 25  1  0  0  0  0
 23 25  1  0  0  0  0
 24 22  2  0  0  0  0
 26 24  1  0  0  0  0
 26 23  2  0  0  0  0
 27 28  1  0  0  0  0
 27 26  1  0  0  0  0
 29 37  1  0  0  0  0
 30 31  1  0  0  0  0
 30 29  1  0  0  0  0
 32 31  1  0  0  0  0
 34 32  1  0  0  0  0
 34 33  1  1  0  0  0
 35 34  1  0  0  0  0
 36 35  1  0  0  0  0
 37 38  1  0  0  0  0
 38 40  1  0  0  0  0
 40 39  1  0  0  0  0
M  END
>  <MODEL>
8

>  <REMARK>
 VINA RESULT:      -1.6      4.345     10.895
  Name = 
  12 active torsions:
  status: ('A' for Active; 'I' for Inactive)
    1  A    between atoms: C_5  and  C_15
    2  A    between atoms: C_7  and  C_10
    3  A    between atoms: C_7  and  S_36
    4  A    between atoms: C_10  and  N_28
    5  A    between atoms: C_11  and  C_16
    6  A    between atoms: C_12  and  N_28
    7  A    between atoms: C_12  and  C_30
    8  A    between atoms: N_13  and  C_35
    9  A    between atoms: C_19  and  C_37
   10  A    between atoms: C_24  and  N_28
   11  A    between atoms: C_29  and  C_30
   12  A    between atoms: C_35  and  S_36
                            x       y       z     vdW  Elec       q    Type
                         _______ _______ _______ _____ _____    ______ ____

>  <TORSDO>
F 12

$$$$
=
 OpenBabel11052411473D

 40 45  0  0  1  0  0  0  0  0999 V2000
  161.2770  208.3380  153.0760 C   0  0  2  0  0  0  0  0  0  0  0  0
  161.7720  207.0760  150.8990 O   0  0  0  0  0  0  0  0  0  0  0  0
  160.7380  207.0700  153.8030 C   0  0  1  0  0  3  0  0  0  0  0  0
  163.0300  208.8820  151.4820 O   0  0  0  0  0  0  0  0  0  0  0  0
  162.0780  208.1180  151.7860 C   0  0  0  0  0  0  0  0  0  0  0  0
  162.4820  210.3260  153.6790 C   0  0  1  0  0  3  0  0  0  0  0  0
  160.7420  206.1230  151.1360 C   0  0  2  0  0  3  0  0  0  0  0  0
  161.1690  205.1470  152.2400 C   0  0  0  0  0  2  0  0  0  0  0  0
  161.0660  209.7220  153.7860 C   0  0  1  0  0  0  0  0  0  0  0  0
  161.5980  205.8440  153.5300 C   0  0  0  0  0  2  0  0  0  0  0  0
  161.3400  211.0860  153.1340 C   0  0  0  0  0  2  0  0  0  0  0  0
  160.1390  209.2000  152.6940 C   0  0  0  0  0  2  0  0  0  0  0  0
  159.6250  210.1030  157.1990 N   0  0  0  0  0  0  0  0  0  0  0  0
  160.2530  208.9940  156.7370 C   0  0  0  0  0  0  0  0  0  0  0  0
  160.3890  207.1400  155.3000 C   0  0  2  0  0  3  0  0  0  0  0  0
  161.4370  208.2870  157.2600 C   0  0  0  0  0  3  0  0  0  0  0  0
  159.7020  208.3890  155.6770 C   0  0  0  0  0  0  0  0  0  0  0  0
  158.3030  209.1880  155.1960 S   0  0  0  0  0  0  0  0  0  0  0  0
  157.6710  211.4540  156.6390 N   0  0  0  0  0  1  0  0  0  0  0  0
  161.6100  207.1200  156.2530 C   0  0  0  0  0  3  0  0  0  0  0  0
  158.5320  210.3400  156.4300 C   0  0  0  0  0  0  0  0  0  0  0  0
  162.8730  211.4300  157.1030 N   0  0  0  0  0  0  0  0  0  0  0  0
  162.9170  210.8060  155.0290 C   0  0  0  0  0  0  0  0  0  0  0  0
  164.1540  211.5410  156.6920 C   0  0  0  0  0  2  0  0  0  0  0  0
  162.1210  210.9880  156.0990 N   0  0  0  0  0  0  0  0  0  0  0  0
  164.2050  211.1480  155.3730 C   0  0  0  0  0  0  0  0  0  0  0  0
  165.4020  211.1900  154.4830 C   0  0  0  0  0  2  0  0  0  0  0  0
  166.4450  212.1400  155.0380 C   0  0  0  0  0  1  0  0  0  0  0  0
  160.4220  205.3920  149.9000 N   0  0  0  0  0  0  0  0  0  0  0  0
  160.4500  206.2460  148.7010 C   0  0  0  0  0  2  0  0  0  0  0  0
  161.6470  205.9890  147.8020 C   0  0  0  0  0  2  0  0  0  0  0  0
  161.1610  206.1850  146.0580 S   0  0  0  0  0  0  0  0  0  0  0  0
  163.4740  204.7040  146.3940 C   0  0  0  0  0  1  0  0  0  0  0  0
  162.2970  204.8850  145.4480 C   0  0  1  0  0  3  0  0  0  0  0  0
  161.5940  203.6280  145.2590 N   0  0  0  0  0  2  0  0  0  0  0  0
  160.2660  203.9660  144.7810 C   0  0  0  0  0  1  0  0  0  0  0  0
  161.2590  204.1960  149.7070 C   0  0  0  0  0  2  0  0  0  0  0  0
  160.4620  202.9860  149.2100 C   0  0  0  0  0  2  0  0  0  0  0  0
  160.9000  201.0520  147.6840 C   0  0  0  0  0  1  0  0  0  0  0  0
  161.3750  201.8060  148.9150 C   0  0  0  0  0  2  0  0  0  0  0  0
  1 12  1  6  0  0  0
  1  9  1  0  0  0  0
  1  3  1  0  0  0  0
  2  7  1  0  0  0  0
  2  5  1  0  0  0  0
  3 10  1  1  0  0  0
  3 15  1  0  0  0  0
  4  5  2  0  0  0  0
  5  1  1  0  0  0  0
  6  9  1  0  0  0  0
  6 23  1  1  0  0  0
  7 29  1  6  0  0  0
  7  8  1  0  0  0  0
  8 10  1  0  0  0  0
  9 12  1  1  0  0  0
 11  6  1  0  0  0  0
 11  9  1  0  0  0  0
 14 13  1  0  0  0  0
 14 16  1  0  0  0  0
 15 17  1  0  0  0  0
 15 20  1  1  0  0  0
 17 14  2  0  0  0  0
 18 17  1  0  0  0  0
 18 21  1  0  0  0  0
 20 16  2  0  0  0  0
 21 19  1  0  0  0  0
 21 13  2  0  0  0  0
 23 26  2  0  0  0  0
 23 25  1  0  0  0  0
 24 22  1  0  0  0  0
 25 22  2  0  0  0  0
 26 24  1  0  0  0  0
 27 28  1  0  0  0  0
 27 26  1  0  0  0  0
 30 29  1  0  0  0  0
 31 30  1  0  0  0  0
 32 31  1  0  0  0  0
 34 32  1  0  0  0  0
 34 33  1  1  0  0  0
 35 34  1  0  0  0  0
 36 35  1  0  0  0  0
 37 29  1  0  0  0  0
 38 37  1  0  0  0  0
 39 40  1  0  0  0  0
 40 38  1  0  0  0  0
M  END
>  <MODEL>
9

>  <REMARK>
 VINA RESULT:      -1.6      2.895      5.274
  Name = 
  12 active torsions:
  status: ('A' for Active; 'I' for Inactive)
    1  A    between atoms: C_5  and  C_15
    2  A    between atoms: C_7  and  C_10
    3  A    between atoms: C_7  and  S_36
    4  A    between atoms: C_10  and  N_28
    5  A    between atoms: C_11  and  C_16
    6  A    between atoms: C_12  and  N_28
    7  A    between atoms: C_12  and  C_30
    8  A    between atoms: N_13  and  C_35
    9  A    between atoms: C_19  and  C_37
   10  A    between atoms: C_24  and  N_28
   11  A    between atoms: C_29  and  C_30
   12  A    between atoms: C_35  and  S_36
                            x       y       z     vdW  Elec       q    Type
                         _______ _______ _______ _____ _____    ______ ____

>  <TORSDO>
F 12

$$$$
