=
 OpenBabel11042422143D

 50 56  0  0  1  0  0  0  0  0999 V2000
  162.5500  210.1640  150.0260 N   0  0  0  0  0  0  0  0  0  0  0  0
  161.2110  207.1250  152.9670 N   0  0  0  0  0  0  0  0  0  0  0  0
  160.8810  209.1050  154.3390 C   0  0  0  0  0  0  0  0  0  0  0  0
  161.2280  208.5620  153.1350 C   0  0  0  0  0  0  0  0  0  0  0  0
  160.6560  208.2060  155.5320 C   0  0  0  0  0  2  0  0  0  0  0  0
  160.1770  206.8170  155.1390 C   0  0  0  0  0  2  0  0  0  0  0  0
  161.8530  211.3690  148.3500 C   0  0  0  0  0  3  0  0  0  0  0  0
  162.6240  209.0240  150.9160 C   0  0  0  0  0  2  0  0  0  0  0  0
  160.8700  210.5680  154.6390 C   0  0  0  0  0  0  0  0  0  0  0  0
  159.9230  211.1910  152.4660 C   0  0  1  0  0  3  0  0  0  0  0  0
  161.6220  211.0060  150.4190 C   0  0  0  0  0  0  0  0  0  0  0  0
  161.1350  211.7730  149.4310 N   0  0  0  0  0  0  0  0  0  0  0  0
  161.6000  209.4080  151.9700 C   0  0  0  0  0  0  0  0  0  0  0  0
  159.3940  212.4740  151.8520 C   0  0  0  0  0  1  0  0  0  0  0  0
  161.0060  210.5610  151.6510 C   0  0  0  0  0  0  0  0  0  0  0  0
  161.1580  206.2490  154.1340 C   0  0  0  0  0  2  0  0  0  0  0  0
  161.2850  210.9900  155.9430 N   0  0  0  0  0  2  0  0  0  0  0  0
  160.4360  211.4670  153.7970 N   0  0  0  0  0  0  0  0  0  0  0  0
  162.6990  210.3160  148.7030 C   0  0  0  0  0  3  0  0  0  0  0  0
  161.3040  212.3430  156.3190 N   0  0  0  0  0  2  0  0  0  0  0  0
  160.0580  212.6270  157.0140 C   0  0  0  0  0  2  0  0  0  0  0  0
  159.1980  213.5610  156.1670 C   0  0  0  0  0  2  0  0  0  0  0  0
  155.9090  213.5610  153.3210 C   0  0  0  0  0  0  0  0  0  0  0  0
  157.1090  213.6630  153.7780 N   0  0  0  0  0  0  0  0  0  0  0  0
  157.4650  212.1150  157.2540 C   0  0  0  0  0  2  0  0  0  0  0  0
  155.9780  211.8200  154.7890 C   0  0  2  0  0  3  0  0  0  0  0  0
  155.3880  214.4520  152.3420 N   0  0  0  0  0  1  0  0  0  0  0  0
  156.2760  211.1980  156.9330 C   0  0  0  0  0  2  0  0  0  0  0  0
  155.3760  211.8420  156.0650 O   0  0  0  0  0  0  0  0  0  0  0  0
  157.7210  213.1600  156.1520 C   0  0  2  0  0  0  0  0  0  0  0  0
  157.3170  212.6050  154.7600 C   0  0  2  0  0  3  0  0  0  0  0  0
  155.1700  212.5290  153.8650 O   0  0  0  0  0  0  0  0  0  0  0  0
  156.9090  214.4020  156.5050 C   0  0  0  0  0  1  0  0  0  0  0  0
  160.8970  206.5450  151.6630 C   0  0  0  0  0  2  0  0  0  0  0  0
  160.4750  205.1150  151.7950 C   0  0  0  0  0  0  0  0  0  0  0  0
  159.3670  204.7680  151.4260 O   0  0  0  0  0  0  0  0  0  0  0  0
  161.4240  204.1220  152.3770 C   0  0  0  0  0  2  0  0  0  0  0  0
  161.6670  202.9820  151.4020 C   0  0  0  0  0  2  0  0  0  0  0  0
  161.7770  203.5020  150.0460 N   0  0  0  0  0  2  0  0  0  0  0  0
  161.0700  202.9480  148.9290 C   0  0  0  0  0  0  0  0  0  0  0  0
  160.2420  202.0130  149.1090 O   0  0  0  0  0  0  0  0  0  0  0  0
  159.6140  203.6790  145.1150 F   0  0  0  0  0  0  0  0  0  0  0  0
  161.3140  203.4650  147.5680 C   0  0  0  0  0  0  0  0  0  0  0  0
  161.6760  204.7450  147.3940 C   0  0  0  0  0  3  0  0  0  0  0  0
  160.9260  203.2350  145.0830 C   0  0  2  0  0  3  0  0  0  0  0  0
  161.4910  205.1330  143.7240 O   0  0  0  0  0  1  0  0  0  0  0  0
  161.9710  205.2920  146.0590 C   0  0  0  0  0  0  0  0  0  0  0  0
  162.3600  206.4840  145.9490 O   0  0  0  0  0  0  0  0  0  0  0  0
  161.2620  202.5170  146.3940 C   0  0  0  0  0  2  0  0  0  0  0  0
  161.8900  204.4030  144.8470 C   0  0  1  0  0  3  0  0  0  0  0  0
  1 11  1  0  0  0  0
  1  8  1  0  0  0  0
  2  4  1  0  0  0  0
  2 16  1  0  0  0  0
  3  9  1  0  0  0  0
  3  5  1  0  0  0  0
  4  3  2  0  0  0  0
  6  5  1  0  0  0  0
  7 19  2  0  0  0  0
  7 12  1  0  0  0  0
  8 13  1  0  0  0  0
  9 17  1  0  0  0  0
 10 14  1  6  0  0  0
 10 18  1  0  0  0  0
 11 15  1  0  0  0  0
 12 11  2  0  0  0  0
 13  4  1  0  0  0  0
 15 13  2  0  0  0  0
 15 10  1  0  0  0  0
 16  6  1  0  0  0  0
 17 20  1  0  0  0  0
 18  9  2  0  0  0  0
 19  1  1  0  0  0  0
 20 21  1  0  0  0  0
 22 21  1  0  0  0  0
 23 24  2  0  0  0  0
 23 32  1  0  0  0  0
 26 32  1  6  0  0  0
 26 29  1  0  0  0  0
 27 23  1  0  0  0  0
 28 25  1  0  0  0  0
 29 28  1  0  0  0  0
 30 22  1  0  0  0  0
 30 33  1  1  0  0  0
 30 25  1  0  0  0  0
 31 24  1  6  0  0  0
 31 26  1  0  0  0  0
 31 30  1  0  0  0  0
 34 35  1  0  0  0  0
 34  2  1  0  0  0  0
 35 37  1  0  0  0  0
 36 35  2  0  0  0  0
 38 37  1  0  0  0  0
 39 38  1  0  0  0  0
 40 41  2  0  0  0  0
 40 39  1  0  0  0  0
 43 40  1  0  0  0  0
 44 43  2  0  0  0  0
 45 42  1  1  0  0  0
 45 49  1  0  0  0  0
 47 44  1  0  0  0  0
 48 47  2  0  0  0  0
 49 43  1  0  0  0  0
 50 46  1  6  0  0  0
 50 45  1  0  0  0  0
 50 47  1  0  0  0  0
M  END
>  <MODEL>
1

>  <REMARK>
 VINA RESULT:      -5.1      0.000      0.000
  Name = 
  10 active torsions:
  status: ('A' for Active; 'I' for Inactive)
    1  A    between atoms: N_2  and  C_43
    2  A    between atoms: C_7  and  C_18
    3  A    between atoms: C_7  and  N_32
    4  A    between atoms: C_13  and  C_39
    5  A    between atoms: C_15  and  C_31
    6  A    between atoms: C_15  and  N_33
    7  A    between atoms: C_18  and  C_23
    8  A    between atoms: C_23  and  C_43
    9  A    between atoms: C_31  and  C_38
   10  A    between atoms: N_33  and  N_46
                            x       y       z     vdW  Elec       q    Type
                         _______ _______ _______ _____ _____    ______ ____

>  <TORSDO>
F 10

$$$$
=
 OpenBabel11042422143D

 50 56  0  0  1  0  0  0  0  0999 V2000
  160.1870  202.5080  148.7200 N   0  0  0  0  0  0  0  0  0  0  0  0
  161.7900  206.5580  147.8780 N   0  0  0  0  0  0  0  0  0  0  0  0
  161.5430  206.7760  150.2870 C   0  0  0  0  0  0  0  0  0  0  0  0
  161.4550  205.9960  149.1690 C   0  0  0  0  0  0  0  0  0  0  0  0
  161.8150  208.2560  150.1530 C   0  0  0  0  0  2  0  0  0  0  0  0
  162.6140  208.5960  148.9040 C   0  0  0  0  0  2  0  0  0  0  0  0
  160.8020  200.4530  149.1000 C   0  0  0  0  0  3  0  0  0  0  0  0
  160.2520  203.8450  148.1650 C   0  0  0  0  0  2  0  0  0  0  0  0
  161.2150  206.3170  151.6700 C   0  0  0  0  0  0  0  0  0  0  0  0
  162.2500  204.1140  151.3790 C   0  0  1  0  0  3  0  0  0  0  0  0
  160.8690  202.4310  149.8390 C   0  0  0  0  0  0  0  0  0  0  0  0
  161.2930  201.1910  150.1300 N   0  0  0  0  0  0  0  0  0  0  0  0
  161.0480  204.5680  149.2370 C   0  0  0  0  0  0  0  0  0  0  0  0
  162.5650  202.9450  152.2940 C   0  0  0  0  0  1  0  0  0  0  0  0
  161.4200  203.7200  150.2000 C   0  0  0  0  0  0  0  0  0  0  0  0
  161.8930  208.0040  147.7100 C   0  0  0  0  0  2  0  0  0  0  0  0
  160.5770  207.2460  152.5530 N   0  0  0  0  0  2  0  0  0  0  0  0
  161.5440  205.1390  152.1290 N   0  0  0  0  0  0  0  0  0  0  0  0
  160.1600  201.2820  148.1790 C   0  0  0  0  0  3  0  0  0  0  0  0
  160.2340  206.9070  153.8720 N   0  0  0  0  0  2  0  0  0  0  0  0
  160.8530  207.8830  154.7550 C   0  0  0  0  0  2  0  0  0  0  0  0
  161.1530  209.1630  153.9780 C   0  0  0  0  0  2  0  0  0  0  0  0
  159.5150  212.7210  152.0890 C   0  0  0  0  0  0  0  0  0  0  0  0
  160.1190  211.5900  152.2120 N   0  0  0  0  0  0  0  0  0  0  0  0
  159.3490  209.8990  155.5520 C   0  0  0  0  0  2  0  0  0  0  0  0
  158.1620  211.6500  153.5770 C   0  0  2  0  0  3  0  0  0  0  0  0
  159.9940  213.7520  151.2350 N   0  0  0  0  0  1  0  0  0  0  0  0
  158.0210  210.6690  155.5990 C   0  0  0  0  0  2  0  0  0  0  0  0
  158.1500  211.9160  154.9620 O   0  0  0  0  0  0  0  0  0  0  0  0
  160.2380  210.3250  154.3690 C   0  0  2  0  0  0  0  0  0  0  0  0
  159.3720  210.7710  153.1600 C   0  0  2  0  0  3  0  0  0  0  0  0
  158.3760  212.8530  152.8590 O   0  0  0  0  0  0  0  0  0  0  0  0
  161.1300  211.4630  154.8560 C   0  0  0  0  0  1  0  0  0  0  0  0
  162.3630  205.7070  146.8380 C   0  0  0  0  0  2  0  0  0  0  0  0
  161.6720  205.9160  145.5270 C   0  0  0  0  0  0  0  0  0  0  0  0
  160.4610  206.0430  145.4880 O   0  0  0  0  0  0  0  0  0  0  0  0
  162.4800  205.9720  144.2740 C   0  0  0  0  0  2  0  0  0  0  0  0
  161.6480  205.5240  143.0840 C   0  0  0  0  0  2  0  0  0  0  0  0
  161.4760  206.6300  142.1530 N   0  0  0  0  0  2  0  0  0  0  0  0
  162.0430  206.6470  140.8360 C   0  0  0  0  0  0  0  0  0  0  0  0
  162.6620  205.6360  140.4030 O   0  0  0  0  0  0  0  0  0  0  0  0
  159.5860  209.1800  138.6580 F   0  0  0  0  0  0  0  0  0  0  0  0
  161.9120  207.8490  139.9890 C   0  0  0  0  0  0  0  0  0  0  0  0
  162.2880  209.0450  140.4640 C   0  0  0  0  0  3  0  0  0  0  0  0
  160.8000  208.9770  138.0220 C   0  0  2  0  0  3  0  0  0  0  0  0
  161.0630  211.3590  137.8560 O   0  0  0  0  0  1  0  0  0  0  0  0
  162.2140  210.2640  139.6400 C   0  0  0  0  0  0  0  0  0  0  0  0
  162.6290  211.3570  140.1090 O   0  0  0  0  0  0  0  0  0  0  0  0
  161.4580  207.7020  138.5560 C   0  0  0  0  0  2  0  0  0  0  0  0
  161.7260  210.1830  138.2190 C   0  0  1  0  0  3  0  0  0  0  0  0
  1 11  1  0  0  0  0
  2  4  1  0  0  0  0
  3  9  1  0  0  0  0
  4 13  1  0  0  0  0
  4  3  2  0  0  0  0
  5  3  1  0  0  0  0
  6  5  1  0  0  0  0
  7 12  1  0  0  0  0
  8  1  1  0  0  0  0
  8 13  1  0  0  0  0
  9 18  2  0  0  0  0
  9 17  1  0  0  0  0
 10 18  1  0  0  0  0
 10 14  1  1  0  0  0
 11 12  2  0  0  0  0
 11 15  1  0  0  0  0
 13 15  2  0  0  0  0
 15 10  1  0  0  0  0
 16  2  1  0  0  0  0
 16  6  1  0  0  0  0
 17 20  1  0  0  0  0
 19  1  1  0  0  0  0
 19  7  2  0  0  0  0
 20 21  1  0  0  0  0
 22 30  1  0  0  0  0
 22 21  1  0  0  0  0
 23 24  2  0  0  0  0
 23 32  1  0  0  0  0
 25 28  1  0  0  0  0
 26 32  1  6  0  0  0
 26 29  1  0  0  0  0
 27 23  1  0  0  0  0
 29 28  1  0  0  0  0
 30 33  1  1  0  0  0
 30 25  1  0  0  0  0
 31 24  1  6  0  0  0
 31 26  1  0  0  0  0
 31 30  1  0  0  0  0
 34  2  1  0  0  0  0
 35 34  1  0  0  0  0
 36 35  2  0  0  0  0
 37 35  1  0  0  0  0
 38 37  1  0  0  0  0
 39 38  1  0  0  0  0
 40 39  1  0  0  0  0
 41 40  2  0  0  0  0
 43 44  2  0  0  0  0
 43 40  1  0  0  0  0
 45 50  1  0  0  0  0
 45 49  1  0  0  0  0
 45 42  1  1  0  0  0
 47 48  2  0  0  0  0
 47 44  1  0  0  0  0
 49 43  1  0  0  0  0
 50 46  1  1  0  0  0
 50 47  1  0  0  0  0
M  END
>  <MODEL>
2

>  <REMARK>
 VINA RESULT:      -4.5      3.927      6.983
  Name = 
  10 active torsions:
  status: ('A' for Active; 'I' for Inactive)
    1  A    between atoms: N_2  and  C_43
    2  A    between atoms: C_7  and  C_18
    3  A    between atoms: C_7  and  N_32
    4  A    between atoms: C_13  and  C_39
    5  A    between atoms: C_15  and  C_31
    6  A    between atoms: C_15  and  N_33
    7  A    between atoms: C_18  and  C_23
    8  A    between atoms: C_23  and  C_43
    9  A    between atoms: C_31  and  C_38
   10  A    between atoms: N_33  and  N_46
                            x       y       z     vdW  Elec       q    Type
                         _______ _______ _______ _____ _____    ______ ____

>  <TORSDO>
F 10

$$$$
=
 OpenBabel11042422143D

 50 56  0  0  1  0  0  0  0  0999 V2000
  161.6690  213.9620  146.4000 N   0  0  0  0  0  0  0  0  0  0  0  0
  162.2120  211.1030  149.7490 N   0  0  0  0  0  0  0  0  0  0  0  0
  160.1090  212.0890  150.4700 C   0  0  0  0  0  0  0  0  0  0  0  0
  161.0980  212.0030  149.5330 C   0  0  0  0  0  0  0  0  0  0  0  0
  160.2680  211.3850  151.7970 C   0  0  0  0  0  2  0  0  0  0  0  0
  161.1450  210.1460  151.7050 C   0  0  0  0  0  2  0  0  0  0  0  0
  160.8940  214.1160  144.3700 C   0  0  0  0  0  3  0  0  0  0  0  0
  162.2790  213.3400  147.5570 C   0  0  0  0  0  2  0  0  0  0  0  0
  158.9190  212.9850  150.3680 C   0  0  0  0  0  0  0  0  0  0  0  0
  158.5870  212.5730  147.9750 C   0  0  1  0  0  3  0  0  0  0  0  0
  160.3720  213.7550  146.3860 C   0  0  0  0  0  0  0  0  0  0  0  0
  159.8280  213.8210  145.1610 N   0  0  0  0  0  0  0  0  0  0  0  0
  161.0580  212.7910  148.2730 C   0  0  0  0  0  0  0  0  0  0  0  0
  157.5160  212.9300  146.9610 C   0  0  0  0  0  1  0  0  0  0  0  0
  159.9510  213.0240  147.5610 C   0  0  0  0  0  0  0  0  0  0  0  0
  162.4620  210.5490  151.0760 C   0  0  0  0  0  2  0  0  0  0  0  0
  158.4350  213.5990  151.5680 N   0  0  0  0  0  2  0  0  0  0  0  0
  158.2610  213.1770  149.2560 N   0  0  0  0  0  0  0  0  0  0  0  0
  162.0630  214.1450  145.1330 C   0  0  0  0  0  3  0  0  0  0  0  0
  157.3210  214.4530  151.5730 N   0  0  0  0  0  2  0  0  0  0  0  0
  156.3480  213.9060  152.5050 C   0  0  0  0  0  2  0  0  0  0  0  0
  156.6430  214.4130  153.9140 C   0  0  0  0  0  2  0  0  0  0  0  0
  159.8460  212.0550  155.6740 C   0  0  0  0  0  0  0  0  0  0  0  0
  159.2640  212.9840  154.9980 N   0  0  0  0  0  0  0  0  0  0  0  0
  155.5560  213.2930  155.8720 C   0  0  0  0  0  2  0  0  0  0  0  0
  158.1040  212.5780  157.0450 C   0  0  2  0  0  3  0  0  0  0  0  0
  161.0230  211.4020  155.2130 N   0  0  0  0  0  1  0  0  0  0  0  0
  155.8640  212.6960  157.2540 C   0  0  0  0  0  2  0  0  0  0  0  0
  156.9390  211.7930  157.1730 O   0  0  0  0  0  0  0  0  0  0  0  0
  156.7790  213.2830  154.9370 C   0  0  2  0  0  0  0  0  0  0  0  0
  158.0950  213.4310  155.7470 C   0  0  2  0  0  3  0  0  0  0  0  0
  159.2330  211.7400  156.8700 O   0  0  0  0  0  0  0  0  0  0  0  0
  156.7530  211.9660  154.1680 C   0  0  0  0  0  1  0  0  0  0  0  0
  162.8720  210.4710  148.6090 C   0  0  0  0  0  2  0  0  0  0  0  0
  162.5790  209.0040  148.5610 C   0  0  0  0  0  0  0  0  0  0  0  0
  163.4940  208.2000  148.5090 O   0  0  0  0  0  0  0  0  0  0  0  0
  161.1630  208.5380  148.5820 C   0  0  0  0  0  2  0  0  0  0  0  0
  160.9620  207.3990  147.5970 C   0  0  0  0  0  2  0  0  0  0  0  0
  160.8100  206.1420  148.3160 N   0  0  0  0  0  2  0  0  0  0  0  0
  161.3690  204.9010  147.8620 C   0  0  0  0  0  0  0  0  0  0  0  0
  162.1000  204.8790  146.8330 O   0  0  0  0  0  0  0  0  0  0  0  0
  162.3480  200.9390  148.5920 F   0  0  0  0  0  0  0  0  0  0  0  0
  161.0830  203.6500  148.5910 C   0  0  0  0  0  0  0  0  0  0  0  0
  161.1180  203.6360  149.9320 C   0  0  0  0  0  3  0  0  0  0  0  0
  160.9760  201.1270  148.5640 C   0  0  2  0  0  3  0  0  0  0  0  0
  160.8240  200.0320  150.6970 O   0  0  0  0  0  1  0  0  0  0  0  0
  160.8000  202.4210  150.7020 C   0  0  0  0  0  0  0  0  0  0  0  0
  160.7930  202.4680  151.9600 O   0  0  0  0  0  0  0  0  0  0  0  0
  160.6460  202.4260  147.8230 C   0  0  0  0  0  2  0  0  0  0  0  0
  160.4020  201.1590  149.9850 C   0  0  1  0  0  3  0  0  0  0  0  0
  1  8  1  0  0  0  0
  2 16  1  0  0  0  0
  3  5  1  0  0  0  0
  4  2  1  0  0  0  0
  4  3  2  0  0  0  0
  6  5  1  0  0  0  0
  7 19  2  0  0  0  0
  7 12  1  0  0  0  0
  8 13  1  0  0  0  0
  9  3  1  0  0  0  0
  9 17  1  0  0  0  0
 10 14  1  6  0  0  0
 10 18  1  0  0  0  0
 11  1  1  0  0  0  0
 11 15  1  0  0  0  0
 12 11  2  0  0  0  0
 13  4  1  0  0  0  0
 15 10  1  0  0  0  0
 15 13  2  0  0  0  0
 16  6  1  0  0  0  0
 17 20  1  0  0  0  0
 18  9  2  0  0  0  0
 19  1  1  0  0  0  0
 20 21  1  0  0  0  0
 21 22  1  0  0  0  0
 22 30  1  0  0  0  0
 23 32  1  0  0  0  0
 24 23  2  0  0  0  0
 25 28  1  0  0  0  0
 26 32  1  6  0  0  0
 26 29  1  0  0  0  0
 27 23  1  0  0  0  0
 29 28  1  0  0  0  0
 30 33  1  6  0  0  0
 30 31  1  0  0  0  0
 30 25  1  0  0  0  0
 31 24  1  6  0  0  0
 31 26  1  0  0  0  0
 34  2  1  0  0  0  0
 35 37  1  0  0  0  0
 35 34  1  0  0  0  0
 36 35  2  0  0  0  0
 38 39  1  0  0  0  0
 38 37  1  0  0  0  0
 40 39  1  0  0  0  0
 40 43  1  0  0  0  0
 41 40  2  0  0  0  0
 43 44  2  0  0  0  0
 44 47  1  0  0  0  0
 45 42  1  1  0  0  0
 45 50  1  0  0  0  0
 47 48  2  0  0  0  0
 49 45  1  0  0  0  0
 49 43  1  0  0  0  0
 50 46  1  1  0  0  0
 50 47  1  0  0  0  0
M  END
>  <MODEL>
3

>  <REMARK>
 VINA RESULT:      -4.2      2.482      4.885
  Name = 
  10 active torsions:
  status: ('A' for Active; 'I' for Inactive)
    1  A    between atoms: N_2  and  C_43
    2  A    between atoms: C_7  and  C_18
    3  A    between atoms: C_7  and  N_32
    4  A    between atoms: C_13  and  C_39
    5  A    between atoms: C_15  and  C_31
    6  A    between atoms: C_15  and  N_33
    7  A    between atoms: C_18  and  C_23
    8  A    between atoms: C_23  and  C_43
    9  A    between atoms: C_31  and  C_38
   10  A    between atoms: N_33  and  N_46
                            x       y       z     vdW  Elec       q    Type
                         _______ _______ _______ _____ _____    ______ ____

>  <TORSDO>
F 10

$$$$
=
 OpenBabel11042422143D

 50 56  0  0  1  0  0  0  0  0999 V2000
  160.0990  202.5410  148.9170 N   0  0  0  0  0  0  0  0  0  0  0  0
  161.7270  206.5240  147.8360 N   0  0  0  0  0  0  0  0  0  0  0  0
  161.5580  206.8580  150.2390 C   0  0  0  0  0  0  0  0  0  0  0  0
  161.4250  206.0280  149.1620 C   0  0  0  0  0  0  0  0  0  0  0  0
  161.8450  208.3260  150.0270 C   0  0  0  0  0  2  0  0  0  0  0  0
  162.6080  208.5960  148.7390 C   0  0  0  0  0  2  0  0  0  0  0  0
  160.7000  200.4970  149.3740 C   0  0  0  0  0  3  0  0  0  0  0  0
  160.1640  203.8490  148.2980 C   0  0  0  0  0  2  0  0  0  0  0  0
  161.2680  206.4680  151.6510 C   0  0  0  0  0  0  0  0  0  0  0  0
  162.2640  204.2400  151.4330 C   0  0  1  0  0  3  0  0  0  0  0  0
  160.8150  202.5070  150.0170 C   0  0  0  0  0  0  0  0  0  0  0  0
  161.2320  201.2760  150.3520 N   0  0  0  0  0  0  0  0  0  0  0  0
  161.0030  204.6110  149.3100 C   0  0  0  0  0  0  0  0  0  0  0  0
  162.5940  203.1110  152.3920 C   0  0  0  0  0  1  0  0  0  0  0  0
  161.3940  203.8030  150.2990 C   0  0  0  0  0  0  0  0  0  0  0  0
  161.8430  207.9600  147.5970 C   0  0  0  0  0  2  0  0  0  0  0  0
  160.6700  207.4470  152.5090 N   0  0  0  0  0  2  0  0  0  0  0  0
  161.5950  205.3090  152.1550 N   0  0  0  0  0  0  0  0  0  0  0  0
  160.0400  201.2920  148.4350 C   0  0  0  0  0  3  0  0  0  0  0  0
  160.3630  207.1750  153.8520 N   0  0  0  0  0  2  0  0  0  0  0  0
  160.6890  208.3610  154.6290 C   0  0  0  0  0  2  0  0  0  0  0  0
  160.3610  209.6130  153.8190 C   0  0  0  0  0  2  0  0  0  0  0  0
  157.0970  212.0090  155.4060 C   0  0  0  0  0  0  0  0  0  0  0  0
  157.7060  211.0310  154.8310 N   0  0  0  0  0  0  0  0  0  0  0  0
  161.4580  211.0410  155.5600 C   0  0  0  0  0  2  0  0  0  0  0  0
  158.9210  211.7680  156.7480 C   0  0  2  0  0  3  0  0  0  0  0  0
  155.8650  212.5310  154.9200 N   0  0  0  0  0  1  0  0  0  0  0  0
  161.1700  211.7990  156.8640 C   0  0  0  0  0  2  0  0  0  0  0  0
  160.0410  212.6240  156.7170 O   0  0  0  0  0  0  0  0  0  0  0  0
  160.1990  210.8600  154.6900 C   0  0  2  0  0  0  0  0  0  0  0  0
  158.9280  210.7510  155.5750 C   0  0  2  0  0  3  0  0  0  0  0  0
  157.7380  212.5140  156.5200 O   0  0  0  0  0  0  0  0  0  0  0  0
  160.1160  212.0610  153.7550 C   0  0  0  0  0  1  0  0  0  0  0  0
  162.2560  205.6180  146.8200 C   0  0  0  0  0  2  0  0  0  0  0  0
  161.6020  205.8500  145.4950 C   0  0  0  0  0  0  0  0  0  0  0  0
  160.3870  205.9160  145.4160 O   0  0  0  0  0  0  0  0  0  0  0  0
  162.4480  206.0030  144.2760 C   0  0  0  0  0  2  0  0  0  0  0  0
  161.7010  205.5210  143.0440 C   0  0  0  0  0  2  0  0  0  0  0  0
  161.4840  206.6320  142.1280 N   0  0  0  0  0  2  0  0  0  0  0  0
  162.0540  206.6930  140.8130 C   0  0  0  0  0  0  0  0  0  0  0  0
  162.7170  205.7150  140.3680 O   0  0  0  0  0  0  0  0  0  0  0  0
  159.4680  209.2780  138.8590 F   0  0  0  0  0  0  0  0  0  0  0  0
  161.8730  207.8990  139.9830 C   0  0  0  0  0  0  0  0  0  0  0  0
  162.3110  209.0870  140.4260 C   0  0  0  0  0  3  0  0  0  0  0  0
  160.6190  209.0540  138.1210 C   0  0  2  0  0  3  0  0  0  0  0  0
  160.9120  211.4320  137.9370 O   0  0  0  0  0  1  0  0  0  0  0  0
  162.1900  210.3090  139.6140 C   0  0  0  0  0  0  0  0  0  0  0  0
  162.6640  211.3920  140.0480 O   0  0  0  0  0  0  0  0  0  0  0  0
  161.2960  207.7650  138.5940 C   0  0  0  0  0  2  0  0  0  0  0  0
  161.5800  210.2420  138.2400 C   0  0  1  0  0  3  0  0  0  0  0  0
  1 11  1  0  0  0  0
  2  4  1  0  0  0  0
  3  9  1  0  0  0  0
  4 13  1  0  0  0  0
  4  3  2  0  0  0  0
  5  3  1  0  0  0  0
  6  5  1  0  0  0  0
  7 12  1  0  0  0  0
  8  1  1  0  0  0  0
  8 13  1  0  0  0  0
  9 18  2  0  0  0  0
  9 17  1  0  0  0  0
 10 18  1  0  0  0  0
 10 14  1  1  0  0  0
 11 15  1  0  0  0  0
 11 12  2  0  0  0  0
 13 15  2  0  0  0  0
 15 10  1  0  0  0  0
 16  2  1  0  0  0  0
 16  6  1  0  0  0  0
 17 20  1  0  0  0  0
 19  1  1  0  0  0  0
 19  7  2  0  0  0  0
 20 21  1  0  0  0  0
 22 21  1  0  0  0  0
 22 30  1  0  0  0  0
 23 32  1  0  0  0  0
 24 23  2  0  0  0  0
 25 28  1  0  0  0  0
 26 32  1  6  0  0  0
 27 23  1  0  0  0  0
 29 26  1  0  0  0  0
 29 28  1  0  0  0  0
 30 33  1  6  0  0  0
 30 25  1  0  0  0  0
 30 31  1  0  0  0  0
 31 24  1  6  0  0  0
 31 26  1  0  0  0  0
 34  2  1  0  0  0  0
 35 34  1  0  0  0  0
 36 35  2  0  0  0  0
 37 35  1  0  0  0  0
 38 37  1  0  0  0  0
 39 38  1  0  0  0  0
 40 39  1  0  0  0  0
 41 40  2  0  0  0  0
 43 44  2  0  0  0  0
 43 40  1  0  0  0  0
 45 50  1  0  0  0  0
 45 49  1  0  0  0  0
 45 42  1  1  0  0  0
 47 48  2  0  0  0  0
 47 44  1  0  0  0  0
 49 43  1  0  0  0  0
 50 46  1  1  0  0  0
 50 47  1  0  0  0  0
M  END
>  <MODEL>
4

>  <REMARK>
 VINA RESULT:      -4.1      3.964      6.974
  Name = 
  10 active torsions:
  status: ('A' for Active; 'I' for Inactive)
    1  A    between atoms: N_2  and  C_43
    2  A    between atoms: C_7  and  C_18
    3  A    between atoms: C_7  and  N_32
    4  A    between atoms: C_13  and  C_39
    5  A    between atoms: C_15  and  C_31
    6  A    between atoms: C_15  and  N_33
    7  A    between atoms: C_18  and  C_23
    8  A    between atoms: C_23  and  C_43
    9  A    between atoms: C_31  and  C_38
   10  A    between atoms: N_33  and  N_46
                            x       y       z     vdW  Elec       q    Type
                         _______ _______ _______ _____ _____    ______ ____

>  <TORSDO>
F 10

$$$$
=
 OpenBabel11042422143D

 50 56  0  0  1  0  0  0  0  0999 V2000
  161.6610  213.3670  146.3960 N   0  0  0  0  0  0  0  0  0  0  0  0
  162.1350  210.6310  149.8570 N   0  0  0  0  0  0  0  0  0  0  0  0
  160.1560  211.8190  150.6210 C   0  0  0  0  0  0  0  0  0  0  0  0
  161.0880  211.6090  149.6460 C   0  0  0  0  0  0  0  0  0  0  0  0
  160.3220  211.1660  151.9730 C   0  0  0  0  0  2  0  0  0  0  0  0
  161.0910  209.8560  151.9040 C   0  0  0  0  0  2  0  0  0  0  0  0
  160.8040  213.4900  144.3980 C   0  0  0  0  0  3  0  0  0  0  0  0
  162.2750  212.7510  147.5550 C   0  0  0  0  0  2  0  0  0  0  0  0
  159.0370  212.8040  150.5270 C   0  0  0  0  0  0  0  0  0  0  0  0
  158.5590  212.3110  148.1750 C   0  0  1  0  0  3  0  0  0  0  0  0
  160.3530  213.2670  146.4510 C   0  0  0  0  0  0  0  0  0  0  0  0
  159.7570  213.3210  145.2490 N   0  0  0  0  0  0  0  0  0  0  0  0
  161.0500  212.3380  148.3510 C   0  0  0  0  0  0  0  0  0  0  0  0
  157.4710  212.7070  147.1930 C   0  0  0  0  0  1  0  0  0  0  0  0
  159.9320  212.6280  147.6790 C   0  0  0  0  0  0  0  0  0  0  0  0
  162.4050  210.1200  151.1970 C   0  0  0  0  0  2  0  0  0  0  0  0
  158.6630  213.5110  151.7150 N   0  0  0  0  0  2  0  0  0  0  0  0
  158.3440  212.9980  149.4370 N   0  0  0  0  0  0  0  0  0  0  0  0
  162.0060  213.4580  145.1050 C   0  0  0  0  0  3  0  0  0  0  0  0
  157.6220  214.4530  151.7270 N   0  0  0  0  0  2  0  0  0  0  0  0
  156.5120  213.8770  152.4690 C   0  0  0  0  0  2  0  0  0  0  0  0
  156.5460  214.3710  153.9130 C   0  0  0  0  0  2  0  0  0  0  0  0
  158.5250  211.0340  155.8770 C   0  0  0  0  0  0  0  0  0  0  0  0
  158.3750  212.1020  155.1740 N   0  0  0  0  0  0  0  0  0  0  0  0
  154.9750  213.7470  155.7610 C   0  0  0  0  0  2  0  0  0  0  0  0
  156.9890  212.1720  157.1160 C   0  0  2  0  0  3  0  0  0  0  0  0
  159.4170  209.9920  155.5000 N   0  0  0  0  0  1  0  0  0  0  0  0
  154.9360  213.0970  157.1520 C   0  0  0  0  0  2  0  0  0  0  0  0
  155.6130  211.8640  157.1400 O   0  0  0  0  0  0  0  0  0  0  0  0
  156.1810  213.2820  154.9240 C   0  0  2  0  0  0  0  0  0  0  0  0
  157.3930  212.9530  155.8370 C   0  0  2  0  0  3  0  0  0  0  0  0
  157.7470  210.9780  157.0170 O   0  0  0  0  0  0  0  0  0  0  0  0
  155.7400  212.0550  154.1330 C   0  0  0  0  0  1  0  0  0  0  0  0
  162.6870  209.8950  148.7210 C   0  0  0  0  0  2  0  0  0  0  0  0
  162.3290  208.4430  148.7940 C   0  0  0  0  0  0  0  0  0  0  0  0
  161.7400  207.9130  147.8680 O   0  0  0  0  0  0  0  0  0  0  0  0
  162.7030  207.6560  150.0040 C   0  0  0  0  0  2  0  0  0  0  0  0
  161.5490  206.7680  150.4390 C   0  0  0  0  0  2  0  0  0  0  0  0
  161.4320  205.6300  149.5390 N   0  0  0  0  0  2  0  0  0  0  0  0
  161.1610  204.2940  149.9870 C   0  0  0  0  0  0  0  0  0  0  0  0
  160.9300  204.0750  151.2090 O   0  0  0  0  0  0  0  0  0  0  0  0
  159.5260  200.6830  148.7730 F   0  0  0  0  0  0  0  0  0  0  0  0
  161.1600  203.1760  149.0240 C   0  0  0  0  0  0  0  0  0  0  0  0
  160.9430  203.4160  147.7230 C   0  0  0  0  0  3  0  0  0  0  0  0
  160.9030  200.6980  148.6140 C   0  0  2  0  0  3  0  0  0  0  0  0
  160.6040  200.0090  146.3320 O   0  0  0  0  0  1  0  0  0  0  0  0
  160.9750  202.3360  146.7210 C   0  0  0  0  0  0  0  0  0  0  0  0
  160.8190  202.6160  145.5030 O   0  0  0  0  0  0  0  0  0  0  0  0
  161.5140  201.7870  149.4990 C   0  0  0  0  0  2  0  0  0  0  0  0
  161.2780  200.9250  147.1450 C   0  0  1  0  0  3  0  0  0  0  0  0
  1 11  1  0  0  0  0
  1  8  1  0  0  0  0
  2 16  1  0  0  0  0
  3  5  1  0  0  0  0
  4  2  1  0  0  0  0
  4  3  2  0  0  0  0
  6  5  1  0  0  0  0
  7 19  2  0  0  0  0
  7 12  1  0  0  0  0
  8 13  1  0  0  0  0
  9  3  1  0  0  0  0
  9 17  1  0  0  0  0
 10 14  1  6  0  0  0
 10 18  1  0  0  0  0
 11 15  1  0  0  0  0
 12 11  2  0  0  0  0
 13  4  1  0  0  0  0
 15 10  1  0  0  0  0
 15 13  2  0  0  0  0
 16  6  1  0  0  0  0
 17 20  1  0  0  0  0
 18  9  2  0  0  0  0
 19  1  1  0  0  0  0
 20 21  1  0  0  0  0
 21 22  1  0  0  0  0
 22 30  1  0  0  0  0
 23 32  1  0  0  0  0
 24 23  2  0  0  0  0
 25 28  1  0  0  0  0
 26 32  1  6  0  0  0
 26 29  1  0  0  0  0
 27 23  1  0  0  0  0
 29 28  1  0  0  0  0
 30 33  1  6  0  0  0
 30 25  1  0  0  0  0
 30 31  1  0  0  0  0
 31 24  1  6  0  0  0
 31 26  1  0  0  0  0
 34 35  1  0  0  0  0
 34  2  1  0  0  0  0
 35 37  1  0  0  0  0
 36 35  2  0  0  0  0
 37 38  1  0  0  0  0
 39 40  1  0  0  0  0
 39 38  1  0  0  0  0
 40 41  2  0  0  0  0
 43 49  1  0  0  0  0
 43 40  1  0  0  0  0
 44 43  2  0  0  0  0
 45 42  1  6  0  0  0
 45 49  1  0  0  0  0
 47 50  1  0  0  0  0
 47 44  1  0  0  0  0
 48 47  2  0  0  0  0
 50 46  1  6  0  0  0
 50 45  1  0  0  0  0
M  END
>  <MODEL>
5

>  <REMARK>
 VINA RESULT:      -3.9      2.333      4.302
  Name = 
  10 active torsions:
  status: ('A' for Active; 'I' for Inactive)
    1  A    between atoms: N_2  and  C_43
    2  A    between atoms: C_7  and  C_18
    3  A    between atoms: C_7  and  N_32
    4  A    between atoms: C_13  and  C_39
    5  A    between atoms: C_15  and  C_31
    6  A    between atoms: C_15  and  N_33
    7  A    between atoms: C_18  and  C_23
    8  A    between atoms: C_23  and  C_43
    9  A    between atoms: C_31  and  C_38
   10  A    between atoms: N_33  and  N_46
                            x       y       z     vdW  Elec       q    Type
                         _______ _______ _______ _____ _____    ______ ____

>  <TORSDO>
F 10

$$$$
=
 OpenBabel11042422143D

 50 56  0  0  1  0  0  0  0  0999 V2000
  162.6880  212.1520  148.0400 N   0  0  0  0  0  0  0  0  0  0  0  0
  161.7160  208.0310  149.3650 N   0  0  0  0  0  0  0  0  0  0  0  0
  161.5910  209.1310  151.5300 C   0  0  0  0  0  0  0  0  0  0  0  0
  161.7700  209.2260  150.1800 C   0  0  0  0  0  0  0  0  0  0  0  0
  161.5140  207.7710  152.1840 C   0  0  0  0  0  2  0  0  0  0  0  0
  160.9740  206.6990  151.2510 C   0  0  0  0  0  2  0  0  0  0  0  0
  161.7900  213.9570  147.2170 C   0  0  0  0  0  3  0  0  0  0  0  0
  162.8670  210.7340  148.2800 C   0  0  0  0  0  2  0  0  0  0  0  0
  161.6350  210.2860  152.4760 C   0  0  0  0  0  0  0  0  0  0  0  0
  160.4170  211.7940  150.9760 C   0  0  1  0  0  3  0  0  0  0  0  0
  161.8290  212.6660  148.8900 C   0  0  0  0  0  0  0  0  0  0  0  0
  161.2250  213.7770  148.4400 N   0  0  0  0  0  0  0  0  0  0  0  0
  161.9950  210.5330  149.5070 C   0  0  0  0  0  0  0  0  0  0  0  0
  159.8260  213.1860  151.1000 C   0  0  0  0  0  1  0  0  0  0  0  0
  161.3770  211.6700  149.8370 C   0  0  0  0  0  0  0  0  0  0  0  0
  161.8070  206.7130  149.9860 C   0  0  0  0  0  2  0  0  0  0  0  0
  162.2220  210.0770  153.7640 N   0  0  0  0  0  2  0  0  0  0  0  0
  161.1040  211.4490  152.2090 N   0  0  0  0  0  0  0  0  0  0  0  0
  162.6640  212.9060  146.9330 C   0  0  0  0  0  3  0  0  0  0  0  0
  162.3050  211.1000  154.7220 N   0  0  0  0  0  2  0  0  0  0  0  0
  161.6820  210.6160  155.9430 C   0  0  0  0  0  2  0  0  0  0  0  0
  160.2040  210.3330  155.6900 C   0  0  0  0  0  2  0  0  0  0  0  0
  155.9590  211.2780  155.7080 C   0  0  0  0  0  0  0  0  0  0  0  0
  157.0380  210.5760  155.7290 N   0  0  0  0  0  0  0  0  0  0  0  0
  160.1190  212.6910  156.5280 C   0  0  0  0  0  2  0  0  0  0  0  0
  157.2810  212.5330  157.0730 C   0  0  2  0  0  3  0  0  0  0  0  0
  154.8080  210.8840  154.9700 N   0  0  0  0  0  1  0  0  0  0  0  0
  159.2070  213.6860  157.2610 C   0  0  0  0  0  2  0  0  0  0  0  0
  157.9330  213.7170  156.6680 O   0  0  0  0  0  0  0  0  0  0  0  0
  159.3280  211.5820  155.8090 C   0  0  2  0  0  0  0  0  0  0  0  0
  158.0140  211.2600  156.5700 C   0  0  2  0  0  3  0  0  0  0  0  0
  156.0130  212.4430  156.4460 O   0  0  0  0  0  0  0  0  0  0  0  0
  159.0390  212.0730  154.3950 C   0  0  0  0  0  1  0  0  0  0  0  0
  161.2260  208.1050  147.9900 C   0  0  0  0  0  2  0  0  0  0  0  0
  162.0200  207.2160  147.0850 C   0  0  0  0  0  0  0  0  0  0  0  0
  163.0670  206.7290  147.4720 O   0  0  0  0  0  0  0  0  0  0  0  0
  161.5140  206.9310  145.7110 C   0  0  0  0  0  2  0  0  0  0  0  0
  161.9610  205.5530  145.2540 C   0  0  0  0  0  2  0  0  0  0  0  0
  161.8630  204.6070  146.3570 N   0  0  0  0  0  2  0  0  0  0  0  0
  161.1460  203.3680  146.2730 C   0  0  0  0  0  0  0  0  0  0  0  0
  160.6290  203.0130  145.1770 O   0  0  0  0  0  0  0  0  0  0  0  0
  162.6500  200.2880  148.6070 F   0  0  0  0  0  0  0  0  0  0  0  0
  161.0040  202.5120  147.4670 C   0  0  0  0  0  0  0  0  0  0  0  0
  160.9620  203.0680  148.6870 C   0  0  0  0  0  3  0  0  0  0  0  0
  161.2680  200.2290  148.5140 C   0  0  2  0  0  3  0  0  0  0  0  0
  161.1540  200.1230  150.9110 O   0  0  0  0  0  1  0  0  0  0  0  0
  160.7800  202.2560  149.9020 C   0  0  0  0  0  0  0  0  0  0  0  0
  160.6920  202.8260  151.0220 O   0  0  0  0  0  0  0  0  0  0  0  0
  160.7970  201.0260  147.2950 C   0  0  0  0  0  2  0  0  0  0  0  0
  160.6140  200.7650  149.7920 C   0  0  1  0  0  3  0  0  0  0  0  0
  1  8  1  0  0  0  0
  1 11  1  0  0  0  0
  2 16  1  0  0  0  0
  2  4  1  0  0  0  0
  3  5  1  0  0  0  0
  3  9  1  0  0  0  0
  4  3  2  0  0  0  0
  6  5  1  0  0  0  0
  7 12  1  0  0  0  0
  8 13  1  0  0  0  0
  9 17  1  0  0  0  0
 10 14  1  1  0  0  0
 10 18  1  0  0  0  0
 11 15  1  0  0  0  0
 12 11  2  0  0  0  0
 13 15  2  0  0  0  0
 13  4  1  0  0  0  0
 15 10  1  0  0  0  0
 16  6  1  0  0  0  0
 17 20  1  0  0  0  0
 18  9  2  0  0  0  0
 19  7  2  0  0  0  0
 19  1  1  0  0  0  0
 20 21  1  0  0  0  0
 22 30  1  0  0  0  0
 22 21  1  0  0  0  0
 23 24  2  0  0  0  0
 23 32  1  0  0  0  0
 25 28  1  0  0  0  0
 26 32  1  6  0  0  0
 27 23  1  0  0  0  0
 29 26  1  0  0  0  0
 29 28  1  0  0  0  0
 30 33  1  6  0  0  0
 30 25  1  0  0  0  0
 30 31  1  0  0  0  0
 31 24  1  6  0  0  0
 31 26  1  0  0  0  0
 34  2  1  0  0  0  0
 35 36  2  0  0  0  0
 35 34  1  0  0  0  0
 37 35  1  0  0  0  0
 38 37  1  0  0  0  0
 38 39  1  0  0  0  0
 40 39  1  0  0  0  0
 40 43  1  0  0  0  0
 41 40  2  0  0  0  0
 43 44  2  0  0  0  0
 44 47  1  0  0  0  0
 45 42  1  1  0  0  0
 45 50  1  0  0  0  0
 47 48  2  0  0  0  0
 49 43  1  0  0  0  0
 49 45  1  0  0  0  0
 50 47  1  0  0  0  0
 50 46  1  1  0  0  0
M  END
>  <MODEL>
6

>  <REMARK>
 VINA RESULT:      -3.3      2.135      3.890
  Name = 
  10 active torsions:
  status: ('A' for Active; 'I' for Inactive)
    1  A    between atoms: N_2  and  C_43
    2  A    between atoms: C_7  and  C_18
    3  A    between atoms: C_7  and  N_32
    4  A    between atoms: C_13  and  C_39
    5  A    between atoms: C_15  and  C_31
    6  A    between atoms: C_15  and  N_33
    7  A    between atoms: C_18  and  C_23
    8  A    between atoms: C_23  and  C_43
    9  A    between atoms: C_31  and  C_38
   10  A    between atoms: N_33  and  N_46
                            x       y       z     vdW  Elec       q    Type
                         _______ _______ _______ _____ _____    ______ ____

>  <TORSDO>
F 10

$$$$
=
 OpenBabel11042422143D

 50 56  0  0  1  0  0  0  0  0999 V2000
  160.4830  205.8180  148.5680 N   0  0  0  0  0  0  0  0  0  0  0  0
  161.8050  209.8110  149.9790 N   0  0  0  0  0  0  0  0  0  0  0  0
  161.5240  208.7510  152.1490 C   0  0  0  0  0  0  0  0  0  0  0  0
  161.5000  208.6490  150.7880 C   0  0  0  0  0  0  0  0  0  0  0  0
  161.6930  210.1030  152.8000 C   0  0  0  0  0  2  0  0  0  0  0  0
  162.4750  211.0790  151.9350 C   0  0  0  0  0  2  0  0  0  0  0  0
  161.2370  203.8960  147.8720 C   0  0  0  0  0  3  0  0  0  0  0  0
  160.4580  207.2510  148.7760 C   0  0  0  0  0  2  0  0  0  0  0  0
  161.2180  207.6310  153.0890 C   0  0  0  0  0  0  0  0  0  0  0  0
  162.4060  205.9500  151.7600 C   0  0  1  0  0  3  0  0  0  0  0  0
  161.1590  205.2180  149.5200 C   0  0  0  0  0  0  0  0  0  0  0  0
  161.6670  204.0300  149.1550 N   0  0  0  0  0  0  0  0  0  0  0  0
  161.1930  207.3680  150.1000 C   0  0  0  0  0  0  0  0  0  0  0  0
  162.7960  204.4970  151.9630 C   0  0  0  0  0  1  0  0  0  0  0  0
  161.6160  206.1690  150.5100 C   0  0  0  0  0  0  0  0  0  0  0  0
  161.8080  211.1420  150.5770 C   0  0  0  0  0  2  0  0  0  0  0  0
  160.5090  207.9400  154.2940 N   0  0  0  0  0  2  0  0  0  0  0  0
  161.6240  206.4040  152.8970 N   0  0  0  0  0  0  0  0  0  0  0  0
  160.5450  205.0430  147.4770 C   0  0  0  0  0  3  0  0  0  0  0  0
  160.1800  206.9550  155.2400 N   0  0  0  0  0  2  0  0  0  0  0  0
  159.8770  207.6290  156.4930 C   0  0  0  0  0  2  0  0  0  0  0  0
  158.8040  208.6890  156.2610 C   0  0  0  0  0  2  0  0  0  0  0  0
  157.2960  212.7680  156.2580 C   0  0  0  0  0  0  0  0  0  0  0  0
  157.3080  211.4870  156.3850 N   0  0  0  0  0  0  0  0  0  0  0  0
  160.8600  210.0870  156.5660 C   0  0  0  0  0  2  0  0  0  0  0  0
  159.3170  212.4370  157.2570 C   0  0  2  0  0  3  0  0  0  0  0  0
  156.2030  213.4670  155.6750 N   0  0  0  0  0  1  0  0  0  0  0  0
  161.3340  211.4460  157.1040 C   0  0  0  0  0  2  0  0  0  0  0  0
  160.5500  212.4870  156.5750 O   0  0  0  0  0  0  0  0  0  0  0  0
  159.3790  210.1030  156.1430 C   0  0  2  0  0  0  0  0  0  0  0  0
  158.5660  211.1000  157.0120 C   0  0  2  0  0  3  0  0  0  0  0  0
  158.4310  213.4050  156.7210 O   0  0  0  0  0  0  0  0  0  0  0  0
  159.3310  210.4920  154.6700 C   0  0  0  0  0  1  0  0  0  0  0  0
  162.4450  209.6460  148.6760 C   0  0  0  0  0  2  0  0  0  0  0  0
  162.4690  210.9360  147.9180 C   0  0  0  0  0  0  0  0  0  0  0  0
  163.5150  211.5470  147.7850 O   0  0  0  0  0  0  0  0  0  0  0  0
  161.2050  211.4630  147.3270 C   0  0  0  0  0  2  0  0  0  0  0  0
  161.3870  212.9010  146.8740 C   0  0  0  0  0  2  0  0  0  0  0  0
  161.4590  212.9600  145.4220 N   0  0  0  0  0  2  0  0  0  0  0  0
  160.3810  212.5680  144.5610 C   0  0  0  0  0  0  0  0  0  0  0  0
  159.2720  212.2250  145.0580 O   0  0  0  0  0  0  0  0  0  0  0  0
  161.2080  210.4020  141.1240 F   0  0  0  0  0  0  0  0  0  0  0  0
  160.5670  212.5570  143.0970 C   0  0  0  0  0  0  0  0  0  0  0  0
  159.5710  212.9570  142.2940 C   0  0  0  0  0  3  0  0  0  0  0  0
  161.8160  211.6470  141.1000 C   0  0  2  0  0  3  0  0  0  0  0  0
  160.8310  212.0390  138.9440 O   0  0  0  0  0  1  0  0  0  0  0  0
  159.7270  213.0030  140.8300 C   0  0  0  0  0  0  0  0  0  0  0  0
  158.7820  213.4370  140.1190 O   0  0  0  0  0  0  0  0  0  0  0  0
  161.9180  212.2010  142.5240 C   0  0  0  0  0  2  0  0  0  0  0  0
  161.0370  212.6150  140.2010 C   0  0  1  0  0  3  0  0  0  0  0  0
  1  8  1  0  0  0  0
  1 11  1  0  0  0  0
  2 16  1  0  0  0  0
  2  4  1  0  0  0  0
  3  5  1  0  0  0  0
  3  9  1  0  0  0  0
  4  3  2  0  0  0  0
  6  5  1  0  0  0  0
  7 12  1  0  0  0  0
  8 13  1  0  0  0  0
  9 17  1  0  0  0  0
 10 14  1  1  0  0  0
 10 18  1  0  0  0  0
 11 15  1  0  0  0  0
 12 11  2  0  0  0  0
 13 15  2  0  0  0  0
 13  4  1  0  0  0  0
 15 10  1  0  0  0  0
 16  6  1  0  0  0  0
 17 20  1  0  0  0  0
 18  9  2  0  0  0  0
 19  7  2  0  0  0  0
 19  1  1  0  0  0  0
 20 21  1  0  0  0  0
 22 21  1  0  0  0  0
 23 24  2  0  0  0  0
 23 32  1  0  0  0  0
 25 28  1  0  0  0  0
 26 29  1  6  0  0  0
 27 23  1  0  0  0  0
 29 28  1  0  0  0  0
 30 33  1  6  0  0  0
 30 22  1  0  0  0  0
 30 25  1  0  0  0  0
 30 31  1  0  0  0  0
 31 24  1  6  0  0  0
 31 26  1  0  0  0  0
 32 26  1  0  0  0  0
 34  2  1  0  0  0  0
 35 34  1  0  0  0  0
 36 35  2  0  0  0  0
 37 35  1  0  0  0  0
 38 37  1  0  0  0  0
 39 38  1  0  0  0  0
 40 41  2  0  0  0  0
 40 39  1  0  0  0  0
 43 40  1  0  0  0  0
 44 43  2  0  0  0  0
 45 42  1  1  0  0  0
 45 49  1  0  0  0  0
 47 44  1  0  0  0  0
 48 47  2  0  0  0  0
 49 43  1  0  0  0  0
 50 46  1  6  0  0  0
 50 47  1  0  0  0  0
 50 45  1  0  0  0  0
M  END
>  <MODEL>
7

>  <REMARK>
 VINA RESULT:      -3.0      3.918      6.773
  Name = 
  10 active torsions:
  status: ('A' for Active; 'I' for Inactive)
    1  A    between atoms: N_2  and  C_43
    2  A    between atoms: C_7  and  C_18
    3  A    between atoms: C_7  and  N_32
    4  A    between atoms: C_13  and  C_39
    5  A    between atoms: C_15  and  C_31
    6  A    between atoms: C_15  and  N_33
    7  A    between atoms: C_18  and  C_23
    8  A    between atoms: C_23  and  C_43
    9  A    between atoms: C_31  and  C_38
   10  A    between atoms: N_33  and  N_46
                            x       y       z     vdW  Elec       q    Type
                         _______ _______ _______ _____ _____    ______ ____

>  <TORSDO>
F 10

$$$$
=
 OpenBabel11042422143D

 50 56  0  0  1  0  0  0  0  0999 V2000
  160.3570  204.2420  150.3760 N   0  0  0  0  0  0  0  0  0  0  0  0
  161.7450  208.1070  148.6960 N   0  0  0  0  0  0  0  0  0  0  0  0
  161.2730  208.8610  150.9590 C   0  0  0  0  0  0  0  0  0  0  0  0
  161.3370  207.8360  150.0590 C   0  0  0  0  0  0  0  0  0  0  0  0
  161.4530  210.2860  150.4910 C   0  0  0  0  0  2  0  0  0  0  0  0
  162.3330  210.3920  149.2550 C   0  0  0  0  0  2  0  0  0  0  0  0
  161.0760  202.3960  151.2810 C   0  0  0  0  0  3  0  0  0  0  0  0
  160.3780  205.4120  149.5220 C   0  0  0  0  0  2  0  0  0  0  0  0
  160.8570  208.7120  152.3850 C   0  0  0  0  0  0  0  0  0  0  0  0
  162.0620  206.6030  152.7060 C   0  0  1  0  0  3  0  0  0  0  0  0
  160.9410  204.4910  151.5260 C   0  0  0  0  0  0  0  0  0  0  0  0
  161.4230  203.3960  152.1350 N   0  0  0  0  0  0  0  0  0  0  0  0
  161.0250  206.4340  150.4400 C   0  0  0  0  0  0  0  0  0  0  0  0
  162.3760  205.7140  153.8950 C   0  0  0  0  0  1  0  0  0  0  0  0
  161.3690  205.8710  151.6020 C   0  0  0  0  0  0  0  0  0  0  0  0
  161.7630  209.4760  148.1920 C   0  0  0  0  0  2  0  0  0  0  0  0
  160.0820  209.7630  152.9720 N   0  0  0  0  0  2  0  0  0  0  0  0
  161.2240  207.7090  153.1370 N   0  0  0  0  0  0  0  0  0  0  0  0
  160.4620  202.9270  150.1460 C   0  0  0  0  0  3  0  0  0  0  0  0
  159.6480  209.7150  154.3070 N   0  0  0  0  0  2  0  0  0  0  0  0
  159.6860  211.0690  154.8340 C   0  0  0  0  0  2  0  0  0  0  0  0
  158.5070  211.2890  155.7780 C   0  0  0  0  0  2  0  0  0  0  0  0
  157.4800  213.6750  152.2900 C   0  0  0  0  0  0  0  0  0  0  0  0
  157.9150  212.6840  152.9870 N   0  0  0  0  0  0  0  0  0  0  0  0
  156.7360  212.8480  156.6190 C   0  0  0  0  0  2  0  0  0  0  0  0
  155.9120  213.5670  153.9390 C   0  0  2  0  0  3  0  0  0  0  0  0
  158.1430  214.1310  151.1160 N   0  0  0  0  0  1  0  0  0  0  0  0
  155.5260  213.6720  156.1560 C   0  0  0  0  0  2  0  0  0  0  0  0
  155.8600  214.4530  155.0350 O   0  0  0  0  0  0  0  0  0  0  0  0
  157.7400  212.5800  155.4820 C   0  0  2  0  0  0  0  0  0  0  0  0
  157.0110  212.4840  154.1140 C   0  0  2  0  0  3  0  0  0  0  0  0
  156.3290  214.2630  152.7770 O   0  0  0  0  0  0  0  0  0  0  0  0
  158.7500  213.7220  155.4880 C   0  0  0  0  0  1  0  0  0  0  0  0
  162.4650  207.0890  147.9330 C   0  0  0  0  0  2  0  0  0  0  0  0
  161.6770  206.6500  146.7390 C   0  0  0  0  0  0  0  0  0  0  0  0
  160.4590  206.6330  146.7840 O   0  0  0  0  0  0  0  0  0  0  0  0
  162.3950  206.2410  145.4980 C   0  0  0  0  0  2  0  0  0  0  0  0
  161.5160  205.3410  144.6460 C   0  0  0  0  0  2  0  0  0  0  0  0
  161.6100  203.9660  145.1160 N   0  0  0  0  0  2  0  0  0  0  0  0
  160.5390  203.0190  145.0050 C   0  0  0  0  0  0  0  0  0  0  0  0
  159.4750  203.3390  144.4050 O   0  0  0  0  0  0  0  0  0  0  0  0
  162.0700  199.1760  144.7280 F   0  0  0  0  0  0  0  0  0  0  0  0
  160.6740  201.6740  145.5980 C   0  0  0  0  0  0  0  0  0  0  0  0
  161.2340  201.5320  146.8090 C   0  0  0  0  0  3  0  0  0  0  0  0
  160.7860  199.1760  145.2490 C   0  0  2  0  0  3  0  0  0  0  0  0
  161.5810  197.8640  147.0970 O   0  0  0  0  0  1  0  0  0  0  0  0
  161.3520  200.2150  147.4570 C   0  0  0  0  0  0  0  0  0  0  0  0
  161.8360  200.1350  148.6170 O   0  0  0  0  0  0  0  0  0  0  0  0
  160.0790  200.4850  144.8840 C   0  0  0  0  0  2  0  0  0  0  0  0
  160.8170  198.9870  146.7700 C   0  0  1  0  0  3  0  0  0  0  0  0
  1 11  1  0  0  0  0
  2  4  1  0  0  0  0
  3  9  1  0  0  0  0
  4 13  1  0  0  0  0
  4  3  2  0  0  0  0
  5  3  1  0  0  0  0
  6  5  1  0  0  0  0
  7 12  1  0  0  0  0
  8  1  1  0  0  0  0
  8 13  1  0  0  0  0
  9 17  1  0  0  0  0
  9 18  2  0  0  0  0
 10 18  1  0  0  0  0
 10 14  1  1  0  0  0
 11 15  1  0  0  0  0
 11 12  2  0  0  0  0
 13 15  2  0  0  0  0
 15 10  1  0  0  0  0
 16  2  1  0  0  0  0
 16  6  1  0  0  0  0
 17 20  1  0  0  0  0
 19  1  1  0  0  0  0
 19  7  2  0  0  0  0
 20 21  1  0  0  0  0
 21 22  1  0  0  0  0
 23 32  1  0  0  0  0
 23 24  2  0  0  0  0
 26 32  1  6  0  0  0
 26 31  1  0  0  0  0
 26 29  1  0  0  0  0
 27 23  1  0  0  0  0
 28 25  1  0  0  0  0
 29 28  1  0  0  0  0
 30 33  1  6  0  0  0
 30 22  1  0  0  0  0
 30 25  1  0  0  0  0
 31 24  1  6  0  0  0
 31 30  1  0  0  0  0
 34  2  1  0  0  0  0
 35 36  2  0  0  0  0
 35 34  1  0  0  0  0
 37 35  1  0  0  0  0
 38 39  1  0  0  0  0
 38 37  1  0  0  0  0
 40 39  1  0  0  0  0
 40 43  1  0  0  0  0
 41 40  2  0  0  0  0
 43 44  2  0  0  0  0
 44 47  1  0  0  0  0
 45 42  1  1  0  0  0
 45 50  1  0  0  0  0
 47 48  2  0  0  0  0
 49 45  1  0  0  0  0
 49 43  1  0  0  0  0
 50 46  1  6  0  0  0
 50 47  1  0  0  0  0
M  END
>  <MODEL>
8

>  <REMARK>
 VINA RESULT:      -3.0      2.141      4.929
  Name = 
  10 active torsions:
  status: ('A' for Active; 'I' for Inactive)
    1  A    between atoms: N_2  and  C_43
    2  A    between atoms: C_7  and  C_18
    3  A    between atoms: C_7  and  N_32
    4  A    between atoms: C_13  and  C_39
    5  A    between atoms: C_15  and  C_31
    6  A    between atoms: C_15  and  N_33
    7  A    between atoms: C_18  and  C_23
    8  A    between atoms: C_23  and  C_43
    9  A    between atoms: C_31  and  C_38
   10  A    between atoms: N_33  and  N_46
                            x       y       z     vdW  Elec       q    Type
                         _______ _______ _______ _____ _____    ______ ____

>  <TORSDO>
F 10

$$$$
=
 OpenBabel11042422143D

 50 56  0  0  1  0  0  0  0  0999 V2000
  160.1670  204.2570  150.5410 N   0  0  0  0  0  0  0  0  0  0  0  0
  161.5590  207.9030  148.4310 N   0  0  0  0  0  0  0  0  0  0  0  0
  161.5010  208.8070  150.6870 C   0  0  0  0  0  0  0  0  0  0  0  0
  161.3490  207.7370  149.8530 C   0  0  0  0  0  0  0  0  0  0  0  0
  161.7120  210.1870  150.1080 C   0  0  0  0  0  2  0  0  0  0  0  0
  162.3940  210.1570  148.7500 C   0  0  0  0  0  2  0  0  0  0  0  0
  160.8790  202.4060  151.4410 C   0  0  0  0  0  3  0  0  0  0  0  0
  160.1420  205.3760  149.6210 C   0  0  0  0  0  2  0  0  0  0  0  0
  161.3030  208.7660  152.1660 C   0  0  0  0  0  0  0  0  0  0  0  0
  162.3840  206.5830  152.4330 C   0  0  1  0  0  3  0  0  0  0  0  0
  160.9400  204.5140  151.5700 C   0  0  0  0  0  0  0  0  0  0  0  0
  161.4280  203.4150  152.1670 N   0  0  0  0  0  0  0  0  0  0  0  0
  160.9980  206.3860  150.3650 C   0  0  0  0  0  0  0  0  0  0  0  0
  162.8120  205.7320  153.6150 C   0  0  0  0  0  1  0  0  0  0  0  0
  161.4750  205.8560  151.4950 C   0  0  0  0  0  0  0  0  0  0  0  0
  161.5990  209.2390  147.8450 C   0  0  0  0  0  2  0  0  0  0  0  0
  160.7080  209.9060  152.7970 N   0  0  0  0  0  2  0  0  0  0  0  0
  161.7070  207.7750  152.9150 N   0  0  0  0  0  0  0  0  0  0  0  0
  160.1370  202.9270  150.3800 C   0  0  0  0  0  3  0  0  0  0  0  0
  160.4850  209.9610  154.1820 N   0  0  0  0  0  2  0  0  0  0  0  0
  161.0250  211.2210  154.6670 C   0  0  0  0  0  2  0  0  0  0  0  0
  160.4490  211.5320  156.0460 C   0  0  0  0  0  2  0  0  0  0  0  0
  156.1490  211.0770  155.5800 C   0  0  0  0  0  0  0  0  0  0  0  0
  157.3830  210.7560  155.7590 N   0  0  0  0  0  0  0  0  0  0  0  0
  159.5360  213.7720  156.6960 C   0  0  0  0  0  2  0  0  0  0  0  0
  156.8460  212.7410  156.9710 C   0  0  2  0  0  3  0  0  0  0  0  0
  155.2720  210.3090  154.7640 N   0  0  0  0  0  1  0  0  0  0  0  0
  158.2810  214.4530  157.2610 C   0  0  0  0  0  2  0  0  0  0  0  0
  157.1380  214.0530  156.5450 O   0  0  0  0  0  0  0  0  0  0  0  0
  159.2190  212.4420  155.9870 C   0  0  2  0  0  0  0  0  0  0  0  0
  157.9920  211.7480  156.6370 C   0  0  2  0  0  3  0  0  0  0  0  0
  155.7510  212.2280  156.2330 O   0  0  0  0  0  0  0  0  0  0  0  0
  158.9580  212.7590  154.5190 C   0  0  0  0  0  1  0  0  0  0  0  0
  162.0740  206.7920  147.6330 C   0  0  0  0  0  2  0  0  0  0  0  0
  161.1800  206.5010  146.4690 C   0  0  0  0  0  0  0  0  0  0  0  0
  160.0190  206.1810  146.6560 O   0  0  0  0  0  0  0  0  0  0  0  0
  161.7210  206.6130  145.0840 C   0  0  0  0  0  2  0  0  0  0  0  0
  161.2040  205.4770  144.2170 C   0  0  0  0  0  2  0  0  0  0  0  0
  161.5110  204.1970  144.8390 N   0  0  0  0  0  2  0  0  0  0  0  0
  160.5420  203.1570  145.0230 C   0  0  0  0  0  0  0  0  0  0  0  0
  159.3740  203.2950  144.5630 O   0  0  0  0  0  0  0  0  0  0  0  0
  159.9110  200.6740  148.2840 F   0  0  0  0  0  0  0  0  0  0  0  0
  160.9050  201.9280  145.7560 C   0  0  0  0  0  0  0  0  0  0  0  0
  160.7940  200.7340  145.1540 C   0  0  0  0  0  3  0  0  0  0  0  0
  161.2580  200.7780  147.9760 C   0  0  2  0  0  3  0  0  0  0  0  0
  161.3920  198.3800  147.9390 O   0  0  0  0  0  1  0  0  0  0  0  0
  161.1840  199.4860  145.8310 C   0  0  0  0  0  0  0  0  0  0  0  0
  161.1150  198.3940  145.2090 O   0  0  0  0  0  0  0  0  0  0  0  0
  161.5020  202.0370  147.1380 C   0  0  0  0  0  2  0  0  0  0  0  0
  161.7430  199.5320  147.2280 C   0  0  1  0  0  3  0  0  0  0  0  0
  1 11  1  0  0  0  0
  2  4  1  0  0  0  0
  3  9  1  0  0  0  0
  4 13  1  0  0  0  0
  4  3  2  0  0  0  0
  5  3  1  0  0  0  0
  6  5  1  0  0  0  0
  7 12  1  0  0  0  0
  8 13  1  0  0  0  0
  8  1  1  0  0  0  0
  9 17  1  0  0  0  0
  9 18  2  0  0  0  0
 10 18  1  0  0  0  0
 10 14  1  1  0  0  0
 11 12  2  0  0  0  0
 13 15  2  0  0  0  0
 15 11  1  0  0  0  0
 15 10  1  0  0  0  0
 16  2  1  0  0  0  0
 16  6  1  0  0  0  0
 17 20  1  0  0  0  0
 19  1  1  0  0  0  0
 19  7  2  0  0  0  0
 20 21  1  0  0  0  0
 21 22  1  0  0  0  0
 23 24  2  0  0  0  0
 23 32  1  0  0  0  0
 25 28  1  0  0  0  0
 26 32  1  6  0  0  0
 27 23  1  0  0  0  0
 29 26  1  0  0  0  0
 29 28  1  0  0  0  0
 30 33  1  6  0  0  0
 30 22  1  0  0  0  0
 30 31  1  0  0  0  0
 30 25  1  0  0  0  0
 31 24  1  6  0  0  0
 31 26  1  0  0  0  0
 34  2  1  0  0  0  0
 35 36  2  0  0  0  0
 35 34  1  0  0  0  0
 37 35  1  0  0  0  0
 38 39  1  0  0  0  0
 38 37  1  0  0  0  0
 39 40  1  0  0  0  0
 40 43  1  0  0  0  0
 41 40  2  0  0  0  0
 43 49  1  0  0  0  0
 44 43  2  0  0  0  0
 44 47  1  0  0  0  0
 45 42  1  6  0  0  0
 47 50  1  0  0  0  0
 48 47  2  0  0  0  0
 49 45  1  0  0  0  0
 50 46  1  1  0  0  0
 50 45  1  0  0  0  0
M  END
>  <MODEL>
9

>  <REMARK>
 VINA RESULT:      -2.2      2.262      5.160
  Name = 
  10 active torsions:
  status: ('A' for Active; 'I' for Inactive)
    1  A    between atoms: N_2  and  C_43
    2  A    between atoms: C_7  and  C_18
    3  A    between atoms: C_7  and  N_32
    4  A    between atoms: C_13  and  C_39
    5  A    between atoms: C_15  and  C_31
    6  A    between atoms: C_15  and  N_33
    7  A    between atoms: C_18  and  C_23
    8  A    between atoms: C_23  and  C_43
    9  A    between atoms: C_31  and  C_38
   10  A    between atoms: N_33  and  N_46
                            x       y       z     vdW  Elec       q    Type
                         _______ _______ _______ _____ _____    ______ ____

>  <TORSDO>
F 10

$$$$
