=
 OpenBabel11052411053D

 34 37  0  0  1  0  0  0  0  0999 V2000
  162.3640  208.7900  148.5570 C   0  0  0  0  0  3  0  0  0  0  0  0
  161.3780  207.1230  152.8400 C   0  0  0  0  0  0  0  0  0  0  0  0
  161.7200  206.6260  151.5640 C   0  0  0  0  0  0  0  0  0  0  0  0
  162.2710  207.3500  149.1160 C   0  0  0  0  0  3  0  0  0  0  0  0
  161.3960  209.3390  152.0200 N   0  0  0  0  0  0  0  0  0  0  0  0
  161.2280  208.4700  153.0220 N   0  0  0  0  0  0  0  0  0  0  0  0
  161.8890  207.5590  150.5410 C   0  0  0  0  0  0  0  0  0  0  0  0
  161.1360  206.0490  154.2080 Cl  0  0  0  0  0  0  0  0  0  0  0  0
  161.7180  208.8830  150.7850 C   0  0  0  0  0  0  0  0  0  0  0  0
  161.9420  209.6780  149.6410 N   0  0  0  0  0  0  0  0  0  0  0  0
  161.8650  205.1590  151.2960 C   0  0  0  0  0  2  0  0  0  0  0  0
  160.5240  204.5190  150.9540 C   0  0  0  0  0  2  0  0  0  0  0  0
  161.2140  204.2190  148.5040 C   0  0  0  0  0  3  0  0  0  0  0  0
  160.4000  201.5750  148.6730 N   0  0  0  0  0  2  0  0  0  0  0  0
  160.6280  203.6630  149.7380 C   0  0  0  0  0  0  0  0  0  0  0  0
  160.2630  202.4160  149.7920 N   0  0  0  0  0  0  0  0  0  0  0  0
  161.3670  203.4480  147.4290 C   0  0  0  0  0  0  0  0  0  0  0  0
  160.9470  202.0750  147.4800 N   0  0  0  0  0  0  0  0  0  0  0  0
  161.9560  203.9880  146.2520 N   0  0  0  0  0  1  0  0  0  0  0  0
  160.0560  201.5430  145.2780 C   0  0  0  0  0  1  0  0  0  0  0  0
  161.0920  201.1970  146.3290 C   0  0  0  0  0  2  0  0  0  0  0  0
  162.2280  211.1050  149.7000 C   0  0  0  0  0  2  0  0  0  0  0  0
  160.9680  211.9280  149.4590 C   0  0  0  0  0  2  0  0  0  0  0  0
  160.2850  212.8140  147.2120 C   0  0  1  0  0  3  0  0  0  0  0  0
  162.6380  212.9460  147.9160 C   0  0  0  0  0  2  0  0  0  0  0  0
  159.3350  213.8360  147.1840 O   0  0  0  0  0  1  0  0  0  0  0  0
  162.6090  213.1200  146.4090 C   0  0  0  0  0  2  0  0  0  0  0  0
  160.7330  212.9300  144.8250 N   0  0  0  0  0  0  0  0  0  0  0  0
  161.1850  212.9300  146.0440 C   0  0  0  0  0  0  0  0  0  0  0  0
  161.1970  213.0110  148.4140 C   0  0  2  0  0  3  0  0  0  0  0  0
  161.5540  213.0100  143.6850 N   0  0  0  0  0  2  0  0  0  0  0  0
  161.4160  212.1450  142.5540 C   0  0  0  0  0  0  0  0  0  0  0  0
  162.3670  212.1790  141.5440 O   0  0  0  0  0  0  0  0  0  0  0  0
  160.4160  211.3860  142.4430 O   0  0  0  0  0  1  0  0  0  0  0  0
  1  4  2  0  0  0  0
  1 10  1  0  0  0  0
  2  6  1  0  0  0  0
  2  8  1  0  0  0  0
  3  2  2  0  0  0  0
  4  7  1  0  0  0  0
  5  6  2  0  0  0  0
  7  9  2  0  0  0  0
  7  3  1  0  0  0  0
  9  5  1  0  0  0  0
 10 22  1  0  0  0  0
 10  9  1  0  0  0  0
 11  3  1  0  0  0  0
 12 11  1  0  0  0  0
 13 15  1  0  0  0  0
 14 16  1  0  0  0  0
 15 16  2  0  0  0  0
 15 12  1  0  0  0  0
 17 18  1  0  0  0  0
 17 13  2  0  0  0  0
 18 14  1  0  0  0  0
 19 17  1  0  0  0  0
 20 21  1  0  0  0  0
 21 18  1  0  0  0  0
 23 22  1  0  0  0  0
 24 26  1  6  0  0  0
 24 30  1  0  0  0  0
 25 30  1  0  0  0  0
 27 25  1  0  0  0  0
 28 29  2  0  0  0  0
 29 27  1  0  0  0  0
 29 24  1  0  0  0  0
 30 23  1  1  0  0  0
 31 28  1  0  0  0  0
 32 31  1  0  0  0  0
 33 32  2  0  0  0  0
 34 32  1  0  0  0  0
M  END
>  <MODEL>
1

>  <REMARK>
 VINA RESULT:      -8.5      0.000      0.000
  Name = 
  8 active torsions:
  status: ('A' for Active; 'I' for Inactive)
    1  A    between atoms: N_3  and  N_22
    2  A    between atoms: C_7  and  C_11
    3  A    between atoms: C_11  and  C_13
    4  A    between atoms: C_12  and  C_13
    5  A    between atoms: C_18  and  C_28
    6  A    between atoms: C_18  and  N_32
    7  A    between atoms: N_27  and  C_30
    8  A    between atoms: C_28  and  C_29
                            x       y       z     vdW  Elec       q    Type
                         _______ _______ _______ _____ _____    ______ ____

>  <TORSDO>
F 8

$$$$
=
 OpenBabel11052411053D

 34 37  0  0  1  0  0  0  0  0999 V2000
  161.4330  205.6290  153.1600 C   0  0  0  0  0  3  0  0  0  0  0  0
  161.9230  209.2490  150.2020 C   0  0  0  0  0  0  0  0  0  0  0  0
  162.0740  207.8460  150.1920 C   0  0  0  0  0  0  0  0  0  0  0  0
  161.8840  205.7090  151.6820 C   0  0  0  0  0  3  0  0  0  0  0  0
  161.3330  209.2020  152.4900 N   0  0  0  0  0  0  0  0  0  0  0  0
  161.5550  209.8790  151.3590 N   0  0  0  0  0  0  0  0  0  0  0  0
  161.8340  207.1700  151.3880 C   0  0  0  0  0  0  0  0  0  0  0  0
  162.1990  210.2120  148.7600 Cl  0  0  0  0  0  0  0  0  0  0  0  0
  161.4790  207.8550  152.5030 C   0  0  0  0  0  0  0  0  0  0  0  0
  161.2640  207.0100  153.6130 N   0  0  0  0  0  0  0  0  0  0  0  0
  162.5070  207.1030  148.9640 C   0  0  0  0  0  2  0  0  0  0  0  0
  161.3410  206.8830  148.0060 C   0  0  0  0  0  2  0  0  0  0  0  0
  161.1830  204.3830  148.5480 C   0  0  0  0  0  3  0  0  0  0  0  0
  161.1280  203.8690  145.8240 N   0  0  0  0  0  2  0  0  0  0  0  0
  161.2780  205.4650  147.5500 C   0  0  0  0  0  0  0  0  0  0  0  0
  161.2400  205.1950  146.2780 N   0  0  0  0  0  0  0  0  0  0  0  0
  161.0660  203.1160  148.1520 C   0  0  0  0  0  0  0  0  0  0  0  0
  161.0440  202.8140  146.7480 N   0  0  0  0  0  0  0  0  0  0  0  0
  160.9510  202.0820  149.1230 N   0  0  0  0  0  1  0  0  0  0  0  0
  160.0160  201.4000  145.0540 C   0  0  0  0  0  1  0  0  0  0  0  0
  160.9210  201.4460  146.2700 C   0  0  0  0  0  2  0  0  0  0  0  0
  160.5000  207.4080  154.7880 C   0  0  0  0  0  2  0  0  0  0  0  0
  161.4200  207.8670  155.9120 C   0  0  0  0  0  2  0  0  0  0  0  0
  159.7250  209.7180  155.9340 C   0  0  1  0  0  3  0  0  0  0  0  0
  162.1020  210.2390  155.5720 C   0  0  0  0  0  2  0  0  0  0  0  0
  158.9720  209.8890  157.0960 O   0  0  0  0  0  1  0  0  0  0  0  0
  161.3010  211.4340  155.0910 C   0  0  0  0  0  2  0  0  0  0  0  0
  158.8660  211.7310  154.8740 N   0  0  0  0  0  0  0  0  0  0  0  0
  159.8870  211.0150  155.2420 C   0  0  0  0  0  0  0  0  0  0  0  0
  161.1420  209.3100  156.3100 C   0  0  2  0  0  3  0  0  0  0  0  0
  158.9720  212.9560  154.1900 N   0  0  0  0  0  2  0  0  0  0  0  0
  158.8900  213.0730  152.7670 C   0  0  0  0  0  0  0  0  0  0  0  0
  159.1700  214.2880  152.1610 O   0  0  0  0  0  1  0  0  0  0  0  0
  158.5200  212.0950  152.0620 O   0  0  0  0  0  0  0  0  0  0  0  0
  1 10  1  0  0  0  0
  2  6  1  0  0  0  0
  3  2  2  0  0  0  0
  3  7  1  0  0  0  0
  4  1  2  0  0  0  0
  5  9  1  0  0  0  0
  6  5  2  0  0  0  0
  7  4  1  0  0  0  0
  7  9  2  0  0  0  0
  8  2  1  0  0  0  0
  9 10  1  0  0  0  0
 10 22  1  0  0  0  0
 11  3  1  0  0  0  0
 12 11  1  0  0  0  0
 14 16  1  0  0  0  0
 14 18  1  0  0  0  0
 15 12  1  0  0  0  0
 15 13  1  0  0  0  0
 16 15  2  0  0  0  0
 17 13  2  0  0  0  0
 17 19  1  0  0  0  0
 18 17  1  0  0  0  0
 20 21  1  0  0  0  0
 21 18  1  0  0  0  0
 22 23  1  0  0  0  0
 24 30  1  0  0  0  0
 24 26  1  1  0  0  0
 25 30  1  0  0  0  0
 27 29  1  0  0  0  0
 27 25  1  0  0  0  0
 28 29  2  0  0  0  0
 29 24  1  0  0  0  0
 30 23  1  6  0  0  0
 31 28  1  0  0  0  0
 32 31  1  0  0  0  0
 33 32  1  0  0  0  0
 34 32  2  0  0  0  0
M  END
>  <MODEL>
2

>  <REMARK>
 VINA RESULT:      -8.4      4.300      6.400
  Name = 
  8 active torsions:
  status: ('A' for Active; 'I' for Inactive)
    1  A    between atoms: N_3  and  N_22
    2  A    between atoms: C_7  and  C_11
    3  A    between atoms: C_11  and  C_13
    4  A    between atoms: C_12  and  C_13
    5  A    between atoms: C_18  and  C_28
    6  A    between atoms: C_18  and  N_32
    7  A    between atoms: N_27  and  C_30
    8  A    between atoms: C_28  and  C_29
                            x       y       z     vdW  Elec       q    Type
                         _______ _______ _______ _____ _____    ______ ____

>  <TORSDO>
F 8

$$$$
=
 OpenBabel11052411053D

 34 37  0  0  1  0  0  0  0  0999 V2000
  162.2640  209.9270  151.1490 C   0  0  0  0  0  3  0  0  0  0  0  0
  160.5960  207.5740  154.8610 C   0  0  0  0  0  0  0  0  0  0  0  0
  160.7310  208.9110  154.4290 C   0  0  0  0  0  0  0  0  0  0  0  0
  161.6210  210.3990  152.4750 C   0  0  0  0  0  3  0  0  0  0  0  0
  161.6720  206.7980  152.9060 N   0  0  0  0  0  0  0  0  0  0  0  0
  161.0750  206.5600  154.0780 N   0  0  0  0  0  0  0  0  0  0  0  0
  161.3580  209.1240  153.2010 C   0  0  0  0  0  0  0  0  0  0  0  0
  159.8280  207.1770  156.3890 Cl  0  0  0  0  0  0  0  0  0  0  0  0
  161.8180  208.0740  152.4750 C   0  0  0  0  0  0  0  0  0  0  0  0
  162.4090  208.4750  151.2580 N   0  0  0  0  0  0  0  0  0  0  0  0
  160.2570  210.0650  155.2580 C   0  0  0  0  0  2  0  0  0  0  0  0
  158.7480  210.0150  155.4720 C   0  0  0  0  0  2  0  0  0  0  0  0
  158.6020  211.7580  153.6000 C   0  0  0  0  0  3  0  0  0  0  0  0
  156.3110  212.7530  154.8020 N   0  0  0  0  0  2  0  0  0  0  0  0
  158.0740  211.1940  154.8560 C   0  0  0  0  0  0  0  0  0  0  0  0
  156.9920  211.6750  155.3930 N   0  0  0  0  0  0  0  0  0  0  0  0
  157.9760  212.7750  153.0080 C   0  0  0  0  0  0  0  0  0  0  0  0
  156.7910  213.3190  153.6090 N   0  0  0  0  0  0  0  0  0  0  0  0
  158.4790  213.2960  151.7830 N   0  0  0  0  0  1  0  0  0  0  0  0
  154.6140  214.3890  153.4000 C   0  0  0  0  0  1  0  0  0  0  0  0
  156.0760  214.4310  153.0000 C   0  0  0  0  0  2  0  0  0  0  0  0
  162.6080  207.5770  150.1280 C   0  0  0  0  0  2  0  0  0  0  0  0
  161.7820  208.0170  148.9250 C   0  0  0  0  0  2  0  0  0  0  0  0
  160.9790  205.6730  149.3270 C   0  0  1  0  0  3  0  0  0  0  0  0
  161.2050  206.5120  147.0250 C   0  0  0  0  0  2  0  0  0  0  0  0
  159.8120  205.5100  150.0750 O   0  0  0  0  0  1  0  0  0  0  0  0
  161.1550  204.9970  146.9490 C   0  0  0  0  0  2  0  0  0  0  0  0
  161.1430  203.3160  148.7490 N   0  0  0  0  0  0  0  0  0  0  0  0
  161.1210  204.5580  148.3650 C   0  0  0  0  0  0  0  0  0  0  0  0
  160.8470  206.9120  148.4540 C   0  0  2  0  0  3  0  0  0  0  0  0
  161.3030  202.2270  147.8730 N   0  0  0  0  0  2  0  0  0  0  0  0
  161.3060  200.8630  148.3050 C   0  0  0  0  0  0  0  0  0  0  0  0
  161.6350  199.8600  147.4060 O   0  0  0  0  0  0  0  0  0  0  0  0
  160.9690  200.5610  149.4810 O   0  0  0  0  0  1  0  0  0  0  0  0
  1 10  1  0  0  0  0
  1  4  2  0  0  0  0
  2  8  1  0  0  0  0
  3  2  1  0  0  0  0
  3 11  1  0  0  0  0
  4  7  1  0  0  0  0
  5  6  1  0  0  0  0
  6  2  2  0  0  0  0
  7  3  2  0  0  0  0
  9  5  2  0  0  0  0
  9  7  1  0  0  0  0
 10  9  1  0  0  0  0
 11 12  1  0  0  0  0
 13 15  1  0  0  0  0
 14 16  1  0  0  0  0
 15 16  2  0  0  0  0
 15 12  1  0  0  0  0
 17 13  2  0  0  0  0
 17 18  1  0  0  0  0
 18 14  1  0  0  0  0
 19 17  1  0  0  0  0
 21 20  1  0  0  0  0
 21 18  1  0  0  0  0
 22 10  1  0  0  0  0
 23 22  1  0  0  0  0
 24 26  1  6  0  0  0
 25 30  1  0  0  0  0
 27 25  1  0  0  0  0
 27 29  1  0  0  0  0
 29 28  2  0  0  0  0
 29 24  1  0  0  0  0
 30 23  1  1  0  0  0
 30 24  1  0  0  0  0
 31 32  1  0  0  0  0
 31 28  1  0  0  0  0
 32 34  1  0  0  0  0
 33 32  2  0  0  0  0
M  END
>  <MODEL>
3

>  <REMARK>
 VINA RESULT:      -8.0      4.941      9.006
  Name = 
  8 active torsions:
  status: ('A' for Active; 'I' for Inactive)
    1  A    between atoms: N_3  and  N_22
    2  A    between atoms: C_7  and  C_11
    3  A    between atoms: C_11  and  C_13
    4  A    between atoms: C_12  and  C_13
    5  A    between atoms: C_18  and  C_28
    6  A    between atoms: C_18  and  N_32
    7  A    between atoms: N_27  and  C_30
    8  A    between atoms: C_28  and  C_29
                            x       y       z     vdW  Elec       q    Type
                         _______ _______ _______ _____ _____    ______ ____

>  <TORSDO>
F 8

$$$$
=
 OpenBabel11052411053D

 34 37  0  0  1  0  0  0  0  0999 V2000
  161.6740  208.1670  152.0280 C   0  0  0  0  0  3  0  0  0  0  0  0
  159.8820  209.8440  156.0370 C   0  0  0  0  0  0  0  0  0  0  0  0
  160.3280  210.3340  154.7900 C   0  0  0  0  0  0  0  0  0  0  0  0
  161.3510  209.6040  152.5000 C   0  0  0  0  0  3  0  0  0  0  0  0
  160.4570  207.6390  155.4150 N   0  0  0  0  0  0  0  0  0  0  0  0
  159.9640  208.5060  156.3040 N   0  0  0  0  0  0  0  0  0  0  0  0
  160.8360  209.4030  153.8850 C   0  0  0  0  0  0  0  0  0  0  0  0
  159.2250  210.9180  157.2610 Cl  0  0  0  0  0  0  0  0  0  0  0  0
  160.8970  208.0880  154.2140 C   0  0  0  0  0  0  0  0  0  0  0  0
  161.4240  207.2920  153.1750 N   0  0  0  0  0  0  0  0  0  0  0  0
  160.2960  211.7930  154.4520 C   0  0  0  0  0  2  0  0  0  0  0  0
  158.8640  212.2980  154.3000 C   0  0  0  0  0  2  0  0  0  0  0  0
  159.7160  212.8320  151.9430 C   0  0  0  0  0  3  0  0  0  0  0  0
  157.2330  213.9210  151.3690 N   0  0  0  0  0  2  0  0  0  0  0  0
  158.6410  212.8930  152.9510 C   0  0  0  0  0  0  0  0  0  0  0  0
  157.4830  213.4010  152.6510 N   0  0  0  0  0  0  0  0  0  0  0  0
  159.5090  213.3060  150.7150 C   0  0  0  0  0  0  0  0  0  0  0  0
  158.2370  213.8850  150.3870 N   0  0  0  0  0  0  0  0  0  0  0  0
  160.5440  213.2200  149.7420 N   0  0  0  0  0  1  0  0  0  0  0  0
  157.2470  213.3810  148.2210 C   0  0  0  0  0  1  0  0  0  0  0  0
  157.9670  214.4180  149.0610 C   0  0  0  0  0  2  0  0  0  0  0  0
  161.2290  205.8510  153.0900 C   0  0  0  0  0  2  0  0  0  0  0  0
  161.9100  205.2770  151.8530 C   0  0  0  0  0  2  0  0  0  0  0  0
  161.4110  203.7520  149.9230 C   0  0  1  0  0  3  0  0  0  0  0  0
  160.6540  206.0920  149.8610 C   0  0  0  0  0  2  0  0  0  0  0  0
  160.6560  202.6080  150.1840 O   0  0  0  0  0  1  0  0  0  0  0  0
  160.6230  205.5710  148.4360 C   0  0  0  0  0  2  0  0  0  0  0  0
  161.3970  203.4220  147.5130 N   0  0  0  0  0  0  0  0  0  0  0  0
  161.1830  204.2010  148.5330 C   0  0  0  0  0  0  0  0  0  0  0  0
  160.8970  204.8990  150.7810 C   0  0  2  0  0  3  0  0  0  0  0  0
  161.2200  203.8160  146.1750 N   0  0  0  0  0  2  0  0  0  0  0  0
  162.1840  204.5800  145.4450 C   0  0  0  0  0  0  0  0  0  0  0  0
  161.8630  205.0680  144.1870 O   0  0  0  0  0  0  0  0  0  0  0  0
  163.3380  204.7740  145.9130 O   0  0  0  0  0  1  0  0  0  0  0  0
  1  4  2  0  0  0  0
  1 10  1  0  0  0  0
  2  6  1  0  0  0  0
  2  8  1  0  0  0  0
  3  2  2  0  0  0  0
  4  7  1  0  0  0  0
  5  6  2  0  0  0  0
  7  9  2  0  0  0  0
  7  3  1  0  0  0  0
  9  5  1  0  0  0  0
 10  9  1  0  0  0  0
 11  3  1  0  0  0  0
 12 11  1  0  0  0  0
 13 15  1  0  0  0  0
 14 16  1  0  0  0  0
 15 12  1  0  0  0  0
 16 15  2  0  0  0  0
 17 13  2  0  0  0  0
 18 17  1  0  0  0  0
 18 14  1  0  0  0  0
 19 17  1  0  0  0  0
 20 21  1  0  0  0  0
 21 18  1  0  0  0  0
 22 10  1  0  0  0  0
 23 22  1  0  0  0  0
 24 26  1  1  0  0  0
 24 30  1  0  0  0  0
 25 30  1  0  0  0  0
 27 29  1  0  0  0  0
 27 25  1  0  0  0  0
 28 29  2  0  0  0  0
 29 24  1  0  0  0  0
 30 23  1  1  0  0  0
 31 28  1  0  0  0  0
 32 34  1  0  0  0  0
 32 31  1  0  0  0  0
 33 32  2  0  0  0  0
M  END
>  <MODEL>
4

>  <REMARK>
 VINA RESULT:      -7.9      4.184      8.570
  Name = 
  8 active torsions:
  status: ('A' for Active; 'I' for Inactive)
    1  A    between atoms: N_3  and  N_22
    2  A    between atoms: C_7  and  C_11
    3  A    between atoms: C_11  and  C_13
    4  A    between atoms: C_12  and  C_13
    5  A    between atoms: C_18  and  C_28
    6  A    between atoms: C_18  and  N_32
    7  A    between atoms: N_27  and  C_30
    8  A    between atoms: C_28  and  C_29
                            x       y       z     vdW  Elec       q    Type
                         _______ _______ _______ _____ _____    ______ ____

>  <TORSDO>
F 8

$$$$
=
 OpenBabel11052411053D

 34 37  0  0  1  0  0  0  0  0999 V2000
  161.3240  205.8530  153.9270 C   0  0  0  0  0  3  0  0  0  0  0  0
  160.6360  210.4530  153.2540 C   0  0  0  0  0  0  0  0  0  0  0  0
  160.6870  209.5370  154.3260 C   0  0  0  0  0  0  0  0  0  0  0  0
  161.0220  207.0120  154.9060 C   0  0  0  0  0  3  0  0  0  0  0  0
  160.9850  208.7080  151.7000 N   0  0  0  0  0  0  0  0  0  0  0  0
  160.7880  210.0020  151.9720 N   0  0  0  0  0  0  0  0  0  0  0  0
  160.8950  208.1950  154.0070 C   0  0  0  0  0  0  0  0  0  0  0  0
  160.3770  212.1680  153.5260 Cl  0  0  0  0  0  0  0  0  0  0  0  0
  161.0320  207.8100  152.7140 C   0  0  0  0  0  0  0  0  0  0  0  0
  161.2480  206.4220  152.5810 N   0  0  0  0  0  0  0  0  0  0  0  0
  160.4940  209.9660  155.7490 C   0  0  0  0  0  2  0  0  0  0  0  0
  159.0540  209.7510  156.2050 C   0  0  0  0  0  2  0  0  0  0  0  0
  157.1130  211.0070  155.0990 C   0  0  0  0  0  3  0  0  0  0  0  0
  157.7190  213.1970  156.6860 N   0  0  0  0  0  2  0  0  0  0  0  0
  158.2450  210.9940  156.0440 C   0  0  0  0  0  0  0  0  0  0  0  0
  158.5010  212.0320  156.7830 N   0  0  0  0  0  0  0  0  0  0  0  0
  156.3460  212.0910  154.9890 C   0  0  0  0  0  0  0  0  0  0  0  0
  156.6380  213.2460  155.7900 N   0  0  0  0  0  0  0  0  0  0  0  0
  155.2410  212.0850  154.0920 N   0  0  0  0  0  1  0  0  0  0  0  0
  154.5900  214.3110  156.5610 C   0  0  0  0  0  1  0  0  0  0  0  0
  155.8300  214.4530  155.7020 C   0  0  0  0  0  2  0  0  0  0  0  0
  161.8220  205.8100  151.3900 C   0  0  0  0  0  2  0  0  0  0  0  0
  161.1420  204.4830  151.0730 C   0  0  0  0  0  2  0  0  0  0  0  0
  161.3640  203.6940  148.7000 C   0  0  1  0  0  3  0  0  0  0  0  0
  160.4370  205.9250  149.1660 C   0  0  0  0  0  2  0  0  0  0  0  0
  160.6790  202.5340  148.3400 O   0  0  0  0  0  1  0  0  0  0  0  0
  160.8640  205.9100  147.7110 C   0  0  0  0  0  2  0  0  0  0  0  0
  162.0700  204.1900  146.4260 N   0  0  0  0  0  0  0  0  0  0  0  0
  161.5010  204.5840  147.5270 C   0  0  0  0  0  0  0  0  0  0  0  0
  160.5190  204.4910  149.6840 C   0  0  2  0  0  3  0  0  0  0  0  0
  162.2460  205.0100  145.2970 N   0  0  0  0  0  2  0  0  0  0  0  0
  161.3050  205.0800  144.2220 C   0  0  0  0  0  0  0  0  0  0  0  0
  161.6290  205.7840  143.0710 O   0  0  0  0  0  0  0  0  0  0  0  0
  160.1670  204.5490  144.3280 O   0  0  0  0  0  1  0  0  0  0  0  0
  1  4  2  0  0  0  0
  2  8  1  0  0  0  0
  2  3  1  0  0  0  0
  3 11  1  0  0  0  0
  5  6  1  0  0  0  0
  5  9  2  0  0  0  0
  6  2  2  0  0  0  0
  7  3  2  0  0  0  0
  7  4  1  0  0  0  0
  9  7  1  0  0  0  0
 10  9  1  0  0  0  0
 10  1  1  0  0  0  0
 11 12  1  0  0  0  0
 13 15  1  0  0  0  0
 14 16  1  0  0  0  0
 15 12  1  0  0  0  0
 15 16  2  0  0  0  0
 17 13  2  0  0  0  0
 17 18  1  0  0  0  0
 18 14  1  0  0  0  0
 19 17  1  0  0  0  0
 21 18  1  0  0  0  0
 21 20  1  0  0  0  0
 22 10  1  0  0  0  0
 23 22  1  0  0  0  0
 24 26  1  6  0  0  0
 24 30  1  0  0  0  0
 25 30  1  0  0  0  0
 27 25  1  0  0  0  0
 28 29  2  0  0  0  0
 29 27  1  0  0  0  0
 29 24  1  0  0  0  0
 30 23  1  1  0  0  0
 31 28  1  0  0  0  0
 32 34  1  0  0  0  0
 32 31  1  0  0  0  0
 33 32  2  0  0  0  0
M  END
>  <MODEL>
5

>  <REMARK>
 VINA RESULT:      -7.8      4.893      9.165
  Name = 
  8 active torsions:
  status: ('A' for Active; 'I' for Inactive)
    1  A    between atoms: N_3  and  N_22
    2  A    between atoms: C_7  and  C_11
    3  A    between atoms: C_11  and  C_13
    4  A    between atoms: C_12  and  C_13
    5  A    between atoms: C_18  and  C_28
    6  A    between atoms: C_18  and  N_32
    7  A    between atoms: N_27  and  C_30
    8  A    between atoms: C_28  and  C_29
                            x       y       z     vdW  Elec       q    Type
                         _______ _______ _______ _____ _____    ______ ____

>  <TORSDO>
F 8

$$$$
=
 OpenBabel11052411053D

 34 37  0  0  1  0  0  0  0  0999 V2000
  160.9730  207.2630  154.5360 C   0  0  0  0  0  3  0  0  0  0  0  0
  161.6230  208.3230  150.0030 C   0  0  0  0  0  0  0  0  0  0  0  0
  161.0710  207.2800  150.7770 C   0  0  0  0  0  0  0  0  0  0  0  0
  160.6390  206.5000  153.2320 C   0  0  0  0  0  3  0  0  0  0  0  0
  162.2580  209.4850  151.9590 N   0  0  0  0  0  0  0  0  0  0  0  0
  162.2000  209.3940  150.6270 N   0  0  0  0  0  0  0  0  0  0  0  0
  161.1470  207.4070  152.1640 C   0  0  0  0  0  0  0  0  0  0  0  0
  161.5910  208.2770  148.2480 Cl  0  0  0  0  0  0  0  0  0  0  0  0
  161.7400  208.4920  152.7220 C   0  0  0  0  0  0  0  0  0  0  0  0
  161.7140  208.4600  154.1320 N   0  0  0  0  0  0  0  0  0  0  0  0
  160.4550  206.0650  150.1510 C   0  0  0  0  0  2  0  0  0  0  0  0
  161.4070  204.8740  150.1920 C   0  0  0  0  0  2  0  0  0  0  0  0
  161.6340  204.4470  147.6750 C   0  0  0  0  0  3  0  0  0  0  0  0
  160.5860  201.9130  148.0840 N   0  0  0  0  0  2  0  0  0  0  0  0
  161.2120  203.9850  149.0110 C   0  0  0  0  0  0  0  0  0  0  0  0
  160.7320  202.7880  149.1750 N   0  0  0  0  0  0  0  0  0  0  0  0
  161.5200  203.6390  146.6210 C   0  0  0  0  0  0  0  0  0  0  0  0
  160.9720  202.3230  146.7970 N   0  0  0  0  0  0  0  0  0  0  0  0
  161.9530  204.0850  145.3410 N   0  0  0  0  0  1  0  0  0  0  0  0
  159.4540  201.5730  145.0480 C   0  0  0  0  0  1  0  0  0  0  0  0
  160.8250  201.4090  145.6740 C   0  0  0  0  0  2  0  0  0  0  0  0
  161.8960  209.6400  154.9660 C   0  0  0  0  0  2  0  0  0  0  0  0
  160.5540  210.2270  155.3880 C   0  0  0  0  0  2  0  0  0  0  0  0
  159.3580  212.4310  155.4890 C   0  0  1  0  0  3  0  0  0  0  0  0
  159.5260  211.2280  153.3500 C   0  0  0  0  0  2  0  0  0  0  0  0
  160.0890  213.5420  155.9140 O   0  0  0  0  0  1  0  0  0  0  0  0
  158.4070  212.2410  153.2100 C   0  0  0  0  0  2  0  0  0  0  0  0
  157.3960  213.7350  154.8870 N   0  0  0  0  0  0  0  0  0  0  0  0
  158.2930  212.8550  154.5550 C   0  0  0  0  0  0  0  0  0  0  0  0
  160.2560  211.5280  154.6570 C   0  0  2  0  0  3  0  0  0  0  0  0
  156.3510  214.1470  154.0400 N   0  0  0  0  0  2  0  0  0  0  0  0
  154.9780  214.1800  154.4430 C   0  0  0  0  0  0  0  0  0  0  0  0
  153.9930  214.4380  153.5020 O   0  0  0  0  0  0  0  0  0  0  0  0
  154.6600  214.0230  155.6520 O   0  0  0  0  0  1  0  0  0  0  0  0
  2  6  2  0  0  0  0
  2  3  1  0  0  0  0
  3  7  2  0  0  0  0
  4  1  2  0  0  0  0
  5  9  2  0  0  0  0
  6  5  1  0  0  0  0
  7  9  1  0  0  0  0
  7  4  1  0  0  0  0
  8  2  1  0  0  0  0
  9 10  1  0  0  0  0
 10  1  1  0  0  0  0
 10 22  1  0  0  0  0
 11 12  1  0  0  0  0
 11  3  1  0  0  0  0
 13 15  1  0  0  0  0
 14 16  1  0  0  0  0
 15 16  2  0  0  0  0
 15 12  1  0  0  0  0
 17 18  1  0  0  0  0
 17 13  2  0  0  0  0
 18 14  1  0  0  0  0
 19 17  1  0  0  0  0
 20 21  1  0  0  0  0
 21 18  1  0  0  0  0
 22 23  1  0  0  0  0
 24 26  1  6  0  0  0
 25 30  1  0  0  0  0
 27 25  1  0  0  0  0
 27 29  1  0  0  0  0
 29 28  2  0  0  0  0
 29 24  1  0  0  0  0
 30 23  1  1  0  0  0
 30 24  1  0  0  0  0
 31 32  1  0  0  0  0
 31 28  1  0  0  0  0
 32 34  1  0  0  0  0
 33 32  2  0  0  0  0
M  END
>  <MODEL>
6

>  <REMARK>
 VINA RESULT:      -7.7      5.069      6.583
  Name = 
  8 active torsions:
  status: ('A' for Active; 'I' for Inactive)
    1  A    between atoms: N_3  and  N_22
    2  A    between atoms: C_7  and  C_11
    3  A    between atoms: C_11  and  C_13
    4  A    between atoms: C_12  and  C_13
    5  A    between atoms: C_18  and  C_28
    6  A    between atoms: C_18  and  N_32
    7  A    between atoms: N_27  and  C_30
    8  A    between atoms: C_28  and  C_29
                            x       y       z     vdW  Elec       q    Type
                         _______ _______ _______ _____ _____    ______ ____

>  <TORSDO>
F 8

$$$$
=
 OpenBabel11052411053D

 34 37  0  0  1  0  0  0  0  0999 V2000
  160.4390  207.5030  155.6670 C   0  0  0  0  0  3  0  0  0  0  0  0
  161.8540  208.6020  151.3210 C   0  0  0  0  0  0  0  0  0  0  0  0
  161.6020  207.4460  152.0920 C   0  0  0  0  0  0  0  0  0  0  0  0
  160.8550  206.6310  154.4580 C   0  0  0  0  0  3  0  0  0  0  0  0
  161.3370  209.9860  153.1650 N   0  0  0  0  0  0  0  0  0  0  0  0
  161.7110  209.8370  151.8910 N   0  0  0  0  0  0  0  0  0  0  0  0
  161.2120  207.6370  153.4170 C   0  0  0  0  0  0  0  0  0  0  0  0
  162.3520  208.4920  149.6420 Cl  0  0  0  0  0  0  0  0  0  0  0  0
  161.0960  208.8890  153.9250 C   0  0  0  0  0  0  0  0  0  0  0  0
  160.6800  208.8920  155.2730 N   0  0  0  0  0  0  0  0  0  0  0  0
  161.7730  206.0660  151.5330 C   0  0  0  0  0  2  0  0  0  0  0  0
  160.4710  205.5400  150.9390 C   0  0  0  0  0  2  0  0  0  0  0  0
  160.8020  205.7950  148.4100 C   0  0  0  0  0  3  0  0  0  0  0  0
  161.1330  203.0470  148.2490 N   0  0  0  0  0  2  0  0  0  0  0  0
  160.6980  204.9270  149.5980 C   0  0  0  0  0  0  0  0  0  0  0  0
  160.8670  203.6420  149.4950 N   0  0  0  0  0  0  0  0  0  0  0  0
  161.0630  205.2650  147.2160 C   0  0  0  0  0  0  0  0  0  0  0  0
  161.2310  203.8440  147.0960 N   0  0  0  0  0  0  0  0  0  0  0  0
  161.1870  206.1130  146.0800 N   0  0  0  0  0  1  0  0  0  0  0  0
  160.4680  202.1680  145.5030 C   0  0  0  0  0  1  0  0  0  0  0  0
  161.5150  203.2210  145.8110 C   0  0  0  0  0  2  0  0  0  0  0  0
  160.0920  210.0510  155.9300 C   0  0  0  0  0  2  0  0  0  0  0  0
  158.6990  210.3430  155.3840 C   0  0  0  0  0  2  0  0  0  0  0  0
  157.3210  212.0290  154.1360 C   0  0  1  0  0  3  0  0  0  0  0  0
  159.7620  212.3000  154.2660 C   0  0  0  0  0  2  0  0  0  0  0  0
  156.3370  212.7140  154.8500 O   0  0  0  0  0  1  0  0  0  0  0  0
  159.2740  213.1610  153.1170 C   0  0  0  0  0  2  0  0  0  0  0  0
  157.0300  213.3610  152.1220 N   0  0  0  0  0  0  0  0  0  0  0  0
  157.8220  212.8740  153.0310 C   0  0  0  0  0  0  0  0  0  0  0  0
  158.5330  211.8140  155.0300 C   0  0  2  0  0  3  0  0  0  0  0  0
  157.4670  214.1460  151.0400 N   0  0  0  0  0  2  0  0  0  0  0  0
  157.5110  213.6720  149.6910 C   0  0  0  0  0  0  0  0  0  0  0  0
  158.1090  214.4490  148.7090 O   0  0  0  0  0  0  0  0  0  0  0  0
  156.9710  212.5770  149.3760 O   0  0  0  0  0  1  0  0  0  0  0  0
  2  6  2  0  0  0  0
  2  3  1  0  0  0  0
  3  7  2  0  0  0  0
  4  1  2  0  0  0  0
  5  9  2  0  0  0  0
  6  5  1  0  0  0  0
  7  9  1  0  0  0  0
  7  4  1  0  0  0  0
  8  2  1  0  0  0  0
  9 10  1  0  0  0  0
 10  1  1  0  0  0  0
 10 22  1  0  0  0  0
 11  3  1  0  0  0  0
 12 11  1  0  0  0  0
 13 15  1  0  0  0  0
 14 16  1  0  0  0  0
 15 12  1  0  0  0  0
 16 15  2  0  0  0  0
 17 13  2  0  0  0  0
 18 17  1  0  0  0  0
 18 14  1  0  0  0  0
 19 17  1  0  0  0  0
 20 21  1  0  0  0  0
 21 18  1  0  0  0  0
 23 22  1  0  0  0  0
 24 26  1  1  0  0  0
 24 30  1  0  0  0  0
 25 30  1  0  0  0  0
 27 25  1  0  0  0  0
 28 29  2  0  0  0  0
 29 27  1  0  0  0  0
 29 24  1  0  0  0  0
 30 23  1  6  0  0  0
 31 28  1  0  0  0  0
 32 31  1  0  0  0  0
 33 32  2  0  0  0  0
 34 32  1  0  0  0  0
M  END
>  <MODEL>
7

>  <REMARK>
 VINA RESULT:      -7.7      3.920      5.374
  Name = 
  8 active torsions:
  status: ('A' for Active; 'I' for Inactive)
    1  A    between atoms: N_3  and  N_22
    2  A    between atoms: C_7  and  C_11
    3  A    between atoms: C_11  and  C_13
    4  A    between atoms: C_12  and  C_13
    5  A    between atoms: C_18  and  C_28
    6  A    between atoms: C_18  and  N_32
    7  A    between atoms: N_27  and  C_30
    8  A    between atoms: C_28  and  C_29
                            x       y       z     vdW  Elec       q    Type
                         _______ _______ _______ _____ _____    ______ ____

>  <TORSDO>
F 8

$$$$
=
 OpenBabel11052411053D

 34 37  0  0  1  0  0  0  0  0999 V2000
  161.2300  206.9920  151.2880 C   0  0  0  0  0  3  0  0  0  0  0  0
  160.8370  209.2480  155.3920 C   0  0  0  0  0  0  0  0  0  0  0  0
  160.8660  209.5540  154.0150 C   0  0  0  0  0  0  0  0  0  0  0  0
  161.0930  208.4920  151.6390 C   0  0  0  0  0  3  0  0  0  0  0  0
  161.1560  206.9550  154.9240 N   0  0  0  0  0  0  0  0  0  0  0  0
  160.9840  207.9510  155.7980 N   0  0  0  0  0  0  0  0  0  0  0  0
  161.0460  208.4920  153.1290 C   0  0  0  0  0  0  0  0  0  0  0  0
  160.6180  210.4990  156.6050 Cl  0  0  0  0  0  0  0  0  0  0  0  0
  161.1930  207.2270  153.5970 C   0  0  0  0  0  0  0  0  0  0  0  0
  161.3510  206.2810  152.5620 N   0  0  0  0  0  0  0  0  0  0  0  0
  160.7430  210.9610  153.5110 C   0  0  0  0  0  2  0  0  0  0  0  0
  159.2830  211.3660  153.3400 C   0  0  0  0  0  2  0  0  0  0  0  0
  160.2490  212.4950  151.2520 C   0  0  0  0  0  3  0  0  0  0  0  0
  157.6940  213.3740  150.6330 N   0  0  0  0  0  2  0  0  0  0  0  0
  159.0940  212.2070  152.1230 C   0  0  0  0  0  0  0  0  0  0  0  0
  157.9050  212.6240  151.8030 N   0  0  0  0  0  0  0  0  0  0  0  0
  160.0830  213.1950  150.1300 C   0  0  0  0  0  0  0  0  0  0  0  0
  158.7740  213.6730  149.7840 N   0  0  0  0  0  0  0  0  0  0  0  0
  161.1990  213.4460  149.2840 N   0  0  0  0  0  1  0  0  0  0  0  0
  157.4970  213.7630  147.7140 C   0  0  0  0  0  1  0  0  0  0  0  0
  158.5450  214.4430  148.5710 C   0  0  0  0  0  2  0  0  0  0  0  0
  161.1210  204.8540  152.7370 C   0  0  0  0  0  2  0  0  0  0  0  0
  160.3750  204.2670  151.5450 C   0  0  0  0  0  2  0  0  0  0  0  0
  161.0090  203.9910  149.1320 C   0  0  1  0  0  3  0  0  0  0  0  0
  161.1760  202.0770  150.6680 C   0  0  0  0  0  2  0  0  0  0  0  0
  162.0390  204.7950  148.6400 O   0  0  0  0  0  1  0  0  0  0  0  0
  161.1750  201.5220  149.2560 C   0  0  0  0  0  2  0  0  0  0  0  0
  160.8390  202.6660  147.1000 N   0  0  0  0  0  0  0  0  0  0  0  0
  160.9710  202.7110  148.3930 C   0  0  0  0  0  0  0  0  0  0  0  0
  161.3260  203.5920  150.5660 C   0  0  2  0  0  3  0  0  0  0  0  0
  160.7720  201.4720  146.3600 N   0  0  0  0  0  2  0  0  0  0  0  0
  160.0940  201.3610  145.1050 C   0  0  0  0  0  0  0  0  0  0  0  0
  159.9320  200.1130  144.5210 O   0  0  0  0  0  1  0  0  0  0  0  0
  159.6860  202.3900  144.5020 O   0  0  0  0  0  0  0  0  0  0  0  0
  1  4  2  0  0  0  0
  1 10  1  0  0  0  0
  2  6  1  0  0  0  0
  2  8  1  0  0  0  0
  3  2  2  0  0  0  0
  4  7  1  0  0  0  0
  5  6  2  0  0  0  0
  7  9  2  0  0  0  0
  7  3  1  0  0  0  0
  9  5  1  0  0  0  0
 10 22  1  0  0  0  0
 10  9  1  0  0  0  0
 11  3  1  0  0  0  0
 12 11  1  0  0  0  0
 13 15  1  0  0  0  0
 14 16  1  0  0  0  0
 15 12  1  0  0  0  0
 16 15  2  0  0  0  0
 17 13  2  0  0  0  0
 18 17  1  0  0  0  0
 18 14  1  0  0  0  0
 19 17  1  0  0  0  0
 20 21  1  0  0  0  0
 21 18  1  0  0  0  0
 23 22  1  0  0  0  0
 24 26  1  6  0  0  0
 24 30  1  0  0  0  0
 27 25  1  0  0  0  0
 28 29  2  0  0  0  0
 29 24  1  0  0  0  0
 29 27  1  0  0  0  0
 30 25  1  0  0  0  0
 30 23  1  1  0  0  0
 31 28  1  0  0  0  0
 32 31  1  0  0  0  0
 33 32  1  0  0  0  0
 34 32  2  0  0  0  0
M  END
>  <MODEL>
8

>  <REMARK>
 VINA RESULT:      -7.6      4.015      8.964
  Name = 
  8 active torsions:
  status: ('A' for Active; 'I' for Inactive)
    1  A    between atoms: N_3  and  N_22
    2  A    between atoms: C_7  and  C_11
    3  A    between atoms: C_11  and  C_13
    4  A    between atoms: C_12  and  C_13
    5  A    between atoms: C_18  and  C_28
    6  A    between atoms: C_18  and  N_32
    7  A    between atoms: N_27  and  C_30
    8  A    between atoms: C_28  and  C_29
                            x       y       z     vdW  Elec       q    Type
                         _______ _______ _______ _____ _____    ______ ____

>  <TORSDO>
F 8

$$$$
=
 OpenBabel11052411053D

 34 37  0  0  1  0  0  0  0  0999 V2000
  162.1150  207.7260  150.7930 C   0  0  0  0  0  3  0  0  0  0  0  0
  160.4880  208.6740  155.1000 C   0  0  0  0  0  0  0  0  0  0  0  0
  160.7430  209.3560  153.8910 C   0  0  0  0  0  0  0  0  0  0  0  0
  161.6400  209.0390  151.4580 C   0  0  0  0  0  3  0  0  0  0  0  0
  161.3040  206.6590  154.1740 N   0  0  0  0  0  0  0  0  0  0  0  0
  160.7800  207.3410  155.1970 N   0  0  0  0  0  0  0  0  0  0  0  0
  161.2900  208.6150  152.8440 C   0  0  0  0  0  0  0  0  0  0  0  0
  159.8040  209.4980  156.4910 Cl  0  0  0  0  0  0  0  0  0  0  0  0
  161.5630  207.2960  153.0060 C   0  0  0  0  0  0  0  0  0  0  0  0
  162.0970  206.7050  151.8420 N   0  0  0  0  0  0  0  0  0  0  0  0
  160.4760  210.8230  153.7350 C   0  0  0  0  0  2  0  0  0  0  0  0
  159.1480  211.0750  153.0280 C   0  0  0  0  0  2  0  0  0  0  0  0
  157.2720  211.3380  154.7540 C   0  0  0  0  0  3  0  0  0  0  0  0
  157.6110  214.0850  154.5980 N   0  0  0  0  0  2  0  0  0  0  0  0
  158.2590  211.9500  153.8440 C   0  0  0  0  0  0  0  0  0  0  0  0
  158.4030  213.2410  153.7990 N   0  0  0  0  0  0  0  0  0  0  0  0
  156.5120  212.1070  155.5320 C   0  0  0  0  0  0  0  0  0  0  0  0
  156.6560  213.5350  155.4700 N   0  0  0  0  0  0  0  0  0  0  0  0
  155.5810  211.5060  156.4240 N   0  0  0  0  0  1  0  0  0  0  0  0
  154.4210  214.4470  155.7820 C   0  0  0  0  0  1  0  0  0  0  0  0
  155.8460  214.4140  156.2990 C   0  0  0  0  0  2  0  0  0  0  0  0
  162.0970  205.2690  151.5980 C   0  0  0  0  0  2  0  0  0  0  0  0
  160.6760  204.7260  151.5160 C   0  0  0  0  0  2  0  0  0  0  0  0
  161.2320  203.7560  149.2680 C   0  0  1  0  0  3  0  0  0  0  0  0
  160.0970  205.9340  149.4150 C   0  0  0  0  0  2  0  0  0  0  0  0
  160.6790  202.5160  148.9470 O   0  0  0  0  0  1  0  0  0  0  0  0
  160.6920  205.8290  148.0240 C   0  0  0  0  0  2  0  0  0  0  0  0
  162.1620  204.1100  147.0500 N   0  0  0  0  0  0  0  0  0  0  0  0
  161.4400  204.5500  148.0380 C   0  0  0  0  0  0  0  0  0  0  0  0
  160.2220  204.5620  150.0720 C   0  0  2  0  0  3  0  0  0  0  0  0
  162.4090  204.8410  145.8740 N   0  0  0  0  0  2  0  0  0  0  0  0
  161.5270  204.8420  144.7470 C   0  0  0  0  0  0  0  0  0  0  0  0
  161.9220  205.4530  143.5670 O   0  0  0  0  0  0  0  0  0  0  0  0
  160.3780  204.3320  144.8310 O   0  0  0  0  0  1  0  0  0  0  0  0
  1  4  2  0  0  0  0
  1 10  1  0  0  0  0
  2  6  1  0  0  0  0
  2  8  1  0  0  0  0
  3  2  2  0  0  0  0
  4  7  1  0  0  0  0
  5  6  2  0  0  0  0
  7  9  2  0  0  0  0
  7  3  1  0  0  0  0
  9  5  1  0  0  0  0
 10  9  1  0  0  0  0
 11  3  1  0  0  0  0
 12 11  1  0  0  0  0
 12 15  1  0  0  0  0
 13 17  2  0  0  0  0
 14 18  1  0  0  0  0
 15 13  1  0  0  0  0
 16 15  2  0  0  0  0
 16 14  1  0  0  0  0
 17 19  1  0  0  0  0
 18 17  1  0  0  0  0
 18 21  1  0  0  0  0
 20 21  1  0  0  0  0
 22 10  1  0  0  0  0
 23 22  1  0  0  0  0
 24 26  1  6  0  0  0
 24 30  1  0  0  0  0
 25 30  1  0  0  0  0
 27 29  1  0  0  0  0
 27 25  1  0  0  0  0
 28 29  2  0  0  0  0
 29 24  1  0  0  0  0
 30 23  1  1  0  0  0
 31 28  1  0  0  0  0
 32 34  1  0  0  0  0
 32 31  1  0  0  0  0
 33 32  2  0  0  0  0
M  END
>  <MODEL>
9

>  <REMARK>
 VINA RESULT:      -7.4      4.801      9.096
  Name = 
  8 active torsions:
  status: ('A' for Active; 'I' for Inactive)
    1  A    between atoms: N_3  and  N_22
    2  A    between atoms: C_7  and  C_11
    3  A    between atoms: C_11  and  C_13
    4  A    between atoms: C_12  and  C_13
    5  A    between atoms: C_18  and  C_28
    6  A    between atoms: C_18  and  N_32
    7  A    between atoms: N_27  and  C_30
    8  A    between atoms: C_28  and  C_29
                            x       y       z     vdW  Elec       q    Type
                         _______ _______ _______ _____ _____    ______ ____

>  <TORSDO>
F 8

$$$$
