=
 OpenBabel11042421143D

 32 35  0  0  0  0  0  0  0  0999 V2000
  160.2390  203.3180  150.0650 O   0  0  0  0  0  0  0  0  0  0  0  0
  161.4520  203.7190  146.1640 C   0  0  0  0  0  0  0  0  0  0  0  0
  161.2050  202.6770  145.2810 O   0  0  0  0  0  1  0  0  0  0  0  0
  161.2030  204.6740  152.2660 C   0  0  0  0  0  3  0  0  0  0  0  0
  161.3880  205.4260  153.4220 C   0  0  0  0  0  3  0  0  0  0  0  0
  161.4700  206.8210  153.3540 C   0  0  0  0  0  0  0  0  0  0  0  0
  161.0690  203.6080  147.5000 C   0  0  0  0  0  3  0  0  0  0  0  0
  161.3050  204.6430  148.4250 C   0  0  0  0  0  0  0  0  0  0  0  0
  162.0850  204.8750  145.7180 C   0  0  0  0  0  3  0  0  0  0  0  0
  161.1650  206.6940  150.9340 C   0  0  0  0  0  0  0  0  0  0  0  0
  161.3630  207.4580  152.1070 C   0  0  0  0  0  0  0  0  0  0  0  0
  162.3320  205.9170  146.6100 C   0  0  0  0  0  3  0  0  0  0  0  0
  161.1010  205.2850  151.0080 C   0  0  0  0  0  0  0  0  0  0  0  0
  162.2700  206.9970  148.8050 C   0  0  0  0  0  2  0  0  0  0  0  0
  160.8560  204.3960  149.8360 C   0  0  0  0  0  0  0  0  0  0  0  0
  161.9490  205.8210  147.9520 C   0  0  0  0  0  0  0  0  0  0  0  0
  161.0650  207.3880  149.6220 C   0  0  0  0  0  2  0  0  0  0  0  0
  161.4250  208.9550  152.0460 C   0  0  0  0  0  2  0  0  0  0  0  0
  160.1180  209.5400  152.4650 C   0  0  0  0  0  3  0  0  0  0  0  0
  160.0070  210.8490  152.6610 C   0  0  0  0  0  3  0  0  0  0  0  0
  158.6980  211.4290  153.0820 C   0  0  0  0  0  2  0  0  0  0  0  0
  159.7980  212.5920  155.0030 C   0  0  0  0  0  3  0  0  0  0  0  0
  159.8530  212.9340  156.3580 C   0  0  0  0  0  3  0  0  0  0  0  0
  158.8570  212.4880  157.2330 C   0  0  0  0  0  3  0  0  0  0  0  0
  157.8070  211.7000  156.7530 C   0  0  0  0  0  3  0  0  0  0  0  0
  158.7440  211.8080  154.5210 C   0  0  0  0  0  0  0  0  0  0  0  0
  157.7520  211.3570  155.3990 C   0  0  0  0  0  3  0  0  0  0  0  0
  161.6620  207.5890  154.5120 O   0  0  0  0  0  0  0  0  0  0  0  0
  160.6750  207.7350  155.5290 C   0  0  0  0  0  2  0  0  0  0  0  0
  160.7690  209.1120  156.1650 C   0  0  0  0  0  2  0  0  0  0  0  0
  162.5850  210.2540  156.6770 C   0  0  0  0  0  1  0  0  0  0  0  0
  161.8200  209.8280  155.5920 O   0  0  0  0  0  0  0  0  0  0  0  0
  2  7  1  0  0  0  0
  3  2  1  0  0  0  0
  4  5  1  0  0  0  0
  6  5  2  0  0  0  0
  6 28  1  0  0  0  0
  7  8  2  0  0  0  0
  8 15  1  0  0  0  0
  9  2  2  0  0  0  0
  9 12  1  0  0  0  0
 10 13  1  0  0  0  0
 10 11  2  0  0  0  0
 11  6  1  0  0  0  0
 12 16  2  0  0  0  0
 13  4  2  0  0  0  0
 14 17  1  0  0  0  0
 15  1  2  0  0  0  0
 15 13  1  0  0  0  0
 16  8  1  0  0  0  0
 16 14  1  0  0  0  0
 17 10  1  0  0  0  0
 18 11  1  0  0  0  0
 18 19  1  0  0  0  0
 19 20  2  0  0  0  0
 20 21  1  0  0  0  0
 21 26  1  0  0  0  0
 22 23  1  0  0  0  0
 23 24  2  0  0  0  0
 25 24  1  0  0  0  0
 26 22  2  0  0  0  0
 26 27  1  0  0  0  0
 27 25  2  0  0  0  0
 28 29  1  0  0  0  0
 29 30  1  0  0  0  0
 32 30  1  0  0  0  0
 32 31  1  0  0  0  0
M  END
>  <MODEL>
1

>  <REMARK>
 VINA RESULT:      -8.6      0.000      0.000
  Name = 
  8 active torsions:
  status: ('A' for Active; 'I' for Inactive)
    1  A    between atoms: C_4  and  C_14
    2  A    between atoms: C_4  and  C_31
    3  A    between atoms: C_12  and  O_28
    4  A    between atoms: C_15  and  C_20
    5  A    between atoms: C_18  and  O_19
    6  A    between atoms: C_18  and  C_25
    7  A    between atoms: C_20  and  C_22
    8  A    between atoms: C_25  and  O_28
                            x       y       z     vdW  Elec       q    Type
                         _______ _______ _______ _____ _____    ______ ____

>  <TORSDO>
F 8

$$$$
=
 OpenBabel11042421143D

 32 35  0  0  0  0  0  0  0  0999 V2000
  162.0410  205.5630  147.4840 O   0  0  0  0  0  0  0  0  0  0  0  0
  160.8720  201.6330  147.2680 C   0  0  0  0  0  0  0  0  0  0  0  0
  160.9580  200.9820  146.0460 O   0  0  0  0  0  1  0  0  0  0  0  0
  161.3010  207.4280  149.3770 C   0  0  0  0  0  3  0  0  0  0  0  0
  161.2360  208.4070  150.3640 C   0  0  0  0  0  3  0  0  0  0  0  0
  161.3580  208.0620  151.7140 C   0  0  0  0  0  0  0  0  0  0  0  0
  161.2440  202.9740  147.3720 C   0  0  0  0  0  3  0  0  0  0  0  0
  161.1680  203.6690  148.5950 C   0  0  0  0  0  0  0  0  0  0  0  0
  160.4110  200.9530  148.3910 C   0  0  0  0  0  3  0  0  0  0  0  0
  161.6240  205.7230  151.0630 C   0  0  0  0  0  0  0  0  0  0  0  0
  161.5480  206.7160  152.0670 C   0  0  0  0  0  0  0  0  0  0  0  0
  160.3250  201.6140  149.6150 C   0  0  0  0  0  3  0  0  0  0  0  0
  161.4820  206.0760  149.7030 C   0  0  0  0  0  0  0  0  0  0  0  0
  160.5600  203.5510  151.0910 C   0  0  0  0  0  2  0  0  0  0  0  0
  161.5860  205.1100  148.5720 C   0  0  0  0  0  0  0  0  0  0  0  0
  160.7000  202.9570  149.7340 C   0  0  0  0  0  0  0  0  0  0  0  0
  161.8150  204.3010  151.4590 C   0  0  0  0  0  2  0  0  0  0  0  0
  161.7050  206.3560  153.5140 C   0  0  0  0  0  2  0  0  0  0  0  0
  160.6370  207.0120  154.3240 C   0  0  0  0  0  3  0  0  0  0  0  0
  160.8900  207.4040  155.5670 C   0  0  0  0  0  3  0  0  0  0  0  0
  159.8180  208.0580  156.3740 C   0  0  0  0  0  2  0  0  0  0  0  0
  158.7890  210.3210  156.0960 C   0  0  0  0  0  3  0  0  0  0  0  0
  158.8990  211.7100  155.9860 C   0  0  0  0  0  3  0  0  0  0  0  0
  160.1560  212.3200  156.0530 C   0  0  0  0  0  3  0  0  0  0  0  0
  161.3030  211.5390  156.2290 C   0  0  0  0  0  3  0  0  0  0  0  0
  159.9350  209.5390  156.2770 C   0  0  0  0  0  0  0  0  0  0  0  0
  161.1930  210.1500  156.3370 C   0  0  0  0  0  3  0  0  0  0  0  0
  161.2890  209.0390  152.7180 O   0  0  0  0  0  0  0  0  0  0  0  0
  161.3470  210.4380  152.4560 C   0  0  0  0  0  2  0  0  0  0  0  0
  159.9620  211.0550  152.5580 C   0  0  0  0  0  2  0  0  0  0  0  0
  158.7370  212.8850  152.4210 C   0  0  0  0  0  1  0  0  0  0  0  0
  160.0570  212.4460  152.5010 O   0  0  0  0  0  0  0  0  0  0  0  0
  1 15  2  0  0  0  0
  2  7  2  0  0  0  0
  2  9  1  0  0  0  0
  3  2  1  0  0  0  0
  4 13  2  0  0  0  0
  4  5  1  0  0  0  0
  5  6  2  0  0  0  0
  6 11  1  0  0  0  0
  6 28  1  0  0  0  0
  7  8  1  0  0  0  0
  8 16  2  0  0  0  0
  9 12  2  0  0  0  0
 10 17  1  0  0  0  0
 10 11  2  0  0  0  0
 11 18  1  0  0  0  0
 12 16  1  0  0  0  0
 13 10  1  0  0  0  0
 14 17  1  0  0  0  0
 15  8  1  0  0  0  0
 15 13  1  0  0  0  0
 16 14  1  0  0  0  0
 18 19  1  0  0  0  0
 19 20  2  0  0  0  0
 20 21  1  0  0  0  0
 22 26  1  0  0  0  0
 23 24  1  0  0  0  0
 23 22  2  0  0  0  0
 24 25  2  0  0  0  0
 25 27  1  0  0  0  0
 26 27  2  0  0  0  0
 26 21  1  0  0  0  0
 29 30  1  0  0  0  0
 29 28  1  0  0  0  0
 31 32  1  0  0  0  0
 32 30  1  0  0  0  0
M  END
>  <MODEL>
2

>  <REMARK>
 VINA RESULT:      -8.6      1.716      3.477
  Name = 
  8 active torsions:
  status: ('A' for Active; 'I' for Inactive)
    1  A    between atoms: C_4  and  C_14
    2  A    between atoms: C_4  and  C_31
    3  A    between atoms: C_12  and  O_28
    4  A    between atoms: C_15  and  C_20
    5  A    between atoms: C_18  and  O_19
    6  A    between atoms: C_18  and  C_25
    7  A    between atoms: C_20  and  C_22
    8  A    between atoms: C_25  and  O_28
                            x       y       z     vdW  Elec       q    Type
                         _______ _______ _______ _____ _____    ______ ____

>  <TORSDO>
F 8

$$$$
=
 OpenBabel11042421143D

 32 35  0  0  0  0  0  0  0  0999 V2000
  160.4030  209.0740  156.5240 O   0  0  0  0  0  0  0  0  0  0  0  0
  159.0450  212.8700  155.7500 C   0  0  0  0  0  0  0  0  0  0  0  0
  158.6240  213.6540  156.8150 O   0  0  0  0  0  1  0  0  0  0  0  0
  160.5390  206.9530  154.7650 C   0  0  0  0  0  3  0  0  0  0  0  0
  160.9050  205.8720  153.9690 C   0  0  0  0  0  3  0  0  0  0  0  0
  161.5180  206.0810  152.7290 C   0  0  0  0  0  0  0  0  0  0  0  0
  159.4950  211.5690  155.9760 C   0  0  0  0  0  3  0  0  0  0  0  0
  159.9280  210.7430  154.9210 C   0  0  0  0  0  0  0  0  0  0  0  0
  159.0170  213.3780  154.4540 C   0  0  0  0  0  3  0  0  0  0  0  0
  161.3970  208.4910  153.1060 C   0  0  0  0  0  0  0  0  0  0  0  0
  161.7610  207.3940  152.2920 C   0  0  0  0  0  0  0  0  0  0  0  0
  159.4390  212.5840  153.3900 C   0  0  0  0  0  3  0  0  0  0  0  0
  160.7630  208.2730  154.3490 C   0  0  0  0  0  0  0  0  0  0  0  0
  160.3180  210.5320  152.3870 C   0  0  0  0  0  2  0  0  0  0  0  0
  160.3780  209.3610  155.2940 C   0  0  0  0  0  0  0  0  0  0  0  0
  159.8980  211.2790  153.6030 C   0  0  0  0  0  0  0  0  0  0  0  0
  161.6540  209.8740  152.6210 C   0  0  0  0  0  2  0  0  0  0  0  0
  162.4420  207.6100  150.9740 C   0  0  0  0  0  2  0  0  0  0  0  0
  161.4500  207.5210  149.8640 C   0  0  0  0  0  3  0  0  0  0  0  0
  161.8510  207.2180  148.6340 C   0  0  0  0  0  3  0  0  0  0  0  0
  160.8550  207.1320  147.5270 C   0  0  0  0  0  2  0  0  0  0  0  0
  160.7170  205.8120  145.4070 C   0  0  0  0  0  3  0  0  0  0  0  0
  160.8730  204.6180  144.6960 C   0  0  0  0  0  3  0  0  0  0  0  0
  161.3500  203.4740  145.3460 C   0  0  0  0  0  3  0  0  0  0  0  0
  161.6690  203.5250  146.7060 C   0  0  0  0  0  3  0  0  0  0  0  0
  161.0410  205.8640  146.7670 C   0  0  0  0  0  0  0  0  0  0  0  0
  161.5120  204.7180  147.4170 C   0  0  0  0  0  3  0  0  0  0  0  0
  161.8870  205.0000  151.9150 O   0  0  0  0  0  0  0  0  0  0  0  0
  161.2710  203.7180  151.9860 C   0  0  0  0  0  2  0  0  0  0  0  0
  160.8000  203.2790  150.6100 C   0  0  0  0  0  2  0  0  0  0  0  0
  160.1420  201.5120  149.4640 C   0  0  0  0  0  1  0  0  0  0  0  0
  161.0590  201.9200  150.4300 O   0  0  0  0  0  0  0  0  0  0  0  0
  2  7  1  0  0  0  0
  2  3  1  0  0  0  0
  5  4  2  0  0  0  0
  6  5  1  0  0  0  0
  8 15  1  0  0  0  0
  8  7  2  0  0  0  0
  9  2  2  0  0  0  0
 10 13  2  0  0  0  0
 11  6  2  0  0  0  0
 11 10  1  0  0  0  0
 12 16  2  0  0  0  0
 12  9  1  0  0  0  0
 13  4  1  0  0  0  0
 13 15  1  0  0  0  0
 14 17  1  0  0  0  0
 14 16  1  0  0  0  0
 15  1  2  0  0  0  0
 16  8  1  0  0  0  0
 17 10  1  0  0  0  0
 18 11  1  0  0  0  0
 19 18  1  0  0  0  0
 20 19  2  0  0  0  0
 21 20  1  0  0  0  0
 22 26  1  0  0  0  0
 23 24  1  0  0  0  0
 23 22  2  0  0  0  0
 24 25  2  0  0  0  0
 25 27  1  0  0  0  0
 26 27  2  0  0  0  0
 26 21  1  0  0  0  0
 28 29  1  0  0  0  0
 28  6  1  0  0  0  0
 30 29  1  0  0  0  0
 31 32  1  0  0  0  0
 32 30  1  0  0  0  0
M  END
>  <MODEL>
3

>  <REMARK>
 VINA RESULT:      -8.4      1.658      9.038
  Name = 
  8 active torsions:
  status: ('A' for Active; 'I' for Inactive)
    1  A    between atoms: C_4  and  C_14
    2  A    between atoms: C_4  and  C_31
    3  A    between atoms: C_12  and  O_28
    4  A    between atoms: C_15  and  C_20
    5  A    between atoms: C_18  and  O_19
    6  A    between atoms: C_18  and  C_25
    7  A    between atoms: C_20  and  C_22
    8  A    between atoms: C_25  and  O_28
                            x       y       z     vdW  Elec       q    Type
                         _______ _______ _______ _____ _____    ______ ____

>  <TORSDO>
F 8

$$$$
=
 OpenBabel11042421143D

 32 35  0  0  0  0  0  0  0  0999 V2000
  160.4030  202.4240  150.3060 O   0  0  0  0  0  0  0  0  0  0  0  0
  161.0350  202.3790  146.2500 C   0  0  0  0  0  0  0  0  0  0  0  0
  160.8630  201.1840  145.5650 O   0  0  0  0  0  1  0  0  0  0  0  0
  161.3850  204.2420  152.1330 C   0  0  0  0  0  3  0  0  0  0  0  0
  161.5810  205.1870  153.1360 C   0  0  0  0  0  3  0  0  0  0  0  0
  161.4140  206.5500  152.8670 C   0  0  0  0  0  0  0  0  0  0  0  0
  160.8460  202.4250  147.6310 C   0  0  0  0  0  3  0  0  0  0  0  0
  161.0140  203.6180  148.3610 C   0  0  0  0  0  0  0  0  0  0  0  0
  161.4000  203.5320  145.5610 C   0  0  0  0  0  3  0  0  0  0  0  0
  160.8370  205.9950  150.5590 C   0  0  0  0  0  0  0  0  0  0  0  0
  161.0450  206.9570  151.5740 C   0  0  0  0  0  0  0  0  0  0  0  0
  161.5730  204.7270  146.2560 C   0  0  0  0  0  3  0  0  0  0  0  0
  161.0250  204.6230  150.8330 C   0  0  0  0  0  0  0  0  0  0  0  0
  161.6000  206.1210  148.2680 C   0  0  0  0  0  2  0  0  0  0  0  0
  160.7930  203.5320  149.8420 C   0  0  0  0  0  0  0  0  0  0  0  0
  161.3820  204.7880  147.6410 C   0  0  0  0  0  0  0  0  0  0  0  0
  160.4560  206.4490  149.1940 C   0  0  0  0  0  2  0  0  0  0  0  0
  160.8400  208.4180  151.3010 C   0  0  0  0  0  2  0  0  0  0  0  0
  161.8530  208.9010  150.3180 C   0  0  0  0  0  3  0  0  0  0  0  0
  161.6840  210.0680  149.7060 C   0  0  0  0  0  3  0  0  0  0  0  0
  162.6990  210.5470  148.7230 C   0  0  0  0  0  2  0  0  0  0  0  0
  163.0860  212.9530  148.1600 C   0  0  0  0  0  3  0  0  0  0  0  0
  162.6630  214.1630  147.6020 C   0  0  0  0  0  3  0  0  0  0  0  0
  161.4050  214.2520  146.9980 C   0  0  0  0  0  3  0  0  0  0  0  0
  160.5700  213.1310  146.9520 C   0  0  0  0  0  3  0  0  0  0  0  0
  162.2540  211.8290  148.1100 C   0  0  0  0  0  0  0  0  0  0  0  0
  160.9930  211.9220  147.5110 C   0  0  0  0  0  3  0  0  0  0  0  0
  161.6130  207.5120  153.8670 O   0  0  0  0  0  0  0  0  0  0  0  0
  160.7240  207.6980  154.9650 C   0  0  0  0  0  2  0  0  0  0  0  0
  160.7190  209.1530  155.4040 C   0  0  0  0  0  2  0  0  0  0  0  0
  160.8220  210.9240  154.0920 C   0  0  0  0  0  1  0  0  0  0  0  0
  161.5990  209.8900  154.6100 O   0  0  0  0  0  0  0  0  0  0  0  0
  2  7  1  0  0  0  0
  3  2  1  0  0  0  0
  4  5  1  0  0  0  0
  6  5  2  0  0  0  0
  6 28  1  0  0  0  0
  7  8  2  0  0  0  0
  8 15  1  0  0  0  0
  9  2  2  0  0  0  0
  9 12  1  0  0  0  0
 10 13  1  0  0  0  0
 10 11  2  0  0  0  0
 11  6  1  0  0  0  0
 12 16  2  0  0  0  0
 13  4  2  0  0  0  0
 14 17  1  0  0  0  0
 15  1  2  0  0  0  0
 15 13  1  0  0  0  0
 16 14  1  0  0  0  0
 16  8  1  0  0  0  0
 17 10  1  0  0  0  0
 18 11  1  0  0  0  0
 19 18  1  0  0  0  0
 20 19  2  0  0  0  0
 21 20  1  0  0  0  0
 23 22  2  0  0  0  0
 24 23  1  0  0  0  0
 25 24  2  0  0  0  0
 25 27  1  0  0  0  0
 26 22  1  0  0  0  0
 26 21  1  0  0  0  0
 27 26  2  0  0  0  0
 28 29  1  0  0  0  0
 29 30  1  0  0  0  0
 31 32  1  0  0  0  0
 32 30  1  0  0  0  0
M  END
>  <MODEL>
4

>  <REMARK>
 VINA RESULT:      -8.3      2.810      4.258
  Name = 
  8 active torsions:
  status: ('A' for Active; 'I' for Inactive)
    1  A    between atoms: C_4  and  C_14
    2  A    between atoms: C_4  and  C_31
    3  A    between atoms: C_12  and  O_28
    4  A    between atoms: C_15  and  C_20
    5  A    between atoms: C_18  and  O_19
    6  A    between atoms: C_18  and  C_25
    7  A    between atoms: C_20  and  C_22
    8  A    between atoms: C_25  and  O_28
                            x       y       z     vdW  Elec       q    Type
                         _______ _______ _______ _____ _____    ______ ____

>  <TORSDO>
F 8

$$$$
=
 OpenBabel11042421143D

 32 35  0  0  0  0  0  0  0  0999 V2000
  160.2840  203.2300  150.0470 O   0  0  0  0  0  0  0  0  0  0  0  0
  161.4310  203.5490  146.1180 C   0  0  0  0  0  0  0  0  0  0  0  0
  161.2090  202.4710  145.2720 O   0  0  0  0  0  1  0  0  0  0  0  0
  161.2260  204.6890  152.1900 C   0  0  0  0  0  3  0  0  0  0  0  0
  161.4000  205.4830  153.3190 C   0  0  0  0  0  3  0  0  0  0  0  0
  161.4310  206.8770  153.2070 C   0  0  0  0  0  0  0  0  0  0  0  0
  161.0690  203.4670  147.4620 C   0  0  0  0  0  3  0  0  0  0  0  0
  161.2800  204.5390  148.3510 C   0  0  0  0  0  0  0  0  0  0  0  0
  162.0160  204.7120  145.6270 C   0  0  0  0  0  3  0  0  0  0  0  0
  161.1000  206.6620  150.7960 C   0  0  0  0  0  0  0  0  0  0  0  0
  161.2850  207.4700  151.9420 C   0  0  0  0  0  0  0  0  0  0  0  0
  162.2370  205.7900  146.4830 C   0  0  0  0  0  3  0  0  0  0  0  0
  161.0870  205.2550  150.9150 C   0  0  0  0  0  0  0  0  0  0  0  0
  162.1650  206.9370  148.6430 C   0  0  0  0  0  2  0  0  0  0  0  0
  160.8590  204.3210  149.7750 C   0  0  0  0  0  0  0  0  0  0  0  0
  161.8750  205.7230  147.8330 C   0  0  0  0  0  0  0  0  0  0  0  0
  160.9570  207.3100  149.4640 C   0  0  0  0  0  2  0  0  0  0  0  0
  161.2920  208.9660  151.8320 C   0  0  0  0  0  2  0  0  0  0  0  0
  160.1910  209.5450  152.6540 C   0  0  0  0  0  3  0  0  0  0  0  0
  160.1340  210.8560  152.8620 C   0  0  0  0  0  3  0  0  0  0  0  0
  159.0310  211.4310  153.6870 C   0  0  0  0  0  2  0  0  0  0  0  0
  157.2210  213.1460  153.4920 C   0  0  0  0  0  3  0  0  0  0  0  0
  156.5380  214.1270  152.7670 C   0  0  0  0  0  3  0  0  0  0  0  0
  156.9460  214.4500  151.4690 C   0  0  0  0  0  3  0  0  0  0  0  0
  158.0380  213.7910  150.8960 C   0  0  0  0  0  3  0  0  0  0  0  0
  158.3170  212.4900  152.9210 C   0  0  0  0  0  0  0  0  0  0  0  0
  158.7210  212.8090  151.6200 C   0  0  0  0  0  3  0  0  0  0  0  0
  161.6100  207.6880  154.3360 O   0  0  0  0  0  0  0  0  0  0  0  0
  160.8680  207.5290  155.5420 C   0  0  0  0  0  2  0  0  0  0  0  0
  161.4050  208.4550  156.6210 C   0  0  0  0  0  2  0  0  0  0  0  0
  161.2920  210.6580  156.6640 C   0  0  0  0  0  1  0  0  0  0  0  0
  161.9470  209.5990  156.0370 O   0  0  0  0  0  0  0  0  0  0  0  0
  2  7  1  0  0  0  0
  3  2  1  0  0  0  0
  4  5  1  0  0  0  0
  6  5  2  0  0  0  0
  6 28  1  0  0  0  0
  7  8  2  0  0  0  0
  8 15  1  0  0  0  0
  9  2  2  0  0  0  0
  9 12  1  0  0  0  0
 10 13  1  0  0  0  0
 10 11  2  0  0  0  0
 11  6  1  0  0  0  0
 12 16  2  0  0  0  0
 13  4  2  0  0  0  0
 14 17  1  0  0  0  0
 15  1  2  0  0  0  0
 15 13  1  0  0  0  0
 16  8  1  0  0  0  0
 16 14  1  0  0  0  0
 17 10  1  0  0  0  0
 18 11  1  0  0  0  0
 18 19  1  0  0  0  0
 19 20  2  0  0  0  0
 20 21  1  0  0  0  0
 23 22  2  0  0  0  0
 24 23  1  0  0  0  0
 25 24  2  0  0  0  0
 25 27  1  0  0  0  0
 26 22  1  0  0  0  0
 26 21  1  0  0  0  0
 27 26  2  0  0  0  0
 28 29  1  0  0  0  0
 29 30  1  0  0  0  0
 32 30  1  0  0  0  0
 32 31  1  0  0  0  0
M  END
>  <MODEL>
5

>  <REMARK>
 VINA RESULT:      -8.2      1.281      2.083
  Name = 
  8 active torsions:
  status: ('A' for Active; 'I' for Inactive)
    1  A    between atoms: C_4  and  C_14
    2  A    between atoms: C_4  and  C_31
    3  A    between atoms: C_12  and  O_28
    4  A    between atoms: C_15  and  C_20
    5  A    between atoms: C_18  and  O_19
    6  A    between atoms: C_18  and  C_25
    7  A    between atoms: C_20  and  C_22
    8  A    between atoms: C_25  and  O_28
                            x       y       z     vdW  Elec       q    Type
                         _______ _______ _______ _____ _____    ______ ____

>  <TORSDO>
F 8

$$$$
=
 OpenBabel11042421143D

 32 35  0  0  0  0  0  0  0  0999 V2000
  160.0150  202.2720  150.0280 O   0  0  0  0  0  0  0  0  0  0  0  0
  160.8240  202.1780  146.0040 C   0  0  0  0  0  0  0  0  0  0  0  0
  160.4880  201.0380  145.2870 O   0  0  0  0  0  1  0  0  0  0  0  0
  161.1960  203.8760  151.9360 C   0  0  0  0  0  3  0  0  0  0  0  0
  161.4980  204.7620  152.9660 C   0  0  0  0  0  3  0  0  0  0  0  0
  161.5710  206.1370  152.7200 C   0  0  0  0  0  0  0  0  0  0  0  0
  160.5790  202.2350  147.3760 C   0  0  0  0  0  3  0  0  0  0  0  0
  160.9070  203.3740  148.1380 C   0  0  0  0  0  0  0  0  0  0  0  0
  161.4070  203.2630  145.3580 C   0  0  0  0  0  3  0  0  0  0  0  0
  161.0220  205.7180  150.3770 C   0  0  0  0  0  0  0  0  0  0  0  0
  161.3370  206.6170  151.4210 C   0  0  0  0  0  0  0  0  0  0  0  0
  161.7430  204.4030  146.0860 C   0  0  0  0  0  3  0  0  0  0  0  0
  160.9670  204.3290  150.6300 C   0  0  0  0  0  0  0  0  0  0  0  0
  161.9030  205.7450  148.1260 C   0  0  0  0  0  2  0  0  0  0  0  0
  160.6040  203.3060  149.6070 C   0  0  0  0  0  0  0  0  0  0  0  0
  161.4980  204.4770  147.4620 C   0  0  0  0  0  0  0  0  0  0  0  0
  160.7870  206.2470  149.0060 C   0  0  0  0  0  2  0  0  0  0  0  0
  161.3910  208.0950  151.1690 C   0  0  0  0  0  2  0  0  0  0  0  0
  160.5490  208.8160  152.1670 C   0  0  0  0  0  3  0  0  0  0  0  0
  160.7830  210.0950  152.4360 C   0  0  0  0  0  3  0  0  0  0  0  0
  159.9380  210.8120  153.4360 C   0  0  0  0  0  2  0  0  0  0  0  0
  160.1190  211.7130  155.7620 C   0  0  0  0  0  3  0  0  0  0  0  0
  160.8320  211.8980  156.9510 C   0  0  0  0  0  3  0  0  0  0  0  0
  162.1170  211.3640  157.0870 C   0  0  0  0  0  3  0  0  0  0  0  0
  162.6900  210.6450  156.0330 C   0  0  0  0  0  3  0  0  0  0  0  0
  160.6900  210.9900  154.7090 C   0  0  0  0  0  0  0  0  0  0  0  0
  161.9780  210.4610  154.8440 C   0  0  0  0  0  3  0  0  0  0  0  0
  161.8790  207.0390  153.7480 O   0  0  0  0  0  0  0  0  0  0  0  0
  161.5390  206.8180  155.1140 C   0  0  0  0  0  2  0  0  0  0  0  0
  160.0840  207.1800  155.3630 C   0  0  0  0  0  2  0  0  0  0  0  0
  160.0020  208.3040  157.2600 C   0  0  0  0  0  1  0  0  0  0  0  0
  159.7860  207.0380  156.7190 O   0  0  0  0  0  0  0  0  0  0  0  0
  2  7  1  0  0  0  0
  3  2  1  0  0  0  0
  4  5  1  0  0  0  0
  6  5  2  0  0  0  0
  6 28  1  0  0  0  0
  7  8  2  0  0  0  0
  8 15  1  0  0  0  0
  9  2  2  0  0  0  0
  9 12  1  0  0  0  0
 10 13  1  0  0  0  0
 10 11  2  0  0  0  0
 11  6  1  0  0  0  0
 12 16  2  0  0  0  0
 13  4  2  0  0  0  0
 14 17  1  0  0  0  0
 15  1  2  0  0  0  0
 15 13  1  0  0  0  0
 16 14  1  0  0  0  0
 16  8  1  0  0  0  0
 17 10  1  0  0  0  0
 18 11  1  0  0  0  0
 18 19  1  0  0  0  0
 19 20  2  0  0  0  0
 20 21  1  0  0  0  0
 21 26  1  0  0  0  0
 22 23  1  0  0  0  0
 23 24  2  0  0  0  0
 25 24  1  0  0  0  0
 26 27  1  0  0  0  0
 26 22  2  0  0  0  0
 27 25  2  0  0  0  0
 28 29  1  0  0  0  0
 29 30  1  0  0  0  0
 30 32  1  0  0  0  0
 32 31  1  0  0  0  0
M  END
>  <MODEL>
6

>  <REMARK>
 VINA RESULT:      -8.1      1.386      2.034
  Name = 
  8 active torsions:
  status: ('A' for Active; 'I' for Inactive)
    1  A    between atoms: C_4  and  C_14
    2  A    between atoms: C_4  and  C_31
    3  A    between atoms: C_12  and  O_28
    4  A    between atoms: C_15  and  C_20
    5  A    between atoms: C_18  and  O_19
    6  A    between atoms: C_18  and  C_25
    7  A    between atoms: C_20  and  C_22
    8  A    between atoms: C_25  and  O_28
                            x       y       z     vdW  Elec       q    Type
                         _______ _______ _______ _____ _____    ______ ____

>  <TORSDO>
F 8

$$$$
=
 OpenBabel11042421143D

 32 35  0  0  0  0  0  0  0  0999 V2000
  161.1110  204.7660  153.1100 O   0  0  0  0  0  0  0  0  0  0  0  0
  160.5180  207.7270  155.8920 C   0  0  0  0  0  0  0  0  0  0  0  0
  160.3130  207.3620  157.2150 O   0  0  0  0  0  1  0  0  0  0  0  0
  160.7340  204.9310  150.3830 C   0  0  0  0  0  3  0  0  0  0  0  0
  160.8370  204.9100  148.9950 C   0  0  0  0  0  3  0  0  0  0  0  0
  161.4230  205.9810  148.3120 C   0  0  0  0  0  0  0  0  0  0  0  0
  160.7050  206.7450  154.9190 C   0  0  0  0  0  3  0  0  0  0  0  0
  160.9130  207.0760  153.5660 C   0  0  0  0  0  0  0  0  0  0  0  0
  160.5350  209.0710  155.5320 C   0  0  0  0  0  3  0  0  0  0  0  0
  161.8100  207.0970  150.4490 C   0  0  0  0  0  0  0  0  0  0  0  0
  161.9070  207.0800  149.0390 C   0  0  0  0  0  0  0  0  0  0  0  0
  160.7390  209.4290  154.2010 C   0  0  0  0  0  3  0  0  0  0  0  0
  161.2020  206.0210  151.1310 C   0  0  0  0  0  0  0  0  0  0  0  0
  161.1370  208.9630  151.8320 C   0  0  0  0  0  2  0  0  0  0  0  0
  161.0890  205.9280  152.6150 C   0  0  0  0  0  0  0  0  0  0  0  0
  160.9320  208.4540  153.2160 C   0  0  0  0  0  0  0  0  0  0  0  0
  162.3210  208.2760  151.2000 C   0  0  0  0  0  2  0  0  0  0  0  0
  162.5580  208.2130  148.3010 C   0  0  0  0  0  2  0  0  0  0  0  0
  161.7350  209.4500  148.4320 C   0  0  0  0  0  3  0  0  0  0  0  0
  162.3250  210.6260  148.6130 C   0  0  0  0  0  3  0  0  0  0  0  0
  161.4970  211.8610  148.7460 C   0  0  0  0  0  2  0  0  0  0  0  0
  162.3940  213.2340  146.8580 C   0  0  0  0  0  3  0  0  0  0  0  0
  162.2360  213.8630  145.6190 C   0  0  0  0  0  3  0  0  0  0  0  0
  161.0170  213.7760  144.9400 C   0  0  0  0  0  3  0  0  0  0  0  0
  159.9550  213.0590  145.5010 C   0  0  0  0  0  3  0  0  0  0  0  0
  161.3330  212.5130  147.4170 C   0  0  0  0  0  0  0  0  0  0  0  0
  160.1120  212.4320  146.7390 C   0  0  0  0  0  3  0  0  0  0  0  0
  161.5280  205.9730  146.9130 O   0  0  0  0  0  0  0  0  0  0  0  0
  162.3780  205.0830  146.1950 C   0  0  0  0  0  2  0  0  0  0  0  0
  161.5680  203.9470  145.5920 C   0  0  0  0  0  2  0  0  0  0  0  0
  161.4750  205.3850  143.9220 C   0  0  0  0  0  1  0  0  0  0  0  0
  160.7110  204.4460  144.6110 O   0  0  0  0  0  0  0  0  0  0  0  0
  2  3  1  0  0  0  0
  4 13  1  0  0  0  0
  5  4  2  0  0  0  0
  6  5  1  0  0  0  0
  6 11  2  0  0  0  0
  7  2  2  0  0  0  0
  8  7  1  0  0  0  0
  9  2  1  0  0  0  0
 10 13  2  0  0  0  0
 10 17  1  0  0  0  0
 11 10  1  0  0  0  0
 12  9  2  0  0  0  0
 13 15  1  0  0  0  0
 14 16  1  0  0  0  0
 15  1  2  0  0  0  0
 15  8  1  0  0  0  0
 16  8  2  0  0  0  0
 16 12  1  0  0  0  0
 17 14  1  0  0  0  0
 18 19  1  0  0  0  0
 18 11  1  0  0  0  0
 19 20  2  0  0  0  0
 20 21  1  0  0  0  0
 22 26  1  0  0  0  0
 23 22  2  0  0  0  0
 24 25  2  0  0  0  0
 24 23  1  0  0  0  0
 25 27  1  0  0  0  0
 26 21  1  0  0  0  0
 27 26  2  0  0  0  0
 28  6  1  0  0  0  0
 29 28  1  0  0  0  0
 30 29  1  0  0  0  0
 31 32  1  0  0  0  0
 32 30  1  0  0  0  0
M  END
>  <MODEL>
7

>  <REMARK>
 VINA RESULT:      -8.1      3.417      7.994
  Name = 
  8 active torsions:
  status: ('A' for Active; 'I' for Inactive)
    1  A    between atoms: C_4  and  C_14
    2  A    between atoms: C_4  and  C_31
    3  A    between atoms: C_12  and  O_28
    4  A    between atoms: C_15  and  C_20
    5  A    between atoms: C_18  and  O_19
    6  A    between atoms: C_18  and  C_25
    7  A    between atoms: C_20  and  C_22
    8  A    between atoms: C_25  and  O_28
                            x       y       z     vdW  Elec       q    Type
                         _______ _______ _______ _____ _____    ______ ____

>  <TORSDO>
F 8

$$$$
=
 OpenBabel11042421143D

 32 35  0  0  0  0  0  0  0  0999 V2000
  162.4560  204.9920  146.8670 O   0  0  0  0  0  0  0  0  0  0  0  0
  160.9800  201.5220  148.4890 C   0  0  0  0  0  0  0  0  0  0  0  0
  161.0220  200.3630  147.7260 O   0  0  0  0  0  1  0  0  0  0  0  0
  161.8560  207.5790  147.6150 C   0  0  0  0  0  3  0  0  0  0  0  0
  161.8620  208.9110  148.0160 C   0  0  0  0  0  3  0  0  0  0  0  0
  161.9480  209.2430  149.3720 C   0  0  0  0  0  0  0  0  0  0  0  0
  161.4570  202.7220  147.9610 C   0  0  0  0  0  3  0  0  0  0  0  0
  161.4290  203.9190  148.7030 C   0  0  0  0  0  0  0  0  0  0  0  0
  160.4600  201.4900  149.7790 C   0  0  0  0  0  3  0  0  0  0  0  0
  162.0320  206.8640  149.9200 C   0  0  0  0  0  0  0  0  0  0  0  0
  162.0290  208.2170  150.3290 C   0  0  0  0  0  0  0  0  0  0  0  0
  160.4200  202.6590  150.5380 C   0  0  0  0  0  3  0  0  0  0  0  0
  161.9270  206.5360  148.5510 C   0  0  0  0  0  0  0  0  0  0  0  0
  160.7990  205.0450  150.9290 C   0  0  0  0  0  2  0  0  0  0  0  0
  161.9610  205.1440  148.0180 C   0  0  0  0  0  0  0  0  0  0  0  0
  160.8990  203.8680  150.0220 C   0  0  0  0  0  0  0  0  0  0  0  0
  162.1070  205.7930  150.9500 C   0  0  0  0  0  2  0  0  0  0  0  0
  162.1480  208.5810  151.7790 C   0  0  0  0  0  2  0  0  0  0  0  0
  160.8130  208.9640  152.3230 C   0  0  0  0  0  3  0  0  0  0  0  0
  160.6530  210.1330  152.9340 C   0  0  0  0  0  3  0  0  0  0  0  0
  159.3160  210.5120  153.4770 C   0  0  0  0  0  2  0  0  0  0  0  0
  159.6730  212.4890  151.9880 C   0  0  0  0  0  3  0  0  0  0  0  0
  159.3330  213.7750  151.5590 C   0  0  0  0  0  3  0  0  0  0  0  0
  158.2600  214.4500  152.1520 C   0  0  0  0  0  3  0  0  0  0  0  0
  157.5290  213.8370  153.1750 C   0  0  0  0  0  3  0  0  0  0  0  0
  158.9390  211.8740  153.0080 C   0  0  0  0  0  0  0  0  0  0  0  0
  157.8710  212.5520  153.6050 C   0  0  0  0  0  3  0  0  0  0  0  0
  161.9510  210.5820  149.7890 O   0  0  0  0  0  0  0  0  0  0  0  0
  162.3920  211.6590  148.9670 C   0  0  0  0  0  2  0  0  0  0  0  0
  161.2120  212.5070  148.5250 C   0  0  0  0  0  2  0  0  0  0  0  0
  161.3470  213.1260  146.4120 C   0  0  0  0  0  1  0  0  0  0  0  0
  160.8170  212.1370  147.2390 O   0  0  0  0  0  0  0  0  0  0  0  0
  1 15  2  0  0  0  0
  2  9  1  0  0  0  0
  3  2  1  0  0  0  0
  4  5  2  0  0  0  0
  4 13  1  0  0  0  0
  5  6  1  0  0  0  0
  6 28  1  0  0  0  0
  6 11  2  0  0  0  0
  7  2  2  0  0  0  0
  7  8  1  0  0  0  0
  8 16  2  0  0  0  0
  9 12  2  0  0  0  0
 10 11  1  0  0  0  0
 10 17  1  0  0  0  0
 11 18  1  0  0  0  0
 13 10  2  0  0  0  0
 14 17  1  0  0  0  0
 15 13  1  0  0  0  0
 15  8  1  0  0  0  0
 16 12  1  0  0  0  0
 16 14  1  0  0  0  0
 18 19  1  0  0  0  0
 19 20  2  0  0  0  0
 20 21  1  0  0  0  0
 22 26  1  0  0  0  0
 23 22  2  0  0  0  0
 23 24  1  0  0  0  0
 24 25  2  0  0  0  0
 25 27  1  0  0  0  0
 26 21  1  0  0  0  0
 26 27  2  0  0  0  0
 29 28  1  0  0  0  0
 30 29  1  0  0  0  0
 31 32  1  0  0  0  0
 32 30  1  0  0  0  0
M  END
>  <MODEL>
8

>  <REMARK>
 VINA RESULT:      -7.6      2.955      4.630
  Name = 
  8 active torsions:
  status: ('A' for Active; 'I' for Inactive)
    1  A    between atoms: C_4  and  C_14
    2  A    between atoms: C_4  and  C_31
    3  A    between atoms: C_12  and  O_28
    4  A    between atoms: C_15  and  C_20
    5  A    between atoms: C_18  and  O_19
    6  A    between atoms: C_18  and  C_25
    7  A    between atoms: C_20  and  C_22
    8  A    between atoms: C_25  and  O_28
                            x       y       z     vdW  Elec       q    Type
                         _______ _______ _______ _____ _____    ______ ____

>  <TORSDO>
F 8

$$$$
=
 OpenBabel11042421143D

 32 35  0  0  0  0  0  0  0  0999 V2000
  162.4260  205.0980  147.0400 O   0  0  0  0  0  0  0  0  0  0  0  0
  160.9070  201.6560  148.6810 C   0  0  0  0  0  0  0  0  0  0  0  0
  160.9590  200.4860  147.9360 O   0  0  0  0  0  1  0  0  0  0  0  0
  161.8210  207.6970  147.7410 C   0  0  0  0  0  3  0  0  0  0  0  0
  161.8250  209.0350  148.1230 C   0  0  0  0  0  3  0  0  0  0  0  0
  161.8870  209.3850  149.4760 C   0  0  0  0  0  0  0  0  0  0  0  0
  161.3980  202.8470  148.1460 C   0  0  0  0  0  3  0  0  0  0  0  0
  161.3610  204.0540  148.8710 C   0  0  0  0  0  0  0  0  0  0  0  0
  160.3630  201.6440  149.9620 C   0  0  0  0  0  3  0  0  0  0  0  0
  161.9510  207.0140  150.0580 C   0  0  0  0  0  0  0  0  0  0  0  0
  161.9450  208.3730  150.4480 C   0  0  0  0  0  0  0  0  0  0  0  0
  160.3120  202.8230  150.7030 C   0  0  0  0  0  3  0  0  0  0  0  0
  161.8710  206.6670  148.6920 C   0  0  0  0  0  0  0  0  0  0  0  0
  160.6920  205.2130  151.0680 C   0  0  0  0  0  2  0  0  0  0  0  0
  161.9100  205.2670  148.1800 C   0  0  0  0  0  0  0  0  0  0  0  0
  160.8050  204.0230  150.1800 C   0  0  0  0  0  0  0  0  0  0  0  0
  162.0030  205.9570  151.1040 C   0  0  0  0  0  2  0  0  0  0  0  0
  162.0380  208.7560  151.8950 C   0  0  0  0  0  2  0  0  0  0  0  0
  160.6990  209.1740  152.4020 C   0  0  0  0  0  3  0  0  0  0  0  0
  160.4310  210.4610  152.5930 C   0  0  0  0  0  3  0  0  0  0  0  0
  159.0900  210.8750  153.1010 C   0  0  0  0  0  2  0  0  0  0  0  0
  158.0580  211.1640  155.3610 C   0  0  0  0  0  3  0  0  0  0  0  0
  158.1390  211.5480  156.7030 C   0  0  0  0  0  3  0  0  0  0  0  0
  159.3430  212.0350  157.2210 C   0  0  0  0  0  3  0  0  0  0  0  0
  160.4670  212.1390  156.3950 C   0  0  0  0  0  3  0  0  0  0  0  0
  159.1840  211.2640  154.5350 C   0  0  0  0  0  0  0  0  0  0  0  0
  160.3860  211.7570  155.0530 C   0  0  0  0  0  3  0  0  0  0  0  0
  161.8860  210.7300  149.8740 O   0  0  0  0  0  0  0  0  0  0  0  0
  162.1320  211.8120  148.9820 C   0  0  0  0  0  2  0  0  0  0  0  0
  161.0550  212.8740  149.1260 C   0  0  0  0  0  2  0  0  0  0  0  0
  160.3290  212.4620  147.0840 C   0  0  0  0  0  1  0  0  0  0  0  0
  160.8210  213.4840  147.8940 O   0  0  0  0  0  0  0  0  0  0  0  0
  1 15  2  0  0  0  0
  2  9  1  0  0  0  0
  3  2  1  0  0  0  0
  4  5  2  0  0  0  0
  4 13  1  0  0  0  0
  5  6  1  0  0  0  0
  6 28  1  0  0  0  0
  6 11  2  0  0  0  0
  7  2  2  0  0  0  0
  7  8  1  0  0  0  0
  8 16  2  0  0  0  0
  9 12  2  0  0  0  0
 10 11  1  0  0  0  0
 10 17  1  0  0  0  0
 11 18  1  0  0  0  0
 13 10  2  0  0  0  0
 14 17  1  0  0  0  0
 15 13  1  0  0  0  0
 15  8  1  0  0  0  0
 16 12  1  0  0  0  0
 16 14  1  0  0  0  0
 18 19  1  0  0  0  0
 19 20  2  0  0  0  0
 20 21  1  0  0  0  0
 21 26  1  0  0  0  0
 22 23  1  0  0  0  0
 23 24  2  0  0  0  0
 25 24  1  0  0  0  0
 26 27  1  0  0  0  0
 26 22  2  0  0  0  0
 27 25  2  0  0  0  0
 29 30  1  0  0  0  0
 29 28  1  0  0  0  0
 31 32  1  0  0  0  0
 32 30  1  0  0  0  0
M  END
>  <MODEL>
9

>  <REMARK>
 VINA RESULT:      -7.5      2.717      4.329
  Name = 
  8 active torsions:
  status: ('A' for Active; 'I' for Inactive)
    1  A    between atoms: C_4  and  C_14
    2  A    between atoms: C_4  and  C_31
    3  A    between atoms: C_12  and  O_28
    4  A    between atoms: C_15  and  C_20
    5  A    between atoms: C_18  and  O_19
    6  A    between atoms: C_18  and  C_25
    7  A    between atoms: C_20  and  C_22
    8  A    between atoms: C_25  and  O_28
                            x       y       z     vdW  Elec       q    Type
                         _______ _______ _______ _____ _____    ______ ____

>  <TORSDO>
F 8

$$$$
