=
 OpenBabel11052412113D

 56 65  0  0  1  0  0  0  0  0999 V2000
  160.5460  207.2580  149.8490 C   0  0  2  0  0  3  0  0  0  0  0  0
  159.5580  211.7360  152.6260 C   0  0  0  0  0  2  0  0  0  0  0  0
  161.7660  209.9080  148.8390 C   0  0  0  0  0  3  0  0  0  0  0  0
  161.2090  204.2920  148.9150 C   0  0  0  0  0  1  0  0  0  0  0  0
  157.7910  213.5230  148.5380 C   0  0  0  0  0  0  0  0  0  0  0  0
  159.9950  212.4990  148.4810 C   0  0  0  0  0  0  0  0  0  0  0  0
  162.5780  207.6350  148.2570 C   0  0  0  0  0  0  0  0  0  0  0  0
  160.6630  209.5030  152.9700 C   0  0  1  0  0  3  0  0  0  0  0  0
  156.7560  214.4530  147.9750 C   0  0  0  0  0  2  0  0  0  0  0  0
  162.2360  211.3120  148.6620 C   0  0  2  0  0  3  0  0  0  0  0  0
  160.5680  206.4450  151.1320 C   0  0  0  0  0  2  0  0  0  0  0  0
  158.3580  211.5600  151.7100 C   0  0  0  0  0  2  0  0  0  0  0  0
  159.1720  213.7220  146.4420 C   0  0  0  0  0  3  0  0  0  0  0  0
  161.2960  212.1560  147.7870 C   0  0  2  0  0  3  0  0  0  0  0  0
  162.0000  213.3800  147.3790 N   0  0  0  0  0  2  0  0  0  0  0  0
  163.7140  209.8270  147.6540 N   0  0  0  0  0  0  0  0  0  0  0  0
  163.4780  211.0730  147.8840 C   0  0  0  0  0  0  0  0  0  0  0  0
  161.6620  206.8270  148.9320 C   0  0  2  0  0  3  0  0  0  0  0  0
  156.8710  213.0860  145.7940 C   0  0  0  0  0  2  0  0  0  0  0  0
  163.0140  205.6130  147.6670 C   0  0  0  0  0  0  0  0  0  0  0  0
  158.2040  213.7330  145.5210 C   0  0  0  0  0  0  0  0  0  0  0  0
  160.0770  208.7710  151.7620 C   0  0  0  0  0  2  0  0  0  0  0  0
  159.7530  211.9990  149.7240 N   0  0  0  0  0  0  0  0  0  0  0  0
  164.1630  212.1900  147.1760 C   0  0  0  0  0  2  0  0  0  0  0  0
  155.9990  213.8730  146.7770 C   0  0  0  0  0  2  0  0  0  0  0  0
  163.0890  213.0210  146.4610 C   0  0  0  0  0  2  0  0  0  0  0  0
  161.9400  205.5340  148.5270 C   0  0  0  0  0  0  0  0  0  0  0  0
  163.4100  206.8880  147.5000 N   0  0  0  0  0  0  0  0  0  0  0  0
  159.6900  210.5330  153.5440 C   0  0  0  0  0  2  0  0  0  0  0  0
  158.5950  212.2230  150.3970 C   0  0  0  0  0  0  0  0  0  0  0  0
  158.9840  213.2430  147.8320 C   0  0  0  0  0  0  0  0  0  0  0  0
  161.1110  207.8540  151.1300 C   0  0  2  0  0  3  0  0  0  0  0  0
  162.6670  209.1050  148.2910 C   0  0  0  0  0  0  0  0  0  0  0  0
  157.5950  212.9990  149.8150 C   0  0  0  0  0  3  0  0  0  0  0  0
  158.5610  213.5610  143.1040 C   0  0  0  0  0  3  0  0  0  0  0  0
  158.5070  214.3040  144.2040 C   0  0  0  0  0  3  0  0  0  0  0  0
  159.6160  211.5740  140.8810 C   0  0  0  0  0  2  0  0  0  0  0  0
  157.7790  214.4290  139.5360 O   0  0  0  0  0  1  0  0  0  0  0  0
  161.2360  213.2320  141.7920 C   0  0  0  0  0  2  0  0  0  0  0  0
  160.3520  214.4530  141.5450 C   0  0  0  0  0  2  0  0  0  0  0  0
  158.8620  214.1810  141.7710 C   0  0  1  0  0  3  0  0  0  0  0  0
  157.3990  212.2860  140.6730 C   0  0  2  0  0  3  0  0  0  0  0  0
  158.1600  213.5430  140.5460 C   0  0  1  0  0  0  0  0  0  0  0  0
  161.0170  212.1430  140.7540 C   0  0  0  0  0  2  0  0  0  0  0  0
  158.7100  212.2810  139.9840 N   0  0  1  0  0  0  0  0  0  0  0  0
  156.4580  211.2720  137.3970 C   0  0  0  0  0  2  0  0  0  0  0  0
  155.6640  210.2560  138.1800 C   0  0  0  0  0  2  0  0  0  0  0  0
  154.9780  212.7800  140.2260 C   0  0  0  0  0  1  0  0  0  0  0  0
  155.9240  210.5860  139.6330 C   0  0  0  0  0  2  0  0  0  0  0  0
  156.2160  212.0750  139.6980 C   0  0  0  0  0  0  0  0  0  0  0  0
  156.4720  212.5200  138.2550 C   0  0  0  0  0  2  0  0  0  0  0  0
  162.6070  204.2280  145.4990 C   0  0  0  0  0  1  0  0  0  0  0  0
  163.8080  204.2270  146.8590 S   0  0  0  0  0  0  0  0  0  0  0  0
  161.0860  208.5660  154.0120 N   0  0  0  0  0  2  0  0  0  0  0  0
  161.7310  209.2570  154.9860 O   0  0  0  0  0  0  0  0  0  0  0  0
  161.6540  208.4320  156.1090 C   0  0  0  0  0  1  0  0  0  0  0  0
  1 32  1  0  0  0  0
  1 11  1  1  0  0  0
  2 29  1  0  0  0  0
  5 34  1  0  0  0  0
  6 23  2  0  0  0  0
  7 33  1  0  0  0  0
  8 29  1  0  0  0  0
  8 54  1  1  0  0  0
  9  5  1  0  0  0  0
 10  3  1  6  0  0  0
 12  2  1  0  0  0  0
 13 31  1  0  0  0  0
 14 15  1  1  0  0  0
 14  6  1  0  0  0  0
 14 10  1  0  0  0  0
 16 17  2  0  0  0  0
 16 33  1  0  0  0  0
 17 10  1  0  0  0  0
 18  7  1  6  0  0  0
 18  1  1  0  0  0  0
 19 25  1  0  0  0  0
 20 27  2  0  0  0  0
 21 19  1  0  0  0  0
 21 13  2  0  0  0  0
 22  8  1  0  0  0  0
 23 30  1  0  0  0  0
 24 17  1  0  0  0  0
 25  9  1  0  0  0  0
 26 24  1  0  0  0  0
 26 15  1  0  0  0  0
 27  4  1  0  0  0  0
 27 18  1  0  0  0  0
 28 20  1  0  0  0  0
 28  7  2  0  0  0  0
 30 12  1  0  0  0  0
 31  6  1  0  0  0  0
 31  5  2  0  0  0  0
 32 11  1  1  0  0  0
 32 22  1  0  0  0  0
 33  3  2  0  0  0  0
 34 30  2  0  0  0  0
 35 36  2  0  0  0  0
 36 21  1  0  0  0  0
 40 41  1  0  0  0  0
 40 39  1  0  0  0  0
 41 35  1  1  0  0  0
 42 50  1  6  0  0  0
 43 38  1  6  0  0  0
 43 42  1  0  0  0  0
 43 41  1  0  0  0  0
 44 37  1  0  0  0  0
 44 39  1  0  0  0  0
 45 43  1  0  0  0  0
 45 42  1  0  0  0  0
 45 37  1  1  0  0  0
 46 47  1  0  0  0  0
 46 51  1  0  0  0  0
 47 49  1  0  0  0  0
 49 50  1  0  0  0  0
 50 48  1  0  0  0  0
 51 50  1  0  0  0  0
 52 53  1  0  0  0  0
 53 20  1  0  0  0  0
 54 55  1  0  0  0  0
 55 56  1  0  0  0  0
M  END
>  <MODEL>
1

>  <REMARK>
 VINA RESULT:       5.6      0.000      0.000
  Name = 
  6 active torsions:
  status: ('A' for Active; 'I' for Inactive)
    1  A    between atoms: C_9  and  C_29
    2  A    between atoms: N_13  and  C_14
    3  A    between atoms: N_13  and  O_22
    4  A    between atoms: C_23  and  C_36
    5  A    between atoms: C_34  and  S_40
    6  A    between atoms: C_37  and  C_39
                            x       y       z     vdW  Elec       q    Type
                         _______ _______ _______ _____ _____    ______ ____

>  <TORSDO>
F 6

$$$$
=
 OpenBabel11052412113D

 56 65  0  0  1  0  0  0  0  0999 V2000
  159.7910  208.9000  152.0730 C   0  0  2  0  0  3  0  0  0  0  0  0
  158.4430  214.0810  152.3770 C   0  0  0  0  0  2  0  0  0  0  0  0
  161.3890  210.9320  150.3840 C   0  0  0  0  0  3  0  0  0  0  0  0
  160.4720  205.8520  152.6650 C   0  0  0  0  0  1  0  0  0  0  0  0
  157.8480  213.8940  147.6190 C   0  0  0  0  0  0  0  0  0  0  0  0
  159.9290  213.0460  148.5460 C   0  0  0  0  0  0  0  0  0  0  0  0
  162.1710  208.6660  151.0300 C   0  0  0  0  0  0  0  0  0  0  0  0
  159.2850  212.2550  153.8870 C   0  0  1  0  0  3  0  0  0  0  0  0
  157.0440  214.4520  146.4810 C   0  0  0  0  0  2  0  0  0  0  0  0
  161.9770  212.1510  149.7580 C   0  0  2  0  0  3  0  0  0  0  0  0
  159.4470  208.7060  153.5400 C   0  0  0  0  0  2  0  0  0  0  0  0
  157.4950  213.4790  151.3520 C   0  0  0  0  0  2  0  0  0  0  0  0
  159.7100  213.2560  146.0480 C   0  0  0  0  0  3  0  0  0  0  0  0
  161.3350  212.5030  148.4060 C   0  0  2  0  0  3  0  0  0  0  0  0
  162.1950  213.4720  147.7130 N   0  0  0  0  0  2  0  0  0  0  0  0
  163.5580  210.4500  149.8670 N   0  0  0  0  0  0  0  0  0  0  0  0
  163.3530  211.6650  149.4870 C   0  0  0  0  0  0  0  0  0  0  0  0
  161.0680  208.1760  151.7300 C   0  0  2  0  0  3  0  0  0  0  0  0
  157.6010  212.2990  145.1770 C   0  0  0  0  0  2  0  0  0  0  0  0
  162.6080  206.6070  151.4700 C   0  0  0  0  0  0  0  0  0  0  0  0
  158.9990  212.8330  144.9980 C   0  0  0  0  0  0  0  0  0  0  0  0
  158.9670  211.0550  152.9930 C   0  0  0  0  0  2  0  0  0  0  0  0
  159.3590  213.1050  149.7810 N   0  0  0  0  0  0  0  0  0  0  0  0
  164.2610  212.4100  148.5710 C   0  0  0  0  0  2  0  0  0  0  0  0
  156.5680  213.3860  145.4880 C   0  0  0  0  0  2  0  0  0  0  0  0
  163.4500  212.8120  147.3320 C   0  0  0  0  0  2  0  0  0  0  0  0
  161.3530  206.8470  151.9880 C   0  0  0  0  0  0  0  0  0  0  0  0
  163.1130  207.7090  150.8890 N   0  0  0  0  0  0  0  0  0  0  0  0
  158.2690  213.3840  153.7150 C   0  0  0  0  0  2  0  0  0  0  0  0
  158.0880  213.5370  149.9870 C   0  0  0  0  0  0  0  0  0  0  0  0
  159.1570  213.3990  147.4160 C   0  0  0  0  0  0  0  0  0  0  0  0
  160.0630  210.0060  153.0830 C   0  0  2  0  0  3  0  0  0  0  0  0
  162.3440  210.0160  150.4650 C   0  0  0  0  0  0  0  0  0  0  0  0
  157.3130  213.9490  148.9050 C   0  0  0  0  0  3  0  0  0  0  0  0
  159.3160  213.6470  142.7100 C   0  0  0  0  0  3  0  0  0  0  0  0
  159.6510  212.8090  143.6850 C   0  0  0  0  0  3  0  0  0  0  0  0
  159.1160  210.9000  141.1550 C   0  0  0  0  0  2  0  0  0  0  0  0
  159.4420  213.8010  138.9610 O   0  0  0  0  0  1  0  0  0  0  0  0
  161.3430  211.5310  142.0770 C   0  0  0  0  0  2  0  0  0  0  0  0
  161.3820  212.9150  141.4330 C   0  0  0  0  0  2  0  0  0  0  0  0
  160.0140  213.6020  141.3820 C   0  0  1  0  0  3  0  0  0  0  0  0
  157.7840  212.6470  140.3570 C   0  0  2  0  0  3  0  0  0  0  0  0
  159.1520  213.1670  140.1710 C   0  0  1  0  0  0  0  0  0  0  0  0
  160.5840  210.5220  141.2280 C   0  0  0  0  0  2  0  0  0  0  0  0
  158.8740  211.7200  139.9740 N   0  0  1  0  0  0  0  0  0  0  0  0
  156.1180  211.1750  137.5820 C   0  0  0  0  0  2  0  0  0  0  0  0
  154.9040  211.5650  138.3870 C   0  0  0  0  0  2  0  0  0  0  0  0
  156.5620  214.3750  139.0060 C   0  0  0  0  0  1  0  0  0  0  0  0
  155.4500  212.2640  139.6120 C   0  0  0  0  0  2  0  0  0  0  0  0
  156.7760  212.8840  139.2070 C   0  0  0  0  0  0  0  0  0  0  0  0
  157.1510  212.2440  137.8670 C   0  0  0  0  0  2  0  0  0  0  0  0
  162.0600  204.1240  150.9020 C   0  0  0  0  0  1  0  0  0  0  0  0
  163.4850  205.0480  151.5430 S   0  0  0  0  0  0  0  0  0  0  0  0
  159.3790  211.8640  155.2950 N   0  0  0  0  0  2  0  0  0  0  0  0
  160.4590  212.4740  155.8470 O   0  0  0  0  0  0  0  0  0  0  0  0
  160.5300  211.9570  157.1410 C   0  0  0  0  0  1  0  0  0  0  0  0
  1 32  1  0  0  0  0
  1 11  1  1  0  0  0
  2 29  1  0  0  0  0
  3 33  2  0  0  0  0
  5 34  1  0  0  0  0
  6 23  2  0  0  0  0
  8 54  1  1  0  0  0
  9  5  1  0  0  0  0
 10  3  1  6  0  0  0
 12  2  1  0  0  0  0
 13 31  1  0  0  0  0
 14 15  1  1  0  0  0
 14  6  1  0  0  0  0
 14 10  1  0  0  0  0
 16 33  1  0  0  0  0
 17 10  1  0  0  0  0
 17 16  2  0  0  0  0
 18  7  1  6  0  0  0
 18 27  1  0  0  0  0
 18  1  1  0  0  0  0
 19 25  1  0  0  0  0
 20 53  1  0  0  0  0
 20 27  2  0  0  0  0
 21 19  1  0  0  0  0
 21 13  2  0  0  0  0
 22  8  1  0  0  0  0
 23 30  1  0  0  0  0
 24 17  1  0  0  0  0
 25  9  1  0  0  0  0
 26 15  1  0  0  0  0
 26 24  1  0  0  0  0
 27  4  1  0  0  0  0
 28  7  2  0  0  0  0
 28 20  1  0  0  0  0
 29  8  1  0  0  0  0
 30 12  1  0  0  0  0
 31  5  2  0  0  0  0
 31  6  1  0  0  0  0
 32 22  1  6  0  0  0
 32 11  1  0  0  0  0
 33  7  1  0  0  0  0
 34 30  2  0  0  0  0
 35 36  2  0  0  0  0
 36 21  1  0  0  0  0
 37 44  1  0  0  0  0
 40 39  1  0  0  0  0
 41 40  1  0  0  0  0
 41 35  1  1  0  0  0
 42 50  1  6  0  0  0
 43 38  1  6  0  0  0
 43 42  1  0  0  0  0
 43 41  1  0  0  0  0
 44 39  1  0  0  0  0
 45 43  1  0  0  0  0
 45 42  1  0  0  0  0
 45 37  1  1  0  0  0
 46 51  1  0  0  0  0
 46 47  1  0  0  0  0
 47 49  1  0  0  0  0
 48 50  1  0  0  0  0
 50 49  1  0  0  0  0
 51 50  1  0  0  0  0
 52 53  1  0  0  0  0
 54 55  1  0  0  0  0
 55 56  1  0  0  0  0
M  END
>  <MODEL>
2

>  <REMARK>
 VINA RESULT:       7.2      1.933      2.380
  Name = 
  6 active torsions:
  status: ('A' for Active; 'I' for Inactive)
    1  A    between atoms: C_9  and  C_29
    2  A    between atoms: N_13  and  C_14
    3  A    between atoms: N_13  and  O_22
    4  A    between atoms: C_23  and  C_36
    5  A    between atoms: C_34  and  S_40
    6  A    between atoms: C_37  and  C_39
                            x       y       z     vdW  Elec       q    Type
                         _______ _______ _______ _____ _____    ______ ____

>  <TORSDO>
F 6

$$$$
