=
 OpenBabel11052410423D

 35 39  0  0  1  0  0  0  0  0999 V2000
  161.5540  204.7740  149.7600 C   0  0  0  0  0  0  0  0  0  0  0  0
  161.6460  206.0040  149.2760 C   0  0  0  0  0  0  0  0  0  0  0  0
  160.8160  207.8690  153.7910 C   0  0  0  0  0  0  0  0  0  0  0  0
  161.6550  204.4850  147.5620 C   0  0  1  0  0  3  0  0  0  0  0  0
  163.2080  207.5490  150.1370 O   0  0  0  0  0  1  0  0  0  0  0  0
  161.8360  205.9490  147.8020 C   0  0  1  0  0  3  0  0  0  0  0  0
  161.8530  207.2130  150.1470 C   0  0  2  0  0  3  0  0  0  0  0  0
  161.2730  205.6780  152.0980 C   0  0  0  0  0  0  0  0  0  0  0  0
  160.6580  204.8190  145.4530 C   0  0  0  0  0  0  0  0  0  0  0  0
  160.2330  204.3480  144.1800 N   0  0  0  0  0  1  0  0  0  0  0  0
  161.4960  203.7930  148.6820 C   0  0  0  0  0  2  0  0  0  0  0  0
  161.3830  203.3370  151.6350 O   0  0  0  0  0  0  0  0  0  0  0  0
  160.9500  205.4790  153.4420 C   0  0  0  0  0  3  0  0  0  0  0  0
  161.1420  208.1010  152.4380 C   0  0  0  0  0  0  0  0  0  0  0  0
  160.3080  206.2000  145.8780 C   0  0  0  0  0  3  0  0  0  0  0  0
  161.2510  204.0020  146.2790 N   0  0  0  0  0  0  0  0  0  0  0  0
  161.3940  206.9950  151.5830 C   0  0  0  0  0  0  0  0  0  0  0  0
  161.4170  204.5180  151.1940 C   0  0  0  0  0  0  0  0  0  0  0  0
  160.7340  206.5650  154.2820 C   0  0  0  0  0  3  0  0  0  0  0  0
  160.8100  206.7160  147.0110 C   0  0  0  0  0  3  0  0  0  0  0  0
  160.5840  208.9950  154.7470 C   0  0  0  0  0  2  0  0  0  0  0  0
  161.6120  208.9920  155.7720 N   0  0  0  0  0  1  0  0  0  0  0  0
  162.4970  210.0540  152.1430 O   0  0  0  0  0  1  0  0  0  0  0  0
  161.2180  209.5240  151.9480 C   0  0  2  0  0  3  0  0  0  0  0  0
  159.9140  211.6780  152.1820 C   0  0  0  0  0  0  0  0  0  0  0  0
  160.2200  210.3510  152.6090 N   0  0  0  0  0  2  0  0  0  0  0  0
  160.4980  212.1800  151.1830 O   0  0  0  0  0  0  0  0  0  0  0  0
  158.0890  213.3610  151.9910 C   0  0  0  0  0  2  0  0  0  0  0  0
  156.8370  213.9430  152.6630 C   0  0  0  0  0  2  0  0  0  0  0  0
  158.0020  211.5550  153.7750 C   0  0  0  0  0  2  0  0  0  0  0  0
  156.8630  213.7410  154.1130 N   0  0  0  0  0  0  0  0  0  0  0  0
  156.7940  212.2990  154.3650 C   0  0  0  0  0  2  0  0  0  0  0  0
  158.8990  212.4700  152.9360 C   0  0  0  0  0  3  0  0  0  0  0  0
  155.7220  214.2800  154.6060 O   0  0  0  0  0  0  0  0  0  0  0  0
  154.7800  214.1180  153.5870 C   0  0  0  0  0  1  0  0  0  0  0  0
  1 18  1  0  0  0  0
  2  1  2  0  0  0  0
  2  7  1  0  0  0  0
  3 19  1  0  0  0  0
  3 21  1  0  0  0  0
  4  6  1  0  0  0  0
  4 11  1  1  0  0  0
  6 20  1  6  0  0  0
  6  2  1  0  0  0  0
  7  5  1  1  0  0  0
  7 17  1  0  0  0  0
  8 13  1  0  0  0  0
  9 15  1  0  0  0  0
  9 16  2  0  0  0  0
 10  9  1  0  0  0  0
 11  1  1  0  0  0  0
 13 19  2  0  0  0  0
 14  3  2  0  0  0  0
 15 20  2  0  0  0  0
 16  4  1  0  0  0  0
 17  8  2  0  0  0  0
 17 14  1  0  0  0  0
 18 12  2  0  0  0  0
 18  8  1  0  0  0  0
 21 22  1  0  0  0  0
 24 23  1  1  0  0  0
 24 14  1  0  0  0  0
 24 26  1  0  0  0  0
 25 26  1  0  0  0  0
 25 33  1  0  0  0  0
 27 25  2  0  0  0  0
 28 29  1  0  0  0  0
 28 33  1  0  0  0  0
 29 31  1  0  0  0  0
 30 32  1  0  0  0  0
 31 32  1  0  0  0  0
 31 34  1  0  0  0  0
 33 30  1  0  0  0  0
 35 34  1  0  0  0  0
M  END
>  <MODEL>
1

>  <REMARK>
 VINA RESULT:      -9.3      0.000      0.000
  Name = 
  5 active torsions:
  status: ('A' for Active; 'I' for Inactive)
    1  A    between atoms: C_2  and  C_27
    2  A    between atoms: C_4  and  C_5
    3  A    between atoms: C_10  and  N_11
    4  A    between atoms: C_10  and  C_26
    5  A    between atoms: O_16  and  N_24
                            x       y       z     vdW  Elec       q    Type
                         _______ _______ _______ _____ _____    ______ ____

>  <TORSDO>
F 5

$$$$
=
 OpenBabel11052410423D

 35 39  0  0  1  0  0  0  0  0999 V2000
  161.3510  204.9430  150.3890 C   0  0  0  0  0  0  0  0  0  0  0  0
  161.6450  206.1450  149.9190 C   0  0  0  0  0  0  0  0  0  0  0  0
  160.8270  208.1200  154.3900 C   0  0  0  0  0  0  0  0  0  0  0  0
  161.5380  204.6370  148.1990 C   0  0  1  0  0  3  0  0  0  0  0  0
  163.3590  207.4540  150.8780 O   0  0  0  0  0  1  0  0  0  0  0  0
  161.9120  206.0610  148.4580 C   0  0  1  0  0  3  0  0  0  0  0  0
  161.9720  207.3150  150.8080 C   0  0  2  0  0  3  0  0  0  0  0  0
  161.0650  205.8820  152.7120 C   0  0  0  0  0  0  0  0  0  0  0  0
  160.7250  205.1050  146.0380 C   0  0  0  0  0  0  0  0  0  0  0  0
  160.3120  204.6960  144.7390 N   0  0  0  0  0  1  0  0  0  0  0  0
  161.2170  203.9780  149.3040 C   0  0  0  0  0  2  0  0  0  0  0  0
  160.8670  203.5490  152.2420 O   0  0  0  0  0  0  0  0  0  0  0  0
  160.6390  205.7340  154.0340 C   0  0  0  0  0  3  0  0  0  0  0  0
  161.2610  208.3000  153.0590 C   0  0  0  0  0  0  0  0  0  0  0  0
  160.5510  206.5230  146.4500 C   0  0  0  0  0  3  0  0  0  0  0  0
  161.1450  204.2140  146.8920 N   0  0  0  0  0  0  0  0  0  0  0  0
  161.4030  207.1680  152.2130 C   0  0  0  0  0  0  0  0  0  0  0  0
  161.0950  204.7110  151.8110 C   0  0  0  0  0  0  0  0  0  0  0  0
  160.5310  206.8420  154.8670 C   0  0  0  0  0  3  0  0  0  0  0  0
  161.0540  206.9640  147.6130 C   0  0  0  0  0  3  0  0  0  0  0  0
  160.7030  209.2700  155.3370 C   0  0  0  0  0  2  0  0  0  0  0  0
  159.3310  209.3790  155.8030 N   0  0  0  0  0  1  0  0  0  0  0  0
  162.2530  210.4210  153.5630 O   0  0  0  0  0  1  0  0  0  0  0  0
  161.5690  209.6970  152.5830 C   0  0  2  0  0  3  0  0  0  0  0  0
  159.8870  211.5640  152.8640 C   0  0  0  0  0  0  0  0  0  0  0  0
  160.3490  210.3900  152.1970 N   0  0  0  0  0  2  0  0  0  0  0  0
  160.5480  212.0610  153.8160 O   0  0  0  0  0  0  0  0  0  0  0  0
  157.8560  212.7910  153.6180 C   0  0  0  0  0  2  0  0  0  0  0  0
  156.7120  213.7180  153.1850 C   0  0  0  0  0  2  0  0  0  0  0  0
  158.8550  213.2300  151.3240 C   0  0  0  0  0  2  0  0  0  0  0  0
  156.4320  213.5940  151.7530 N   0  0  0  0  0  0  0  0  0  0  0  0
  157.6080  214.0760  151.0240 C   0  0  0  0  0  2  0  0  0  0  0  0
  158.6080  212.1950  152.4250 C   0  0  0  0  0  3  0  0  0  0  0  0
  155.4200  214.4500  151.4740 O   0  0  0  0  0  0  0  0  0  0  0  0
  155.3210  214.4450  150.0800 C   0  0  0  0  0  1  0  0  0  0  0  0
  1 18  1  0  0  0  0
  2  1  2  0  0  0  0
  2  7  1  0  0  0  0
  3 19  1  0  0  0  0
  3 21  1  0  0  0  0
  4  6  1  0  0  0  0
  4 11  1  1  0  0  0
  6 20  1  6  0  0  0
  6  2  1  0  0  0  0
  7  5  1  1  0  0  0
  7 17  1  0  0  0  0
  8 13  1  0  0  0  0
  9 15  1  0  0  0  0
  9 16  2  0  0  0  0
 10  9  1  0  0  0  0
 11  1  1  0  0  0  0
 13 19  2  0  0  0  0
 14  3  2  0  0  0  0
 15 20  2  0  0  0  0
 16  4  1  0  0  0  0
 17  8  2  0  0  0  0
 17 14  1  0  0  0  0
 18 12  2  0  0  0  0
 18  8  1  0  0  0  0
 21 22  1  0  0  0  0
 24 14  1  0  0  0  0
 24 23  1  1  0  0  0
 25 27  2  0  0  0  0
 26 24  1  0  0  0  0
 26 25  1  0  0  0  0
 29 28  1  0  0  0  0
 30 33  1  0  0  0  0
 31 29  1  0  0  0  0
 32 30  1  0  0  0  0
 32 31  1  0  0  0  0
 33 25  1  0  0  0  0
 33 28  1  0  0  0  0
 34 31  1  0  0  0  0
 35 34  1  0  0  0  0
M  END
>  <MODEL>
2

>  <REMARK>
 VINA RESULT:      -7.6      1.261      1.534
  Name = 
  5 active torsions:
  status: ('A' for Active; 'I' for Inactive)
    1  A    between atoms: C_2  and  C_27
    2  A    between atoms: C_4  and  C_5
    3  A    between atoms: C_10  and  N_11
    4  A    between atoms: C_10  and  C_26
    5  A    between atoms: O_16  and  N_24
                            x       y       z     vdW  Elec       q    Type
                         _______ _______ _______ _____ _____    ______ ____

>  <TORSDO>
F 5

$$$$
=
 OpenBabel11052410423D

 35 39  0  0  1  0  0  0  0  0999 V2000
  159.4970  212.3380  153.1630 C   0  0  0  0  0  0  0  0  0  0  0  0
  159.3840  211.2210  153.8660 C   0  0  0  0  0  0  0  0  0  0  0  0
  161.8340  208.7320  150.3510 C   0  0  0  0  0  0  0  0  0  0  0  0
  158.1380  212.8830  154.8300 C   0  0  1  0  0  3  0  0  0  0  0  0
  161.2840  209.9810  154.5130 O   0  0  0  0  0  1  0  0  0  0  0  0
  158.5800  211.4800  155.0910 C   0  0  1  0  0  3  0  0  0  0  0  0
  160.2240  210.0010  153.6050 C   0  0  2  0  0  3  0  0  0  0  0  0
  160.8710  211.1420  151.4190 C   0  0  0  0  0  0  0  0  0  0  0  0
  156.0640  212.5690  155.9040 C   0  0  0  0  0  0  0  0  0  0  0  0
  154.8770  213.0710  156.5060 N   0  0  0  0  0  1  0  0  0  0  0  0
  158.6610  213.3940  153.7240 C   0  0  0  0  0  2  0  0  0  0  0  0
  160.4170  213.4840  151.3060 O   0  0  0  0  0  0  0  0  0  0  0  0
  161.4650  211.1140  150.1550 C   0  0  0  0  0  3  0  0  0  0  0  0
  161.2400  208.7290  151.6310 C   0  0  0  0  0  0  0  0  0  0  0  0
  156.2120  211.1070  155.6820 C   0  0  0  0  0  3  0  0  0  0  0  0
  156.9590  213.4020  155.4500 N   0  0  0  0  0  0  0  0  0  0  0  0
  160.7710  209.9500  152.1840 C   0  0  0  0  0  0  0  0  0  0  0  0
  160.2830  212.3980  151.9300 C   0  0  0  0  0  0  0  0  0  0  0  0
  161.9500  209.9210  149.6310 C   0  0  0  0  0  3  0  0  0  0  0  0
  157.3720  210.5950  155.2430 C   0  0  0  0  0  3  0  0  0  0  0  0
  162.3850  207.4830  149.7400 C   0  0  0  0  0  2  0  0  0  0  0  0
  162.4160  207.6150  148.2940 N   0  0  0  0  0  1  0  0  0  0  0  0
  162.2980  207.1590  153.0990 O   0  0  0  0  0  1  0  0  0  0  0  0
  161.1320  207.4220  152.3750 C   0  0  2  0  0  3  0  0  0  0  0  0
  160.8730  204.9600  151.8580 C   0  0  0  0  0  0  0  0  0  0  0  0
  160.8460  206.3300  151.4570 N   0  0  0  0  0  2  0  0  0  0  0  0
  161.1320  204.6480  153.0520 O   0  0  0  0  0  0  0  0  0  0  0  0
  161.1440  204.3010  149.4720 C   0  0  0  0  0  2  0  0  0  0  0  0
  161.1720  203.1240  148.4870 C   0  0  0  0  0  2  0  0  0  0  0  0
  161.1430  202.5450  151.3080 C   0  0  0  0  0  2  0  0  0  0  0  0
  160.4190  201.9780  148.9960 N   0  0  0  0  0  0  0  0  0  0  0  0
  161.1060  201.4870  150.1940 C   0  0  0  0  0  2  0  0  0  0  0  0
  160.5990  203.9000  150.8450 C   0  0  0  0  0  3  0  0  0  0  0  0
  160.5100  201.0000  148.0630 O   0  0  0  0  0  0  0  0  0  0  0  0
  160.7890  201.6700  146.8690 C   0  0  0  0  0  1  0  0  0  0  0  0
  1 11  1  0  0  0  0
  1  2  2  0  0  0  0
  2  6  1  0  0  0  0
  3 14  1  0  0  0  0
  4 11  1  6  0  0  0
  4  6  1  0  0  0  0
  4 16  1  0  0  0  0
  6 20  1  6  0  0  0
  7  2  1  0  0  0  0
  7  5  1  1  0  0  0
  8 18  1  0  0  0  0
  8 17  1  0  0  0  0
  9 10  1  0  0  0  0
 12 18  2  0  0  0  0
 13  8  2  0  0  0  0
 14 17  2  0  0  0  0
 14 24  1  0  0  0  0
 15  9  1  0  0  0  0
 16  9  2  0  0  0  0
 17  7  1  0  0  0  0
 18  1  1  0  0  0  0
 19 13  1  0  0  0  0
 19  3  2  0  0  0  0
 20 15  2  0  0  0  0
 21  3  1  0  0  0  0
 22 21  1  0  0  0  0
 24 23  1  6  0  0  0
 25 27  2  0  0  0  0
 26 25  1  0  0  0  0
 26 24  1  0  0  0  0
 28 33  1  0  0  0  0
 29 31  1  0  0  0  0
 29 28  1  0  0  0  0
 31 32  1  0  0  0  0
 32 30  1  0  0  0  0
 33 30  1  0  0  0  0
 33 25  1  0  0  0  0
 34 31  1  0  0  0  0
 35 34  1  0  0  0  0
M  END
>  <MODEL>
3

>  <REMARK>
 VINA RESULT:      -7.4      2.589      9.513
  Name = 
  5 active torsions:
  status: ('A' for Active; 'I' for Inactive)
    1  A    between atoms: C_2  and  C_27
    2  A    between atoms: C_4  and  C_5
    3  A    between atoms: C_10  and  N_11
    4  A    between atoms: C_10  and  C_26
    5  A    between atoms: O_16  and  N_24
                            x       y       z     vdW  Elec       q    Type
                         _______ _______ _______ _____ _____    ______ ____

>  <TORSDO>
F 5

$$$$
=
 OpenBabel11052410423D

 35 39  0  0  1  0  0  0  0  0999 V2000
  161.7290  209.5130  152.2300 C   0  0  0  0  0  0  0  0  0  0  0  0
  161.4570  208.3340  152.7690 C   0  0  0  0  0  0  0  0  0  0  0  0
  161.4110  206.2590  148.2690 C   0  0  0  0  0  0  0  0  0  0  0  0
  161.3430  209.9710  154.3670 C   0  0  1  0  0  3  0  0  0  0  0  0
  162.8500  206.4650  152.4010 O   0  0  0  0  0  1  0  0  0  0  0  0
  161.2880  208.4820  154.2390 C   0  0  1  0  0  3  0  0  0  0  0  0
  161.6320  207.0350  152.0300 C   0  0  2  0  0  3  0  0  0  0  0  0
  161.8570  208.4720  149.9360 C   0  0  0  0  0  0  0  0  0  0  0  0
  159.8150  210.0070  156.1600 C   0  0  0  0  0  0  0  0  0  0  0  0
  159.1910  210.6560  157.2610 N   0  0  0  0  0  1  0  0  0  0  0  0
  161.6010  210.5790  153.2170 C   0  0  0  0  0  2  0  0  0  0  0  0
  162.3050  210.7870  150.3190 O   0  0  0  0  0  0  0  0  0  0  0  0
  161.9190  208.6070  148.5470 C   0  0  0  0  0  3  0  0  0  0  0  0
  161.3440  206.0920  149.6690 C   0  0  0  0  0  0  0  0  0  0  0  0
  159.3170  208.6790  155.7140 C   0  0  0  0  0  3  0  0  0  0  0  0
  160.7390  210.6290  155.4820 N   0  0  0  0  0  0  0  0  0  0  0  0
  161.5890  207.2050  150.5160 C   0  0  0  0  0  0  0  0  0  0  0  0
  161.9990  209.6630  150.8000 C   0  0  0  0  0  0  0  0  0  0  0  0
  161.7080  207.5080  147.7230 C   0  0  0  0  0  3  0  0  0  0  0  0
  159.9700  207.9840  154.7700 C   0  0  0  0  0  3  0  0  0  0  0  0
  161.2040  205.1120  147.3320 C   0  0  0  0  0  2  0  0  0  0  0  0
  161.3220  205.5710  145.9590 N   0  0  0  0  0  1  0  0  0  0  0  0
  161.9960  204.3050  151.1250 O   0  0  0  0  0  1  0  0  0  0  0  0
  161.0180  204.7260  150.2180 C   0  0  2  0  0  3  0  0  0  0  0  0
  160.6060  202.3770  149.3780 C   0  0  0  0  0  0  0  0  0  0  0  0
  160.8730  203.7580  149.1410 N   0  0  0  0  0  2  0  0  0  0  0  0
  160.4640  201.9450  150.5550 O   0  0  0  0  0  0  0  0  0  0  0  0
  160.4510  202.2200  146.8980 C   0  0  0  0  0  2  0  0  0  0  0  0
  160.6680  201.3150  145.6780 C   0  0  0  0  0  2  0  0  0  0  0  0
  161.6380  200.4170  148.2370 C   0  0  0  0  0  2  0  0  0  0  0  0
  160.5930  199.8980  146.0390 N   0  0  0  0  0  0  0  0  0  0  0  0
  161.7150  199.6050  146.9340 C   0  0  0  0  0  2  0  0  0  0  0  0
  160.5030  201.4450  148.2170 C   0  0  0  0  0  3  0  0  0  0  0  0
  160.8010  199.1900  144.9030 O   0  0  0  0  0  0  0  0  0  0  0  0
  161.3450  197.9760  145.3330 C   0  0  0  0  0  1  0  0  0  0  0  0
  1  2  2  0  0  0  0
  1 11  1  0  0  0  0
  2  6  1  0  0  0  0
  3 14  1  0  0  0  0
  4 11  1  6  0  0  0
  4 16  1  0  0  0  0
  6  4  1  0  0  0  0
  6 20  1  6  0  0  0
  7  5  1  6  0  0  0
  7  2  1  0  0  0  0
  8 17  1  0  0  0  0
  8 18  1  0  0  0  0
  9 10  1  0  0  0  0
 12 18  2  0  0  0  0
 13  8  2  0  0  0  0
 14 24  1  0  0  0  0
 14 17  2  0  0  0  0
 15  9  1  0  0  0  0
 16  9  2  0  0  0  0
 17  7  1  0  0  0  0
 18  1  1  0  0  0  0
 19  3  2  0  0  0  0
 19 13  1  0  0  0  0
 20 15  2  0  0  0  0
 21  3  1  0  0  0  0
 22 21  1  0  0  0  0
 24 23  1  1  0  0  0
 25 27  2  0  0  0  0
 26 25  1  0  0  0  0
 26 24  1  0  0  0  0
 28 33  1  0  0  0  0
 29 31  1  0  0  0  0
 29 28  1  0  0  0  0
 31 32  1  0  0  0  0
 32 30  1  0  0  0  0
 33 30  1  0  0  0  0
 33 25  1  0  0  0  0
 34 35  1  0  0  0  0
 34 31  1  0  0  0  0
M  END
>  <MODEL>
4

>  <REMARK>
 VINA RESULT:      -6.5      3.004     10.056
  Name = 
  5 active torsions:
  status: ('A' for Active; 'I' for Inactive)
    1  A    between atoms: C_2  and  C_27
    2  A    between atoms: C_4  and  C_5
    3  A    between atoms: C_10  and  N_11
    4  A    between atoms: C_10  and  C_26
    5  A    between atoms: O_16  and  N_24
                            x       y       z     vdW  Elec       q    Type
                         _______ _______ _______ _____ _____    ______ ____

>  <TORSDO>
F 5

$$$$
=
 OpenBabel11052410423D

 35 39  0  0  1  0  0  0  0  0999 V2000
  161.8430  208.3860  148.7550 C   0  0  0  0  0  0  0  0  0  0  0  0
  161.8520  208.3610  150.0790 C   0  0  0  0  0  0  0  0  0  0  0  0
  160.9160  203.4960  150.0170 C   0  0  0  0  0  0  0  0  0  0  0  0
  161.9560  210.5250  149.3360 C   0  0  1  0  0  3  0  0  0  0  0  0
  163.3130  206.9410  151.2700 O   0  0  0  0  0  1  0  0  0  0  0  0
  162.0410  209.7390  150.6050 C   0  0  1  0  0  3  0  0  0  0  0  0
  161.9830  207.0900  150.8730 C   0  0  2  0  0  3  0  0  0  0  0  0
  161.5100  205.8880  148.6750 C   0  0  0  0  0  0  0  0  0  0  0  0
  160.9330  212.3670  150.3900 C   0  0  0  0  0  0  0  0  0  0  0  0
  160.5360  213.7330  150.4170 N   0  0  0  0  0  1  0  0  0  0  0  0
  161.8460  209.7580  148.2600 C   0  0  0  0  0  2  0  0  0  0  0  0
  161.7710  207.2080  146.7020 O   0  0  0  0  0  0  0  0  0  0  0  0
  161.2050  204.7300  147.9570 C   0  0  0  0  0  3  0  0  0  0  0  0
  161.2220  204.6490  150.7700 C   0  0  0  0  0  0  0  0  0  0  0  0
  160.4950  211.4550  151.4790 C   0  0  0  0  0  3  0  0  0  0  0  0
  161.5800  211.9040  149.3580 N   0  0  0  0  0  0  0  0  0  0  0  0
  161.5430  205.8570  150.0940 C   0  0  0  0  0  0  0  0  0  0  0  0
  161.7270  207.1630  147.9610 C   0  0  0  0  0  0  0  0  0  0  0  0
  160.9210  203.5420  148.6230 C   0  0  0  0  0  3  0  0  0  0  0  0
  160.9660  210.2000  151.5520 C   0  0  0  0  0  3  0  0  0  0  0  0
  160.6130  202.1880  150.6760 C   0  0  0  0  0  2  0  0  0  0  0  0
  160.7960  201.1040  149.7260 N   0  0  0  0  0  1  0  0  0  0  0  0
  160.5540  203.3940  152.6970 O   0  0  0  0  0  1  0  0  0  0  0  0
  161.2040  204.5570  152.2740 C   0  0  2  0  0  3  0  0  0  0  0  0
  161.1860  206.5070  153.8840 C   0  0  0  0  0  0  0  0  0  0  0  0
  160.5720  205.7320  152.8550 N   0  0  0  0  0  2  0  0  0  0  0  0
  162.3310  206.2030  154.3170 O   0  0  0  0  0  0  0  0  0  0  0  0
  160.0330  207.4160  155.8950 C   0  0  0  0  0  2  0  0  0  0  0  0
  159.5710  208.6930  156.6110 C   0  0  0  0  0  2  0  0  0  0  0  0
  161.2850  208.9600  154.3120 C   0  0  0  0  0  2  0  0  0  0  0  0
  159.3750  209.7970  155.6700 N   0  0  0  0  0  0  0  0  0  0  0  0
  160.6820  210.1340  155.0990 C   0  0  0  0  0  2  0  0  0  0  0  0
  160.4550  207.6790  154.4470 C   0  0  0  0  0  3  0  0  0  0  0  0
  158.9760  210.8680  156.3970 O   0  0  0  0  0  0  0  0  0  0  0  0
  157.8060  211.3090  155.7720 C   0  0  0  0  0  1  0  0  0  0  0  0
  1  2  2  0  0  0  0
  2  6  1  0  0  0  0
  2  7  1  0  0  0  0
  3 21  1  0  0  0  0
  3 14  1  0  0  0  0
  4 11  1  6  0  0  0
  4 16  1  0  0  0  0
  4  6  1  0  0  0  0
  6 20  1  1  0  0  0
  7  5  1  6  0  0  0
  8 17  1  0  0  0  0
  9 10  1  0  0  0  0
  9 15  1  0  0  0  0
 11  1  1  0  0  0  0
 12 18  2  0  0  0  0
 13 19  1  0  0  0  0
 13  8  2  0  0  0  0
 14 24  1  0  0  0  0
 15 20  2  0  0  0  0
 16  9  2  0  0  0  0
 17 14  2  0  0  0  0
 17  7  1  0  0  0  0
 18  8  1  0  0  0  0
 18  1  1  0  0  0  0
 19  3  2  0  0  0  0
 22 21  1  0  0  0  0
 24 23  1  6  0  0  0
 24 26  1  0  0  0  0
 25 27  2  0  0  0  0
 25 33  1  0  0  0  0
 26 25  1  0  0  0  0
 28 29  1  0  0  0  0
 30 33  1  0  0  0  0
 30 32  1  0  0  0  0
 31 34  1  0  0  0  0
 31 29  1  0  0  0  0
 32 31  1  0  0  0  0
 33 28  1  0  0  0  0
 35 34  1  0  0  0  0
M  END
>  <MODEL>
5

>  <REMARK>
 VINA RESULT:      -6.4      2.763      6.011
  Name = 
  5 active torsions:
  status: ('A' for Active; 'I' for Inactive)
    1  A    between atoms: C_2  and  C_27
    2  A    between atoms: C_4  and  C_5
    3  A    between atoms: C_10  and  N_11
    4  A    between atoms: C_10  and  C_26
    5  A    between atoms: O_16  and  N_24
                            x       y       z     vdW  Elec       q    Type
                         _______ _______ _______ _____ _____    ______ ____

>  <TORSDO>
F 5

$$$$
