=
 OpenBabel11052410153D

 25 29  0  0  1  0  0  0  0  0999 V2000
  161.1650  204.6800  149.6880 O   0  0  0  0  0  0  0  0  0  0  0  0
  161.3880  209.3200  151.4070 N   0  0  0  0  0  2  0  0  0  0  0  0
  161.6160  207.4490  150.1850 C   0  0  2  0  0  0  0  0  0  0  0  0
  161.9150  205.3240  152.0750 C   0  0  2  0  0  3  0  0  0  0  0  0
  160.8950  205.2190  150.9390 C   0  0  2  0  0  0  0  0  0  0  0  0
  161.2460  204.0340  151.8470 C   0  0  0  0  0  2  0  0  0  0  0  0
  162.5520  208.4090  149.6110 N   0  0  0  0  0  2  0  0  0  0  0  0
  160.8010  207.4360  152.7430 C   0  0  0  0  0  3  0  0  0  0  0  0
  160.7500  206.8360  149.1520 C   0  0  2  0  0  3  0  0  0  0  0  0
  161.0480  208.0800  151.4280 C   0  0  1  0  0  3  0  0  0  0  0  0
  162.1780  209.5450  150.3040 O   0  0  0  0  0  0  0  0  0  0  0  0
  161.1970  206.1920  153.0600 C   0  0  0  0  0  3  0  0  0  0  0  0
  161.7670  205.9210  149.8930 C   0  0  2  0  0  0  0  0  0  0  0  0
  161.2000  207.0230  147.7040 C   0  0  0  0  0  2  0  0  0  0  0  0
  159.8100  206.4070  145.8690 O   0  0  0  0  0  1  0  0  0  0  0  0
  160.6770  205.8890  146.8310 C   0  0  1  0  0  3  0  0  0  0  0  0
  161.7990  205.1500  146.1550 C   0  0  0  0  0  0  0  0  0  0  0  0
  162.7420  205.7680  145.6850 O   0  0  0  0  0  0  0  0  0  0  0  0
  160.7140  203.2300  145.0230 C   0  0  0  0  0  1  0  0  0  0  0  0
  161.7690  203.6530  146.0270 C   0  0  2  0  0  3  0  0  0  0  0  0
  161.5070  202.9760  147.3640 C   0  0  0  0  0  2  0  0  0  0  0  0
  160.9000  201.6020  147.1530 C   0  0  0  0  0  2  0  0  0  0  0  0
  161.3240  200.6870  148.2820 C   0  0  0  0  0  2  0  0  0  0  0  0
  160.8000  201.2300  149.5950 C   0  0  0  0  0  2  0  0  0  0  0  0
  159.4080  201.2890  149.5500 O   0  0  0  0  0  1  0  0  0  0  0  0
  1  5  1  0  0  0  0
  2 10  1  0  0  0  0
  3  7  1  6  0  0  0
  3 10  1  0  0  0  0
  4  6  1  1  0  0  0
  4 12  1  0  0  0  0
  5  6  1  1  0  0  0
  5  4  1  0  0  0  0
  7 11  1  0  0  0  0
  8 12  2  0  0  0  0
  9 14  1  6  0  0  0
  9 13  1  0  0  0  0
  9  3  1  0  0  0  0
 10  8  1  1  0  0  0
 11  2  1  0  0  0  0
 13  1  1  6  0  0  0
 13  3  1  0  0  0  0
 13  5  1  0  0  0  0
 16 15  1  6  0  0  0
 16 14  1  0  0  0  0
 17 16  1  0  0  0  0
 18 17  2  0  0  0  0
 20 19  1  6  0  0  0
 20 17  1  0  0  0  0
 20 21  1  0  0  0  0
 22 21  1  0  0  0  0
 22 23  1  0  0  0  0
 23 24  1  0  0  0  0
 25 24  1  0  0  0  0
M  END
>  <MODEL>
1

>  <REMARK>
 VINA RESULT:      -7.9      0.000      0.000
  Name = 
  8 active torsions:
  status: ('A' for Active; 'I' for Inactive)
    1  A    between atoms: C_1  and  C_9
    2  A    between atoms: C_1  and  C_12
    3  A    between atoms: C_4  and  C_12
    4  A    between atoms: C_7  and  C_11
    5  A    between atoms: C_7  and  C_20
    6  A    between atoms: C_9  and  C_20
    7  A    between atoms: C_11  and  C_15
    8  A    between atoms: C_15  and  C_19
                            x       y       z     vdW  Elec       q    Type
                         _______ _______ _______ _____ _____    ______ ____

>  <TORSDO>
F 8

$$$$
=
 OpenBabel11052410153D

 25 29  0  0  1  0  0  0  0  0999 V2000
  160.8860  203.5950  151.4590 O   0  0  0  0  0  0  0  0  0  0  0  0
  161.3390  205.3950  146.8670 N   0  0  0  0  0  2  0  0  0  0  0  0
  160.8400  205.0930  149.0370 C   0  0  2  0  0  0  0  0  0  0  0  0
  160.2440  202.3100  149.3120 C   0  0  2  0  0  3  0  0  0  0  0  0
  161.2350  202.9920  150.2580 C   0  0  2  0  0  0  0  0  0  0  0  0
  160.7190  201.5670  150.4890 C   0  0  0  0  0  2  0  0  0  0  0  0
  160.0510  206.2430  148.6090 N   0  0  0  0  0  2  0  0  0  0  0  0
  161.6520  203.1010  147.4310 C   0  0  0  0  0  3  0  0  0  0  0  0
  161.6060  205.3780  150.2710 C   0  0  2  0  0  3  0  0  0  0  0  0
  161.4970  204.5290  147.8050 C   0  0  1  0  0  3  0  0  0  0  0  0
  160.5860  206.4400  147.3500 O   0  0  0  0  0  0  0  0  0  0  0  0
  161.0820  202.0810  148.0940 C   0  0  0  0  0  3  0  0  0  0  0  0
  160.4700  204.3180  150.3420 C   0  0  2  0  0  0  0  0  0  0  0  0
  161.1840  206.6230  151.0490 C   0  0  0  0  0  2  0  0  0  0  0  0
  162.4890  208.0720  149.6790 O   0  0  0  0  0  1  0  0  0  0  0  0
  162.2790  207.6820  151.0010 C   0  0  1  0  0  3  0  0  0  0  0  0
  161.9230  208.8840  151.8330 C   0  0  0  0  0  0  0  0  0  0  0  0
  162.5820  209.9070  151.7400 O   0  0  0  0  0  0  0  0  0  0  0  0
  160.0100  210.1500  152.7710 C   0  0  0  0  0  1  0  0  0  0  0  0
  160.7740  208.8400  152.8000 C   0  0  2  0  0  3  0  0  0  0  0  0
  161.2400  208.5480  154.2190 C   0  0  0  0  0  2  0  0  0  0  0  0
  160.7540  207.1820  154.6670 C   0  0  0  0  0  2  0  0  0  0  0  0
  159.7410  207.3500  155.7780 C   0  0  0  0  0  2  0  0  0  0  0  0
  160.4390  207.8420  157.0280 C   0  0  0  0  0  2  0  0  0  0  0  0
  160.0910  209.1720  157.2610 O   0  0  0  0  0  1  0  0  0  0  0  0
  2 11  1  0  0  0  0
  2 10  1  0  0  0  0
  3  7  1  6  0  0  0
  3  9  1  0  0  0  0
  3 13  1  0  0  0  0
  4 12  1  6  0  0  0
  4  5  1  0  0  0  0
  4  6  1  0  0  0  0
  5 13  1  0  0  0  0
  5  6  1  6  0  0  0
  5  1  1  0  0  0  0
  8 12  2  0  0  0  0
  9 13  1  0  0  0  0
  9 14  1  1  0  0  0
 10  8  1  6  0  0  0
 10  3  1  0  0  0  0
 11  7  1  0  0  0  0
 13  1  1  1  0  0  0
 16 15  1  6  0  0  0
 16 14  1  0  0  0  0
 16 17  1  0  0  0  0
 17 20  1  0  0  0  0
 18 17  2  0  0  0  0
 20 19  1  1  0  0  0
 20 21  1  0  0  0  0
 21 22  1  0  0  0  0
 22 23  1  0  0  0  0
 23 24  1  0  0  0  0
 24 25  1  0  0  0  0
M  END
>  <MODEL>
2

>  <REMARK>
 VINA RESULT:      -7.8      2.522      6.539
  Name = 
  8 active torsions:
  status: ('A' for Active; 'I' for Inactive)
    1  A    between atoms: C_1  and  C_9
    2  A    between atoms: C_1  and  C_12
    3  A    between atoms: C_4  and  C_12
    4  A    between atoms: C_7  and  C_11
    5  A    between atoms: C_7  and  C_20
    6  A    between atoms: C_9  and  C_20
    7  A    between atoms: C_11  and  C_15
    8  A    between atoms: C_15  and  C_19
                            x       y       z     vdW  Elec       q    Type
                         _______ _______ _______ _____ _____    ______ ____

>  <TORSDO>
F 8

$$$$
=
 OpenBabel11052410153D

 25 29  0  0  1  0  0  0  0  0999 V2000
  161.0660  206.1250  153.4710 O   0  0  0  0  0  0  0  0  0  0  0  0
  160.9730  210.7810  151.7870 N   0  0  0  0  0  2  0  0  0  0  0  0
  161.4320  208.6090  152.1250 C   0  0  2  0  0  0  0  0  0  0  0  0
  161.3060  208.2250  154.9560 C   0  0  2  0  0  3  0  0  0  0  0  0
  160.5450  207.2940  154.0090 C   0  0  2  0  0  0  0  0  0  0  0  0
  160.6870  207.0110  155.5090 C   0  0  0  0  0  2  0  0  0  0  0  0
  162.4770  209.0960  151.2330 N   0  0  0  0  0  2  0  0  0  0  0  0
  160.0990  210.1170  153.9020 C   0  0  0  0  0  3  0  0  0  0  0  0
  160.7950  207.3760  151.6090 C   0  0  2  0  0  3  0  0  0  0  0  0
  160.6220  209.8050  152.5480 C   0  0  1  0  0  3  0  0  0  0  0  0
  161.9790  210.3540  150.9520 O   0  0  0  0  0  0  0  0  0  0  0  0
  160.4070  209.4200  155.0080 C   0  0  0  0  0  3  0  0  0  0  0  0
  161.6250  207.2780  152.9210 C   0  0  2  0  0  0  0  0  0  0  0  0
  161.5410  206.6570  150.4850 C   0  0  0  0  0  2  0  0  0  0  0  0
  160.4760  206.5570  148.3550 O   0  0  0  0  0  1  0  0  0  0  0  0
  160.5630  205.9090  149.5870 C   0  0  1  0  0  3  0  0  0  0  0  0
  160.9850  204.4810  149.3800 C   0  0  0  0  0  0  0  0  0  0  0  0
  161.7770  204.2010  148.4930 O   0  0  0  0  0  0  0  0  0  0  0  0
  161.4410  202.9700  151.2910 C   0  0  0  0  0  1  0  0  0  0  0  0
  160.4290  203.3800  150.2370 C   0  0  2  0  0  3  0  0  0  0  0  0
  160.0280  202.1670  149.4110 C   0  0  0  0  0  2  0  0  0  0  0  0
  161.0090  201.0300  149.6240 C   0  0  0  0  0  2  0  0  0  0  0  0
  161.5420  200.5680  148.2850 C   0  0  0  0  0  2  0  0  0  0  0  0
  160.8460  201.3280  147.1760 C   0  0  0  0  0  2  0  0  0  0  0  0
  160.8880  200.5780  146.0020 O   0  0  0  0  0  1  0  0  0  0  0  0
  1  5  1  0  0  0  0
  2 10  1  0  0  0  0
  3  7  1  6  0  0  0
  3 10  1  0  0  0  0
  3 13  1  0  0  0  0
  4 12  1  1  0  0  0
  4  6  1  0  0  0  0
  5  4  1  0  0  0  0
  5  6  1  6  0  0  0
  8 12  2  0  0  0  0
  9 14  1  6  0  0  0
  9  3  1  0  0  0  0
  9 13  1  0  0  0  0
 10  8  1  1  0  0  0
 11  7  1  0  0  0  0
 11  2  1  0  0  0  0
 13  1  1  1  0  0  0
 13  5  1  0  0  0  0
 16 15  1  6  0  0  0
 16 14  1  0  0  0  0
 17 16  1  0  0  0  0
 17 20  1  0  0  0  0
 18 17  2  0  0  0  0
 20 19  1  1  0  0  0
 21 22  1  0  0  0  0
 21 20  1  0  0  0  0
 23 22  1  0  0  0  0
 24 23  1  0  0  0  0
 25 24  1  0  0  0  0
M  END
>  <MODEL>
3

>  <REMARK>
 VINA RESULT:      -7.5      1.980      3.265
  Name = 
  8 active torsions:
  status: ('A' for Active; 'I' for Inactive)
    1  A    between atoms: C_1  and  C_9
    2  A    between atoms: C_1  and  C_12
    3  A    between atoms: C_4  and  C_12
    4  A    between atoms: C_7  and  C_11
    5  A    between atoms: C_7  and  C_20
    6  A    between atoms: C_9  and  C_20
    7  A    between atoms: C_11  and  C_15
    8  A    between atoms: C_15  and  C_19
                            x       y       z     vdW  Elec       q    Type
                         _______ _______ _______ _____ _____    ______ ____

>  <TORSDO>
F 8

$$$$
=
 OpenBabel11052410153D

 25 29  0  0  1  0  0  0  0  0999 V2000
  160.9440  205.8390  154.2950 O   0  0  0  0  0  0  0  0  0  0  0  0
  161.3320  209.5760  151.0670 N   0  0  0  0  0  2  0  0  0  0  0  0
  161.5630  207.6320  152.1700 C   0  0  2  0  0  0  0  0  0  0  0  0
  161.4060  208.2960  154.9460 C   0  0  2  0  0  3  0  0  0  0  0  0
  160.5490  207.1690  154.3650 C   0  0  2  0  0  0  0  0  0  0  0  0
  160.6650  207.4270  155.8720 C   0  0  0  0  0  2  0  0  0  0  0  0
  162.6510  207.6640  151.1990 N   0  0  0  0  0  2  0  0  0  0  0  0
  160.4000  209.7980  153.2490 C   0  0  0  0  0  3  0  0  0  0  0  0
  160.7990  206.3650  152.1020 C   0  0  2  0  0  3  0  0  0  0  0  0
  160.8840  208.9740  152.1120 C   0  0  1  0  0  3  0  0  0  0  0  0
  162.2850  208.7820  150.4730 O   0  0  0  0  0  0  0  0  0  0  0  0
  160.6370  209.5140  154.5400 C   0  0  0  0  0  3  0  0  0  0  0  0
  161.6190  206.6590  153.3920 C   0  0  2  0  0  0  0  0  0  0  0  0
  161.4630  205.2240  151.3320 C   0  0  0  0  0  2  0  0  0  0  0  0
  160.6940  205.6140  149.1100 O   0  0  0  0  0  1  0  0  0  0  0  0
  160.5630  204.7500  150.1980 C   0  0  1  0  0  3  0  0  0  0  0  0
  160.9010  203.3470  149.7730 C   0  0  0  0  0  0  0  0  0  0  0  0
  161.2490  202.5250  150.6060 O   0  0  0  0  0  0  0  0  0  0  0  0
  161.0000  201.4390  148.1940 C   0  0  0  0  0  1  0  0  0  0  0  0
  160.8370  202.9420  148.3280 C   0  0  2  0  0  3  0  0  0  0  0  0
  161.8940  203.6500  147.4940 C   0  0  0  0  0  2  0  0  0  0  0  0
  161.5260  203.6090  146.0230 C   0  0  0  0  0  2  0  0  0  0  0  0
  162.1440  204.7960  145.3180 C   0  0  0  0  0  2  0  0  0  0  0  0
  161.0770  205.5300  144.5340 C   0  0  0  0  0  2  0  0  0  0  0  0
  160.2140  206.1750  145.4180 O   0  0  0  0  0  1  0  0  0  0  0  0
  1  5  1  0  0  0  0
  2 10  1  0  0  0  0
  3  7  1  6  0  0  0
  3 13  1  0  0  0  0
  4 12  1  6  0  0  0
  4  6  1  0  0  0  0
  5  4  1  0  0  0  0
  5  6  1  6  0  0  0
  8 12  2  0  0  0  0
  9 14  1  6  0  0  0
  9  3  1  0  0  0  0
  9 13  1  0  0  0  0
 10  3  1  0  0  0  0
 10  8  1  1  0  0  0
 11  2  1  0  0  0  0
 11  7  1  0  0  0  0
 13  1  1  1  0  0  0
 13  5  1  0  0  0  0
 16 15  1  6  0  0  0
 16 14  1  0  0  0  0
 17 16  1  0  0  0  0
 17 18  2  0  0  0  0
 20 19  1  1  0  0  0
 20 17  1  0  0  0  0
 21 20  1  0  0  0  0
 22 21  1  0  0  0  0
 23 22  1  0  0  0  0
 24 23  1  0  0  0  0
 24 25  1  0  0  0  0
M  END
>  <MODEL>
4

>  <REMARK>
 VINA RESULT:      -7.4      1.817      3.835
  Name = 
  8 active torsions:
  status: ('A' for Active; 'I' for Inactive)
    1  A    between atoms: C_1  and  C_9
    2  A    between atoms: C_1  and  C_12
    3  A    between atoms: C_4  and  C_12
    4  A    between atoms: C_7  and  C_11
    5  A    between atoms: C_7  and  C_20
    6  A    between atoms: C_9  and  C_20
    7  A    between atoms: C_11  and  C_15
    8  A    between atoms: C_15  and  C_19
                            x       y       z     vdW  Elec       q    Type
                         _______ _______ _______ _____ _____    ______ ____

>  <TORSDO>
F 8

$$$$
=
 OpenBabel11052410153D

 25 29  0  0  1  0  0  0  0  0999 V2000
  161.2670  206.3340  153.3600 O   0  0  0  0  0  0  0  0  0  0  0  0
  160.7020  211.0540  151.9710 N   0  0  0  0  0  2  0  0  0  0  0  0
  161.4000  208.9310  152.1970 C   0  0  2  0  0  0  0  0  0  0  0  0
  161.1810  208.3390  154.9860 C   0  0  2  0  0  3  0  0  0  0  0  0
  160.5840  207.3950  153.9390 C   0  0  2  0  0  0  0  0  0  0  0  0
  160.6840  207.0260  155.4250 C   0  0  0  0  0  2  0  0  0  0  0  0
  162.4230  209.5970  151.3980 N   0  0  0  0  0  2  0  0  0  0  0  0
  159.8100  210.1480  153.9860 C   0  0  0  0  0  3  0  0  0  0  0  0
  160.9410  207.6720  151.5680 C   0  0  2  0  0  3  0  0  0  0  0  0
  160.4330  209.9930  152.6470 C   0  0  1  0  0  3  0  0  0  0  0  0
  161.7920  210.8050  151.1690 O   0  0  0  0  0  0  0  0  0  0  0  0
  160.1450  209.4150  155.0620 C   0  0  0  0  0  3  0  0  0  0  0  0
  161.7110  207.5790  152.9160 C   0  0  2  0  0  0  0  0  0  0  0  0
  161.8210  207.1240  150.4450 C   0  0  0  0  0  2  0  0  0  0  0  0
  162.0820  208.2200  148.3450 O   0  0  0  0  0  1  0  0  0  0  0  0
  161.2050  207.4280  149.0850 C   0  0  1  0  0  3  0  0  0  0  0  0
  160.8960  206.1670  148.3240 C   0  0  0  0  0  0  0  0  0  0  0  0
  160.2030  206.2140  147.3200 O   0  0  0  0  0  0  0  0  0  0  0  0
  161.8660  204.0000  147.6120 C   0  0  0  0  0  1  0  0  0  0  0  0
  161.4130  204.8370  148.7940 C   0  0  2  0  0  3  0  0  0  0  0  0
  160.3670  204.0740  149.5940 C   0  0  0  0  0  2  0  0  0  0  0  0
  160.9170  203.6860  150.9530 C   0  0  0  0  0  2  0  0  0  0  0  0
  161.2550  202.2110  150.9570 C   0  0  0  0  0  2  0  0  0  0  0  0
  160.4350  201.5030  149.8990 C   0  0  0  0  0  2  0  0  0  0  0  0
  161.2840  200.7960  149.0500 O   0  0  0  0  0  1  0  0  0  0  0  0
  1  5  1  0  0  0  0
  2 10  1  0  0  0  0
  3  7  1  6  0  0  0
  3 10  1  0  0  0  0
  3 13  1  0  0  0  0
  4 12  1  1  0  0  0
  4  6  1  0  0  0  0
  5  4  1  0  0  0  0
  5  6  1  6  0  0  0
  8 12  2  0  0  0  0
  9 14  1  6  0  0  0
  9  3  1  0  0  0  0
  9 13  1  0  0  0  0
 10  8  1  1  0  0  0
 11  7  1  0  0  0  0
 11  2  1  0  0  0  0
 13  1  1  1  0  0  0
 13  5  1  0  0  0  0
 16 15  1  6  0  0  0
 16 14  1  0  0  0  0
 17 20  1  0  0  0  0
 17 16  1  0  0  0  0
 18 17  2  0  0  0  0
 20 19  1  6  0  0  0
 20 21  1  0  0  0  0
 21 22  1  0  0  0  0
 22 23  1  0  0  0  0
 24 23  1  0  0  0  0
 25 24  1  0  0  0  0
M  END
>  <MODEL>
5

>  <REMARK>
 VINA RESULT:      -7.4      1.904      3.103
  Name = 
  8 active torsions:
  status: ('A' for Active; 'I' for Inactive)
    1  A    between atoms: C_1  and  C_9
    2  A    between atoms: C_1  and  C_12
    3  A    between atoms: C_4  and  C_12
    4  A    between atoms: C_7  and  C_11
    5  A    between atoms: C_7  and  C_20
    6  A    between atoms: C_9  and  C_20
    7  A    between atoms: C_11  and  C_15
    8  A    between atoms: C_15  and  C_19
                            x       y       z     vdW  Elec       q    Type
                         _______ _______ _______ _____ _____    ______ ____

>  <TORSDO>
F 8

$$$$
=
 OpenBabel11052410153D

 25 29  0  0  1  0  0  0  0  0999 V2000
  160.8930  202.4460  151.2020 O   0  0  0  0  0  0  0  0  0  0  0  0
  161.3430  206.0960  147.8850 N   0  0  0  0  0  2  0  0  0  0  0  0
  160.8130  204.8510  149.6780 C   0  0  2  0  0  0  0  0  0  0  0  0
  160.3830  202.2060  148.6800 C   0  0  2  0  0  3  0  0  0  0  0  0
  161.3070  202.4480  149.8760 C   0  0  2  0  0  0  0  0  0  0  0  0
  160.8750  201.0440  149.4360 C   0  0  0  0  0  2  0  0  0  0  0  0
  159.9640  206.0350  149.7570 N   0  0  0  0  0  2  0  0  0  0  0  0
  161.7850  203.8050  147.4050 C   0  0  0  0  0  3  0  0  0  0  0  0
  161.5300  204.6000  150.9480 C   0  0  2  0  0  3  0  0  0  0  0  0
  161.5330  204.9150  148.3570 C   0  0  1  0  0  3  0  0  0  0  0  0
  160.5170  206.7890  148.7380 O   0  0  0  0  0  0  0  0  0  0  0  0
  161.2630  202.5730  147.5270 C   0  0  0  0  0  3  0  0  0  0  0  0
  160.4590  203.5660  150.4930 C   0  0  2  0  0  0  0  0  0  0  0  0
  161.0120  205.3570  152.1700 C   0  0  0  0  0  2  0  0  0  0  0  0
  162.7780  206.7870  151.4510 O   0  0  0  0  0  1  0  0  0  0  0  0
  161.9650  206.4870  152.5430 C   0  0  1  0  0  3  0  0  0  0  0  0
  161.2180  207.7200  152.9730 C   0  0  0  0  0  0  0  0  0  0  0  0
  160.6440  208.4060  152.1420 O   0  0  0  0  0  0  0  0  0  0  0  0
  160.3890  207.1390  155.2350 C   0  0  0  0  0  1  0  0  0  0  0  0
  161.1840  208.1370  154.4150 C   0  0  2  0  0  3  0  0  0  0  0  0
  160.5940  209.5290  154.5880 C   0  0  0  0  0  2  0  0  0  0  0  0
  159.6450  209.5610  155.7710 C   0  0  0  0  0  2  0  0  0  0  0  0
  158.7120  210.7440  155.6350 C   0  0  0  0  0  2  0  0  0  0  0  0
  159.0340  211.4970  154.3620 C   0  0  0  0  0  2  0  0  0  0  0  0
  157.8920  211.5760  153.5670 O   0  0  0  0  0  1  0  0  0  0  0  0
  2 10  1  0  0  0  0
  2 11  1  0  0  0  0
  3  7  1  1  0  0  0
  3 13  1  0  0  0  0
  3  9  1  0  0  0  0
  4 12  1  6  0  0  0
  4  6  1  0  0  0  0
  4  5  1  0  0  0  0
  5  6  1  6  0  0  0
  5 13  1  0  0  0  0
  5  1  1  0  0  0  0
  8 12  2  0  0  0  0
  9 14  1  1  0  0  0
 10  8  1  6  0  0  0
 10  3  1  0  0  0  0
 11  7  1  0  0  0  0
 13  9  1  0  0  0  0
 13  1  1  1  0  0  0
 14 16  1  0  0  0  0
 16 15  1  6  0  0  0
 16 17  1  0  0  0  0
 17 20  1  0  0  0  0
 18 17  2  0  0  0  0
 20 21  1  0  0  0  0
 20 19  1  1  0  0  0
 21 22  1  0  0  0  0
 23 22  1  0  0  0  0
 24 23  1  0  0  0  0
 25 24  1  0  0  0  0
M  END
>  <MODEL>
6

>  <REMARK>
 VINA RESULT:      -7.3      2.666      7.211
  Name = 
  8 active torsions:
  status: ('A' for Active; 'I' for Inactive)
    1  A    between atoms: C_1  and  C_9
    2  A    between atoms: C_1  and  C_12
    3  A    between atoms: C_4  and  C_12
    4  A    between atoms: C_7  and  C_11
    5  A    between atoms: C_7  and  C_20
    6  A    between atoms: C_9  and  C_20
    7  A    between atoms: C_11  and  C_15
    8  A    between atoms: C_15  and  C_19
                            x       y       z     vdW  Elec       q    Type
                         _______ _______ _______ _____ _____    ______ ____

>  <TORSDO>
F 8

$$$$
=
 OpenBabel11052410153D

 25 29  0  0  1  0  0  0  0  0999 V2000
  160.8140  203.6650  151.2740 O   0  0  0  0  0  0  0  0  0  0  0  0
  161.4700  205.3130  146.6500 N   0  0  0  0  0  2  0  0  0  0  0  0
  160.8710  205.0800  148.8020 C   0  0  2  0  0  0  0  0  0  0  0  0
  160.2850  202.3020  149.1430 C   0  0  2  0  0  3  0  0  0  0  0  0
  161.2250  203.0250  150.1120 C   0  0  2  0  0  0  0  0  0  0  0  0
  160.7100  201.6030  150.3660 C   0  0  0  0  0  2  0  0  0  0  0  0
  160.0930  206.2060  148.2990 N   0  0  0  0  0  2  0  0  0  0  0  0
  161.7760  203.0430  147.3060 C   0  0  0  0  0  3  0  0  0  0  0  0
  161.5750  205.4140  150.0610 C   0  0  2  0  0  3  0  0  0  0  0  0
  161.5910  204.4810  147.6240 C   0  0  1  0  0  3  0  0  0  0  0  0
  160.6870  206.3660  147.0610 O   0  0  0  0  0  0  0  0  0  0  0  0
  161.1820  202.0410  147.9750 C   0  0  0  0  0  3  0  0  0  0  0  0
  160.4450  204.3450  150.1140 C   0  0  2  0  0  0  0  0  0  0  0  0
  161.1050  206.6800  150.7760 C   0  0  0  0  0  2  0  0  0  0  0  0
  162.6930  206.1670  152.4770 O   0  0  0  0  0  1  0  0  0  0  0  0
  161.3780  206.5830  152.2720 C   0  0  1  0  0  3  0  0  0  0  0  0
  161.1500  207.9010  152.9610 C   0  0  0  0  0  0  0  0  0  0  0  0
  161.0850  207.9490  154.1800 O   0  0  0  0  0  0  0  0  0  0  0  0
  162.3220  209.8320  151.9420 C   0  0  0  0  0  1  0  0  0  0  0  0
  160.9780  209.1660  152.1700 C   0  0  2  0  0  3  0  0  0  0  0  0
  160.0330  210.1400  152.8580 C   0  0  0  0  0  2  0  0  0  0  0  0
  160.8060  211.3050  153.4470 C   0  0  0  0  0  2  0  0  0  0  0  0
  160.2360  211.6500  154.8050 C   0  0  0  0  0  2  0  0  0  0  0  0
  161.1070  211.0470  155.8870 C   0  0  0  0  0  2  0  0  0  0  0  0
  162.3540  210.7280  155.3530 O   0  0  0  0  0  1  0  0  0  0  0  0
  2 11  1  0  0  0  0
  2 10  1  0  0  0  0
  3  7  1  6  0  0  0
  3  9  1  0  0  0  0
  3 13  1  0  0  0  0
  4 12  1  6  0  0  0
  4  5  1  0  0  0  0
  4  6  1  0  0  0  0
  5 13  1  0  0  0  0
  5  6  1  6  0  0  0
  5  1  1  0  0  0  0
  8 12  2  0  0  0  0
  9 13  1  0  0  0  0
  9 14  1  1  0  0  0
 10  8  1  6  0  0  0
 10  3  1  0  0  0  0
 11  7  1  0  0  0  0
 13  1  1  1  0  0  0
 14 16  1  0  0  0  0
 16 15  1  6  0  0  0
 16 17  1  0  0  0  0
 17 18  2  0  0  0  0
 20 19  1  1  0  0  0
 20 21  1  0  0  0  0
 20 17  1  0  0  0  0
 21 22  1  0  0  0  0
 22 23  1  0  0  0  0
 23 24  1  0  0  0  0
 25 24  1  0  0  0  0
M  END
>  <MODEL>
7

>  <REMARK>
 VINA RESULT:      -7.2      2.730      7.174
  Name = 
  8 active torsions:
  status: ('A' for Active; 'I' for Inactive)
    1  A    between atoms: C_1  and  C_9
    2  A    between atoms: C_1  and  C_12
    3  A    between atoms: C_4  and  C_12
    4  A    between atoms: C_7  and  C_11
    5  A    between atoms: C_7  and  C_20
    6  A    between atoms: C_9  and  C_20
    7  A    between atoms: C_11  and  C_15
    8  A    between atoms: C_15  and  C_19
                            x       y       z     vdW  Elec       q    Type
                         _______ _______ _______ _____ _____    ______ ____

>  <TORSDO>
F 8

$$$$
=
 OpenBabel11052410153D

 25 29  0  0  1  0  0  0  0  0999 V2000
  160.8670  208.8400  151.9630 O   0  0  0  0  0  0  0  0  0  0  0  0
  161.3670  208.1150  156.8370 N   0  0  0  0  0  2  0  0  0  0  0  0
  160.8260  207.9350  154.6640 C   0  0  2  0  0  0  0  0  0  0  0  0
  160.3270  210.6050  153.7700 C   0  0  2  0  0  3  0  0  0  0  0  0
  161.2690  209.6850  152.9890 C   0  0  2  0  0  0  0  0  0  0  0  0
  160.8000  211.0410  152.4470 C   0  0  0  0  0  2  0  0  0  0  0  0
  160.0050  206.9480  155.3550 N   0  0  0  0  0  2  0  0  0  0  0  0
  161.7520  210.2050  155.7590 C   0  0  0  0  0  3  0  0  0  0  0  0
  161.5500  207.3450  153.5150 C   0  0  2  0  0  3  0  0  0  0  0  0
  161.5340  208.7370  155.7230 C   0  0  1  0  0  3  0  0  0  0  0  0
  160.5640  207.0200  156.6170 O   0  0  0  0  0  0  0  0  0  0  0  0
  161.2030  211.0700  154.8900 C   0  0  0  0  0  3  0  0  0  0  0  0
  160.4520  208.4080  153.2220 C   0  0  2  0  0  0  0  0  0  0  0  0
  161.0610  205.9740  153.0490 C   0  0  0  0  0  2  0  0  0  0  0  0
  162.9000  205.9200  151.5340 O   0  0  0  0  0  1  0  0  0  0  0  0
  161.5270  205.6970  151.6240 C   0  0  1  0  0  3  0  0  0  0  0  0
  161.2140  204.2860  151.2060 C   0  0  0  0  0  0  0  0  0  0  0  0
  161.4610  203.3570  151.9600 O   0  0  0  0  0  0  0  0  0  0  0  0
  160.8090  202.5330  149.5010 C   0  0  0  0  0  1  0  0  0  0  0  0
  160.6180  203.9950  149.8580 C   0  0  2  0  0  3  0  0  0  0  0  0
  161.2220  204.8720  148.7710 C   0  0  0  0  0  2  0  0  0  0  0  0
  161.8660  204.0180  147.6960 C   0  0  0  0  0  2  0  0  0  0  0  0
  161.5780  204.6190  146.3370 C   0  0  0  0  0  2  0  0  0  0  0  0
  160.8300  205.9240  146.5110 C   0  0  0  0  0  2  0  0  0  0  0  0
  160.1180  206.2090  145.3480 O   0  0  0  0  0  1  0  0  0  0  0  0
  1  5  1  0  0  0  0
  3  7  1  1  0  0  0
  3 10  1  0  0  0  0
  4  6  1  6  0  0  0
  4 12  1  0  0  0  0
  5  6  1  1  0  0  0
  5 13  1  0  0  0  0
  5  4  1  0  0  0  0
  7 11  1  0  0  0  0
  9 14  1  6  0  0  0
  9  3  1  0  0  0  0
 10  8  1  1  0  0  0
 10  2  1  0  0  0  0
 11  2  1  0  0  0  0
 12  8  2  0  0  0  0
 13  1  1  6  0  0  0
 13  9  1  0  0  0  0
 13  3  1  0  0  0  0
 16 15  1  1  0  0  0
 16 14  1  0  0  0  0
 17 16  1  0  0  0  0
 17 18  2  0  0  0  0
 20 19  1  6  0  0  0
 20 17  1  0  0  0  0
 21 20  1  0  0  0  0
 22 21  1  0  0  0  0
 23 24  1  0  0  0  0
 23 22  1  0  0  0  0
 25 24  1  0  0  0  0
M  END
>  <MODEL>
8

>  <REMARK>
 VINA RESULT:      -7.0      2.916      5.239
  Name = 
  8 active torsions:
  status: ('A' for Active; 'I' for Inactive)
    1  A    between atoms: C_1  and  C_9
    2  A    between atoms: C_1  and  C_12
    3  A    between atoms: C_4  and  C_12
    4  A    between atoms: C_7  and  C_11
    5  A    between atoms: C_7  and  C_20
    6  A    between atoms: C_9  and  C_20
    7  A    between atoms: C_11  and  C_15
    8  A    between atoms: C_15  and  C_19
                            x       y       z     vdW  Elec       q    Type
                         _______ _______ _______ _____ _____    ______ ____

>  <TORSDO>
F 8

$$$$
=
 OpenBabel11052410153D

 25 29  0  0  1  0  0  0  0  0999 V2000
  160.8280  205.5570  148.0780 O   0  0  0  0  0  0  0  0  0  0  0  0
  161.9370  205.1640  152.8880 N   0  0  0  0  0  2  0  0  0  0  0  0
  161.0000  204.9580  150.8570 C   0  0  2  0  0  0  0  0  0  0  0  0
  161.1300  207.5610  149.6800 C   0  0  2  0  0  3  0  0  0  0  0  0
  161.6230  206.3320  148.9120 C   0  0  2  0  0  0  0  0  0  0  0  0
  161.4700  207.7110  148.2570 C   0  0  0  0  0  2  0  0  0  0  0  0
  160.0660  204.3310  151.7850 N   0  0  0  0  0  2  0  0  0  0  0  0
  162.7050  206.9330  151.4900 C   0  0  0  0  0  3  0  0  0  0  0  0
  161.3170  204.0750  149.7120 C   0  0  2  0  0  3  0  0  0  0  0  0
  162.0780  205.6020  151.6870 C   0  0  1  0  0  3  0  0  0  0  0  0
  160.8320  204.3460  152.9350 O   0  0  0  0  0  0  0  0  0  0  0  0
  162.2810  207.8400  150.5940 C   0  0  0  0  0  3  0  0  0  0  0  0
  160.5320  205.3880  149.4300 C   0  0  2  0  0  0  0  0  0  0  0  0
  160.3880  202.8780  149.5110 C   0  0  0  0  0  2  0  0  0  0  0  0
  160.6590  200.5950  150.1400 O   0  0  0  0  0  1  0  0  0  0  0  0
  161.1960  201.5980  149.3340 C   0  0  1  0  0  3  0  0  0  0  0  0
  161.2040  201.1440  147.8990 C   0  0  0  0  0  0  0  0  0  0  0  0
  161.5810  200.0180  147.6180 O   0  0  0  0  0  0  0  0  0  0  0  0
  160.2300  201.2710  145.6240 C   0  0  0  0  0  1  0  0  0  0  0  0
  160.7710  202.0680  146.7960 C   0  0  2  0  0  3  0  0  0  0  0  0
  161.9090  202.9620  146.3270 C   0  0  0  0  0  2  0  0  0  0  0  0
  161.5310  203.6740  145.0420 C   0  0  0  0  0  2  0  0  0  0  0  0
  161.9550  205.1240  145.1280 C   0  0  0  0  0  2  0  0  0  0  0  0
  160.9690  205.9830  144.3650 C   0  0  0  0  0  2  0  0  0  0  0  0
  160.0780  206.5730  145.2610 O   0  0  0  0  0  1  0  0  0  0  0  0
  1  5  1  0  0  0  0
  2 11  1  0  0  0  0
  3 10  1  0  0  0  0
  3  7  1  1  0  0  0
  4  6  1  6  0  0  0
  4 12  1  0  0  0  0
  5  6  1  1  0  0  0
  5 13  1  0  0  0  0
  5  4  1  0  0  0  0
  7 11  1  0  0  0  0
  9 14  1  1  0  0  0
  9  3  1  0  0  0  0
 10  8  1  1  0  0  0
 10  2  1  0  0  0  0
 12  8  2  0  0  0  0
 13  1  1  6  0  0  0
 13  9  1  0  0  0  0
 13  3  1  0  0  0  0
 16 14  1  0  0  0  0
 16 15  1  1  0  0  0
 17 16  1  0  0  0  0
 18 17  2  0  0  0  0
 20 19  1  6  0  0  0
 20 17  1  0  0  0  0
 21 20  1  0  0  0  0
 22 23  1  0  0  0  0
 22 21  1  0  0  0  0
 24 23  1  0  0  0  0
 24 25  1  0  0  0  0
M  END
>  <MODEL>
9

>  <REMARK>
 VINA RESULT:      -6.9      2.047      4.347
  Name = 
  8 active torsions:
  status: ('A' for Active; 'I' for Inactive)
    1  A    between atoms: C_1  and  C_9
    2  A    between atoms: C_1  and  C_12
    3  A    between atoms: C_4  and  C_12
    4  A    between atoms: C_7  and  C_11
    5  A    between atoms: C_7  and  C_20
    6  A    between atoms: C_9  and  C_20
    7  A    between atoms: C_11  and  C_15
    8  A    between atoms: C_15  and  C_19
                            x       y       z     vdW  Elec       q    Type
                         _______ _______ _______ _____ _____    ______ ____

>  <TORSDO>
F 8

$$$$
