=
 OpenBabel11042420463D

 27 30  0  0  1  0  0  0  0  0999 V2000
  162.1190  206.1680  152.2300 C   0  0  2  0  0  3  0  0  0  0  0  0
  162.3530  210.2110  149.6750 C   0  0  0  0  0  3  0  0  0  0  0  0
  161.3240  206.2380  153.3940 O   0  0  0  0  0  0  0  0  0  0  0  0
  161.5970  206.7320  149.7710 C   0  0  1  0  0  3  0  0  0  0  0  0
  161.9140  207.4460  152.9790 C   0  0  2  0  0  3  0  0  0  0  0  0
  162.3670  208.9760  149.1350 N   0  0  0  0  0  0  0  0  0  0  0  0
  161.4280  208.9230  151.0690 C   0  0  0  0  0  0  0  0  0  0  0  0
  161.7780  210.2130  150.8970 N   0  0  0  0  0  0  0  0  0  0  0  0
  160.8700  208.3600  152.3440 C   0  0  2  0  0  3  0  0  0  0  0  0
  161.7940  208.1710  150.0120 N   0  0  0  0  0  0  0  0  0  0  0  0
  161.1930  205.9330  151.0290 C   0  0  1  0  0  3  0  0  0  0  0  0
  161.1160  204.4630  150.7480 C   0  0  0  0  0  0  0  0  0  0  0  0
  160.6170  203.5820  151.7460 N   0  0  0  0  0  1  0  0  0  0  0  0
  161.4970  204.0020  149.6390 O   0  0  0  0  0  0  0  0  0  0  0  0
  160.4040  209.4180  153.3030 C   0  0  0  0  0  0  0  0  0  0  0  0
  159.3980  210.1190  153.0080 O   0  0  0  0  0  0  0  0  0  0  0  0
  159.6980  207.9860  155.8080 N   0  0  0  0  0  1  0  0  0  0  0  0
  161.1190  209.6090  154.5870 C   0  0  0  0  0  0  0  0  0  0  0  0
  161.4820  209.1540  156.9070 N   0  0  0  0  0  0  0  0  0  0  0  0
  160.7740  208.9210  155.7700 C   0  0  0  0  0  0  0  0  0  0  0  0
  162.8620  210.7150  155.7700 C   0  0  0  0  0  3  0  0  0  0  0  0
  162.5160  210.0330  156.9330 C   0  0  0  0  0  3  0  0  0  0  0  0
  162.1590  210.4890  154.6310 N   0  0  0  0  0  0  0  0  0  0  0  0
  160.5670  206.5420  148.6980 C   0  0  0  0  0  3  0  0  0  0  0  0
  160.9200  206.4410  147.4250 C   0  0  0  0  0  3  0  0  0  0  0  0
  159.9500  206.2670  146.4480 O   0  0  0  0  0  0  0  0  0  0  0  0
  160.3310  205.9550  145.1210 C   0  0  0  0  0  1  0  0  0  0  0  0
  1  5  1  0  0  0  0
  1  3  1  1  0  0  0
  2  8  1  0  0  0  0
  4 24  1  6  0  0  0
  4 10  1  0  0  0  0
  4 11  1  0  0  0  0
  5  3  1  1  0  0  0
  6  2  2  0  0  0  0
  6 10  1  0  0  0  0
  7  9  1  0  0  0  0
  8  7  2  0  0  0  0
  9  5  1  0  0  0  0
  9 15  1  1  0  0  0
 10  7  1  0  0  0  0
 11 12  1  6  0  0  0
 11  1  1  0  0  0  0
 12 13  1  0  0  0  0
 14 12  2  0  0  0  0
 15 18  1  0  0  0  0
 16 15  2  0  0  0  0
 18 23  2  0  0  0  0
 18 20  1  0  0  0  0
 19 22  1  0  0  0  0
 20 17  1  0  0  0  0
 20 19  2  0  0  0  0
 21 22  2  0  0  0  0
 23 21  1  0  0  0  0
 25 24  2  0  0  0  0
 26 25  1  0  0  0  0
 27 26  1  0  0  0  0
M  END
>  <MODEL>
1

>  <REMARK>
 VINA RESULT:      -7.2      0.000      0.000
  Name = 
  5 active torsions:
  status: ('A' for Active; 'I' for Inactive)
    1  A    between atoms: C_2  and  C_27
    2  A    between atoms: C_6  and  C_7
    3  A    between atoms: C_7  and  C_25
    4  A    between atoms: C_11  and  C_16
    5  A    between atoms: C_13  and  O_14
                            x       y       z     vdW  Elec       q    Type
                         _______ _______ _______ _____ _____    ______ ____

>  <TORSDO>
F 5

$$$$
=
 OpenBabel11042420463D

 27 30  0  0  1  0  0  0  0  0999 V2000
  162.1160  205.8040  152.0090 C   0  0  2  0  0  3  0  0  0  0  0  0
  162.3410  209.9440  149.6110 C   0  0  0  0  0  3  0  0  0  0  0  0
  161.3070  205.8230  153.1640 O   0  0  0  0  0  0  0  0  0  0  0  0
  161.6190  206.4570  149.5660 C   0  0  1  0  0  3  0  0  0  0  0  0
  161.8890  207.0510  152.8030 C   0  0  2  0  0  3  0  0  0  0  0  0
  162.3750  208.7300  149.0250 N   0  0  0  0  0  0  0  0  0  0  0  0
  161.4110  208.5960  150.9440 C   0  0  0  0  0  0  0  0  0  0  0  0
  161.7510  209.8940  150.8260 N   0  0  0  0  0  0  0  0  0  0  0  0
  160.8440  207.9790  152.1890 C   0  0  2  0  0  3  0  0  0  0  0  0
  161.7990  207.8870  149.8640 N   0  0  0  0  0  0  0  0  0  0  0  0
  161.2070  205.6070  150.7870 C   0  0  1  0  0  3  0  0  0  0  0  0
  161.1490  204.1480  150.4500 C   0  0  0  0  0  0  0  0  0  0  0  0
  160.8530  203.2020  151.4700 N   0  0  0  0  0  1  0  0  0  0  0  0
  161.3680  203.7530  149.2730 O   0  0  0  0  0  0  0  0  0  0  0  0
  160.3550  208.9950  153.1810 C   0  0  0  0  0  0  0  0  0  0  0  0
  159.5840  209.9150  152.7940 O   0  0  0  0  0  0  0  0  0  0  0  0
  162.4550  210.6990  154.4120 N   0  0  0  0  0  1  0  0  0  0  0  0
  160.7690  208.8910  154.6010 C   0  0  0  0  0  0  0  0  0  0  0  0
  162.0880  209.5490  156.4850 N   0  0  0  0  0  0  0  0  0  0  0  0
  161.7680  209.7090  155.1730 C   0  0  0  0  0  0  0  0  0  0  0  0
  160.4830  207.8130  156.7020 C   0  0  0  0  0  3  0  0  0  0  0  0
  161.4690  208.6220  157.2610 C   0  0  0  0  0  3  0  0  0  0  0  0
  160.1590  207.9650  155.3930 N   0  0  0  0  0  0  0  0  0  0  0  0
  160.6040  206.2980  148.4740 C   0  0  0  0  0  3  0  0  0  0  0  0
  160.9600  206.3620  147.1990 C   0  0  0  0  0  3  0  0  0  0  0  0
  160.0040  206.2130  146.2040 O   0  0  0  0  0  0  0  0  0  0  0  0
  160.3960  205.8350  144.8970 C   0  0  0  0  0  1  0  0  0  0  0  0
  1  5  1  0  0  0  0
  1  3  1  1  0  0  0
  2  8  1  0  0  0  0
  4 24  1  6  0  0  0
  4 10  1  0  0  0  0
  4 11  1  0  0  0  0
  5  3  1  1  0  0  0
  6  2  2  0  0  0  0
  6 10  1  0  0  0  0
  7  9  1  0  0  0  0
  8  7  2  0  0  0  0
  9  5  1  0  0  0  0
  9 15  1  1  0  0  0
 10  7  1  0  0  0  0
 11 12  1  6  0  0  0
 11  1  1  0  0  0  0
 12 13  1  0  0  0  0
 14 12  2  0  0  0  0
 15 18  1  0  0  0  0
 16 15  2  0  0  0  0
 17 20  1  0  0  0  0
 18 20  2  0  0  0  0
 18 23  1  0  0  0  0
 19 22  2  0  0  0  0
 20 19  1  0  0  0  0
 21 22  1  0  0  0  0
 23 21  2  0  0  0  0
 25 24  2  0  0  0  0
 26 25  1  0  0  0  0
 27 26  1  0  0  0  0
M  END
>  <MODEL>
2

>  <REMARK>
 VINA RESULT:      -6.9      0.663      1.390
  Name = 
  5 active torsions:
  status: ('A' for Active; 'I' for Inactive)
    1  A    between atoms: C_2  and  C_27
    2  A    between atoms: C_6  and  C_7
    3  A    between atoms: C_7  and  C_25
    4  A    between atoms: C_11  and  C_16
    5  A    between atoms: C_13  and  O_14
                            x       y       z     vdW  Elec       q    Type
                         _______ _______ _______ _____ _____    ______ ____

>  <TORSDO>
F 5

$$$$
=
 OpenBabel11042420463D

 27 30  0  0  1  0  0  0  0  0999 V2000
  160.4620  206.2560  148.1510 C   0  0  2  0  0  3  0  0  0  0  0  0
  160.1780  203.1620  151.7950 C   0  0  0  0  0  3  0  0  0  0  0  0
  161.4010  207.2950  148.3180 O   0  0  0  0  0  0  0  0  0  0  0  0
  160.7030  203.6950  148.3140 C   0  0  1  0  0  3  0  0  0  0  0  0
  160.8460  206.7740  149.5000 C   0  0  2  0  0  3  0  0  0  0  0  0
  160.0110  202.8200  150.5020 N   0  0  0  0  0  0  0  0  0  0  0  0
  161.1840  204.6180  150.6450 C   0  0  0  0  0  0  0  0  0  0  0  0
  160.9020  204.2950  151.9220 N   0  0  0  0  0  0  0  0  0  0  0  0
  161.8600  205.8910  150.2220 C   0  0  2  0  0  3  0  0  0  0  0  0
  160.6360  203.7370  149.7830 N   0  0  0  0  0  0  0  0  0  0  0  0
  161.2100  205.0040  147.6690 C   0  0  1  0  0  3  0  0  0  0  0  0
  161.1510  204.9420  146.1740 C   0  0  0  0  0  0  0  0  0  0  0  0
  160.2980  205.8320  145.4660 N   0  0  0  0  0  1  0  0  0  0  0  0
  161.8450  204.1020  145.5400 O   0  0  0  0  0  0  0  0  0  0  0  0
  162.5150  206.6170  151.3620 C   0  0  0  0  0  0  0  0  0  0  0  0
  163.5090  206.0960  151.9380 O   0  0  0  0  0  0  0  0  0  0  0  0
  160.7870  207.0310  153.7420 N   0  0  0  0  0  1  0  0  0  0  0  0
  161.9970  207.9420  151.7800 C   0  0  0  0  0  0  0  0  0  0  0  0
  160.7440  209.3740  153.2300 N   0  0  0  0  0  0  0  0  0  0  0  0
  161.1770  208.1240  152.9150 C   0  0  0  0  0  0  0  0  0  0  0  0
  161.8910  210.2810  151.3600 C   0  0  0  0  0  3  0  0  0  0  0  0
  161.0830  210.4540  152.4790 C   0  0  0  0  0  3  0  0  0  0  0  0
  162.3270  209.0360  151.0380 N   0  0  0  0  0  0  0  0  0  0  0  0
  161.5740  202.5520  147.8860 C   0  0  0  0  0  3  0  0  0  0  0  0
  161.0720  201.3350  147.7340 C   0  0  0  0  0  3  0  0  0  0  0  0
  161.8960  200.2900  147.3390 O   0  0  0  0  0  0  0  0  0  0  0  0
  161.4950  199.4330  146.2860 C   0  0  0  0  0  1  0  0  0  0  0  0
  1  3  1  6  0  0  0
  1  5  1  0  0  0  0
  2  8  1  0  0  0  0
  4 24  1  1  0  0  0
  4 10  1  0  0  0  0
  5  3  1  6  0  0  0
  5  9  1  0  0  0  0
  6  2  2  0  0  0  0
  7  8  2  0  0  0  0
  9  7  1  0  0  0  0
  9 15  1  1  0  0  0
 10  6  1  0  0  0  0
 10  7  1  0  0  0  0
 11 12  1  6  0  0  0
 11  1  1  0  0  0  0
 11  4  1  0  0  0  0
 13 12  1  0  0  0  0
 14 12  2  0  0  0  0
 15 18  1  0  0  0  0
 15 16  2  0  0  0  0
 18 20  1  0  0  0  0
 20 19  2  0  0  0  0
 20 17  1  0  0  0  0
 21 22  2  0  0  0  0
 22 19  1  0  0  0  0
 23 21  1  0  0  0  0
 23 18  2  0  0  0  0
 25 24  2  0  0  0  0
 26 25  1  0  0  0  0
 27 26  1  0  0  0  0
M  END
>  <MODEL>
3

>  <REMARK>
 VINA RESULT:      -6.3      2.660      4.860
  Name = 
  5 active torsions:
  status: ('A' for Active; 'I' for Inactive)
    1  A    between atoms: C_2  and  C_27
    2  A    between atoms: C_6  and  C_7
    3  A    between atoms: C_7  and  C_25
    4  A    between atoms: C_11  and  C_16
    5  A    between atoms: C_13  and  O_14
                            x       y       z     vdW  Elec       q    Type
                         _______ _______ _______ _____ _____    ______ ____

>  <TORSDO>
F 5

$$$$
=
 OpenBabel11042420463D

 27 30  0  0  1  0  0  0  0  0999 V2000
  161.1850  210.9540  152.8910 C   0  0  2  0  0  3  0  0  0  0  0  0
  160.7590  208.0960  156.7100 C   0  0  0  0  0  3  0  0  0  0  0  0
  161.3800  210.2890  151.6620 O   0  0  0  0  0  0  0  0  0  0  0  0
  159.3730  210.6930  154.7040 C   0  0  1  0  0  3  0  0  0  0  0  0
  161.8510  209.6180  152.8040 C   0  0  2  0  0  3  0  0  0  0  0  0
  160.1010  209.2640  156.5650 N   0  0  0  0  0  0  0  0  0  0  0  0
  160.6550  208.4860  154.6370 C   0  0  0  0  0  0  0  0  0  0  0  0
  161.1320  207.5830  155.5170 N   0  0  0  0  0  0  0  0  0  0  0  0
  160.9280  208.4560  153.1610 C   0  0  2  0  0  3  0  0  0  0  0  0
  160.0440  209.5100  155.2680 N   0  0  0  0  0  0  0  0  0  0  0  0
  159.6840  210.9410  153.2120 C   0  0  1  0  0  3  0  0  0  0  0  0
  159.0660  212.2160  152.7250 C   0  0  0  0  0  0  0  0  0  0  0  0
  159.2100  213.4050  153.4920 N   0  0  0  0  0  1  0  0  0  0  0  0
  158.4150  212.2410  151.6460 O   0  0  0  0  0  0  0  0  0  0  0  0
  161.4830  207.1420  152.6900 C   0  0  0  0  0  0  0  0  0  0  0  0
  162.1770  206.4460  153.4800 O   0  0  0  0  0  0  0  0  0  0  0  0
  160.8650  204.3180  152.0080 N   0  0  0  0  0  1  0  0  0  0  0  0
  161.1910  206.6750  151.3140 C   0  0  0  0  0  0  0  0  0  0  0  0
  160.6410  204.9840  149.7140 N   0  0  0  0  0  0  0  0  0  0  0  0
  160.8970  205.3290  151.0040 C   0  0  0  0  0  0  0  0  0  0  0  0
  160.9460  207.2320  149.0140 C   0  0  0  0  0  3  0  0  0  0  0  0
  160.6580  205.9030  148.7150 C   0  0  0  0  0  3  0  0  0  0  0  0
  161.2050  207.5850  150.2990 N   0  0  0  0  0  0  0  0  0  0  0  0
  157.8920  210.5670  154.8990 C   0  0  0  0  0  3  0  0  0  0  0  0
  157.2570  211.3130  155.7900 C   0  0  0  0  0  3  0  0  0  0  0  0
  155.8850  211.1790  155.9540 O   0  0  0  0  0  0  0  0  0  0  0  0
  155.1790  210.1920  155.2240 C   0  0  0  0  0  1  0  0  0  0  0  0
  1  3  1  6  0  0  0
  1 11  1  0  0  0  0
  4 24  1  6  0  0  0
  4 10  1  0  0  0  0
  5  3  1  6  0  0  0
  5  1  1  0  0  0  0
  5  9  1  0  0  0  0
  6  2  2  0  0  0  0
  7 10  1  0  0  0  0
  7  8  2  0  0  0  0
  8  2  1  0  0  0  0
  9 15  1  1  0  0  0
  9  7  1  0  0  0  0
 10  6  1  0  0  0  0
 11 12  1  1  0  0  0
 11  4  1  0  0  0  0
 12 13  1  0  0  0  0
 14 12  2  0  0  0  0
 15 16  2  0  0  0  0
 18 15  1  0  0  0  0
 19 20  2  0  0  0  0
 20 18  1  0  0  0  0
 20 17  1  0  0  0  0
 21 23  1  0  0  0  0
 22 21  2  0  0  0  0
 22 19  1  0  0  0  0
 23 18  2  0  0  0  0
 24 25  2  0  0  0  0
 25 26  1  0  0  0  0
 27 26  1  0  0  0  0
M  END
>  <MODEL>
4

>  <REMARK>
 VINA RESULT:      -5.6      2.418      7.137
  Name = 
  5 active torsions:
  status: ('A' for Active; 'I' for Inactive)
    1  A    between atoms: C_2  and  C_27
    2  A    between atoms: C_6  and  C_7
    3  A    between atoms: C_7  and  C_25
    4  A    between atoms: C_11  and  C_16
    5  A    between atoms: C_13  and  O_14
                            x       y       z     vdW  Elec       q    Type
                         _______ _______ _______ _____ _____    ______ ____

>  <TORSDO>
F 5

$$$$
=
 OpenBabel11042420463D

 27 30  0  0  1  0  0  0  0  0999 V2000
  162.0870  205.4610  152.3480 C   0  0  2  0  0  3  0  0  0  0  0  0
  162.4510  209.9180  150.6360 C   0  0  0  0  0  3  0  0  0  0  0  0
  161.2850  205.3250  153.5010 O   0  0  0  0  0  0  0  0  0  0  0  0
  161.6010  206.5110  150.0460 C   0  0  1  0  0  3  0  0  0  0  0  0
  161.9110  206.5730  153.3330 C   0  0  2  0  0  3  0  0  0  0  0  0
  162.4370  208.8130  149.8640 N   0  0  0  0  0  0  0  0  0  0  0  0
  161.4800  208.4090  151.7480 C   0  0  0  0  0  0  0  0  0  0  0  0
  161.8670  209.6970  151.8340 N   0  0  0  0  0  0  0  0  0  0  0  0
  160.8970  207.6230  152.8860 C   0  0  2  0  0  3  0  0  0  0  0  0
  161.8350  207.8680  150.5650 N   0  0  0  0  0  0  0  0  0  0  0  0
  161.1650  205.4920  151.1210 C   0  0  1  0  0  3  0  0  0  0  0  0
  161.0500  204.1090  150.5580 C   0  0  0  0  0  0  0  0  0  0  0  0
  160.4290  203.0860  151.3250 N   0  0  0  0  0  1  0  0  0  0  0  0
  161.5080  203.8440  149.4140 O   0  0  0  0  0  0  0  0  0  0  0  0
  160.4510  208.4860  154.0320 C   0  0  0  0  0  0  0  0  0  0  0  0
  160.3910  207.9910  155.1910 O   0  0  0  0  0  0  0  0  0  0  0  0
  161.9230  210.7640  155.2430 N   0  0  0  0  0  1  0  0  0  0  0  0
  160.1080  209.9070  153.7890 C   0  0  0  0  0  0  0  0  0  0  0  0
  160.4390  212.2570  154.0940 N   0  0  0  0  0  0  0  0  0  0  0  0
  160.8180  210.9810  154.3700 C   0  0  0  0  0  0  0  0  0  0  0  0
  158.6900  211.4720  152.6930 C   0  0  0  0  0  3  0  0  0  0  0  0
  159.3930  212.5260  153.2700 C   0  0  0  0  0  3  0  0  0  0  0  0
  159.0610  210.1940  152.9650 N   0  0  0  0  0  0  0  0  0  0  0  0
  160.5750  206.5640  148.9540 C   0  0  0  0  0  3  0  0  0  0  0  0
  160.9270  206.4430  147.6820 C   0  0  0  0  0  3  0  0  0  0  0  0
  159.9610  206.4970  146.6870 O   0  0  0  0  0  0  0  0  0  0  0  0
  160.2960  206.1480  145.3570 C   0  0  0  0  0  1  0  0  0  0  0  0
  1  5  1  0  0  0  0
  1  3  1  1  0  0  0
  2  8  1  0  0  0  0
  4 24  1  6  0  0  0
  4 10  1  0  0  0  0
  4 11  1  0  0  0  0
  5  3  1  1  0  0  0
  6 10  1  0  0  0  0
  6  2  2  0  0  0  0
  7  8  2  0  0  0  0
  7  9  1  0  0  0  0
  9  5  1  0  0  0  0
  9 15  1  1  0  0  0
 10  7  1  0  0  0  0
 11 12  1  6  0  0  0
 11  1  1  0  0  0  0
 12 13  1  0  0  0  0
 14 12  2  0  0  0  0
 15 16  2  0  0  0  0
 18 15  1  0  0  0  0
 18 20  1  0  0  0  0
 19 20  2  0  0  0  0
 20 17  1  0  0  0  0
 21 23  1  0  0  0  0
 21 22  2  0  0  0  0
 22 19  1  0  0  0  0
 23 18  2  0  0  0  0
 25 24  2  0  0  0  0
 26 25  1  0  0  0  0
 27 26  1  0  0  0  0
M  END
>  <MODEL>
5

>  <REMARK>
 VINA RESULT:      -5.4      1.487      2.185
  Name = 
  5 active torsions:
  status: ('A' for Active; 'I' for Inactive)
    1  A    between atoms: C_2  and  C_27
    2  A    between atoms: C_6  and  C_7
    3  A    between atoms: C_7  and  C_25
    4  A    between atoms: C_11  and  C_16
    5  A    between atoms: C_13  and  O_14
                            x       y       z     vdW  Elec       q    Type
                         _______ _______ _______ _____ _____    ______ ____

>  <TORSDO>
F 5

$$$$
=
 OpenBabel11042420463D

 27 30  0  0  1  0  0  0  0  0999 V2000
  162.9670  208.0140  149.6210 C   0  0  2  0  0  3  0  0  0  0  0  0
  161.2950  205.0950  153.0300 C   0  0  0  0  0  3  0  0  0  0  0  0
  162.5440  207.7090  148.3100 O   0  0  0  0  0  0  0  0  0  0  0  0
  161.6380  208.4160  151.7920 C   0  0  1  0  0  3  0  0  0  0  0  0
  162.6190  206.6220  149.1990 C   0  0  2  0  0  3  0  0  0  0  0  0
  161.5150  206.4130  153.2070 N   0  0  0  0  0  0  0  0  0  0  0  0
  161.2110  205.9910  151.1200 C   0  0  0  0  0  0  0  0  0  0  0  0
  161.1100  204.7920  151.7260 N   0  0  0  0  0  0  0  0  0  0  0  0
  161.2200  206.1890  149.6320 C   0  0  2  0  0  3  0  0  0  0  0  0
  161.4690  206.9710  152.0100 N   0  0  0  0  0  0  0  0  0  0  0  0
  161.8510  208.8090  150.3140 C   0  0  1  0  0  3  0  0  0  0  0  0
  162.1280  210.2740  150.1660 C   0  0  0  0  0  0  0  0  0  0  0  0
  161.7960  210.9340  148.9510 N   0  0  0  0  0  1  0  0  0  0  0  0
  162.6610  210.9230  151.1060 O   0  0  0  0  0  0  0  0  0  0  0  0
  160.7540  204.9800  148.8720 C   0  0  0  0  0  0  0  0  0  0  0  0
  160.2640  204.0050  149.5040 O   0  0  0  0  0  0  0  0  0  0  0  0
  161.8080  202.6700  147.3310 N   0  0  0  0  0  1  0  0  0  0  0  0
  160.8590  204.9590  147.3940 C   0  0  0  0  0  0  0  0  0  0  0  0
  161.4240  203.9150  145.3170 N   0  0  0  0  0  0  0  0  0  0  0  0
  161.3610  203.8530  146.6740 C   0  0  0  0  0  0  0  0  0  0  0  0
  160.5170  206.1090  145.3390 C   0  0  0  0  0  3  0  0  0  0  0  0
  161.0130  205.0150  144.6350 C   0  0  0  0  0  3  0  0  0  0  0  0
  160.4530  206.0550  146.6940 N   0  0  0  0  0  0  0  0  0  0  0  0
  160.4500  209.1460  152.3430 C   0  0  0  0  0  3  0  0  0  0  0  0
  160.5440  209.8530  153.4600 C   0  0  0  0  0  3  0  0  0  0  0  0
  159.4310  210.5200  153.9530 O   0  0  0  0  0  0  0  0  0  0  0  0
  158.7680  211.4790  153.1490 C   0  0  0  0  0  1  0  0  0  0  0  0
  1  3  1  6  0  0  0
  1 11  1  0  0  0  0
  2  6  2  0  0  0  0
  4 10  1  0  0  0  0
  4 24  1  6  0  0  0
  5  3  1  6  0  0  0
  5  1  1  0  0  0  0
  5  9  1  0  0  0  0
  7  8  2  0  0  0  0
  7 10  1  0  0  0  0
  8  2  1  0  0  0  0
  9 15  1  6  0  0  0
  9  7  1  0  0  0  0
 10  6  1  0  0  0  0
 11 12  1  1  0  0  0
 11  4  1  0  0  0  0
 12 14  2  0  0  0  0
 13 12  1  0  0  0  0
 15 16  2  0  0  0  0
 18 15  1  0  0  0  0
 19 20  1  0  0  0  0
 20 17  1  0  0  0  0
 20 18  2  0  0  0  0
 21 23  2  0  0  0  0
 22 19  2  0  0  0  0
 22 21  1  0  0  0  0
 23 18  1  0  0  0  0
 24 25  2  0  0  0  0
 25 26  1  0  0  0  0
 27 26  1  0  0  0  0
M  END
>  <MODEL>
6

>  <REMARK>
 VINA RESULT:      -5.3      2.458      7.502
  Name = 
  5 active torsions:
  status: ('A' for Active; 'I' for Inactive)
    1  A    between atoms: C_2  and  C_27
    2  A    between atoms: C_6  and  C_7
    3  A    between atoms: C_7  and  C_25
    4  A    between atoms: C_11  and  C_16
    5  A    between atoms: C_13  and  O_14
                            x       y       z     vdW  Elec       q    Type
                         _______ _______ _______ _____ _____    ______ ____

>  <TORSDO>
F 5

$$$$
=
 OpenBabel11042420463D

 27 30  0  0  1  0  0  0  0  0999 V2000
  162.5850  208.5550  150.3110 C   0  0  2  0  0  3  0  0  0  0  0  0
  161.7330  203.9790  151.4400 C   0  0  0  0  0  3  0  0  0  0  0  0
  161.9430  209.0140  149.1410 O   0  0  0  0  0  0  0  0  0  0  0  0
  161.6630  207.4020  152.4230 C   0  0  1  0  0  3  0  0  0  0  0  0
  162.2390  207.6390  149.1800 C   0  0  2  0  0  3  0  0  0  0  0  0
  161.9120  204.9590  152.3480 N   0  0  0  0  0  0  0  0  0  0  0  0
  161.2480  205.7970  150.4810 C   0  0  0  0  0  0  0  0  0  0  0  0
  161.3260  204.4720  150.2500 N   0  0  0  0  0  0  0  0  0  0  0  0
  160.9700  206.8260  149.4240 C   0  0  2  0  0  3  0  0  0  0  0  0
  161.6150  206.0960  151.7440 N   0  0  0  0  0  0  0  0  0  0  0  0
  161.5760  208.6110  151.4670 C   0  0  1  0  0  3  0  0  0  0  0  0
  161.7420  209.9070  152.2000 C   0  0  0  0  0  0  0  0  0  0  0  0
  160.7330  210.9040  152.1030 N   0  0  0  0  0  1  0  0  0  0  0  0
  162.7720  210.1230  152.8940 O   0  0  0  0  0  0  0  0  0  0  0  0
  160.4370  206.2350  148.1500 C   0  0  0  0  0  0  0  0  0  0  0  0
  159.1920  206.2150  147.9520 O   0  0  0  0  0  0  0  0  0  0  0  0
  159.9520  206.3580  145.2220 N   0  0  0  0  0  1  0  0  0  0  0  0
  161.3810  205.7030  147.1390 C   0  0  0  0  0  0  0  0  0  0  0  0
  162.0570  205.2580  144.8880 N   0  0  0  0  0  0  0  0  0  0  0  0
  161.1380  205.7700  145.7490 C   0  0  0  0  0  0  0  0  0  0  0  0
  163.4510  204.6170  146.6980 C   0  0  0  0  0  3  0  0  0  0  0  0
  163.2060  204.6850  145.3300 C   0  0  0  0  0  3  0  0  0  0  0  0
  162.5380  205.1240  147.5660 N   0  0  0  0  0  0  0  0  0  0  0  0
  160.5600  207.4780  153.4360 C   0  0  0  0  0  3  0  0  0  0  0  0
  160.8050  207.2850  154.7240 C   0  0  0  0  0  3  0  0  0  0  0  0
  159.7690  207.3600  155.6450 O   0  0  0  0  0  0  0  0  0  0  0  0
  160.0260  207.1280  157.0180 C   0  0  0  0  0  1  0  0  0  0  0  0
  1  3  1  6  0  0  0
  1 11  1  0  0  0  0
  2  6  2  0  0  0  0
  4 24  1  1  0  0  0
  5  3  1  6  0  0  0
  5  9  1  0  0  0  0
  5  1  1  0  0  0  0
  7 10  1  0  0  0  0
  8  7  2  0  0  0  0
  8  2  1  0  0  0  0
  9 15  1  6  0  0  0
  9  7  1  0  0  0  0
 10  6  1  0  0  0  0
 10  4  1  0  0  0  0
 11 12  1  1  0  0  0
 11  4  1  0  0  0  0
 12 14  2  0  0  0  0
 13 12  1  0  0  0  0
 16 15  2  0  0  0  0
 17 20  1  0  0  0  0
 18 23  1  0  0  0  0
 18 15  1  0  0  0  0
 19 22  2  0  0  0  0
 19 20  1  0  0  0  0
 20 18  2  0  0  0  0
 21 23  2  0  0  0  0
 22 21  1  0  0  0  0
 24 25  2  0  0  0  0
 25 26  1  0  0  0  0
 26 27  1  0  0  0  0
M  END
>  <MODEL>
7

>  <REMARK>
 VINA RESULT:      -5.3      2.564      7.537
  Name = 
  5 active torsions:
  status: ('A' for Active; 'I' for Inactive)
    1  A    between atoms: C_2  and  C_27
    2  A    between atoms: C_6  and  C_7
    3  A    between atoms: C_7  and  C_25
    4  A    between atoms: C_11  and  C_16
    5  A    between atoms: C_13  and  O_14
                            x       y       z     vdW  Elec       q    Type
                         _______ _______ _______ _____ _____    ______ ____

>  <TORSDO>
F 5

$$$$
=
 OpenBabel11042420463D

 27 30  0  0  1  0  0  0  0  0999 V2000
  162.3410  210.5590  138.9480 C   0  0  2  0  0  3  0  0  0  0  0  0
  159.1110  214.0820  138.6480 C   0  0  0  0  0  3  0  0  0  0  0  0
  163.0660  210.5110  140.1570 O   0  0  0  0  0  0  0  0  0  0  0  0
  159.8070  210.5940  138.4780 C   0  0  1  0  0  3  0  0  0  0  0  0
  162.6050  211.7810  139.7680 C   0  0  2  0  0  3  0  0  0  0  0  0
  158.9510  212.8640  138.0950 N   0  0  0  0  0  0  0  0  0  0  0  0
  160.3410  212.7520  139.7320 C   0  0  0  0  0  0  0  0  0  0  0  0
  159.9880  214.0510  139.6760 N   0  0  0  0  0  0  0  0  0  0  0  0
  161.4160  212.2050  140.6260 C   0  0  2  0  0  3  0  0  0  0  0  0
  159.7270  212.0340  138.7700 N   0  0  0  0  0  0  0  0  0  0  0  0
  160.9840  209.8760  139.1730 C   0  0  1  0  0  3  0  0  0  0  0  0
  161.0820  208.4410  138.7520 C   0  0  0  0  0  0  0  0  0  0  0  0
  160.9700  208.1030  137.3750 N   0  0  0  0  0  1  0  0  0  0  0  0
  161.2530  207.5330  139.6080 O   0  0  0  0  0  0  0  0  0  0  0  0
  161.8270  213.1620  141.7090 C   0  0  0  0  0  0  0  0  0  0  0  0
  162.6330  214.0940  141.4370 O   0  0  0  0  0  0  0  0  0  0  0  0
  163.4560  213.3270  144.1870 N   0  0  0  0  0  1  0  0  0  0  0  0
  161.2650  213.0100  143.0720 C   0  0  0  0  0  0  0  0  0  0  0  0
  161.4570  212.9420  145.4550 N   0  0  0  0  0  0  0  0  0  0  0  0
  162.0510  213.0930  144.2420 C   0  0  0  0  0  0  0  0  0  0  0  0
  159.3420  212.6340  144.4220 C   0  0  0  0  0  3  0  0  0  0  0  0
  160.1230  212.7160  145.5710 C   0  0  0  0  0  3  0  0  0  0  0  0
  159.9280  212.7820  143.2060 N   0  0  0  0  0  0  0  0  0  0  0  0
  158.5160  209.9350  138.8590 C   0  0  0  0  0  3  0  0  0  0  0  0
  157.6030  209.6450  137.9440 C   0  0  0  0  0  3  0  0  0  0  0  0
  156.4140  209.0360  138.3200 O   0  0  0  0  0  0  0  0  0  0  0  0
  155.5610  209.6680  139.2580 C   0  0  0  0  0  1  0  0  0  0  0  0
  1 11  1  0  0  0  0
  1  5  1  0  0  0  0
  1  3  1  1  0  0  0
  2  8  1  0  0  0  0
  4 10  1  0  0  0  0
  4 24  1  1  0  0  0
  4 11  1  0  0  0  0
  5  3  1  1  0  0  0
  5  9  1  0  0  0  0
  6  2  2  0  0  0  0
  6 10  1  0  0  0  0
  7  9  1  0  0  0  0
  8  7  2  0  0  0  0
  9 15  1  1  0  0  0
 10  7  1  0  0  0  0
 11 12  1  6  0  0  0
 12 14  2  0  0  0  0
 13 12  1  0  0  0  0
 15 18  1  0  0  0  0
 16 15  2  0  0  0  0
 17 20  1  0  0  0  0
 18 23  2  0  0  0  0
 18 20  1  0  0  0  0
 19 22  1  0  0  0  0
 20 19  2  0  0  0  0
 21 22  2  0  0  0  0
 23 21  1  0  0  0  0
 25 26  1  0  0  0  0
 25 24  2  0  0  0  0
 26 27  1  0  0  0  0
M  END
>  <MODEL>
8

>  <REMARK>
 VINA RESULT:      -5.0      9.323     12.184
  Name = 
  5 active torsions:
  status: ('A' for Active; 'I' for Inactive)
    1  A    between atoms: C_2  and  C_27
    2  A    between atoms: C_6  and  C_7
    3  A    between atoms: C_7  and  C_25
    4  A    between atoms: C_11  and  C_16
    5  A    between atoms: C_13  and  O_14
                            x       y       z     vdW  Elec       q    Type
                         _______ _______ _______ _____ _____    ______ ____

>  <TORSDO>
F 5

$$$$
=
 OpenBabel11042420463D

 27 30  0  0  1  0  0  0  0  0999 V2000
  162.0740  210.3280  151.9470 C   0  0  2  0  0  3  0  0  0  0  0  0
  160.3020  208.1460  155.8240 C   0  0  0  0  0  3  0  0  0  0  0  0
  162.2440  209.5000  150.8180 O   0  0  0  0  0  0  0  0  0  0  0  0
  160.0230  210.7770  153.4410 C   0  0  1  0  0  3  0  0  0  0  0  0
  162.3340  208.8600  152.0670 C   0  0  2  0  0  3  0  0  0  0  0  0
  160.0350  209.4240  155.4910 N   0  0  0  0  0  0  0  0  0  0  0  0
  160.6130  208.3120  153.7430 C   0  0  0  0  0  0  0  0  0  0  0  0
  160.6800  207.4190  154.7500 N   0  0  0  0  0  0  0  0  0  0  0  0
  161.0750  208.0420  152.3400 C   0  0  2  0  0  3  0  0  0  0  0  0
  160.2370  209.5280  154.1890 N   0  0  0  0  0  0  0  0  0  0  0  0
  160.6020  210.7610  152.0090 C   0  0  1  0  0  3  0  0  0  0  0  0
  160.4530  212.0920  151.3380 C   0  0  0  0  0  0  0  0  0  0  0  0
  160.8020  212.2310  149.9670 N   0  0  0  0  0  1  0  0  0  0  0  0
  160.0300  213.0890  151.9810 O   0  0  0  0  0  0  0  0  0  0  0  0
  161.2920  206.5820  152.0610 C   0  0  0  0  0  0  0  0  0  0  0  0
  161.5860  205.8080  153.0120 O   0  0  0  0  0  0  0  0  0  0  0  0
  161.4070  203.6990  151.3520 N   0  0  0  0  0  1  0  0  0  0  0  0
  161.1370  206.0700  150.6790 C   0  0  0  0  0  0  0  0  0  0  0  0
  161.0410  204.3100  149.0610 N   0  0  0  0  0  0  0  0  0  0  0  0
  161.1930  204.6960  150.3560 C   0  0  0  0  0  0  0  0  0  0  0  0
  160.7790  206.5690  148.3800 C   0  0  0  0  0  3  0  0  0  0  0  0
  160.8350  205.2130  148.0690 C   0  0  0  0  0  3  0  0  0  0  0  0
  160.9310  206.9630  149.6710 N   0  0  0  0  0  0  0  0  0  0  0  0
  158.5560  211.0810  153.3880 C   0  0  0  0  0  3  0  0  0  0  0  0
  157.9690  211.7730  154.3550 C   0  0  0  0  0  3  0  0  0  0  0  0
  156.6090  212.0430  154.2870 O   0  0  0  0  0  0  0  0  0  0  0  0
  156.0640  213.1200  155.0270 C   0  0  0  0  0  1  0  0  0  0  0  0
  1  3  1  6  0  0  0
  1 11  1  0  0  0  0
  1  5  1  0  0  0  0
  4 24  1  6  0  0  0
  4 10  1  0  0  0  0
  5  3  1  6  0  0  0
  5  9  1  0  0  0  0
  6  2  2  0  0  0  0
  7 10  1  0  0  0  0
  7  8  2  0  0  0  0
  8  2  1  0  0  0  0
  9 15  1  1  0  0  0
  9  7  1  0  0  0  0
 10  6  1  0  0  0  0
 11 12  1  1  0  0  0
 11  4  1  0  0  0  0
 12 14  2  0  0  0  0
 13 12  1  0  0  0  0
 15 16  2  0  0  0  0
 18 15  1  0  0  0  0
 19 20  2  0  0  0  0
 20 18  1  0  0  0  0
 20 17  1  0  0  0  0
 21 23  1  0  0  0  0
 22 21  2  0  0  0  0
 22 19  1  0  0  0  0
 23 18  2  0  0  0  0
 24 25  2  0  0  0  0
 26 25  1  0  0  0  0
 26 27  1  0  0  0  0
M  END
>  <MODEL>
9

>  <REMARK>
 VINA RESULT:      -4.7      2.309      7.016
  Name = 
  5 active torsions:
  status: ('A' for Active; 'I' for Inactive)
    1  A    between atoms: C_2  and  C_27
    2  A    between atoms: C_6  and  C_7
    3  A    between atoms: C_7  and  C_25
    4  A    between atoms: C_11  and  C_16
    5  A    between atoms: C_13  and  O_14
                            x       y       z     vdW  Elec       q    Type
                         _______ _______ _______ _____ _____    ______ ____

>  <TORSDO>
F 5

$$$$
