=
 OpenBabel11052410263D

 36 41  0  0  1  0  0  0  0  0999 V2000
  160.8440  207.4340  153.7250 C   0  0  0  0  0  0  0  0  0  0  0  0
  161.6990  204.8160  147.9560 C   0  0  0  0  0  3  0  0  0  0  0  0
  161.4540  208.6550  153.5040 C   0  0  0  0  0  0  0  0  0  0  0  0
  160.9570  206.2240  151.5890 C   0  0  0  0  0  0  0  0  0  0  0  0
  161.5340  209.4050  154.7270 C   0  0  0  0  0  0  0  0  0  0  0  0
  160.4800  207.3470  155.3420 S   0  0  0  0  0  0  0  0  0  0  0  0
  160.7700  204.9040  151.1310 O   0  0  0  0  0  0  0  0  0  0  0  0
  161.7670  209.1200  148.5610 C   0  0  0  0  0  3  0  0  0  0  0  0
  161.0300  208.8210  155.8430 N   0  0  0  0  0  0  0  0  0  0  0  0
  162.7630  210.0970  152.3590 O   0  0  0  0  0  0  0  0  0  0  0  0
  160.7310  206.3810  152.9070 N   0  0  0  0  0  0  0  0  0  0  0  0
  161.9600  209.1260  152.2820 C   0  0  0  0  0  0  0  0  0  0  0  0
  162.0690  210.7250  154.8040 N   0  0  0  0  0  1  0  0  0  0  0  0
  160.3240  204.6210  149.8170 C   0  0  2  0  0  3  0  0  0  0  0  0
  161.2890  207.2690  150.6580 C   0  0  0  0  0  0  0  0  0  0  0  0
  161.6460  208.6340  150.9780 C   0  0  0  0  0  0  0  0  0  0  0  0
  161.4510  203.4340  148.1380 N   0  0  0  0  0  0  0  0  0  0  0  0
  160.7020  203.2120  149.3630 C   0  0  0  0  0  2  0  0  0  0  0  0
  161.5610  207.7960  148.2620 C   0  0  0  0  0  3  0  0  0  0  0  0
  161.0710  205.4930  148.8990 C   0  0  0  0  0  0  0  0  0  0  0  0
  161.8000  209.5520  149.8800 C   0  0  0  0  0  0  0  0  0  0  0  0
  161.3200  206.8830  149.2770 C   0  0  0  0  0  0  0  0  0  0  0  0
  161.9150  211.0400  150.0450 C   0  0  0  0  0  2  0  0  0  0  0  0
  162.2660  211.7050  148.7200 C   0  0  0  0  0  2  0  0  0  0  0  0
  161.3320  212.8410  148.4490 C   0  0  0  0  0  0  0  0  0  0  0  0
  159.6240  214.4520  149.3040 C   0  0  0  0  0  2  0  0  0  0  0  0
  160.6300  213.3470  149.4770 C   0  0  0  0  0  3  0  0  0  0  0  0
  160.1280  214.4530  146.8810 C   0  0  0  0  0  2  0  0  0  0  0  0
  161.0210  213.2160  147.0100 C   0  0  1  0  0  3  0  0  0  0  0  0
  162.2960  213.4450  146.2160 C   0  0  0  0  0  1  0  0  0  0  0  0
  159.0080  214.4160  147.9120 C   0  0  0  0  0  2  0  0  0  0  0  0
  161.9880  202.3730  147.2990 C   0  0  0  0  0  2  0  0  0  0  0  0
  160.8900  201.3870  146.9150 C   0  0  1  0  0  3  0  0  0  0  0  0
  160.4430  201.6350  145.6130 O   0  0  0  0  0  1  0  0  0  0  0  0
  161.3690  199.9470  147.0540 C   0  0  0  0  0  2  0  0  0  0  0  0
  161.2710  199.1820  145.7390 C   0  0  0  0  0  1  0  0  0  0  0  0
  1  6  1  0  0  0  0
  2 17  1  0  0  0  0
  2 20  2  0  0  0  0
  3  1  2  0  0  0  0
  3  5  1  0  0  0  0
  4 11  2  0  0  0  0
  5 13  1  0  0  0  0
  5  9  2  0  0  0  0
  6  9  1  0  0  0  0
  7  4  1  0  0  0  0
  8 21  1  0  0  0  0
 11  1  1  0  0  0  0
 12 10  2  0  0  0  0
 12  3  1  0  0  0  0
 14 18  1  6  0  0  0
 14  7  1  0  0  0  0
 15 16  1  0  0  0  0
 15  4  1  0  0  0  0
 16 12  1  0  0  0  0
 17 18  1  0  0  0  0
 19  8  2  0  0  0  0
 19 22  1  0  0  0  0
 20 22  1  0  0  0  0
 20 14  1  0  0  0  0
 21 23  1  0  0  0  0
 21 16  2  0  0  0  0
 22 15  2  0  0  0  0
 24 23  1  0  0  0  0
 25 24  1  0  0  0  0
 25 27  2  0  0  0  0
 26 27  1  0  0  0  0
 28 29  1  0  0  0  0
 28 31  1  0  0  0  0
 29 30  1  6  0  0  0
 29 25  1  0  0  0  0
 31 26  1  0  0  0  0
 32 17  1  0  0  0  0
 33 34  1  6  0  0  0
 33 35  1  0  0  0  0
 33 32  1  0  0  0  0
 36 35  1  0  0  0  0
M  END
>  <MODEL>
1

>  <REMARK>
 VINA RESULT:      -8.4      0.000      0.000
  Name = 
  6 active torsions:
  status: ('A' for Active; 'I' for Inactive)
    1  A    between atoms: C_4  and  C_25
    2  A    between atoms: C_4  and  C_32
    3  A    between atoms: C_5  and  C_34
    4  A    between atoms: C_7  and  C_34
    5  A    between atoms: C_7  and  C_35
    6  A    between atoms: N_27  and  C_32
                            x       y       z     vdW  Elec       q    Type
                         _______ _______ _______ _____ _____    ______ ____

>  <TORSDO>
F 6

$$$$
=
 OpenBabel11052410263D

 36 41  0  0  1  0  0  0  0  0999 V2000
  161.5200  209.8310  153.6620 C   0  0  0  0  0  0  0  0  0  0  0  0
  161.2060  211.0760  147.4000 C   0  0  0  0  0  3  0  0  0  0  0  0
  161.2140  208.4820  153.6320 C   0  0  0  0  0  0  0  0  0  0  0  0
  161.5520  210.5690  151.3190 C   0  0  0  0  0  0  0  0  0  0  0  0
  161.0680  207.9710  154.9680 C   0  0  0  0  0  0  0  0  0  0  0  0
  161.5650  210.2940  155.2550 S   0  0  0  0  0  0  0  0  0  0  0  0
  161.5520  211.7890  150.6130 O   0  0  0  0  0  0  0  0  0  0  0  0
  161.8880  207.0590  148.9140 C   0  0  0  0  0  3  0  0  0  0  0  0
  161.2380  208.8510  155.9870 N   0  0  0  0  0  0  0  0  0  0  0  0
  160.4430  206.5920  152.6650 O   0  0  0  0  0  0  0  0  0  0  0  0
  161.5660  210.7130  152.6570 N   0  0  0  0  0  0  0  0  0  0  0  0
  161.0380  207.6910  152.4860 C   0  0  0  0  0  0  0  0  0  0  0  0
  160.8010  206.6010  155.2580 N   0  0  0  0  0  1  0  0  0  0  0  0
  162.1610  211.9210  149.3410 C   0  0  2  0  0  3  0  0  0  0  0  0
  161.6060  209.3230  150.6020 C   0  0  0  0  0  0  0  0  0  0  0  0
  161.4760  207.9950  151.1610 C   0  0  0  0  0  0  0  0  0  0  0  0
  161.1390  212.4880  147.3080 N   0  0  0  0  0  0  0  0  0  0  0  0
  161.5980  213.0970  148.5440 C   0  0  0  0  0  2  0  0  0  0  0  0
  161.8760  208.3170  148.3640 C   0  0  0  0  0  3  0  0  0  0  0  0
  161.7770  210.7480  148.5430 C   0  0  0  0  0  0  0  0  0  0  0  0
  161.7060  206.8800  150.2780 C   0  0  0  0  0  0  0  0  0  0  0  0
  161.7470  209.4310  149.1790 C   0  0  0  0  0  0  0  0  0  0  0  0
  161.8610  205.4620  150.7470 C   0  0  0  0  0  2  0  0  0  0  0  0
  160.6170  204.6470  150.4180 C   0  0  0  0  0  2  0  0  0  0  0  0
  160.9480  203.5770  149.4260 C   0  0  0  0  0  0  0  0  0  0  0  0
  161.5860  202.9540  147.0930 C   0  0  0  0  0  2  0  0  0  0  0  0
  161.2890  203.9490  148.1800 C   0  0  0  0  0  3  0  0  0  0  0  0
  161.1280  201.1360  148.7090 C   0  0  0  0  0  2  0  0  0  0  0  0
  160.6520  202.1280  149.7730 C   0  0  1  0  0  3  0  0  0  0  0  0
  161.2680  201.7490  151.1100 C   0  0  0  0  0  1  0  0  0  0  0  0
  160.8170  201.6580  147.3120 C   0  0  0  0  0  2  0  0  0  0  0  0
  160.5600  213.2230  146.1930 C   0  0  0  0  0  2  0  0  0  0  0  0
  159.9430  212.2640  145.1820 C   0  0  1  0  0  3  0  0  0  0  0  0
  158.5480  212.3730  145.1940 O   0  0  0  0  0  1  0  0  0  0  0  0
  160.4900  212.5110  143.7810 C   0  0  0  0  0  2  0  0  0  0  0  0
  161.9680  212.8790  143.8000 C   0  0  0  0  0  1  0  0  0  0  0  0
  1  6  1  0  0  0  0
  2 20  2  0  0  0  0
  3  1  2  0  0  0  0
  3  5  1  0  0  0  0
  4 11  2  0  0  0  0
  5 13  1  0  0  0  0
  5  9  2  0  0  0  0
  6  9  1  0  0  0  0
  7  4  1  0  0  0  0
  8 21  1  0  0  0  0
 11  1  1  0  0  0  0
 12 10  2  0  0  0  0
 12  3  1  0  0  0  0
 14 18  1  6  0  0  0
 14  7  1  0  0  0  0
 15 16  1  0  0  0  0
 15  4  1  0  0  0  0
 16 12  1  0  0  0  0
 17  2  1  0  0  0  0
 17 18  1  0  0  0  0
 19  8  2  0  0  0  0
 19 22  1  0  0  0  0
 20 22  1  0  0  0  0
 20 14  1  0  0  0  0
 21 23  1  0  0  0  0
 21 16  2  0  0  0  0
 22 15  2  0  0  0  0
 24 23  1  0  0  0  0
 25 29  1  0  0  0  0
 25 24  1  0  0  0  0
 26 31  1  0  0  0  0
 26 27  1  0  0  0  0
 27 25  2  0  0  0  0
 28 29  1  0  0  0  0
 29 30  1  1  0  0  0
 31 28  1  0  0  0  0
 32 17  1  0  0  0  0
 33 34  1  6  0  0  0
 33 32  1  0  0  0  0
 35 36  1  0  0  0  0
 35 33  1  0  0  0  0
M  END
>  <MODEL>
2

>  <REMARK>
 VINA RESULT:      -8.2      2.469      7.897
  Name = 
  6 active torsions:
  status: ('A' for Active; 'I' for Inactive)
    1  A    between atoms: C_4  and  C_25
    2  A    between atoms: C_4  and  C_32
    3  A    between atoms: C_5  and  C_34
    4  A    between atoms: C_7  and  C_34
    5  A    between atoms: C_7  and  C_35
    6  A    between atoms: N_27  and  C_32
                            x       y       z     vdW  Elec       q    Type
                         _______ _______ _______ _____ _____    ______ ____

>  <TORSDO>
F 6

$$$$
=
 OpenBabel11052410263D

 36 41  0  0  1  0  0  0  0  0999 V2000
  161.1330  203.9800  151.8810 C   0  0  0  0  0  0  0  0  0  0  0  0
  160.6520  209.7870  154.5100 C   0  0  0  0  0  3  0  0  0  0  0  0
  160.8710  204.3140  150.5640 C   0  0  0  0  0  0  0  0  0  0  0  0
  161.0940  206.0930  153.1350 C   0  0  0  0  0  0  0  0  0  0  0  0
  160.7680  203.1280  149.7570 C   0  0  0  0  0  0  0  0  0  0  0  0
  161.1950  202.3240  151.9690 S   0  0  0  0  0  0  0  0  0  0  0  0
  161.0390  206.5000  154.4830 O   0  0  0  0  0  0  0  0  0  0  0  0
  161.4950  209.2410  150.2800 C   0  0  0  0  0  3  0  0  0  0  0  0
  160.9310  201.9370  150.3860 N   0  0  0  0  0  0  0  0  0  0  0  0
  160.1430  205.6780  148.9180 O   0  0  0  0  0  0  0  0  0  0  0  0
  161.1300  204.7570  152.9700 N   0  0  0  0  0  0  0  0  0  0  0  0
  160.6980  205.6080  150.0500 C   0  0  0  0  0  0  0  0  0  0  0  0
  160.5530  203.1570  148.3480 N   0  0  0  0  0  1  0  0  0  0  0  0
  161.6180  207.7160  154.9240 C   0  0  2  0  0  3  0  0  0  0  0  0
  161.1740  207.0760  152.0880 C   0  0  0  0  0  0  0  0  0  0  0  0
  161.0980  206.8340  150.6640 C   0  0  0  0  0  0  0  0  0  0  0  0
  160.5370  209.5530  155.9020 N   0  0  0  0  0  0  0  0  0  0  0  0
  161.0010  208.2160  156.2290 C   0  0  0  0  0  2  0  0  0  0  0  0
  161.4320  209.4880  151.6300 C   0  0  0  0  0  3  0  0  0  0  0  0
  161.2570  208.7560  153.9500 C   0  0  0  0  0  0  0  0  0  0  0  0
  161.3470  207.9510  149.7890 C   0  0  0  0  0  0  0  0  0  0  0  0
  161.2820  208.4380  152.5230 C   0  0  0  0  0  0  0  0  0  0  0  0
  161.5580  207.8210  148.3070 C   0  0  0  0  0  2  0  0  0  0  0  0
  162.5070  206.6700  147.9970 C   0  0  0  0  0  2  0  0  0  0  0  0
  162.0760  205.9670  146.7500 C   0  0  0  0  0  0  0  0  0  0  0  0
  160.5050  205.8270  144.8120 C   0  0  0  0  0  2  0  0  0  0  0  0
  161.0530  206.4850  146.0480 C   0  0  0  0  0  3  0  0  0  0  0  0
  162.1750  204.0230  145.1010 C   0  0  0  0  0  2  0  0  0  0  0  0
  162.6260  204.5820  146.4530 C   0  0  1  0  0  3  0  0  0  0  0  0
  164.1440  204.5740  146.5060 C   0  0  0  0  0  1  0  0  0  0  0  0
  160.6990  204.3180  144.8640 C   0  0  0  0  0  2  0  0  0  0  0  0
  159.9130  210.4630  156.8500 C   0  0  0  0  0  2  0  0  0  0  0  0
  159.0610  211.4950  156.1200 C   0  0  1  0  0  3  0  0  0  0  0  0
  157.7410  211.4560  156.5830 O   0  0  0  0  0  1  0  0  0  0  0  0
  159.6420  212.8960  156.2710 C   0  0  0  0  0  2  0  0  0  0  0  0
  159.0750  213.8650  155.2400 C   0  0  0  0  0  1  0  0  0  0  0  0
  1  6  1  0  0  0  0
  1 11  1  0  0  0  0
  2 17  1  0  0  0  0
  3  1  2  0  0  0  0
  4  7  1  0  0  0  0
  5  9  2  0  0  0  0
  5  3  1  0  0  0  0
  7 14  1  0  0  0  0
  8 19  1  0  0  0  0
  9  6  1  0  0  0  0
 10 12  2  0  0  0  0
 11  4  2  0  0  0  0
 12  3  1  0  0  0  0
 12 16  1  0  0  0  0
 13  5  1  0  0  0  0
 14 18  1  1  0  0  0
 15 22  1  0  0  0  0
 15  4  1  0  0  0  0
 16 15  2  0  0  0  0
 17 18  1  0  0  0  0
 17 32  1  0  0  0  0
 19 22  2  0  0  0  0
 20  2  2  0  0  0  0
 20 14  1  0  0  0  0
 21  8  2  0  0  0  0
 21 16  1  0  0  0  0
 22 20  1  0  0  0  0
 23 21  1  0  0  0  0
 24 23  1  0  0  0  0
 25 24  1  0  0  0  0
 26 31  1  0  0  0  0
 26 27  1  0  0  0  0
 27 25  2  0  0  0  0
 28 29  1  0  0  0  0
 29 30  1  6  0  0  0
 29 25  1  0  0  0  0
 31 28  1  0  0  0  0
 33 35  1  0  0  0  0
 33 34  1  1  0  0  0
 33 32  1  0  0  0  0
 36 35  1  0  0  0  0
M  END
>  <MODEL>
3

>  <REMARK>
 VINA RESULT:      -7.6      3.310      8.379
  Name = 
  6 active torsions:
  status: ('A' for Active; 'I' for Inactive)
    1  A    between atoms: C_4  and  C_25
    2  A    between atoms: C_4  and  C_32
    3  A    between atoms: C_5  and  C_34
    4  A    between atoms: C_7  and  C_34
    5  A    between atoms: C_7  and  C_35
    6  A    between atoms: N_27  and  C_32
                            x       y       z     vdW  Elec       q    Type
                         _______ _______ _______ _____ _____    ______ ____

>  <TORSDO>
F 6

$$$$
=
 OpenBabel11052410263D

 36 41  0  0  1  0  0  0  0  0999 V2000
  161.8770  211.4380  148.6380 C   0  0  0  0  0  0  0  0  0  0  0  0
  160.9600  205.4030  150.5340 C   0  0  0  0  0  3  0  0  0  0  0  0
  161.3370  212.0950  149.7290 C   0  0  0  0  0  0  0  0  0  0  0  0
  161.7280  209.0400  149.1500 C   0  0  0  0  0  0  0  0  0  0  0  0
  161.2810  213.5100  149.4850 C   0  0  0  0  0  0  0  0  0  0  0  0
  162.2140  212.5850  147.4860 S   0  0  0  0  0  0  0  0  0  0  0  0
  161.8490  207.8190  148.4550 O   0  0  0  0  0  0  0  0  0  0  0  0
  161.1170  208.7020  153.3600 C   0  0  0  0  0  3  0  0  0  0  0  0
  161.7380  213.9490  148.2850 N   0  0  0  0  0  0  0  0  0  0  0  0
  160.1230  212.2220  151.6290 O   0  0  0  0  0  0  0  0  0  0  0  0
  161.9440  210.1260  148.3850 N   0  0  0  0  0  0  0  0  0  0  0  0
  160.8740  211.5020  150.9140 C   0  0  0  0  0  0  0  0  0  0  0  0
  160.8180  214.4530  150.4500 N   0  0  0  0  0  1  0  0  0  0  0  0
  162.2980  206.6350  149.0890 C   0  0  2  0  0  3  0  0  0  0  0  0
  161.4650  209.0400  150.5640 C   0  0  0  0  0  0  0  0  0  0  0  0
  161.1780  210.1910  151.3920 C   0  0  0  0  0  0  0  0  0  0  0  0
  161.1310  204.6200  149.3670 N   0  0  0  0  0  0  0  0  0  0  0  0
  161.8500  205.3730  148.3540 C   0  0  0  0  0  2  0  0  0  0  0  0
  161.2550  207.5980  152.5550 C   0  0  0  0  0  3  0  0  0  0  0  0
  161.6110  206.5410  150.3860 C   0  0  0  0  0  0  0  0  0  0  0  0
  161.0890  209.9780  152.8130 C   0  0  0  0  0  0  0  0  0  0  0  0
  161.4330  207.7500  151.1890 C   0  0  0  0  0  0  0  0  0  0  0  0
  161.0520  211.0880  153.8240 C   0  0  0  0  0  2  0  0  0  0  0  0
  160.0590  210.7730  154.9350 C   0  0  0  0  0  2  0  0  0  0  0  0
  158.9610  211.7890  154.9490 C   0  0  0  0  0  0  0  0  0  0  0  0
  156.6320  212.4240  154.3040 C   0  0  0  0  0  2  0  0  0  0  0  0
  157.7830  211.4590  154.3920 C   0  0  0  0  0  3  0  0  0  0  0  0
  158.0460  214.1230  155.4180 C   0  0  0  0  0  2  0  0  0  0  0  0
  159.2790  213.2170  155.3560 C   0  0  1  0  0  3  0  0  0  0  0  0
  159.9860  213.2580  156.7010 C   0  0  0  0  0  1  0  0  0  0  0  0
  157.1290  213.8610  154.2300 C   0  0  0  0  0  2  0  0  0  0  0  0
  160.5490  203.3030  149.1540 C   0  0  0  0  0  2  0  0  0  0  0  0
  161.3090  202.2470  149.9480 C   0  0  1  0  0  3  0  0  0  0  0  0
  160.8420  202.1960  151.2660 O   0  0  0  0  0  1  0  0  0  0  0  0
  161.2050  200.8780  149.2870 C   0  0  0  0  0  2  0  0  0  0  0  0
  161.2070  200.9740  147.7670 C   0  0  0  0  0  1  0  0  0  0  0  0
  1  3  2  0  0  0  0
  3 12  1  0  0  0  0
  4 15  1  0  0  0  0
  5  3  1  0  0  0  0
  5 13  1  0  0  0  0
  6  9  1  0  0  0  0
  6  1  1  0  0  0  0
  7 14  1  0  0  0  0
  7  4  1  0  0  0  0
  9  5  2  0  0  0  0
 11  1  1  0  0  0  0
 11  4  2  0  0  0  0
 12 16  1  0  0  0  0
 12 10  2  0  0  0  0
 14 18  1  6  0  0  0
 14 20  1  0  0  0  0
 15 22  2  0  0  0  0
 15 16  1  0  0  0  0
 16 21  2  0  0  0  0
 17  2  1  0  0  0  0
 18 17  1  0  0  0  0
 19  8  2  0  0  0  0
 20  2  2  0  0  0  0
 20 22  1  0  0  0  0
 21  8  1  0  0  0  0
 21 23  1  0  0  0  0
 22 19  1  0  0  0  0
 23 24  1  0  0  0  0
 24 25  1  0  0  0  0
 25 29  1  0  0  0  0
 26 27  1  0  0  0  0
 27 25  2  0  0  0  0
 29 28  1  0  0  0  0
 29 30  1  1  0  0  0
 31 26  1  0  0  0  0
 31 28  1  0  0  0  0
 32 17  1  0  0  0  0
 32 33  1  0  0  0  0
 33 34  1  1  0  0  0
 35 33  1  0  0  0  0
 36 35  1  0  0  0  0
M  END
>  <MODEL>
4

>  <REMARK>
 VINA RESULT:      -7.0      3.565      5.418
  Name = 
  6 active torsions:
  status: ('A' for Active; 'I' for Inactive)
    1  A    between atoms: C_4  and  C_25
    2  A    between atoms: C_4  and  C_32
    3  A    between atoms: C_5  and  C_34
    4  A    between atoms: C_7  and  C_34
    5  A    between atoms: C_7  and  C_35
    6  A    between atoms: N_27  and  C_32
                            x       y       z     vdW  Elec       q    Type
                         _______ _______ _______ _____ _____    ______ ____

>  <TORSDO>
F 6

$$$$
=
 OpenBabel11052410263D

 36 41  0  0  1  0  0  0  0  0999 V2000
  161.1950  205.1490  151.3770 C   0  0  0  0  0  0  0  0  0  0  0  0
  160.3780  210.3670  154.9770 C   0  0  0  0  0  3  0  0  0  0  0  0
  161.1790  205.7410  150.1270 C   0  0  0  0  0  0  0  0  0  0  0  0
  160.9790  206.9830  152.9970 C   0  0  0  0  0  0  0  0  0  0  0  0
  161.1960  204.7380  149.0970 C   0  0  0  0  0  0  0  0  0  0  0  0
  161.2050  203.5060  151.1470 S   0  0  0  0  0  0  0  0  0  0  0  0
  160.6940  207.1300  154.3700 O   0  0  0  0  0  0  0  0  0  0  0  0
  161.9490  210.5890  150.9300 C   0  0  0  0  0  3  0  0  0  0  0  0
  161.2180  203.4420  149.4980 N   0  0  0  0  0  0  0  0  0  0  0  0
  160.7840  207.4320  148.6830 O   0  0  0  0  0  0  0  0  0  0  0  0
  161.0150  205.7040  152.5820 N   0  0  0  0  0  0  0  0  0  0  0  0
  161.1280  207.1170  149.8560 C   0  0  0  0  0  0  0  0  0  0  0  0
  161.2350  205.0460  147.7050 N   0  0  0  0  0  1  0  0  0  0  0  0
  161.2100  208.2050  155.1340 C   0  0  2  0  0  3  0  0  0  0  0  0
  161.2640  208.1420  152.1940 C   0  0  0  0  0  0  0  0  0  0  0  0
  161.4390  208.1800  150.7580 C   0  0  0  0  0  0  0  0  0  0  0  0
  160.0120  209.8800  156.2550 N   0  0  0  0  0  0  0  0  0  0  0  0
  160.3820  208.4810  156.3870 C   0  0  0  0  0  2  0  0  0  0  0  0
  161.6510  210.5780  152.2710 C   0  0  0  0  0  3  0  0  0  0  0  0
  161.0510  209.4300  154.3370 C   0  0  0  0  0  0  0  0  0  0  0  0
  161.8630  209.4270  150.1760 C   0  0  0  0  0  0  0  0  0  0  0  0
  161.3230  209.3880  152.9010 C   0  0  0  0  0  0  0  0  0  0  0  0
  162.3310  209.5690  148.7560 C   0  0  0  0  0  2  0  0  0  0  0  0
  161.3070  210.3310  147.9250 C   0  0  0  0  0  2  0  0  0  0  0  0
  161.6570  211.7840  147.8780 C   0  0  0  0  0  0  0  0  0  0  0  0
  163.4180  213.5570  147.8900 C   0  0  0  0  0  2  0  0  0  0  0  0
  162.9580  212.1250  147.8800 C   0  0  0  0  0  3  0  0  0  0  0  0
  161.0450  214.2600  147.9100 C   0  0  0  0  0  2  0  0  0  0  0  0
  160.5620  212.8170  148.0780 C   0  0  1  0  0  3  0  0  0  0  0  0
  159.4010  212.5730  147.1280 C   0  0  0  0  0  1  0  0  0  0  0  0
  162.3990  214.4530  148.5800 C   0  0  0  0  0  2  0  0  0  0  0  0
  159.2480  210.6260  157.2440 C   0  0  0  0  0  2  0  0  0  0  0  0
  158.2770  211.5810  156.5600 C   0  0  1  0  0  3  0  0  0  0  0  0
  157.0150  211.5060  157.1600 O   0  0  0  0  0  1  0  0  0  0  0  0
  158.7990  213.0130  156.5860 C   0  0  0  0  0  2  0  0  0  0  0  0
  158.3780  213.7980  155.3490 C   0  0  0  0  0  1  0  0  0  0  0  0
  1 11  1  0  0  0  0
  2 17  1  0  0  0  0
  3  1  2  0  0  0  0
  4  7  1  0  0  0  0
  5  9  2  0  0  0  0
  5  3  1  0  0  0  0
  6  1  1  0  0  0  0
  7 14  1  0  0  0  0
  8 19  1  0  0  0  0
  9  6  1  0  0  0  0
 10 12  2  0  0  0  0
 11  4  2  0  0  0  0
 12  3  1  0  0  0  0
 12 16  1  0  0  0  0
 13  5  1  0  0  0  0
 14 18  1  1  0  0  0
 15 22  1  0  0  0  0
 15  4  1  0  0  0  0
 16 15  2  0  0  0  0
 17 18  1  0  0  0  0
 17 32  1  0  0  0  0
 19 22  2  0  0  0  0
 20  2  2  0  0  0  0
 20 14  1  0  0  0  0
 21 16  1  0  0  0  0
 21  8  2  0  0  0  0
 22 20  1  0  0  0  0
 23 21  1  0  0  0  0
 24 23  1  0  0  0  0
 25 27  2  0  0  0  0
 25 24  1  0  0  0  0
 25 29  1  0  0  0  0
 26 31  1  0  0  0  0
 27 26  1  0  0  0  0
 28 29  1  0  0  0  0
 28 31  1  0  0  0  0
 29 30  1  6  0  0  0
 33 35  1  0  0  0  0
 33 34  1  1  0  0  0
 33 32  1  0  0  0  0
 36 35  1  0  0  0  0
M  END
>  <MODEL>
5

>  <REMARK>
 VINA RESULT:      -6.9      2.637      7.450
  Name = 
  6 active torsions:
  status: ('A' for Active; 'I' for Inactive)
    1  A    between atoms: C_4  and  C_25
    2  A    between atoms: C_4  and  C_32
    3  A    between atoms: C_5  and  C_34
    4  A    between atoms: C_7  and  C_34
    5  A    between atoms: C_7  and  C_35
    6  A    between atoms: N_27  and  C_32
                            x       y       z     vdW  Elec       q    Type
                         _______ _______ _______ _____ _____    ______ ____

>  <TORSDO>
F 6

$$$$
=
 OpenBabel11052410263D

 36 41  0  0  1  0  0  0  0  0999 V2000
  161.9580  209.4160  149.2030 C   0  0  0  0  0  0  0  0  0  0  0  0
  160.8520  203.1240  148.9970 C   0  0  0  0  0  3  0  0  0  0  0  0
  161.5550  209.6660  150.5020 C   0  0  0  0  0  0  0  0  0  0  0  0
  161.7110  206.9940  148.8730 C   0  0  0  0  0  0  0  0  0  0  0  0
  161.5630  211.0790  150.7660 C   0  0  0  0  0  0  0  0  0  0  0  0
  162.2600  210.8820  148.4870 S   0  0  0  0  0  0  0  0  0  0  0  0
  161.6990  206.0880  147.7940 O   0  0  0  0  0  0  0  0  0  0  0  0
  161.4510  205.2310  152.7510 C   0  0  0  0  0  3  0  0  0  0  0  0
  161.9380  211.8950  149.7490 N   0  0  0  0  0  0  0  0  0  0  0  0
  160.5220  209.1570  152.4450 O   0  0  0  0  0  0  0  0  0  0  0  0
  161.9240  208.2720  148.5090 N   0  0  0  0  0  0  0  0  0  0  0  0
  161.1630  208.7110  151.4530 C   0  0  0  0  0  0  0  0  0  0  0  0
  161.2430  211.6400  152.0380 N   0  0  0  0  0  1  0  0  0  0  0  0
  162.1290  204.7460  147.9340 C   0  0  2  0  0  3  0  0  0  0  0  0
  161.5740  206.5100  150.2210 C   0  0  0  0  0  0  0  0  0  0  0  0
  161.4290  207.3090  151.4180 C   0  0  0  0  0  0  0  0  0  0  0  0
  160.8730  202.7900  147.6210 N   0  0  0  0  0  0  0  0  0  0  0  0
  161.5450  203.8300  146.8600 C   0  0  0  0  0  2  0  0  0  0  0  0
  161.4530  204.4710  151.6070 C   0  0  0  0  0  3  0  0  0  0  0  0
  161.5540  204.2250  149.1820 C   0  0  0  0  0  0  0  0  0  0  0  0
  161.4520  206.6170  152.6810 C   0  0  0  0  0  0  0  0  0  0  0  0
  161.5190  205.0840  150.3650 C   0  0  0  0  0  0  0  0  0  0  0  0
  161.5700  207.3080  154.0100 C   0  0  0  0  0  2  0  0  0  0  0  0
  160.2270  207.3280  154.7280 C   0  0  0  0  0  2  0  0  0  0  0  0
  160.0850  208.5870  155.5220 C   0  0  0  0  0  0  0  0  0  0  0  0
  158.7310  210.6060  156.0990 C   0  0  0  0  0  2  0  0  0  0  0  0
  158.9520  209.2990  155.3890 C   0  0  0  0  0  3  0  0  0  0  0  0
  160.9850  210.3810  157.0980 C   0  0  0  0  0  2  0  0  0  0  0  0
  161.2970  209.1450  156.2490 C   0  0  1  0  0  3  0  0  0  0  0  0
  161.9370  208.0890  157.1350 C   0  0  0  0  0  1  0  0  0  0  0  0
  160.0510  211.3230  156.3490 C   0  0  0  0  0  2  0  0  0  0  0  0
  160.1980  201.6450  147.0300 C   0  0  0  0  0  2  0  0  0  0  0  0
  161.2060  200.5670  146.6500 C   0  0  1  0  0  3  0  0  0  0  0  0
  161.5830  199.8300  147.7780 O   0  0  0  0  0  1  0  0  0  0  0  0
  160.6490  199.6470  145.5690 C   0  0  0  0  0  2  0  0  0  0  0  0
  161.4490  198.3550  145.4490 C   0  0  0  0  0  1  0  0  0  0  0  0
  1  3  2  0  0  0  0
  2 20  2  0  0  0  0
  3  5  1  0  0  0  0
  3 12  1  0  0  0  0
  4 15  1  0  0  0  0
  5 13  1  0  0  0  0
  6  1  1  0  0  0  0
  6  9  1  0  0  0  0
  7 14  1  0  0  0  0
  7  4  1  0  0  0  0
  9  5  2  0  0  0  0
 11  4  2  0  0  0  0
 11  1  1  0  0  0  0
 12 10  2  0  0  0  0
 14 18  1  6  0  0  0
 14 20  1  0  0  0  0
 15 22  2  0  0  0  0
 15 16  1  0  0  0  0
 16 12  1  0  0  0  0
 16 21  2  0  0  0  0
 17  2  1  0  0  0  0
 18 17  1  0  0  0  0
 19  8  2  0  0  0  0
 20 22  1  0  0  0  0
 21  8  1  0  0  0  0
 21 23  1  0  0  0  0
 22 19  1  0  0  0  0
 23 24  1  0  0  0  0
 24 25  1  0  0  0  0
 25 29  1  0  0  0  0
 26 31  1  0  0  0  0
 27 25  2  0  0  0  0
 27 26  1  0  0  0  0
 29 28  1  0  0  0  0
 29 30  1  1  0  0  0
 31 28  1  0  0  0  0
 32 17  1  0  0  0  0
 33 32  1  0  0  0  0
 33 34  1  1  0  0  0
 35 33  1  0  0  0  0
 36 35  1  0  0  0  0
M  END
>  <MODEL>
6

>  <REMARK>
 VINA RESULT:      -6.5      2.915      5.461
  Name = 
  6 active torsions:
  status: ('A' for Active; 'I' for Inactive)
    1  A    between atoms: C_4  and  C_25
    2  A    between atoms: C_4  and  C_32
    3  A    between atoms: C_5  and  C_34
    4  A    between atoms: C_7  and  C_34
    5  A    between atoms: C_7  and  C_35
    6  A    between atoms: N_27  and  C_32
                            x       y       z     vdW  Elec       q    Type
                         _______ _______ _______ _____ _____    ______ ____

>  <TORSDO>
F 6

$$$$
=
 OpenBabel11052410263D

 36 41  0  0  1  0  0  0  0  0999 V2000
  161.4340  205.0110  149.0250 C   0  0  0  0  0  0  0  0  0  0  0  0
  160.7050  208.7080  154.1880 C   0  0  0  0  0  3  0  0  0  0  0  0
  161.3380  205.9820  148.0450 C   0  0  0  0  0  0  0  0  0  0  0  0
  161.2670  206.1950  151.1710 C   0  0  0  0  0  0  0  0  0  0  0  0
  161.3200  205.3790  146.7400 C   0  0  0  0  0  0  0  0  0  0  0  0
  161.4650  203.5380  148.2610 S   0  0  0  0  0  0  0  0  0  0  0  0
  161.0540  205.8680  152.5250 O   0  0  0  0  0  0  0  0  0  0  0  0
  162.0500  210.3160  150.3810 C   0  0  0  0  0  3  0  0  0  0  0  0
  161.3910  204.0250  146.6850 N   0  0  0  0  0  0  0  0  0  0  0  0
  160.8320  208.0400  147.2640 O   0  0  0  0  0  0  0  0  0  0  0  0
  161.3070  205.1280  150.3520 N   0  0  0  0  0  0  0  0  0  0  0  0
  161.2440  207.3680  148.2500 C   0  0  0  0  0  0  0  0  0  0  0  0
  161.2780  206.1310  145.5300 N   0  0  0  0  0  1  0  0  0  0  0  0
  161.5880  206.6480  153.5800 C   0  0  2  0  0  3  0  0  0  0  0  0
  161.4850  207.5650  150.7870 C   0  0  0  0  0  0  0  0  0  0  0  0
  161.5810  208.0820  149.4400 C   0  0  0  0  0  0  0  0  0  0  0  0
  160.4180  207.8110  155.2460 N   0  0  0  0  0  0  0  0  0  0  0  0
  160.8230  206.4620  154.8890 C   0  0  0  0  0  2  0  0  0  0  0  0
  161.8260  209.8510  151.6530 C   0  0  0  0  0  3  0  0  0  0  0  0
  161.3610  208.0610  153.2440 C   0  0  0  0  0  0  0  0  0  0  0  0
  161.9480  209.4670  149.2870 C   0  0  0  0  0  0  0  0  0  0  0  0
  161.5560  208.5070  151.8660 C   0  0  0  0  0  0  0  0  0  0  0  0
  162.3360  210.0890  147.9770 C   0  0  0  0  0  2  0  0  0  0  0  0
  162.7080  211.5540  148.1640 C   0  0  0  0  0  2  0  0  0  0  0  0
  161.5140  212.4240  147.9320 C   0  0  0  0  0  0  0  0  0  0  0  0
  159.5830  213.6960  148.8790 C   0  0  0  0  0  2  0  0  0  0  0  0
  160.8290  212.8620  149.0030 C   0  0  0  0  0  3  0  0  0  0  0  0
  159.8100  213.5690  146.4180 C   0  0  0  0  0  2  0  0  0  0  0  0
  160.9720  212.5770  146.5210 C   0  0  1  0  0  3  0  0  0  0  0  0
  162.0680  213.0020  145.5580 C   0  0  0  0  0  1  0  0  0  0  0  0
  158.8460  213.3880  147.5830 C   0  0  0  0  0  2  0  0  0  0  0  0
  159.6940  208.1580  156.4600 C   0  0  0  0  0  2  0  0  0  0  0  0
  160.4570  209.2110  157.2550 C   0  0  1  0  0  3  0  0  0  0  0  0
  161.8260  208.9230  157.2610 O   0  0  0  0  0  1  0  0  0  0  0  0
  160.2040  210.6100  156.7040 C   0  0  0  0  0  2  0  0  0  0  0  0
  161.4410  211.4950  156.8000 C   0  0  0  0  0  1  0  0  0  0  0  0
  1 11  1  0  0  0  0
  2 17  1  0  0  0  0
  3 12  1  0  0  0  0
  3  1  2  0  0  0  0
  4  7  1  0  0  0  0
  5  3  1  0  0  0  0
  6  1  1  0  0  0  0
  7 14  1  0  0  0  0
  8 19  1  0  0  0  0
  9  5  2  0  0  0  0
  9  6  1  0  0  0  0
 10 12  2  0  0  0  0
 11  4  2  0  0  0  0
 12 16  1  0  0  0  0
 13  5  1  0  0  0  0
 14 18  1  1  0  0  0
 15  4  1  0  0  0  0
 15 22  1  0  0  0  0
 16 15  2  0  0  0  0
 17 32  1  0  0  0  0
 18 17  1  0  0  0  0
 19 22  2  0  0  0  0
 20 14  1  0  0  0  0
 20  2  2  0  0  0  0
 21 16  1  0  0  0  0
 21  8  2  0  0  0  0
 22 20  1  0  0  0  0
 23 24  1  0  0  0  0
 23 21  1  0  0  0  0
 25 24  1  0  0  0  0
 25 27  2  0  0  0  0
 26 27  1  0  0  0  0
 28 29  1  0  0  0  0
 28 31  1  0  0  0  0
 29 30  1  6  0  0  0
 29 25  1  0  0  0  0
 31 26  1  0  0  0  0
 32 33  1  0  0  0  0
 33 34  1  6  0  0  0
 35 36  1  0  0  0  0
 35 33  1  0  0  0  0
M  END
>  <MODEL>
7

>  <REMARK>
 VINA RESULT:      -6.4      2.753      6.895
  Name = 
  6 active torsions:
  status: ('A' for Active; 'I' for Inactive)
    1  A    between atoms: C_4  and  C_25
    2  A    between atoms: C_4  and  C_32
    3  A    between atoms: C_5  and  C_34
    4  A    between atoms: C_7  and  C_34
    5  A    between atoms: C_7  and  C_35
    6  A    between atoms: N_27  and  C_32
                            x       y       z     vdW  Elec       q    Type
                         _______ _______ _______ _____ _____    ______ ____

>  <TORSDO>
F 6

$$$$
=
 OpenBabel11052410263D

 36 41  0  0  1  0  0  0  0  0999 V2000
  160.8190  207.5930  154.0850 C   0  0  0  0  0  0  0  0  0  0  0  0
  161.8340  206.2380  147.9220 C   0  0  0  0  0  3  0  0  0  0  0  0
  161.3250  208.8790  154.1130 C   0  0  0  0  0  0  0  0  0  0  0  0
  161.0110  206.8400  151.7550 C   0  0  0  0  0  0  0  0  0  0  0  0
  161.3540  209.3790  155.4610 C   0  0  0  0  0  0  0  0  0  0  0  0
  160.4770  207.1620  155.6510 S   0  0  0  0  0  0  0  0  0  0  0  0
  160.9280  205.6250  151.0450 O   0  0  0  0  0  0  0  0  0  0  0  0
  161.5570  210.3300  149.3600 C   0  0  0  0  0  3  0  0  0  0  0  0
  160.9090  208.5480  156.4360 N   0  0  0  0  0  0  0  0  0  0  0  0
  162.5030  210.6200  153.2840 O   0  0  0  0  0  0  0  0  0  0  0  0
  160.7840  206.7160  153.0760 N   0  0  0  0  0  0  0  0  0  0  0  0
  161.7810  209.6210  153.0110 C   0  0  0  0  0  0  0  0  0  0  0  0
  161.7810  210.6970  155.7990 N   0  0  0  0  0  1  0  0  0  0  0  0
  160.4950  205.5700  149.6980 C   0  0  2  0  0  3  0  0  0  0  0  0
  161.2490  208.0700  151.0500 C   0  0  0  0  0  0  0  0  0  0  0  0
  161.4970  209.3700  151.6340 C   0  0  0  0  0  0  0  0  0  0  0  0
  161.7000  204.8310  147.8270 N   0  0  0  0  0  0  0  0  0  0  0  0
  160.9820  204.3130  148.9780 C   0  0  0  0  0  2  0  0  0  0  0  0
  161.4570  209.0780  148.8060 C   0  0  0  0  0  3  0  0  0  0  0  0
  161.1610  206.6620  148.9750 C   0  0  0  0  0  0  0  0  0  0  0  0
  161.5660  210.4960  150.7380 C   0  0  0  0  0  0  0  0  0  0  0  0
  161.2990  207.9670  149.6200 C   0  0  0  0  0  0  0  0  0  0  0  0
  161.5610  211.9270  151.1940 C   0  0  0  0  0  2  0  0  0  0  0  0
  160.3590  212.6700  150.6250 C   0  0  0  0  0  2  0  0  0  0  0  0
  159.3780  212.9740  151.7120 C   0  0  0  0  0  0  0  0  0  0  0  0
  158.8160  212.9580  154.1470 C   0  0  0  0  0  2  0  0  0  0  0  0
  159.7450  212.7400  152.9840 C   0  0  0  0  0  3  0  0  0  0  0  0
  157.0710  213.6760  152.5450 C   0  0  0  0  0  2  0  0  0  0  0  0
  157.9390  213.2930  151.3430 C   0  0  1  0  0  3  0  0  0  0  0  0
  157.8740  214.4090  150.3140 C   0  0  0  0  0  1  0  0  0  0  0  0
  157.3650  212.7660  153.7310 C   0  0  0  0  0  2  0  0  0  0  0  0
  162.3140  204.0030  146.8000 C   0  0  0  0  0  2  0  0  0  0  0  0
  162.7100  204.8500  145.5960 C   0  0  1  0  0  3  0  0  0  0  0  0
  164.0250  204.5690  145.2110 O   0  0  0  0  0  1  0  0  0  0  0  0
  161.7520  204.6340  144.4300 C   0  0  0  0  0  2  0  0  0  0  0  0
  160.5860  205.6140  144.4580 C   0  0  0  0  0  1  0  0  0  0  0  0
  1  3  2  0  0  0  0
  1  6  1  0  0  0  0
  2 20  2  0  0  0  0
  3  5  1  0  0  0  0
  4 11  2  0  0  0  0
  5 13  1  0  0  0  0
  5  9  2  0  0  0  0
  6  9  1  0  0  0  0
  7  4  1  0  0  0  0
  8 21  1  0  0  0  0
 11  1  1  0  0  0  0
 12 10  2  0  0  0  0
 12  3  1  0  0  0  0
 14 18  1  6  0  0  0
 14  7  1  0  0  0  0
 15 16  1  0  0  0  0
 15  4  1  0  0  0  0
 16 12  1  0  0  0  0
 17  2  1  0  0  0  0
 17 18  1  0  0  0  0
 19  8  2  0  0  0  0
 19 22  1  0  0  0  0
 20 22  1  0  0  0  0
 20 14  1  0  0  0  0
 21 23  1  0  0  0  0
 21 16  2  0  0  0  0
 22 15  2  0  0  0  0
 24 23  1  0  0  0  0
 24 25  1  0  0  0  0
 25 27  2  0  0  0  0
 27 26  1  0  0  0  0
 28 31  1  0  0  0  0
 29 30  1  6  0  0  0
 29 25  1  0  0  0  0
 29 28  1  0  0  0  0
 31 26  1  0  0  0  0
 32 17  1  0  0  0  0
 33 34  1  6  0  0  0
 33 32  1  0  0  0  0
 35 36  1  0  0  0  0
 35 33  1  0  0  0  0
M  END
>  <MODEL>
8

>  <REMARK>
 VINA RESULT:      -5.6      2.212      3.111
  Name = 
  6 active torsions:
  status: ('A' for Active; 'I' for Inactive)
    1  A    between atoms: C_4  and  C_25
    2  A    between atoms: C_4  and  C_32
    3  A    between atoms: C_5  and  C_34
    4  A    between atoms: C_7  and  C_34
    5  A    between atoms: C_7  and  C_35
    6  A    between atoms: N_27  and  C_32
                            x       y       z     vdW  Elec       q    Type
                         _______ _______ _______ _____ _____    ______ ____

>  <TORSDO>
F 6

$$$$
=
 OpenBabel11052410263D

 36 41  0  0  1  0  0  0  0  0999 V2000
  161.1430  205.4870  149.5440 C   0  0  0  0  0  0  0  0  0  0  0  0
  162.5110  211.7270  149.7630 C   0  0  0  0  0  3  0  0  0  0  0  0
  161.2830  205.1850  150.8870 C   0  0  0  0  0  0  0  0  0  0  0  0
  161.5410  207.9030  149.3490 C   0  0  0  0  0  0  0  0  0  0  0  0
  161.1700  203.7670  151.0970 C   0  0  0  0  0  0  0  0  0  0  0  0
  160.9250  204.0540  148.7350 S   0  0  0  0  0  0  0  0  0  0  0  0
  161.7930  208.8350  148.3220 O   0  0  0  0  0  0  0  0  0  0  0  0
  161.1300  209.5520  153.2640 C   0  0  0  0  0  3  0  0  0  0  0  0
  160.9630  202.9950  150.0010 N   0  0  0  0  0  0  0  0  0  0  0  0
  161.9480  205.5970  153.0060 O   0  0  0  0  0  0  0  0  0  0  0  0
  161.3520  206.6450  148.9090 N   0  0  0  0  0  0  0  0  0  0  0  0
  161.5240  206.0970  151.9260 C   0  0  0  0  0  0  0  0  0  0  0  0
  161.2220  203.1600  152.3860 N   0  0  0  0  0  1  0  0  0  0  0  0
  161.3960  210.1910  148.4240 C   0  0  2  0  0  3  0  0  0  0  0  0
  161.4400  208.3460  150.7140 C   0  0  0  0  0  0  0  0  0  0  0  0
  161.3240  207.5100  151.8890 C   0  0  0  0  0  0  0  0  0  0  0  0
  162.7630  212.0960  148.4190 N   0  0  0  0  0  0  0  0  0  0  0  0
  162.2080  211.1080  147.5110 C   0  0  0  0  0  2  0  0  0  0  0  0
  161.3750  210.3400  152.1660 C   0  0  0  0  0  3  0  0  0  0  0  0
  161.7440  210.6530  149.7760 C   0  0  0  0  0  0  0  0  0  0  0  0
  161.0890  208.1690  153.1480 C   0  0  0  0  0  0  0  0  0  0  0  0
  161.5210  209.7630  150.9140 C   0  0  0  0  0  0  0  0  0  0  0  0
  160.6950  207.4500  154.4070 C   0  0  0  0  0  2  0  0  0  0  0  0
  161.5280  207.9330  155.5870 C   0  0  0  0  0  2  0  0  0  0  0  0
  160.9770  209.2180  156.1170 C   0  0  0  0  0  0  0  0  0  0  0  0
  158.9860  210.6500  156.5990 C   0  0  0  0  0  2  0  0  0  0  0  0
  159.6420  209.3770  156.1380 C   0  0  0  0  0  3  0  0  0  0  0  0
  161.2370  211.5960  157.0040 C   0  0  0  0  0  2  0  0  0  0  0  0
  161.9220  210.3790  156.3740 C   0  0  1  0  0  3  0  0  0  0  0  0
  163.0810  209.9540  157.2600 C   0  0  0  0  0  1  0  0  0  0  0  0
  159.8870  211.8510  156.3470 C   0  0  0  0  0  2  0  0  0  0  0  0
  163.5830  213.2250  148.0060 C   0  0  0  0  0  2  0  0  0  0  0  0
  162.7050  214.3790  147.5340 C   0  0  1  0  0  3  0  0  0  0  0  0
  162.4310  214.2580  146.1670 O   0  0  0  0  0  1  0  0  0  0  0  0
  161.4100  214.4520  148.3360 C   0  0  0  0  0  2  0  0  0  0  0  0
  160.1790  214.3060  147.4510 C   0  0  0  0  0  1  0  0  0  0  0  0
  1  3  2  0  0  0  0
  2 20  2  0  0  0  0
  3  5  1  0  0  0  0
  3 12  1  0  0  0  0
  4 15  1  0  0  0  0
  5 13  1  0  0  0  0
  6  1  1  0  0  0  0
  6  9  1  0  0  0  0
  7 14  1  0  0  0  0
  7  4  1  0  0  0  0
  9  5  2  0  0  0  0
 11  4  2  0  0  0  0
 11  1  1  0  0  0  0
 12 10  2  0  0  0  0
 14 18  1  6  0  0  0
 14 20  1  0  0  0  0
 15 22  2  0  0  0  0
 15 16  1  0  0  0  0
 16 12  1  0  0  0  0
 16 21  2  0  0  0  0
 17  2  1  0  0  0  0
 18 17  1  0  0  0  0
 19  8  2  0  0  0  0
 20 22  1  0  0  0  0
 21  8  1  0  0  0  0
 21 23  1  0  0  0  0
 22 19  1  0  0  0  0
 23 24  1  0  0  0  0
 24 25  1  0  0  0  0
 25 27  2  0  0  0  0
 25 29  1  0  0  0  0
 27 26  1  0  0  0  0
 29 28  1  0  0  0  0
 29 30  1  1  0  0  0
 31 26  1  0  0  0  0
 31 28  1  0  0  0  0
 32 17  1  0  0  0  0
 33 34  1  6  0  0  0
 33 32  1  0  0  0  0
 33 35  1  0  0  0  0
 36 35  1  0  0  0  0
M  END
>  <MODEL>
9

>  <REMARK>
 VINA RESULT:      -5.5      3.331      7.997
  Name = 
  6 active torsions:
  status: ('A' for Active; 'I' for Inactive)
    1  A    between atoms: C_4  and  C_25
    2  A    between atoms: C_4  and  C_32
    3  A    between atoms: C_5  and  C_34
    4  A    between atoms: C_7  and  C_34
    5  A    between atoms: C_7  and  C_35
    6  A    between atoms: N_27  and  C_32
                            x       y       z     vdW  Elec       q    Type
                         _______ _______ _______ _____ _____    ______ ____

>  <TORSDO>
F 6

$$$$
