=
 OpenBabel11052411473D

 40 45  0  0  1  0  0  0  0  0999 V2000
  159.4630  211.6050  153.3070 C   0  0  0  0  0  0  0  0  0  0  0  0
  158.4600  212.3450  153.9450 C   0  0  0  0  0  3  0  0  0  0  0  0
  158.3640  210.8020  155.7090 N   0  0  0  0  0  0  0  0  0  0  0  0
  159.3410  210.0420  155.1520 C   0  0  0  0  0  3  0  0  0  0  0  0
  159.9120  210.4180  153.9320 C   0  0  0  0  0  0  0  0  0  0  0  0
  157.9380  211.9200  155.1230 N   0  0  0  0  0  0  0  0  0  0  0  0
  160.8880  207.7330  151.8990 C   0  0  0  0  0  0  0  0  0  0  0  0
  161.0470  209.6050  153.3770 C   0  0  2  0  0  3  0  0  0  0  0  0
  160.7470  209.1340  152.0270 N   0  0  0  0  0  2  0  0  0  0  0  0
  161.4200  208.1630  154.4670 S   0  0  0  0  0  0  0  0  0  0  0  0
  161.2280  205.0040  151.9000 C   0  0  0  0  0  0  0  0  0  0  0  0
  161.2420  207.0800  153.0660 C   0  0  0  0  0  0  0  0  0  0  0  0
  160.6890  207.0370  150.6980 C   0  0  0  0  0  3  0  0  0  0  0  0
  160.8680  205.6490  150.7210 C   0  0  0  0  0  0  0  0  0  0  0  0
  160.9670  203.4610  149.9670 C   0  0  0  0  0  0  0  0  0  0  0  0
  161.3690  203.3620  151.6110 S   0  0  0  0  0  0  0  0  0  0  0  0
  160.7160  204.7940  149.6270 C   0  0  0  0  0  3  0  0  0  0  0  0
  161.4250  205.6910  153.0990 C   0  0  0  0  0  3  0  0  0  0  0  0
  160.7780  201.1470  149.5680 O   0  0  0  0  0  0  0  0  0  0  0  0
  160.9050  202.2910  149.0610 C   0  0  0  0  0  0  0  0  0  0  0  0
  160.9830  202.3840  147.6640 O   0  0  0  0  0  0  0  0  0  0  0  0
  160.3570  201.7500  145.4410 C   0  0  0  0  0  1  0  0  0  0  0  0
  160.8830  201.2780  146.7790 C   0  0  0  0  0  2  0  0  0  0  0  0
  159.5700  213.3340  151.5000 C   0  0  0  0  0  3  0  0  0  0  0  0
  160.0500  213.8010  150.2760 C   0  0  0  0  0  3  0  0  0  0  0  0
  161.3970  211.7960  150.0310 C   0  0  0  0  0  0  0  0  0  0  0  0
  160.9050  211.3380  151.2620 C   0  0  0  0  0  3  0  0  0  0  0  0
  160.9680  213.0440  149.5410 C   0  0  0  0  0  0  0  0  0  0  0  0
  160.0000  212.1020  152.0130 C   0  0  0  0  0  0  0  0  0  0  0  0
  162.3540  210.9750  149.2690 C   0  0  0  0  0  3  0  0  0  0  0  0
  161.9950  209.8700  148.6980 N   0  0  0  0  0  2  0  0  0  0  0  0
  161.4370  213.5700  148.2240 C   0  0  0  0  0  2  0  0  0  0  0  0
  160.3000  213.7700  147.3440 N   0  0  0  0  0  2  0  0  0  0  0  0
  160.8380  214.1440  146.0400 C   0  0  0  0  0  2  0  0  0  0  0  0
  161.3730  212.9860  145.3190 N   0  0  0  0  0  0  0  0  0  0  0  0
  160.9880  212.4890  142.9830 C   0  0  1  0  0  3  0  0  0  0  0  0
  160.4730  213.5570  142.2490 O   0  0  0  0  0  1  0  0  0  0  0  0
  162.4620  212.7010  143.2090 C   0  0  0  0  0  2  0  0  0  0  0  0
  162.5460  213.3880  144.5490 C   0  0  0  0  0  2  0  0  0  0  0  0
  160.3750  212.4930  144.3700 C   0  0  0  0  0  2  0  0  0  0  0  0
  1  5  2  0  0  0  0
  1  2  1  0  0  0  0
  2  6  2  0  0  0  0
  4  3  2  0  0  0  0
  5  4  1  0  0  0  0
  6  3  1  0  0  0  0
  7  9  1  0  0  0  0
  7 12  1  0  0  0  0
  8  5  1  1  0  0  0
  8 10  1  0  0  0  0
  9  8  1  0  0  0  0
 11 18  1  0  0  0  0
 12 18  2  0  0  0  0
 12 10  1  0  0  0  0
 13 14  1  0  0  0  0
 13  7  2  0  0  0  0
 14 11  2  0  0  0  0
 15 16  1  0  0  0  0
 16 11  1  0  0  0  0
 17 15  2  0  0  0  0
 17 14  1  0  0  0  0
 20 19  2  0  0  0  0
 20 15  1  0  0  0  0
 21 20  1  0  0  0  0
 22 23  1  0  0  0  0
 23 21  1  0  0  0  0
 24 29  1  0  0  0  0
 25 24  2  0  0  0  0
 26 27  1  0  0  0  0
 27 29  2  0  0  0  0
 28 26  2  0  0  0  0
 28 25  1  0  0  0  0
 29  1  1  0  0  0  0
 30 26  1  0  0  0  0
 31 30  2  0  0  0  0
 32 28  1  0  0  0  0
 33 32  1  0  0  0  0
 34 33  1  0  0  0  0
 35 34  1  0  0  0  0
 36 37  1  6  0  0  0
 36 38  1  0  0  0  0
 36 40  1  0  0  0  0
 38 39  1  0  0  0  0
 39 35  1  0  0  0  0
 40 35  1  0  0  0  0
M  END
>  <MODEL>
1

>  <REMARK>
 VINA RESULT:      -7.8      0.000      0.000
  Name = 
  10 active torsions:
  status: ('A' for Active; 'I' for Inactive)
    1  A    between atoms: C_2  and  C_36
    2  A    between atoms: N_3  and  C_10
    3  A    between atoms: C_6  and  C_30
    4  A    between atoms: C_8  and  C_27
    5  A    between atoms: C_8  and  O_37
    6  A    between atoms: C_10  and  N_32
    7  A    between atoms: C_14  and  N_32
    8  A    between atoms: C_14  and  C_34
    9  A    between atoms: C_25  and  C_26
   10  A    between atoms: C_31  and  O_37
                            x       y       z     vdW  Elec       q    Type
                         _______ _______ _______ _____ _____    ______ ____

>  <TORSDO>
F 10

$$$$
=
 OpenBabel11052411473D

 40 45  0  0  1  0  0  0  0  0999 V2000
  158.2090  213.5330  152.9820 C   0  0  0  0  0  0  0  0  0  0  0  0
  157.0490  214.2330  153.3350 C   0  0  0  0  0  3  0  0  0  0  0  0
  157.1290  213.3790  155.5180 N   0  0  0  0  0  0  0  0  0  0  0  0
  158.2610  212.6810  155.2470 C   0  0  0  0  0  3  0  0  0  0  0  0
  158.8280  212.7330  153.9700 C   0  0  0  0  0  0  0  0  0  0  0  0
  156.5410  214.1330  154.5890 N   0  0  0  0  0  0  0  0  0  0  0  0
  160.4110  209.8620  152.7280 C   0  0  0  0  0  0  0  0  0  0  0  0
  160.1250  212.0180  153.7190 C   0  0  2  0  0  3  0  0  0  0  0  0
  160.0560  211.2110  152.5030 N   0  0  0  0  0  2  0  0  0  0  0  0
  160.5730  210.9420  155.1500 S   0  0  0  0  0  0  0  0  0  0  0  0
  161.1400  207.3000  153.4120 C   0  0  0  0  0  0  0  0  0  0  0  0
  160.7170  209.5570  154.0420 C   0  0  0  0  0  0  0  0  0  0  0  0
  160.4560  208.8900  151.7170 C   0  0  0  0  0  3  0  0  0  0  0  0
  160.8300  207.5930  152.0880 C   0  0  0  0  0  0  0  0  0  0  0  0
  161.3310  205.3400  151.8930 C   0  0  0  0  0  0  0  0  0  0  0  0
  161.5480  205.6820  153.5400 S   0  0  0  0  0  0  0  0  0  0  0  0
  160.9320  206.5010  151.2240 C   0  0  0  0  0  3  0  0  0  0  0  0
  161.0940  208.2630  154.4230 C   0  0  0  0  0  3  0  0  0  0  0  0
  161.7730  203.0320  152.0610 O   0  0  0  0  0  0  0  0  0  0  0  0
  161.5440  204.0030  151.2940 C   0  0  0  0  0  0  0  0  0  0  0  0
  161.5090  203.7540  149.9140 O   0  0  0  0  0  0  0  0  0  0  0  0
  161.1170  201.6160  148.9070 C   0  0  0  0  0  1  0  0  0  0  0  0
  160.5250  202.9620  149.2660 C   0  0  0  0  0  2  0  0  0  0  0  0
  160.0240  214.1400  151.3690 C   0  0  0  0  0  3  0  0  0  0  0  0
  160.5120  214.2870  150.0700 C   0  0  0  0  0  3  0  0  0  0  0  0
  158.3950  213.5010  149.1770 C   0  0  0  0  0  0  0  0  0  0  0  0
  157.9170  213.3600  150.4880 C   0  0  0  0  0  3  0  0  0  0  0  0
  159.7090  213.9630  148.9710 C   0  0  0  0  0  0  0  0  0  0  0  0
  158.7240  213.6640  151.5940 C   0  0  0  0  0  0  0  0  0  0  0  0
  157.5260  213.1650  148.0360 C   0  0  0  0  0  3  0  0  0  0  0  0
  156.4640  213.8540  147.7670 N   0  0  0  0  0  2  0  0  0  0  0  0
  160.2620  214.1590  147.5970 C   0  0  0  0  0  2  0  0  0  0  0  0
  161.0230  212.9880  147.2050 N   0  0  0  0  0  2  0  0  0  0  0  0
  161.6890  213.3200  145.9500 C   0  0  0  0  0  2  0  0  0  0  0  0
  160.7330  213.4730  144.8500 N   0  0  0  0  0  0  0  0  0  0  0  0
  161.1390  212.8630  142.5440 C   0  0  1  0  0  3  0  0  0  0  0  0
  162.2520  212.0420  142.3580 O   0  0  0  0  0  1  0  0  0  0  0  0
  159.9960  212.0420  143.0810 C   0  0  0  0  0  2  0  0  0  0  0  0
  160.0920  212.1900  144.5790 C   0  0  0  0  0  2  0  0  0  0  0  0
  161.4410  213.8740  143.6340 C   0  0  0  0  0  2  0  0  0  0  0  0
  1  2  2  0  0  0  0
  1  5  1  0  0  0  0
  2  6  1  0  0  0  0
  4  3  1  0  0  0  0
  5  4  2  0  0  0  0
  6  3  2  0  0  0  0
  7 12  1  0  0  0  0
  8  5  1  1  0  0  0
  8 10  1  0  0  0  0
  9  7  1  0  0  0  0
  9  8  1  0  0  0  0
 11 16  1  0  0  0  0
 11 18  1  0  0  0  0
 12 18  2  0  0  0  0
 12 10  1  0  0  0  0
 13 14  1  0  0  0  0
 13  7  2  0  0  0  0
 14 11  2  0  0  0  0
 15 16  1  0  0  0  0
 17 15  2  0  0  0  0
 17 14  1  0  0  0  0
 20 15  1  0  0  0  0
 20 19  2  0  0  0  0
 21 20  1  0  0  0  0
 22 23  1  0  0  0  0
 23 21  1  0  0  0  0
 24 29  1  0  0  0  0
 25 24  2  0  0  0  0
 26 27  1  0  0  0  0
 27 29  2  0  0  0  0
 28 26  2  0  0  0  0
 28 25  1  0  0  0  0
 29  1  1  0  0  0  0
 30 26  1  0  0  0  0
 31 30  2  0  0  0  0
 32 28  1  0  0  0  0
 33 32  1  0  0  0  0
 34 33  1  0  0  0  0
 35 34  1  0  0  0  0
 36 37  1  1  0  0  0
 36 38  1  0  0  0  0
 36 40  1  0  0  0  0
 38 39  1  0  0  0  0
 39 35  1  0  0  0  0
 40 35  1  0  0  0  0
M  END
>  <MODEL>
2

>  <REMARK>
 VINA RESULT:      -7.7      1.871      2.792
  Name = 
  10 active torsions:
  status: ('A' for Active; 'I' for Inactive)
    1  A    between atoms: C_2  and  C_36
    2  A    between atoms: N_3  and  C_10
    3  A    between atoms: C_6  and  C_30
    4  A    between atoms: C_8  and  C_27
    5  A    between atoms: C_8  and  O_37
    6  A    between atoms: C_10  and  N_32
    7  A    between atoms: C_14  and  N_32
    8  A    between atoms: C_14  and  C_34
    9  A    between atoms: C_25  and  C_26
   10  A    between atoms: C_31  and  O_37
                            x       y       z     vdW  Elec       q    Type
                         _______ _______ _______ _____ _____    ______ ____

>  <TORSDO>
F 10

$$$$
=
 OpenBabel11052411473D

 40 45  0  0  1  0  0  0  0  0999 V2000
  159.8320  211.8710  154.5870 C   0  0  0  0  0  0  0  0  0  0  0  0
  160.0400  212.4070  155.8640 C   0  0  0  0  0  3  0  0  0  0  0  0
  159.0890  214.4530  155.2230 N   0  0  0  0  0  0  0  0  0  0  0  0
  158.8480  213.9950  153.9680 C   0  0  0  0  0  3  0  0  0  0  0  0
  159.2200  212.6950  153.6130 C   0  0  0  0  0  0  0  0  0  0  0  0
  159.6660  213.6810  156.1430 N   0  0  0  0  0  0  0  0  0  0  0  0
  160.1580  212.4270  150.2460 C   0  0  0  0  0  0  0  0  0  0  0  0
  158.8700  212.1840  152.2450 C   0  0  2  0  0  3  0  0  0  0  0  0
  160.0680  211.7920  151.5060 N   0  0  0  0  0  2  0  0  0  0  0  0
  157.9400  213.4570  151.2850 S   0  0  0  0  0  0  0  0  0  0  0  0
  160.1110  213.7780  147.8510 C   0  0  0  0  0  0  0  0  0  0  0  0
  159.1310  213.3120  149.9700 C   0  0  0  0  0  0  0  0  0  0  0  0
  161.1960  212.1960  149.3300 C   0  0  0  0  0  3  0  0  0  0  0  0
  161.1520  212.8940  148.1180 C   0  0  0  0  0  0  0  0  0  0  0  0
  161.7700  213.6130  146.0050 C   0  0  0  0  0  0  0  0  0  0  0  0
  160.3330  214.4510  146.3350 S   0  0  0  0  0  0  0  0  0  0  0  0
  162.0910  212.7920  147.0900 C   0  0  0  0  0  3  0  0  0  0  0  0
  159.0770  214.0140  148.7590 C   0  0  0  0  0  3  0  0  0  0  0  0
  163.5820  214.4530  144.7560 O   0  0  0  0  0  0  0  0  0  0  0  0
  162.5360  213.7540  144.7450 C   0  0  0  0  0  0  0  0  0  0  0  0
  162.1610  213.1540  143.5350 O   0  0  0  0  0  0  0  0  0  0  0  0
  160.1100  211.9520  143.2390 C   0  0  0  0  0  1  0  0  0  0  0  0
  160.8630  213.2360  142.9660 C   0  0  0  0  0  2  0  0  0  0  0  0
  161.0180  210.1780  153.1760 C   0  0  0  0  0  3  0  0  0  0  0  0
  161.4140  208.8670  152.9050 C   0  0  0  0  0  3  0  0  0  0  0  0
  160.2930  208.1050  154.9200 C   0  0  0  0  0  0  0  0  0  0  0  0
  159.9000  209.4260  155.1780 C   0  0  0  0  0  3  0  0  0  0  0  0
  161.0630  207.8280  153.7740 C   0  0  0  0  0  0  0  0  0  0  0  0
  160.2660  210.4750  154.3220 C   0  0  0  0  0  0  0  0  0  0  0  0
  159.9000  207.0250  155.8430 C   0  0  0  0  0  3  0  0  0  0  0  0
  160.3210  206.9940  157.0660 N   0  0  0  0  0  2  0  0  0  0  0  0
  161.4850  206.4370  153.4330 C   0  0  0  0  0  2  0  0  0  0  0  0
  162.4680  206.4710  152.3650 N   0  0  0  0  0  2  0  0  0  0  0  0
  162.6550  205.0940  151.9210 C   0  0  0  0  0  2  0  0  0  0  0  0
  161.3760  204.4290  151.6560 N   0  0  0  0  0  0  0  0  0  0  0  0
  160.5870  203.7240  149.4800 C   0  0  1  0  0  3  0  0  0  0  0  0
  161.5750  203.6970  148.4960 O   0  0  0  0  0  1  0  0  0  0  0  0
  160.7340  202.5180  150.3710 C   0  0  0  0  0  2  0  0  0  0  0  0
  161.5920  202.9920  151.5160 C   0  0  0  0  0  2  0  0  0  0  0  0
  160.8220  204.9130  150.3920 C   0  0  0  0  0  2  0  0  0  0  0  0
  1  2  1  0  0  0  0
  2  6  2  0  0  0  0
  3  6  1  0  0  0  0
  4  3  2  0  0  0  0
  5  4  1  0  0  0  0
  5  1  2  0  0  0  0
  7  9  1  0  0  0  0
  8  5  1  1  0  0  0
  9  8  1  0  0  0  0
 10  8  1  0  0  0  0
 11 14  2  0  0  0  0
 11 18  1  0  0  0  0
 12  7  1  0  0  0  0
 12 10  1  0  0  0  0
 13  7  2  0  0  0  0
 14 13  1  0  0  0  0
 15 16  1  0  0  0  0
 15 17  2  0  0  0  0
 16 11  1  0  0  0  0
 17 14  1  0  0  0  0
 18 12  2  0  0  0  0
 20 19  2  0  0  0  0
 20 15  1  0  0  0  0
 21 20  1  0  0  0  0
 23 22  1  0  0  0  0
 23 21  1  0  0  0  0
 24 29  1  0  0  0  0
 25 24  2  0  0  0  0
 25 28  1  0  0  0  0
 26 27  1  0  0  0  0
 26 30  1  0  0  0  0
 28 26  2  0  0  0  0
 29  1  1  0  0  0  0
 29 27  2  0  0  0  0
 30 31  2  0  0  0  0
 32 28  1  0  0  0  0
 33 32  1  0  0  0  0
 34 33  1  0  0  0  0
 35 34  1  0  0  0  0
 36 37  1  6  0  0  0
 36 38  1  0  0  0  0
 36 40  1  0  0  0  0
 38 39  1  0  0  0  0
 39 35  1  0  0  0  0
 40 35  1  0  0  0  0
M  END
>  <MODEL>
3

>  <REMARK>
 VINA RESULT:      -6.7      2.971      8.587
  Name = 
  10 active torsions:
  status: ('A' for Active; 'I' for Inactive)
    1  A    between atoms: C_2  and  C_36
    2  A    between atoms: N_3  and  C_10
    3  A    between atoms: C_6  and  C_30
    4  A    between atoms: C_8  and  C_27
    5  A    between atoms: C_8  and  O_37
    6  A    between atoms: C_10  and  N_32
    7  A    between atoms: C_14  and  N_32
    8  A    between atoms: C_14  and  C_34
    9  A    between atoms: C_25  and  C_26
   10  A    between atoms: C_31  and  O_37
                            x       y       z     vdW  Elec       q    Type
                         _______ _______ _______ _____ _____    ______ ____

>  <TORSDO>
F 10

$$$$
=
 OpenBabel11052411473D

 40 45  0  0  1  0  0  0  0  0999 V2000
  158.8260  211.7830  154.2510 C   0  0  0  0  0  0  0  0  0  0  0  0
  157.8170  212.3180  155.0610 C   0  0  0  0  0  3  0  0  0  0  0  0
  158.3520  210.8410  156.8030 N   0  0  0  0  0  0  0  0  0  0  0  0
  159.3540  210.2830  156.0770 C   0  0  0  0  0  3  0  0  0  0  0  0
  159.6140  210.7330  154.7780 C   0  0  0  0  0  0  0  0  0  0  0  0
  157.6070  211.8300  156.3100 N   0  0  0  0  0  0  0  0  0  0  0  0
  160.7120  208.4290  152.3750 C   0  0  0  0  0  0  0  0  0  0  0  0
  160.7790  210.1570  154.0260 C   0  0  2  0  0  3  0  0  0  0  0  0
  160.3930  209.7740  152.6700 N   0  0  0  0  0  2  0  0  0  0  0  0
  161.4720  208.6910  154.9080 S   0  0  0  0  0  0  0  0  0  0  0  0
  161.4280  205.7940  152.0410 C   0  0  0  0  0  0  0  0  0  0  0  0
  161.2860  207.7300  153.4220 C   0  0  0  0  0  0  0  0  0  0  0  0
  160.4750  207.8270  151.1310 C   0  0  0  0  0  3  0  0  0  0  0  0
  160.8470  206.4860  150.9830 C   0  0  0  0  0  0  0  0  0  0  0  0
  161.1620  204.4190  149.9870 C   0  0  0  0  0  0  0  0  0  0  0  0
  161.7610  204.2260  151.5620 S   0  0  0  0  0  0  0  0  0  0  0  0
  160.6910  205.7250  149.8230 C   0  0  0  0  0  3  0  0  0  0  0  0
  161.6640  206.3880  153.2840 C   0  0  0  0  0  3  0  0  0  0  0  0
  161.3090  202.1540  149.3520 O   0  0  0  0  0  0  0  0  0  0  0  0
  161.1600  203.3440  148.9680 C   0  0  0  0  0  0  0  0  0  0  0  0
  161.0040  203.5730  147.5940 O   0  0  0  0  0  0  0  0  0  0  0  0
  162.3730  205.2080  146.5030 C   0  0  0  0  0  1  0  0  0  0  0  0
  162.0780  203.7340  146.6800 C   0  0  0  0  0  2  0  0  0  0  0  0
  160.2670  212.2650  152.2630 C   0  0  0  0  0  3  0  0  0  0  0  0
  160.4620  212.8040  150.9900 C   0  0  0  0  0  3  0  0  0  0  0  0
  158.1460  213.5330  150.9370 C   0  0  0  0  0  0  0  0  0  0  0  0
  157.9660  212.9890  152.2170 C   0  0  0  0  0  3  0  0  0  0  0  0
  159.4070  213.4310  150.3180 C   0  0  0  0  0  0  0  0  0  0  0  0
  159.0140  212.3410  152.8870 C   0  0  0  0  0  0  0  0  0  0  0  0
  157.0240  214.1990  150.2540 C   0  0  0  0  0  3  0  0  0  0  0  0
  155.8060  213.7830  150.3880 N   0  0  0  0  0  2  0  0  0  0  0  0
  159.6650  214.0160  148.9690 C   0  0  0  0  0  2  0  0  0  0  0  0
  158.9810  213.2320  147.9570 N   0  0  0  0  0  2  0  0  0  0  0  0
  159.5650  213.6030  146.6720 C   0  0  0  0  0  2  0  0  0  0  0  0
  160.7710  212.8250  146.3780 N   0  0  0  0  0  0  0  0  0  0  0  0
  163.0250  213.4420  147.0070 C   0  0  1  0  0  3  0  0  0  0  0  0
  163.0940  214.4510  147.9680 O   0  0  0  0  0  1  0  0  0  0  0  0
  162.6620  212.1410  147.6740 C   0  0  0  0  0  2  0  0  0  0  0  0
  161.1600  212.0610  147.5600 C   0  0  0  0  0  2  0  0  0  0  0  0
  161.8750  213.7300  146.0600 C   0  0  0  0  0  2  0  0  0  0  0  0
  1  5  2  0  0  0  0
  1  2  1  0  0  0  0
  2  6  2  0  0  0  0
  4  3  2  0  0  0  0
  5  4  1  0  0  0  0
  6  3  1  0  0  0  0
  7  9  1  0  0  0  0
  7 12  1  0  0  0  0
  8  5  1  1  0  0  0
  8 10  1  0  0  0  0
  9  8  1  0  0  0  0
 11 18  1  0  0  0  0
 12 10  1  0  0  0  0
 13  7  2  0  0  0  0
 14 13  1  0  0  0  0
 14 11  2  0  0  0  0
 15 16  1  0  0  0  0
 16 11  1  0  0  0  0
 17 15  2  0  0  0  0
 17 14  1  0  0  0  0
 18 12  2  0  0  0  0
 20 19  2  0  0  0  0
 20 15  1  0  0  0  0
 21 20  1  0  0  0  0
 22 23  1  0  0  0  0
 23 21  1  0  0  0  0
 24 29  1  0  0  0  0
 25 24  2  0  0  0  0
 26 27  1  0  0  0  0
 27 29  2  0  0  0  0
 28 26  2  0  0  0  0
 28 25  1  0  0  0  0
 29  1  1  0  0  0  0
 30 31  2  0  0  0  0
 30 26  1  0  0  0  0
 32 28  1  0  0  0  0
 33 32  1  0  0  0  0
 34 33  1  0  0  0  0
 35 34  1  0  0  0  0
 35 39  1  0  0  0  0
 36 38  1  0  0  0  0
 36 37  1  1  0  0  0
 39 38  1  0  0  0  0
 40 35  1  0  0  0  0
 40 36  1  0  0  0  0
M  END
>  <MODEL>
4

>  <REMARK>
 VINA RESULT:      -6.4      1.910      2.686
  Name = 
  10 active torsions:
  status: ('A' for Active; 'I' for Inactive)
    1  A    between atoms: C_2  and  C_36
    2  A    between atoms: N_3  and  C_10
    3  A    between atoms: C_6  and  C_30
    4  A    between atoms: C_8  and  C_27
    5  A    between atoms: C_8  and  O_37
    6  A    between atoms: C_10  and  N_32
    7  A    between atoms: C_14  and  N_32
    8  A    between atoms: C_14  and  C_34
    9  A    between atoms: C_25  and  C_26
   10  A    between atoms: C_31  and  O_37
                            x       y       z     vdW  Elec       q    Type
                         _______ _______ _______ _____ _____    ______ ____

>  <TORSDO>
F 10

$$$$
=
 OpenBabel11052411473D

 40 45  0  0  1  0  0  0  0  0999 V2000
  160.5830  211.8210  151.1710 C   0  0  0  0  0  0  0  0  0  0  0  0
  159.8950  212.9470  150.7030 C   0  0  0  0  0  3  0  0  0  0  0  0
  160.8910  212.7480  148.5890 N   0  0  0  0  0  0  0  0  0  0  0  0
  161.5820  211.6440  148.9730 C   0  0  0  0  0  3  0  0  0  0  0  0
  161.4530  211.1550  150.2770 C   0  0  0  0  0  0  0  0  0  0  0  0
  160.0720  213.3800  149.4290 N   0  0  0  0  0  0  0  0  0  0  0  0
  162.0230  207.7750  149.5380 C   0  0  0  0  0  0  0  0  0  0  0  0
  162.1630  209.8860  150.6520 C   0  0  2  0  0  3  0  0  0  0  0  0
  162.5050  209.1020  149.4670 N   0  0  0  0  0  2  0  0  0  0  0  0
  161.1300  208.8650  151.7910 S   0  0  0  0  0  0  0  0  0  0  0  0
  160.9890  205.2540  149.9070 C   0  0  0  0  0  0  0  0  0  0  0  0
  161.3000  207.4840  150.6810 C   0  0  0  0  0  0  0  0  0  0  0  0
  162.2460  206.8120  148.5430 C   0  0  0  0  0  3  0  0  0  0  0  0
  161.7110  205.5360  148.7520 C   0  0  0  0  0  0  0  0  0  0  0  0
  161.1910  203.3110  148.3670 C   0  0  0  0  0  0  0  0  0  0  0  0
  160.4860  203.6580  149.8710 S   0  0  0  0  0  0  0  0  0  0  0  0
  161.8310  204.4540  147.8770 C   0  0  0  0  0  3  0  0  0  0  0  0
  160.7620  206.2100  150.9000 C   0  0  0  0  0  3  0  0  0  0  0  0
  160.9690  200.9670  148.4310 O   0  0  0  0  0  0  0  0  0  0  0  0
  161.1200  201.9870  147.7090 C   0  0  0  0  0  0  0  0  0  0  0  0
  161.2140  201.8010  146.3230 O   0  0  0  0  0  0  0  0  0  0  0  0
  160.0590  203.0870  144.6650 C   0  0  0  0  0  1  0  0  0  0  0  0
  160.1050  201.7860  145.4370 C   0  0  0  0  0  2  0  0  0  0  0  0
  159.0650  211.1740  153.0540 C   0  0  0  0  0  3  0  0  0  0  0  0
  158.8480  210.7880  154.3770 C   0  0  0  0  0  3  0  0  0  0  0  0
  161.2400  210.8390  154.7920 C   0  0  0  0  0  0  0  0  0  0  0  0
  161.4430  211.2290  153.4610 C   0  0  0  0  0  3  0  0  0  0  0  0
  159.9270  210.6110  155.2490 C   0  0  0  0  0  0  0  0  0  0  0  0
  160.3660  211.3880  152.5770 C   0  0  0  0  0  0  0  0  0  0  0  0
  162.3920  210.6710  155.6950 C   0  0  0  0  0  3  0  0  0  0  0  0
  163.5800  211.0590  155.3580 N   0  0  0  0  0  2  0  0  0  0  0  0
  159.6490  210.2210  156.6640 C   0  0  0  0  0  2  0  0  0  0  0  0
  158.5430  211.0080  157.1790 N   0  0  0  0  0  2  0  0  0  0  0  0
  158.9590  212.4050  157.1240 C   0  0  0  0  0  2  0  0  0  0  0  0
  157.8210  213.3180  157.2580 N   0  0  0  0  0  0  0  0  0  0  0  0
  156.4310  214.1030  155.4400 C   0  0  1  0  0  3  0  0  0  0  0  0
  156.5730  213.3760  154.2580 O   0  0  0  0  0  1  0  0  0  0  0  0
  155.5850  213.3190  156.4100 C   0  0  0  0  0  2  0  0  0  0  0  0
  156.5770  212.5530  157.2480 C   0  0  0  0  0  2  0  0  0  0  0  0
  157.7830  214.2300  156.1150 C   0  0  0  0  0  2  0  0  0  0  0  0
  1 29  1  0  0  0  0
  2  1  1  0  0  0  0
  3  4  2  0  0  0  0
  3  6  1  0  0  0  0
  4  5  1  0  0  0  0
  5  1  2  0  0  0  0
  6  2  2  0  0  0  0
  7 12  1  0  0  0  0
  8  5  1  6  0  0  0
  8 10  1  0  0  0  0
  9  7  1  0  0  0  0
  9  8  1  0  0  0  0
 11 18  1  0  0  0  0
 12 18  2  0  0  0  0
 12 10  1  0  0  0  0
 13 14  1  0  0  0  0
 13  7  2  0  0  0  0
 14 11  2  0  0  0  0
 15 16  1  0  0  0  0
 16 11  1  0  0  0  0
 17 15  2  0  0  0  0
 17 14  1  0  0  0  0
 20 15  1  0  0  0  0
 20 19  2  0  0  0  0
 21 20  1  0  0  0  0
 22 23  1  0  0  0  0
 23 21  1  0  0  0  0
 24 25  1  0  0  0  0
 25 28  2  0  0  0  0
 26 28  1  0  0  0  0
 26 30  1  0  0  0  0
 27 26  2  0  0  0  0
 28 32  1  0  0  0  0
 29 24  2  0  0  0  0
 29 27  1  0  0  0  0
 31 30  2  0  0  0  0
 32 33  1  0  0  0  0
 34 33  1  0  0  0  0
 34 35  1  0  0  0  0
 36 37  1  6  0  0  0
 36 40  1  0  0  0  0
 36 38  1  0  0  0  0
 38 39  1  0  0  0  0
 39 35  1  0  0  0  0
 40 35  1  0  0  0  0
M  END
>  <MODEL>
5

>  <REMARK>
 VINA RESULT:      -6.0      3.081      6.781
  Name = 
  10 active torsions:
  status: ('A' for Active; 'I' for Inactive)
    1  A    between atoms: C_2  and  C_36
    2  A    between atoms: N_3  and  C_10
    3  A    between atoms: C_6  and  C_30
    4  A    between atoms: C_8  and  C_27
    5  A    between atoms: C_8  and  O_37
    6  A    between atoms: C_10  and  N_32
    7  A    between atoms: C_14  and  N_32
    8  A    between atoms: C_14  and  C_34
    9  A    between atoms: C_25  and  C_26
   10  A    between atoms: C_31  and  O_37
                            x       y       z     vdW  Elec       q    Type
                         _______ _______ _______ _____ _____    ______ ____

>  <TORSDO>
F 10

$$$$
=
 OpenBabel11052411473D

 40 45  0  0  1  0  0  0  0  0999 V2000
  160.0040  210.4530  153.1810 C   0  0  0  0  0  0  0  0  0  0  0  0
  159.0470  211.2830  153.7780 C   0  0  0  0  0  3  0  0  0  0  0  0
  158.7740  209.7830  155.5610 N   0  0  0  0  0  0  0  0  0  0  0  0
  159.7000  208.9360  155.0440 C   0  0  0  0  0  3  0  0  0  0  0  0
  160.3350  209.2440  153.8360 C   0  0  0  0  0  0  0  0  0  0  0  0
  158.4580  210.9220  154.9460 N   0  0  0  0  0  0  0  0  0  0  0  0
  161.2090  206.6720  151.6190 C   0  0  0  0  0  0  0  0  0  0  0  0
  161.4150  208.3320  153.3280 C   0  0  2  0  0  3  0  0  0  0  0  0
  161.2440  208.0560  151.9030 N   0  0  0  0  0  2  0  0  0  0  0  0
  161.4320  206.7430  154.2660 S   0  0  0  0  0  0  0  0  0  0  0  0
  161.1710  203.9380  151.3210 C   0  0  0  0  0  0  0  0  0  0  0  0
  161.3050  205.8530  152.7300 C   0  0  0  0  0  0  0  0  0  0  0  0
  161.0860  206.1450  150.3250 C   0  0  0  0  0  3  0  0  0  0  0  0
  161.0690  204.7520  150.1970 C   0  0  0  0  0  0  0  0  0  0  0  0
  160.9730  202.6660  149.1930 C   0  0  0  0  0  0  0  0  0  0  0  0
  161.1250  202.3330  150.8490 S   0  0  0  0  0  0  0  0  0  0  0  0
  160.9570  204.0500  148.9950 C   0  0  0  0  0  3  0  0  0  0  0  0
  161.2900  204.4570  152.6120 C   0  0  0  0  0  3  0  0  0  0  0  0
  161.1980  200.4420  148.4490 O   0  0  0  0  0  0  0  0  0  0  0  0
  160.8790  201.6220  148.1480 C   0  0  0  0  0  0  0  0  0  0  0  0
  160.4570  201.8710  146.8340 O   0  0  0  0  0  0  0  0  0  0  0  0
  159.6680  201.1640  144.6860 C   0  0  0  0  0  1  0  0  0  0  0  0
  160.7650  201.0460  145.7210 C   0  0  0  0  0  2  0  0  0  0  0  0
  160.5370  212.2220  151.4940 C   0  0  0  0  0  3  0  0  0  0  0  0
  161.0900  212.6330  150.2800 C   0  0  0  0  0  3  0  0  0  0  0  0
  161.8030  210.3570  149.8250 C   0  0  0  0  0  0  0  0  0  0  0  0
  161.2420  209.9580  151.0470 C   0  0  0  0  0  3  0  0  0  0  0  0
  161.7300  211.7110  149.4450 C   0  0  0  0  0  0  0  0  0  0  0  0
  160.6160  210.8820  151.8970 C   0  0  0  0  0  0  0  0  0  0  0  0
  162.4620  209.3660  148.9580 C   0  0  0  0  0  3  0  0  0  0  0  0
  162.0440  208.1430  148.8880 N   0  0  0  0  0  2  0  0  0  0  0  0
  162.2860  212.1890  148.1440 C   0  0  0  0  0  2  0  0  0  0  0  0
  161.5950  213.3970  147.7310 N   0  0  0  0  0  2  0  0  0  0  0  0
  160.6690  213.0100  146.6720 C   0  0  0  0  0  2  0  0  0  0  0  0
  159.5610  213.9610  146.5440 N   0  0  0  0  0  0  0  0  0  0  0  0
  157.2670  213.3810  146.0390 C   0  0  1  0  0  3  0  0  0  0  0  0
  156.9750  212.0240  146.1880 O   0  0  0  0  0  1  0  0  0  0  0  0
  157.3270  214.0310  147.3970 C   0  0  0  0  0  2  0  0  0  0  0  0
  158.7850  213.9750  147.7810 C   0  0  0  0  0  2  0  0  0  0  0  0
  158.6650  213.5320  145.4700 C   0  0  0  0  0  2  0  0  0  0  0  0
  1  2  2  0  0  0  0
  1  5  1  0  0  0  0
  2  6  1  0  0  0  0
  4  3  1  0  0  0  0
  5  4  2  0  0  0  0
  6  3  2  0  0  0  0
  7  9  1  0  0  0  0
  7 12  1  0  0  0  0
  8  5  1  1  0  0  0
  8 10  1  0  0  0  0
  9  8  1  0  0  0  0
 11 18  1  0  0  0  0
 12 10  1  0  0  0  0
 13  7  2  0  0  0  0
 14 13  1  0  0  0  0
 14 11  2  0  0  0  0
 15 16  1  0  0  0  0
 16 11  1  0  0  0  0
 17 15  2  0  0  0  0
 17 14  1  0  0  0  0
 18 12  2  0  0  0  0
 20 19  2  0  0  0  0
 20 15  1  0  0  0  0
 21 20  1  0  0  0  0
 22 23  1  0  0  0  0
 23 21  1  0  0  0  0
 24 29  1  0  0  0  0
 25 24  2  0  0  0  0
 26 27  1  0  0  0  0
 27 29  2  0  0  0  0
 28 26  2  0  0  0  0
 28 25  1  0  0  0  0
 29  1  1  0  0  0  0
 30 26  1  0  0  0  0
 31 30  2  0  0  0  0
 32 28  1  0  0  0  0
 33 32  1  0  0  0  0
 34 33  1  0  0  0  0
 35 34  1  0  0  0  0
 35 39  1  0  0  0  0
 36 37  1  1  0  0  0
 36 38  1  0  0  0  0
 38 39  1  0  0  0  0
 40 36  1  0  0  0  0
 40 35  1  0  0  0  0
M  END
>  <MODEL>
6

>  <REMARK>
 VINA RESULT:      -5.5      1.718      2.203
  Name = 
  10 active torsions:
  status: ('A' for Active; 'I' for Inactive)
    1  A    between atoms: C_2  and  C_36
    2  A    between atoms: N_3  and  C_10
    3  A    between atoms: C_6  and  C_30
    4  A    between atoms: C_8  and  C_27
    5  A    between atoms: C_8  and  O_37
    6  A    between atoms: C_10  and  N_32
    7  A    between atoms: C_14  and  N_32
    8  A    between atoms: C_14  and  C_34
    9  A    between atoms: C_25  and  C_26
   10  A    between atoms: C_31  and  O_37
                            x       y       z     vdW  Elec       q    Type
                         _______ _______ _______ _____ _____    ______ ____

>  <TORSDO>
F 10

$$$$
=
 OpenBabel11052411473D

 40 45  0  0  1  0  0  0  0  0999 V2000
  160.3930  212.3290  150.7040 C   0  0  0  0  0  0  0  0  0  0  0  0
  159.7720  213.3880  150.0310 C   0  0  0  0  0  3  0  0  0  0  0  0
  160.8920  212.8560  148.0400 N   0  0  0  0  0  0  0  0  0  0  0  0
  161.5220  211.8060  148.6270 C   0  0  0  0  0  3  0  0  0  0  0  0
  161.2960  211.5180  149.9760 C   0  0  0  0  0  0  0  0  0  0  0  0
  160.0420  213.6230  148.7220 N   0  0  0  0  0  0  0  0  0  0  0  0
  161.9160  208.0780  149.7070 C   0  0  0  0  0  0  0  0  0  0  0  0
  161.9400  210.3030  150.5800 C   0  0  2  0  0  3  0  0  0  0  0  0
  162.4170  209.3890  149.5440 N   0  0  0  0  0  2  0  0  0  0  0  0
  160.7640  209.4170  151.6930 S   0  0  0  0  0  0  0  0  0  0  0  0
  160.8160  205.6120  150.2340 C   0  0  0  0  0  0  0  0  0  0  0  0
  161.0540  207.9180  150.7780 C   0  0  0  0  0  0  0  0  0  0  0  0
  162.2480  207.0070  148.8650 C   0  0  0  0  0  3  0  0  0  0  0  0
  161.6770  205.7610  149.1510 C   0  0  0  0  0  0  0  0  0  0  0  0
  161.1840  203.5060  148.9630 C   0  0  0  0  0  0  0  0  0  0  0  0
  160.3040  204.0220  150.3180 S   0  0  0  0  0  0  0  0  0  0  0  0
  161.8920  204.5860  148.4280 C   0  0  0  0  0  3  0  0  0  0  0  0
  160.4790  206.6760  151.0740 C   0  0  0  0  0  3  0  0  0  0  0  0
  160.8730  201.1890  149.2540 O   0  0  0  0  0  0  0  0  0  0  0  0
  161.1790  202.1140  148.4580 C   0  0  0  0  0  0  0  0  0  0  0  0
  161.5010  201.7640  147.1390 O   0  0  0  0  0  0  0  0  0  0  0  0
  161.0680  203.1780  145.2550 C   0  0  0  0  0  1  0  0  0  0  0  0
  160.6400  201.9480  146.0260 C   0  0  0  0  0  2  0  0  0  0  0  0
  161.1090  211.8980  153.0630 C   0  0  0  0  0  3  0  0  0  0  0  0
  160.8230  211.6740  154.4110 C   0  0  0  0  0  3  0  0  0  0  0  0
  158.4470  211.8570  153.9440 C   0  0  0  0  0  0  0  0  0  0  0  0
  158.7490  212.0780  152.5920 C   0  0  0  0  0  3  0  0  0  0  0  0
  159.4980  211.6600  154.8600 C   0  0  0  0  0  0  0  0  0  0  0  0
  160.0760  212.1140  152.1400 C   0  0  0  0  0  0  0  0  0  0  0  0
  157.0430  211.8340  154.3910 C   0  0  0  0  0  3  0  0  0  0  0  0
  156.2990  212.8920  154.3400 N   0  0  0  0  0  2  0  0  0  0  0  0
  159.2350  211.3920  156.3050 C   0  0  0  0  0  2  0  0  0  0  0  0
  159.4420  209.9830  156.5870 N   0  0  0  0  0  2  0  0  0  0  0  0
  160.8260  209.8400  157.0250 C   0  0  0  0  0  2  0  0  0  0  0  0
  161.3780  208.5310  156.6670 N   0  0  0  0  0  0  0  0  0  0  0  0
  160.0810  206.5780  156.0670 C   0  0  1  0  0  3  0  0  0  0  0  0
  158.7470  206.8500  155.7640 O   0  0  0  0  0  1  0  0  0  0  0  0
  160.9500  206.9750  154.9020 C   0  0  0  0  0  2  0  0  0  0  0  0
  161.3860  208.3840  155.2140 C   0  0  0  0  0  2  0  0  0  0  0  0
  160.5270  207.4720  157.2090 C   0  0  0  0  0  2  0  0  0  0  0  0
  1 29  1  0  0  0  0
  2  1  1  0  0  0  0
  3  4  2  0  0  0  0
  3  6  1  0  0  0  0
  4  5  1  0  0  0  0
  5  1  2  0  0  0  0
  6  2  2  0  0  0  0
  7 12  1  0  0  0  0
  8  5  1  6  0  0  0
  8 10  1  0  0  0  0
  9  7  1  0  0  0  0
  9  8  1  0  0  0  0
 11 16  1  0  0  0  0
 11 18  1  0  0  0  0
 12 18  2  0  0  0  0
 12 10  1  0  0  0  0
 13 14  1  0  0  0  0
 13  7  2  0  0  0  0
 14 11  2  0  0  0  0
 15 16  1  0  0  0  0
 17 15  2  0  0  0  0
 17 14  1  0  0  0  0
 20 15  1  0  0  0  0
 20 19  2  0  0  0  0
 21 20  1  0  0  0  0
 22 23  1  0  0  0  0
 23 21  1  0  0  0  0
 24 25  1  0  0  0  0
 25 28  2  0  0  0  0
 26 30  1  0  0  0  0
 26 28  1  0  0  0  0
 27 26  2  0  0  0  0
 28 32  1  0  0  0  0
 29 27  1  0  0  0  0
 29 24  2  0  0  0  0
 31 30  2  0  0  0  0
 32 33  1  0  0  0  0
 33 34  1  0  0  0  0
 35 34  1  0  0  0  0
 35 40  1  0  0  0  0
 36 37  1  6  0  0  0
 36 40  1  0  0  0  0
 38 39  1  0  0  0  0
 38 36  1  0  0  0  0
 39 35  1  0  0  0  0
M  END
>  <MODEL>
7

>  <REMARK>
 VINA RESULT:      -5.1      3.006      6.905
  Name = 
  10 active torsions:
  status: ('A' for Active; 'I' for Inactive)
    1  A    between atoms: C_2  and  C_36
    2  A    between atoms: N_3  and  C_10
    3  A    between atoms: C_6  and  C_30
    4  A    between atoms: C_8  and  C_27
    5  A    between atoms: C_8  and  O_37
    6  A    between atoms: C_10  and  N_32
    7  A    between atoms: C_14  and  N_32
    8  A    between atoms: C_14  and  C_34
    9  A    between atoms: C_25  and  C_26
   10  A    between atoms: C_31  and  O_37
                            x       y       z     vdW  Elec       q    Type
                         _______ _______ _______ _____ _____    ______ ____

>  <TORSDO>
F 10

$$$$
