=
 OpenBabel11052410053D

 33 36  0  0  1  0  0  0  0  0999 V2000
  161.2300  208.2940  152.9640 C   0  0  2  0  0  3  0  0  0  0  0  0
  160.7960  210.6480  152.2620 C   0  0  1  0  0  3  0  0  0  0  0  0
  159.8470  211.8110  152.4630 C   0  0  0  0  0  1  0  0  0  0  0  0
  160.6340  206.6410  151.2420 C   0  0  0  0  0  3  0  0  0  0  0  0
  163.1400  208.6920  148.4990 O   0  0  0  0  0  1  0  0  0  0  0  0
  162.5050  208.2590  150.7420 C   0  0  2  0  0  3  0  0  0  0  0  0
  162.0560  208.7280  149.3700 C   0  0  1  0  0  3  0  0  0  0  0  0
  160.2100  209.4190  152.9470 C   0  0  0  0  0  2  0  0  0  0  0  0
  161.3970  207.6880  151.5960 C   0  0  0  0  0  0  0  0  0  0  0  0
  162.3190  209.7610  150.4390 C   0  0  1  0  0  3  0  0  0  0  0  0
  160.9640  210.3970  150.7710 C   0  0  0  0  0  2  0  0  0  0  0  0
  161.1770  204.4020  150.0400 C   0  0  0  0  0  0  0  0  0  0  0  0
  160.6080  206.2030  148.7730 C   0  0  0  0  0  3  0  0  0  0  0  0
  161.1290  203.5970  151.0670 C   0  0  0  0  0  0  0  0  0  0  0  0
  161.0800  202.8320  152.0390 O   0  0  0  0  0  0  0  0  0  0  0  0
  161.1880  203.9890  148.6490 C   0  0  0  0  0  0  0  0  0  0  0  0
  160.8830  205.0500  147.9060 C   0  0  0  0  0  0  0  0  0  0  0  0
  160.7560  205.8000  150.0350 C   0  0  0  0  0  0  0  0  0  0  0  0
  160.5130  206.2410  145.7870 C   0  0  0  0  0  1  0  0  0  0  0  0
  160.8320  205.0620  146.5120 O   0  0  0  0  0  0  0  0  0  0  0  0
  161.4800  202.6930  148.2040 O   0  0  0  0  0  0  0  0  0  0  0  0
  160.5240  201.6460  148.1710 C   0  0  0  0  0  1  0  0  0  0  0  0
  160.8900  207.3250  153.9180 O   0  0  0  0  0  0  0  0  0  0  0  0
  161.4630  207.7630  155.1210 C   0  0  0  0  0  2  0  0  0  0  0  0
  160.1240  207.1360  157.1240 C   0  0  0  0  0  1  0  0  0  0  0  0
  160.3870  208.2210  156.0980 C   0  0  1  0  0  3  0  0  0  0  0  0
  160.0190  210.6460  156.6800 C   0  0  0  0  0  0  0  0  0  0  0  0
  160.7940  209.4480  156.7600 N   0  0  0  0  0  2  0  0  0  0  0  0
  157.8990  212.5110  156.8240 S   0  0  0  0  0  0  0  0  0  0  0  0
  159.6300  212.8720  157.0280 C   0  0  0  0  0  0  0  0  0  0  0  0
  160.1030  214.1060  156.9400 C   0  0  0  0  0  2  0  0  0  0  0  0
  158.4320  210.6960  155.8300 S   0  0  0  0  0  0  0  0  0  0  0  0
  160.5030  211.7580  157.1200 N   0  0  0  0  0  0  0  0  0  0  0  0
  1 23  1  1  0  0  0
  2  3  1  6  0  0  0
  2  8  1  0  0  0  0
  4  9  2  0  0  0  0
  6  9  1  1  0  0  0
  7  5  1  6  0  0  0
  7 10  1  0  0  0  0
  7  6  1  0  0  0  0
  8  1  1  0  0  0  0
  9  1  1  0  0  0  0
 10  6  1  0  0  0  0
 10 11  1  1  0  0  0
 11  2  1  0  0  0  0
 12 14  2  0  0  0  0
 13 18  2  0  0  0  0
 14 15  2  0  0  0  0
 16 12  1  0  0  0  0
 17 16  2  0  0  0  0
 17 13  1  0  0  0  0
 18 12  1  0  0  0  0
 18  4  1  0  0  0  0
 19 20  1  0  0  0  0
 20 17  1  0  0  0  0
 21 16  1  0  0  0  0
 22 21  1  0  0  0  0
 23 24  1  0  0  0  0
 24 26  1  0  0  0  0
 26 28  1  0  0  0  0
 26 25  1  1  0  0  0
 27 28  1  0  0  0  0
 27 33  2  0  0  0  0
 29 30  1  0  0  0  0
 30 33  1  0  0  0  0
 31 30  2  0  0  0  0
 32 27  1  0  0  0  0
 32 29  1  0  0  0  0
M  END
>  <MODEL>
1

>  <REMARK>
 VINA RESULT:      -7.1      0.000      0.000
  Name = 
  7 active torsions:
  status: ('A' for Active; 'I' for Inactive)
    1  A    between atoms: C_1  and  O_15
    2  A    between atoms: N_8  and  C_29
    3  A    between atoms: C_9  and  O_15
    4  A    between atoms: C_9  and  C_29
    5  A    between atoms: C_10  and  C_32
    6  A    between atoms: O_18  and  C_26
    7  A    between atoms: C_27  and  O_33
                            x       y       z     vdW  Elec       q    Type
                         _______ _______ _______ _____ _____    ______ ____

>  <TORSDO>
F 7

$$$$
=
 OpenBabel11052410053D

 33 36  0  0  1  0  0  0  0  0999 V2000
  162.2290  208.7210  149.9350 C   0  0  2  0  0  3  0  0  0  0  0  0
  161.3610  206.6370  148.8750 C   0  0  1  0  0  3  0  0  0  0  0  0
  160.5790  206.1240  147.6840 C   0  0  0  0  0  1  0  0  0  0  0  0
  160.9400  209.4170  151.9110 C   0  0  0  0  0  3  0  0  0  0  0  0
  161.5780  205.5760  153.5990 O   0  0  0  0  0  1  0  0  0  0  0  0
  162.1980  207.2320  152.0190 C   0  0  2  0  0  3  0  0  0  0  0  0
  161.0870  206.3420  152.5470 C   0  0  1  0  0  3  0  0  0  0  0  0
  161.2780  208.1580  148.8940 C   0  0  0  0  0  2  0  0  0  0  0  0
  161.7140  208.4860  151.3290 C   0  0  0  0  0  0  0  0  0  0  0  0
  161.7960  205.9410  151.2750 C   0  0  1  0  0  3  0  0  0  0  0  0
  160.7630  206.0550  150.1480 C   0  0  0  0  0  2  0  0  0  0  0  0
  159.6590  210.5300  153.8780 C   0  0  0  0  0  0  0  0  0  0  0  0
  160.8240  208.6200  154.2850 C   0  0  0  0  0  3  0  0  0  0  0  0
  158.9040  211.3510  153.1980 C   0  0  0  0  0  0  0  0  0  0  0  0
  158.1860  212.1260  152.5550 O   0  0  0  0  0  0  0  0  0  0  0  0
  159.4800  210.1890  155.2780 C   0  0  0  0  0  0  0  0  0  0  0  0
  160.1850  209.0870  155.5220 C   0  0  0  0  0  0  0  0  0  0  0  0
  160.4810  209.4640  153.3130 C   0  0  0  0  0  0  0  0  0  0  0  0
  160.0910  207.0750  156.9320 C   0  0  0  0  0  1  0  0  0  0  0  0
  160.2970  208.4710  156.7680 O   0  0  0  0  0  0  0  0  0  0  0  0
  158.7000  210.9200  156.1840 O   0  0  0  0  0  0  0  0  0  0  0  0
  159.2330  211.9100  157.0490 C   0  0  0  0  0  1  0  0  0  0  0  0
  162.4790  210.0800  149.7000 O   0  0  0  0  0  0  0  0  0  0  0  0
  162.0420  210.3240  148.3900 C   0  0  0  0  0  2  0  0  0  0  0  0
  161.3830  212.3870  149.6170 C   0  0  0  0  0  1  0  0  0  0  0  0
  161.5210  211.7490  148.2500 C   0  0  1  0  0  3  0  0  0  0  0  0
  162.0290  213.0160  146.1300 C   0  0  0  0  0  0  0  0  0  0  0  0
  162.4170  212.5350  147.4180 N   0  0  0  0  0  2  0  0  0  0  0  0
  160.6470  214.3040  144.0270 S   0  0  0  0  0  0  0  0  0  0  0  0
  162.4030  214.0250  144.1130 C   0  0  0  0  0  0  0  0  0  0  0  0
  163.1780  214.1080  143.0420 C   0  0  0  0  0  2  0  0  0  0  0  0
  160.3680  212.7630  145.4820 S   0  0  0  0  0  0  0  0  0  0  0  0
  162.9080  213.5450  145.3470 N   0  0  0  0  0  0  0  0  0  0  0  0
  1 23  1  6  0  0  0
  1  9  1  0  0  0  0
  2  3  1  6  0  0  0
  2  8  1  0  0  0  0
  2 11  1  0  0  0  0
  4 18  1  0  0  0  0
  6  9  1  6  0  0  0
  6  7  1  0  0  0  0
  7  5  1  1  0  0  0
  8  1  1  0  0  0  0
  9  4  2  0  0  0  0
 10 11  1  6  0  0  0
 10  6  1  0  0  0  0
 10  7  1  0  0  0  0
 12 16  1  0  0  0  0
 13 17  1  0  0  0  0
 14 12  2  0  0  0  0
 15 14  2  0  0  0  0
 16 17  2  0  0  0  0
 16 21  1  0  0  0  0
 17 20  1  0  0  0  0
 18 12  1  0  0  0  0
 18 13  2  0  0  0  0
 20 19  1  0  0  0  0
 21 22  1  0  0  0  0
 24 23  1  0  0  0  0
 26 24  1  0  0  0  0
 26 25  1  1  0  0  0
 27 28  1  0  0  0  0
 28 26  1  0  0  0  0
 29 30  1  0  0  0  0
 29 32  1  0  0  0  0
 30 33  1  0  0  0  0
 31 30  2  0  0  0  0
 32 27  1  0  0  0  0
 33 27  2  0  0  0  0
M  END
>  <MODEL>
2

>  <REMARK>
 VINA RESULT:      -6.8      4.876      8.701
  Name = 
  7 active torsions:
  status: ('A' for Active; 'I' for Inactive)
    1  A    between atoms: C_1  and  O_15
    2  A    between atoms: N_8  and  C_29
    3  A    between atoms: C_9  and  O_15
    4  A    between atoms: C_9  and  C_29
    5  A    between atoms: C_10  and  C_32
    6  A    between atoms: O_18  and  C_26
    7  A    between atoms: C_27  and  O_33
                            x       y       z     vdW  Elec       q    Type
                         _______ _______ _______ _____ _____    ______ ____

>  <TORSDO>
F 7

$$$$
=
 OpenBabel11052410053D

 33 36  0  0  1  0  0  0  0  0999 V2000
  162.2670  208.7590  150.0650 C   0  0  2  0  0  3  0  0  0  0  0  0
  161.4130  206.6880  148.9680 C   0  0  1  0  0  3  0  0  0  0  0  0
  160.6540  206.1900  147.7560 C   0  0  0  0  0  1  0  0  0  0  0  0
  160.9390  209.4420  152.0200 C   0  0  0  0  0  3  0  0  0  0  0  0
  161.5260  205.5820  153.6850 O   0  0  0  0  0  1  0  0  0  0  0  0
  162.1860  207.2510  152.1340 C   0  0  2  0  0  3  0  0  0  0  0  0
  161.0610  206.3600  152.6300 C   0  0  1  0  0  3  0  0  0  0  0  0
  161.3360  208.2090  148.9990 C   0  0  0  0  0  2  0  0  0  0  0  0
  161.7210  208.5130  151.4450 C   0  0  0  0  0  0  0  0  0  0  0  0
  161.7950  205.9680  151.3700 C   0  0  1  0  0  3  0  0  0  0  0  0
  160.7860  206.0980  150.2230 C   0  0  0  0  0  2  0  0  0  0  0  0
  159.6470  210.5570  153.9790 C   0  0  0  0  0  0  0  0  0  0  0  0
  160.7480  208.6080  154.3770 C   0  0  0  0  0  3  0  0  0  0  0  0
  158.9310  211.4110  153.2980 C   0  0  0  0  0  0  0  0  0  0  0  0
  158.2490  212.2170  152.6530 O   0  0  0  0  0  0  0  0  0  0  0  0
  159.4280  210.1970  155.3680 C   0  0  0  0  0  0  0  0  0  0  0  0
  160.0960  209.0720  155.6080 C   0  0  0  0  0  0  0  0  0  0  0  0
  160.4510  209.4780  153.4130 C   0  0  0  0  0  0  0  0  0  0  0  0
  160.0950  207.0160  156.9570 C   0  0  0  0  0  1  0  0  0  0  0  0
  160.1640  208.4310  156.8450 O   0  0  0  0  0  0  0  0  0  0  0  0
  158.6490  210.9340  156.2700 O   0  0  0  0  0  0  0  0  0  0  0  0
  159.1100  212.1080  156.9190 C   0  0  0  0  0  1  0  0  0  0  0  0
  162.5270  210.1190  149.8480 O   0  0  0  0  0  0  0  0  0  0  0  0
  161.9870  210.4110  148.5880 C   0  0  0  0  0  2  0  0  0  0  0  0
  163.5540  212.2280  147.9250 C   0  0  0  0  0  1  0  0  0  0  0  0
  162.1170  211.8960  148.2730 C   0  0  1  0  0  3  0  0  0  0  0  0
  159.9380  212.8090  147.3930 C   0  0  0  0  0  0  0  0  0  0  0  0
  161.2380  212.2590  147.1740 N   0  0  0  0  0  2  0  0  0  0  0  0
  157.8060  214.4530  148.2550 S   0  0  0  0  0  0  0  0  0  0  0  0
  157.8750  213.5370  146.7310 C   0  0  0  0  0  0  0  0  0  0  0  0
  156.7880  213.2860  146.0150 C   0  0  0  0  0  2  0  0  0  0  0  0
  159.3290  213.1790  149.0470 S   0  0  0  0  0  0  0  0  0  0  0  0
  159.1190  212.9420  146.4050 N   0  0  0  0  0  0  0  0  0  0  0  0
  1 23  1  6  0  0  0
  1  9  1  0  0  0  0
  2  3  1  6  0  0  0
  2  8  1  0  0  0  0
  2 11  1  0  0  0  0
  4 18  1  0  0  0  0
  6  9  1  6  0  0  0
  6  7  1  0  0  0  0
  7  5  1  1  0  0  0
  8  1  1  0  0  0  0
  9  4  2  0  0  0  0
 10 11  1  6  0  0  0
 10  6  1  0  0  0  0
 10  7  1  0  0  0  0
 12 16  1  0  0  0  0
 13 17  1  0  0  0  0
 14 12  2  0  0  0  0
 15 14  2  0  0  0  0
 16 17  2  0  0  0  0
 16 21  1  0  0  0  0
 17 20  1  0  0  0  0
 18 12  1  0  0  0  0
 18 13  2  0  0  0  0
 20 19  1  0  0  0  0
 21 22  1  0  0  0  0
 24 23  1  0  0  0  0
 26 25  1  6  0  0  0
 26 24  1  0  0  0  0
 27 32  1  0  0  0  0
 28 27  1  0  0  0  0
 28 26  1  0  0  0  0
 29 32  1  0  0  0  0
 30 29  1  0  0  0  0
 31 30  2  0  0  0  0
 33 30  1  0  0  0  0
 33 27  2  0  0  0  0
M  END
>  <MODEL>
3

>  <REMARK>
 VINA RESULT:      -6.8      4.147      8.148
  Name = 
  7 active torsions:
  status: ('A' for Active; 'I' for Inactive)
    1  A    between atoms: C_1  and  O_15
    2  A    between atoms: N_8  and  C_29
    3  A    between atoms: C_9  and  O_15
    4  A    between atoms: C_9  and  C_29
    5  A    between atoms: C_10  and  C_32
    6  A    between atoms: O_18  and  C_26
    7  A    between atoms: C_27  and  O_33
                            x       y       z     vdW  Elec       q    Type
                         _______ _______ _______ _____ _____    ______ ____

>  <TORSDO>
F 7

$$$$
=
 OpenBabel11052410053D

 33 36  0  0  1  0  0  0  0  0999 V2000
  161.6870  208.7300  152.5240 C   0  0  2  0  0  3  0  0  0  0  0  0
  161.4550  206.4920  153.6010 C   0  0  1  0  0  3  0  0  0  0  0  0
  161.1800  205.0330  153.3050 C   0  0  0  0  0  1  0  0  0  0  0  0
  159.7400  210.1900  152.8870 C   0  0  0  0  0  3  0  0  0  0  0  0
  160.1800  209.6270  157.0700 O   0  0  0  0  0  1  0  0  0  0  0  0
  161.1150  209.5180  154.8930 C   0  0  2  0  0  3  0  0  0  0  0  0
  159.9940  209.0650  155.8110 C   0  0  1  0  0  3  0  0  0  0  0  0
  161.2090  207.3010  152.3340 C   0  0  0  0  0  2  0  0  0  0  0  0
  160.7600  209.5000  153.4240 C   0  0  0  0  0  0  0  0  0  0  0  0
  161.1280  208.1100  155.5270 C   0  0  1  0  0  3  0  0  0  0  0  0
  160.5290  206.9550  154.7170 C   0  0  0  0  0  2  0  0  0  0  0  0
  158.4780  212.4560  153.0410 C   0  0  0  0  0  0  0  0  0  0  0  0
  158.2950  210.9920  154.7710 C   0  0  0  0  0  3  0  0  0  0  0  0
  158.5670  212.8300  151.7930 C   0  0  0  0  0  0  0  0  0  0  0  0
  158.6470  213.1830  150.6100 O   0  0  0  0  0  0  0  0  0  0  0  0
  157.6030  213.0490  154.0350 C   0  0  0  0  0  0  0  0  0  0  0  0
  157.5180  212.2040  155.0600 C   0  0  0  0  0  0  0  0  0  0  0  0
  158.8330  211.1390  153.5620 C   0  0  0  0  0  0  0  0  0  0  0  0
  155.5770  211.7670  156.5040 C   0  0  0  0  0  1  0  0  0  0  0  0
  156.7990  212.4390  156.2320 O   0  0  0  0  0  0  0  0  0  0  0  0
  156.9790  214.2970  153.9060 O   0  0  0  0  0  0  0  0  0  0  0  0
  155.6110  214.4530  153.5650 C   0  0  0  0  0  1  0  0  0  0  0  0
  161.8540  209.3700  151.2880 O   0  0  0  0  0  0  0  0  0  0  0  0
  162.5590  208.4610  150.4850 C   0  0  0  0  0  2  0  0  0  0  0  0
  161.9610  209.7690  148.4530 C   0  0  0  0  0  1  0  0  0  0  0  0
  161.9560  208.3930  149.0870 C   0  0  1  0  0  3  0  0  0  0  0  0
  162.0530  206.5720  147.3470 C   0  0  0  0  0  0  0  0  0  0  0  0
  162.7010  207.4580  148.2600 N   0  0  0  0  0  2  0  0  0  0  0  0
  160.4670  205.5340  145.2490 S   0  0  0  0  0  0  0  0  0  0  0  0
  161.9910  204.8410  145.8530 C   0  0  0  0  0  0  0  0  0  0  0  0
  162.3450  203.5920  145.5890 C   0  0  0  0  0  2  0  0  0  0  0  0
  160.2720  206.6130  147.0840 S   0  0  0  0  0  0  0  0  0  0  0  0
  162.7260  205.6330  146.7720 N   0  0  0  0  0  0  0  0  0  0  0  0
  1 23  1  6  0  0  0
  1  9  1  0  0  0  0
  2  3  1  6  0  0  0
  2 11  1  0  0  0  0
  4  9  2  0  0  0  0
  4 18  1  0  0  0  0
  6  9  1  6  0  0  0
  6 10  1  0  0  0  0
  6  7  1  0  0  0  0
  7  5  1  1  0  0  0
  8  1  1  0  0  0  0
  8  2  1  0  0  0  0
 10 11  1  6  0  0  0
 10  7  1  0  0  0  0
 12 18  1  0  0  0  0
 12 16  1  0  0  0  0
 13 17  1  0  0  0  0
 14 12  2  0  0  0  0
 15 14  2  0  0  0  0
 16 17  2  0  0  0  0
 17 20  1  0  0  0  0
 18 13  2  0  0  0  0
 20 19  1  0  0  0  0
 21 16  1  0  0  0  0
 22 21  1  0  0  0  0
 24 23  1  0  0  0  0
 26 25  1  6  0  0  0
 26 24  1  0  0  0  0
 27 28  1  0  0  0  0
 28 26  1  0  0  0  0
 29 30  1  0  0  0  0
 29 32  1  0  0  0  0
 30 33  1  0  0  0  0
 31 30  2  0  0  0  0
 32 27  1  0  0  0  0
 33 27  2  0  0  0  0
M  END
>  <MODEL>
4

>  <REMARK>
 VINA RESULT:      -6.5      4.724      9.397
  Name = 
  7 active torsions:
  status: ('A' for Active; 'I' for Inactive)
    1  A    between atoms: C_1  and  O_15
    2  A    between atoms: N_8  and  C_29
    3  A    between atoms: C_9  and  O_15
    4  A    between atoms: C_9  and  C_29
    5  A    between atoms: C_10  and  C_32
    6  A    between atoms: O_18  and  C_26
    7  A    between atoms: C_27  and  O_33
                            x       y       z     vdW  Elec       q    Type
                         _______ _______ _______ _____ _____    ______ ____

>  <TORSDO>
F 7

$$$$
=
 OpenBabel11052410053D

 33 36  0  0  1  0  0  0  0  0999 V2000
  161.6210  208.6260  154.1980 C   0  0  2  0  0  3  0  0  0  0  0  0
  160.7550  208.0470  156.4640 C   0  0  1  0  0  3  0  0  0  0  0  0
  160.0850  206.9410  157.2540 C   0  0  0  0  0  1  0  0  0  0  0  0
  160.1580  210.1690  152.9620 C   0  0  0  0  0  3  0  0  0  0  0  0
  160.3600  212.8710  156.2290 O   0  0  0  0  0  1  0  0  0  0  0  0
  161.2590  211.0050  155.0740 C   0  0  2  0  0  3  0  0  0  0  0  0
  160.0420  211.6010  155.7590 C   0  0  1  0  0  3  0  0  0  0  0  0
  160.7640  207.6550  154.9920 C   0  0  0  0  0  2  0  0  0  0  0  0
  160.9350  209.9540  154.0370 C   0  0  0  0  0  0  0  0  0  0  0  0
  160.8660  210.5800  156.5050 C   0  0  1  0  0  3  0  0  0  0  0  0
  159.9790  209.3400  156.6660 C   0  0  0  0  0  2  0  0  0  0  0  0
  158.2360  211.9180  152.9680 C   0  0  0  0  0  0  0  0  0  0  0  0
  160.0250  212.2770  151.6110 C   0  0  0  0  0  3  0  0  0  0  0  0
  157.6100  211.5370  154.0490 C   0  0  0  0  0  0  0  0  0  0  0  0
  157.0180  211.1790  155.0750 O   0  0  0  0  0  0  0  0  0  0  0  0
  158.0230  213.1740  152.2730 C   0  0  0  0  0  0  0  0  0  0  0  0
  159.0560  213.3700  151.4580 C   0  0  0  0  0  0  0  0  0  0  0  0
  159.5440  211.4400  152.5290 C   0  0  0  0  0  0  0  0  0  0  0  0
  159.1560  214.2880  149.1790 C   0  0  0  0  0  1  0  0  0  0  0  0
  159.1960  214.4520  150.5900 O   0  0  0  0  0  0  0  0  0  0  0  0
  156.9080  214.0050  152.4500 O   0  0  0  0  0  0  0  0  0  0  0  0
  155.9400  214.2350  151.4390 C   0  0  0  0  0  1  0  0  0  0  0  0
  161.9800  208.0770  152.9590 O   0  0  0  0  0  0  0  0  0  0  0  0
  161.1410  206.9670  152.7810 C   0  0  0  0  0  2  0  0  0  0  0  0
  162.0630  207.3800  150.5050 C   0  0  0  0  0  1  0  0  0  0  0  0
  161.0490  206.5900  151.3070 C   0  0  1  0  0  3  0  0  0  0  0  0
  161.1710  204.5290  149.8600 C   0  0  0  0  0  0  0  0  0  0  0  0
  161.2740  205.1640  151.1350 N   0  0  0  0  0  2  0  0  0  0  0  0
  161.5340  203.8460  147.1400 S   0  0  0  0  0  0  0  0  0  0  0  0
  161.1260  202.7220  148.4590 C   0  0  0  0  0  0  0  0  0  0  0  0
  160.6340  201.5150  148.2230 C   0  0  0  0  0  2  0  0  0  0  0  0
  160.8460  205.4640  148.3550 S   0  0  0  0  0  0  0  0  0  0  0  0
  161.1930  203.2420  149.7770 N   0  0  0  0  0  0  0  0  0  0  0  0
  1 23  1  6  0  0  0
  1  8  1  0  0  0  0
  2 11  1  0  0  0  0
  2  3  1  1  0  0  0
  4  9  2  0  0  0  0
  6  9  1  6  0  0  0
  6  7  1  0  0  0  0
  6 10  1  0  0  0  0
  7  5  1  1  0  0  0
  7 10  1  0  0  0  0
  8  2  1  0  0  0  0
  9  1  1  0  0  0  0
 10 11  1  6  0  0  0
 12 14  2  0  0  0  0
 13 18  2  0  0  0  0
 14 15  2  0  0  0  0
 16 21  1  0  0  0  0
 16 12  1  0  0  0  0
 17 13  1  0  0  0  0
 17 16  2  0  0  0  0
 18  4  1  0  0  0  0
 18 12  1  0  0  0  0
 19 20  1  0  0  0  0
 20 17  1  0  0  0  0
 22 21  1  0  0  0  0
 24 23  1  0  0  0  0
 26 25  1  6  0  0  0
 26 24  1  0  0  0  0
 27 28  1  0  0  0  0
 28 26  1  0  0  0  0
 29 32  1  0  0  0  0
 29 30  1  0  0  0  0
 30 33  1  0  0  0  0
 31 30  2  0  0  0  0
 32 27  1  0  0  0  0
 33 27  2  0  0  0  0
M  END
>  <MODEL>
5

>  <REMARK>
 VINA RESULT:      -6.5      4.347      8.622
  Name = 
  7 active torsions:
  status: ('A' for Active; 'I' for Inactive)
    1  A    between atoms: C_1  and  O_15
    2  A    between atoms: N_8  and  C_29
    3  A    between atoms: C_9  and  O_15
    4  A    between atoms: C_9  and  C_29
    5  A    between atoms: C_10  and  C_32
    6  A    between atoms: O_18  and  C_26
    7  A    between atoms: C_27  and  O_33
                            x       y       z     vdW  Elec       q    Type
                         _______ _______ _______ _____ _____    ______ ____

>  <TORSDO>
F 7

$$$$
=
 OpenBabel11052410053D

 33 36  0  0  1  0  0  0  0  0999 V2000
  161.5810  208.6720  154.0580 C   0  0  2  0  0  3  0  0  0  0  0  0
  160.6490  208.1100  156.3030 C   0  0  1  0  0  3  0  0  0  0  0  0
  159.9770  207.0030  157.0870 C   0  0  0  0  0  1  0  0  0  0  0  0
  160.1280  210.1610  152.7470 C   0  0  0  0  0  3  0  0  0  0  0  0
  160.1550  212.9200  155.9720 O   0  0  0  0  0  1  0  0  0  0  0  0
  161.1350  211.0560  154.8800 C   0  0  2  0  0  3  0  0  0  0  0  0
  159.8820  211.6360  155.5120 C   0  0  1  0  0  3  0  0  0  0  0  0
  160.7180  207.6950  154.8390 C   0  0  0  0  0  2  0  0  0  0  0  0
  160.8710  209.9820  153.8510 C   0  0  0  0  0  0  0  0  0  0  0  0
  160.7030  210.6460  156.3040 C   0  0  1  0  0  3  0  0  0  0  0  0
  159.8380  209.3890  156.4560 C   0  0  0  0  0  2  0  0  0  0  0  0
  160.0760  212.2880  151.2560 C   0  0  0  0  0  0  0  0  0  0  0  0
  158.3950  211.9740  152.7550 C   0  0  0  0  0  3  0  0  0  0  0  0
  160.9700  211.9430  150.3680 C   0  0  0  0  0  0  0  0  0  0  0  0
  161.8130  211.6150  149.5240 O   0  0  0  0  0  0  0  0  0  0  0  0
  159.1510  213.4000  151.1280 C   0  0  0  0  0  0  0  0  0  0  0  0
  158.1830  213.2300  152.0250 C   0  0  0  0  0  0  0  0  0  0  0  0
  159.5010  211.4100  152.2710 C   0  0  0  0  0  0  0  0  0  0  0  0
  156.4770  214.2140  153.4970 C   0  0  0  0  0  1  0  0  0  0  0  0
  157.1260  214.1150  152.2370 O   0  0  0  0  0  0  0  0  0  0  0  0
  159.2900  214.4520  150.2140 O   0  0  0  0  0  0  0  0  0  0  0  0
  159.3000  214.2670  148.8070 C   0  0  0  0  0  1  0  0  0  0  0  0
  161.9950  208.1110  152.8420 O   0  0  0  0  0  0  0  0  0  0  0  0
  160.9810  207.2150  152.4750 C   0  0  0  0  0  2  0  0  0  0  0  0
  162.4370  207.3390  150.4600 C   0  0  0  0  0  1  0  0  0  0  0  0
  161.1960  206.7060  151.0550 C   0  0  1  0  0  3  0  0  0  0  0  0
  161.1620  204.4870  149.8570 C   0  0  0  0  0  0  0  0  0  0  0  0
  161.3200  205.2580  151.0500 N   0  0  0  0  0  2  0  0  0  0  0  0
  161.4530  203.4690  147.2360 S   0  0  0  0  0  0  0  0  0  0  0  0
  160.9800  202.5380  148.6770 C   0  0  0  0  0  0  0  0  0  0  0  0
  160.4030  201.3490  148.5830 C   0  0  0  0  0  2  0  0  0  0  0  0
  160.8890  205.2620  148.2550 S   0  0  0  0  0  0  0  0  0  0  0  0
  161.0930  203.2010  149.9250 N   0  0  0  0  0  0  0  0  0  0  0  0
  1 23  1  6  0  0  0
  1  8  1  0  0  0  0
  2 11  1  0  0  0  0
  2  3  1  1  0  0  0
  4  9  2  0  0  0  0
  6  9  1  6  0  0  0
  6  7  1  0  0  0  0
  6 10  1  0  0  0  0
  7  5  1  1  0  0  0
  7 10  1  0  0  0  0
  8  2  1  0  0  0  0
  9  1  1  0  0  0  0
 10 11  1  6  0  0  0
 12 18  1  0  0  0  0
 14 12  2  0  0  0  0
 15 14  2  0  0  0  0
 16 12  1  0  0  0  0
 16 17  2  0  0  0  0
 17 20  1  0  0  0  0
 17 13  1  0  0  0  0
 18  4  1  0  0  0  0
 18 13  2  0  0  0  0
 20 19  1  0  0  0  0
 21 16  1  0  0  0  0
 22 21  1  0  0  0  0
 24 23  1  0  0  0  0
 26 25  1  1  0  0  0
 26 24  1  0  0  0  0
 27 33  2  0  0  0  0
 27 28  1  0  0  0  0
 28 26  1  0  0  0  0
 29 32  1  0  0  0  0
 29 30  1  0  0  0  0
 30 33  1  0  0  0  0
 31 30  2  0  0  0  0
 32 27  1  0  0  0  0
M  END
>  <MODEL>
6

>  <REMARK>
 VINA RESULT:      -6.2      4.268      8.619
  Name = 
  7 active torsions:
  status: ('A' for Active; 'I' for Inactive)
    1  A    between atoms: C_1  and  O_15
    2  A    between atoms: N_8  and  C_29
    3  A    between atoms: C_9  and  O_15
    4  A    between atoms: C_9  and  C_29
    5  A    between atoms: C_10  and  C_32
    6  A    between atoms: O_18  and  C_26
    7  A    between atoms: C_27  and  O_33
                            x       y       z     vdW  Elec       q    Type
                         _______ _______ _______ _____ _____    ______ ____

>  <TORSDO>
F 7

$$$$
=
 OpenBabel11052410053D

 33 36  0  0  1  0  0  0  0  0999 V2000
  161.9570  207.3700  151.7240 C   0  0  2  0  0  3  0  0  0  0  0  0
  161.2000  205.0710  152.3290 C   0  0  1  0  0  3  0  0  0  0  0  0
  160.5550  203.8250  151.7610 C   0  0  0  0  0  1  0  0  0  0  0  0
  160.4560  209.1360  152.5510 C   0  0  0  0  0  3  0  0  0  0  0  0
  160.8750  207.5660  156.4710 O   0  0  0  0  0  1  0  0  0  0  0  0
  161.6800  207.7230  154.2460 C   0  0  2  0  0  3  0  0  0  0  0  0
  160.5110  207.3600  155.1450 C   0  0  1  0  0  3  0  0  0  0  0  0
  161.1260  206.1770  151.2840 C   0  0  0  0  0  2  0  0  0  0  0  0
  161.2850  208.1200  152.8430 C   0  0  0  0  0  0  0  0  0  0  0  0
  161.3570  206.2490  154.5700 C   0  0  1  0  0  3  0  0  0  0  0  0
  160.4580  205.4820  153.5930 C   0  0  0  0  0  2  0  0  0  0  0  0
  160.5100  210.6520  154.6600 C   0  0  0  0  0  0  0  0  0  0  0  0
  158.5790  210.5240  153.4650 C   0  0  0  0  0  3  0  0  0  0  0  0
  161.8010  210.7040  154.8480 C   0  0  0  0  0  0  0  0  0  0  0  0
  163.0250  210.7570  155.0240 O   0  0  0  0  0  0  0  0  0  0  0  0
  159.5330  211.5170  155.2970 C   0  0  0  0  0  0  0  0  0  0  0  0
  158.3960  211.4200  154.6130 C   0  0  0  0  0  0  0  0  0  0  0  0
  159.8420  210.1000  153.4850 C   0  0  0  0  0  0  0  0  0  0  0  0
  155.9660  211.3850  154.9890 C   0  0  0  0  0  1  0  0  0  0  0  0
  157.2080  212.0730  154.9420 O   0  0  0  0  0  0  0  0  0  0  0  0
  159.7800  212.2970  156.4340 O   0  0  0  0  0  0  0  0  0  0  0  0
  160.0310  213.6930  156.3820 C   0  0  0  0  0  1  0  0  0  0  0  0
  162.2400  208.2100  150.6380 O   0  0  0  0  0  0  0  0  0  0  0  0
  161.2560  207.9310  149.6790 C   0  0  0  0  0  2  0  0  0  0  0  0
  163.0320  208.7840  148.1580 C   0  0  0  0  0  1  0  0  0  0  0  0
  161.8710  207.8190  148.2890 C   0  0  1  0  0  3  0  0  0  0  0  0
  161.7430  205.6450  147.0190 C   0  0  0  0  0  0  0  0  0  0  0  0
  162.3190  206.4590  148.0420 N   0  0  0  0  0  2  0  0  0  0  0  0
  160.8320  204.6780  144.5230 S   0  0  0  0  0  0  0  0  0  0  0  0
  161.4380  203.6900  145.8740 C   0  0  0  0  0  0  0  0  0  0  0  0
  161.2060  202.3880  145.9470 C   0  0  0  0  0  2  0  0  0  0  0  0
  160.4830  206.2770  145.8980 S   0  0  0  0  0  0  0  0  0  0  0  0
  162.0330  204.3900  146.9540 N   0  0  0  0  0  0  0  0  0  0  0  0
  1 23  1  6  0  0  0
  1  9  1  0  0  0  0
  2  3  1  6  0  0  0
  2 11  1  0  0  0  0
  4  9  2  0  0  0  0
  4 18  1  0  0  0  0
  6  9  1  6  0  0  0
  6 10  1  0  0  0  0
  6  7  1  0  0  0  0
  7  5  1  1  0  0  0
  8  1  1  0  0  0  0
  8  2  1  0  0  0  0
 10 11  1  6  0  0  0
 10  7  1  0  0  0  0
 12 14  2  0  0  0  0
 12 16  1  0  0  0  0
 13 18  2  0  0  0  0
 13 17  1  0  0  0  0
 14 15  2  0  0  0  0
 16 21  1  0  0  0  0
 17 20  1  0  0  0  0
 17 16  2  0  0  0  0
 18 12  1  0  0  0  0
 20 19  1  0  0  0  0
 22 21  1  0  0  0  0
 24 23  1  0  0  0  0
 26 25  1  1  0  0  0
 26 24  1  0  0  0  0
 27 28  1  0  0  0  0
 28 26  1  0  0  0  0
 29 30  1  0  0  0  0
 29 32  1  0  0  0  0
 30 31  2  0  0  0  0
 30 33  1  0  0  0  0
 32 27  1  0  0  0  0
 33 27  2  0  0  0  0
M  END
>  <MODEL>
7

>  <REMARK>
 VINA RESULT:      -5.6      4.556      9.214
  Name = 
  7 active torsions:
  status: ('A' for Active; 'I' for Inactive)
    1  A    between atoms: C_1  and  O_15
    2  A    between atoms: N_8  and  C_29
    3  A    between atoms: C_9  and  O_15
    4  A    between atoms: C_9  and  C_29
    5  A    between atoms: C_10  and  C_32
    6  A    between atoms: O_18  and  C_26
    7  A    between atoms: C_27  and  O_33
                            x       y       z     vdW  Elec       q    Type
                         _______ _______ _______ _____ _____    ______ ____

>  <TORSDO>
F 7

$$$$
=
 OpenBabel11052410053D

 33 36  0  0  1  0  0  0  0  0999 V2000
  161.2070  209.1790  152.3420 C   0  0  2  0  0  3  0  0  0  0  0  0
  161.5480  206.8990  153.2950 C   0  0  1  0  0  3  0  0  0  0  0  0
  161.4010  205.4260  152.9800 C   0  0  0  0  0  1  0  0  0  0  0  0
  159.2400  210.3340  153.2640 C   0  0  0  0  0  3  0  0  0  0  0  0
  160.7870  209.7120  157.1670 O   0  0  0  0  0  1  0  0  0  0  0  0
  161.1510  209.8050  154.8250 C   0  0  2  0  0  3  0  0  0  0  0  0
  160.3650  209.1680  155.9580 C   0  0  1  0  0  3  0  0  0  0  0  0
  160.8880  207.7030  152.1820 C   0  0  0  0  0  2  0  0  0  0  0  0
  160.4430  209.7810  153.4900 C   0  0  0  0  0  0  0  0  0  0  0  0
  161.5070  208.3950  155.3430 C   0  0  1  0  0  3  0  0  0  0  0  0
  160.8800  207.1900  154.6310 C   0  0  0  0  0  2  0  0  0  0  0  0
  158.1520  212.5520  154.0680 C   0  0  0  0  0  0  0  0  0  0  0  0
  157.8840  210.6880  155.3430 C   0  0  0  0  0  3  0  0  0  0  0  0
  158.2510  213.2450  152.9660 C   0  0  0  0  0  0  0  0  0  0  0  0
  158.3410  213.9010  151.9200 O   0  0  0  0  0  0  0  0  0  0  0  0
  157.3370  212.9100  155.2150 C   0  0  0  0  0  0  0  0  0  0  0  0
  157.2040  211.8260  155.9750 C   0  0  0  0  0  0  0  0  0  0  0  0
  158.4160  211.1220  154.2010 C   0  0  0  0  0  0  0  0  0  0  0  0
  155.1390  211.4540  157.2570 C   0  0  0  0  0  1  0  0  0  0  0  0
  156.5200  211.7800  157.1890 O   0  0  0  0  0  0  0  0  0  0  0  0
  156.8070  214.1850  155.4490 O   0  0  0  0  0  0  0  0  0  0  0  0
  155.4150  214.4490  155.5210 C   0  0  0  0  0  1  0  0  0  0  0  0
  160.9730  209.8730  151.1470 O   0  0  0  0  0  0  0  0  0  0  0  0
  162.2410  210.2090  150.6500 C   0  0  0  0  0  2  0  0  0  0  0  0
  162.3900  208.3830  148.9650 C   0  0  0  0  0  1  0  0  0  0  0  0
  162.3440  209.8850  149.1650 C   0  0  1  0  0  3  0  0  0  0  0  0
  161.3070  211.7030  147.7600 C   0  0  0  0  0  0  0  0  0  0  0  0
  161.2170  210.4520  148.4440 N   0  0  0  0  0  2  0  0  0  0  0  0
  162.1120  213.7870  146.0280 S   0  0  0  0  0  0  0  0  0  0  0  0
  160.4540  213.4770  146.5960 C   0  0  0  0  0  0  0  0  0  0  0  0
  159.5040  214.3960  146.5170 C   0  0  0  0  0  2  0  0  0  0  0  0
  162.8510  212.6240  147.6610 S   0  0  0  0  0  0  0  0  0  0  0  0
  160.2410  212.2610  147.2930 N   0  0  0  0  0  0  0  0  0  0  0  0
  1 23  1  6  0  0  0
  1  9  1  0  0  0  0
  2  3  1  6  0  0  0
  2 11  1  0  0  0  0
  4  9  2  0  0  0  0
  4 18  1  0  0  0  0
  6  9  1  6  0  0  0
  6 10  1  0  0  0  0
  6  7  1  0  0  0  0
  7  5  1  1  0  0  0
  8  1  1  0  0  0  0
  8  2  1  0  0  0  0
 10 11  1  6  0  0  0
 10  7  1  0  0  0  0
 12 18  1  0  0  0  0
 12 16  1  0  0  0  0
 13 17  1  0  0  0  0
 14 12  2  0  0  0  0
 15 14  2  0  0  0  0
 16 21  1  0  0  0  0
 16 17  2  0  0  0  0
 17 20  1  0  0  0  0
 18 13  2  0  0  0  0
 20 19  1  0  0  0  0
 21 22  1  0  0  0  0
 24 23  1  0  0  0  0
 26 25  1  1  0  0  0
 26 24  1  0  0  0  0
 27 28  1  0  0  0  0
 28 26  1  0  0  0  0
 29 30  1  0  0  0  0
 29 32  1  0  0  0  0
 30 33  1  0  0  0  0
 31 30  2  0  0  0  0
 32 27  1  0  0  0  0
 33 27  2  0  0  0  0
M  END
>  <MODEL>
8

>  <REMARK>
 VINA RESULT:      -5.5      4.779      9.017
  Name = 
  7 active torsions:
  status: ('A' for Active; 'I' for Inactive)
    1  A    between atoms: C_1  and  O_15
    2  A    between atoms: N_8  and  C_29
    3  A    between atoms: C_9  and  O_15
    4  A    between atoms: C_9  and  C_29
    5  A    between atoms: C_10  and  C_32
    6  A    between atoms: O_18  and  C_26
    7  A    between atoms: C_27  and  O_33
                            x       y       z     vdW  Elec       q    Type
                         _______ _______ _______ _____ _____    ______ ____

>  <TORSDO>
F 7

$$$$
=
 OpenBabel11052410053D

 33 36  0  0  1  0  0  0  0  0999 V2000
  161.2990  210.2040  150.0800 C   0  0  2  0  0  3  0  0  0  0  0  0
  160.9840  212.5930  149.4340 C   0  0  1  0  0  3  0  0  0  0  0  0
  161.5760  213.7030  148.5910 C   0  0  0  0  0  1  0  0  0  0  0  0
  162.1920  209.9220  152.3550 C   0  0  0  0  0  3  0  0  0  0  0  0
  158.9820  212.2710  153.8360 O   0  0  0  0  0  1  0  0  0  0  0  0
  159.9030  210.9510  152.0940 C   0  0  2  0  0  3  0  0  0  0  0  0
  160.0810  212.1640  152.9900 C   0  0  1  0  0  3  0  0  0  0  0  0
  161.9510  211.4160  149.4360 C   0  0  0  0  0  2  0  0  0  0  0  0
  161.1960  210.3690  151.5720 C   0  0  0  0  0  0  0  0  0  0  0  0
  159.6260  212.3750  151.5650 C   0  0  1  0  0  3  0  0  0  0  0  0
  160.7680  213.1070  150.8500 C   0  0  0  0  0  2  0  0  0  0  0  0
  161.5290  208.7920  154.5990 C   0  0  0  0  0  0  0  0  0  0  0  0
  162.7540  210.7070  154.6690 C   0  0  0  0  0  3  0  0  0  0  0  0
  161.1500  207.6290  154.1430 C   0  0  0  0  0  0  0  0  0  0  0  0
  160.7960  206.5240  153.7120 O   0  0  0  0  0  0  0  0  0  0  0  0
  161.7880  209.1050  155.9930 C   0  0  0  0  0  0  0  0  0  0  0  0
  162.4800  210.2400  156.0340 C   0  0  0  0  0  0  0  0  0  0  0  0
  162.2120  209.8270  153.8280 C   0  0  0  0  0  0  0  0  0  0  0  0
  164.0820  211.6490  157.2560 C   0  0  0  0  0  1  0  0  0  0  0  0
  162.8840  210.8870  157.2020 O   0  0  0  0  0  0  0  0  0  0  0  0
  161.3610  208.3270  157.0770 O   0  0  0  0  0  0  0  0  0  0  0  0
  160.1040  207.6720  157.1190 C   0  0  0  0  0  1  0  0  0  0  0  0
  161.9800  209.0280  149.7370 O   0  0  0  0  0  0  0  0  0  0  0  0
  161.2860  207.9900  150.3740 C   0  0  0  0  0  2  0  0  0  0  0  0
  160.6830  205.5760  150.3060 C   0  0  0  0  0  1  0  0  0  0  0  0
  161.4080  206.6930  149.5830 C   0  0  1  0  0  3  0  0  0  0  0  0
  161.1110  205.9190  147.2020 C   0  0  0  0  0  0  0  0  0  0  0  0
  160.8630  206.8610  148.2470 N   0  0  0  0  0  2  0  0  0  0  0  0
  161.2780  203.5330  145.6940 S   0  0  0  0  0  0  0  0  0  0  0  0
  161.0260  205.1710  145.0440 C   0  0  0  0  0  0  0  0  0  0  0  0
  161.2230  205.4540  143.7640 C   0  0  0  0  0  2  0  0  0  0  0  0
  162.0420  204.4040  147.4900 S   0  0  0  0  0  0  0  0  0  0  0  0
  160.7700  206.1960  145.9890 N   0  0  0  0  0  0  0  0  0  0  0  0
  1 23  1  1  0  0  0
  1  9  1  0  0  0  0
  2  3  1  6  0  0  0
  2  8  1  0  0  0  0
  2 11  1  0  0  0  0
  4 18  1  0  0  0  0
  6  9  1  6  0  0  0
  6  7  1  0  0  0  0
  7  5  1  1  0  0  0
  8  1  1  0  0  0  0
  9  4  2  0  0  0  0
 10 11  1  6  0  0  0
 10  6  1  0  0  0  0
 10  7  1  0  0  0  0
 12 16  1  0  0  0  0
 13 17  1  0  0  0  0
 14 12  2  0  0  0  0
 15 14  2  0  0  0  0
 16 17  2  0  0  0  0
 16 21  1  0  0  0  0
 17 20  1  0  0  0  0
 18 12  1  0  0  0  0
 18 13  2  0  0  0  0
 20 19  1  0  0  0  0
 21 22  1  0  0  0  0
 23 24  1  0  0  0  0
 26 25  1  1  0  0  0
 26 24  1  0  0  0  0
 27 32  1  0  0  0  0
 27 28  1  0  0  0  0
 28 26  1  0  0  0  0
 29 32  1  0  0  0  0
 30 29  1  0  0  0  0
 30 33  1  0  0  0  0
 31 30  2  0  0  0  0
 33 27  2  0  0  0  0
M  END
>  <MODEL>
9

>  <REMARK>
 VINA RESULT:      -5.0      4.475      8.520
  Name = 
  7 active torsions:
  status: ('A' for Active; 'I' for Inactive)
    1  A    between atoms: C_1  and  O_15
    2  A    between atoms: N_8  and  C_29
    3  A    between atoms: C_9  and  O_15
    4  A    between atoms: C_9  and  C_29
    5  A    between atoms: C_10  and  C_32
    6  A    between atoms: O_18  and  C_26
    7  A    between atoms: C_27  and  O_33
                            x       y       z     vdW  Elec       q    Type
                         _______ _______ _______ _____ _____    ______ ____

>  <TORSDO>
F 7

$$$$
