=
 OpenBabel11052410023D

 39 41  0  0  1  0  0  0  0  0999 V2000
  161.5800  207.9930  149.2910 N   0  0  0  0  0  0  0  0  0  0  0  0
  161.7050  208.3960  150.5250 C   0  0  0  0  0  0  0  0  0  0  0  0
  161.9140  206.3650  147.5910 N   0  0  0  0  0  0  0  0  0  0  0  0
  162.0260  204.1850  146.1830 C   0  0  1  0  0  3  0  0  0  0  0  0
  161.0700  204.4410  148.4450 C   0  0  0  0  0  0  0  0  0  0  0  0
  161.4910  206.6530  148.7800 C   0  0  0  0  0  0  0  0  0  0  0  0
  161.2150  202.9650  146.0980 N   0  0  0  0  0  2  0  0  0  0  0  0
  160.8460  205.4860  149.4730 C   0  0  0  0  0  2  0  0  0  0  0  0
  161.8460  204.9690  144.9740 N   0  0  0  0  0  1  0  0  0  0  0  0
  160.6770  202.9960  148.5120 C   0  0  2  0  0  3  0  0  0  0  0  0
  161.0920  202.4580  149.7150 F   0  0  0  0  0  0  0  0  0  0  0  0
  161.6250  204.9910  147.3840 C   0  0  0  0  0  0  0  0  0  0  0  0
  161.3230  202.2170  147.3560 C   0  0  1  0  0  3  0  0  0  0  0  0
  160.6960  200.9930  147.2180 F   0  0  0  0  0  0  0  0  0  0  0  0
  160.8710  207.3150  152.6410 N   0  0  0  0  0  2  0  0  0  0  0  0
  162.9130  206.6590  151.6550 N   0  0  0  0  0  2  0  0  0  0  0  0
  161.9050  207.4690  151.6620 C   0  0  0  0  0  0  0  0  0  0  0  0
  160.9740  206.3760  153.7520 C   0  0  0  0  0  2  0  0  0  0  0  0
  160.5380  207.0300  155.0530 C   0  0  0  0  0  2  0  0  0  0  0  0
  160.6340  211.9560  156.0410 C   0  0  0  0  0  1  0  0  0  0  0  0
  159.3300  209.4850  155.7780 O   0  0  0  0  0  0  0  0  0  0  0  0
  161.3080  210.7280  155.6480 N   0  0  0  0  0  0  0  0  0  0  0  0
  161.2540  208.2800  155.2570 N   0  0  0  0  0  2  0  0  0  0  0  0
  160.5750  209.4960  155.5730 C   0  0  0  0  0  0  0  0  0  0  0  0
  162.7050  210.7460  155.5060 N   0  0  0  0  0  2  0  0  0  0  0  0
  163.2870  210.7920  156.8400 C   0  0  0  0  0  1  0  0  0  0  0  0
  161.7380  209.8820  150.7610 C   0  0  1  0  0  3  0  0  0  0  0  0
  162.7180  210.2340  151.6870 O   0  0  0  0  0  1  0  0  0  0  0  0
  161.3210  211.9720  149.4070 N   0  0  0  0  0  2  0  0  0  0  0  0
  161.9050  210.6660  149.4950 C   0  0  0  0  0  0  0  0  0  0  0  0
  162.6100  210.2150  148.5510 O   0  0  0  0  0  0  0  0  0  0  0  0
  162.8440  213.1600  146.4000 C   0  0  0  0  0  3  0  0  0  0  0  0
  162.0700  213.3440  145.3300 C   0  0  0  0  0  0  0  0  0  0  0  0
  160.0430  212.9540  147.6170 C   0  0  0  0  0  3  0  0  0  0  0  0
  159.8200  213.7300  146.3820 C   0  0  0  0  0  3  0  0  0  0  0  0
  162.4330  213.5300  147.7870 C   0  0  0  0  0  2  0  0  0  0  0  0
  162.7490  213.0040  143.7510 Cl  0  0  0  0  0  0  0  0  0  0  0  0
  161.2220  212.7710  148.2230 C   0  0  0  0  0  0  0  0  0  0  0  0
  160.7020  213.9000  145.3880 C   0  0  0  0  0  3  0  0  0  0  0  0
  1  2  2  0  0  0  0
  2 27  1  0  0  0  0
  2 17  1  0  0  0  0
  3  6  2  0  0  0  0
  4  9  1  6  0  0  0
  4 12  1  0  0  0  0
  5 10  1  0  0  0  0
  5  8  1  0  0  0  0
  6  1  1  0  0  0  0
  6  8  1  0  0  0  0
  7  4  1  0  0  0  0
  7 13  1  0  0  0  0
 10 11  1  1  0  0  0
 12  3  1  0  0  0  0
 12  5  2  0  0  0  0
 13 14  1  6  0  0  0
 13 10  1  0  0  0  0
 15 18  1  0  0  0  0
 16 17  2  0  0  0  0
 17 15  1  0  0  0  0
 18 19  1  0  0  0  0
 19 23  1  0  0  0  0
 22 20  1  0  0  0  0
 23 24  1  0  0  0  0
 24 22  1  0  0  0  0
 24 21  2  0  0  0  0
 25 22  1  0  0  0  0
 25 26  1  0  0  0  0
 27 28  1  1  0  0  0
 29 30  1  0  0  0  0
 30 27  1  0  0  0  0
 31 30  2  0  0  0  0
 32 36  1  0  0  0  0
 33 39  1  0  0  0  0
 33 32  2  0  0  0  0
 34 38  2  0  0  0  0
 35 34  1  0  0  0  0
 36 38  1  0  0  0  0
 37 33  1  0  0  0  0
 38 29  1  0  0  0  0
 39 35  2  0  0  0  0
M  END
>  <MODEL>
1

>  <REMARK>
 VINA RESULT:      -8.8      0.000      0.000
  Name = 
  9 active torsions:
  status: ('A' for Active; 'I' for Inactive)
    1  A    between atoms: N_5  and  N_26
    2  A    between atoms: C_8  and  N_14
    3  A    between atoms: N_10  and  C_29
    4  A    between atoms: C_16  and  C_17
    5  A    between atoms: C_16  and  C_32
    6  A    between atoms: C_28  and  N_30
    7  A    between atoms: C_28  and  C_35
    8  A    between atoms: C_32  and  C_39
    9  A    between atoms: C_35  and  N_36
                            x       y       z     vdW  Elec       q    Type
                         _______ _______ _______ _____ _____    ______ ____

>  <TORSDO>
F 9

$$$$
=
 OpenBabel11052410023D

 39 41  0  0  1  0  0  0  0  0999 V2000
  161.7720  208.1890  149.5850 N   0  0  0  0  0  0  0  0  0  0  0  0
  161.8680  208.5360  150.8390 C   0  0  0  0  0  0  0  0  0  0  0  0
  162.1140  206.6120  147.8400 N   0  0  0  0  0  0  0  0  0  0  0  0
  162.1900  204.4850  146.3510 C   0  0  1  0  0  3  0  0  0  0  0  0
  161.1300  204.7040  148.5700 C   0  0  0  0  0  0  0  0  0  0  0  0
  161.6430  206.8760  149.0160 C   0  0  0  0  0  0  0  0  0  0  0  0
  161.3250  203.3130  146.1750 N   0  0  0  0  0  2  0  0  0  0  0  0
  160.9050  205.7190  149.6270 C   0  0  0  0  0  2  0  0  0  0  0  0
  162.1140  205.3230  145.1670 N   0  0  0  0  0  1  0  0  0  0  0  0
  160.6620  203.2800  148.5570 C   0  0  2  0  0  3  0  0  0  0  0  0
  160.9850  202.6750  149.7570 F   0  0  0  0  0  0  0  0  0  0  0  0
  161.7680  205.2650  147.5620 C   0  0  0  0  0  0  0  0  0  0  0  0
  161.3280  202.5130  147.4050 C   0  0  1  0  0  3  0  0  0  0  0  0
  160.6490  201.3300  147.1850 F   0  0  0  0  0  0  0  0  0  0  0  0
  160.9100  207.4150  152.8790 N   0  0  0  0  0  2  0  0  0  0  0  0
  162.9520  206.6990  151.9370 N   0  0  0  0  0  2  0  0  0  0  0  0
  161.9830  207.5570  151.9420 C   0  0  0  0  0  0  0  0  0  0  0  0
  160.9290  206.4290  153.9540 C   0  0  0  0  0  2  0  0  0  0  0  0
  160.4940  207.0560  155.2690 C   0  0  0  0  0  2  0  0  0  0  0  0
  160.8250  211.9260  156.4600 C   0  0  0  0  0  1  0  0  0  0  0  0
  159.4000  209.5390  156.0700 O   0  0  0  0  0  0  0  0  0  0  0  0
  161.4430  210.6810  156.0290 N   0  0  0  0  0  0  0  0  0  0  0  0
  161.2700  208.2560  155.5380 N   0  0  0  0  0  2  0  0  0  0  0  0
  160.6490  209.4930  155.8900 C   0  0  0  0  0  0  0  0  0  0  0  0
  162.8420  210.6310  155.9160 N   0  0  0  0  0  2  0  0  0  0  0  0
  163.3990  210.6790  157.2600 C   0  0  0  0  0  1  0  0  0  0  0  0
  161.9580  210.0090  151.1370 C   0  0  1  0  0  3  0  0  0  0  0  0
  162.2630  210.7480  149.9950 O   0  0  0  0  0  1  0  0  0  0  0  0
  160.4210  211.9400  151.6690 N   0  0  0  0  0  2  0  0  0  0  0  0
  160.7220  210.5440  151.7940 C   0  0  0  0  0  0  0  0  0  0  0  0
  159.9240  209.7670  152.3860 O   0  0  0  0  0  0  0  0  0  0  0  0
  157.6190  214.1560  151.5710 C   0  0  0  0  0  3  0  0  0  0  0  0
  156.6240  213.9560  152.4370 C   0  0  0  0  0  0  0  0  0  0  0  0
  158.8750  212.1420  153.5050 C   0  0  0  0  0  3  0  0  0  0  0  0
  157.8020  212.7610  154.3080 C   0  0  0  0  0  3  0  0  0  0  0  0
  159.0620  214.0310  151.9330 C   0  0  0  0  0  2  0  0  0  0  0  0
  154.9880  214.2910  151.9060 Cl  0  0  0  0  0  0  0  0  0  0  0  0
  159.3990  212.6460  152.3810 C   0  0  0  0  0  0  0  0  0  0  0  0
  156.8240  213.5500  153.8440 C   0  0  0  0  0  3  0  0  0  0  0  0
  1  2  2  0  0  0  0
  2 27  1  0  0  0  0
  2 17  1  0  0  0  0
  3  6  2  0  0  0  0
  4  9  1  6  0  0  0
  4 12  1  0  0  0  0
  5  8  1  0  0  0  0
  6  1  1  0  0  0  0
  6  8  1  0  0  0  0
  7  4  1  0  0  0  0
  7 13  1  0  0  0  0
 10  5  1  0  0  0  0
 10 11  1  1  0  0  0
 12  3  1  0  0  0  0
 12  5  2  0  0  0  0
 13 14  1  6  0  0  0
 13 10  1  0  0  0  0
 15 18  1  0  0  0  0
 16 17  2  0  0  0  0
 17 15  1  0  0  0  0
 18 19  1  0  0  0  0
 19 23  1  0  0  0  0
 22 20  1  0  0  0  0
 23 24  1  0  0  0  0
 24 22  1  0  0  0  0
 24 21  2  0  0  0  0
 25 22  1  0  0  0  0
 25 26  1  0  0  0  0
 27 28  1  6  0  0  0
 27 30  1  0  0  0  0
 29 30  1  0  0  0  0
 29 38  1  0  0  0  0
 30 31  2  0  0  0  0
 32 36  1  0  0  0  0
 32 33  2  0  0  0  0
 33 39  1  0  0  0  0
 34 35  1  0  0  0  0
 36 38  1  0  0  0  0
 37 33  1  0  0  0  0
 38 34  2  0  0  0  0
 39 35  2  0  0  0  0
M  END
>  <MODEL>
2

>  <REMARK>
 VINA RESULT:      -7.9      3.051      3.742
  Name = 
  9 active torsions:
  status: ('A' for Active; 'I' for Inactive)
    1  A    between atoms: N_5  and  N_26
    2  A    between atoms: C_8  and  N_14
    3  A    between atoms: N_10  and  C_29
    4  A    between atoms: C_16  and  C_17
    5  A    between atoms: C_16  and  C_32
    6  A    between atoms: C_28  and  N_30
    7  A    between atoms: C_28  and  C_35
    8  A    between atoms: C_32  and  C_39
    9  A    between atoms: C_35  and  N_36
                            x       y       z     vdW  Elec       q    Type
                         _______ _______ _______ _____ _____    ______ ____

>  <TORSDO>
F 9

$$$$
=
 OpenBabel11052410023D

 39 41  0  0  1  0  0  0  0  0999 V2000
  160.7790  204.9270  151.3720 N   0  0  0  0  0  0  0  0  0  0  0  0
  161.3080  206.0840  151.6600 C   0  0  0  0  0  0  0  0  0  0  0  0
  161.2420  204.7280  149.0490 N   0  0  0  0  0  0  0  0  0  0  0  0
  161.5910  203.8860  146.6160 C   0  0  1  0  0  3  0  0  0  0  0  0
  160.7700  202.5700  148.5370 C   0  0  0  0  0  0  0  0  0  0  0  0
  160.8640  204.1700  150.1530 C   0  0  0  0  0  0  0  0  0  0  0  0
  160.9760  202.8470  145.7820 N   0  0  0  0  0  2  0  0  0  0  0  0
  160.4590  202.7340  149.9780 C   0  0  0  0  0  2  0  0  0  0  0  0
  161.2050  205.1950  146.1190 N   0  0  0  0  0  1  0  0  0  0  0  0
  160.6120  201.3340  147.7040 C   0  0  2  0  0  3  0  0  0  0  0  0
  161.1900  200.2600  148.3540 F   0  0  0  0  0  0  0  0  0  0  0  0
  161.1560  203.7300  148.0440 C   0  0  0  0  0  0  0  0  0  0  0  0
  161.2880  201.5250  146.3380 C   0  0  1  0  0  3  0  0  0  0  0  0
  160.8510  200.5460  145.4670 F   0  0  0  0  0  0  0  0  0  0  0  0
  161.2970  207.6620  149.6980 N   0  0  0  0  0  2  0  0  0  0  0  0
  163.3040  207.1100  150.8110 N   0  0  0  0  0  2  0  0  0  0  0  0
  162.0340  206.9100  150.6690 C   0  0  0  0  0  0  0  0  0  0  0  0
  161.9420  208.5440  148.7320 C   0  0  0  0  0  2  0  0  0  0  0  0
  162.0090  209.9670  149.2610 C   0  0  0  0  0  2  0  0  0  0  0  0
  162.2010  214.1360  146.4630 C   0  0  0  0  0  1  0  0  0  0  0  0
  163.3240  212.2350  148.1960 O   0  0  0  0  0  0  0  0  0  0  0  0
  161.4670  212.9970  146.9920 N   0  0  0  0  0  0  0  0  0  0  0  0
  161.4240  210.8920  148.3020 N   0  0  0  0  0  2  0  0  0  0  0  0
  162.1260  212.0480  147.8440 C   0  0  0  0  0  0  0  0  0  0  0  0
  160.1640  212.7620  146.5230 N   0  0  0  0  0  2  0  0  0  0  0  0
  160.2380  212.5790  145.0800 C   0  0  0  0  0  1  0  0  0  0  0  0
  161.0720  206.6190  153.0460 C   0  0  1  0  0  3  0  0  0  0  0  0
  162.1770  206.4170  153.8720 O   0  0  0  0  0  1  0  0  0  0  0  0
  160.7750  208.8070  154.2710 N   0  0  0  0  0  2  0  0  0  0  0  0
  160.6710  208.0630  153.0510 C   0  0  0  0  0  0  0  0  0  0  0  0
  160.3180  208.6320  151.9820 O   0  0  0  0  0  0  0  0  0  0  0  0
  160.0590  212.0600  152.9760 C   0  0  0  0  0  3  0  0  0  0  0  0
  158.9730  212.6940  153.4230 C   0  0  0  0  0  0  0  0  0  0  0  0
  159.2800  210.3340  155.3820 C   0  0  0  0  0  3  0  0  0  0  0  0
  158.6550  211.6370  155.6810 C   0  0  0  0  0  3  0  0  0  0  0  0
  160.9730  211.2720  153.8560 C   0  0  0  0  0  2  0  0  0  0  0  0
  158.0860  213.7040  152.3000 Cl  0  0  0  0  0  0  0  0  0  0  0  0
  160.2640  210.1250  154.4980 C   0  0  0  0  0  0  0  0  0  0  0  0
  158.5220  212.6620  154.8300 C   0  0  0  0  0  3  0  0  0  0  0  0
  1  2  2  0  0  0  0
  2 27  1  0  0  0  0
  3  6  2  0  0  0  0
  4  9  1  6  0  0  0
  4 12  1  0  0  0  0
  5  8  1  0  0  0  0
  6  1  1  0  0  0  0
  7 13  1  0  0  0  0
  7  4  1  0  0  0  0
  8  6  1  0  0  0  0
 10 11  1  1  0  0  0
 10  5  1  0  0  0  0
 12  5  2  0  0  0  0
 12  3  1  0  0  0  0
 13 14  1  6  0  0  0
 13 10  1  0  0  0  0
 15 17  1  0  0  0  0
 17 16  2  0  0  0  0
 17  2  1  0  0  0  0
 18 19  1  0  0  0  0
 18 15  1  0  0  0  0
 20 22  1  0  0  0  0
 22 24  1  0  0  0  0
 23 19  1  0  0  0  0
 24 21  2  0  0  0  0
 24 23  1  0  0  0  0
 25 22  1  0  0  0  0
 26 25  1  0  0  0  0
 27 30  1  0  0  0  0
 27 28  1  1  0  0  0
 29 38  1  0  0  0  0
 30 29  1  0  0  0  0
 31 30  2  0  0  0  0
 32 33  2  0  0  0  0
 32 36  1  0  0  0  0
 33 39  1  0  0  0  0
 34 35  1  0  0  0  0
 36 38  1  0  0  0  0
 37 33  1  0  0  0  0
 38 34  2  0  0  0  0
 39 35  2  0  0  0  0
M  END
>  <MODEL>
3

>  <REMARK>
 VINA RESULT:      -7.7      2.457      6.116
  Name = 
  9 active torsions:
  status: ('A' for Active; 'I' for Inactive)
    1  A    between atoms: N_5  and  N_26
    2  A    between atoms: C_8  and  N_14
    3  A    between atoms: N_10  and  C_29
    4  A    between atoms: C_16  and  C_17
    5  A    between atoms: C_16  and  C_32
    6  A    between atoms: C_28  and  N_30
    7  A    between atoms: C_28  and  C_35
    8  A    between atoms: C_32  and  C_39
    9  A    between atoms: C_35  and  N_36
                            x       y       z     vdW  Elec       q    Type
                         _______ _______ _______ _____ _____    ______ ____

>  <TORSDO>
F 9

$$$$
=
 OpenBabel11052410023D

 39 41  0  0  1  0  0  0  0  0999 V2000
  160.3750  208.7700  154.6180 N   0  0  0  0  0  0  0  0  0  0  0  0
  161.2190  208.5960  153.6390 C   0  0  0  0  0  0  0  0  0  0  0  0
  160.2760  210.9890  155.4630 N   0  0  0  0  0  0  0  0  0  0  0  0
  159.5290  213.3430  156.2700 C   0  0  1  0  0  3  0  0  0  0  0  0
  158.0700  211.5140  155.4800 C   0  0  0  0  0  0  0  0  0  0  0  0
  159.6550  209.9550  154.9940 C   0  0  0  0  0  0  0  0  0  0  0  0
  158.3210  213.8850  156.9030 N   0  0  0  0  0  2  0  0  0  0  0  0
  158.1610  210.1190  154.9860 C   0  0  0  0  0  2  0  0  0  0  0  0
  160.6210  213.3500  157.2270 N   0  0  0  0  0  1  0  0  0  0  0  0
  156.8290  212.3260  155.6960 C   0  0  2  0  0  3  0  0  0  0  0  0
  156.0260  212.2550  154.5730 F   0  0  0  0  0  0  0  0  0  0  0  0
  159.2780  211.9440  155.7860 C   0  0  0  0  0  0  0  0  0  0  0  0
  157.1940  213.7930  155.9670 C   0  0  1  0  0  3  0  0  0  0  0  0
  156.1010  214.4500  156.4990 F   0  0  0  0  0  0  0  0  0  0  0  0
  160.8280  210.2140  151.7490 N   0  0  0  0  0  2  0  0  0  0  0  0
  162.7810  210.3260  153.0700 N   0  0  0  0  0  2  0  0  0  0  0  0
  161.6890  209.7000  152.7710 C   0  0  0  0  0  0  0  0  0  0  0  0
  161.2010  211.3390  150.8990 C   0  0  0  0  0  2  0  0  0  0  0  0
  162.0110  210.8650  149.7020 C   0  0  0  0  0  2  0  0  0  0  0  0
  162.3330  213.7400  145.5940 C   0  0  0  0  0  1  0  0  0  0  0  0
  163.3970  212.5560  147.9050 O   0  0  0  0  0  0  0  0  0  0  0  0
  161.5630  212.8910  146.4900 N   0  0  0  0  0  0  0  0  0  0  0  0
  161.4540  211.4010  148.4700 N   0  0  0  0  0  2  0  0  0  0  0  0
  162.1930  212.2920  147.6330 C   0  0  0  0  0  0  0  0  0  0  0  0
  160.2530  212.5440  146.1250 N   0  0  0  0  0  2  0  0  0  0  0  0
  160.2170  212.4070  144.6760 C   0  0  0  0  0  1  0  0  0  0  0  0
  161.7960  207.2170  153.4680 C   0  0  1  0  0  3  0  0  0  0  0  0
  161.1250  206.2780  154.2490 O   0  0  0  0  0  1  0  0  0  0  0  0
  160.7990  205.9130  151.5490 N   0  0  0  0  0  2  0  0  0  0  0  0
  161.8340  206.7770  152.0360 C   0  0  0  0  0  0  0  0  0  0  0  0
  162.7210  207.2170  151.2540 O   0  0  0  0  0  0  0  0  0  0  0  0
  161.5700  206.0020  148.0610 C   0  0  0  0  0  3  0  0  0  0  0  0
  161.9600  204.8710  147.4710 C   0  0  0  0  0  0  0  0  0  0  0  0
  160.8910  203.9200  150.2000 C   0  0  0  0  0  3  0  0  0  0  0  0
  160.9150  203.1310  148.9530 C   0  0  0  0  0  3  0  0  0  0  0  0
  160.4700  206.0680  149.0680 C   0  0  0  0  0  2  0  0  0  0  0  0
  163.1580  204.9740  146.1970 Cl  0  0  0  0  0  0  0  0  0  0  0  0
  160.7830  205.2520  150.2790 C   0  0  0  0  0  0  0  0  0  0  0  0
  161.3790  203.5440  147.7670 C   0  0  0  0  0  3  0  0  0  0  0  0
  1  6  1  0  0  0  0
  2  1  2  0  0  0  0
  3 12  1  0  0  0  0
  4  7  1  0  0  0  0
  4  9  1  1  0  0  0
  5 10  1  0  0  0  0
  5 12  2  0  0  0  0
  6  3  2  0  0  0  0
  8  6  1  0  0  0  0
  8  5  1  0  0  0  0
 10 11  1  6  0  0  0
 10 13  1  0  0  0  0
 12  4  1  0  0  0  0
 13 14  1  1  0  0  0
 13  7  1  0  0  0  0
 15 17  1  0  0  0  0
 17 16  2  0  0  0  0
 17  2  1  0  0  0  0
 18 15  1  0  0  0  0
 19 18  1  0  0  0  0
 20 22  1  0  0  0  0
 22 24  1  0  0  0  0
 23 19  1  0  0  0  0
 24 21  2  0  0  0  0
 24 23  1  0  0  0  0
 25 22  1  0  0  0  0
 26 25  1  0  0  0  0
 27  2  1  0  0  0  0
 27 28  1  1  0  0  0
 29 30  1  0  0  0  0
 30 27  1  0  0  0  0
 31 30  2  0  0  0  0
 32 36  1  0  0  0  0
 33 39  1  0  0  0  0
 33 32  2  0  0  0  0
 34 38  2  0  0  0  0
 35 34  1  0  0  0  0
 36 38  1  0  0  0  0
 37 33  1  0  0  0  0
 38 29  1  0  0  0  0
 39 35  2  0  0  0  0
M  END
>  <MODEL>
4

>  <REMARK>
 VINA RESULT:      -7.5      4.044      9.467
  Name = 
  9 active torsions:
  status: ('A' for Active; 'I' for Inactive)
    1  A    between atoms: N_5  and  N_26
    2  A    between atoms: C_8  and  N_14
    3  A    between atoms: N_10  and  C_29
    4  A    between atoms: C_16  and  C_17
    5  A    between atoms: C_16  and  C_32
    6  A    between atoms: C_28  and  N_30
    7  A    between atoms: C_28  and  C_35
    8  A    between atoms: C_32  and  C_39
    9  A    between atoms: C_35  and  N_36
                            x       y       z     vdW  Elec       q    Type
                         _______ _______ _______ _____ _____    ______ ____

>  <TORSDO>
F 9

$$$$
=
 OpenBabel11052410023D

 39 41  0  0  1  0  0  0  0  0999 V2000
  160.9150  208.3240  152.5320 N   0  0  0  0  0  0  0  0  0  0  0  0
  161.7630  208.2730  151.5420 C   0  0  0  0  0  0  0  0  0  0  0  0
  159.6820  210.3520  152.3860 N   0  0  0  0  0  0  0  0  0  0  0  0
  158.3850  212.5480  152.8770 C   0  0  1  0  0  3  0  0  0  0  0  0
  159.5000  211.0840  154.5240 C   0  0  0  0  0  0  0  0  0  0  0  0
  160.2780  209.4700  153.1220 C   0  0  0  0  0  0  0  0  0  0  0  0
  158.4610  213.5850  153.9130 N   0  0  0  0  0  2  0  0  0  0  0  0
  160.2940  209.8340  154.5790 C   0  0  0  0  0  2  0  0  0  0  0  0
  158.8480  213.0920  151.6130 N   0  0  0  0  0  1  0  0  0  0  0  0
  159.1140  211.9710  155.6690 C   0  0  2  0  0  3  0  0  0  0  0  0
  158.5720  211.2080  156.6850 F   0  0  0  0  0  0  0  0  0  0  0  0
  159.2230  211.3650  153.2660 C   0  0  0  0  0  0  0  0  0  0  0  0
  158.0820  213.0120  155.2090 C   0  0  1  0  0  3  0  0  0  0  0  0
  157.9940  214.0210  156.1490 F   0  0  0  0  0  0  0  0  0  0  0  0
  161.9520  209.8180  149.5630 N   0  0  0  0  0  2  0  0  0  0  0  0
  162.9990  210.3280  151.6150 N   0  0  0  0  0  2  0  0  0  0  0  0
  162.3310  209.4810  150.9010 C   0  0  0  0  0  0  0  0  0  0  0  0
  162.4240  211.0230  148.8910 C   0  0  0  0  0  2  0  0  0  0  0  0
  161.2990  212.0360  148.7460 C   0  0  0  0  0  2  0  0  0  0  0  0
  158.3610  213.5960  144.9800 C   0  0  0  0  0  1  0  0  0  0  0  0
  158.9030  213.1100  147.6910 O   0  0  0  0  0  0  0  0  0  0  0  0
  159.6100  213.0240  145.4610 N   0  0  0  0  0  0  0  0  0  0  0  0
  161.0780  212.3490  147.3430 N   0  0  0  0  0  2  0  0  0  0  0  0
  159.8230  212.8420  146.8690 C   0  0  0  0  0  0  0  0  0  0  0  0
  160.6490  212.8120  144.5410 N   0  0  0  0  0  2  0  0  0  0  0  0
  160.0810  212.1500  143.3750 C   0  0  0  0  0  1  0  0  0  0  0  0
  162.2380  206.9110  151.1160 C   0  0  1  0  0  3  0  0  0  0  0  0
  162.0670  205.9660  152.1280 O   0  0  0  0  0  1  0  0  0  0  0  0
  162.4310  206.0180  148.7620 N   0  0  0  0  0  2  0  0  0  0  0  0
  161.5950  206.4420  149.8470 C   0  0  0  0  0  0  0  0  0  0  0  0
  160.3400  206.3530  149.7610 O   0  0  0  0  0  0  0  0  0  0  0  0
  161.9380  203.5920  146.1850 C   0  0  0  0  0  3  0  0  0  0  0  0
  160.8830  203.7300  145.3800 C   0  0  0  0  0  0  0  0  0  0  0  0
  161.0080  206.4290  146.8630 C   0  0  0  0  0  3  0  0  0  0  0  0
  160.4560  206.2040  145.5130 C   0  0  0  0  0  3  0  0  0  0  0  0
  162.7840  204.7360  146.6370 C   0  0  0  0  0  2  0  0  0  0  0  0
  160.0810  202.2800  144.8130 Cl  0  0  0  0  0  0  0  0  0  0  0  0
  161.9950  205.7250  147.4300 C   0  0  0  0  0  0  0  0  0  0  0  0
  160.4020  205.0310  144.8690 C   0  0  0  0  0  3  0  0  0  0  0  0
  1  6  1  0  0  0  0
  2  1  2  0  0  0  0
  3  6  2  0  0  0  0
  3 12  1  0  0  0  0
  4  9  1  6  0  0  0
  4 12  1  0  0  0  0
  4  7  1  0  0  0  0
  5  8  1  0  0  0  0
  5 10  1  0  0  0  0
  6  8  1  0  0  0  0
  7 13  1  0  0  0  0
 10 11  1  1  0  0  0
 12  5  2  0  0  0  0
 13 10  1  0  0  0  0
 13 14  1  1  0  0  0
 15 17  1  0  0  0  0
 17  2  1  0  0  0  0
 17 16  2  0  0  0  0
 18 15  1  0  0  0  0
 19 18  1  0  0  0  0
 20 22  1  0  0  0  0
 22 24  1  0  0  0  0
 23 19  1  0  0  0  0
 24 23  1  0  0  0  0
 24 21  2  0  0  0  0
 25 22  1  0  0  0  0
 26 25  1  0  0  0  0
 27  2  1  0  0  0  0
 27 28  1  1  0  0  0
 29 30  1  0  0  0  0
 30 27  1  0  0  0  0
 31 30  2  0  0  0  0
 32 36  1  0  0  0  0
 33 32  2  0  0  0  0
 34 38  2  0  0  0  0
 35 34  1  0  0  0  0
 36 38  1  0  0  0  0
 37 33  1  0  0  0  0
 38 29  1  0  0  0  0
 39 33  1  0  0  0  0
 39 35  2  0  0  0  0
M  END
>  <MODEL>
5

>  <REMARK>
 VINA RESULT:      -7.4      4.237      8.939
  Name = 
  9 active torsions:
  status: ('A' for Active; 'I' for Inactive)
    1  A    between atoms: N_5  and  N_26
    2  A    between atoms: C_8  and  N_14
    3  A    between atoms: N_10  and  C_29
    4  A    between atoms: C_16  and  C_17
    5  A    between atoms: C_16  and  C_32
    6  A    between atoms: C_28  and  N_30
    7  A    between atoms: C_28  and  C_35
    8  A    between atoms: C_32  and  C_39
    9  A    between atoms: C_35  and  N_36
                            x       y       z     vdW  Elec       q    Type
                         _______ _______ _______ _____ _____    ______ ____

>  <TORSDO>
F 9

$$$$
=
 OpenBabel11052410023D

 39 41  0  0  1  0  0  0  0  0999 V2000
  161.2320  207.5470  154.1200 N   0  0  0  0  0  0  0  0  0  0  0  0
  161.1010  208.8370  154.2590 C   0  0  0  0  0  0  0  0  0  0  0  0
  161.4930  207.2920  151.7710 N   0  0  0  0  0  0  0  0  0  0  0  0
  161.6390  206.3900  149.3390 C   0  0  1  0  0  3  0  0  0  0  0  0
  161.0060  205.1160  151.3580 C   0  0  0  0  0  0  0  0  0  0  0  0
  161.2200  206.7590  152.9180 C   0  0  0  0  0  0  0  0  0  0  0  0
  160.9670  205.3220  148.5890 N   0  0  0  0  0  2  0  0  0  0  0  0
  160.8210  205.3140  152.8150 C   0  0  0  0  0  2  0  0  0  0  0  0
  161.1950  207.6810  148.8440 N   0  0  0  0  0  1  0  0  0  0  0  0
  160.7930  203.8570  150.5730 C   0  0  2  0  0  3  0  0  0  0  0  0
  161.4400  202.8070  151.1970 F   0  0  0  0  0  0  0  0  0  0  0  0
  161.3330  206.2670  150.8030 C   0  0  0  0  0  0  0  0  0  0  0  0
  161.3440  204.0190  149.1480 C   0  0  1  0  0  3  0  0  0  0  0  0
  160.8450  203.0120  148.3440 F   0  0  0  0  0  0  0  0  0  0  0  0
  161.8400  210.2900  152.3400 N   0  0  0  0  0  2  0  0  0  0  0  0
  159.5530  209.8720  152.7460 N   0  0  0  0  0  2  0  0  0  0  0  0
  160.7800  209.7430  153.1320 C   0  0  0  0  0  0  0  0  0  0  0  0
  161.5960  211.1400  151.1800 C   0  0  0  0  0  2  0  0  0  0  0  0
  162.3250  210.6050  149.9570 C   0  0  0  0  0  2  0  0  0  0  0  0
  162.3060  213.6830  145.9860 C   0  0  0  0  0  1  0  0  0  0  0  0
  163.4930  212.5470  148.2610 O   0  0  0  0  0  0  0  0  0  0  0  0
  161.6470  212.6990  146.8300 N   0  0  0  0  0  0  0  0  0  0  0  0
  161.7150  211.1180  148.7400 N   0  0  0  0  0  2  0  0  0  0  0  0
  162.3380  212.1370  147.9570 C   0  0  0  0  0  0  0  0  0  0  0  0
  160.3990  212.1970  146.4260 N   0  0  0  0  0  2  0  0  0  0  0  0
  159.3800  213.1470  146.8500 C   0  0  0  0  0  1  0  0  0  0  0  0
  161.1910  209.3890  155.6560 C   0  0  1  0  0  3  0  0  0  0  0  0
  162.5150  209.5780  156.0500 O   0  0  0  0  0  1  0  0  0  0  0  0
  158.9740  210.5830  155.8370 N   0  0  0  0  0  2  0  0  0  0  0  0
  160.4050  210.6520  155.8330 C   0  0  0  0  0  0  0  0  0  0  0  0
  160.9940  211.7470  156.0470 O   0  0  0  0  0  0  0  0  0  0  0  0
  157.1550  212.9710  153.8980 C   0  0  0  0  0  3  0  0  0  0  0  0
  155.9540  213.3560  154.3330 C   0  0  0  0  0  0  0  0  0  0  0  0
  157.1400  211.8520  156.7470 C   0  0  0  0  0  3  0  0  0  0  0  0
  156.1460  212.9420  156.8050 C   0  0  0  0  0  3  0  0  0  0  0  0
  158.3310  212.7720  154.7960 C   0  0  0  0  0  2  0  0  0  0  0  0
  154.7140  213.6970  153.1430 Cl  0  0  0  0  0  0  0  0  0  0  0  0
  158.0780  211.7000  155.8040 C   0  0  0  0  0  0  0  0  0  0  0  0
  155.6310  213.5950  155.7560 C   0  0  0  0  0  3  0  0  0  0  0  0
  1  2  2  0  0  0  0
  2 27  1  0  0  0  0
  3  6  2  0  0  0  0
  4  9  1  6  0  0  0
  4 12  1  0  0  0  0
  5  8  1  0  0  0  0
  6  1  1  0  0  0  0
  7 13  1  0  0  0  0
  7  4  1  0  0  0  0
  8  6  1  0  0  0  0
 10 11  1  1  0  0  0
 10  5  1  0  0  0  0
 12  5  2  0  0  0  0
 12  3  1  0  0  0  0
 13 14  1  6  0  0  0
 13 10  1  0  0  0  0
 15 17  1  0  0  0  0
 16 17  2  0  0  0  0
 17  2  1  0  0  0  0
 18 15  1  0  0  0  0
 19 18  1  0  0  0  0
 20 22  1  0  0  0  0
 22 24  1  0  0  0  0
 23 19  1  0  0  0  0
 24 21  2  0  0  0  0
 24 23  1  0  0  0  0
 25 22  1  0  0  0  0
 25 26  1  0  0  0  0
 27 30  1  0  0  0  0
 27 28  1  6  0  0  0
 30 29  1  0  0  0  0
 30 31  2  0  0  0  0
 32 33  2  0  0  0  0
 32 36  1  0  0  0  0
 33 39  1  0  0  0  0
 34 35  1  0  0  0  0
 36 38  1  0  0  0  0
 37 33  1  0  0  0  0
 38 29  1  0  0  0  0
 38 34  2  0  0  0  0
 39 35  2  0  0  0  0
M  END
>  <MODEL>
6

>  <REMARK>
 VINA RESULT:      -7.3      3.128      7.037
  Name = 
  9 active torsions:
  status: ('A' for Active; 'I' for Inactive)
    1  A    between atoms: N_5  and  N_26
    2  A    between atoms: C_8  and  N_14
    3  A    between atoms: N_10  and  C_29
    4  A    between atoms: C_16  and  C_17
    5  A    between atoms: C_16  and  C_32
    6  A    between atoms: C_28  and  N_30
    7  A    between atoms: C_28  and  C_35
    8  A    between atoms: C_32  and  C_39
    9  A    between atoms: C_35  and  N_36
                            x       y       z     vdW  Elec       q    Type
                         _______ _______ _______ _____ _____    ______ ____

>  <TORSDO>
F 9

$$$$
=
 OpenBabel11052410023D

 39 41  0  0  1  0  0  0  0  0999 V2000
  160.6740  211.0730  151.9180 N   0  0  0  0  0  0  0  0  0  0  0  0
  161.3860  209.9850  152.0170 C   0  0  0  0  0  0  0  0  0  0  0  0
  160.1210  212.2710  153.8960 N   0  0  0  0  0  0  0  0  0  0  0  0
  158.9050  213.4660  155.8560 C   0  0  1  0  0  3  0  0  0  0  0  0
  157.8560  212.2240  153.9970 C   0  0  0  0  0  0  0  0  0  0  0  0
  159.7260  211.6240  152.8470 C   0  0  0  0  0  0  0  0  0  0  0  0
  157.6340  213.2650  156.5620 N   0  0  0  0  0  2  0  0  0  0  0  0
  158.2340  211.4550  152.7870 C   0  0  0  0  0  2  0  0  0  0  0  0
  160.0070  213.1190  156.7370 N   0  0  0  0  0  1  0  0  0  0  0  0
  156.4760  212.4760  154.5250 C   0  0  2  0  0  3  0  0  0  0  0  0
  155.6640  212.9300  153.5020 F   0  0  0  0  0  0  0  0  0  0  0  0
  158.9500  212.6190  154.6180 C   0  0  0  0  0  0  0  0  0  0  0  0
  156.5190  213.5260  155.6450 C   0  0  1  0  0  3  0  0  0  0  0  0
  155.3300  213.4980  156.3490 F   0  0  0  0  0  0  0  0  0  0  0  0
  160.9170  207.6510  152.8370 N   0  0  0  0  0  2  0  0  0  0  0  0
  161.5820  209.3580  154.3250 N   0  0  0  0  0  2  0  0  0  0  0  0
  161.2330  209.0170  153.1270 C   0  0  0  0  0  0  0  0  0  0  0  0
  160.8110  206.6310  153.8740 C   0  0  0  0  0  2  0  0  0  0  0  0
  161.2060  205.2670  153.3310 C   0  0  0  0  0  2  0  0  0  0  0  0
  160.8310  202.8070  148.9660 C   0  0  0  0  0  1  0  0  0  0  0  0
  160.9050  202.9260  151.7690 O   0  0  0  0  0  0  0  0  0  0  0  0
  161.0050  204.0430  149.7140 N   0  0  0  0  0  0  0  0  0  0  0  0
  161.0930  205.2460  151.8810 N   0  0  0  0  0  2  0  0  0  0  0  0
  160.9950  204.0230  151.1500 C   0  0  0  0  0  0  0  0  0  0  0  0
  161.0190  205.2580  149.0100 N   0  0  0  0  0  2  0  0  0  0  0  0
  161.4500  204.9770  147.6480 C   0  0  0  0  0  1  0  0  0  0  0  0
  162.3310  209.6790  150.8870 C   0  0  1  0  0  3  0  0  0  0  0  0
  162.4370  208.3070  150.6620 O   0  0  0  0  0  1  0  0  0  0  0  0
  162.1500  211.8110  149.5470 N   0  0  0  0  0  2  0  0  0  0  0  0
  161.9700  210.3910  149.6190 C   0  0  0  0  0  0  0  0  0  0  0  0
  161.5810  209.7430  148.6090 O   0  0  0  0  0  0  0  0  0  0  0  0
  162.5500  213.0260  146.2100 C   0  0  0  0  0  3  0  0  0  0  0  0
  161.4530  213.3080  145.5040 C   0  0  0  0  0  0  0  0  0  0  0  0
  160.3840  212.9520  148.3730 C   0  0  0  0  0  3  0  0  0  0  0  0
  159.7840  213.7940  147.3190 C   0  0  0  0  0  3  0  0  0  0  0  0
  162.7060  213.3620  147.6570 C   0  0  0  0  0  2  0  0  0  0  0  0
  161.4770  212.9930  143.7810 Cl  0  0  0  0  0  0  0  0  0  0  0  0
  161.6860  212.6660  148.4960 C   0  0  0  0  0  0  0  0  0  0  0  0
  160.2490  213.9480  146.0730 C   0  0  0  0  0  3  0  0  0  0  0  0
  1  2  2  0  0  0  0
  1  6  1  0  0  0  0
  2 17  1  0  0  0  0
  3 12  1  0  0  0  0
  4  7  1  0  0  0  0
  4  9  1  1  0  0  0
  5 10  1  0  0  0  0
  5 12  2  0  0  0  0
  6  3  2  0  0  0  0
  8  6  1  0  0  0  0
  8  5  1  0  0  0  0
 10 11  1  6  0  0  0
 10 13  1  0  0  0  0
 12  4  1  0  0  0  0
 13 14  1  1  0  0  0
 13  7  1  0  0  0  0
 15 17  1  0  0  0  0
 15 18  1  0  0  0  0
 17 16  2  0  0  0  0
 19 18  1  0  0  0  0
 20 22  1  0  0  0  0
 22 24  1  0  0  0  0
 23 19  1  0  0  0  0
 24 21  2  0  0  0  0
 24 23  1  0  0  0  0
 25 22  1  0  0  0  0
 26 25  1  0  0  0  0
 27 28  1  6  0  0  0
 27  2  1  0  0  0  0
 29 30  1  0  0  0  0
 30 27  1  0  0  0  0
 31 30  2  0  0  0  0
 32 36  1  0  0  0  0
 33 39  1  0  0  0  0
 33 32  2  0  0  0  0
 34 38  2  0  0  0  0
 35 34  1  0  0  0  0
 36 38  1  0  0  0  0
 37 33  1  0  0  0  0
 38 29  1  0  0  0  0
 39 35  2  0  0  0  0
M  END
>  <MODEL>
7

>  <REMARK>
 VINA RESULT:      -7.3      3.890      7.863
  Name = 
  9 active torsions:
  status: ('A' for Active; 'I' for Inactive)
    1  A    between atoms: N_5  and  N_26
    2  A    between atoms: C_8  and  N_14
    3  A    between atoms: N_10  and  C_29
    4  A    between atoms: C_16  and  C_17
    5  A    between atoms: C_16  and  C_32
    6  A    between atoms: C_28  and  N_30
    7  A    between atoms: C_28  and  C_35
    8  A    between atoms: C_32  and  C_39
    9  A    between atoms: C_35  and  N_36
                            x       y       z     vdW  Elec       q    Type
                         _______ _______ _______ _____ _____    ______ ____

>  <TORSDO>
F 9

$$$$
=
 OpenBabel11052410023D

 39 41  0  0  1  0  0  0  0  0999 V2000
  160.8450  207.3020  153.2540 N   0  0  0  0  0  0  0  0  0  0  0  0
  160.9630  208.4440  153.8720 C   0  0  0  0  0  0  0  0  0  0  0  0
  160.6790  205.8820  151.3550 N   0  0  0  0  0  0  0  0  0  0  0  0
  160.8320  204.8130  148.9920 C   0  0  1  0  0  3  0  0  0  0  0  0
  161.8430  206.9430  149.7240 C   0  0  0  0  0  0  0  0  0  0  0  0
  161.1100  206.9840  151.8780 C   0  0  0  0  0  0  0  0  0  0  0  0
  161.8120  204.8490  147.9010 N   0  0  0  0  0  2  0  0  0  0  0  0
  161.9550  207.7920  150.9340 C   0  0  0  0  0  2  0  0  0  0  0  0
  160.8350  203.4940  149.6000 N   0  0  0  0  0  1  0  0  0  0  0  0
  162.4510  207.1900  148.3760 C   0  0  2  0  0  3  0  0  0  0  0  0
  162.1790  208.4840  147.9740 F   0  0  0  0  0  0  0  0  0  0  0  0
  161.1620  205.8550  150.0210 C   0  0  0  0  0  0  0  0  0  0  0  0
  161.8770  206.2060  147.3460 C   0  0  1  0  0  3  0  0  0  0  0  0
  162.6740  206.2030  146.2170 F   0  0  0  0  0  0  0  0  0  0  0  0
  160.3240  210.3470  152.3510 N   0  0  0  0  0  2  0  0  0  0  0  0
  162.3960  210.3280  153.4810 N   0  0  0  0  0  2  0  0  0  0  0  0
  161.3020  209.7070  153.1780 C   0  0  0  0  0  0  0  0  0  0  0  0
  160.5670  211.6220  151.6870 C   0  0  0  0  0  2  0  0  0  0  0  0
  161.5560  211.4550  150.5450 C   0  0  0  0  0  2  0  0  0  0  0  0
  162.2280  213.3220  145.9290 C   0  0  0  0  0  1  0  0  0  0  0  0
  163.0900  211.9450  148.2170 O   0  0  0  0  0  0  0  0  0  0  0  0
  161.3960  213.1160  147.1040 N   0  0  0  0  0  0  0  0  0  0  0  0
  161.0560  212.1040  149.3430 N   0  0  0  0  0  2  0  0  0  0  0  0
  161.9000  212.3670  148.2210 C   0  0  0  0  0  0  0  0  0  0  0  0
  160.0520  213.5190  147.0540 N   0  0  0  0  0  2  0  0  0  0  0  0
  159.3710  212.6760  146.0820 C   0  0  0  0  0  1  0  0  0  0  0  0
  160.6410  208.4650  155.3420 C   0  0  1  0  0  3  0  0  0  0  0  0
  161.7650  208.1890  156.1190 O   0  0  0  0  0  1  0  0  0  0  0  0
  158.6500  210.0170  155.3920 N   0  0  0  0  0  2  0  0  0  0  0  0
  160.0040  209.7490  155.7790 C   0  0  0  0  0  0  0  0  0  0  0  0
  160.6250  210.5470  156.5330 O   0  0  0  0  0  0  0  0  0  0  0  0
  157.1210  212.8750  153.8870 C   0  0  0  0  0  3  0  0  0  0  0  0
  156.0410  213.3960  154.4730 C   0  0  0  0  0  0  0  0  0  0  0  0
  157.1370  211.4520  156.5980 C   0  0  0  0  0  3  0  0  0  0  0  0
  156.3520  212.6730  156.8600 C   0  0  0  0  0  3  0  0  0  0  0  0
  158.3120  212.3860  154.6430 C   0  0  0  0  0  2  0  0  0  0  0  0
  154.7890  214.0680  153.4490 Cl  0  0  0  0  0  0  0  0  0  0  0  0
  157.9580  211.2600  155.5590 C   0  0  0  0  0  0  0  0  0  0  0  0
  155.8760  213.5180  155.9370 C   0  0  0  0  0  3  0  0  0  0  0  0
  1  2  2  0  0  0  0
  2 27  1  0  0  0  0
  3  6  2  0  0  0  0
  4  9  1  1  0  0  0
  4 12  1  0  0  0  0
  5 12  2  0  0  0  0
  5  8  1  0  0  0  0
  6  1  1  0  0  0  0
  7  4  1  0  0  0  0
  8  6  1  0  0  0  0
 10 11  1  6  0  0  0
 10  5  1  0  0  0  0
 12  3  1  0  0  0  0
 13 14  1  6  0  0  0
 13  7  1  0  0  0  0
 13 10  1  0  0  0  0
 15 17  1  0  0  0  0
 17 16  2  0  0  0  0
 17  2  1  0  0  0  0
 18 15  1  0  0  0  0
 19 18  1  0  0  0  0
 20 22  1  0  0  0  0
 21 24  2  0  0  0  0
 22 24  1  0  0  0  0
 23 19  1  0  0  0  0
 24 23  1  0  0  0  0
 25 22  1  0  0  0  0
 26 25  1  0  0  0  0
 27 30  1  0  0  0  0
 27 28  1  1  0  0  0
 29 38  1  0  0  0  0
 29 30  1  0  0  0  0
 30 31  2  0  0  0  0
 32 33  2  0  0  0  0
 32 36  1  0  0  0  0
 33 39  1  0  0  0  0
 34 35  1  0  0  0  0
 36 38  1  0  0  0  0
 37 33  1  0  0  0  0
 38 34  2  0  0  0  0
 39 35  2  0  0  0  0
M  END
>  <MODEL>
8

>  <REMARK>
 VINA RESULT:      -7.3      3.370      7.144
  Name = 
  9 active torsions:
  status: ('A' for Active; 'I' for Inactive)
    1  A    between atoms: N_5  and  N_26
    2  A    between atoms: C_8  and  N_14
    3  A    between atoms: N_10  and  C_29
    4  A    between atoms: C_16  and  C_17
    5  A    between atoms: C_16  and  C_32
    6  A    between atoms: C_28  and  N_30
    7  A    between atoms: C_28  and  C_35
    8  A    between atoms: C_32  and  C_39
    9  A    between atoms: C_35  and  N_36
                            x       y       z     vdW  Elec       q    Type
                         _______ _______ _______ _____ _____    ______ ____

>  <TORSDO>
F 9

$$$$
=
 OpenBabel11052410023D

 39 41  0  0  1  0  0  0  0  0999 V2000
  160.8230  207.5670  153.4780 N   0  0  0  0  0  0  0  0  0  0  0  0
  160.9490  208.7260  154.0640 C   0  0  0  0  0  0  0  0  0  0  0  0
  161.5940  208.0610  151.2850 N   0  0  0  0  0  0  0  0  0  0  0  0
  162.2580  207.9830  148.7740 C   0  0  1  0  0  3  0  0  0  0  0  0
  161.1640  206.1920  150.0750 C   0  0  0  0  0  0  0  0  0  0  0  0
  161.0610  207.2150  152.1050 C   0  0  0  0  0  0  0  0  0  0  0  0
  161.7460  207.2840  147.5890 N   0  0  0  0  0  2  0  0  0  0  0  0
  160.6630  205.9250  151.4440 C   0  0  0  0  0  2  0  0  0  0  0  0
  161.9640  209.4010  148.6630 N   0  0  0  0  0  1  0  0  0  0  0  0
  161.1020  205.2800  148.8870 C   0  0  2  0  0  3  0  0  0  0  0  0
  161.5700  204.0280  149.2380 F   0  0  0  0  0  0  0  0  0  0  0  0
  161.6310  207.4240  150.0180 C   0  0  0  0  0  0  0  0  0  0  0  0
  161.9600  205.8410  147.7420 C   0  0  1  0  0  3  0  0  0  0  0  0
  161.6310  205.2000  146.5630 F   0  0  0  0  0  0  0  0  0  0  0  0
  160.2170  210.7190  152.7110 N   0  0  0  0  0  2  0  0  0  0  0  0
  162.4540  210.4820  153.4250 N   0  0  0  0  0  2  0  0  0  0  0  0
  161.2690  209.9710  153.3300 C   0  0  0  0  0  0  0  0  0  0  0  0
  160.4500  211.9850  152.0260 C   0  0  0  0  0  2  0  0  0  0  0  0
  159.1430  212.5690  151.5140 C   0  0  0  0  0  2  0  0  0  0  0  0
  157.3750  214.4420  147.1990 C   0  0  0  0  0  1  0  0  0  0  0  0
  157.0600  213.3790  149.7780 O   0  0  0  0  0  0  0  0  0  0  0  0
  158.4880  214.0270  148.0400 N   0  0  0  0  0  0  0  0  0  0  0  0
  159.3410  213.1900  150.2130 N   0  0  0  0  0  2  0  0  0  0  0  0
  158.2430  213.5270  149.3640 C   0  0  0  0  0  0  0  0  0  0  0  0
  159.7950  214.2780  147.5940 N   0  0  0  0  0  2  0  0  0  0  0  0
  160.2320  213.1210  146.8260 C   0  0  0  0  0  1  0  0  0  0  0  0
  160.6580  208.7830  155.5390 C   0  0  1  0  0  3  0  0  0  0  0  0
  161.8010  208.5400  156.2990 O   0  0  0  0  0  1  0  0  0  0  0  0
  158.6100  210.2450  155.7440 N   0  0  0  0  0  2  0  0  0  0  0  0
  160.0170  210.0720  155.9540 C   0  0  0  0  0  0  0  0  0  0  0  0
  160.6900  210.9610  156.5430 O   0  0  0  0  0  0  0  0  0  0  0  0
  156.9090  212.9960  154.2230 C   0  0  0  0  0  3  0  0  0  0  0  0
  155.8370  213.4960  154.8400 C   0  0  0  0  0  0  0  0  0  0  0  0
  157.0970  211.6620  156.9720 C   0  0  0  0  0  3  0  0  0  0  0  0
  156.2790  212.8620  157.2320 C   0  0  0  0  0  3  0  0  0  0  0  0
  158.1500  212.5750  154.9390 C   0  0  0  0  0  2  0  0  0  0  0  0
  154.5170  214.0890  153.8530 Cl  0  0  0  0  0  0  0  0  0  0  0  0
  157.8790  211.4670  155.9030 C   0  0  0  0  0  0  0  0  0  0  0  0
  155.7310  213.6590  156.3050 C   0  0  0  0  0  3  0  0  0  0  0  0
  1  2  2  0  0  0  0
  2 27  1  0  0  0  0
  3  6  2  0  0  0  0
  4  9  1  6  0  0  0
  4 12  1  0  0  0  0
  5  8  1  0  0  0  0
  6  1  1  0  0  0  0
  7 13  1  0  0  0  0
  7  4  1  0  0  0  0
  8  6  1  0  0  0  0
 10 11  1  1  0  0  0
 10  5  1  0  0  0  0
 12  5  2  0  0  0  0
 12  3  1  0  0  0  0
 13 14  1  6  0  0  0
 13 10  1  0  0  0  0
 15 17  1  0  0  0  0
 17 16  2  0  0  0  0
 17  2  1  0  0  0  0
 18 15  1  0  0  0  0
 19 18  1  0  0  0  0
 20 22  1  0  0  0  0
 22 24  1  0  0  0  0
 23 19  1  0  0  0  0
 24 21  2  0  0  0  0
 24 23  1  0  0  0  0
 25 22  1  0  0  0  0
 26 25  1  0  0  0  0
 27 30  1  0  0  0  0
 27 28  1  1  0  0  0
 29 38  1  0  0  0  0
 29 30  1  0  0  0  0
 30 31  2  0  0  0  0
 32 33  2  0  0  0  0
 32 36  1  0  0  0  0
 33 39  1  0  0  0  0
 34 35  1  0  0  0  0
 36 38  1  0  0  0  0
 37 33  1  0  0  0  0
 38 34  2  0  0  0  0
 39 35  2  0  0  0  0
M  END
>  <MODEL>
9

>  <REMARK>
 VINA RESULT:      -7.2      3.530      7.134
  Name = 
  9 active torsions:
  status: ('A' for Active; 'I' for Inactive)
    1  A    between atoms: N_5  and  N_26
    2  A    between atoms: C_8  and  N_14
    3  A    between atoms: N_10  and  C_29
    4  A    between atoms: C_16  and  C_17
    5  A    between atoms: C_16  and  C_32
    6  A    between atoms: C_28  and  N_30
    7  A    between atoms: C_28  and  C_35
    8  A    between atoms: C_32  and  C_39
    9  A    between atoms: C_35  and  N_36
                            x       y       z     vdW  Elec       q    Type
                         _______ _______ _______ _____ _____    ______ ____

>  <TORSDO>
F 9

$$$$
