=
 OpenBabel11042420243D

 36 38  0  0  1  0  0  0  0  0999 V2000
  161.8630  205.3700  148.9840 C   0  0  2  0  0  3  0  0  0  0  0  0
  161.6400  207.8810  148.6550 C   0  0  0  0  0  0  0  0  0  0  0  0
  162.4130  210.3420  149.0550 C   0  0  0  0  0  3  0  0  0  0  0  0
  162.2930  205.3530  147.5060 C   0  0  2  0  0  3  0  0  0  0  0  0
  161.6330  206.4250  146.6120 C   0  0  0  0  0  2  0  0  0  0  0  0
  160.4050  204.9470  149.1530 C   0  0  0  0  0  1  0  0  0  0  0  0
  162.0250  209.1130  148.8520 C   0  0  0  0  0  0  0  0  0  0  0  0
  162.1370  206.7750  149.5560 C   0  0  1  0  0  3  0  0  0  0  0  0
  160.9090  207.5320  147.3940 C   0  0  0  0  0  2  0  0  0  0  0  0
  161.0520  207.1960  153.7020 C   0  0  0  0  0  0  0  0  0  0  0  0
  161.7470  206.9390  151.0000 C   0  0  0  0  0  0  0  0  0  0  0  0
  160.6850  207.3330  155.1350 C   0  0  0  0  0  1  0  0  0  0  0  0
  160.5000  208.0620  152.7540 C   0  0  0  0  0  3  0  0  0  0  0  0
  160.8450  207.9330  151.4060 C   0  0  0  0  0  3  0  0  0  0  0  0
  161.9500  206.2030  153.3030 C   0  0  0  0  0  3  0  0  0  0  0  0
  162.2970  206.0750  151.9530 C   0  0  0  0  0  3  0  0  0  0  0  0
  161.1820  211.5400  150.9640 C   0  0  1  0  0  3  0  0  0  0  0  0
  160.2720  213.1370  149.7170 N   0  0  0  0  0  0  0  0  0  0  0  0
  160.3840  212.6640  150.9720 C   0  0  0  0  0  0  0  0  0  0  0  0
  161.5340  211.3660  149.6400 C   0  0  0  0  0  0  0  0  0  0  0  0
  160.9620  212.3430  148.9070 N   0  0  0  0  0  0  0  0  0  0  0  0
  161.7040  210.8430  152.0910 N   0  0  0  0  0  1  0  0  0  0  0  0
  159.8360  213.3390  152.1110 N   0  0  0  0  0  2  0  0  0  0  0  0
  158.9140  212.7760  153.0480 C   0  0  0  0  0  0  0  0  0  0  0  0
  158.2690  211.7300  152.7640 O   0  0  0  0  0  0  0  0  0  0  0  0
  158.7000  213.4280  154.2620 O   0  0  0  0  0  0  0  0  0  0  0  0
  159.3760  213.0430  155.4500 C   0  0  0  0  0  2  0  0  0  0  0  0
  158.4330  212.2600  156.3370 C   0  0  0  0  0  1  0  0  0  0  0  0
  162.3400  203.9650  146.8720 C   0  0  0  0  0  2  0  0  0  0  0  0
  161.4780  203.8670  145.6200 C   0  0  0  0  0  2  0  0  0  0  0  0
  160.8980  202.4680  145.4810 C   0  0  0  0  0  2  0  0  0  0  0  0
  160.4700  201.9140  146.8320 C   0  0  0  0  0  2  0  0  0  0  0  0
  161.2530  200.6540  147.1620 C   0  0  0  0  0  2  0  0  0  0  0  0
  161.5020  200.5660  148.6600 C   0  0  0  0  0  2  0  0  0  0  0  0
  161.0640  201.8760  150.7380 C   0  0  0  0  0  1  0  0  0  0  0  0
  160.4720  201.3720  149.4360 C   0  0  0  0  0  2  0  0  0  0  0  0
  1  6  1  6  0  0  0
  1  8  1  0  0  0  0
  2  7  2  0  0  0  0
  2  8  1  0  0  0  0
  3 20  1  0  0  0  0
  4 29  1  6  0  0  0
  4  1  1  0  0  0  0
  5  9  1  0  0  0  0
  5  4  1  0  0  0  0
  7  3  2  0  0  0  0
  8 11  1  1  0  0  0
  9  2  1  0  0  0  0
 10 12  1  0  0  0  0
 11 14  2  0  0  0  0
 11 16  1  0  0  0  0
 13 10  2  0  0  0  0
 14 13  1  0  0  0  0
 15 10  1  0  0  0  0
 16 15  2  0  0  0  0
 17 19  1  0  0  0  0
 17 22  1  1  0  0  0
 18 19  2  0  0  0  0
 19 23  1  0  0  0  0
 20 17  1  0  0  0  0
 21 20  2  0  0  0  0
 21 18  1  0  0  0  0
 23 24  1  0  0  0  0
 24 26  1  0  0  0  0
 25 24  2  0  0  0  0
 26 27  1  0  0  0  0
 27 28  1  0  0  0  0
 30 29  1  0  0  0  0
 31 30  1  0  0  0  0
 31 32  1  0  0  0  0
 32 33  1  0  0  0  0
 33 34  1  0  0  0  0
 34 36  1  0  0  0  0
 36 35  1  0  0  0  0
M  END
>  <MODEL>
1

>  <REMARK>
 VINA RESULT:      -6.3      0.000      0.000
  Name = 
  12 active torsions:
  status: ('A' for Active; 'I' for Inactive)
    1  A    between atoms: O_3  and  C_7
    2  A    between atoms: O_3  and  C_30
    3  A    between atoms: C_4  and  C_33
    4  A    between atoms: C_6  and  C_11
    5  A    between atoms: C_6  and  C_26
    6  A    between atoms: C_9  and  C_23
    7  A    between atoms: C_10  and  C_15
    8  A    between atoms: C_10  and  C_20
    9  A    between atoms: C_11  and  C_17
   10  A    between atoms: C_15  and  C_25
   11  A    between atoms: N_19  and  C_21
   12  A    between atoms: C_20  and  C_26
                            x       y       z     vdW  Elec       q    Type
                         _______ _______ _______ _____ _____    ______ ____

>  <TORSDO>
F 12

$$$$
=
 OpenBabel11042420243D

 36 38  0  0  1  0  0  0  0  0999 V2000
  159.0430  213.7790  152.5820 C   0  0  2  0  0  3  0  0  0  0  0  0
  160.0950  211.4970  152.2050 C   0  0  0  0  0  0  0  0  0  0  0  0
  162.0350  209.9520  151.3890 C   0  0  0  0  0  3  0  0  0  0  0  0
  159.2880  213.4940  154.0750 C   0  0  2  0  0  3  0  0  0  0  0  0
  159.1930  212.0090  154.4890 C   0  0  0  0  0  2  0  0  0  0  0  0
  157.5890  213.5220  152.1900 C   0  0  0  0  0  1  0  0  0  0  0  0
  161.0640  210.7220  151.7990 C   0  0  0  0  0  0  0  0  0  0  0  0
  160.0330  212.9370  151.7550 C   0  0  1  0  0  3  0  0  0  0  0  0
  159.1920  211.0300  153.3060 C   0  0  0  0  0  2  0  0  0  0  0  0
  159.6910  213.4250  147.4900 C   0  0  0  0  0  0  0  0  0  0  0  0
  159.8930  213.1090  150.2670 C   0  0  0  0  0  0  0  0  0  0  0  0
  159.5830  213.5900  146.0180 C   0  0  0  0  0  1  0  0  0  0  0  0
  158.5500  213.5360  148.2900 C   0  0  0  0  0  3  0  0  0  0  0  0
  158.6500  213.3800  149.6750 C   0  0  0  0  0  3  0  0  0  0  0  0
  160.9310  213.1560  148.0740 C   0  0  0  0  0  3  0  0  0  0  0  0
  161.0320  212.9990  149.4610 C   0  0  0  0  0  3  0  0  0  0  0  0
  161.5310  207.5710  150.5690 C   0  0  1  0  0  3  0  0  0  0  0  0
  161.6490  208.0200  148.3970 N   0  0  0  0  0  0  0  0  0  0  0  0
  161.4190  207.0470  149.2990 C   0  0  0  0  0  0  0  0  0  0  0  0
  161.8430  208.9030  150.3760 C   0  0  0  0  0  0  0  0  0  0  0  0
  161.9150  209.1430  149.0510 N   0  0  0  0  0  0  0  0  0  0  0  0
  161.1880  206.9380  151.7980 N   0  0  0  0  0  1  0  0  0  0  0  0
  161.0090  205.7250  148.9320 N   0  0  0  0  0  2  0  0  0  0  0  0
  161.5950  204.9280  147.8980 C   0  0  0  0  0  0  0  0  0  0  0  0
  162.3260  205.4570  147.0170 O   0  0  0  0  0  0  0  0  0  0  0  0
  161.3060  203.5640  147.8490 O   0  0  0  0  0  0  0  0  0  0  0  0
  160.8350  202.8560  148.9850 C   0  0  0  0  0  2  0  0  0  0  0  0
  160.8880  201.3690  148.7120 C   0  0  0  0  0  1  0  0  0  0  0  0
  158.5770  214.4480  155.0330 C   0  0  0  0  0  2  0  0  0  0  0  0
  158.8660  214.1290  156.4940 C   0  0  0  0  0  2  0  0  0  0  0  0
  157.5700  213.8950  157.2530 C   0  0  0  0  0  2  0  0  0  0  0  0
  156.3770  214.4510  156.4890 C   0  0  0  0  0  2  0  0  0  0  0  0
  155.4600  213.3230  156.0430 C   0  0  0  0  0  2  0  0  0  0  0  0
  155.8950  212.0100  156.6750 C   0  0  0  0  0  2  0  0  0  0  0  0
  155.0720  210.2010  155.1680 C   0  0  0  0  0  1  0  0  0  0  0  0
  156.2860  210.9920  155.6150 C   0  0  0  0  0  2  0  0  0  0  0  0
  1  6  1  6  0  0  0
  1  4  1  0  0  0  0
  2  9  1  0  0  0  0
  3  7  2  0  0  0  0
  4  5  1  0  0  0  0
  4 29  1  1  0  0  0
  7  2  2  0  0  0  0
  8 11  1  6  0  0  0
  8  2  1  0  0  0  0
  8  1  1  0  0  0  0
  9  5  1  0  0  0  0
 10 15  2  0  0  0  0
 10 13  1  0  0  0  0
 12 10  1  0  0  0  0
 13 14  2  0  0  0  0
 14 11  1  0  0  0  0
 15 16  1  0  0  0  0
 16 11  2  0  0  0  0
 17 22  1  6  0  0  0
 18 21  1  0  0  0  0
 18 19  2  0  0  0  0
 19 17  1  0  0  0  0
 20 17  1  0  0  0  0
 20  3  1  0  0  0  0
 21 20  2  0  0  0  0
 23 19  1  0  0  0  0
 24 23  1  0  0  0  0
 25 24  2  0  0  0  0
 26 24  1  0  0  0  0
 26 27  1  0  0  0  0
 28 27  1  0  0  0  0
 29 30  1  0  0  0  0
 30 31  1  0  0  0  0
 32 31  1  0  0  0  0
 33 32  1  0  0  0  0
 33 34  1  0  0  0  0
 35 36  1  0  0  0  0
 36 34  1  0  0  0  0
M  END
>  <MODEL>
2

>  <REMARK>
 VINA RESULT:      -5.4      3.409      9.996
  Name = 
  12 active torsions:
  status: ('A' for Active; 'I' for Inactive)
    1  A    between atoms: O_3  and  C_7
    2  A    between atoms: O_3  and  C_30
    3  A    between atoms: C_4  and  C_33
    4  A    between atoms: C_6  and  C_11
    5  A    between atoms: C_6  and  C_26
    6  A    between atoms: C_9  and  C_23
    7  A    between atoms: C_10  and  C_15
    8  A    between atoms: C_10  and  C_20
    9  A    between atoms: C_11  and  C_17
   10  A    between atoms: C_15  and  C_25
   11  A    between atoms: N_19  and  C_21
   12  A    between atoms: C_20  and  C_26
                            x       y       z     vdW  Elec       q    Type
                         _______ _______ _______ _____ _____    ______ ____

>  <TORSDO>
F 12

$$$$
=
 OpenBabel11042420243D

 36 38  0  0  1  0  0  0  0  0999 V2000
  161.2200  205.2280  150.5650 C   0  0  2  0  0  3  0  0  0  0  0  0
  161.1170  206.5110  152.7570 C   0  0  0  0  0  0  0  0  0  0  0  0
  160.0840  208.3210  154.3300 C   0  0  0  0  0  3  0  0  0  0  0  0
  160.6960  204.0410  151.3940 C   0  0  2  0  0  3  0  0  0  0  0  0
  161.1610  204.0060  152.8670 C   0  0  0  0  0  2  0  0  0  0  0  0
  162.7260  205.1310  150.3300 C   0  0  0  0  0  1  0  0  0  0  0  0
  160.6010  207.4140  153.5460 C   0  0  0  0  0  0  0  0  0  0  0  0
  160.8190  206.5360  151.2770 C   0  0  1  0  0  3  0  0  0  0  0  0
  161.7970  205.3160  153.3520 C   0  0  0  0  0  2  0  0  0  0  0  0
  162.1500  210.1360  149.3250 C   0  0  0  0  0  0  0  0  0  0  0  0
  161.2830  207.7840  150.5770 C   0  0  0  0  0  0  0  0  0  0  0  0
  162.6110  211.3830  148.6620 C   0  0  0  0  0  1  0  0  0  0  0  0
  161.8070  209.0210  148.5550 C   0  0  0  0  0  3  0  0  0  0  0  0
  161.3740  207.8480  149.1780 C   0  0  0  0  0  3  0  0  0  0  0  0
  162.0610  210.0780  150.7180 C   0  0  0  0  0  3  0  0  0  0  0  0
  161.6270  208.9030  151.3430 C   0  0  0  0  0  3  0  0  0  0  0  0
  161.8190  209.3820  155.8980 C   0  0  1  0  0  3  0  0  0  0  0  0
  161.6450  211.4500  155.1060 N   0  0  0  0  0  0  0  0  0  0  0  0
  162.2820  210.6760  156.0040 C   0  0  0  0  0  0  0  0  0  0  0  0
  160.8720  209.4280  154.8930 C   0  0  0  0  0  0  0  0  0  0  0  0
  160.7830  210.6940  154.4390 N   0  0  0  0  0  0  0  0  0  0  0  0
  162.3500  208.2190  156.5260 N   0  0  0  0  0  1  0  0  0  0  0  0
  163.3500  211.1560  156.8290 N   0  0  0  0  0  2  0  0  0  0  0  0
  164.6050  211.6580  156.3580 C   0  0  0  0  0  0  0  0  0  0  0  0
  164.9880  211.4240  155.1800 O   0  0  0  0  0  0  0  0  0  0  0  0
  165.4230  212.3670  157.2370 O   0  0  0  0  0  0  0  0  0  0  0  0
  166.5730  213.0690  156.7910 C   0  0  0  0  0  2  0  0  0  0  0  0
  167.8030  212.2150  157.0050 C   0  0  0  0  0  1  0  0  0  0  0  0
  160.7730  202.6880  150.6900 C   0  0  0  0  0  2  0  0  0  0  0  0
  159.8340  202.6000  149.4940 C   0  0  0  0  0  2  0  0  0  0  0  0
  160.4110  201.6790  148.4310 C   0  0  0  0  0  2  0  0  0  0  0  0
  161.6030  202.3220  147.7360 C   0  0  0  0  0  2  0  0  0  0  0  0
  161.1370  203.4030  146.7750 C   0  0  0  0  0  2  0  0  0  0  0  0
  161.9390  204.6780  146.9900 C   0  0  0  0  0  2  0  0  0  0  0  0
  161.0710  205.5910  144.8360 C   0  0  0  0  0  1  0  0  0  0  0  0
  162.3130  205.3210  145.6640 C   0  0  0  0  0  2  0  0  0  0  0  0
  1  6  1  1  0  0  0
  1  8  1  0  0  0  0
  1  4  1  0  0  0  0
  2  9  1  0  0  0  0
  2  7  2  0  0  0  0
  3 20  1  0  0  0  0
  4 29  1  6  0  0  0
  4  5  1  0  0  0  0
  5  9  1  0  0  0  0
  7  3  2  0  0  0  0
  8 11  1  6  0  0  0
  8  2  1  0  0  0  0
 10 15  1  0  0  0  0
 11 16  1  0  0  0  0
 12 10  1  0  0  0  0
 13 14  1  0  0  0  0
 13 10  2  0  0  0  0
 14 11  2  0  0  0  0
 15 16  2  0  0  0  0
 17 19  1  0  0  0  0
 17 22  1  6  0  0  0
 18 19  2  0  0  0  0
 19 23  1  0  0  0  0
 20 17  1  0  0  0  0
 21 20  2  0  0  0  0
 21 18  1  0  0  0  0
 24 23  1  0  0  0  0
 24 26  1  0  0  0  0
 25 24  2  0  0  0  0
 27 28  1  0  0  0  0
 27 26  1  0  0  0  0
 30 29  1  0  0  0  0
 31 30  1  0  0  0  0
 32 31  1  0  0  0  0
 33 34  1  0  0  0  0
 33 32  1  0  0  0  0
 35 36  1  0  0  0  0
 36 34  1  0  0  0  0
M  END
>  <MODEL>
3

>  <REMARK>
 VINA RESULT:      -5.2      3.308      5.352
  Name = 
  12 active torsions:
  status: ('A' for Active; 'I' for Inactive)
    1  A    between atoms: O_3  and  C_7
    2  A    between atoms: O_3  and  C_30
    3  A    between atoms: C_4  and  C_33
    4  A    between atoms: C_6  and  C_11
    5  A    between atoms: C_6  and  C_26
    6  A    between atoms: C_9  and  C_23
    7  A    between atoms: C_10  and  C_15
    8  A    between atoms: C_10  and  C_20
    9  A    between atoms: C_11  and  C_17
   10  A    between atoms: C_15  and  C_25
   11  A    between atoms: N_19  and  C_21
   12  A    between atoms: C_20  and  C_26
                            x       y       z     vdW  Elec       q    Type
                         _______ _______ _______ _____ _____    ______ ____

>  <TORSDO>
F 12

$$$$
=
 OpenBabel11042420243D

 36 38  0  0  1  0  0  0  0  0999 V2000
  160.5510  210.9340  153.7810 C   0  0  2  0  0  3  0  0  0  0  0  0
  161.1610  208.9290  152.3430 C   0  0  0  0  0  0  0  0  0  0  0  0
  162.7740  207.6300  150.7520 C   0  0  0  0  0  3  0  0  0  0  0  0
  160.7590  209.9730  154.9660 C   0  0  2  0  0  3  0  0  0  0  0  0
  160.3990  208.4970  154.6930 C   0  0  0  0  0  2  0  0  0  0  0  0
  159.0700  211.1140  153.4540 C   0  0  0  0  0  1  0  0  0  0  0  0
  161.9670  208.2770  151.5490 C   0  0  0  0  0  0  0  0  0  0  0  0
  161.3590  210.4080  152.5790 C   0  0  1  0  0  3  0  0  0  0  0  0
  160.2030  208.1670  153.2060 C   0  0  0  0  0  2  0  0  0  0  0  0
  161.0430  212.7850  149.0020 C   0  0  0  0  0  0  0  0  0  0  0  0
  161.2340  211.2490  151.3380 C   0  0  0  0  0  0  0  0  0  0  0  0
  160.9400  213.5980  147.7630 C   0  0  0  0  0  1  0  0  0  0  0  0
  160.2900  213.1310  150.1290 C   0  0  0  0  0  3  0  0  0  0  0  0
  160.3860  212.3660  151.2940 C   0  0  0  0  0  3  0  0  0  0  0  0
  161.8900  211.6750  149.0420 C   0  0  0  0  0  3  0  0  0  0  0  0
  161.9850  210.9080  150.2080 C   0  0  0  0  0  3  0  0  0  0  0  0
  161.8090  205.9940  149.0250 C   0  0  1  0  0  3  0  0  0  0  0  0
  162.0180  207.3310  147.2640 N   0  0  0  0  0  0  0  0  0  0  0  0
  161.5990  206.1180  147.6680 C   0  0  0  0  0  0  0  0  0  0  0  0
  162.3790  207.1930  149.4050 C   0  0  0  0  0  0  0  0  0  0  0  0
  162.5010  207.9790  148.3160 N   0  0  0  0  0  0  0  0  0  0  0  0
  161.3460  204.9530  149.8800 N   0  0  0  0  0  1  0  0  0  0  0  0
  160.9350  205.1930  146.7990 N   0  0  0  0  0  2  0  0  0  0  0  0
  161.5670  204.3920  145.7960 C   0  0  0  0  0  0  0  0  0  0  0  0
  162.7280  204.6710  145.3900 O   0  0  0  0  0  0  0  0  0  0  0  0
  160.8620  203.3260  145.2370 O   0  0  0  0  0  0  0  0  0  0  0  0
  160.8520  202.0380  145.8330 C   0  0  0  0  0  2  0  0  0  0  0  0
  159.8420  201.1610  145.1250 C   0  0  0  0  0  1  0  0  0  0  0  0
  160.2480  210.4950  156.3080 C   0  0  0  0  0  2  0  0  0  0  0  0
  160.9540  211.7720  156.7430 C   0  0  0  0  0  2  0  0  0  0  0  0
  159.9390  212.8400  157.1200 C   0  0  0  0  0  2  0  0  0  0  0  0
  158.5180  212.3650  156.8510 C   0  0  0  0  0  2  0  0  0  0  0  0
  157.7600  213.3960  156.0310 C   0  0  0  0  0  2  0  0  0  0  0  0
  156.3160  212.9570  155.8390 C   0  0  0  0  0  2  0  0  0  0  0  0
  155.7200  210.6900  154.9850 C   0  0  0  0  0  1  0  0  0  0  0  0
  156.1340  211.4920  156.2040 C   0  0  0  0  0  2  0  0  0  0  0  0
  1  6  1  6  0  0  0
  1  4  1  0  0  0  0
  2  8  1  0  0  0  0
  2  9  1  0  0  0  0
  3  7  2  0  0  0  0
  4 29  1  1  0  0  0
  5  4  1  0  0  0  0
  7  2  2  0  0  0  0
  8 11  1  6  0  0  0
  8  1  1  0  0  0  0
  9  5  1  0  0  0  0
 10 15  2  0  0  0  0
 10 13  1  0  0  0  0
 12 10  1  0  0  0  0
 13 14  2  0  0  0  0
 14 11  1  0  0  0  0
 15 16  1  0  0  0  0
 16 11  2  0  0  0  0
 17 20  1  0  0  0  0
 17 22  1  1  0  0  0
 18 19  2  0  0  0  0
 18 21  1  0  0  0  0
 19 17  1  0  0  0  0
 20  3  1  0  0  0  0
 21 20  2  0  0  0  0
 23 19  1  0  0  0  0
 24 23  1  0  0  0  0
 25 24  2  0  0  0  0
 26 24  1  0  0  0  0
 26 27  1  0  0  0  0
 28 27  1  0  0  0  0
 29 30  1  0  0  0  0
 30 31  1  0  0  0  0
 32 31  1  0  0  0  0
 33 32  1  0  0  0  0
 34 33  1  0  0  0  0
 34 36  1  0  0  0  0
 35 36  1  0  0  0  0
M  END
>  <MODEL>
4

>  <REMARK>
 VINA RESULT:      -5.2      3.792      9.750
  Name = 
  12 active torsions:
  status: ('A' for Active; 'I' for Inactive)
    1  A    between atoms: O_3  and  C_7
    2  A    between atoms: O_3  and  C_30
    3  A    between atoms: C_4  and  C_33
    4  A    between atoms: C_6  and  C_11
    5  A    between atoms: C_6  and  C_26
    6  A    between atoms: C_9  and  C_23
    7  A    between atoms: C_10  and  C_15
    8  A    between atoms: C_10  and  C_20
    9  A    between atoms: C_11  and  C_17
   10  A    between atoms: C_15  and  C_25
   11  A    between atoms: N_19  and  C_21
   12  A    between atoms: C_20  and  C_26
                            x       y       z     vdW  Elec       q    Type
                         _______ _______ _______ _____ _____    ______ ____

>  <TORSDO>
F 12

$$$$
=
 OpenBabel11042420243D

 36 38  0  0  1  0  0  0  0  0999 V2000
  160.6710  210.5030  154.6700 C   0  0  2  0  0  3  0  0  0  0  0  0
  160.7490  208.1400  153.7360 C   0  0  0  0  0  0  0  0  0  0  0  0
  161.9860  206.1470  152.5900 C   0  0  0  0  0  3  0  0  0  0  0  0
  160.5820  209.8110  156.0420 C   0  0  2  0  0  3  0  0  0  0  0  0
  159.8420  208.4560  156.0540 C   0  0  0  0  0  2  0  0  0  0  0  0
  159.3020  210.9830  154.1910 C   0  0  0  0  0  1  0  0  0  0  0  0
  161.3650  207.1410  153.1650 C   0  0  0  0  0  0  0  0  0  0  0  0
  161.3340  209.5310  153.6740 C   0  0  1  0  0  3  0  0  0  0  0  0
  159.5990  207.8650  154.6570 C   0  0  0  0  0  2  0  0  0  0  0  0
  161.6900  211.1370  149.6950 C   0  0  0  0  0  0  0  0  0  0  0  0
  161.4710  210.0780  152.2790 C   0  0  0  0  0  0  0  0  0  0  0  0
  161.8070  211.7010  148.3250 C   0  0  0  0  0  1  0  0  0  0  0  0
  162.3360  209.9390  150.0150 C   0  0  0  0  0  3  0  0  0  0  0  0
  162.2260  209.4100  151.3030 C   0  0  0  0  0  3  0  0  0  0  0  0
  160.9360  211.8060  150.6630 C   0  0  0  0  0  3  0  0  0  0  0  0
  160.8270  211.2760  151.9530 C   0  0  0  0  0  3  0  0  0  0  0  0
  161.4490  204.1980  151.0070 C   0  0  1  0  0  3  0  0  0  0  0  0
  160.6530  205.4340  149.3420 N   0  0  0  0  0  0  0  0  0  0  0  0
  160.9000  204.1730  149.7420 C   0  0  0  0  0  0  0  0  0  0  0  0
  161.5190  205.5380  151.3350 C   0  0  0  0  0  0  0  0  0  0  0  0
  161.0380  206.2620  150.3060 N   0  0  0  0  0  0  0  0  0  0  0  0
  161.6870  203.0880  151.8670 N   0  0  0  0  0  1  0  0  0  0  0  0
  160.5180  203.0240  148.9780 N   0  0  0  0  0  2  0  0  0  0  0  0
  161.2190  202.5080  147.8430 C   0  0  0  0  0  0  0  0  0  0  0  0
  162.0680  203.2170  147.2370 O   0  0  0  0  0  0  0  0  0  0  0  0
  160.9150  201.2260  147.3850 O   0  0  0  0  0  0  0  0  0  0  0  0
  160.8070  200.9300  146.0010 C   0  0  0  0  0  2  0  0  0  0  0  0
  160.1910  202.1080  145.2790 C   0  0  0  0  0  1  0  0  0  0  0  0
  160.2000  210.7320  157.1980 C   0  0  0  0  0  2  0  0  0  0  0  0
  161.0650  211.9850  157.2540 C   0  0  0  0  0  2  0  0  0  0  0  0
  160.1980  213.2330  157.1930 C   0  0  0  0  0  2  0  0  0  0  0  0
  158.7200  212.8790  157.2610 C   0  0  0  0  0  2  0  0  0  0  0  0
  157.9430  213.6400  156.1990 C   0  0  0  0  0  2  0  0  0  0  0  0
  156.5070  213.1410  156.1400 C   0  0  0  0  0  2  0  0  0  0  0  0
  155.9900  210.8220  155.3790 C   0  0  0  0  0  1  0  0  0  0  0  0
  156.4150  211.6810  156.5550 C   0  0  0  0  0  2  0  0  0  0  0  0
  1  6  1  6  0  0  0
  1  4  1  0  0  0  0
  2  9  1  0  0  0  0
  3  7  2  0  0  0  0
  4  5  1  0  0  0  0
  4 29  1  1  0  0  0
  7  2  2  0  0  0  0
  8 11  1  6  0  0  0
  8  2  1  0  0  0  0
  8  1  1  0  0  0  0
  9  5  1  0  0  0  0
 10 13  2  0  0  0  0
 10 15  1  0  0  0  0
 12 10  1  0  0  0  0
 13 14  1  0  0  0  0
 14 11  2  0  0  0  0
 15 16  2  0  0  0  0
 16 11  1  0  0  0  0
 17 20  1  0  0  0  0
 17 22  1  1  0  0  0
 18 19  2  0  0  0  0
 18 21  1  0  0  0  0
 19 17  1  0  0  0  0
 20  3  1  0  0  0  0
 21 20  2  0  0  0  0
 23 19  1  0  0  0  0
 24 23  1  0  0  0  0
 25 24  2  0  0  0  0
 26 24  1  0  0  0  0
 27 26  1  0  0  0  0
 28 27  1  0  0  0  0
 29 30  1  0  0  0  0
 31 30  1  0  0  0  0
 31 32  1  0  0  0  0
 33 32  1  0  0  0  0
 34 33  1  0  0  0  0
 34 36  1  0  0  0  0
 35 36  1  0  0  0  0
M  END
>  <MODEL>
5

>  <REMARK>
 VINA RESULT:      -5.1      3.926     10.111
  Name = 
  12 active torsions:
  status: ('A' for Active; 'I' for Inactive)
    1  A    between atoms: O_3  and  C_7
    2  A    between atoms: O_3  and  C_30
    3  A    between atoms: C_4  and  C_33
    4  A    between atoms: C_6  and  C_11
    5  A    between atoms: C_6  and  C_26
    6  A    between atoms: C_9  and  C_23
    7  A    between atoms: C_10  and  C_15
    8  A    between atoms: C_10  and  C_20
    9  A    between atoms: C_11  and  C_17
   10  A    between atoms: C_15  and  C_25
   11  A    between atoms: N_19  and  C_21
   12  A    between atoms: C_20  and  C_26
                            x       y       z     vdW  Elec       q    Type
                         _______ _______ _______ _____ _____    ______ ____

>  <TORSDO>
F 12

$$$$
=
 OpenBabel11042420243D

 36 38  0  0  1  0  0  0  0  0999 V2000
  161.1920  204.8900  152.7600 C   0  0  2  0  0  3  0  0  0  0  0  0
  161.4930  206.9080  151.2450 C   0  0  0  0  0  0  0  0  0  0  0  0
  162.6730  209.1370  150.5710 C   0  0  0  0  0  3  0  0  0  0  0  0
  161.7730  204.0900  151.5800 C   0  0  2  0  0  3  0  0  0  0  0  0
  161.4340  204.6390  150.1770 C   0  0  0  0  0  2  0  0  0  0  0  0
  159.6700  204.7730  152.8260 C   0  0  0  0  0  1  0  0  0  0  0  0
  162.0820  208.0220  150.9040 C   0  0  0  0  0  0  0  0  0  0  0  0
  161.6640  206.3520  152.6380 C   0  0  1  0  0  3  0  0  0  0  0  0
  160.8540  206.0610  150.1860 C   0  0  0  0  0  2  0  0  0  0  0  0
  160.2020  208.8950  155.7910 C   0  0  0  0  0  0  0  0  0  0  0  0
  161.1540  207.2560  153.7270 C   0  0  0  0  0  0  0  0  0  0  0  0
  159.6990  209.7640  156.8860 C   0  0  0  0  0  1  0  0  0  0  0  0
  160.3890  209.4230  154.5100 C   0  0  0  0  0  3  0  0  0  0  0  0
  160.8620  208.6060  153.4810 C   0  0  0  0  0  3  0  0  0  0  0  0
  160.4900  207.5510  156.0420 C   0  0  0  0  0  3  0  0  0  0  0  0
  160.9650  206.7330  155.0110 C   0  0  0  0  0  3  0  0  0  0  0  0
  161.9620  211.2820  149.3490 C   0  0  1  0  0  3  0  0  0  0  0  0
  160.5600  212.0100  150.9110 N   0  0  0  0  0  0  0  0  0  0  0  0
  161.0770  212.2800  149.6980 C   0  0  0  0  0  0  0  0  0  0  0  0
  161.9470  210.4070  150.4190 C   0  0  0  0  0  0  0  0  0  0  0  0
  161.0950  210.8780  151.3520 N   0  0  0  0  0  0  0  0  0  0  0  0
  162.5840  211.0810  148.0840 N   0  0  0  0  0  1  0  0  0  0  0  0
  160.6450  213.3840  148.8940 N   0  0  0  0  0  2  0  0  0  0  0  0
  159.8390  213.2900  147.7160 C   0  0  0  0  0  0  0  0  0  0  0  0
  159.7050  212.1890  147.1160 O   0  0  0  0  0  0  0  0  0  0  0  0
  159.2440  214.4450  147.2090 O   0  0  0  0  0  0  0  0  0  0  0  0
  157.9540  214.4260  146.6170 C   0  0  0  0  0  2  0  0  0  0  0  0
  158.0900  214.4170  145.1100 C   0  0  0  0  0  1  0  0  0  0  0  0
  161.6230  202.5750  151.7010 C   0  0  0  0  0  2  0  0  0  0  0  0
  161.7040  201.8720  150.3530 C   0  0  0  0  0  2  0  0  0  0  0  0
  160.3740  201.2180  150.0130 C   0  0  0  0  0  2  0  0  0  0  0  0
  159.9510  201.5410  148.5870 C   0  0  0  0  0  2  0  0  0  0  0  0
  161.1410  202.0300  147.7790 C   0  0  0  0  0  2  0  0  0  0  0  0
  160.7140  202.3480  146.3540 C   0  0  0  0  0  2  0  0  0  0  0  0
  161.5110  204.7100  146.4430 C   0  0  0  0  0  1  0  0  0  0  0  0
  161.6340  203.3810  145.7220 C   0  0  0  0  0  2  0  0  0  0  0  0
  1  6  1  6  0  0  0
  2  8  1  0  0  0  0
  3  7  2  0  0  0  0
  4 29  1  6  0  0  0
  4  1  1  0  0  0  0
  5  9  1  0  0  0  0
  5  4  1  0  0  0  0
  7  2  2  0  0  0  0
  8  1  1  0  0  0  0
  8 11  1  1  0  0  0
  9  2  1  0  0  0  0
 10 15  1  0  0  0  0
 10 12  1  0  0  0  0
 11 16  1  0  0  0  0
 13 10  2  0  0  0  0
 14 11  2  0  0  0  0
 14 13  1  0  0  0  0
 16 15  2  0  0  0  0
 17 22  1  6  0  0  0
 17 19  1  0  0  0  0
 17 20  1  0  0  0  0
 18 21  1  0  0  0  0
 19 18  2  0  0  0  0
 20  3  1  0  0  0  0
 20 21  2  0  0  0  0
 23 19  1  0  0  0  0
 24 23  1  0  0  0  0
 25 24  2  0  0  0  0
 26 24  1  0  0  0  0
 27 26  1  0  0  0  0
 28 27  1  0  0  0  0
 30 29  1  0  0  0  0
 31 30  1  0  0  0  0
 32 31  1  0  0  0  0
 33 32  1  0  0  0  0
 34 33  1  0  0  0  0
 36 34  1  0  0  0  0
 36 35  1  0  0  0  0
M  END
>  <MODEL>
6

>  <REMARK>
 VINA RESULT:      -5.0      2.447      4.306
  Name = 
  12 active torsions:
  status: ('A' for Active; 'I' for Inactive)
    1  A    between atoms: O_3  and  C_7
    2  A    between atoms: O_3  and  C_30
    3  A    between atoms: C_4  and  C_33
    4  A    between atoms: C_6  and  C_11
    5  A    between atoms: C_6  and  C_26
    6  A    between atoms: C_9  and  C_23
    7  A    between atoms: C_10  and  C_15
    8  A    between atoms: C_10  and  C_20
    9  A    between atoms: C_11  and  C_17
   10  A    between atoms: C_15  and  C_25
   11  A    between atoms: N_19  and  C_21
   12  A    between atoms: C_20  and  C_26
                            x       y       z     vdW  Elec       q    Type
                         _______ _______ _______ _____ _____    ______ ____

>  <TORSDO>
F 12

$$$$
=
 OpenBabel11042420243D

 36 38  0  0  1  0  0  0  0  0999 V2000
  161.3110  205.2390  152.3380 C   0  0  2  0  0  3  0  0  0  0  0  0
  161.3790  206.2090  149.9900 C   0  0  0  0  0  0  0  0  0  0  0  0
  160.3520  206.6070  147.6230 C   0  0  0  0  0  3  0  0  0  0  0  0
  161.1340  206.7010  152.7880 C   0  0  2  0  0  3  0  0  0  0  0  0
  161.8430  207.7540  151.9100 C   0  0  0  0  0  2  0  0  0  0  0  0
  162.7500  204.7620  152.5210 C   0  0  0  0  0  1  0  0  0  0  0  0
  160.8670  206.4110  148.8060 C   0  0  0  0  0  0  0  0  0  0  0  0
  160.8330  205.1160  150.8780 C   0  0  1  0  0  3  0  0  0  0  0  0
  162.3340  207.2130  150.5590 C   0  0  0  0  0  2  0  0  0  0  0  0
  161.2120  201.1790  149.1750 C   0  0  0  0  0  0  0  0  0  0  0  0
  160.9640  203.7330  150.3020 C   0  0  0  0  0  0  0  0  0  0  0  0
  161.3460  199.8260  148.5780 C   0  0  0  0  0  1  0  0  0  0  0  0
  160.9690  201.3170  150.5450 C   0  0  0  0  0  3  0  0  0  0  0  0
  160.8440  202.5900  151.1070 C   0  0  0  0  0  3  0  0  0  0  0  0
  161.3320  202.3140  148.3690 C   0  0  0  0  0  3  0  0  0  0  0  0
  161.2070  203.5890  148.9310 C   0  0  0  0  0  3  0  0  0  0  0  0
  160.4770  205.8490  145.1720 C   0  0  1  0  0  3  0  0  0  0  0  0
  162.6930  205.8410  145.0210 N   0  0  0  0  0  0  0  0  0  0  0  0
  161.5520  205.6210  144.3400 C   0  0  0  0  0  0  0  0  0  0  0  0
  161.0370  206.2100  146.3820 C   0  0  0  0  0  0  0  0  0  0  0  0
  162.3790  206.1890  146.2620 N   0  0  0  0  0  0  0  0  0  0  0  0
  159.1010  205.9100  144.8090 N   0  0  0  0  0  1  0  0  0  0  0  0
  161.5260  205.3190  142.9410 N   0  0  0  0  0  2  0  0  0  0  0  0
  161.7070  206.2640  141.8810 C   0  0  0  0  0  0  0  0  0  0  0  0
  161.5940  207.5010  142.0990 O   0  0  0  0  0  0  0  0  0  0  0  0
  161.9590  205.7950  140.5920 O   0  0  0  0  0  0  0  0  0  0  0  0
  162.6430  206.5810  139.6290 C   0  0  0  0  0  2  0  0  0  0  0  0
  161.6390  207.3320  138.7820 C   0  0  0  0  0  1  0  0  0  0  0  0
  161.3060  206.9310  154.2880 C   0  0  0  0  0  2  0  0  0  0  0  0
  159.9730  207.0580  155.0140 C   0  0  0  0  0  2  0  0  0  0  0  0
  159.9150  208.3610  155.7970 C   0  0  0  0  0  2  0  0  0  0  0  0
  161.1110  209.2460  155.4780 C   0  0  0  0  0  2  0  0  0  0  0  0
  160.6530  210.6560  155.1400 C   0  0  0  0  0  2  0  0  0  0  0  0
  160.9120  210.9550  153.6710 C   0  0  0  0  0  2  0  0  0  0  0  0
  158.5760  211.4810  152.9720 C   0  0  0  0  0  1  0  0  0  0  0  0
  159.7390  210.5220  152.8070 C   0  0  0  0  0  2  0  0  0  0  0  0
  1  6  1  6  0  0  0
  1  4  1  0  0  0  0
  2  9  1  0  0  0  0
  2  8  1  0  0  0  0
  3  7  2  0  0  0  0
  4 29  1  1  0  0  0
  5  4  1  0  0  0  0
  7  2  2  0  0  0  0
  8 11  1  6  0  0  0
  8  1  1  0  0  0  0
  9  5  1  0  0  0  0
 10 13  1  0  0  0  0
 11 14  1  0  0  0  0
 12 10  1  0  0  0  0
 13 14  2  0  0  0  0
 15 16  1  0  0  0  0
 15 10  2  0  0  0  0
 16 11  2  0  0  0  0
 17 22  1  6  0  0  0
 17 20  1  0  0  0  0
 18 21  1  0  0  0  0
 19 18  2  0  0  0  0
 19 17  1  0  0  0  0
 20  3  1  0  0  0  0
 21 20  2  0  0  0  0
 23 19  1  0  0  0  0
 24 25  2  0  0  0  0
 24 23  1  0  0  0  0
 26 24  1  0  0  0  0
 27 26  1  0  0  0  0
 28 27  1  0  0  0  0
 29 30  1  0  0  0  0
 30 31  1  0  0  0  0
 32 31  1  0  0  0  0
 33 32  1  0  0  0  0
 34 33  1  0  0  0  0
 36 35  1  0  0  0  0
 36 34  1  0  0  0  0
M  END
>  <MODEL>
7

>  <REMARK>
 VINA RESULT:      -4.3      4.658      9.367
  Name = 
  12 active torsions:
  status: ('A' for Active; 'I' for Inactive)
    1  A    between atoms: O_3  and  C_7
    2  A    between atoms: O_3  and  C_30
    3  A    between atoms: C_4  and  C_33
    4  A    between atoms: C_6  and  C_11
    5  A    between atoms: C_6  and  C_26
    6  A    between atoms: C_9  and  C_23
    7  A    between atoms: C_10  and  C_15
    8  A    between atoms: C_10  and  C_20
    9  A    between atoms: C_11  and  C_17
   10  A    between atoms: C_15  and  C_25
   11  A    between atoms: N_19  and  C_21
   12  A    between atoms: C_20  and  C_26
                            x       y       z     vdW  Elec       q    Type
                         _______ _______ _______ _____ _____    ______ ____

>  <TORSDO>
F 12

$$$$
=
 OpenBabel11042420243D

 36 38  0  0  1  0  0  0  0  0999 V2000
  160.6300  210.1440  154.7930 C   0  0  2  0  0  3  0  0  0  0  0  0
  160.5410  207.6570  154.2750 C   0  0  0  0  0  0  0  0  0  0  0  0
  161.6470  205.4060  153.5480 C   0  0  0  0  0  3  0  0  0  0  0  0
  160.4290  209.7070  156.2550 C   0  0  2  0  0  3  0  0  0  0  0  0
  159.5760  208.4360  156.4550 C   0  0  0  0  0  2  0  0  0  0  0  0
  159.3280  210.6400  154.1680 C   0  0  0  0  0  1  0  0  0  0  0  0
  161.0920  206.5300  153.9140 C   0  0  0  0  0  0  0  0  0  0  0  0
  161.2460  208.9670  154.0110 C   0  0  1  0  0  3  0  0  0  0  0  0
  159.3370  207.6350  155.1670 C   0  0  0  0  0  2  0  0  0  0  0  0
  161.8990  209.7370  149.8250 C   0  0  0  0  0  0  0  0  0  0  0  0
  161.4840  209.2530  152.5540 C   0  0  0  0  0  0  0  0  0  0  0  0
  162.1170  209.9950  148.3790 C   0  0  0  0  0  1  0  0  0  0  0  0
  162.4620  210.5900  150.7790 C   0  0  0  0  0  3  0  0  0  0  0  0
  162.2570  210.3480  152.1400 C   0  0  0  0  0  3  0  0  0  0  0  0
  161.1290  208.6440  150.2320 C   0  0  0  0  0  3  0  0  0  0  0  0
  160.9230  208.4030  151.5950 C   0  0  0  0  0  3  0  0  0  0  0  0
  161.5300  204.7730  151.0620 C   0  0  1  0  0  3  0  0  0  0  0  0
  160.1330  203.0630  151.3010 N   0  0  0  0  0  0  0  0  0  0  0  0
  160.8480  203.7700  150.4070 C   0  0  0  0  0  0  0  0  0  0  0  0
  161.1790  204.6290  152.3910 C   0  0  0  0  0  0  0  0  0  0  0  0
  160.3270  203.5900  152.5040 N   0  0  0  0  0  0  0  0  0  0  0  0
  162.5360  205.6270  150.5270 N   0  0  0  0  0  1  0  0  0  0  0  0
  160.9410  203.4100  149.0240 N   0  0  0  0  0  2  0  0  0  0  0  0
  161.1570  204.3180  147.9400 C   0  0  0  0  0  0  0  0  0  0  0  0
  160.9730  205.5560  148.0940 O   0  0  0  0  0  0  0  0  0  0  0  0
  161.5270  203.8110  146.6940 O   0  0  0  0  0  0  0  0  0  0  0  0
  162.1830  204.6100  145.7230 C   0  0  0  0  0  2  0  0  0  0  0  0
  161.1980  205.0080  144.6450 C   0  0  0  0  0  1  0  0  0  0  0  0
  160.0830  210.8410  157.2180 C   0  0  0  0  0  2  0  0  0  0  0  0
  158.5930  211.1580  157.2330 C   0  0  0  0  0  2  0  0  0  0  0  0
  158.3690  212.6610  157.2500 C   0  0  0  0  0  2  0  0  0  0  0  0
  158.9320  213.3150  155.9960 C   0  0  0  0  0  2  0  0  0  0  0  0
  157.9370  214.3120  155.4250 C   0  0  0  0  0  2  0  0  0  0  0  0
  157.7470  214.0710  153.9350 C   0  0  0  0  0  2  0  0  0  0  0  0
  155.9000  212.6200  154.7780 C   0  0  0  0  0  1  0  0  0  0  0  0
  156.3640  213.5120  153.6420 C   0  0  0  0  0  2  0  0  0  0  0  0
  1  6  1  6  0  0  0
  1  4  1  0  0  0  0
  2  9  1  0  0  0  0
  3  7  2  0  0  0  0
  4  5  1  0  0  0  0
  4 29  1  1  0  0  0
  7  2  2  0  0  0  0
  8 11  1  6  0  0  0
  8  2  1  0  0  0  0
  8  1  1  0  0  0  0
  9  5  1  0  0  0  0
 10 15  2  0  0  0  0
 10 13  1  0  0  0  0
 12 10  1  0  0  0  0
 13 14  2  0  0  0  0
 14 11  1  0  0  0  0
 15 16  1  0  0  0  0
 16 11  2  0  0  0  0
 17 22  1  1  0  0  0
 17 20  1  0  0  0  0
 18 21  1  0  0  0  0
 19 17  1  0  0  0  0
 19 18  2  0  0  0  0
 20 21  2  0  0  0  0
 20  3  1  0  0  0  0
 23 19  1  0  0  0  0
 24 25  2  0  0  0  0
 24 23  1  0  0  0  0
 26 24  1  0  0  0  0
 27 26  1  0  0  0  0
 28 27  1  0  0  0  0
 29 30  1  0  0  0  0
 30 31  1  0  0  0  0
 32 31  1  0  0  0  0
 33 32  1  0  0  0  0
 34 33  1  0  0  0  0
 36 34  1  0  0  0  0
 36 35  1  0  0  0  0
M  END
>  <MODEL>
8

>  <REMARK>
 VINA RESULT:      -4.0      3.725      9.879
  Name = 
  12 active torsions:
  status: ('A' for Active; 'I' for Inactive)
    1  A    between atoms: O_3  and  C_7
    2  A    between atoms: O_3  and  C_30
    3  A    between atoms: C_4  and  C_33
    4  A    between atoms: C_6  and  C_11
    5  A    between atoms: C_6  and  C_26
    6  A    between atoms: C_9  and  C_23
    7  A    between atoms: C_10  and  C_15
    8  A    between atoms: C_10  and  C_20
    9  A    between atoms: C_11  and  C_17
   10  A    between atoms: C_15  and  C_25
   11  A    between atoms: N_19  and  C_21
   12  A    between atoms: C_20  and  C_26
                            x       y       z     vdW  Elec       q    Type
                         _______ _______ _______ _____ _____    ______ ____

>  <TORSDO>
F 12

$$$$
=
 OpenBabel11042420243D

 36 38  0  0  1  0  0  0  0  0999 V2000
  160.9870  203.8660  149.3150 C   0  0  2  0  0  3  0  0  0  0  0  0
  160.9410  204.7230  151.7080 C   0  0  0  0  0  0  0  0  0  0  0  0
  159.9670  206.2270  153.6060 C   0  0  0  0  0  3  0  0  0  0  0  0
  160.4510  202.5550  149.9200 C   0  0  2  0  0  3  0  0  0  0  0  0
  160.9370  202.2400  151.3520 C   0  0  0  0  0  2  0  0  0  0  0  0
  162.4870  203.7890  149.0400 C   0  0  0  0  0  1  0  0  0  0  0  0
  160.4550  205.4720  152.6600 C   0  0  0  0  0  0  0  0  0  0  0  0
  160.6220  205.0250  150.2630 C   0  0  1  0  0  3  0  0  0  0  0  0
  161.6060  203.4270  152.0600 C   0  0  0  0  0  2  0  0  0  0  0  0
  161.9700  208.8740  148.8800 C   0  0  0  0  0  0  0  0  0  0  0  0
  161.1010  206.3740  149.7980 C   0  0  0  0  0  0  0  0  0  0  0  0
  162.4290  210.2010  148.3940 C   0  0  0  0  0  1  0  0  0  0  0  0
  162.3190  208.4420  150.1630 C   0  0  0  0  0  3  0  0  0  0  0  0
  161.8870  207.1950  150.6210 C   0  0  0  0  0  3  0  0  0  0  0  0
  161.1880  208.0600  148.0570 C   0  0  0  0  0  3  0  0  0  0  0  0
  160.7550  206.8110  148.5150 C   0  0  0  0  0  3  0  0  0  0  0  0
  161.1090  208.4930  154.0000 C   0  0  1  0  0  3  0  0  0  0  0  0
  161.9540  208.0090  155.9960 N   0  0  0  0  0  0  0  0  0  0  0  0
  161.8480  208.9710  155.0600 C   0  0  0  0  0  0  0  0  0  0  0  0
  160.7850  207.1970  154.3510 C   0  0  0  0  0  0  0  0  0  0  0  0
  161.3170  206.9300  155.5600 N   0  0  0  0  0  0  0  0  0  0  0  0
  160.6070  209.2350  152.8920 N   0  0  0  0  0  1  0  0  0  0  0  0
  162.3450  210.3010  155.2510 N   0  0  0  0  0  2  0  0  0  0  0  0
  163.2830  210.7040  156.2520 C   0  0  0  0  0  0  0  0  0  0  0  0
  163.5110  209.9680  157.2500 O   0  0  0  0  0  0  0  0  0  0  0  0
  163.9050  211.9470  156.1360 O   0  0  0  0  0  0  0  0  0  0  0  0
  165.1260  212.2400  156.7980 C   0  0  0  0  0  2  0  0  0  0  0  0
  166.2290  212.4090  155.7760 C   0  0  0  0  0  1  0  0  0  0  0  0
  160.4910  201.3540  148.9770 C   0  0  0  0  0  2  0  0  0  0  0  0
  159.8740  201.6600  147.6190 C   0  0  0  0  0  2  0  0  0  0  0  0
  160.8920  201.4440  146.5110 C   0  0  0  0  0  2  0  0  0  0  0  0
  160.3070  201.7930  145.1500 C   0  0  0  0  0  2  0  0  0  0  0  0
  160.4110  203.2880  144.8950 C   0  0  0  0  0  2  0  0  0  0  0  0
  161.7990  203.7890  145.2640 C   0  0  0  0  0  2  0  0  0  0  0  0
  160.5130  205.9020  144.9430 C   0  0  0  0  0  1  0  0  0  0  0  0
  161.8070  205.2970  145.4530 C   0  0  0  0  0  2  0  0  0  0  0  0
  1  6  1  1  0  0  0
  1  4  1  0  0  0  0
  1  8  1  0  0  0  0
  2  9  1  0  0  0  0
  2  7  2  0  0  0  0
  3 20  1  0  0  0  0
  4 29  1  6  0  0  0
  4  5  1  0  0  0  0
  5  9  1  0  0  0  0
  7  3  2  0  0  0  0
  8 11  1  6  0  0  0
  8  2  1  0  0  0  0
 10 13  1  0  0  0  0
 11 14  1  0  0  0  0
 12 10  1  0  0  0  0
 13 14  2  0  0  0  0
 15 16  1  0  0  0  0
 15 10  2  0  0  0  0
 16 11  2  0  0  0  0
 17 22  1  1  0  0  0
 17 20  1  0  0  0  0
 17 19  1  0  0  0  0
 19 23  1  0  0  0  0
 19 18  2  0  0  0  0
 20 21  2  0  0  0  0
 21 18  1  0  0  0  0
 23 24  1  0  0  0  0
 24 25  2  0  0  0  0
 26 24  1  0  0  0  0
 26 27  1  0  0  0  0
 28 27  1  0  0  0  0
 30 29  1  0  0  0  0
 31 30  1  0  0  0  0
 32 31  1  0  0  0  0
 33 32  1  0  0  0  0
 33 34  1  0  0  0  0
 34 36  1  0  0  0  0
 35 36  1  0  0  0  0
M  END
>  <MODEL>
9

>  <REMARK>
 VINA RESULT:      -3.8      2.838      5.205
  Name = 
  12 active torsions:
  status: ('A' for Active; 'I' for Inactive)
    1  A    between atoms: O_3  and  C_7
    2  A    between atoms: O_3  and  C_30
    3  A    between atoms: C_4  and  C_33
    4  A    between atoms: C_6  and  C_11
    5  A    between atoms: C_6  and  C_26
    6  A    between atoms: C_9  and  C_23
    7  A    between atoms: C_10  and  C_15
    8  A    between atoms: C_10  and  C_20
    9  A    between atoms: C_11  and  C_17
   10  A    between atoms: C_15  and  C_25
   11  A    between atoms: N_19  and  C_21
   12  A    between atoms: C_20  and  C_26
                            x       y       z     vdW  Elec       q    Type
                         _______ _______ _______ _____ _____    ______ ____

>  <TORSDO>
F 12

$$$$
