=
 OpenBabel11052412143D

 41 44  0  0  1  0  0  0  0  0999 V2000
  161.0070  210.8770  151.8550 N   0  0  0  0  0  0  0  0  0  0  0  0
  161.5700  210.1870  150.6600 C   0  0  2  0  0  3  0  0  0  0  0  0
  162.1790  209.9530  151.8730 C   0  0  2  0  0  3  0  0  0  0  0  0
  160.0380  211.7330  152.4560 C   0  0  0  0  0  0  0  0  0  0  0  0
  159.9160  211.3300  157.2610 N   0  0  0  0  0  2  0  0  0  0  0  0
  158.6060  212.4330  155.6020 N   0  0  0  0  0  0  0  0  0  0  0  0
  158.2910  213.3700  152.0790 C   0  0  0  0  0  3  0  0  0  0  0  0
  157.9720  213.3840  153.4820 N   0  0  0  0  0  2  0  0  0  0  0  0
  160.3960  210.9930  154.8920 C   0  0  0  0  0  0  0  0  0  0  0  0
  159.2460  212.6030  151.6160 N   0  0  0  0  0  0  0  0  0  0  0  0
  159.7970  211.7170  153.7730 C   0  0  0  0  0  0  0  0  0  0  0  0
  159.5920  211.4860  156.0190 C   0  0  0  0  0  0  0  0  0  0  0  0
  158.7440  212.5330  154.3220 C   0  0  0  0  0  0  0  0  0  0  0  0
  161.9870  210.6230  155.0170 S   0  0  0  0  0  0  0  0  0  0  0  0
  161.2710  212.9410  145.9740 N   0  0  0  0  0  2  0  0  0  0  0  0
  163.3510  213.9670  146.1650 O   0  0  0  0  0  0  0  0  0  0  0  0
  161.9290  211.6460  148.6260 C   0  0  0  0  0  0  0  0  0  0  0  0
  160.7920  211.2750  148.1280 N   0  0  0  0  0  2  0  0  0  0  0  0
  162.4980  213.1870  146.6650 C   0  0  0  0  0  0  0  0  0  0  0  0
  162.3610  211.1340  149.8880 N   0  0  0  0  0  2  0  0  0  0  0  0
  162.7770  212.5640  147.9240 N   0  0  0  0  0  2  0  0  0  0  0  0
  160.9910  213.5400  144.7910 O   0  0  0  0  0  0  0  0  0  0  0  0
  160.9880  212.5040  143.8520 C   0  0  0  0  0  2  0  0  0  0  0  0
  162.2480  212.5610  143.0060 C   0  0  0  0  0  2  0  0  0  0  0  0
  161.9880  211.9670  141.6320 C   0  0  0  0  0  2  0  0  0  0  0  0
  160.5550  211.4740  141.5310 C   0  0  0  0  0  2  0  0  0  0  0  0
  159.8360  212.1700  140.3900 C   0  0  0  0  0  1  0  0  0  0  0  0
  161.7410  208.6090  152.4260 C   0  0  0  0  0  2  0  0  0  0  0  0
  162.1110  207.4940  151.4650 C   0  0  0  0  0  2  0  0  0  0  0  0
  161.0290  206.4300  151.4560 C   0  0  0  0  0  2  0  0  0  0  0  0
  160.5600  204.2280  150.4500 C   0  0  1  0  0  3  0  0  0  0  0  0
  160.9590  204.0020  151.8940 C   0  0  0  0  0  2  0  0  0  0  0  0
  161.6310  205.0920  151.0850 C   0  0  2  0  0  3  0  0  0  0  0  0
  161.2130  203.2020  149.5880 C   0  0  0  0  0  3  0  0  0  0  0  0
  161.3340  203.3630  148.2740 C   0  0  0  0  0  3  0  0  0  0  0  0
  160.8510  204.5040  147.6410 O   0  0  0  0  0  0  0  0  0  0  0  0
  163.1550  204.7540  146.3960 O   0  0  0  0  0  1  0  0  0  0  0  0
  161.9130  205.5290  146.7690 P   0  0  1  0  0  0  0  0  0  0  0  0
  161.1480  206.0710  145.3610 O   0  0  0  0  0  0  0  0  0  0  0  0
  162.3850  206.9530  147.7900 C   0  0  0  0  0  2  0  0  0  0  0  0
  161.2580  207.7220  148.0770 O   0  0  0  0  0  1  0  0  0  0  0  0
  1  3  1  0  0  0  0
  1  4  1  0  0  0  0
  2 20  1  6  0  0  0
  2  1  1  0  0  0  0
  2  3  1  0  0  0  0
  3 28  1  1  0  0  0
  4 11  2  0  0  0  0
  6 12  1  0  0  0  0
  7  8  1  0  0  0  0
  8 13  1  0  0  0  0
  9 14  2  0  0  0  0
  9 12  1  0  0  0  0
 10  7  2  0  0  0  0
 10  4  1  0  0  0  0
 11 13  1  0  0  0  0
 11  9  1  0  0  0  0
 12  5  2  0  0  0  0
 13  6  2  0  0  0  0
 15 19  1  0  0  0  0
 16 19  2  0  0  0  0
 17 20  1  0  0  0  0
 18 17  2  0  0  0  0
 19 21  1  0  0  0  0
 21 17  1  0  0  0  0
 22 15  1  0  0  0  0
 23 22  1  0  0  0  0
 24 23  1  0  0  0  0
 25 24  1  0  0  0  0
 26 25  1  0  0  0  0
 27 26  1  0  0  0  0
 29 28  1  0  0  0  0
 30 29  1  0  0  0  0
 31 34  1  6  0  0  0
 31 33  1  0  0  0  0
 31 32  1  0  0  0  0
 33 30  1  1  0  0  0
 33 32  1  0  0  0  0
 35 34  2  0  0  0  0
 36 35  1  0  0  0  0
 37 38  1  0  0  0  0
 38 39  2  6  0  0  0
 38 36  1  0  0  0  0
 38 40  1  0  0  0  0
 40 41  1  0  0  0  0
M  END
>  <MODEL>
1

>  <REMARK>
 VINA RESULT:      -7.1      0.000      0.000
  Name = 
  15 active torsions:
  status: ('A' for Active; 'I' for Inactive)
    1  A    between atoms: C_1  and  P_20
    2  A    between atoms: C_2  and  N_8
    3  A    between atoms: N_4  and  O_27
    4  A    between atoms: C_6  and  C_13
    5  A    between atoms: C_7  and  C_40
    6  A    between atoms: C_7  and  C_41
    7  A    between atoms: C_14  and  C_22
    8  A    between atoms: C_14  and  C_41
    9  A    between atoms: C_17  and  O_33
   10  A    between atoms: C_19  and  O_27
   11  A    between atoms: C_19  and  C_31
   12  A    between atoms: P_20  and  O_33
   13  A    between atoms: C_21  and  N_36
   14  A    between atoms: C_28  and  C_29
   15  A    between atoms: C_29  and  C_31
                            x       y       z     vdW  Elec       q    Type
                         _______ _______ _______ _____ _____    ______ ____

>  <TORSDO>
F 15

$$$$
=
 OpenBabel11052412143D

 41 44  0  0  1  0  0  0  0  0999 V2000
  161.6050  206.6390  148.8640 N   0  0  0  0  0  0  0  0  0  0  0  0
  161.0400  207.5560  149.8930 C   0  0  2  0  0  3  0  0  0  0  0  0
  162.3450  207.7650  149.5060 C   0  0  2  0  0  3  0  0  0  0  0  0
  161.4630  205.5480  147.9560 C   0  0  0  0  0  0  0  0  0  0  0  0
  160.7500  201.3370  150.1970 N   0  0  0  0  0  2  0  0  0  0  0  0
  161.1560  202.0350  147.9540 N   0  0  0  0  0  0  0  0  0  0  0  0
  161.4670  204.8480  145.6360 C   0  0  0  0  0  3  0  0  0  0  0  0
  161.3450  203.4700  146.0290 N   0  0  0  0  0  2  0  0  0  0  0  0
  161.2250  203.6800  149.7070 C   0  0  0  0  0  0  0  0  0  0  0  0
  161.5220  205.8000  146.5340 N   0  0  0  0  0  0  0  0  0  0  0  0
  161.3300  204.2850  148.3810 C   0  0  0  0  0  0  0  0  0  0  0  0
  161.1240  202.2530  149.3660 C   0  0  0  0  0  0  0  0  0  0  0  0
  161.2830  203.2060  147.4270 C   0  0  0  0  0  0  0  0  0  0  0  0
  160.4480  204.3560  150.9800 S   0  0  0  0  0  0  0  0  0  0  0  0
  160.4680  208.7540  155.1720 N   0  0  0  0  0  2  0  0  0  0  0  0
  160.7120  206.5720  155.9420 O   0  0  0  0  0  0  0  0  0  0  0  0
  160.8480  207.5740  152.4140 C   0  0  0  0  0  0  0  0  0  0  0  0
  160.7120  208.8620  152.4200 N   0  0  0  0  0  2  0  0  0  0  0  0
  160.6780  207.3560  154.9570 C   0  0  0  0  0  0  0  0  0  0  0  0
  161.0110  206.8760  151.1780 N   0  0  0  0  0  2  0  0  0  0  0  0
  160.8470  206.8270  153.6370 N   0  0  0  0  0  2  0  0  0  0  0  0
  160.2910  209.2610  156.4170 O   0  0  0  0  0  0  0  0  0  0  0  0
  159.6710  210.4990  156.2190 C   0  0  0  0  0  2  0  0  0  0  0  0
  160.5740  211.4110  155.4080 C   0  0  0  0  0  2  0  0  0  0  0  0
  159.7570  212.5040  154.7400 C   0  0  0  0  0  2  0  0  0  0  0  0
  159.7770  212.3330  153.2320 C   0  0  0  0  0  2  0  0  0  0  0  0
  158.5350  211.5960  152.7660 C   0  0  0  0  0  1  0  0  0  0  0  0
  162.4210  208.9260  148.5320 C   0  0  0  0  0  2  0  0  0  0  0  0
  162.0250  210.2210  149.2170 C   0  0  0  0  0  2  0  0  0  0  0  0
  162.3400  211.4050  148.3220 C   0  0  0  0  0  2  0  0  0  0  0  0
  161.0310  212.6050  146.6110 C   0  0  1  0  0  3  0  0  0  0  0  0
  161.4590  213.6130  147.6580 C   0  0  0  0  0  2  0  0  0  0  0  0
  161.0800  212.2070  148.0720 C   0  0  2  0  0  3  0  0  0  0  0  0
  159.6130  212.8610  146.2250 C   0  0  0  0  0  3  0  0  0  0  0  0
  159.1310  212.4950  145.0420 C   0  0  0  0  0  3  0  0  0  0  0  0
  159.9350  211.8560  144.1030 O   0  0  0  0  0  0  0  0  0  0  0  0
  160.9820  214.0880  143.1880 O   0  0  0  0  0  1  0  0  0  0  0  0
  160.5380  212.7130  142.7470 P   0  0  1  0  0  0  0  0  0  0  0  0
  161.8570  211.8830  142.0920 O   0  0  0  0  0  0  0  0  0  0  0  0
  159.2410  212.8820  141.4880 C   0  0  0  0  0  2  0  0  0  0  0  0
  158.3230  213.8520  141.8850 O   0  0  0  0  0  1  0  0  0  0  0  0
  1  3  1  0  0  0  0
  1  2  1  0  0  0  0
  2 20  1  1  0  0  0
  3 28  1  6  0  0  0
  3  2  1  0  0  0  0
  4 11  2  0  0  0  0
  4  1  1  0  0  0  0
  6 12  1  0  0  0  0
  7  8  1  0  0  0  0
  7 10  2  0  0  0  0
  8 13  1  0  0  0  0
  9 14  2  0  0  0  0
 10  4  1  0  0  0  0
 11  9  1  0  0  0  0
 12  9  1  0  0  0  0
 12  5  2  0  0  0  0
 13  6  2  0  0  0  0
 13 11  1  0  0  0  0
 15 22  1  0  0  0  0
 17 18  2  0  0  0  0
 17 21  1  0  0  0  0
 19 15  1  0  0  0  0
 19 16  2  0  0  0  0
 20 17  1  0  0  0  0
 21 19  1  0  0  0  0
 23 22  1  0  0  0  0
 24 23  1  0  0  0  0
 25 24  1  0  0  0  0
 26 25  1  0  0  0  0
 27 26  1  0  0  0  0
 28 29  1  0  0  0  0
 30 29  1  0  0  0  0
 31 34  1  1  0  0  0
 31 32  1  0  0  0  0
 31 33  1  0  0  0  0
 32 33  1  0  0  0  0
 33 30  1  6  0  0  0
 35 34  2  0  0  0  0
 36 35  1  0  0  0  0
 38 39  2  6  0  0  0
 38 37  1  0  0  0  0
 38 36  1  0  0  0  0
 40 41  1  0  0  0  0
 40 38  1  0  0  0  0
M  END
>  <MODEL>
2

>  <REMARK>
 VINA RESULT:      -7.1      4.179      9.537
  Name = 
  15 active torsions:
  status: ('A' for Active; 'I' for Inactive)
    1  A    between atoms: C_1  and  P_20
    2  A    between atoms: C_2  and  N_8
    3  A    between atoms: N_4  and  O_27
    4  A    between atoms: C_6  and  C_13
    5  A    between atoms: C_7  and  C_40
    6  A    between atoms: C_7  and  C_41
    7  A    between atoms: C_14  and  C_22
    8  A    between atoms: C_14  and  C_41
    9  A    between atoms: C_17  and  O_33
   10  A    between atoms: C_19  and  O_27
   11  A    between atoms: C_19  and  C_31
   12  A    between atoms: P_20  and  O_33
   13  A    between atoms: C_21  and  N_36
   14  A    between atoms: C_28  and  C_29
   15  A    between atoms: C_29  and  C_31
                            x       y       z     vdW  Elec       q    Type
                         _______ _______ _______ _____ _____    ______ ____

>  <TORSDO>
F 15

$$$$
=
 OpenBabel11052412143D

 41 44  0  0  1  0  0  0  0  0999 V2000
  161.4770  210.2450  152.3870 N   0  0  0  0  0  0  0  0  0  0  0  0
  161.1220  210.3810  150.9460 C   0  0  2  0  0  3  0  0  0  0  0  0
  161.9910  209.3690  151.2920 C   0  0  2  0  0  3  0  0  0  0  0  0
  161.3440  210.6570  153.7450 C   0  0  0  0  0  0  0  0  0  0  0  0
  157.9420  214.0230  154.3490 N   0  0  0  0  0  2  0  0  0  0  0  0
  159.6280  213.0290  155.7120 N   0  0  0  0  0  0  0  0  0  0  0  0
  162.1690  210.4140  156.0110 C   0  0  0  0  0  3  0  0  0  0  0  0
  161.3040  211.4710  156.4620 N   0  0  0  0  0  2  0  0  0  0  0  0
  159.5310  212.4440  153.3810 C   0  0  0  0  0  0  0  0  0  0  0  0
  162.1800  210.0470  154.7540 N   0  0  0  0  0  0  0  0  0  0  0  0
  160.5060  211.6360  154.1100 C   0  0  0  0  0  0  0  0  0  0  0  0
  159.0160  213.3110  154.4500 C   0  0  0  0  0  0  0  0  0  0  0  0
  160.4730  212.0820  155.4800 C   0  0  0  0  0  0  0  0  0  0  0  0
  158.6080  211.8980  152.1440 S   0  0  0  0  0  0  0  0  0  0  0  0
  161.6780  212.9270  146.1670 N   0  0  0  0  0  2  0  0  0  0  0  0
  163.2780  214.4530  146.8920 O   0  0  0  0  0  0  0  0  0  0  0  0
  161.7480  211.8650  148.9980 C   0  0  0  0  0  0  0  0  0  0  0  0
  160.9540  211.2120  148.2110 N   0  0  0  0  0  2  0  0  0  0  0  0
  162.5240  213.4850  147.1760 C   0  0  0  0  0  0  0  0  0  0  0  0
  161.8650  211.4920  150.3720 N   0  0  0  0  0  2  0  0  0  0  0  0
  162.5280  212.9640  148.5100 N   0  0  0  0  0  2  0  0  0  0  0  0
  161.6550  213.4250  144.9060 O   0  0  0  0  0  0  0  0  0  0  0  0
  160.7480  212.6170  144.2140 C   0  0  0  0  0  2  0  0  0  0  0  0
  161.1300  212.5420  142.7460 C   0  0  0  0  0  2  0  0  0  0  0  0
  160.3570  211.4300  142.0570 C   0  0  0  0  0  2  0  0  0  0  0  0
  161.1410  210.8970  140.8700 C   0  0  0  0  0  2  0  0  0  0  0  0
  162.4740  211.6120  140.7520 C   0  0  0  0  0  1  0  0  0  0  0  0
  161.2570  208.0420  151.3350 C   0  0  0  0  0  2  0  0  0  0  0  0
  162.2120  206.9190  151.6970 C   0  0  0  0  0  2  0  0  0  0  0  0
  161.4590  205.7930  152.3830 C   0  0  0  0  0  2  0  0  0  0  0  0
  160.5720  204.0730  150.8560 C   0  0  1  0  0  3  0  0  0  0  0  0
  160.8120  203.4190  152.2010 C   0  0  0  0  0  2  0  0  0  0  0  0
  161.7660  204.4800  151.6950 C   0  0  2  0  0  3  0  0  0  0  0  0
  161.0310  203.1600  149.7700 C   0  0  0  0  0  3  0  0  0  0  0  0
  161.1100  203.5580  148.5040 C   0  0  0  0  0  3  0  0  0  0  0  0
  160.7630  204.8540  148.1340 O   0  0  0  0  0  0  0  0  0  0  0  0
  162.2710  206.9590  147.6750 O   0  0  0  0  0  1  0  0  0  0  0  0
  161.7180  205.7210  147.0070 P   0  0  1  0  0  0  0  0  0  0  0  0
  162.9990  204.7500  146.4830 O   0  0  0  0  0  0  0  0  0  0  0  0
  160.7090  206.2150  145.5810 C   0  0  0  0  0  2  0  0  0  0  0  0
  160.5940  205.1470  144.6930 O   0  0  0  0  0  1  0  0  0  0  0  0
  1  4  1  0  0  0  0
  2 20  1  6  0  0  0
  2  3  1  0  0  0  0
  2  1  1  0  0  0  0
  3 28  1  1  0  0  0
  3  1  1  0  0  0  0
  4 11  2  0  0  0  0
  4 10  1  0  0  0  0
  5 12  2  0  0  0  0
  7  8  1  0  0  0  0
  9 11  1  0  0  0  0
  9 12  1  0  0  0  0
 10  7  2  0  0  0  0
 11 13  1  0  0  0  0
 12  6  1  0  0  0  0
 13  6  2  0  0  0  0
 13  8  1  0  0  0  0
 14  9  2  0  0  0  0
 15 19  1  0  0  0  0
 16 19  2  0  0  0  0
 17 20  1  0  0  0  0
 18 17  2  0  0  0  0
 19 21  1  0  0  0  0
 21 17  1  0  0  0  0
 22 15  1  0  0  0  0
 23 22  1  0  0  0  0
 24 23  1  0  0  0  0
 25 24  1  0  0  0  0
 26 25  1  0  0  0  0
 27 26  1  0  0  0  0
 28 29  1  0  0  0  0
 29 30  1  0  0  0  0
 31 34  1  6  0  0  0
 31 33  1  0  0  0  0
 31 32  1  0  0  0  0
 33 32  1  0  0  0  0
 33 30  1  1  0  0  0
 35 34  2  0  0  0  0
 36 35  1  0  0  0  0
 38 39  2  6  0  0  0
 38 37  1  0  0  0  0
 38 36  1  0  0  0  0
 40 38  1  0  0  0  0
 41 40  1  0  0  0  0
M  END
>  <MODEL>
3

>  <REMARK>
 VINA RESULT:      -7.0      1.349      2.293
  Name = 
  15 active torsions:
  status: ('A' for Active; 'I' for Inactive)
    1  A    between atoms: C_1  and  P_20
    2  A    between atoms: C_2  and  N_8
    3  A    between atoms: N_4  and  O_27
    4  A    between atoms: C_6  and  C_13
    5  A    between atoms: C_7  and  C_40
    6  A    between atoms: C_7  and  C_41
    7  A    between atoms: C_14  and  C_22
    8  A    between atoms: C_14  and  C_41
    9  A    between atoms: C_17  and  O_33
   10  A    between atoms: C_19  and  O_27
   11  A    between atoms: C_19  and  C_31
   12  A    between atoms: P_20  and  O_33
   13  A    between atoms: C_21  and  N_36
   14  A    between atoms: C_28  and  C_29
   15  A    between atoms: C_29  and  C_31
                            x       y       z     vdW  Elec       q    Type
                         _______ _______ _______ _____ _____    ______ ____

>  <TORSDO>
F 15

$$$$
=
 OpenBabel11052412143D

 41 44  0  0  1  0  0  0  0  0999 V2000
  161.4250  205.5560  150.5930 N   0  0  0  0  0  0  0  0  0  0  0  0
  162.2010  206.7770  150.9530 C   0  0  2  0  0  3  0  0  0  0  0  0
  160.8990  206.6980  151.3970 C   0  0  2  0  0  3  0  0  0  0  0  0
  161.3390  204.2740  149.9740 C   0  0  0  0  0  0  0  0  0  0  0  0
  161.5410  204.5070  145.1600 N   0  0  0  0  0  2  0  0  0  0  0  0
  161.1020  202.8090  146.7750 N   0  0  0  0  0  0  0  0  0  0  0  0
  161.0760  201.8890  150.3160 C   0  0  0  0  0  3  0  0  0  0  0  0
  161.0110  201.6720  148.8960 N   0  0  0  0  0  2  0  0  0  0  0  0
  161.4010  205.0720  147.5300 C   0  0  0  0  0  0  0  0  0  0  0  0
  161.2270  203.0960  150.8030 N   0  0  0  0  0  0  0  0  0  0  0  0
  161.3030  204.1300  148.6430 C   0  0  0  0  0  0  0  0  0  0  0  0
  161.2590  204.1730  146.3760 C   0  0  0  0  0  0  0  0  0  0  0  0
  161.1220  202.8220  148.0650 C   0  0  0  0  0  0  0  0  0  0  0  0
  162.3530  206.4050  147.5190 S   0  0  0  0  0  0  0  0  0  0  0  0
  161.4340  212.0230  149.7220 N   0  0  0  0  0  2  0  0  0  0  0  0
  161.8970  211.8080  147.4520 O   0  0  0  0  0  0  0  0  0  0  0  0
  161.9660  209.0500  149.8720 C   0  0  0  0  0  0  0  0  0  0  0  0
  161.6110  209.5780  151.0010 N   0  0  0  0  0  2  0  0  0  0  0  0
  161.7950  211.2490  148.5750 C   0  0  0  0  0  0  0  0  0  0  0  0
  162.2730  207.6570  149.7970 N   0  0  0  0  0  2  0  0  0  0  0  0
  162.0480  209.8430  148.6810 N   0  0  0  0  0  2  0  0  0  0  0  0
  161.2090  213.3570  149.6340 O   0  0  0  0  0  0  0  0  0  0  0  0
  159.8590  213.5200  149.9610 C   0  0  0  0  0  2  0  0  0  0  0  0
  159.0530  213.8260  148.7110 C   0  0  0  0  0  2  0  0  0  0  0  0
  157.6370  213.2930  148.8540 C   0  0  0  0  0  2  0  0  0  0  0  0
  156.9570  213.9130  150.0620 C   0  0  0  0  0  2  0  0  0  0  0  0
  155.4670  214.0570  149.8150 C   0  0  0  0  0  1  0  0  0  0  0  0
  160.8710  206.3000  152.8610 C   0  0  0  0  0  2  0  0  0  0  0  0
  161.2820  207.4700  153.7370 C   0  0  0  0  0  2  0  0  0  0  0  0
  160.4520  207.4890  155.0080 C   0  0  0  0  0  2  0  0  0  0  0  0
  159.5870  209.7220  155.5950 C   0  0  1  0  0  3  0  0  0  0  0  0
  160.8740  209.9130  154.8190 C   0  0  0  0  0  2  0  0  0  0  0  0
  160.7380  208.7560  155.7860 C   0  0  2  0  0  3  0  0  0  0  0  0
  159.5540  210.6710  156.7440 C   0  0  0  0  0  3  0  0  0  0  0  0
  158.9850  211.8690  156.6500 C   0  0  0  0  0  3  0  0  0  0  0  0
  158.3940  212.2940  155.4630 O   0  0  0  0  0  0  0  0  0  0  0  0
  156.3130  213.6280  156.3610 O   0  0  0  0  0  1  0  0  0  0  0  0
  156.7020  212.5490  155.3780 P   0  0  1  0  0  0  0  0  0  0  0  0
  156.2800  213.0370  153.8150 O   0  0  0  0  0  0  0  0  0  0  0  0
  155.8180  211.0190  155.7950 C   0  0  0  0  0  2  0  0  0  0  0  0
  155.2160  210.4960  154.6520 O   0  0  0  0  0  1  0  0  0  0  0  0
  1  2  1  0  0  0  0
  1  3  1  0  0  0  0
  2 20  1  6  0  0  0
  2  3  1  0  0  0  0
  3 28  1  1  0  0  0
  4  1  1  0  0  0  0
  4 10  1  0  0  0  0
  5 12  2  0  0  0  0
  6 13  2  0  0  0  0
  7 10  2  0  0  0  0
  8  7  1  0  0  0  0
  9 11  1  0  0  0  0
 11  4  2  0  0  0  0
 12  6  1  0  0  0  0
 12  9  1  0  0  0  0
 13 11  1  0  0  0  0
 13  8  1  0  0  0  0
 14  9  2  0  0  0  0
 16 19  2  0  0  0  0
 17 18  2  0  0  0  0
 19 21  1  0  0  0  0
 19 15  1  0  0  0  0
 20 17  1  0  0  0  0
 21 17  1  0  0  0  0
 22 15  1  0  0  0  0
 22 23  1  0  0  0  0
 24 25  1  0  0  0  0
 24 23  1  0  0  0  0
 25 26  1  0  0  0  0
 27 26  1  0  0  0  0
 28 29  1  0  0  0  0
 29 30  1  0  0  0  0
 31 33  1  0  0  0  0
 31 34  1  1  0  0  0
 32 31  1  0  0  0  0
 32 33  1  0  0  0  0
 33 30  1  6  0  0  0
 35 34  2  0  0  0  0
 36 35  1  0  0  0  0
 38 39  2  6  0  0  0
 38 36  1  0  0  0  0
 38 40  1  0  0  0  0
 38 37  1  0  0  0  0
 41 40  1  0  0  0  0
M  END
>  <MODEL>
4

>  <REMARK>
 VINA RESULT:      -7.0      5.115      8.793
  Name = 
  15 active torsions:
  status: ('A' for Active; 'I' for Inactive)
    1  A    between atoms: C_1  and  P_20
    2  A    between atoms: C_2  and  N_8
    3  A    between atoms: N_4  and  O_27
    4  A    between atoms: C_6  and  C_13
    5  A    between atoms: C_7  and  C_40
    6  A    between atoms: C_7  and  C_41
    7  A    between atoms: C_14  and  C_22
    8  A    between atoms: C_14  and  C_41
    9  A    between atoms: C_17  and  O_33
   10  A    between atoms: C_19  and  O_27
   11  A    between atoms: C_19  and  C_31
   12  A    between atoms: P_20  and  O_33
   13  A    between atoms: C_21  and  N_36
   14  A    between atoms: C_28  and  C_29
   15  A    between atoms: C_29  and  C_31
                            x       y       z     vdW  Elec       q    Type
                         _______ _______ _______ _____ _____    ______ ____

>  <TORSDO>
F 15

$$$$
=
 OpenBabel11052412143D

 41 44  0  0  1  0  0  0  0  0999 V2000
  161.0180  210.8860  151.7230 N   0  0  0  0  0  0  0  0  0  0  0  0
  161.5780  210.2850  150.4790 C   0  0  2  0  0  3  0  0  0  0  0  0
  162.2240  210.0080  151.6640 C   0  0  2  0  0  3  0  0  0  0  0  0
  160.0320  211.6690  152.3910 C   0  0  0  0  0  0  0  0  0  0  0  0
  160.1340  211.1060  157.1810 N   0  0  0  0  0  2  0  0  0  0  0  0
  158.7000  212.1900  155.6150 N   0  0  0  0  0  0  0  0  0  0  0  0
  158.1880  213.2230  152.1430 C   0  0  0  0  0  3  0  0  0  0  0  0
  157.9280  213.1730  153.5560 N   0  0  0  0  0  2  0  0  0  0  0  0
  160.5310  210.8710  154.7840 C   0  0  0  0  0  0  0  0  0  0  0  0
  159.1620  212.5230  151.6150 N   0  0  0  0  0  0  0  0  0  0  0  0
  159.8490  211.5980  153.7160 C   0  0  0  0  0  0  0  0  0  0  0  0
  159.7500  211.2840  155.9600 C   0  0  0  0  0  0  0  0  0  0  0  0
  158.7790  212.3390  154.3350 C   0  0  0  0  0  0  0  0  0  0  0  0
  162.1420  210.5820  154.8330 S   0  0  0  0  0  0  0  0  0  0  0  0
  161.2840  212.9650  145.7510 N   0  0  0  0  0  2  0  0  0  0  0  0
  163.2340  214.1990  146.0520 O   0  0  0  0  0  0  0  0  0  0  0  0
  161.9090  211.7600  148.4530 C   0  0  0  0  0  0  0  0  0  0  0  0
  160.8480  211.2720  147.8930 N   0  0  0  0  0  2  0  0  0  0  0  0
  162.4360  213.3390  146.5110 C   0  0  0  0  0  0  0  0  0  0  0  0
  162.3140  211.3020  149.7440 N   0  0  0  0  0  2  0  0  0  0  0  0
  162.7000  212.7550  147.7910 N   0  0  0  0  0  2  0  0  0  0  0  0
  161.0170  213.5260  144.5460 O   0  0  0  0  0  0  0  0  0  0  0  0
  159.6220  213.5790  144.4710 C   0  0  0  0  0  2  0  0  0  0  0  0
  159.0080  212.6510  145.5050 C   0  0  0  0  0  2  0  0  0  0  0  0
  157.8130  213.3180  146.1670 C   0  0  0  0  0  2  0  0  0  0  0  0
  157.2750  212.4470  147.2890 C   0  0  0  0  0  2  0  0  0  0  0  0
  157.0720  213.2710  148.5470 C   0  0  0  0  0  1  0  0  0  0  0  0
  161.8500  208.6200  152.1510 C   0  0  0  0  0  2  0  0  0  0  0  0
  162.2190  207.5770  151.1120 C   0  0  0  0  0  2  0  0  0  0  0  0
  161.0980  206.5640  150.9670 C   0  0  0  0  0  2  0  0  0  0  0  0
  160.6020  204.2500  150.2750 C   0  0  1  0  0  3  0  0  0  0  0  0
  160.9800  204.2240  151.7420 C   0  0  0  0  0  2  0  0  0  0  0  0
  161.6810  205.1770  150.7970 C   0  0  2  0  0  3  0  0  0  0  0  0
  161.2460  203.1010  149.5750 C   0  0  0  0  0  3  0  0  0  0  0  0
  161.2890  203.0220  148.2490 C   0  0  0  0  0  3  0  0  0  0  0  0
  160.7280  204.0140  147.4500 O   0  0  0  0  0  0  0  0  0  0  0  0
  163.1650  204.5960  146.6510 O   0  0  0  0  0  1  0  0  0  0  0  0
  161.7200  204.9870  146.4470 P   0  0  1  0  0  0  0  0  0  0  0  0
  161.2980  204.7450  144.8270 O   0  0  0  0  0  0  0  0  0  0  0  0
  161.5120  206.7390  146.8740 C   0  0  0  0  0  2  0  0  0  0  0  0
  162.5070  207.1260  147.7700 O   0  0  0  0  0  1  0  0  0  0  0  0
  1  4  1  0  0  0  0
  2 20  1  6  0  0  0
  2  3  1  0  0  0  0
  2  1  1  0  0  0  0
  3  1  1  0  0  0  0
  3 28  1  1  0  0  0
  4 11  2  0  0  0  0
  6 12  1  0  0  0  0
  7  8  1  0  0  0  0
  8 13  1  0  0  0  0
  9 14  2  0  0  0  0
  9 12  1  0  0  0  0
 10  7  2  0  0  0  0
 10  4  1  0  0  0  0
 11 13  1  0  0  0  0
 11  9  1  0  0  0  0
 12  5  2  0  0  0  0
 13  6  2  0  0  0  0
 15 19  1  0  0  0  0
 16 19  2  0  0  0  0
 17 20  1  0  0  0  0
 18 17  2  0  0  0  0
 19 21  1  0  0  0  0
 21 17  1  0  0  0  0
 22 15  1  0  0  0  0
 23 22  1  0  0  0  0
 23 24  1  0  0  0  0
 24 25  1  0  0  0  0
 25 26  1  0  0  0  0
 26 27  1  0  0  0  0
 29 28  1  0  0  0  0
 30 29  1  0  0  0  0
 31 34  1  6  0  0  0
 31 33  1  0  0  0  0
 31 32  1  0  0  0  0
 33 30  1  1  0  0  0
 33 32  1  0  0  0  0
 35 34  2  0  0  0  0
 36 35  1  0  0  0  0
 38 39  2  6  0  0  0
 38 37  1  0  0  0  0
 38 40  1  0  0  0  0
 38 36  1  0  0  0  0
 40 41  1  0  0  0  0
M  END
>  <MODEL>
5

>  <REMARK>
 VINA RESULT:      -6.7      1.331      2.145
  Name = 
  15 active torsions:
  status: ('A' for Active; 'I' for Inactive)
    1  A    between atoms: C_1  and  P_20
    2  A    between atoms: C_2  and  N_8
    3  A    between atoms: N_4  and  O_27
    4  A    between atoms: C_6  and  C_13
    5  A    between atoms: C_7  and  C_40
    6  A    between atoms: C_7  and  C_41
    7  A    between atoms: C_14  and  C_22
    8  A    between atoms: C_14  and  C_41
    9  A    between atoms: C_17  and  O_33
   10  A    between atoms: C_19  and  O_27
   11  A    between atoms: C_19  and  C_31
   12  A    between atoms: P_20  and  O_33
   13  A    between atoms: C_21  and  N_36
   14  A    between atoms: C_28  and  C_29
   15  A    between atoms: C_29  and  C_31
                            x       y       z     vdW  Elec       q    Type
                         _______ _______ _______ _____ _____    ______ ____

>  <TORSDO>
F 15

$$$$
=
 OpenBabel11052412143D

 41 44  0  0  1  0  0  0  0  0999 V2000
  161.3980  206.4640  150.8640 N   0  0  0  0  0  0  0  0  0  0  0  0
  160.8030  207.7160  151.4120 C   0  0  2  0  0  3  0  0  0  0  0  0
  162.0700  207.7970  150.8770 C   0  0  2  0  0  3  0  0  0  0  0  0
  161.3070  205.0750  150.5530 C   0  0  0  0  0  0  0  0  0  0  0  0
  161.5160  204.2050  145.8130 N   0  0  0  0  0  2  0  0  0  0  0  0
  161.0680  202.9210  147.7710 N   0  0  0  0  0  0  0  0  0  0  0  0
  161.0340  202.8320  151.4280 C   0  0  0  0  0  3  0  0  0  0  0  0
  160.9700  202.2960  150.0950 N   0  0  0  0  0  2  0  0  0  0  0  0
  161.3750  205.2960  147.9920 C   0  0  0  0  0  0  0  0  0  0  0  0
  161.1890  204.1170  151.6280 N   0  0  0  0  0  0  0  0  0  0  0  0
  161.2730  204.6320  149.2900 C   0  0  0  0  0  0  0  0  0  0  0  0
  161.2310  204.1580  147.0730 C   0  0  0  0  0  0  0  0  0  0  0  0
  161.0860  203.2280  149.0250 C   0  0  0  0  0  0  0  0  0  0  0  0
  162.3330  206.5870  147.6800 S   0  0  0  0  0  0  0  0  0  0  0  0
  160.6220  211.1760  155.6100 N   0  0  0  0  0  2  0  0  0  0  0  0
  160.9550  209.5700  157.2600 O   0  0  0  0  0  0  0  0  0  0  0  0
  160.8060  208.8720  153.6600 C   0  0  0  0  0  0  0  0  0  0  0  0
  160.6520  210.0270  153.0950 N   0  0  0  0  0  2  0  0  0  0  0  0
  160.8340  209.8270  156.0330 C   0  0  0  0  0  0  0  0  0  0  0  0
  160.8830  207.6880  152.8640 N   0  0  0  0  0  2  0  0  0  0  0  0
  160.9090  208.7560  155.0850 N   0  0  0  0  0  2  0  0  0  0  0  0
  160.5330  212.1940  156.5010 O   0  0  0  0  0  0  0  0  0  0  0  0
  159.6690  213.1200  155.9100 C   0  0  0  0  0  2  0  0  0  0  0  0
  158.2320  212.8120  156.2920 C   0  0  0  0  0  2  0  0  0  0  0  0
  157.3780  212.6530  155.0460 C   0  0  0  0  0  2  0  0  0  0  0  0
  157.0930  211.1840  154.7830 C   0  0  0  0  0  2  0  0  0  0  0  0
  155.7510  210.7920  155.3720 C   0  0  0  0  0  1  0  0  0  0  0  0
  162.0120  208.3950  149.4840 C   0  0  0  0  0  2  0  0  0  0  0  0
  161.6440  209.8660  149.5540 C   0  0  0  0  0  2  0  0  0  0  0  0
  162.2910  210.6220  148.4060 C   0  0  0  0  0  2  0  0  0  0  0  0
  161.9120  212.6930  147.1240 C   0  0  1  0  0  3  0  0  0  0  0  0
  163.1300  212.9060  147.9990 C   0  0  0  0  0  2  0  0  0  0  0  0
  161.9610  212.0950  148.5150 C   0  0  2  0  0  3  0  0  0  0  0  0
  161.0610  213.9170  147.1510 C   0  0  0  0  0  3  0  0  0  0  0  0
  160.5570  214.4460  146.0400 C   0  0  0  0  0  3  0  0  0  0  0  0
  160.8070  213.8790  144.7940 O   0  0  0  0  0  0  0  0  0  0  0  0
  158.7800  212.2110  144.9570 O   0  0  0  0  0  1  0  0  0  0  0  0
  159.5740  213.0270  143.9640 P   0  0  1  0  0  0  0  0  0  0  0  0
  158.5450  214.1270  143.1940 O   0  0  0  0  0  0  0  0  0  0  0  0
  160.3050  211.9140  142.7300 C   0  0  0  0  0  2  0  0  0  0  0  0
  161.1440  212.6360  141.8830 O   0  0  0  0  0  1  0  0  0  0  0  0
  1  3  1  0  0  0  0
  1  2  1  0  0  0  0
  2 20  1  1  0  0  0
  3 28  1  6  0  0  0
  3  2  1  0  0  0  0
  4  1  1  0  0  0  0
  4 10  1  0  0  0  0
  5 12  2  0  0  0  0
  6 13  2  0  0  0  0
  7 10  2  0  0  0  0
  8  7  1  0  0  0  0
  9 11  1  0  0  0  0
 11  4  2  0  0  0  0
 12  6  1  0  0  0  0
 12  9  1  0  0  0  0
 13 11  1  0  0  0  0
 13  8  1  0  0  0  0
 14  9  2  0  0  0  0
 15 19  1  0  0  0  0
 15 22  1  0  0  0  0
 17 21  1  0  0  0  0
 18 17  2  0  0  0  0
 19 16  2  0  0  0  0
 20 17  1  0  0  0  0
 21 19  1  0  0  0  0
 23 24  1  0  0  0  0
 23 22  1  0  0  0  0
 25 24  1  0  0  0  0
 26 25  1  0  0  0  0
 26 27  1  0  0  0  0
 28 29  1  0  0  0  0
 30 29  1  0  0  0  0
 31 34  1  1  0  0  0
 31 32  1  0  0  0  0
 31 33  1  0  0  0  0
 32 33  1  0  0  0  0
 33 30  1  6  0  0  0
 35 34  2  0  0  0  0
 36 35  1  0  0  0  0
 38 39  2  6  0  0  0
 38 36  1  0  0  0  0
 38 37  1  0  0  0  0
 40 38  1  0  0  0  0
 41 40  1  0  0  0  0
M  END
>  <MODEL>
6

>  <REMARK>
 VINA RESULT:      -6.5      4.154      9.660
  Name = 
  15 active torsions:
  status: ('A' for Active; 'I' for Inactive)
    1  A    between atoms: C_1  and  P_20
    2  A    between atoms: C_2  and  N_8
    3  A    between atoms: N_4  and  O_27
    4  A    between atoms: C_6  and  C_13
    5  A    between atoms: C_7  and  C_40
    6  A    between atoms: C_7  and  C_41
    7  A    between atoms: C_14  and  C_22
    8  A    between atoms: C_14  and  C_41
    9  A    between atoms: C_17  and  O_33
   10  A    between atoms: C_19  and  O_27
   11  A    between atoms: C_19  and  C_31
   12  A    between atoms: P_20  and  O_33
   13  A    between atoms: C_21  and  N_36
   14  A    between atoms: C_28  and  C_29
   15  A    between atoms: C_29  and  C_31
                            x       y       z     vdW  Elec       q    Type
                         _______ _______ _______ _____ _____    ______ ____

>  <TORSDO>
F 15

$$$$
=
 OpenBabel11052412143D

 41 44  0  0  1  0  0  0  0  0999 V2000
  161.9070  206.9650  149.1290 N   0  0  0  0  0  0  0  0  0  0  0  0
  162.3200  208.2650  149.7300 C   0  0  2  0  0  3  0  0  0  0  0  0
  161.6510  207.3750  150.5420 C   0  0  2  0  0  3  0  0  0  0  0  0
  161.8660  206.0610  148.0270 C   0  0  0  0  0  0  0  0  0  0  0  0
  160.2560  201.6850  149.2630 N   0  0  0  0  0  2  0  0  0  0  0  0
  161.2230  202.6670  147.3170 N   0  0  0  0  0  0  0  0  0  0  0  0
  162.3240  205.7420  145.6690 C   0  0  0  0  0  3  0  0  0  0  0  0
  161.9810  204.3490  145.7690 N   0  0  0  0  0  2  0  0  0  0  0  0
  161.0570  203.9900  149.3190 C   0  0  0  0  0  0  0  0  0  0  0  0
  162.2680  206.5230  146.7180 N   0  0  0  0  0  0  0  0  0  0  0  0
  161.5180  204.7760  148.1770 C   0  0  0  0  0  0  0  0  0  0  0  0
  160.8960  202.6620  148.7090 C   0  0  0  0  0  0  0  0  0  0  0  0
  161.5810  203.8780  147.0510 C   0  0  0  0  0  0  0  0  0  0  0  0
  160.0850  204.5560  150.5080 S   0  0  0  0  0  0  0  0  0  0  0  0
  162.4570  212.9530  146.9680 N   0  0  0  0  0  2  0  0  0  0  0  0
  160.1880  213.4230  147.1790 O   0  0  0  0  0  0  0  0  0  0  0  0
  161.8470  210.4550  148.5600 C   0  0  0  0  0  0  0  0  0  0  0  0
  163.1000  210.5950  148.2610 N   0  0  0  0  0  2  0  0  0  0  0  0
  161.1410  212.6400  147.4310 C   0  0  0  0  0  0  0  0  0  0  0  0
  161.4070  209.3080  149.2890 N   0  0  0  0  0  2  0  0  0  0  0  0
  160.8840  211.4440  148.1760 N   0  0  0  0  0  2  0  0  0  0  0  0
  162.7070  214.0740  146.2480 O   0  0  0  0  0  0  0  0  0  0  0  0
  163.0250  213.6180  144.9650 C   0  0  0  0  0  2  0  0  0  0  0  0
  161.8710  213.8850  144.0150 C   0  0  0  0  0  2  0  0  0  0  0  0
  161.2240  212.5780  143.5900 C   0  0  0  0  0  2  0  0  0  0  0  0
  160.9220  212.5950  142.1020 C   0  0  0  0  0  2  0  0  0  0  0  0
  161.9830  211.8260  141.3370 C   0  0  0  0  0  1  0  0  0  0  0  0
  162.6330  206.6580  151.4500 C   0  0  0  0  0  2  0  0  0  0  0  0
  162.0210  206.4330  152.8200 C   0  0  0  0  0  2  0  0  0  0  0  0
  160.8630  207.3910  153.0390 C   0  0  0  0  0  2  0  0  0  0  0  0
  160.1720  209.4700  154.1710 C   0  0  1  0  0  3  0  0  0  0  0  0
  161.5280  209.7130  153.5420 C   0  0  0  0  0  2  0  0  0  0  0  0
  161.2060  208.3630  154.1470 C   0  0  2  0  0  3  0  0  0  0  0  0
  160.1390  210.0750  155.5330 C   0  0  0  0  0  3  0  0  0  0  0  0
  159.1040  210.7930  155.9570 C   0  0  0  0  0  3  0  0  0  0  0  0
  157.9990  211.0160  155.1410 O   0  0  0  0  0  0  0  0  0  0  0  0
  155.5600  211.0810  156.1240 O   0  0  0  0  0  0  0  0  0  0  0  0
  156.6930  211.9810  155.6900 P   0  0  1  0  0  0  0  0  0  0  0  0
  157.1960  212.9210  157.0030 O   0  0  0  0  0  1  0  0  0  0  0  0
  156.1130  213.0650  154.3540 C   0  0  0  0  0  2  0  0  0  0  0  0
  157.1090  213.1950  153.3870 O   0  0  0  0  0  1  0  0  0  0  0  0
  1  2  1  0  0  0  0
  1  3  1  0  0  0  0
  2 20  1  6  0  0  0
  2  3  1  0  0  0  0
  3 28  1  1  0  0  0
  4 11  2  0  0  0  0
  4  1  1  0  0  0  0
  6 12  1  0  0  0  0
  7  8  1  0  0  0  0
  7 10  2  0  0  0  0
  8 13  1  0  0  0  0
  9 14  2  0  0  0  0
 10  4  1  0  0  0  0
 11  9  1  0  0  0  0
 12  5  2  0  0  0  0
 12  9  1  0  0  0  0
 13  6  2  0  0  0  0
 13 11  1  0  0  0  0
 15 19  1  0  0  0  0
 16 19  2  0  0  0  0
 17 20  1  0  0  0  0
 18 17  2  0  0  0  0
 19 21  1  0  0  0  0
 21 17  1  0  0  0  0
 22 15  1  0  0  0  0
 23 22  1  0  0  0  0
 24 23  1  0  0  0  0
 25 24  1  0  0  0  0
 26 25  1  0  0  0  0
 27 26  1  0  0  0  0
 28 29  1  0  0  0  0
 29 30  1  0  0  0  0
 31 34  1  1  0  0  0
 32 33  1  0  0  0  0
 32 31  1  0  0  0  0
 33 30  1  6  0  0  0
 33 31  1  0  0  0  0
 34 35  2  0  0  0  0
 36 38  1  0  0  0  0
 36 35  1  0  0  0  0
 38 37  2  1  0  0  0
 38 39  1  0  0  0  0
 40 38  1  0  0  0  0
 41 40  1  0  0  0  0
M  END
>  <MODEL>
7

>  <REMARK>
 VINA RESULT:      -6.4      4.748      7.761
  Name = 
  15 active torsions:
  status: ('A' for Active; 'I' for Inactive)
    1  A    between atoms: C_1  and  P_20
    2  A    between atoms: C_2  and  N_8
    3  A    between atoms: N_4  and  O_27
    4  A    between atoms: C_6  and  C_13
    5  A    between atoms: C_7  and  C_40
    6  A    between atoms: C_7  and  C_41
    7  A    between atoms: C_14  and  C_22
    8  A    between atoms: C_14  and  C_41
    9  A    between atoms: C_17  and  O_33
   10  A    between atoms: C_19  and  O_27
   11  A    between atoms: C_19  and  C_31
   12  A    between atoms: P_20  and  O_33
   13  A    between atoms: C_21  and  N_36
   14  A    between atoms: C_28  and  C_29
   15  A    between atoms: C_29  and  C_31
                            x       y       z     vdW  Elec       q    Type
                         _______ _______ _______ _____ _____    ______ ____

>  <TORSDO>
F 15

$$$$
=
 OpenBabel11052412143D

 41 44  0  0  1  0  0  0  0  0999 V2000
  161.5470  208.3630  151.7400 N   0  0  0  0  0  0  0  0  0  0  0  0
  161.4000  208.8620  150.3430 C   0  0  2  0  0  3  0  0  0  0  0  0
  162.4250  207.9780  150.5950 C   0  0  2  0  0  3  0  0  0  0  0  0
  161.1070  208.3080  153.0940 C   0  0  0  0  0  0  0  0  0  0  0  0
  160.0690  212.6590  154.8970 N   0  0  0  0  0  2  0  0  0  0  0  0
  160.2540  210.4470  155.7660 N   0  0  0  0  0  0  0  0  0  0  0  0
  160.6680  206.8910  155.0110 C   0  0  0  0  0  3  0  0  0  0  0  0
  160.3880  208.0430  155.8250 N   0  0  0  0  0  2  0  0  0  0  0  0
  160.8310  210.8370  153.4640 C   0  0  0  0  0  0  0  0  0  0  0  0
  161.0010  207.0250  153.7510 N   0  0  0  0  0  0  0  0  0  0  0  0
  160.8400  209.4150  153.7990 C   0  0  0  0  0  0  0  0  0  0  0  0
  160.4600  211.4360  154.7540 C   0  0  0  0  0  0  0  0  0  0  0  0
  160.4870  209.3140  155.1920 C   0  0  0  0  0  0  0  0  0  0  0  0
  160.3620  211.4510  152.0200 S   0  0  0  0  0  0  0  0  0  0  0  0
  162.0740  212.7930  146.6390 N   0  0  0  0  0  2  0  0  0  0  0  0
  163.1050  214.3040  148.0770 O   0  0  0  0  0  0  0  0  0  0  0  0
  161.9450  210.9580  149.0390 C   0  0  0  0  0  0  0  0  0  0  0  0
  161.4760  210.4340  147.9510 N   0  0  0  0  0  2  0  0  0  0  0  0
  162.5790  213.1700  147.9220 C   0  0  0  0  0  0  0  0  0  0  0  0
  161.9260  210.2150  150.2590 N   0  0  0  0  0  2  0  0  0  0  0  0
  162.4960  212.2800  149.0410 N   0  0  0  0  0  2  0  0  0  0  0  0
  162.1330  213.6350  145.5780 O   0  0  0  0  0  0  0  0  0  0  0  0
  160.8210  213.7100  145.1010 C   0  0  0  0  0  2  0  0  0  0  0  0
  160.5790  212.6260  144.0650 C   0  0  0  0  0  2  0  0  0  0  0  0
  159.6100  213.1190  143.0030 C   0  0  0  0  0  2  0  0  0  0  0  0
  159.8510  212.3970  141.6890 C   0  0  0  0  0  2  0  0  0  0  0  0
  161.0480  211.4720  141.8050 C   0  0  0  0  0  1  0  0  0  0  0  0
  162.0440  206.5860  150.1250 C   0  0  0  0  0  2  0  0  0  0  0  0
  161.1330  206.6680  148.9130 C   0  0  0  0  0  2  0  0  0  0  0  0
  161.9600  206.7640  147.6430 C   0  0  0  0  0  2  0  0  0  0  0  0
  162.3950  204.6850  146.3920 C   0  0  1  0  0  3  0  0  0  0  0  0
  162.3190  205.8200  145.3910 C   0  0  0  0  0  2  0  0  0  0  0  0
  161.4080  205.8150  146.6010 C   0  0  2  0  0  3  0  0  0  0  0  0
  161.6680  203.4990  145.8540 C   0  0  0  0  0  3  0  0  0  0  0  0
  160.9730  202.6850  146.6420 C   0  0  0  0  0  3  0  0  0  0  0  0
  160.8950  202.9040  148.0140 O   0  0  0  0  0  0  0  0  0  0  0  0
  159.0840  201.2950  149.0380 O   0  0  0  0  0  1  0  0  0  0  0  0
  160.5620  201.6070  149.0840 P   0  0  1  0  0  0  0  0  0  0  0  0
  161.4370  200.2400  148.6080 O   0  0  0  0  0  0  0  0  0  0  0  0
  161.0220  202.0620  150.7800 C   0  0  0  0  0  2  0  0  0  0  0  0
  160.9340  203.4440  150.9370 O   0  0  0  0  0  1  0  0  0  0  0  0
  1  4  1  0  0  0  0
  2 20  1  1  0  0  0
  2  3  1  0  0  0  0
  2  1  1  0  0  0  0
  3 28  1  6  0  0  0
  3  1  1  0  0  0  0
  4 10  1  0  0  0  0
  4 11  2  0  0  0  0
  7  8  1  0  0  0  0
  9 11  1  0  0  0  0
  9 12  1  0  0  0  0
 10  7  2  0  0  0  0
 11 13  1  0  0  0  0
 12  5  2  0  0  0  0
 12  6  1  0  0  0  0
 13  6  2  0  0  0  0
 13  8  1  0  0  0  0
 14  9  2  0  0  0  0
 15 19  1  0  0  0  0
 17 21  1  0  0  0  0
 17 20  1  0  0  0  0
 18 17  2  0  0  0  0
 19 16  2  0  0  0  0
 19 21  1  0  0  0  0
 22 15  1  0  0  0  0
 23 22  1  0  0  0  0
 24 23  1  0  0  0  0
 25 24  1  0  0  0  0
 26 27  1  0  0  0  0
 26 25  1  0  0  0  0
 29 28  1  0  0  0  0
 30 29  1  0  0  0  0
 31 34  1  6  0  0  0
 31 33  1  0  0  0  0
 32 31  1  0  0  0  0
 32 33  1  0  0  0  0
 33 30  1  1  0  0  0
 34 35  2  0  0  0  0
 35 36  1  0  0  0  0
 36 38  1  0  0  0  0
 37 38  1  0  0  0  0
 38 39  2  6  0  0  0
 38 40  1  0  0  0  0
 40 41  1  0  0  0  0
M  END
>  <MODEL>
8

>  <REMARK>
 VINA RESULT:      -6.4      2.248      3.674
  Name = 
  15 active torsions:
  status: ('A' for Active; 'I' for Inactive)
    1  A    between atoms: C_1  and  P_20
    2  A    between atoms: C_2  and  N_8
    3  A    between atoms: N_4  and  O_27
    4  A    between atoms: C_6  and  C_13
    5  A    between atoms: C_7  and  C_40
    6  A    between atoms: C_7  and  C_41
    7  A    between atoms: C_14  and  C_22
    8  A    between atoms: C_14  and  C_41
    9  A    between atoms: C_17  and  O_33
   10  A    between atoms: C_19  and  O_27
   11  A    between atoms: C_19  and  C_31
   12  A    between atoms: P_20  and  O_33
   13  A    between atoms: C_21  and  N_36
   14  A    between atoms: C_28  and  C_29
   15  A    between atoms: C_29  and  C_31
                            x       y       z     vdW  Elec       q    Type
                         _______ _______ _______ _____ _____    ______ ____

>  <TORSDO>
F 15

$$$$
=
 OpenBabel11052412143D

 41 44  0  0  1  0  0  0  0  0999 V2000
  161.3530  212.2550  147.9340 N   0  0  0  0  0  0  0  0  0  0  0  0
  161.5930  212.2330  149.4050 C   0  0  2  0  0  3  0  0  0  0  0  0
  161.1710  211.0620  148.8130 C   0  0  2  0  0  3  0  0  0  0  0  0
  161.3610  212.9380  146.6820 C   0  0  0  0  0  0  0  0  0  0  0  0
  156.9310  214.0790  145.1520 N   0  0  0  0  0  2  0  0  0  0  0  0
  159.1320  214.1620  144.2390 N   0  0  0  0  0  0  0  0  0  0  0  0
  162.7170  213.7870  144.8620 C   0  0  0  0  0  3  0  0  0  0  0  0
  161.5380  214.1550  144.1270 N   0  0  0  0  0  2  0  0  0  0  0  0
  158.8140  213.1560  146.4000 C   0  0  0  0  0  0  0  0  0  0  0  0
  162.6240  213.2240  146.0410 N   0  0  0  0  0  0  0  0  0  0  0  0
  160.2290  213.2760  146.0520 C   0  0  0  0  0  0  0  0  0  0  0  0
  158.1740  213.7280  145.2070 C   0  0  0  0  0  0  0  0  0  0  0  0
  160.2850  213.8820  144.7460 C   0  0  0  0  0  0  0  0  0  0  0  0
  158.2100  213.3240  147.9120 S   0  0  0  0  0  0  0  0  0  0  0  0
  158.9020  211.8910  154.1250 N   0  0  0  0  0  2  0  0  0  0  0  0
  157.3520  213.5580  153.6390 O   0  0  0  0  0  0  0  0  0  0  0  0
  160.0330  212.4710  151.3800 C   0  0  0  0  0  0  0  0  0  0  0  0
  160.6350  211.5080  152.0040 N   0  0  0  0  0  2  0  0  0  0  0  0
  158.3500  212.8880  153.2610 C   0  0  0  0  0  0  0  0  0  0  0  0
  160.4750  212.8720  150.0820 N   0  0  0  0  0  2  0  0  0  0  0  0
  158.9140  213.1440  151.9690 N   0  0  0  0  0  2  0  0  0  0  0  0
  158.3860  211.6540  155.3550 O   0  0  0  0  0  0  0  0  0  0  0  0
  159.4940  211.5640  156.2030 C   0  0  0  0  0  2  0  0  0  0  0  0
  159.7270  210.1190  156.6060 C   0  0  0  0  0  2  0  0  0  0  0  0
  161.0440  209.6180  156.0370 C   0  0  0  0  0  2  0  0  0  0  0  0
  160.7970  208.7360  154.8270 C   0  0  0  0  0  2  0  0  0  0  0  0
  160.4580  207.3220  155.2620 C   0  0  0  0  0  1  0  0  0  0  0  0
  162.3460  210.1210  148.6210 C   0  0  0  0  0  2  0  0  0  0  0  0
  161.9550  208.7030  148.9920 C   0  0  0  0  0  2  0  0  0  0  0  0
  161.9730  208.5320  150.5000 C   0  0  0  0  0  2  0  0  0  0  0  0
  160.8290  206.3640  150.2340 C   0  0  1  0  0  3  0  0  0  0  0  0
  160.8330  206.7070  151.7090 C   0  0  0  0  0  2  0  0  0  0  0  0
  162.0270  207.0600  150.8480 C   0  0  2  0  0  3  0  0  0  0  0  0
  161.1450  204.9170  150.0600 C   0  0  0  0  0  3  0  0  0  0  0  0
  161.3210  204.3770  148.8580 C   0  0  0  0  0  3  0  0  0  0  0  0
  161.2140  205.1430  147.7010 O   0  0  0  0  0  0  0  0  0  0  0  0
  163.0390  204.7170  145.8570 O   0  0  0  0  0  0  0  0  0  0  0  0
  161.5840  204.4650  146.1720 P   0  0  1  0  0  0  0  0  0  0  0  0
  161.3000  202.7980  146.2080 O   0  0  0  0  0  1  0  0  0  0  0  0
  160.5550  205.2270  144.8850 C   0  0  0  0  0  2  0  0  0  0  0  0
  160.3630  206.5770  145.1740 O   0  0  0  0  0  1  0  0  0  0  0  0
  1  3  1  0  0  0  0
  1  2  1  0  0  0  0
  2 20  1  1  0  0  0
  3 28  1  6  0  0  0
  3  2  1  0  0  0  0
  4  1  1  0  0  0  0
  5 12  2  0  0  0  0
  6 13  2  0  0  0  0
  6 12  1  0  0  0  0
  7 10  2  0  0  0  0
  8 13  1  0  0  0  0
  8  7  1  0  0  0  0
  9 14  2  0  0  0  0
 10  4  1  0  0  0  0
 11  9  1  0  0  0  0
 11  4  2  0  0  0  0
 12  9  1  0  0  0  0
 13 11  1  0  0  0  0
 15 22  1  0  0  0  0
 17 21  1  0  0  0  0
 17 18  2  0  0  0  0
 19 16  2  0  0  0  0
 19 15  1  0  0  0  0
 20 17  1  0  0  0  0
 21 19  1  0  0  0  0
 22 23  1  0  0  0  0
 23 24  1  0  0  0  0
 25 24  1  0  0  0  0
 26 27  1  0  0  0  0
 26 25  1  0  0  0  0
 28 29  1  0  0  0  0
 29 30  1  0  0  0  0
 31 34  1  1  0  0  0
 31 33  1  0  0  0  0
 31 32  1  0  0  0  0
 33 30  1  6  0  0  0
 33 32  1  0  0  0  0
 35 34  2  0  0  0  0
 36 35  1  0  0  0  0
 38 37  2  6  0  0  0
 38 39  1  0  0  0  0
 38 36  1  0  0  0  0
 40 41  1  0  0  0  0
 40 38  1  0  0  0  0
M  END
>  <MODEL>
9

>  <REMARK>
 VINA RESULT:      -6.4      3.028      7.834
  Name = 
  15 active torsions:
  status: ('A' for Active; 'I' for Inactive)
    1  A    between atoms: C_1  and  P_20
    2  A    between atoms: C_2  and  N_8
    3  A    between atoms: N_4  and  O_27
    4  A    between atoms: C_6  and  C_13
    5  A    between atoms: C_7  and  C_40
    6  A    between atoms: C_7  and  C_41
    7  A    between atoms: C_14  and  C_22
    8  A    between atoms: C_14  and  C_41
    9  A    between atoms: C_17  and  O_33
   10  A    between atoms: C_19  and  O_27
   11  A    between atoms: C_19  and  C_31
   12  A    between atoms: P_20  and  O_33
   13  A    between atoms: C_21  and  N_36
   14  A    between atoms: C_28  and  C_29
   15  A    between atoms: C_29  and  C_31
                            x       y       z     vdW  Elec       q    Type
                         _______ _______ _______ _____ _____    ______ ____

>  <TORSDO>
F 15

$$$$
