=
 OpenBabel11052411013D

 37 41  0  0  1  0  0  0  0  0999 V2000
  161.3130  205.0450  149.0220 C   0  0  0  0  0  0  0  0  0  0  0  0
  161.2180  205.4450  150.3640 C   0  0  0  0  0  0  0  0  0  0  0  0
  161.3250  203.6270  147.1150 N   0  0  0  0  0  0  0  0  0  0  0  0
  161.1440  206.5800  152.9270 C   0  0  0  0  0  0  0  0  0  0  0  0
  161.7740  207.5360  149.0420 S   0  0  0  0  0  0  0  0  0  0  0  0
  161.1630  203.7720  148.4610 C   0  0  0  0  0  0  0  0  0  0  0  0
  161.6180  206.1000  148.1790 C   0  0  0  0  0  0  0  0  0  0  0  0
  160.9170  205.2000  152.7380 C   0  0  0  0  0  3  0  0  0  0  0  0
  160.8470  202.6360  149.2610 N   0  0  0  0  0  1  0  0  0  0  0  0
  161.6350  204.6880  146.3120 C   0  0  0  0  0  0  0  0  0  0  0  0
  161.4140  207.4120  151.8130 C   0  0  0  0  0  0  0  0  0  0  0  0
  161.7860  205.9320  146.8470 N   0  0  0  0  0  2  0  0  0  0  0  0
  160.9480  204.6280  151.4610 C   0  0  0  0  0  3  0  0  0  0  0  0
  161.7890  204.5130  145.0770 O   0  0  0  0  0  0  0  0  0  0  0  0
  161.4470  206.8120  150.5420 C   0  0  0  0  0  0  0  0  0  0  0  0
  162.0980  209.5200  150.7820 N   0  0  0  0  0  2  0  0  0  0  0  0
  160.4690  211.1070  151.5410 C   0  0  1  0  0  3  0  0  0  0  0  0
  161.8550  210.9390  150.9590 C   0  0  0  0  0  2  0  0  0  0  0  0
  161.6680  208.8830  152.0160 C   0  0  1  0  0  3  0  0  0  0  0  0
  160.2070  209.7370  152.6900 S   0  0  0  0  0  0  0  0  0  0  0  0
  160.3890  212.3700  152.2540 N   0  0  0  0  0  2  0  0  0  0  0  0
  158.7690  214.4530  152.3750 O   0  0  0  0  0  0  0  0  0  0  0  0
  158.1000  212.6160  150.9060 O   0  0  0  0  0  0  0  0  0  0  0  0
  159.2720  213.4060  151.4220 S   0  0  0  0  0  0  0  0  0  0  0  0
  160.0940  214.2270  150.0450 C   0  0  0  0  0  2  0  0  0  0  0  0
  160.3860  213.3550  148.8980 N   0  0  0  0  0  0  0  0  0  0  0  0
  160.3380  213.2190  146.2480 S   0  0  0  0  0  0  0  0  0  0  0  0
  161.7190  213.5400  148.4960 N   0  0  0  0  0  2  0  0  0  0  0  0
  159.5230  213.7140  147.7830 C   0  0  0  0  0  2  0  0  0  0  0  0
  161.8580  212.9300  147.1850 C   0  0  0  0  0  2  0  0  0  0  0  0
  162.2690  206.6920  155.0170 O   0  0  0  0  0  1  0  0  0  0  0  0
  161.1490  207.1490  154.3160 C   0  0  2  0  0  3  0  0  0  0  0  0
  159.8740  206.8020  155.0720 C   0  0  0  0  0  2  0  0  0  0  0  0
  160.1750  208.7150  156.5270 C   0  0  0  0  0  0  0  0  0  0  0  0
  160.4600  209.9810  156.6410 C   0  0  0  0  0  3  0  0  0  0  0  0
  161.7000  210.5230  156.0250 C   0  0  0  0  0  1  0  0  0  0  0  0
  159.8810  207.4510  156.4130 C   0  0  0  0  0  3  0  0  0  0  0  0
  1  2  1  0  0  0  0
  2 15  2  0  0  0  0
  2 13  1  0  0  0  0
  3  6  2  0  0  0  0
  4 32  1  0  0  0  0
  5 15  1  0  0  0  0
  6  1  1  0  0  0  0
  6  9  1  0  0  0  0
  7  1  2  0  0  0  0
  7  5  1  0  0  0  0
  8  4  1  0  0  0  0
 10 12  1  0  0  0  0
 10  3  1  0  0  0  0
 11  4  2  0  0  0  0
 12  7  1  0  0  0  0
 13  8  2  0  0  0  0
 14 10  2  0  0  0  0
 15 11  1  0  0  0  0
 16 18  1  0  0  0  0
 16 19  1  0  0  0  0
 17 21  1  1  0  0  0
 17 20  1  0  0  0  0
 18 17  1  0  0  0  0
 19 11  1  6  0  0  0
 19 20  1  0  0  0  0
 23 24  2  0  0  0  0
 24 21  1  0  0  0  0
 24 22  2  0  0  0  0
 25 24  1  0  0  0  0
 26 25  1  0  0  0  0
 27 30  1  0  0  0  0
 27 29  1  0  0  0  0
 28 26  1  0  0  0  0
 29 26  1  0  0  0  0
 30 28  1  0  0  0  0
 32 31  1  1  0  0  0
 32 33  1  0  0  0  0
 33 37  1  0  0  0  0
 34 35  2  0  0  0  0
 36 35  1  0  0  0  0
 37 34  2  0  0  0  0
M  END
>  <MODEL>
1

>  <REMARK>
 VINA RESULT:      -7.4      0.000      0.000
  Name = 
  8 active torsions:
  status: ('A' for Active; 'I' for Inactive)
    1  A    between atoms: C_6  and  C_31
    2  A    between atoms: C_6  and  C_34
    3  A    between atoms: C_7  and  N_21
    4  A    between atoms: C_9  and  C_31
    5  A    between atoms: N_11  and  C_27
    6  A    between atoms: C_20  and  C_25
    7  A    between atoms: N_21  and  S_36
    8  A    between atoms: C_27  and  S_36
                            x       y       z     vdW  Elec       q    Type
                         _______ _______ _______ _____ _____    ______ ____

>  <TORSDO>
F 8

$$$$
=
 OpenBabel11052411013D

 37 41  0  0  1  0  0  0  0  0999 V2000
  160.6740  209.4180  154.7150 C   0  0  0  0  0  0  0  0  0  0  0  0
  160.8130  208.2540  153.9430 C   0  0  0  0  0  0  0  0  0  0  0  0
  160.3590  210.8020  156.6210 N   0  0  0  0  0  0  0  0  0  0  0  0
  161.0790  206.1560  152.1000 C   0  0  0  0  0  0  0  0  0  0  0  0
  160.9200  210.1980  152.3180 S   0  0  0  0  0  0  0  0  0  0  0  0
  160.4920  209.5510  156.0960 C   0  0  0  0  0  0  0  0  0  0  0  0
  160.7120  210.5680  153.9470 C   0  0  0  0  0  0  0  0  0  0  0  0
  160.9240  205.8970  153.4790 C   0  0  0  0  0  3  0  0  0  0  0  0
  160.4450  208.4160  156.9560 N   0  0  0  0  0  1  0  0  0  0  0  0
  160.3920  211.9170  155.8320 C   0  0  0  0  0  0  0  0  0  0  0  0
  161.1020  207.4930  151.6310 C   0  0  0  0  0  0  0  0  0  0  0  0
  160.5660  211.8000  154.4860 N   0  0  0  0  0  2  0  0  0  0  0  0
  160.7950  206.9390  154.4040 C   0  0  0  0  0  3  0  0  0  0  0  0
  160.2530  213.0530  156.3510 O   0  0  0  0  0  0  0  0  0  0  0  0
  160.9630  208.5220  152.5790 C   0  0  0  0  0  0  0  0  0  0  0  0
  162.6560  207.8640  149.7810 N   0  0  0  0  0  2  0  0  0  0  0  0
  161.8290  206.4600  148.0220 C   0  0  1  0  0  3  0  0  0  0  0  0
  162.6980  207.6540  148.3460 C   0  0  0  0  0  2  0  0  0  0  0  0
  161.2550  207.7710  150.1580 C   0  0  1  0  0  3  0  0  0  0  0  0
  160.4110  206.5170  149.1410 S   0  0  0  0  0  0  0  0  0  0  0  0
  161.3740  206.5460  146.6450 N   0  0  0  0  0  2  0  0  0  0  0  0
  163.3210  204.8860  145.9880 O   0  0  0  0  0  0  0  0  0  0  0  0
  161.5380  205.2050  144.3450 O   0  0  0  0  0  0  0  0  0  0  0  0
  161.8440  205.0960  145.8150 S   0  0  0  0  0  0  0  0  0  0  0  0
  160.9740  203.6770  146.5040 C   0  0  0  0  0  2  0  0  0  0  0  0
  161.1050  202.4400  145.7210 N   0  0  0  0  0  0  0  0  0  0  0  0
  160.8810  199.7980  145.8430 S   0  0  0  0  0  0  0  0  0  0  0  0
  159.8780  202.1450  145.1020 N   0  0  0  0  0  2  0  0  0  0  0  0
  161.4400  201.3360  146.6080 C   0  0  0  0  0  2  0  0  0  0  0  0
  159.9570  200.7730  144.6320 C   0  0  0  0  0  2  0  0  0  0  0  0
  159.9300  204.3690  151.0380 O   0  0  0  0  0  1  0  0  0  0  0  0
  161.1670  205.0120  151.1330 C   0  0  2  0  0  3  0  0  0  0  0  0
  162.2490  204.0190  151.5320 C   0  0  0  0  0  2  0  0  0  0  0  0
  161.1620  201.9060  151.0620 C   0  0  0  0  0  0  0  0  0  0  0  0
  160.6990  201.0780  150.1690 C   0  0  0  0  0  3  0  0  0  0  0  0
  159.7460  201.5550  149.1330 C   0  0  0  0  0  1  0  0  0  0  0  0
  161.6330  202.7300  151.9540 C   0  0  0  0  0  3  0  0  0  0  0  0
  1  6  1  0  0  0  0
  2 13  1  0  0  0  0
  2  1  1  0  0  0  0
  4  8  1  0  0  0  0
  5 15  1  0  0  0  0
  5  7  1  0  0  0  0
  6  3  2  0  0  0  0
  6  9  1  0  0  0  0
  7 12  1  0  0  0  0
  7  1  2  0  0  0  0
  8 13  2  0  0  0  0
 10 14  2  0  0  0  0
 10  3  1  0  0  0  0
 11  4  2  0  0  0  0
 11 15  1  0  0  0  0
 12 10  1  0  0  0  0
 15  2  2  0  0  0  0
 16 19  1  0  0  0  0
 17 21  1  6  0  0  0
 17 18  1  0  0  0  0
 17 20  1  0  0  0  0
 18 16  1  0  0  0  0
 19 11  1  1  0  0  0
 20 19  1  0  0  0  0
 23 24  2  0  0  0  0
 24 22  2  0  0  0  0
 24 25  1  0  0  0  0
 24 21  1  0  0  0  0
 26 25  1  0  0  0  0
 26 29  1  0  0  0  0
 27 29  1  0  0  0  0
 28 26  1  0  0  0  0
 30 28  1  0  0  0  0
 30 27  1  0  0  0  0
 32 31  1  1  0  0  0
 32 33  1  0  0  0  0
 32  4  1  0  0  0  0
 33 37  1  0  0  0  0
 34 37  2  0  0  0  0
 35 34  2  0  0  0  0
 36 35  1  0  0  0  0
M  END
>  <MODEL>
2

>  <REMARK>
 VINA RESULT:      -7.2      3.217      8.697
  Name = 
  8 active torsions:
  status: ('A' for Active; 'I' for Inactive)
    1  A    between atoms: C_6  and  C_31
    2  A    between atoms: C_6  and  C_34
    3  A    between atoms: C_7  and  N_21
    4  A    between atoms: C_9  and  C_31
    5  A    between atoms: N_11  and  C_27
    6  A    between atoms: C_20  and  C_25
    7  A    between atoms: N_21  and  S_36
    8  A    between atoms: C_27  and  S_36
                            x       y       z     vdW  Elec       q    Type
                         _______ _______ _______ _____ _____    ______ ____

>  <TORSDO>
F 8

$$$$
=
 OpenBabel11052411013D

 37 41  0  0  1  0  0  0  0  0999 V2000
  161.1790  204.9960  150.3550 C   0  0  0  0  0  0  0  0  0  0  0  0
  161.1490  205.6810  151.5800 C   0  0  0  0  0  0  0  0  0  0  0  0
  161.1320  203.1910  148.8100 N   0  0  0  0  0  0  0  0  0  0  0  0
  161.1850  207.3550  153.8300 C   0  0  0  0  0  0  0  0  0  0  0  0
  161.5460  207.4390  149.7960 S   0  0  0  0  0  0  0  0  0  0  0  0
  161.0450  203.6270  150.0990 C   0  0  0  0  0  0  0  0  0  0  0  0
  161.3930  205.8440  149.2820 C   0  0  0  0  0  0  0  0  0  0  0  0
  161.0000  205.9620  153.9640 C   0  0  0  0  0  3  0  0  0  0  0  0
  160.8190  202.6900  151.1490 N   0  0  0  0  0  1  0  0  0  0  0  0
  161.3530  204.0540  147.7750 C   0  0  0  0  0  0  0  0  0  0  0  0
  161.3560  207.9250  152.5440 C   0  0  0  0  0  0  0  0  0  0  0  0
  161.4890  205.3890  148.0120 N   0  0  0  0  0  2  0  0  0  0  0  0
  160.9760  205.1220  152.8450 C   0  0  0  0  0  3  0  0  0  0  0  0
  161.4400  203.6130  146.6020 O   0  0  0  0  0  0  0  0  0  0  0  0
  161.3370  207.0590  151.4370 C   0  0  0  0  0  0  0  0  0  0  0  0
  162.3750  209.7190  151.2330 N   0  0  0  0  0  2  0  0  0  0  0  0
  160.6250  211.3400  150.9870 C   0  0  1  0  0  3  0  0  0  0  0  0
  162.1200  211.1140  150.9280 C   0  0  0  0  0  2  0  0  0  0  0  0
  161.5660  209.4100  152.4010 C   0  0  1  0  0  3  0  0  0  0  0  0
  159.9870  210.3140  152.3310 S   0  0  0  0  0  0  0  0  0  0  0  0
  160.3540  212.7400  151.2630 N   0  0  0  0  0  2  0  0  0  0  0  0
  161.3360  214.4500  149.5050 O   0  0  0  0  0  0  0  0  0  0  0  0
  158.9070  214.4290  149.7890 O   0  0  0  0  0  0  0  0  0  0  0  0
  160.1430  213.5710  149.7540 S   0  0  0  0  0  0  0  0  0  0  0  0
  160.0100  212.3840  148.4050 C   0  0  0  0  0  2  0  0  0  0  0  0
  159.5600  212.9570  147.1280 N   0  0  0  0  0  0  0  0  0  0  0  0
  159.3740  212.4910  144.5220 S   0  0  0  0  0  0  0  0  0  0  0  0
  158.2140  212.6160  146.9100 N   0  0  0  0  0  2  0  0  0  0  0  0
  160.3500  212.4000  146.0400 C   0  0  0  0  0  2  0  0  0  0  0  0
  157.9220  212.9050  145.5170 C   0  0  0  0  0  2  0  0  0  0  0  0
  161.9840  207.5740  156.0570 O   0  0  0  0  0  1  0  0  0  0  0  0
  161.2510  208.2180  155.0560 C   0  0  2  0  0  3  0  0  0  0  0  0
  159.8630  208.5790  155.5670 C   0  0  0  0  0  2  0  0  0  0  0  0
  158.7890  210.7090  155.9870 C   0  0  0  0  0  0  0  0  0  0  0  0
  157.7180  211.4440  155.8870 C   0  0  0  0  0  3  0  0  0  0  0  0
  157.0470  211.6070  154.5710 C   0  0  0  0  0  1  0  0  0  0  0  0
  159.8580  209.9720  156.0950 C   0  0  0  0  0  3  0  0  0  0  0  0
  1  2  1  0  0  0  0
  2 13  1  0  0  0  0
  3  6  2  0  0  0  0
  4  8  1  0  0  0  0
  4 32  1  0  0  0  0
  5 15  1  0  0  0  0
  6  1  1  0  0  0  0
  6  9  1  0  0  0  0
  7  5  1  0  0  0  0
  7  1  2  0  0  0  0
 10 12  1  0  0  0  0
 10  3  1  0  0  0  0
 11  4  2  0  0  0  0
 12  7  1  0  0  0  0
 13  8  2  0  0  0  0
 14 10  2  0  0  0  0
 15  2  2  0  0  0  0
 15 11  1  0  0  0  0
 16 19  1  0  0  0  0
 17 21  1  1  0  0  0
 17 20  1  0  0  0  0
 18 17  1  0  0  0  0
 18 16  1  0  0  0  0
 19 11  1  6  0  0  0
 20 19  1  0  0  0  0
 22 24  2  0  0  0  0
 24 23  2  0  0  0  0
 24 21  1  0  0  0  0
 25 24  1  0  0  0  0
 26 25  1  0  0  0  0
 27 30  1  0  0  0  0
 27 29  1  0  0  0  0
 28 26  1  0  0  0  0
 29 26  1  0  0  0  0
 30 28  1  0  0  0  0
 32 33  1  0  0  0  0
 32 31  1  1  0  0  0
 33 37  1  0  0  0  0
 34 37  2  0  0  0  0
 35 34  2  0  0  0  0
 36 35  1  0  0  0  0
M  END
>  <MODEL>
3

>  <REMARK>
 VINA RESULT:      -7.2      1.760      2.111
  Name = 
  8 active torsions:
  status: ('A' for Active; 'I' for Inactive)
    1  A    between atoms: C_6  and  C_31
    2  A    between atoms: C_6  and  C_34
    3  A    between atoms: C_7  and  N_21
    4  A    between atoms: C_9  and  C_31
    5  A    between atoms: N_11  and  C_27
    6  A    between atoms: C_20  and  C_25
    7  A    between atoms: N_21  and  S_36
    8  A    between atoms: C_27  and  S_36
                            x       y       z     vdW  Elec       q    Type
                         _______ _______ _______ _____ _____    ______ ____

>  <TORSDO>
F 8

$$$$
=
 OpenBabel11052411013D

 37 41  0  0  1  0  0  0  0  0999 V2000
  161.3240  204.9870  149.0510 C   0  0  0  0  0  0  0  0  0  0  0  0
  161.2340  205.3940  150.3920 C   0  0  0  0  0  0  0  0  0  0  0  0
  161.3380  203.5550  147.1540 N   0  0  0  0  0  0  0  0  0  0  0  0
  161.1650  206.5470  152.9470 C   0  0  0  0  0  0  0  0  0  0  0  0
  161.7620  207.4810  149.0510 S   0  0  0  0  0  0  0  0  0  0  0  0
  161.1830  203.7080  148.5000 C   0  0  0  0  0  0  0  0  0  0  0  0
  161.6140  206.0380  148.1990 C   0  0  0  0  0  0  0  0  0  0  0  0
  160.9500  205.1630  152.7680 C   0  0  0  0  0  3  0  0  0  0  0  0
  160.8820  202.5750  149.3100 N   0  0  0  0  0  1  0  0  0  0  0  0
  161.6340  204.6130  146.3420 C   0  0  0  0  0  0  0  0  0  0  0  0
  161.4200  207.3730  151.8250 C   0  0  0  0  0  0  0  0  0  0  0  0
  161.7760  205.8630  146.8670 N   0  0  0  0  0  2  0  0  0  0  0  0
  160.9780  204.5830  151.4950 C   0  0  0  0  0  3  0  0  0  0  0  0
  161.7820  204.4310  145.1080 O   0  0  0  0  0  0  0  0  0  0  0  0
  161.4510  206.7650  150.5580 C   0  0  0  0  0  0  0  0  0  0  0  0
  161.8570  209.5210  150.7420 N   0  0  0  0  0  2  0  0  0  0  0  0
  160.3340  211.0390  151.8050 C   0  0  1  0  0  3  0  0  0  0  0  0
  161.6050  210.9280  150.9920 C   0  0  0  0  0  2  0  0  0  0  0  0
  161.6620  208.8480  152.0170 C   0  0  1  0  0  3  0  0  0  0  0  0
  160.3120  209.6410  152.9480 S   0  0  0  0  0  0  0  0  0  0  0  0
  160.3400  212.2860  152.5500 N   0  0  0  0  0  2  0  0  0  0  0  0
  158.1810  212.8860  151.1510 O   0  0  0  0  0  0  0  0  0  0  0  0
  158.7430  214.3730  153.0090 O   0  0  0  0  0  0  0  0  0  0  0  0
  158.7330  212.9410  152.5470 S   0  0  0  0  0  0  0  0  0  0  0  0
  157.6660  211.9700  153.6270 C   0  0  0  0  0  2  0  0  0  0  0  0
  157.5250  212.5050  154.9890 N   0  0  0  0  0  0  0  0  0  0  0  0
  155.9150  212.5910  157.0970 S   0  0  0  0  0  0  0  0  0  0  0  0
  158.0730  211.5950  155.9090 N   0  0  0  0  0  2  0  0  0  0  0  0
  156.1140  212.6700  155.3030 C   0  0  0  0  0  2  0  0  0  0  0  0
  157.6170  211.9950  157.2280 C   0  0  0  0  0  2  0  0  0  0  0  0
  162.3000  206.6830  155.0300 O   0  0  0  0  0  1  0  0  0  0  0  0
  161.1730  207.1250  154.3320 C   0  0  2  0  0  3  0  0  0  0  0  0
  159.9050  206.7730  155.0980 C   0  0  0  0  0  2  0  0  0  0  0  0
  160.3860  208.5290  156.6960 C   0  0  0  0  0  0  0  0  0  0  0  0
  160.7840  209.7510  156.9060 C   0  0  0  0  0  3  0  0  0  0  0  0
  162.0620  210.2300  156.3180 C   0  0  0  0  0  1  0  0  0  0  0  0
  159.9800  207.3080  156.4860 C   0  0  0  0  0  3  0  0  0  0  0  0
  1  2  1  0  0  0  0
  2 15  2  0  0  0  0
  2 13  1  0  0  0  0
  3  6  2  0  0  0  0
  4 32  1  0  0  0  0
  5 15  1  0  0  0  0
  6  1  1  0  0  0  0
  6  9  1  0  0  0  0
  7  5  1  0  0  0  0
  7  1  2  0  0  0  0
  8  4  1  0  0  0  0
 10 12  1  0  0  0  0
 10  3  1  0  0  0  0
 11  4  2  0  0  0  0
 12  7  1  0  0  0  0
 13  8  2  0  0  0  0
 14 10  2  0  0  0  0
 15 11  1  0  0  0  0
 16 18  1  0  0  0  0
 16 19  1  0  0  0  0
 17 21  1  1  0  0  0
 17 20  1  0  0  0  0
 18 17  1  0  0  0  0
 19 11  1  6  0  0  0
 19 20  1  0  0  0  0
 22 24  2  0  0  0  0
 24 21  1  0  0  0  0
 24 23  2  0  0  0  0
 24 25  1  0  0  0  0
 25 26  1  0  0  0  0
 26 29  1  0  0  0  0
 26 28  1  0  0  0  0
 27 30  1  0  0  0  0
 28 30  1  0  0  0  0
 29 27  1  0  0  0  0
 32 31  1  1  0  0  0
 32 33  1  0  0  0  0
 33 37  1  0  0  0  0
 34 35  2  0  0  0  0
 36 35  1  0  0  0  0
 37 34  2  0  0  0  0
M  END
>  <MODEL>
4

>  <REMARK>
 VINA RESULT:      -7.1      1.917      3.616
  Name = 
  8 active torsions:
  status: ('A' for Active; 'I' for Inactive)
    1  A    between atoms: C_6  and  C_31
    2  A    between atoms: C_6  and  C_34
    3  A    between atoms: C_7  and  N_21
    4  A    between atoms: C_9  and  C_31
    5  A    between atoms: N_11  and  C_27
    6  A    between atoms: C_20  and  C_25
    7  A    between atoms: N_21  and  S_36
    8  A    between atoms: C_27  and  S_36
                            x       y       z     vdW  Elec       q    Type
                         _______ _______ _______ _____ _____    ______ ____

>  <TORSDO>
F 8

$$$$
=
 OpenBabel11052411013D

 37 41  0  0  1  0  0  0  0  0999 V2000
  159.4770  212.2770  153.3600 C   0  0  0  0  0  0  0  0  0  0  0  0
  160.0100  212.3840  152.0650 C   0  0  0  0  0  0  0  0  0  0  0  0
  158.2980  212.8590  155.3390 N   0  0  0  0  0  0  0  0  0  0  0  0
  161.2580  212.2800  149.5560 C   0  0  0  0  0  0  0  0  0  0  0  0
  160.8090  210.1570  152.9760 S   0  0  0  0  0  0  0  0  0  0  0  0
  158.6800  213.1810  154.0700 C   0  0  0  0  0  0  0  0  0  0  0  0
  159.8410  211.0960  153.9820 C   0  0  0  0  0  0  0  0  0  0  0  0
  160.4820  213.3970  149.9360 C   0  0  0  0  0  3  0  0  0  0  0  0
  158.2610  214.4160  153.4980 N   0  0  0  0  0  1  0  0  0  0  0  0
  158.6830  211.6880  155.9280 C   0  0  0  0  0  0  0  0  0  0  0  0
  161.4130  211.1910  150.4490 C   0  0  0  0  0  0  0  0  0  0  0  0
  159.4620  210.8010  155.2480 N   0  0  0  0  0  2  0  0  0  0  0  0
  159.8530  213.4530  151.1840 C   0  0  0  0  0  3  0  0  0  0  0  0
  158.3220  211.4330  157.1040 O   0  0  0  0  0  0  0  0  0  0  0  0
  160.7780  211.2750  151.7000 C   0  0  0  0  0  0  0  0  0  0  0  0
  162.1420  208.9300  151.0220 N   0  0  0  0  0  2  0  0  0  0  0  0
  161.8930  207.6930  148.9820 C   0  0  1  0  0  3  0  0  0  0  0  0
  162.5700  207.7250  150.3350 C   0  0  0  0  0  2  0  0  0  0  0  0
  162.2510  210.0040  150.0490 C   0  0  1  0  0  3  0  0  0  0  0  0
  161.8170  209.3970  148.3870 S   0  0  0  0  0  0  0  0  0  0  0  0
  162.6770  206.8840  148.0650 N   0  0  0  0  0  2  0  0  0  0  0  0
  161.8260  206.1350  145.6790 O   0  0  0  0  0  0  0  0  0  0  0  0
  160.1640  206.2130  147.4710 O   0  0  0  0  0  0  0  0  0  0  0  0
  161.5960  205.8870  147.1430 S   0  0  0  0  0  0  0  0  0  0  0  0
  161.9090  204.1470  147.4900 C   0  0  0  0  0  2  0  0  0  0  0  0
  161.0040  203.5480  148.4810 N   0  0  0  0  0  0  0  0  0  0  0  0
  160.6130  201.4090  150.0030 S   0  0  0  0  0  0  0  0  0  0  0  0
  161.4000  203.9370  149.7720 N   0  0  0  0  0  2  0  0  0  0  0  0
  161.0860  202.0980  148.4010 C   0  0  0  0  0  2  0  0  0  0  0  0
  160.7070  203.0720  150.7100 C   0  0  0  0  0  2  0  0  0  0  0  0
  163.2650  212.7400  148.3720 O   0  0  0  0  0  1  0  0  0  0  0  0
  161.9550  212.2760  148.2270 C   0  0  2  0  0  3  0  0  0  0  0  0
  161.2090  213.1120  147.1960 C   0  0  0  0  0  2  0  0  0  0  0  0
  158.8960  212.5540  146.7420 C   0  0  0  0  0  0  0  0  0  0  0  0
  157.6370  212.8210  146.9410 C   0  0  0  0  0  3  0  0  0  0  0  0
  157.1130  212.9470  148.3270 C   0  0  0  0  0  1  0  0  0  0  0  0
  160.1560  212.2920  146.5360 C   0  0  0  0  0  3  0  0  0  0  0  0
  1  7  2  0  0  0  0
  1  6  1  0  0  0  0
  2  1  1  0  0  0  0
  3 10  1  0  0  0  0
  4  8  2  0  0  0  0
  4 11  1  0  0  0  0
  5  7  1  0  0  0  0
  6  3  2  0  0  0  0
  7 12  1  0  0  0  0
  8 13  1  0  0  0  0
  9  6  1  0  0  0  0
 10 14  2  0  0  0  0
 11 15  2  0  0  0  0
 12 10  1  0  0  0  0
 13  2  2  0  0  0  0
 15  2  1  0  0  0  0
 15  5  1  0  0  0  0
 17 21  1  6  0  0  0
 17 18  1  0  0  0  0
 18 16  1  0  0  0  0
 19 11  1  1  0  0  0
 19 16  1  0  0  0  0
 20 17  1  0  0  0  0
 20 19  1  0  0  0  0
 22 24  2  0  0  0  0
 24 23  2  0  0  0  0
 24 25  1  0  0  0  0
 24 21  1  0  0  0  0
 25 26  1  0  0  0  0
 26 28  1  0  0  0  0
 27 30  1  0  0  0  0
 28 30  1  0  0  0  0
 29 26  1  0  0  0  0
 29 27  1  0  0  0  0
 32 31  1  1  0  0  0
 32  4  1  0  0  0  0
 33 32  1  0  0  0  0
 34 35  2  0  0  0  0
 35 36  1  0  0  0  0
 37 34  2  0  0  0  0
 37 33  1  0  0  0  0
M  END
>  <MODEL>
5

>  <REMARK>
 VINA RESULT:      -6.9      3.115      9.168
  Name = 
  8 active torsions:
  status: ('A' for Active; 'I' for Inactive)
    1  A    between atoms: C_6  and  C_31
    2  A    between atoms: C_6  and  C_34
    3  A    between atoms: C_7  and  N_21
    4  A    between atoms: C_9  and  C_31
    5  A    between atoms: N_11  and  C_27
    6  A    between atoms: C_20  and  C_25
    7  A    between atoms: N_21  and  S_36
    8  A    between atoms: C_27  and  S_36
                            x       y       z     vdW  Elec       q    Type
                         _______ _______ _______ _____ _____    ______ ____

>  <TORSDO>
F 8

$$$$
=
 OpenBabel11052411013D

 37 41  0  0  1  0  0  0  0  0999 V2000
  161.3120  204.8250  149.2450 C   0  0  0  0  0  0  0  0  0  0  0  0
  161.5400  206.2080  149.3090 C   0  0  0  0  0  0  0  0  0  0  0  0
  160.9110  202.6730  148.3190 N   0  0  0  0  0  0  0  0  0  0  0  0
  161.9580  208.9360  149.8080 C   0  0  0  0  0  0  0  0  0  0  0  0
  161.4360  205.3980  151.7090 S   0  0  0  0  0  0  0  0  0  0  0  0
  161.1470  204.0020  148.1250 C   0  0  0  0  0  0  0  0  0  0  0  0
  161.2290  204.2460  150.4990 C   0  0  0  0  0  0  0  0  0  0  0  0
  161.8550  208.4460  148.4870 C   0  0  0  0  0  3  0  0  0  0  0  0
  161.2210  204.5200  146.8000 N   0  0  0  0  0  1  0  0  0  0  0  0
  160.8260  202.1350  149.5720 C   0  0  0  0  0  0  0  0  0  0  0  0
  161.8500  208.0440  150.9030 C   0  0  0  0  0  0  0  0  0  0  0  0
  160.9830  202.9270  150.6700 N   0  0  0  0  0  2  0  0  0  0  0  0
  161.6520  207.0860  148.2320 C   0  0  0  0  0  3  0  0  0  0  0  0
  160.5950  200.9080  149.7110 O   0  0  0  0  0  0  0  0  0  0  0  0
  161.6370  206.6830  150.6200 C   0  0  0  0  0  0  0  0  0  0  0  0
  162.4410  209.9350  152.3350 N   0  0  0  0  0  2  0  0  0  0  0  0
  160.6030  210.1150  153.8650 C   0  0  1  0  0  3  0  0  0  0  0  0
  162.0510  210.4780  153.6230 C   0  0  0  0  0  2  0  0  0  0  0  0
  161.9460  208.5680  152.3120 C   0  0  1  0  0  3  0  0  0  0  0  0
  160.3510  208.4600  153.1860 S   0  0  0  0  0  0  0  0  0  0  0  0
  160.3350  210.1080  155.2930 N   0  0  0  0  0  2  0  0  0  0  0  0
  160.0360  212.7010  155.6970 O   0  0  0  0  0  0  0  0  0  0  0  0
  158.6050  211.2070  157.0010 O   0  0  0  0  0  0  0  0  0  0  0  0
  159.2570  211.4170  155.6610 S   0  0  0  0  0  0  0  0  0  0  0  0
  157.9860  211.5490  154.3910 C   0  0  0  0  0  2  0  0  0  0  0  0
  157.9640  212.8350  153.6780 N   0  0  0  0  0  0  0  0  0  0  0  0
  157.7490  213.9450  151.2770 S   0  0  0  0  0  0  0  0  0  0  0  0
  156.6430  213.3090  153.6080 N   0  0  0  0  0  2  0  0  0  0  0  0
  158.4480  212.6450  152.3190 C   0  0  0  0  0  2  0  0  0  0  0  0
  156.6250  214.3790  152.6260 C   0  0  0  0  0  2  0  0  0  0  0  0
  160.9080  210.9820  150.4060 O   0  0  0  0  0  1  0  0  0  0  0  0
  162.1300  210.4080  150.0430 C   0  0  2  0  0  3  0  0  0  0  0  0
  162.7020  211.1120  148.8210 C   0  0  0  0  0  2  0  0  0  0  0  0
  161.7730  212.8700  147.4370 C   0  0  0  0  0  0  0  0  0  0  0  0
  161.4980  213.3010  146.2390 C   0  0  0  0  0  3  0  0  0  0  0  0
  162.5560  213.3310  145.1960 C   0  0  0  0  0  1  0  0  0  0  0  0
  162.0420  212.4350  148.6350 C   0  0  0  0  0  3  0  0  0  0  0  0
  1  2  1  0  0  0  0
  1  7  2  0  0  0  0
  2 15  1  0  0  0  0
  3 10  1  0  0  0  0
  4 32  1  0  0  0  0
  4 11  1  0  0  0  0
  6  3  2  0  0  0  0
  6  1  1  0  0  0  0
  7 12  1  0  0  0  0
  7  5  1  0  0  0  0
  8  4  2  0  0  0  0
  9  6  1  0  0  0  0
 10 14  2  0  0  0  0
 10 12  1  0  0  0  0
 13  8  1  0  0  0  0
 13  2  2  0  0  0  0
 15 11  2  0  0  0  0
 15  5  1  0  0  0  0
 16 18  1  0  0  0  0
 17 21  1  1  0  0  0
 18 17  1  0  0  0  0
 19 11  1  6  0  0  0
 19 16  1  0  0  0  0
 19 20  1  0  0  0  0
 20 17  1  0  0  0  0
 21 24  1  0  0  0  0
 24 22  2  0  0  0  0
 24 23  2  0  0  0  0
 25 24  1  0  0  0  0
 26 25  1  0  0  0  0
 27 29  1  0  0  0  0
 27 30  1  0  0  0  0
 28 26  1  0  0  0  0
 29 26  1  0  0  0  0
 30 28  1  0  0  0  0
 32 31  1  6  0  0  0
 33 32  1  0  0  0  0
 34 37  2  0  0  0  0
 35 34  2  0  0  0  0
 36 35  1  0  0  0  0
 37 33  1  0  0  0  0
M  END
>  <MODEL>
6

>  <REMARK>
 VINA RESULT:      -6.7      2.935      5.424
  Name = 
  8 active torsions:
  status: ('A' for Active; 'I' for Inactive)
    1  A    between atoms: C_6  and  C_31
    2  A    between atoms: C_6  and  C_34
    3  A    between atoms: C_7  and  N_21
    4  A    between atoms: C_9  and  C_31
    5  A    between atoms: N_11  and  C_27
    6  A    between atoms: C_20  and  C_25
    7  A    between atoms: N_21  and  S_36
    8  A    between atoms: C_27  and  S_36
                            x       y       z     vdW  Elec       q    Type
                         _______ _______ _______ _____ _____    ______ ____

>  <TORSDO>
F 8

$$$$
=
 OpenBabel11052411013D

 37 41  0  0  1  0  0  0  0  0999 V2000
  160.8080  203.2090  148.6190 C   0  0  0  0  0  0  0  0  0  0  0  0
  160.9420  204.0070  149.7670 C   0  0  0  0  0  0  0  0  0  0  0  0
  160.2940  201.3270  147.2620 N   0  0  0  0  0  0  0  0  0  0  0  0
  161.3910  205.8450  151.8360 C   0  0  0  0  0  0  0  0  0  0  0  0
  161.8550  205.3790  147.8390 S   0  0  0  0  0  0  0  0  0  0  0  0
  160.3020  201.9100  148.4950 C   0  0  0  0  0  0  0  0  0  0  0  0
  161.2750  203.8410  147.4800 C   0  0  0  0  0  0  0  0  0  0  0  0
  160.8210  204.5810  152.0990 C   0  0  0  0  0  3  0  0  0  0  0  0
  159.8000  201.1940  149.6190 N   0  0  0  0  0  1  0  0  0  0  0  0
  160.7720  201.9750  146.1600 C   0  0  0  0  0  0  0  0  0  0  0  0
  161.7440  206.2000  150.5110 C   0  0  0  0  0  0  0  0  0  0  0  0
  161.2700  203.2400  146.2680 N   0  0  0  0  0  2  0  0  0  0  0  0
  160.5900  203.6610  151.0700 C   0  0  0  0  0  3  0  0  0  0  0  0
  160.7600  201.4000  145.0430 O   0  0  0  0  0  0  0  0  0  0  0  0
  161.5100  205.2560  149.4960 C   0  0  0  0  0  0  0  0  0  0  0  0
  162.4600  207.7950  148.8030 N   0  0  0  0  0  2  0  0  0  0  0  0
  161.5840  209.8980  149.5530 C   0  0  1  0  0  3  0  0  0  0  0  0
  162.6070  209.2320  148.6590 C   0  0  0  0  0  2  0  0  0  0  0  0
  162.3650  207.5440  150.2320 C   0  0  1  0  0  3  0  0  0  0  0  0
  161.4530  208.8940  151.0490 S   0  0  0  0  0  0  0  0  0  0  0  0
  162.0330  211.2360  149.8940 N   0  0  0  0  0  2  0  0  0  0  0  0
  163.2140  212.1710  147.7240 O   0  0  0  0  0  0  0  0  0  0  0  0
  161.6530  213.6680  148.8650 O   0  0  0  0  0  0  0  0  0  0  0  0
  161.9180  212.2370  148.4810 S   0  0  0  0  0  0  0  0  0  0  0  0
  160.5940  211.6490  147.4100 C   0  0  0  0  0  2  0  0  0  0  0  0
  159.9570  212.6930  146.5950 N   0  0  0  0  0  0  0  0  0  0  0  0
  159.0430  213.2500  144.1660 S   0  0  0  0  0  0  0  0  0  0  0  0
  158.5600  212.5760  146.6920 N   0  0  0  0  0  2  0  0  0  0  0  0
  160.3300  212.5150  145.2000 C   0  0  0  0  0  2  0  0  0  0  0  0
  157.9900  213.3880  145.6310 C   0  0  0  0  0  2  0  0  0  0  0  0
  162.8150  206.3860  153.6590 O   0  0  0  0  0  1  0  0  0  0  0  0
  161.6660  206.7870  152.9720 C   0  0  2  0  0  3  0  0  0  0  0  0
  160.4850  206.8800  153.9270 C   0  0  0  0  0  2  0  0  0  0  0  0
  160.6310  208.9550  155.1690 C   0  0  0  0  0  0  0  0  0  0  0  0
  160.3940  210.2350  155.2110 C   0  0  0  0  0  3  0  0  0  0  0  0
  160.8520  211.1130  154.1030 C   0  0  0  0  0  1  0  0  0  0  0  0
  160.8600  207.6720  155.1310 C   0  0  0  0  0  3  0  0  0  0  0  0
  1  2  1  0  0  0  0
  2 13  1  0  0  0  0
  3  6  2  0  0  0  0
  4  8  1  0  0  0  0
  4 32  1  0  0  0  0
  5 15  1  0  0  0  0
  6  1  1  0  0  0  0
  6  9  1  0  0  0  0
  7  5  1  0  0  0  0
  7  1  2  0  0  0  0
 10 12  1  0  0  0  0
 10  3  1  0  0  0  0
 11  4  2  0  0  0  0
 12  7  1  0  0  0  0
 13  8  2  0  0  0  0
 14 10  2  0  0  0  0
 15  2  2  0  0  0  0
 15 11  1  0  0  0  0
 16 19  1  0  0  0  0
 17 21  1  1  0  0  0
 17 20  1  0  0  0  0
 18 16  1  0  0  0  0
 18 17  1  0  0  0  0
 19 11  1  6  0  0  0
 19 20  1  0  0  0  0
 22 24  2  0  0  0  0
 24 23  2  0  0  0  0
 24 21  1  0  0  0  0
 25 24  1  0  0  0  0
 26 28  1  0  0  0  0
 26 25  1  0  0  0  0
 27 29  1  0  0  0  0
 27 30  1  0  0  0  0
 29 26  1  0  0  0  0
 30 28  1  0  0  0  0
 32 31  1  1  0  0  0
 32 33  1  0  0  0  0
 33 37  1  0  0  0  0
 34 35  2  0  0  0  0
 36 35  1  0  0  0  0
 37 34  2  0  0  0  0
M  END
>  <MODEL>
7

>  <REMARK>
 VINA RESULT:      -6.6      2.261      2.738
  Name = 
  8 active torsions:
  status: ('A' for Active; 'I' for Inactive)
    1  A    between atoms: C_6  and  C_31
    2  A    between atoms: C_6  and  C_34
    3  A    between atoms: C_7  and  N_21
    4  A    between atoms: C_9  and  C_31
    5  A    between atoms: N_11  and  C_27
    6  A    between atoms: C_20  and  C_25
    7  A    between atoms: N_21  and  S_36
    8  A    between atoms: C_27  and  S_36
                            x       y       z     vdW  Elec       q    Type
                         _______ _______ _______ _____ _____    ______ ____

>  <TORSDO>
F 8

$$$$
=
 OpenBabel11052411013D

 37 42  0  0  1  0  0  0  0  0999 V2000
  161.5360  204.6980  147.5510 C   0  0  0  0  0  0  0  0  0  0  0  0
  161.6930  205.8940  148.2700 C   0  0  0  0  0  0  0  0  0  0  0  0
  161.4990  203.1910  145.7130 N   0  0  0  0  0  0  0  0  0  0  0  0
  161.8580  208.0970  149.9970 C   0  0  0  0  0  0  0  0  0  0  0  0
  160.8910  204.1630  149.9420 S   0  0  0  0  0  0  0  0  0  0  0  0
  161.7420  204.4460  146.1910 C   0  0  0  0  0  0  0  0  0  0  0  0
  161.0950  203.6570  148.3500 C   0  0  0  0  0  0  0  0  0  0  0  0
  162.1740  208.2220  148.6270 C   0  0  0  0  0  3  0  0  0  0  0  0
  162.1980  205.4630  145.3030 N   0  0  0  0  0  1  0  0  0  0  0  0
  161.0550  202.1890  146.5280 C   0  0  0  0  0  0  0  0  0  0  0  0
  161.4500  206.8430  150.5160 C   0  0  0  0  0  0  0  0  0  0  0  0
  160.8480  202.4230  147.8540 N   0  0  0  0  0  2  0  0  0  0  0  0
  162.0990  207.1260  147.7610 C   0  0  0  0  0  3  0  0  0  0  0  0
  160.8300  201.0490  146.0490 O   0  0  0  0  0  0  0  0  0  0  0  0
  161.3740  205.7590  149.6240 C   0  0  0  0  0  0  0  0  0  0  0  0
  162.2070  206.1550  152.7360 N   0  0  0  0  0  2  0  0  0  0  0  0
  161.5680  207.9700  154.1680 C   0  0  1  0  0  3  0  0  0  0  0  0
  161.9570  206.5090  154.1210 C   0  0  0  0  0  2  0  0  0  0  0  0
  161.1000  206.7110  151.9760 C   0  0  1  0  0  3  0  0  0  0  0  0
  160.5780  208.3020  152.6940 S   0  0  2  0  0  3  0  0  0  0  0  0
  160.7790  208.2260  155.3600 N   0  0  0  0  0  2  0  0  0  0  0  0
  162.1660  210.4650  155.1560 O   0  0  0  0  0  0  0  0  0  0  0  0
  162.3580  209.2330  157.2600 O   0  0  0  0  0  0  0  0  0  0  0  0
  161.4160  209.6310  156.1560 S   0  0  0  0  0  0  0  0  0  0  0  0
  160.0740  210.6190  156.8410 C   0  0  0  0  0  2  0  0  0  0  0  0
  158.8670  210.6750  156.0050 N   0  0  0  0  0  0  0  0  0  0  0  0
  156.8230  212.2140  155.2990 S   0  0  0  0  0  0  0  0  0  0  0  0
  159.2010  211.1700  154.7320 N   0  0  0  0  0  2  0  0  0  0  0  0
  157.9020  211.5830  156.6040 C   0  0  0  0  0  2  0  0  0  0  0  0
  157.9560  211.5210  154.0710 C   0  0  0  0  0  2  0  0  0  0  0  0
  160.6110  209.6810  151.2540 O   0  0  0  0  0  0  0  0  0  0  0  0
  161.9060  209.3060  150.8850 C   0  0  2  0  0  3  0  0  0  0  0  0
  162.6240  210.4690  150.2160 C   0  0  0  0  0  2  0  0  0  0  0  0
  161.5850  212.0500  148.7030 C   0  0  0  0  0  0  0  0  0  0  0  0
  161.5070  212.5350  147.4970 C   0  0  0  0  0  3  0  0  0  0  0  0
  162.7350  213.0010  146.8010 C   0  0  0  0  0  1  0  0  0  0  0  0
  161.6560  211.5590  149.9080 C   0  0  0  0  0  3  0  0  0  0  0  0
  1  2  1  0  0  0  0
  1  7  2  0  0  0  0
  2 15  1  0  0  0  0
  3  6  2  0  0  0  0
  3 10  1  0  0  0  0
  4 11  1  0  0  0  0
  4 32  1  0  0  0  0
  6  1  1  0  0  0  0
  7  5  1  0  0  0  0
  8  4  2  0  0  0  0
  9  6  1  0  0  0  0
 10 12  1  0  0  0  0
 12  7  1  0  0  0  0
 13  2  2  0  0  0  0
 13  8  1  0  0  0  0
 14 10  2  0  0  0  0
 15  5  1  0  0  0  0
 15 11  2  0  0  0  0
 16 18  1  0  0  0  0
 17 21  1  1  0  0  0
 18 17  1  0  0  0  0
 19 11  1  6  0  0  0
 19 20  1  0  0  0  0
 19 16  1  0  0  0  0
 20 31  1  6  0  0  0
 20 17  1  0  0  0  0
 21 24  1  0  0  0  0
 22 24  2  0  0  0  0
 24 25  1  0  0  0  0
 24 23  2  0  0  0  0
 26 29  1  0  0  0  0
 26 25  1  0  0  0  0
 27 29  1  0  0  0  0
 28 26  1  0  0  0  0
 30 28  1  0  0  0  0
 30 27  1  0  0  0  0
 32 33  1  6  0  0  0
 32 31  1  0  0  0  0
 34 37  2  0  0  0  0
 35 34  2  0  0  0  0
 36 35  1  0  0  0  0
 37 33  1  0  0  0  0
M  END
>  <MODEL>
8

>  <REMARK>
 VINA RESULT:      -5.5      3.065      5.754
  Name = 
  8 active torsions:
  status: ('A' for Active; 'I' for Inactive)
    1  A    between atoms: C_6  and  C_31
    2  A    between atoms: C_6  and  C_34
    3  A    between atoms: C_7  and  N_21
    4  A    between atoms: C_9  and  C_31
    5  A    between atoms: N_11  and  C_27
    6  A    between atoms: C_20  and  C_25
    7  A    between atoms: N_21  and  S_36
    8  A    between atoms: C_27  and  S_36
                            x       y       z     vdW  Elec       q    Type
                         _______ _______ _______ _____ _____    ______ ____

>  <TORSDO>
F 8

$$$$
=
 OpenBabel11052411013D

 37 41  0  0  1  0  0  0  0  0999 V2000
  160.4550  209.4150  153.8160 C   0  0  0  0  0  0  0  0  0  0  0  0
  160.7100  210.1070  152.6210 C   0  0  0  0  0  0  0  0  0  0  0  0
  159.7530  209.0120  156.0510 N   0  0  0  0  0  0  0  0  0  0  0  0
  161.3970  211.1760  150.1210 C   0  0  0  0  0  0  0  0  0  0  0  0
  161.5450  207.7390  152.2610 S   0  0  0  0  0  0  0  0  0  0  0  0
  159.8800  209.8780  155.0050 C   0  0  0  0  0  0  0  0  0  0  0  0
  160.8670  208.0950  153.7590 C   0  0  0  0  0  0  0  0  0  0  0  0
  160.7870  211.9770  151.1110 C   0  0  0  0  0  3  0  0  0  0  0  0
  159.4270  211.2220  155.1410 N   0  0  0  0  0  1  0  0  0  0  0  0
  160.1810  207.7170  155.9650 C   0  0  0  0  0  0  0  0  0  0  0  0
  161.6690  209.8110  150.3850 C   0  0  0  0  0  0  0  0  0  0  0  0
  160.7440  207.2560  154.8130 N   0  0  0  0  0  2  0  0  0  0  0  0
  160.4380  211.4480  152.3590 C   0  0  0  0  0  3  0  0  0  0  0  0
  160.0590  206.9520  156.9540 O   0  0  0  0  0  0  0  0  0  0  0  0
  161.3160  209.3060  151.6490 C   0  0  0  0  0  0  0  0  0  0  0  0
  162.7450  207.6760  149.8780 N   0  0  0  0  0  2  0  0  0  0  0  0
  161.7140  206.9650  147.8330 C   0  0  1  0  0  3  0  0  0  0  0  0
  162.9140  206.7950  148.7370 C   0  0  0  0  0  2  0  0  0  0  0  0
  162.3310  208.9590  149.3340 C   0  0  1  0  0  3  0  0  0  0  0  0
  161.2530  208.7110  147.8860 S   0  0  0  0  0  0  0  0  0  0  0  0
  162.0700  206.5890  146.4750 N   0  0  0  0  0  2  0  0  0  0  0  0
  163.1590  204.1880  146.3200 O   0  0  0  0  0  0  0  0  0  0  0  0
  161.1510  204.5790  144.9800 O   0  0  0  0  0  0  0  0  0  0  0  0
  161.8270  204.8810  146.2910 S   0  0  0  0  0  0  0  0  0  0  0  0
  160.8180  204.2480  147.6440 C   0  0  0  0  0  2  0  0  0  0  0  0
  161.3530  203.0440  148.2950 N   0  0  0  0  0  0  0  0  0  0  0  0
  160.8440  201.2040  150.1380 S   0  0  0  0  0  0  0  0  0  0  0  0
  160.9490  201.9050  147.5770 N   0  0  0  0  0  2  0  0  0  0  0  0
  160.8170  202.9410  149.6440 C   0  0  0  0  0  2  0  0  0  0  0  0
  161.2060  200.7540  148.4240 C   0  0  0  0  0  2  0  0  0  0  0  0
  163.1850  211.9640  148.7700 O   0  0  0  0  0  1  0  0  0  0  0  0
  161.7990  211.7900  148.8120 C   0  0  2  0  0  3  0  0  0  0  0  0
  161.0920  213.1160  148.5690 C   0  0  0  0  0  2  0  0  0  0  0  0
  158.7920  213.3400  147.8420 C   0  0  0  0  0  0  0  0  0  0  0  0
  157.5840  213.7470  148.1110 C   0  0  0  0  0  3  0  0  0  0  0  0
  156.9210  213.3280  149.3740 C   0  0  0  0  0  1  0  0  0  0  0  0
  160.0020  212.9400  147.5700 C   0  0  0  0  0  3  0  0  0  0  0  0
  1  6  1  0  0  0  0
  2  1  1  0  0  0  0
  4 11  2  0  0  0  0
  4  8  1  0  0  0  0
  5  7  1  0  0  0  0
  6  9  1  0  0  0  0
  6  3  2  0  0  0  0
  7  1  2  0  0  0  0
  7 12  1  0  0  0  0
  8 13  2  0  0  0  0
 10  3  1  0  0  0  0
 10 14  2  0  0  0  0
 11 15  1  0  0  0  0
 12 10  1  0  0  0  0
 13  2  1  0  0  0  0
 15  5  1  0  0  0  0
 15  2  2  0  0  0  0
 17 21  1  6  0  0  0
 17 20  1  0  0  0  0
 17 18  1  0  0  0  0
 18 16  1  0  0  0  0
 19 16  1  0  0  0  0
 19 11  1  1  0  0  0
 20 19  1  0  0  0  0
 23 24  2  0  0  0  0
 24 22  2  0  0  0  0
 24 21  1  0  0  0  0
 24 25  1  0  0  0  0
 25 26  1  0  0  0  0
 26 29  1  0  0  0  0
 28 26  1  0  0  0  0
 28 30  1  0  0  0  0
 29 27  1  0  0  0  0
 30 27  1  0  0  0  0
 32 31  1  1  0  0  0
 32  4  1  0  0  0  0
 33 32  1  0  0  0  0
 34 35  2  0  0  0  0
 35 36  1  0  0  0  0
 37 34  2  0  0  0  0
 37 33  1  0  0  0  0
M  END
>  <MODEL>
9

>  <REMARK>
 VINA RESULT:      -5.5      2.889      8.671
  Name = 
  8 active torsions:
  status: ('A' for Active; 'I' for Inactive)
    1  A    between atoms: C_6  and  C_31
    2  A    between atoms: C_6  and  C_34
    3  A    between atoms: C_7  and  N_21
    4  A    between atoms: C_9  and  C_31
    5  A    between atoms: N_11  and  C_27
    6  A    between atoms: C_20  and  C_25
    7  A    between atoms: N_21  and  S_36
    8  A    between atoms: C_27  and  S_36
                            x       y       z     vdW  Elec       q    Type
                         _______ _______ _______ _____ _____    ______ ____

>  <TORSDO>
F 8

$$$$
