=
 OpenBabel11052410163D

 25 28  0  0  1  0  0  0  0  0999 V2000
  161.0550  210.9680  157.2610 C   0  0  0  0  0  2  0  0  0  0  0  0
  158.8740  213.7180  151.7620 C   0  0  0  0  0  0  0  0  0  0  0  0
  160.4460  209.4650  153.7100 N   0  0  0  0  0  2  0  0  0  0  0  0
  159.2670  212.1900  154.0890 C   0  0  0  0  0  0  0  0  0  0  0  0
  160.3020  210.3890  152.6770 N   0  0  0  0  0  0  0  0  0  0  0  0
  160.1860  207.1140  155.8820 C   0  0  0  0  0  3  0  0  0  0  0  0
  161.8790  207.5700  151.2380 C   0  0  0  0  0  0  0  0  0  0  0  0
  161.9700  208.8590  151.9680 C   0  0  2  0  0  3  0  0  0  0  0  0
  159.6590  211.6700  152.8240 C   0  0  0  0  0  0  0  0  0  0  0  0
  158.6800  214.4530  150.6400 F   0  0  0  0  0  0  0  0  0  0  0  0
  159.4800  211.4310  155.3710 C   0  0  1  0  0  3  0  0  0  0  0  0
  158.7060  213.4750  154.1570 C   0  0  0  0  0  3  0  0  0  0  0  0
  162.2500  210.0320  157.1000 C   0  0  0  0  0  2  0  0  0  0  0  0
  161.7350  207.4880  150.0290 O   0  0  0  0  0  0  0  0  0  0  0  0
  161.9520  206.1390  152.3100 S   0  0  0  0  0  0  0  0  0  0  0  0
  160.8110  211.8060  156.0120 C   0  0  0  0  0  2  0  0  0  0  0  0
  161.3900  208.5080  153.2820 C   0  0  2  0  0  3  0  0  0  0  0  0
  158.4230  211.6500  156.2600 O   0  0  0  0  0  1  0  0  0  0  0  0
  161.9590  208.8680  156.1610 C   0  0  0  0  0  2  0  0  0  0  0  0
  161.3410  207.2160  153.6110 C   0  0  1  0  0  3  0  0  0  0  0  0
  160.4530  206.6570  154.6490 C   0  0  0  0  0  3  0  0  0  0  0  0
  158.5060  214.2330  153.0040 C   0  0  0  0  0  3  0  0  0  0  0  0
  159.4510  212.4520  151.6760 C   0  0  0  0  0  3  0  0  0  0  0  0
  160.7630  208.2070  156.5480 O   0  0  0  0  0  0  0  0  0  0  0  0
  161.0280  209.9680  151.4780 C   0  0  0  0  0  2  0  0  0  0  0  0
  2 22  1  0  0  0  0
  4 12  1  0  0  0  0
  4 11  1  0  0  0  0
  5  9  1  0  0  0  0
  5  3  1  0  0  0  0
  6 24  1  0  0  0  0
  7  8  1  0  0  0  0
  7 15  1  0  0  0  0
  8 25  1  6  0  0  0
  8 17  1  0  0  0  0
  9  4  2  0  0  0  0
 10  2  1  0  0  0  0
 11 16  1  0  0  0  0
 11 18  1  1  0  0  0
 13  1  1  0  0  0  0
 14  7  2  0  0  0  0
 15 20  1  0  0  0  0
 16  1  1  0  0  0  0
 17 20  1  0  0  0  0
 17  3  1  6  0  0  0
 19 24  1  0  0  0  0
 19 13  1  0  0  0  0
 20 21  1  6  0  0  0
 21  6  2  0  0  0  0
 22 12  2  0  0  0  0
 23  2  2  0  0  0  0
 23  9  1  0  0  0  0
 25  5  1  0  0  0  0
M  END
>  <MODEL>
1

>  <REMARK>
 VINA RESULT:      -6.1      0.000      0.000
  Name = 
  0 active torsions:
  status: ('A' for Active; 'I' for Inactive)
                            x       y       z     vdW  Elec       q    Type
                         _______ _______ _______ _____ _____    ______ ____

>  <TORSDO>
F 0

$$$$
=
 OpenBabel11052410163D

 25 28  0  0  1  0  0  0  0  0999 V2000
  161.7790  202.8280  152.3850 C   0  0  0  0  0  2  0  0  0  0  0  0
  161.9560  208.8290  149.8330 C   0  0  0  0  0  0  0  0  0  0  0  0
  160.8870  204.1200  148.8110 N   0  0  0  0  0  2  0  0  0  0  0  0
  161.2430  206.3000  150.8320 C   0  0  0  0  0  0  0  0  0  0  0  0
  161.3550  205.3930  148.4930 N   0  0  0  0  0  0  0  0  0  0  0  0
  159.2120  201.4410  149.3860 C   0  0  0  0  0  3  0  0  0  0  0  0
  161.4080  203.5580  145.4700 C   0  0  0  0  0  0  0  0  0  0  0  0
  162.0660  203.9670  146.7360 C   0  0  2  0  0  3  0  0  0  0  0  0
  161.4510  206.4780  149.4360 C   0  0  0  0  0  0  0  0  0  0  0  0
  162.2960  210.0490  149.3500 F   0  0  0  0  0  0  0  0  0  0  0  0
  160.8900  204.9640  151.4280 C   0  0  1  0  0  3  0  0  0  0  0  0
  161.4190  207.3920  151.6960 C   0  0  0  0  0  3  0  0  0  0  0  0
  162.3310  201.7170  151.4960 C   0  0  0  0  0  2  0  0  0  0  0  0
  161.3800  204.2560  144.4690 O   0  0  0  0  0  0  0  0  0  0  0  0
  160.6140  201.9580  145.5650 S   0  0  0  0  0  0  0  0  0  0  0  0
  162.1420  204.2130  151.8650 C   0  0  0  0  0  2  0  0  0  0  0  0
  161.2450  203.2670  147.7470 C   0  0  2  0  0  3  0  0  0  0  0  0
  160.0040  205.1150  152.4990 O   0  0  0  0  0  1  0  0  0  0  0  0
  161.5910  201.6080  150.1690 C   0  0  0  0  0  2  0  0  0  0  0  0
  160.5020  202.2380  147.3360 C   0  0  1  0  0  3  0  0  0  0  0  0
  159.3420  201.7030  148.0760 C   0  0  0  0  0  3  0  0  0  0  0  0
  161.7690  208.6490  151.2010 C   0  0  0  0  0  3  0  0  0  0  0  0
  161.8050  207.7510  148.9610 C   0  0  0  0  0  3  0  0  0  0  0  0
  160.1900  201.5200  150.3890 O   0  0  0  0  0  0  0  0  0  0  0  0
  161.8900  205.4400  147.1310 C   0  0  0  0  0  2  0  0  0  0  0  0
  2 22  1  0  0  0  0
  4 11  1  0  0  0  0
  4 12  1  0  0  0  0
  5  3  1  0  0  0  0
  5  9  1  0  0  0  0
  6 24  1  0  0  0  0
  7 15  1  0  0  0  0
  7  8  1  0  0  0  0
  8 25  1  1  0  0  0
  8 17  1  0  0  0  0
  9  4  2  0  0  0  0
 10  2  1  0  0  0  0
 11 16  1  0  0  0  0
 11 18  1  1  0  0  0
 13  1  1  0  0  0  0
 14  7  2  0  0  0  0
 15 20  1  0  0  0  0
 16  1  1  0  0  0  0
 17  3  1  6  0  0  0
 19 24  1  0  0  0  0
 19 13  1  0  0  0  0
 20 17  1  0  0  0  0
 20 21  1  6  0  0  0
 21  6  2  0  0  0  0
 22 12  2  0  0  0  0
 23  9  1  0  0  0  0
 23  2  2  0  0  0  0
 25  5  1  0  0  0  0
M  END
>  <MODEL>
2

>  <REMARK>
 VINA RESULT:      -5.4      5.284      7.647
  Name = 
  0 active torsions:
  status: ('A' for Active; 'I' for Inactive)
                            x       y       z     vdW  Elec       q    Type
                         _______ _______ _______ _____ _____    ______ ____

>  <TORSDO>
F 0

$$$$
=
 OpenBabel11052410163D

 25 28  0  0  1  0  0  0  0  0999 V2000
  161.1080  207.8840  147.4450 C   0  0  0  0  0  2  0  0  0  0  0  0
  161.1190  206.3580  153.7880 C   0  0  0  0  0  0  0  0  0  0  0  0
  161.6190  204.4640  149.2580 N   0  0  0  0  0  2  0  0  0  0  0  0
  161.7340  206.8320  151.0860 C   0  0  0  0  0  0  0  0  0  0  0  0
  161.2260  204.4220  150.5940 N   0  0  0  0  0  0  0  0  0  0  0  0
  163.1120  204.3570  146.4170 C   0  0  0  0  0  3  0  0  0  0  0  0
  160.6020  201.1910  149.3000 C   0  0  0  0  0  0  0  0  0  0  0  0
  160.1610  202.5880  149.5320 C   0  0  2  0  0  3  0  0  0  0  0  0
  161.3550  205.5280  151.5090 C   0  0  0  0  0  0  0  0  0  0  0  0
  160.8260  206.1290  155.0910 F   0  0  0  0  0  0  0  0  0  0  0  0
  162.0450  207.1520  149.6490 C   0  0  1  0  0  3  0  0  0  0  0  0
  161.7740  207.8730  152.0270 C   0  0  0  0  0  3  0  0  0  0  0  0
  160.3450  206.9230  146.5380 C   0  0  0  0  0  2  0  0  0  0  0  0
  160.5570  200.3180  150.1530 O   0  0  0  0  0  0  0  0  0  0  0  0
  161.2570  200.9150  147.6580 S   0  0  0  0  0  0  0  0  0  0  0  0
  160.8020  207.6470  148.9180 C   0  0  0  0  0  2  0  0  0  0  0  0
  161.0460  203.3440  148.6210 C   0  0  2  0  0  3  0  0  0  0  0  0
  163.0780  208.0910  149.5600 O   0  0  0  0  0  1  0  0  0  0  0  0
  160.8860  205.5010  146.6050 C   0  0  0  0  0  2  0  0  0  0  0  0
  161.6330  202.6710  147.6290 C   0  0  1  0  0  3  0  0  0  0  0  0
  162.8300  203.1390  146.9030 C   0  0  0  0  0  3  0  0  0  0  0  0
  161.4730  207.6390  153.3690 C   0  0  0  0  0  3  0  0  0  0  0  0
  161.0540  205.3160  152.8640 C   0  0  0  0  0  3  0  0  0  0  0  0
  162.2900  205.4950  146.3900 O   0  0  0  0  0  0  0  0  0  0  0  0
  160.5180  203.1790  150.9030 C   0  0  0  0  0  2  0  0  0  0  0  0
  1 16  1  0  0  0  0
  2 10  1  0  0  0  0
  3  5  1  0  0  0  0
  4  9  2  0  0  0  0
  4 12  1  0  0  0  0
  5 25  1  0  0  0  0
  5  9  1  0  0  0  0
  6 21  2  0  0  0  0
  7  8  1  0  0  0  0
  7 14  2  0  0  0  0
  8 25  1  1  0  0  0
  9 23  1  0  0  0  0
 11 18  1  1  0  0  0
 11  4  1  0  0  0  0
 12 22  2  0  0  0  0
 13 19  1  0  0  0  0
 13  1  1  0  0  0  0
 15  7  1  0  0  0  0
 16 11  1  0  0  0  0
 17  3  1  1  0  0  0
 17  8  1  0  0  0  0
 20 21  1  1  0  0  0
 20 15  1  0  0  0  0
 20 17  1  0  0  0  0
 22  2  1  0  0  0  0
 23  2  2  0  0  0  0
 24  6  1  0  0  0  0
 24 19  1  0  0  0  0
M  END
>  <MODEL>
3

>  <REMARK>
 VINA RESULT:      -4.6      5.227      8.166
  Name = 
  0 active torsions:
  status: ('A' for Active; 'I' for Inactive)
                            x       y       z     vdW  Elec       q    Type
                         _______ _______ _______ _____ _____    ______ ____

>  <TORSDO>
F 0

$$$$
=
 OpenBabel11052410163D

 25 28  0  0  1  0  0  0  0  0999 V2000
  162.3620  208.6520  148.7880 C   0  0  0  0  0  2  0  0  0  0  0  0
  160.8050  202.5750  150.5760 C   0  0  0  0  0  0  0  0  0  0  0  0
  160.8030  207.2720  152.0910 N   0  0  0  0  0  2  0  0  0  0  0  0
  160.8370  205.2900  149.8480 C   0  0  0  0  0  0  0  0  0  0  0  0
  160.9120  205.8970  152.2840 N   0  0  0  0  0  0  0  0  0  0  0  0
  159.8990  210.3320  151.7240 C   0  0  0  0  0  3  0  0  0  0  0  0
  161.0800  207.3420  155.5070 C   0  0  0  0  0  0  0  0  0  0  0  0
  161.7530  206.9110  154.2560 C   0  0  2  0  0  3  0  0  0  0  0  0
  160.8440  204.9240  151.2230 C   0  0  0  0  0  0  0  0  0  0  0  0
  160.7850  201.2660  150.9280 F   0  0  0  0  0  0  0  0  0  0  0  0
  160.8840  206.7250  149.3970 C   0  0  1  0  0  3  0  0  0  0  0  0
  160.8360  204.2810  148.8710 C   0  0  0  0  0  3  0  0  0  0  0  0
  163.0670  209.4910  149.8510 C   0  0  0  0  0  2  0  0  0  0  0  0
  160.7750  206.5760  156.4070 O   0  0  0  0  0  0  0  0  0  0  0  0
  160.7120  209.0920  155.5500 S   0  0  0  0  0  0  0  0  0  0  0  0
  162.3220  207.1750  149.1580 C   0  0  0  0  0  2  0  0  0  0  0  0
  161.2400  207.8940  153.2780 C   0  0  2  0  0  3  0  0  0  0  0  0
  160.1100  206.9120  148.2490 O   0  0  0  0  0  1  0  0  0  0  0  0
  162.2360  209.6490  151.1180 C   0  0  0  0  0  2  0  0  0  0  0  0
  160.7270  209.0310  153.7550 C   0  0  1  0  0  3  0  0  0  0  0  0
  159.8190  209.9130  152.9980 C   0  0  0  0  0  3  0  0  0  0  0  0
  160.8160  202.9340  149.2300 C   0  0  0  0  0  3  0  0  0  0  0  0
  160.8260  203.5610  151.5610 C   0  0  0  0  0  3  0  0  0  0  0  0
  160.9310  210.1100  150.8000 O   0  0  0  0  0  0  0  0  0  0  0  0
  161.2690  205.5780  153.6670 C   0  0  0  0  0  2  0  0  0  0  0  0
  1 16  1  0  0  0  0
  1 13  1  0  0  0  0
  2 10  1  0  0  0  0
  2 23  1  0  0  0  0
  3  5  1  0  0  0  0
  4  9  1  0  0  0  0
  5 25  1  0  0  0  0
  6 21  2  0  0  0  0
  7 15  1  0  0  0  0
  7 14  2  0  0  0  0
  8 25  1  6  0  0  0
  8  7  1  0  0  0  0
  9 23  2  0  0  0  0
  9  5  1  0  0  0  0
 11 18  1  6  0  0  0
 11  4  1  0  0  0  0
 12 22  1  0  0  0  0
 12  4  2  0  0  0  0
 13 19  1  0  0  0  0
 16 11  1  0  0  0  0
 17  3  1  1  0  0  0
 17 20  1  0  0  0  0
 17  8  1  0  0  0  0
 20 21  1  1  0  0  0
 20 15  1  0  0  0  0
 22  2  2  0  0  0  0
 24 19  1  0  0  0  0
 24  6  1  0  0  0  0
M  END
>  <MODEL>
4

>  <REMARK>
 VINA RESULT:      -4.6      3.903      7.416
  Name = 
  0 active torsions:
  status: ('A' for Active; 'I' for Inactive)
                            x       y       z     vdW  Elec       q    Type
                         _______ _______ _______ _____ _____    ______ ____

>  <TORSDO>
F 0

$$$$
=
 OpenBabel11052410163D

 25 28  0  0  1  0  0  0  0  0999 V2000
  161.5850  207.8190  152.5980 C   0  0  0  0  0  2  0  0  0  0  0  0
  160.2130  213.3580  149.4350 C   0  0  0  0  0  0  0  0  0  0  0  0
  160.1800  211.2260  153.8870 N   0  0  0  0  0  2  0  0  0  0  0  0
  161.2490  211.3370  151.0930 C   0  0  0  0  0  0  0  0  0  0  0  0
  159.6840  212.0860  152.9090 N   0  0  0  0  0  0  0  0  0  0  0  0
  161.7090  209.7630  156.3020 C   0  0  0  0  0  3  0  0  0  0  0  0
  157.6990  212.6430  155.7820 C   0  0  0  0  0  0  0  0  0  0  0  0
  157.9730  211.8800  154.5390 C   0  0  2  0  0  3  0  0  0  0  0  0
  160.2430  212.2130  151.5870 C   0  0  0  0  0  0  0  0  0  0  0  0
  159.7170  214.3340  148.6380 F   0  0  0  0  0  0  0  0  0  0  0  0
  161.8200  210.2190  151.9230 C   0  0  1  0  0  3  0  0  0  0  0  0
  161.6960  211.4840  149.7700 C   0  0  0  0  0  3  0  0  0  0  0  0
  160.5450  207.3710  153.6220 C   0  0  0  0  0  2  0  0  0  0  0  0
  157.1490  213.7320  155.7980 O   0  0  0  0  0  0  0  0  0  0  0  0
  158.2980  211.8310  157.2610 S   0  0  0  0  0  0  0  0  0  0  0  0
  161.0550  208.9210  151.6890 C   0  0  0  0  0  2  0  0  0  0  0  0
  159.2010  211.1390  154.8990 C   0  0  2  0  0  3  0  0  0  0  0  0
  163.1810  210.0460  151.6580 O   0  0  0  0  0  1  0  0  0  0  0  0
  160.3160  208.4070  154.7150 C   0  0  0  0  0  2  0  0  0  0  0  0
  159.4820  211.0010  156.1960 C   0  0  1  0  0  3  0  0  0  0  0  0
  160.8210  210.6770  156.7250 C   0  0  0  0  0  3  0  0  0  0  0  0
  161.1860  212.4880  148.9480 C   0  0  0  0  0  3  0  0  0  0  0  0
  159.7420  213.2150  150.7400 C   0  0  0  0  0  3  0  0  0  0  0  0
  161.5520  208.8010  155.2920 O   0  0  0  0  0  0  0  0  0  0  0  0
  158.4340  212.7150  153.3350 C   0  0  0  0  0  2  0  0  0  0  0  0
  1 13  1  0  0  0  0
  2 23  1  0  0  0  0
  4  9  1  0  0  0  0
  4 11  1  0  0  0  0
  5 25  1  0  0  0  0
  5  3  1  0  0  0  0
  6 21  2  0  0  0  0
  7 14  2  0  0  0  0
  7 15  1  0  0  0  0
  8 25  1  6  0  0  0
  8 17  1  0  0  0  0
  8  7  1  0  0  0  0
  9  5  1  0  0  0  0
 10  2  1  0  0  0  0
 11 18  1  6  0  0  0
 12  4  2  0  0  0  0
 13 19  1  0  0  0  0
 16 11  1  0  0  0  0
 16  1  1  0  0  0  0
 17  3  1  6  0  0  0
 17 20  1  0  0  0  0
 19 24  1  0  0  0  0
 20 21  1  6  0  0  0
 20 15  1  0  0  0  0
 22  2  2  0  0  0  0
 22 12  1  0  0  0  0
 23  9  2  0  0  0  0
 24  6  1  0  0  0  0
M  END
>  <MODEL>
5

>  <REMARK>
 VINA RESULT:      -4.5      2.404      4.878
  Name = 
  0 active torsions:
  status: ('A' for Active; 'I' for Inactive)
                            x       y       z     vdW  Elec       q    Type
                         _______ _______ _______ _____ _____    ______ ____

>  <TORSDO>
F 0

$$$$
=
 OpenBabel11052410163D

 25 28  0  0  1  0  0  0  0  0999 V2000
  157.7960  214.4040  138.6940 C   0  0  0  0  0  2  0  0  0  0  0  0
  154.8050  208.7220  137.5440 C   0  0  0  0  0  0  0  0  0  0  0  0
  158.9170  210.7310  139.3920 N   0  0  0  0  0  2  0  0  0  0  0  0
  156.0270  210.9950  138.6590 C   0  0  0  0  0  0  0  0  0  0  0  0
  158.2020  209.7410  138.7210 N   0  0  0  0  0  0  0  0  0  0  0  0
  160.3900  212.6720  141.4840 C   0  0  0  0  0  3  0  0  0  0  0  0
  161.5090  208.5210  139.0030 C   0  0  0  0  0  0  0  0  0  0  0  0
  160.4930  209.3200  138.2740 C   0  0  2  0  0  3  0  0  0  0  0  0
  156.7910  209.8160  138.4370 C   0  0  0  0  0  0  0  0  0  0  0  0
  154.2150  207.6250  137.0110 F   0  0  0  0  0  0  0  0  0  0  0  0
  156.6330  212.2510  139.2240 C   0  0  1  0  0  3  0  0  0  0  0  0
  154.6710  211.0110  138.2950 C   0  0  0  0  0  3  0  0  0  0  0  0
  159.2800  214.4500  138.3430 C   0  0  0  0  0  2  0  0  0  0  0  0
  161.5950  207.3060  138.9240 O   0  0  0  0  0  0  0  0  0  0  0  0
  162.5720  209.5070  140.0510 S   0  0  0  0  0  0  0  0  0  0  0  0
  157.1060  213.1780  138.1100 C   0  0  0  0  0  2  0  0  0  0  0  0
  160.2870  210.4620  139.1910 C   0  0  2  0  0  3  0  0  0  0  0  0
  155.7270  212.9080  140.0630 O   0  0  0  0  0  1  0  0  0  0  0  0
  160.0940  213.4110  139.1040 C   0  0  0  0  0  2  0  0  0  0  0  0
  161.2340  210.7050  140.0990 C   0  0  1  0  0  3  0  0  0  0  0  0
  161.0250  211.5000  141.3240 C   0  0  0  0  0  3  0  0  0  0  0  0
  154.0620  209.8830  137.7460 C   0  0  0  0  0  3  0  0  0  0  0  0
  156.1580  208.6930  137.8810 C   0  0  0  0  0  3  0  0  0  0  0  0
  159.8340  213.5010  140.4970 O   0  0  0  0  0  0  0  0  0  0  0  0
  159.0900  208.7020  138.1990 C   0  0  0  0  0  2  0  0  0  0  0  0
  2 22  2  0  0  0  0
  2 23  1  0  0  0  0
  4 11  1  0  0  0  0
  5  3  1  0  0  0  0
  7 15  1  0  0  0  0
  8 25  1  1  0  0  0
  8  7  1  0  0  0  0
  8 17  1  0  0  0  0
  9  4  1  0  0  0  0
  9  5  1  0  0  0  0
 10  2  1  0  0  0  0
 11 18  1  6  0  0  0
 12  4  2  0  0  0  0
 13  1  1  0  0  0  0
 13 19  1  0  0  0  0
 14  7  2  0  0  0  0
 15 20  1  0  0  0  0
 16  1  1  0  0  0  0
 16 11  1  0  0  0  0
 17  3  1  1  0  0  0
 17 20  1  0  0  0  0
 19 24  1  0  0  0  0
 20 21  1  1  0  0  0
 21  6  2  0  0  0  0
 22 12  1  0  0  0  0
 23  9  2  0  0  0  0
 24  6  1  0  0  0  0
 25  5  1  0  0  0  0
M  END
>  <MODEL>
6

>  <REMARK>
 VINA RESULT:      -4.0     13.429     15.499
  Name = 
  0 active torsions:
  status: ('A' for Active; 'I' for Inactive)
                            x       y       z     vdW  Elec       q    Type
                         _______ _______ _______ _____ _____    ______ ____

>  <TORSDO>
F 0

$$$$
=
 OpenBabel11052410163D

 25 28  0  0  1  0  0  0  0  0999 V2000
  160.2850  202.3310  150.3350 C   0  0  0  0  0  2  0  0  0  0  0  0
  161.3250  205.0660  144.5040 C   0  0  0  0  0  0  0  0  0  0  0  0
  161.8630  205.7670  149.3600 N   0  0  0  0  0  2  0  0  0  0  0  0
  161.5230  203.8920  147.0510 C   0  0  0  0  0  0  0  0  0  0  0  0
  161.6290  206.1920  148.0540 N   0  0  0  0  0  0  0  0  0  0  0  0
  163.0440  204.8610  152.2060 C   0  0  0  0  0  3  0  0  0  0  0  0
  161.7630  209.1290  150.0190 C   0  0  0  0  0  0  0  0  0  0  0  0
  160.9910  207.9920  149.4620 C   0  0  2  0  0  3  0  0  0  0  0  0
  161.5490  205.3090  146.9190 C   0  0  0  0  0  0  0  0  0  0  0  0
  161.2340  205.6320  143.2760 F   0  0  0  0  0  0  0  0  0  0  0  0
  161.5950  203.2080  148.3890 C   0  0  1  0  0  3  0  0  0  0  0  0
  161.3770  203.1000  145.9010 C   0  0  0  0  0  3  0  0  0  0  0  0
  159.7200  203.2590  151.4060 C   0  0  0  0  0  2  0  0  0  0  0  0
  162.0350  210.1360  149.3840 O   0  0  0  0  0  0  0  0  0  0  0  0
  162.3030  208.8650  151.7040 S   0  0  0  0  0  0  0  0  0  0  0  0
  160.1990  202.9430  148.9430 C   0  0  0  0  0  2  0  0  0  0  0  0
  161.5490  206.8460  150.2120 C   0  0  2  0  0  3  0  0  0  0  0  0
  162.3270  202.0200  148.3030 O   0  0  0  0  0  1  0  0  0  0  0  0
  160.6240  204.4540  151.6820 C   0  0  0  0  0  2  0  0  0  0  0  0
  162.1930  207.1070  151.3500 C   0  0  1  0  0  3  0  0  0  0  0  0
  163.1450  206.1830  151.9960 C   0  0  0  0  0  3  0  0  0  0  0  0
  161.2830  203.6800  144.6370 C   0  0  0  0  0  3  0  0  0  0  0  0
  161.4500  205.8710  145.6360 C   0  0  0  0  0  3  0  0  0  0  0  0
  161.9510  204.0210  151.9450 O   0  0  0  0  0  0  0  0  0  0  0  0
  161.3110  207.6200  148.0070 C   0  0  0  0  0  2  0  0  0  0  0  0
  1 13  1  0  0  0  0
  2 22  2  0  0  0  0
  2 23  1  0  0  0  0
  4 11  1  0  0  0  0
  5  3  1  0  0  0  0
  7 15  1  0  0  0  0
  8 25  1  6  0  0  0
  8  7  1  0  0  0  0
  8 17  1  0  0  0  0
  9  4  1  0  0  0  0
  9  5  1  0  0  0  0
 10  2  1  0  0  0  0
 11 18  1  6  0  0  0
 11 16  1  0  0  0  0
 12  4  2  0  0  0  0
 13 19  1  0  0  0  0
 14  7  2  0  0  0  0
 16  1  1  0  0  0  0
 17  3  1  6  0  0  0
 17 20  1  0  0  0  0
 19 24  1  0  0  0  0
 20 15  1  0  0  0  0
 20 21  1  6  0  0  0
 21  6  2  0  0  0  0
 22 12  1  0  0  0  0
 23  9  2  0  0  0  0
 24  6  1  0  0  0  0
 25  5  1  0  0  0  0
M  END
>  <MODEL>
7

>  <REMARK>
 VINA RESULT:      -3.8      5.582      8.533
  Name = 
  0 active torsions:
  status: ('A' for Active; 'I' for Inactive)
                            x       y       z     vdW  Elec       q    Type
                         _______ _______ _______ _____ _____    ______ ____

>  <TORSDO>
F 0

$$$$
=
 OpenBabel11052410163D

 25 28  0  0  1  0  0  0  0  0999 V2000
  162.6540  211.9060  148.2200 C   0  0  0  0  0  2  0  0  0  0  0  0
  161.8040  207.3730  152.8340 C   0  0  0  0  0  0  0  0  0  0  0  0
  159.9650  211.5840  151.0320 N   0  0  0  0  0  2  0  0  0  0  0  0
  161.6000  209.1080  150.6310 C   0  0  0  0  0  0  0  0  0  0  0  0
  160.2640  210.6880  152.0560 N   0  0  0  0  0  0  0  0  0  0  0  0
  158.7230  213.2870  148.6090 C   0  0  0  0  0  3  0  0  0  0  0  0
  158.4100  213.2940  153.5630 C   0  0  0  0  0  0  0  0  0  0  0  0
  159.7090  212.7380  153.1120 C   0  0  2  0  0  3  0  0  0  0  0  0
  160.9750  209.4490  151.8630 C   0  0  0  0  0  0  0  0  0  0  0  0
  161.8990  206.5350  153.8940 F   0  0  0  0  0  0  0  0  0  0  0  0
  161.5500  210.0110  149.4280 C   0  0  1  0  0  3  0  0  0  0  0  0
  162.3310  207.9130  150.5420 C   0  0  0  0  0  3  0  0  0  0  0  0
  162.4980  213.3520  148.6800 C   0  0  0  0  0  2  0  0  0  0  0  0
  157.8630  212.9720  154.6060 O   0  0  0  0  0  0  0  0  0  0  0  0
  157.6910  214.4530  152.4050 S   0  0  0  0  0  0  0  0  0  0  0  0
  162.7600  210.9390  149.3920 C   0  0  0  0  0  2  0  0  0  0  0  0
  159.5720  212.7940  151.6410 C   0  0  2  0  0  3  0  0  0  0  0  0
  161.4640  209.2650  148.2490 O   0  0  0  0  0  1  0  0  0  0  0  0
  161.1200  213.6340  149.2660 C   0  0  0  0  0  2  0  0  0  0  0  0
  158.6470  213.6140  151.1370 C   0  0  1  0  0  3  0  0  0  0  0  0
  158.0920  213.5010  149.7740 C   0  0  0  0  0  3  0  0  0  0  0  0
  162.4300  207.0490  151.6320 C   0  0  0  0  0  3  0  0  0  0  0  0
  161.0910  208.5650  152.9480 C   0  0  0  0  0  3  0  0  0  0  0  0
  160.1040  213.2070  148.3710 O   0  0  0  0  0  0  0  0  0  0  0  0
  159.9140  211.2380  153.3660 C   0  0  0  0  0  2  0  0  0  0  0  0
  1 13  1  0  0  0  0
  1 16  1  0  0  0  0
  2 23  1  0  0  0  0
  2 10  1  0  0  0  0
  3  5  1  0  0  0  0
  4  9  1  0  0  0  0
  5 25  1  0  0  0  0
  6 21  2  0  0  0  0
  7 14  2  0  0  0  0
  8 25  1  1  0  0  0
  8  7  1  0  0  0  0
  9  5  1  0  0  0  0
  9 23  2  0  0  0  0
 11 18  1  6  0  0  0
 11  4  1  0  0  0  0
 12  4  2  0  0  0  0
 12 22  1  0  0  0  0
 13 19  1  0  0  0  0
 15  7  1  0  0  0  0
 16 11  1  0  0  0  0
 17  3  1  1  0  0  0
 17  8  1  0  0  0  0
 20 21  1  6  0  0  0
 20 17  1  0  0  0  0
 20 15  1  0  0  0  0
 22  2  2  0  0  0  0
 24  6  1  0  0  0  0
 24 19  1  0  0  0  0
M  END
>  <MODEL>
8

>  <REMARK>
 VINA RESULT:      -3.7      3.507      7.225
  Name = 
  0 active torsions:
  status: ('A' for Active; 'I' for Inactive)
                            x       y       z     vdW  Elec       q    Type
                         _______ _______ _______ _____ _____    ______ ____

>  <TORSDO>
F 0

$$$$
=
 OpenBabel11052410163D

 25 28  0  0  1  0  0  0  0  0999 V2000
  160.4540  206.2360  155.3950 C   0  0  0  0  0  2  0  0  0  0  0  0
  161.6180  208.1800  149.2780 C   0  0  0  0  0  0  0  0  0  0  0  0
  160.8510  209.8090  153.8740 N   0  0  0  0  0  2  0  0  0  0  0  0
  161.6950  207.6080  152.0290 C   0  0  0  0  0  0  0  0  0  0  0  0
  160.7540  209.8910  152.4860 N   0  0  0  0  0  0  0  0  0  0  0  0
  161.6630  209.9160  156.9780 C   0  0  0  0  0  3  0  0  0  0  0  0
  159.4100  212.9170  153.7280 C   0  0  0  0  0  0  0  0  0  0  0  0
  159.2330  211.4930  153.3510 C   0  0  2  0  0  3  0  0  0  0  0  0
  161.2350  208.8770  151.5820 C   0  0  0  0  0  0  0  0  0  0  0  0
  161.5840  208.4580  147.9520 F   0  0  0  0  0  0  0  0  0  0  0  0
  161.7310  207.2340  153.4860 C   0  0  1  0  0  3  0  0  0  0  0  0
  162.0860  206.6480  151.0820 C   0  0  0  0  0  3  0  0  0  0  0  0
  159.3830  207.0250  156.1450 C   0  0  0  0  0  2  0  0  0  0  0  0
  159.4260  213.8320  152.9210 O   0  0  0  0  0  0  0  0  0  0  0  0
  159.6480  213.1630  155.4850 S   0  0  0  0  0  0  0  0  0  0  0  0
  160.4420  206.5310  153.9010 C   0  0  0  0  0  2  0  0  0  0  0  0
  159.9990  210.7980  154.4080 C   0  0  2  0  0  3  0  0  0  0  0  0
  162.8430  206.4350  153.7680 O   0  0  0  0  0  1  0  0  0  0  0  0
  159.7170  208.5070  156.2540 C   0  0  0  0  0  2  0  0  0  0  0  0
  160.2560  211.4730  155.5300 C   0  0  1  0  0  3  0  0  0  0  0  0
  161.3210  211.1180  156.4870 C   0  0  0  0  0  3  0  0  0  0  0  0
  162.0520  206.9320  149.7170 C   0  0  0  0  0  3  0  0  0  0  0  0
  161.2060  209.1400  150.2020 C   0  0  0  0  0  3  0  0  0  0  0  0
  161.0260  208.6820  156.7780 O   0  0  0  0  0  0  0  0  0  0  0  0
  159.9590  211.0490  152.0730 C   0  0  0  0  0  2  0  0  0  0  0  0
  1 13  1  0  0  0  0
  2 22  2  0  0  0  0
  2 23  1  0  0  0  0
  4 11  1  0  0  0  0
  5  3  1  0  0  0  0
  7 15  1  0  0  0  0
  8 25  1  6  0  0  0
  8  7  1  0  0  0  0
  8 17  1  0  0  0  0
  9  4  1  0  0  0  0
  9  5  1  0  0  0  0
 10  2  1  0  0  0  0
 11 18  1  6  0  0  0
 11 16  1  0  0  0  0
 12  4  2  0  0  0  0
 13 19  1  0  0  0  0
 14  7  2  0  0  0  0
 15 20  1  0  0  0  0
 16  1  1  0  0  0  0
 17  3  1  6  0  0  0
 17 20  1  0  0  0  0
 19 24  1  0  0  0  0
 20 21  1  6  0  0  0
 21  6  2  0  0  0  0
 22 12  1  0  0  0  0
 23  9  2  0  0  0  0
 24  6  1  0  0  0  0
 25  5  1  0  0  0  0
M  END
>  <MODEL>
9

>  <REMARK>
 VINA RESULT:      -3.5      2.624      5.318
  Name = 
  0 active torsions:
  status: ('A' for Active; 'I' for Inactive)
                            x       y       z     vdW  Elec       q    Type
                         _______ _______ _______ _____ _____    ______ ____

>  <TORSDO>
F 0

$$$$
