=
 OpenBabel11052409563D

 29 30  0  0  1  0  0  0  0  0999 V2000
  160.5350  209.7080  154.5380 N   0  0  0  0  0  0  0  0  0  0  0  0
  161.4820  209.7530  156.6500 O   0  0  0  0  0  0  0  0  0  0  0  0
  160.9330  209.0590  155.7560 C   0  0  0  0  0  0  0  0  0  0  0  0
  160.5170  209.2680  153.3070 C   0  0  0  0  0  0  0  0  0  0  0  0
  161.4880  206.9770  153.8860 C   0  0  0  0  0  2  0  0  0  0  0  0
  161.0070  207.9570  152.9260 N   0  0  0  0  0  0  0  0  0  0  0  0
  160.4040  206.7160  154.9040 C   0  0  0  0  0  2  0  0  0  0  0  0
  160.5860  207.6360  156.0960 C   0  0  0  0  0  2  0  0  0  0  0  0
  161.2110  206.0250  151.4230 C   0  0  0  0  0  2  0  0  0  0  0  0
  162.0820  208.2470  150.7230 C   0  0  0  0  0  0  0  0  0  0  0  0
  162.6680  209.2460  151.2190 O   0  0  0  0  0  0  0  0  0  0  0  0
  160.5050  205.5230  150.2160 C   0  0  0  0  0  3  0  0  0  0  0  0
  161.0350  207.5270  151.5260 C   0  0  2  0  0  3  0  0  0  0  0  0
  160.7940  205.8920  148.9700 C   0  0  0  0  0  3  0  0  0  0  0  0
  162.1650  206.8330  147.3290 O   0  0  0  0  0  0  0  0  0  0  0  0
  162.4100  207.8650  149.3810 N   0  0  0  0  0  2  0  0  0  0  0  0
  161.8150  206.8660  148.5360 C   0  0  0  0  0  0  0  0  0  0  0  0
  160.0250  210.1090  152.3020 O   0  0  0  0  0  0  0  0  0  0  0  0
  160.0460  211.5280  152.4010 C   0  0  0  0  0  2  0  0  0  0  0  0
  158.6250  212.0770  152.4480 C   0  0  1  0  0  3  0  0  0  0  0  0
  158.2090  212.5320  153.8550 C   0  0  2  0  0  3  0  0  0  0  0  0
  159.3480  212.9350  154.5580 O   0  0  0  0  0  1  0  0  0  0  0  0
  157.4320  211.4750  154.6560 C   0  0  2  0  0  3  0  0  0  0  0  0
  156.0000  211.6850  154.5140 N   0  0  0  0  0  1  0  0  0  0  0  0
  157.8000  211.5400  156.1320 C   0  0  0  0  0  2  0  0  0  0  0  0
  156.4170  212.2090  157.1050 S   0  0  0  0  0  0  0  0  0  0  0  0
  157.1990  213.8400  157.2600 C   0  0  0  0  0  1  0  0  0  0  0  0
  158.3330  213.0990  151.3460 C   0  0  0  0  0  2  0  0  0  0  0  0
  159.4620  213.3300  150.5580 O   0  0  0  0  0  1  0  0  0  0  0  0
  1  3  1  0  0  0  0
  3  8  1  0  0  0  0
  3  2  2  0  0  0  0
  4  1  2  0  0  0  0
  5  7  1  0  0  0  0
  6  4  1  0  0  0  0
  6  5  1  0  0  0  0
  7  8  1  0  0  0  0
 10 11  2  0  0  0  0
 10 13  1  0  0  0  0
 12  9  1  0  0  0  0
 13  9  1  1  0  0  0
 13  6  1  0  0  0  0
 14 12  2  0  0  0  0
 15 17  2  0  0  0  0
 16 10  1  0  0  0  0
 17 14  1  0  0  0  0
 17 16  1  0  0  0  0
 18 19  1  0  0  0  0
 18  4  1  0  0  0  0
 19 20  1  0  0  0  0
 20 28  1  6  0  0  0
 20 21  1  0  0  0  0
 21 22  1  1  0  0  0
 21 23  1  0  0  0  0
 23 24  1  1  0  0  0
 23 25  1  0  0  0  0
 25 26  1  0  0  0  0
 26 27  1  0  0  0  0
 29 28  1  0  0  0  0
M  END
>  <MODEL>
1

>  <REMARK>
 VINA RESULT:      -6.2      0.000      0.000
  Name = 
  9 active torsions:
  status: ('A' for Active; 'I' for Inactive)
    1  A    between atoms: C_2  and  C_4
    2  A    between atoms: C_2  and  C_18
    3  A    between atoms: C_4  and  C_17
    4  A    between atoms: C_5  and  C_18
    5  A    between atoms: S_9  and  C_17
    6  A    between atoms: C_10  and  O_12
    7  A    between atoms: O_12  and  C_16
    8  A    between atoms: C_16  and  C_18
    9  A    between atoms: C_19  and  N_22
                            x       y       z     vdW  Elec       q    Type
                         _______ _______ _______ _____ _____    ______ ____

>  <TORSDO>
F 9

$$$$
=
 OpenBabel11052409563D

 29 30  0  0  1  0  0  0  0  0999 V2000
  161.1640  203.7690  150.5130 N   0  0  0  0  0  0  0  0  0  0  0  0
  162.1700  202.2840  151.9760 O   0  0  0  0  0  0  0  0  0  0  0  0
  161.4440  202.4340  150.9610 C   0  0  0  0  0  0  0  0  0  0  0  0
  161.0000  204.2450  149.3070 C   0  0  0  0  0  0  0  0  0  0  0  0
  161.4340  202.0150  148.1390 C   0  0  0  0  0  2  0  0  0  0  0  0
  161.1590  203.4420  148.1090 N   0  0  0  0  0  0  0  0  0  0  0  0
  160.3560  201.3250  148.9390 C   0  0  0  0  0  2  0  0  0  0  0  0
  160.7890  201.2070  150.3880 C   0  0  0  0  0  2  0  0  0  0  0  0
  160.7570  202.9600  145.7340 C   0  0  0  0  0  2  0  0  0  0  0  0
  162.2380  204.8470  146.3890 C   0  0  0  0  0  0  0  0  0  0  0  0
  163.1010  205.1290  147.2630 O   0  0  0  0  0  0  0  0  0  0  0  0
  159.9150  203.5270  144.6500 C   0  0  0  0  0  3  0  0  0  0  0  0
  161.0360  204.0280  146.7710 C   0  0  2  0  0  3  0  0  0  0  0  0
  160.2810  204.5400  143.8680 C   0  0  0  0  0  3  0  0  0  0  0  0
  161.8440  205.9930  142.9170 O   0  0  0  0  0  0  0  0  0  0  0  0
  162.4160  205.3650  145.0660 N   0  0  0  0  0  2  0  0  0  0  0  0
  161.5390  205.3120  143.9290 C   0  0  0  0  0  0  0  0  0  0  0  0
  160.6800  205.6010  149.1580 O   0  0  0  0  0  0  0  0  0  0  0  0
  160.2660  206.4210  150.2420 C   0  0  0  0  0  2  0  0  0  0  0  0
  161.2220  207.5960  150.4140 C   0  0  1  0  0  3  0  0  0  0  0  0
  161.8760  207.6340  151.8020 C   0  0  2  0  0  3  0  0  0  0  0  0
  162.5960  206.4520  151.9990 O   0  0  0  0  0  1  0  0  0  0  0  0
  160.8900  207.8580  152.9590 C   0  0  2  0  0  3  0  0  0  0  0  0
  160.8550  209.2640  153.3280 N   0  0  0  0  0  1  0  0  0  0  0  0
  161.2920  207.0350  154.1760 C   0  0  0  0  0  2  0  0  0  0  0  0
  161.2790  208.0640  155.6750 S   0  0  0  0  0  0  0  0  0  0  0  0
  159.8260  207.2130  156.3540 C   0  0  0  0  0  1  0  0  0  0  0  0
  162.2060  207.7520  149.2510 C   0  0  0  0  0  2  0  0  0  0  0  0
  162.0170  208.9640  148.5850 O   0  0  0  0  0  1  0  0  0  0  0  0
  1  3  1  0  0  0  0
  3  2  2  0  0  0  0
  4  1  2  0  0  0  0
  5  7  1  0  0  0  0
  6  5  1  0  0  0  0
  6  4  1  0  0  0  0
  7  8  1  0  0  0  0
  8  3  1  0  0  0  0
 10 13  1  0  0  0  0
 10 11  2  0  0  0  0
 12  9  1  0  0  0  0
 13  9  1  6  0  0  0
 13  6  1  0  0  0  0
 14 17  1  0  0  0  0
 14 12  2  0  0  0  0
 15 17  2  0  0  0  0
 16 10  1  0  0  0  0
 17 16  1  0  0  0  0
 18  4  1  0  0  0  0
 18 19  1  0  0  0  0
 19 20  1  0  0  0  0
 20 28  1  6  0  0  0
 20 21  1  0  0  0  0
 21 22  1  1  0  0  0
 21 23  1  0  0  0  0
 23 24  1  1  0  0  0
 23 25  1  0  0  0  0
 25 26  1  0  0  0  0
 26 27  1  0  0  0  0
 29 28  1  0  0  0  0
M  END
>  <MODEL>
2

>  <REMARK>
 VINA RESULT:      -5.9      4.039      6.462
  Name = 
  9 active torsions:
  status: ('A' for Active; 'I' for Inactive)
    1  A    between atoms: C_2  and  C_4
    2  A    between atoms: C_2  and  C_18
    3  A    between atoms: C_4  and  C_17
    4  A    between atoms: C_5  and  C_18
    5  A    between atoms: S_9  and  C_17
    6  A    between atoms: C_10  and  O_12
    7  A    between atoms: O_12  and  C_16
    8  A    between atoms: C_16  and  C_18
    9  A    between atoms: C_19  and  N_22
                            x       y       z     vdW  Elec       q    Type
                         _______ _______ _______ _____ _____    ______ ____

>  <TORSDO>
F 9

$$$$
=
 OpenBabel11052409563D

 29 30  0  0  1  0  0  0  0  0999 V2000
  160.6140  209.5640  154.5800 N   0  0  0  0  0  0  0  0  0  0  0  0
  161.6140  209.5740  156.6680 O   0  0  0  0  0  0  0  0  0  0  0  0
  161.0500  208.8940  155.7730 C   0  0  0  0  0  0  0  0  0  0  0  0
  160.5690  209.1520  153.3410 C   0  0  0  0  0  0  0  0  0  0  0  0
  161.5790  206.8600  153.8440 C   0  0  0  0  0  2  0  0  0  0  0  0
  161.0630  207.8540  152.9180 N   0  0  0  0  0  0  0  0  0  0  0  0
  160.5240  206.5640  154.8830 C   0  0  0  0  0  2  0  0  0  0  0  0
  160.7270  207.4600  156.0900 C   0  0  0  0  0  2  0  0  0  0  0  0
  161.1840  205.9520  151.3700 C   0  0  0  0  0  2  0  0  0  0  0  0
  162.1220  208.1580  150.7090 C   0  0  0  0  0  0  0  0  0  0  0  0
  162.7470  209.1250  151.2200 O   0  0  0  0  0  0  0  0  0  0  0  0
  160.4470  205.5010  150.1610 C   0  0  0  0  0  3  0  0  0  0  0  0
  161.0600  207.4560  151.5080 C   0  0  2  0  0  3  0  0  0  0  0  0
  160.7330  205.8880  148.9200 C   0  0  0  0  0  3  0  0  0  0  0  0
  162.1160  206.8190  147.2830 O   0  0  0  0  0  0  0  0  0  0  0  0
  162.4200  207.7960  149.3550 N   0  0  0  0  0  2  0  0  0  0  0  0
  161.7820  206.8370  148.4960 C   0  0  0  0  0  0  0  0  0  0  0  0
  160.0420  210.0090  152.3670 O   0  0  0  0  0  0  0  0  0  0  0  0
  160.5370  211.3240  152.1450 C   0  0  0  0  0  2  0  0  0  0  0  0
  159.5370  212.3580  152.6480 C   0  0  1  0  0  3  0  0  0  0  0  0
  159.4960  213.6210  151.7750 C   0  0  2  0  0  3  0  0  0  0  0  0
  158.4670  214.4530  152.2260 O   0  0  0  0  0  1  0  0  0  0  0  0
  159.3400  213.3450  150.2720 C   0  0  2  0  0  3  0  0  0  0  0  0
  160.6120  213.5250  149.5900 N   0  0  0  0  0  1  0  0  0  0  0  0
  158.3090  214.2810  149.6560 C   0  0  0  0  0  2  0  0  0  0  0  0
  156.8900  213.3390  149.0210 S   0  0  0  0  0  0  0  0  0  0  0  0
  157.6470  213.1290  147.3840 C   0  0  0  0  0  1  0  0  0  0  0  0
  158.1600  211.7680  152.9630 C   0  0  0  0  0  2  0  0  0  0  0  0
  157.9310  211.7240  154.3390 O   0  0  0  0  0  1  0  0  0  0  0  0
  1  3  1  0  0  0  0
  3  8  1  0  0  0  0
  3  2  2  0  0  0  0
  4  1  2  0  0  0  0
  5  7  1  0  0  0  0
  6  4  1  0  0  0  0
  6  5  1  0  0  0  0
  7  8  1  0  0  0  0
 10 11  2  0  0  0  0
 10 13  1  0  0  0  0
 12  9  1  0  0  0  0
 13  9  1  1  0  0  0
 13  6  1  0  0  0  0
 14 12  2  0  0  0  0
 15 17  2  0  0  0  0
 16 10  1  0  0  0  0
 17 14  1  0  0  0  0
 17 16  1  0  0  0  0
 18  4  1  0  0  0  0
 19 18  1  0  0  0  0
 20 19  1  6  0  0  0
 20 28  1  0  0  0  0
 21 22  1  1  0  0  0
 21 20  1  0  0  0  0
 23 24  1  6  0  0  0
 23 21  1  0  0  0  0
 25 23  1  0  0  0  0
 26 25  1  0  0  0  0
 27 26  1  0  0  0  0
 28 29  1  0  0  0  0
M  END
>  <MODEL>
3

>  <REMARK>
 VINA RESULT:      -5.8      2.221      3.379
  Name = 
  9 active torsions:
  status: ('A' for Active; 'I' for Inactive)
    1  A    between atoms: C_2  and  C_4
    2  A    between atoms: C_2  and  C_18
    3  A    between atoms: C_4  and  C_17
    4  A    between atoms: C_5  and  C_18
    5  A    between atoms: S_9  and  C_17
    6  A    between atoms: C_10  and  O_12
    7  A    between atoms: O_12  and  C_16
    8  A    between atoms: C_16  and  C_18
    9  A    between atoms: C_19  and  N_22
                            x       y       z     vdW  Elec       q    Type
                         _______ _______ _______ _____ _____    ______ ____

>  <TORSDO>
F 9

$$$$
=
 OpenBabel11052409563D

 29 30  0  0  1  0  0  0  0  0999 V2000
  161.1880  208.4210  154.6880 N   0  0  0  0  0  0  0  0  0  0  0  0
  161.5480  207.5680  156.8100 O   0  0  0  0  0  0  0  0  0  0  0  0
  161.5680  208.5790  156.0640 C   0  0  0  0  0  0  0  0  0  0  0  0
  160.5630  209.2350  153.8790 C   0  0  0  0  0  0  0  0  0  0  0  0
  160.2360  211.0650  155.6310 C   0  0  0  0  0  2  0  0  0  0  0  0
  160.0420  210.5230  154.2960 N   0  0  0  0  0  0  0  0  0  0  0  0
  161.7160  211.1210  155.9270 C   0  0  0  0  0  2  0  0  0  0  0  0
  162.1470  209.8480  156.6290 C   0  0  0  0  0  2  0  0  0  0  0  0
  160.1450  212.5140  152.8620 C   0  0  0  0  0  2  0  0  0  0  0  0
  158.0160  211.9000  153.9910 C   0  0  0  0  0  0  0  0  0  0  0  0
  157.6150  211.4280  155.0880 O   0  0  0  0  0  0  0  0  0  0  0  0
  159.7270  212.8660  151.4800 C   0  0  0  0  0  3  0  0  0  0  0  0
  159.2850  211.3780  153.3780 C   0  0  2  0  0  3  0  0  0  0  0  0
  158.5130  213.3040  151.1520 C   0  0  0  0  0  3  0  0  0  0  0  0
  156.4190  214.2240  151.6290 O   0  0  0  0  0  0  0  0  0  0  0  0
  157.2100  212.8930  153.3440 N   0  0  0  0  0  2  0  0  0  0  0  0
  157.3560  213.4980  152.0490 C   0  0  0  0  0  0  0  0  0  0  0  0
  160.3630  208.8390  152.5510 O   0  0  0  0  0  0  0  0  0  0  0  0
  161.4330  208.6160  151.6400 C   0  0  0  0  0  2  0  0  0  0  0  0
  161.3950  207.1840  151.1190 C   0  0  1  0  0  3  0  0  0  0  0  0
  161.6980  207.0890  149.6160 C   0  0  2  0  0  3  0  0  0  0  0  0
  161.7370  208.3790  149.0780 O   0  0  0  0  0  1  0  0  0  0  0  0
  160.7140  206.2110  148.8280 C   0  0  2  0  0  3  0  0  0  0  0  0
  161.0820  204.8090  148.9460 N   0  0  0  0  0  1  0  0  0  0  0  0
  160.7060  206.5990  147.3550 C   0  0  0  0  0  2  0  0  0  0  0  0
  161.8320  205.5320  146.4070 S   0  0  0  0  0  0  0  0  0  0  0  0
  160.7870  205.5970  144.9230 C   0  0  0  0  0  1  0  0  0  0  0  0
  162.1910  206.2020  151.9830 C   0  0  0  0  0  2  0  0  0  0  0  0
  161.3550  205.5030  152.8560 O   0  0  0  0  0  1  0  0  0  0  0  0
  1  3  1  0  0  0  0
  3  8  1  0  0  0  0
  3  2  2  0  0  0  0
  4  6  1  0  0  0  0
  4  1  2  0  0  0  0
  5  7  1  0  0  0  0
  6  5  1  0  0  0  0
  7  8  1  0  0  0  0
 10 11  2  0  0  0  0
 12  9  1  0  0  0  0
 13  9  1  1  0  0  0
 13 10  1  0  0  0  0
 13  6  1  0  0  0  0
 14 12  2  0  0  0  0
 14 17  1  0  0  0  0
 15 17  2  0  0  0  0
 16 10  1  0  0  0  0
 17 16  1  0  0  0  0
 18  4  1  0  0  0  0
 19 18  1  0  0  0  0
 20 19  1  1  0  0  0
 20 28  1  0  0  0  0
 21 22  1  6  0  0  0
 21 20  1  0  0  0  0
 23 24  1  6  0  0  0
 23 21  1  0  0  0  0
 25 23  1  0  0  0  0
 26 25  1  0  0  0  0
 27 26  1  0  0  0  0
 28 29  1  0  0  0  0
M  END
>  <MODEL>
4

>  <REMARK>
 VINA RESULT:      -5.5      3.203      7.417
  Name = 
  9 active torsions:
  status: ('A' for Active; 'I' for Inactive)
    1  A    between atoms: C_2  and  C_4
    2  A    between atoms: C_2  and  C_18
    3  A    between atoms: C_4  and  C_17
    4  A    between atoms: C_5  and  C_18
    5  A    between atoms: S_9  and  C_17
    6  A    between atoms: C_10  and  O_12
    7  A    between atoms: O_12  and  C_16
    8  A    between atoms: C_16  and  C_18
    9  A    between atoms: C_19  and  N_22
                            x       y       z     vdW  Elec       q    Type
                         _______ _______ _______ _____ _____    ______ ____

>  <TORSDO>
F 9

$$$$
=
 OpenBabel11052409563D

 29 30  0  0  1  0  0  0  0  0999 V2000
  160.1950  209.9210  154.8830 N   0  0  0  0  0  0  0  0  0  0  0  0
  161.1750  210.1070  156.9720 O   0  0  0  0  0  0  0  0  0  0  0  0
  160.7220  209.3390  156.0860 C   0  0  0  0  0  0  0  0  0  0  0  0
  160.2170  209.4890  153.6500 C   0  0  0  0  0  0  0  0  0  0  0  0
  161.5550  207.3810  154.1860 C   0  0  0  0  0  2  0  0  0  0  0  0
  160.9000  208.2750  153.2460 N   0  0  0  0  0  0  0  0  0  0  0  0
  160.5530  206.9450  155.2270 C   0  0  0  0  0  2  0  0  0  0  0  0
  160.6150  207.8760  156.4220 C   0  0  0  0  0  2  0  0  0  0  0  0
  161.2540  206.3790  151.7250 C   0  0  0  0  0  2  0  0  0  0  0  0
  161.9500  208.6680  151.0460 C   0  0  0  0  0  0  0  0  0  0  0  0
  162.4560  209.7050  151.5520 O   0  0  0  0  0  0  0  0  0  0  0  0
  160.5890  205.8350  150.5130 C   0  0  0  0  0  3  0  0  0  0  0  0
  160.9620  207.8620  151.8410 C   0  0  2  0  0  3  0  0  0  0  0  0
  160.8480  206.2370  149.2700 C   0  0  0  0  0  3  0  0  0  0  0  0
  162.1420  207.2960  147.6390 O   0  0  0  0  0  0  0  0  0  0  0  0
  162.3060  208.3260  149.7010 N   0  0  0  0  0  2  0  0  0  0  0  0
  161.7910  207.2920  148.8470 C   0  0  0  0  0  0  0  0  0  0  0  0
  159.5720  210.2460  152.6630 O   0  0  0  0  0  0  0  0  0  0  0  0
  158.7080  211.3350  152.9650 C   0  0  0  0  0  2  0  0  0  0  0  0
  158.9700  212.4980  152.0140 C   0  0  1  0  0  3  0  0  0  0  0  0
  158.6370  213.8620  152.6360 C   0  0  2  0  0  3  0  0  0  0  0  0
  158.6940  213.7530  154.0280 O   0  0  0  0  0  1  0  0  0  0  0  0
  157.2820  214.4400  152.2000 C   0  0  2  0  0  3  0  0  0  0  0  0
  156.2780  214.2020  153.2250 N   0  0  0  0  0  1  0  0  0  0  0  0
  156.8190  213.8060  150.8950 C   0  0  0  0  0  2  0  0  0  0  0  0
  155.1730  214.4250  150.4330 S   0  0  0  0  0  0  0  0  0  0  0  0
  155.5440  214.3440  148.6570 C   0  0  0  0  0  1  0  0  0  0  0  0
  160.3430  212.4330  151.3400 C   0  0  0  0  0  2  0  0  0  0  0  0
  160.3440  213.1220  150.1260 O   0  0  0  0  0  1  0  0  0  0  0  0
  1  3  1  0  0  0  0
  3  8  1  0  0  0  0
  3  2  2  0  0  0  0
  4  1  2  0  0  0  0
  5  7  1  0  0  0  0
  6  4  1  0  0  0  0
  6  5  1  0  0  0  0
  7  8  1  0  0  0  0
 10 11  2  0  0  0  0
 10 13  1  0  0  0  0
 12  9  1  0  0  0  0
 13  9  1  1  0  0  0
 13  6  1  0  0  0  0
 14 12  2  0  0  0  0
 15 17  2  0  0  0  0
 16 10  1  0  0  0  0
 17 14  1  0  0  0  0
 17 16  1  0  0  0  0
 18 19  1  0  0  0  0
 18  4  1  0  0  0  0
 20 28  1  1  0  0  0
 20 21  1  0  0  0  0
 20 19  1  0  0  0  0
 21 22  1  1  0  0  0
 23 21  1  0  0  0  0
 23 24  1  1  0  0  0
 25 23  1  0  0  0  0
 26 25  1  0  0  0  0
 27 26  1  0  0  0  0
 29 28  1  0  0  0  0
M  END
>  <MODEL>
5

>  <REMARK>
 VINA RESULT:      -5.5      1.958      2.640
  Name = 
  9 active torsions:
  status: ('A' for Active; 'I' for Inactive)
    1  A    between atoms: C_2  and  C_4
    2  A    between atoms: C_2  and  C_18
    3  A    between atoms: C_4  and  C_17
    4  A    between atoms: C_5  and  C_18
    5  A    between atoms: S_9  and  C_17
    6  A    between atoms: C_10  and  O_12
    7  A    between atoms: O_12  and  C_16
    8  A    between atoms: C_16  and  C_18
    9  A    between atoms: C_19  and  N_22
                            x       y       z     vdW  Elec       q    Type
                         _______ _______ _______ _____ _____    ______ ____

>  <TORSDO>
F 9

$$$$
=
 OpenBabel11052409563D

 29 30  0  0  1  0  0  0  0  0999 V2000
  160.2910  204.1330  149.7770 N   0  0  0  0  0  0  0  0  0  0  0  0
  159.7020  201.9400  150.2230 O   0  0  0  0  0  0  0  0  0  0  0  0
  160.4880  202.8890  150.4680 C   0  0  0  0  0  0  0  0  0  0  0  0
  160.4800  205.3650  150.1730 C   0  0  0  0  0  0  0  0  0  0  0  0
  161.2070  204.7190  152.5350 C   0  0  0  0  0  2  0  0  0  0  0  0
  160.8890  205.7110  151.5210 N   0  0  0  0  0  0  0  0  0  0  0  0
  162.2950  203.8130  152.0100 C   0  0  0  0  0  2  0  0  0  0  0  0
  161.6760  202.6000  151.3440 C   0  0  0  0  0  2  0  0  0  0  0  0
  162.3310  207.6980  151.4660 C   0  0  0  0  0  2  0  0  0  0  0  0
  160.8710  207.2720  153.4340 C   0  0  0  0  0  0  0  0  0  0  0  0
  160.4570  206.3050  154.1280 O   0  0  0  0  0  0  0  0  0  0  0  0
  162.1530  209.1480  151.1980 C   0  0  0  0  0  3  0  0  0  0  0  0
  161.0210  207.1070  151.9470 C   0  0  2  0  0  3  0  0  0  0  0  0
  161.7990  210.0440  152.1170 C   0  0  0  0  0  3  0  0  0  0  0  0
  161.5050  210.7870  154.3130 O   0  0  0  0  0  0  0  0  0  0  0  0
  161.1380  208.5160  154.0920 N   0  0  0  0  0  2  0  0  0  0  0  0
  161.4880  209.7950  153.5390 C   0  0  0  0  0  0  0  0  0  0  0  0
  160.2530  206.4040  149.2620 O   0  0  0  0  0  0  0  0  0  0  0  0
  160.2110  206.2040  147.8550 C   0  0  0  0  0  2  0  0  0  0  0  0
  161.5950  205.8430  147.3290 C   0  0  1  0  0  3  0  0  0  0  0  0
  161.6250  205.6660  145.8040 C   0  0  2  0  0  3  0  0  0  0  0  0
  160.5550  206.3680  145.2420 O   0  0  0  0  0  1  0  0  0  0  0  0
  161.6060  204.2010  145.3380 C   0  0  2  0  0  3  0  0  0  0  0  0
  160.4370  203.9500  144.5110 N   0  0  0  0  0  1  0  0  0  0  0  0
  161.5810  203.2560  146.5320 C   0  0  0  0  0  2  0  0  0  0  0  0
  160.7300  201.7080  146.1030 S   0  0  0  0  0  0  0  0  0  0  0  0
  161.3920  200.8390  147.5530 C   0  0  0  0  0  1  0  0  0  0  0  0
  162.7060  206.7430  147.8780 C   0  0  0  0  0  2  0  0  0  0  0  0
  162.3150  208.0830  147.8870 O   0  0  0  0  0  1  0  0  0  0  0  0
  1  4  2  0  0  0  0
  1  3  1  0  0  0  0
  2  3  2  0  0  0  0
  3  8  1  0  0  0  0
  4  6  1  0  0  0  0
  6 13  1  0  0  0  0
  6  5  1  0  0  0  0
  7  5  1  0  0  0  0
  8  7  1  0  0  0  0
 10 16  1  0  0  0  0
 10 11  2  0  0  0  0
 12  9  1  0  0  0  0
 12 14  2  0  0  0  0
 13  9  1  1  0  0  0
 13 10  1  0  0  0  0
 14 17  1  0  0  0  0
 17 16  1  0  0  0  0
 17 15  2  0  0  0  0
 18  4  1  0  0  0  0
 19 18  1  0  0  0  0
 20 19  1  6  0  0  0
 20 28  1  0  0  0  0
 21 22  1  6  0  0  0
 21 20  1  0  0  0  0
 23 24  1  6  0  0  0
 23 21  1  0  0  0  0
 23 25  1  0  0  0  0
 26 25  1  0  0  0  0
 26 27  1  0  0  0  0
 28 29  1  0  0  0  0
M  END
>  <MODEL>
6

>  <REMARK>
 VINA RESULT:      -5.4      4.313      8.501
  Name = 
  9 active torsions:
  status: ('A' for Active; 'I' for Inactive)
    1  A    between atoms: C_2  and  C_4
    2  A    between atoms: C_2  and  C_18
    3  A    between atoms: C_4  and  C_17
    4  A    between atoms: C_5  and  C_18
    5  A    between atoms: S_9  and  C_17
    6  A    between atoms: C_10  and  O_12
    7  A    between atoms: O_12  and  C_16
    8  A    between atoms: C_16  and  C_18
    9  A    between atoms: C_19  and  N_22
                            x       y       z     vdW  Elec       q    Type
                         _______ _______ _______ _____ _____    ______ ____

>  <TORSDO>
F 9

$$$$
=
 OpenBabel11052409563D

 29 30  0  0  1  0  0  0  0  0999 V2000
  160.7390  207.3650  154.1390 N   0  0  0  0  0  0  0  0  0  0  0  0
  159.9960  207.0090  156.3020 O   0  0  0  0  0  0  0  0  0  0  0  0
  160.6920  207.7170  155.5310 C   0  0  0  0  0  0  0  0  0  0  0  0
  160.8260  208.1180  153.0740 C   0  0  0  0  0  0  0  0  0  0  0  0
  160.7930  210.3200  154.3680 C   0  0  0  0  0  2  0  0  0  0  0  0
  160.8160  209.5680  153.1250 N   0  0  0  0  0  0  0  0  0  0  0  0
  161.9690  209.9010  155.2170 C   0  0  0  0  0  2  0  0  0  0  0  0
  161.5540  208.7810  156.1520 C   0  0  0  0  0  2  0  0  0  0  0  0
  162.2610  210.5500  151.3990 C   0  0  0  0  0  2  0  0  0  0  0  0
  160.1710  211.7110  152.0810 C   0  0  0  0  0  0  0  0  0  0  0  0
  159.4930  211.9310  153.1200 O   0  0  0  0  0  0  0  0  0  0  0  0
  162.2530  210.6440  149.9160 C   0  0  0  0  0  3  0  0  0  0  0  0
  160.8430  210.3780  151.9040 C   0  0  2  0  0  3  0  0  0  0  0  0
  161.6290  211.5970  149.2280 C   0  0  0  0  0  3  0  0  0  0  0  0
  160.5890  213.6770  149.0010 O   0  0  0  0  0  0  0  0  0  0  0  0
  160.2330  212.7340  151.0800 N   0  0  0  0  0  2  0  0  0  0  0  0
  160.8130  212.7040  149.7660 C   0  0  0  0  0  0  0  0  0  0  0  0
  160.9050  207.5000  151.8200 O   0  0  0  0  0  0  0  0  0  0  0  0
  161.8310  206.4600  151.5270 C   0  0  0  0  0  2  0  0  0  0  0  0
  161.0920  205.2040  151.0800 C   0  0  1  0  0  3  0  0  0  0  0  0
  160.7780  205.2010  149.5770 C   0  0  2  0  0  3  0  0  0  0  0  0
  160.8320  203.8870  149.1030 O   0  0  0  0  0  1  0  0  0  0  0  0
  161.6910  206.1090  148.7390 C   0  0  2  0  0  3  0  0  0  0  0  0
  161.0790  207.4160  148.5630 N   0  0  0  0  0  1  0  0  0  0  0  0
  161.9530  205.4940  147.3710 C   0  0  0  0  0  2  0  0  0  0  0  0
  160.8300  206.2010  146.1280 S   0  0  0  0  0  0  0  0  0  0  0  0
  161.6220  205.2960  144.7680 C   0  0  0  0  0  1  0  0  0  0  0  0
  161.7340  203.9100  151.5910 C   0  0  0  0  0  2  0  0  0  0  0  0
  160.8260  203.1550  152.3360 O   0  0  0  0  0  1  0  0  0  0  0  0
  1  3  1  0  0  0  0
  3  8  1  0  0  0  0
  3  2  2  0  0  0  0
  4  6  1  0  0  0  0
  4  1  2  0  0  0  0
  5  7  1  0  0  0  0
  6  5  1  0  0  0  0
  7  8  1  0  0  0  0
 10 11  2  0  0  0  0
 12  9  1  0  0  0  0
 13  9  1  1  0  0  0
 13 10  1  0  0  0  0
 13  6  1  0  0  0  0
 14 17  1  0  0  0  0
 14 12  2  0  0  0  0
 15 17  2  0  0  0  0
 16 10  1  0  0  0  0
 17 16  1  0  0  0  0
 18  4  1  0  0  0  0
 19 18  1  0  0  0  0
 20 19  1  6  0  0  0
 20 28  1  0  0  0  0
 21 22  1  6  0  0  0
 21 20  1  0  0  0  0
 23 24  1  6  0  0  0
 23 21  1  0  0  0  0
 25 23  1  0  0  0  0
 26 25  1  0  0  0  0
 27 26  1  0  0  0  0
 28 29  1  0  0  0  0
M  END
>  <MODEL>
7

>  <REMARK>
 VINA RESULT:      -5.3      3.480      7.206
  Name = 
  9 active torsions:
  status: ('A' for Active; 'I' for Inactive)
    1  A    between atoms: C_2  and  C_4
    2  A    between atoms: C_2  and  C_18
    3  A    between atoms: C_4  and  C_17
    4  A    between atoms: C_5  and  C_18
    5  A    between atoms: S_9  and  C_17
    6  A    between atoms: C_10  and  O_12
    7  A    between atoms: O_12  and  C_16
    8  A    between atoms: C_16  and  C_18
    9  A    between atoms: C_19  and  N_22
                            x       y       z     vdW  Elec       q    Type
                         _______ _______ _______ _____ _____    ______ ____

>  <TORSDO>
F 9

$$$$
=
 OpenBabel11052409563D

 29 30  0  0  1  0  0  0  0  0999 V2000
  161.2060  203.6820  150.6190 N   0  0  0  0  0  0  0  0  0  0  0  0
  162.1960  202.1410  152.0330 O   0  0  0  0  0  0  0  0  0  0  0  0
  161.4690  202.3300  151.0250 C   0  0  0  0  0  0  0  0  0  0  0  0
  161.0450  204.1960  149.4280 C   0  0  0  0  0  0  0  0  0  0  0  0
  161.4450  201.9960  148.1920 C   0  0  0  0  0  2  0  0  0  0  0  0
  161.1890  203.4270  148.2060 N   0  0  0  0  0  0  0  0  0  0  0  0
  160.3600  201.2970  148.9760 C   0  0  0  0  0  2  0  0  0  0  0  0
  160.7960  201.1300  150.4180 C   0  0  0  0  0  2  0  0  0  0  0  0
  160.8540  203.0130  145.8080 C   0  0  0  0  0  2  0  0  0  0  0  0
  162.2470  204.9320  146.5590 C   0  0  0  0  0  0  0  0  0  0  0  0
  163.0810  205.2160  147.4600 O   0  0  0  0  0  0  0  0  0  0  0  0
  160.0130  203.5860  144.7260 C   0  0  0  0  0  3  0  0  0  0  0  0
  161.0710  204.0550  146.8870 C   0  0  2  0  0  3  0  0  0  0  0  0
  160.3540  204.6390  143.9870 C   0  0  0  0  0  3  0  0  0  0  0  0
  161.8780  206.1830  143.1200 O   0  0  0  0  0  0  0  0  0  0  0  0
  162.4310  205.5030  145.2580 N   0  0  0  0  0  2  0  0  0  0  0  0
  161.5800  205.4560  144.1020 C   0  0  0  0  0  0  0  0  0  0  0  0
  160.7440  205.5600  149.3210 O   0  0  0  0  0  0  0  0  0  0  0  0
  160.6150  206.4150  150.4500 C   0  0  0  0  0  2  0  0  0  0  0  0
  161.9600  207.0460  150.7920 C   0  0  1  0  0  3  0  0  0  0  0  0
  161.8720  208.5670  150.9870 C   0  0  2  0  0  3  0  0  0  0  0  0
  160.8220  208.8530  151.8650 O   0  0  0  0  0  1  0  0  0  0  0  0
  161.7080  209.3620  149.6820 C   0  0  2  0  0  3  0  0  0  0  0  0
  162.3390  208.6570  148.5780 N   0  0  0  0  0  1  0  0  0  0  0  0
  162.3360  210.7440  149.8110 C   0  0  0  0  0  2  0  0  0  0  0  0
  162.1800  211.6640  148.2510 S   0  0  0  0  0  0  0  0  0  0  0  0
  161.1450  212.9490  149.0080 C   0  0  0  0  0  1  0  0  0  0  0  0
  162.7090  206.3120  151.9080 C   0  0  0  0  0  2  0  0  0  0  0  0
  161.8920  206.1200  153.0240 O   0  0  0  0  0  1  0  0  0  0  0  0
  1  3  1  0  0  0  0
  3  2  2  0  0  0  0
  4  1  2  0  0  0  0
  5  6  1  0  0  0  0
  5  7  1  0  0  0  0
  6  4  1  0  0  0  0
  7  8  1  0  0  0  0
  8  3  1  0  0  0  0
 10 13  1  0  0  0  0
 10 11  2  0  0  0  0
 12  9  1  0  0  0  0
 13  9  1  6  0  0  0
 13  6  1  0  0  0  0
 14 17  1  0  0  0  0
 14 12  2  0  0  0  0
 15 17  2  0  0  0  0
 16 10  1  0  0  0  0
 17 16  1  0  0  0  0
 18  4  1  0  0  0  0
 18 19  1  0  0  0  0
 20 19  1  1  0  0  0
 20 21  1  0  0  0  0
 20 28  1  0  0  0  0
 21 22  1  1  0  0  0
 23 24  1  6  0  0  0
 23 25  1  0  0  0  0
 23 21  1  0  0  0  0
 26 27  1  0  0  0  0
 26 25  1  0  0  0  0
 28 29  1  0  0  0  0
M  END
>  <MODEL>
8

>  <REMARK>
 VINA RESULT:      -5.2      4.861      6.994
  Name = 
  9 active torsions:
  status: ('A' for Active; 'I' for Inactive)
    1  A    between atoms: C_2  and  C_4
    2  A    between atoms: C_2  and  C_18
    3  A    between atoms: C_4  and  C_17
    4  A    between atoms: C_5  and  C_18
    5  A    between atoms: S_9  and  C_17
    6  A    between atoms: C_10  and  O_12
    7  A    between atoms: O_12  and  C_16
    8  A    between atoms: C_16  and  C_18
    9  A    between atoms: C_19  and  N_22
                            x       y       z     vdW  Elec       q    Type
                         _______ _______ _______ _____ _____    ______ ____

>  <TORSDO>
F 9

$$$$
=
 OpenBabel11052409563D

 29 30  0  0  1  0  0  0  0  0999 V2000
  161.6930  209.2420  151.4470 N   0  0  0  0  0  0  0  0  0  0  0  0
  161.2150  211.2920  150.4850 O   0  0  0  0  0  0  0  0  0  0  0  0
  161.6780  210.1350  150.3230 C   0  0  0  0  0  0  0  0  0  0  0  0
  161.5320  207.9460  151.5070 C   0  0  0  0  0  0  0  0  0  0  0  0
  161.1210  207.6690  149.0010 C   0  0  0  0  0  2  0  0  0  0  0  0
  161.2110  207.1330  150.3490 N   0  0  0  0  0  0  0  0  0  0  0  0
  162.4220  208.3540  148.6580 C   0  0  0  0  0  2  0  0  0  0  0  0
  162.3330  209.8280  149.0040 C   0  0  0  0  0  2  0  0  0  0  0  0
  162.0150  205.0370  151.3450 C   0  0  0  0  0  2  0  0  0  0  0  0
  160.8830  205.0110  149.1310 C   0  0  0  0  0  0  0  0  0  0  0  0
  160.8150  205.7050  148.0820 O   0  0  0  0  0  0  0  0  0  0  0  0
  161.4100  203.8890  152.0680 C   0  0  0  0  0  3  0  0  0  0  0  0
  160.9680  205.6930  150.4680 C   0  0  2  0  0  3  0  0  0  0  0  0
  160.8810  202.8220  151.4740 C   0  0  0  0  0  3  0  0  0  0  0  0
  160.5440  201.3870  149.6610 O   0  0  0  0  0  0  0  0  0  0  0  0
  160.8290  203.5850  149.0060 N   0  0  0  0  0  2  0  0  0  0  0  0
  160.7570  202.5720  150.0230 C   0  0  0  0  0  0  0  0  0  0  0  0
  161.6480  207.3120  152.7500 O   0  0  0  0  0  0  0  0  0  0  0  0
  160.6550  207.4100  153.7640 C   0  0  0  0  0  2  0  0  0  0  0  0
  161.2670  207.9390  155.0560 C   0  0  1  0  0  3  0  0  0  0  0  0
  161.3200  209.4730  155.1050 C   0  0  2  0  0  3  0  0  0  0  0  0
  161.5320  209.8790  156.4260 O   0  0  0  0  0  1  0  0  0  0  0  0
  160.0770  210.1670  154.5260 C   0  0  2  0  0  3  0  0  0  0  0  0
  160.4500  211.4150  153.8800 N   0  0  0  0  0  1  0  0  0  0  0  0
  159.0630  210.4600  155.6230 C   0  0  0  0  0  2  0  0  0  0  0  0
  158.3890  212.1380  155.4380 S   0  0  0  0  0  0  0  0  0  0  0  0
  156.7350  211.5220  155.0100 C   0  0  0  0  0  1  0  0  0  0  0  0
  160.6830  207.2900  156.3140 C   0  0  0  0  0  2  0  0  0  0  0  0
  159.3300  206.9910  156.1470 O   0  0  0  0  0  1  0  0  0  0  0  0
  1  4  2  0  0  0  0
  3  2  2  0  0  0  0
  3  1  1  0  0  0  0
  4 18  1  0  0  0  0
  5  6  1  0  0  0  0
  6  4  1  0  0  0  0
  7  5  1  0  0  0  0
  7  8  1  0  0  0  0
  8  3  1  0  0  0  0
  9 12  1  0  0  0  0
 10 13  1  0  0  0  0
 11 10  2  0  0  0  0
 13  6  1  6  0  0  0
 13  9  1  0  0  0  0
 14 12  2  0  0  0  0
 15 17  2  0  0  0  0
 16 10  1  0  0  0  0
 16 17  1  0  0  0  0
 17 14  1  0  0  0  0
 18 19  1  0  0  0  0
 20 19  1  6  0  0  0
 20 21  1  0  0  0  0
 20 28  1  0  0  0  0
 21 22  1  1  0  0  0
 23 24  1  1  0  0  0
 23 21  1  0  0  0  0
 23 25  1  0  0  0  0
 26 25  1  0  0  0  0
 27 26  1  0  0  0  0
 29 28  1  0  0  0  0
M  END
>  <MODEL>
9

>  <REMARK>
 VINA RESULT:      -5.2      2.307      4.762
  Name = 
  9 active torsions:
  status: ('A' for Active; 'I' for Inactive)
    1  A    between atoms: C_2  and  C_4
    2  A    between atoms: C_2  and  C_18
    3  A    between atoms: C_4  and  C_17
    4  A    between atoms: C_5  and  C_18
    5  A    between atoms: S_9  and  C_17
    6  A    between atoms: C_10  and  O_12
    7  A    between atoms: O_12  and  C_16
    8  A    between atoms: C_16  and  C_18
    9  A    between atoms: C_19  and  N_22
                            x       y       z     vdW  Elec       q    Type
                         _______ _______ _______ _____ _____    ______ ____

>  <TORSDO>
F 9

$$$$
