=
 OpenBabel11042422473D

 38 42  0  0  1  0  0  0  0  0999 V2000
  160.6980  203.6520  152.3400 C   0  0  0  0  0  1  0  0  0  0  0  0
  160.7420  208.0050  153.5530 N   0  0  1  0  0  0  0  0  0  0  0  0
  161.4080  204.9960  152.3970 C   0  0  2  0  0  3  0  0  0  0  0  0
  161.1240  205.6090  153.7520 C   0  0  0  0  0  2  0  0  0  0  0  0
  161.9690  207.8470  152.7600 C   0  0  1  0  0  3  0  0  0  0  0  0
  160.8920  205.9460  151.3190 C   0  0  1  0  0  3  0  0  0  0  0  0
  161.7460  206.9940  153.9460 C   0  0  1  0  0  3  0  0  0  0  0  0
  161.6670  207.2660  151.3640 C   0  0  1  0  0  3  0  0  0  0  0  0
  160.9360  209.1790  154.3930 C   0  0  2  0  0  3  0  0  0  0  0  0
  159.5780  210.9640  153.7790 C   0  0  1  0  0  0  0  0  0  0  0  0
  159.6030  209.8010  154.7170 C   0  0  0  0  0  2  0  0  0  0  0  0
  160.7270  211.1210  152.9980 O   0  0  0  0  0  0  0  0  0  0  0  0
  158.3320  211.7030  153.4570 C   0  0  1  0  0  3  0  0  0  0  0  0
  161.6640  210.2530  153.5890 C   0  0  0  0  0  2  0  0  0  0  0  0
  159.2420  212.1600  154.4360 O   0  0  0  0  0  0  0  0  0  0  0  0
  158.4770  212.5450  152.1960 C   0  0  0  0  0  2  0  0  0  0  0  0
  156.5850  214.0470  152.8280 C   0  0  0  0  0  1  0  0  0  0  0  0
  158.0560  213.9800  152.4580 C   0  0  0  0  0  2  0  0  0  0  0  0
  160.9770  205.3540  149.9410 C   0  0  0  0  0  0  0  0  0  0  0  0
  161.2720  203.9940  149.7490 C   0  0  0  0  0  3  0  0  0  0  0  0
  160.8830  205.6700  147.5330 C   0  0  0  0  0  0  0  0  0  0  0  0
  160.7870  206.1850  148.8310 C   0  0  0  0  0  3  0  0  0  0  0  0
  161.3670  203.4730  148.4560 C   0  0  0  0  0  3  0  0  0  0  0  0
  161.1740  204.3070  147.3520 C   0  0  0  0  0  3  0  0  0  0  0  0
  160.3120  206.0620  145.1590 C   0  0  0  0  0  1  0  0  0  0  0  0
  160.6910  206.5280  146.4460 O   0  0  0  0  0  0  0  0  0  0  0  0
  161.0290  208.2300  150.5760 O   0  0  0  0  0  0  0  0  0  0  0  0
  161.9980  209.2110  150.3560 C   0  0  0  0  0  2  0  0  0  0  0  0
  162.7400  208.8040  148.1330 O   0  0  0  0  0  1  0  0  0  0  0  0
  161.9510  209.6540  148.9060 C   0  0  2  0  0  3  0  0  0  0  0  0
  162.4550  211.0830  148.7710 C   0  0  0  0  0  2  0  0  0  0  0  0
  161.5400  211.9040  147.8700 C   0  0  0  0  0  2  0  0  0  0  0  0
  162.0110  214.1150  148.6020 O   0  0  0  0  0  0  0  0  0  0  0  0
  161.1610  213.1870  148.5280 C   0  0  0  0  0  0  0  0  0  0  0  0
  159.8910  213.3150  149.1030 O   0  0  0  0  0  0  0  0  0  0  0  0
  158.7950  214.2550  147.1440 O   0  0  0  0  0  0  0  0  0  0  0  0
  158.7310  213.6560  148.3980 C   0  0  0  0  0  0  0  0  0  0  0  0
  157.6060  213.4100  148.9080 O   0  0  0  0  0  1  0  0  0  0  0  0
  2  7  1  0  0  0  0
  2  9  1  1  0  0  0
  3  1  1  1  0  0  0
  3  4  1  0  0  0  0
  4  7  1  0  0  0  0
  5  2  1  0  0  0  0
  5  7  1  0  0  0  0
  6  8  1  0  0  0  0
  6  3  1  0  0  0  0
  8  5  1  0  0  0  0
  9 11  1  0  0  0  0
 10 15  1  0  0  0  0
 10 11  1  0  0  0  0
 12 14  1  0  0  0  0
 12 10  1  0  0  0  0
 13 10  1  0  0  0  0
 13 15  1  0  0  0  0
 14  9  1  0  0  0  0
 16 18  1  0  0  0  0
 16 13  1  0  0  0  0
 18 17  1  0  0  0  0
 19  6  1  0  0  0  0
 20 19  1  0  0  0  0
 21 22  1  0  0  0  0
 22 19  2  0  0  0  0
 23 20  2  0  0  0  0
 24 21  2  0  0  0  0
 24 23  1  0  0  0  0
 25 26  1  0  0  0  0
 26 21  1  0  0  0  0
 27  8  1  0  0  0  0
 28 27  1  0  0  0  0
 29 30  1  0  0  0  0
 30 28  1  0  0  0  0
 31 30  1  0  0  0  0
 32 34  1  0  0  0  0
 32 31  1  0  0  0  0
 34 33  2  0  0  0  0
 34 35  1  0  0  0  0
 36 37  2  0  0  0  0
 37 38  1  0  0  0  0
 37 35  1  0  0  0  0
M  END
>  <MODEL>
1

>  <REMARK>
 VINA RESULT:      -7.6      0.000      0.000
  Name = 
  13 active torsions:
  status: ('A' for Active; 'I' for Inactive)
    1  A    between atoms: C_1  and  C_18
    2  A    between atoms: C_1  and  C_30
    3  A    between atoms: C_4  and  N_7
    4  A    between atoms: O_5  and  C_22
    5  A    between atoms: O_5  and  C_33
    6  A    between atoms: C_8  and  O_23
    7  A    between atoms: C_8  and  C_32
    8  A    between atoms: C_11  and  C_15
    9  A    between atoms: C_16  and  O_37
   10  A    between atoms: O_23  and  C_34
   11  A    between atoms: C_27  and  C_31
   12  A    between atoms: C_27  and  C_32
   13  A    between atoms: C_31  and  C_33
                            x       y       z     vdW  Elec       q    Type
                         _______ _______ _______ _____ _____    ______ ____

>  <TORSDO>
F 13

$$$$
=
 OpenBabel11042422473D

 38 42  0  0  1  0  0  0  0  0999 V2000
  160.5860  203.6710  152.1610 C   0  0  0  0  0  1  0  0  0  0  0  0
  160.7730  207.9000  153.7420 N   0  0  1  0  0  0  0  0  0  0  0  0
  161.3390  204.9810  152.3300 C   0  0  2  0  0  3  0  0  0  0  0  0
  161.0770  205.4850  153.7340 C   0  0  0  0  0  2  0  0  0  0  0  0
  161.9940  207.7710  152.9340 C   0  0  1  0  0  3  0  0  0  0  0  0
  160.8530  206.0360  151.3390 C   0  0  1  0  0  3  0  0  0  0  0  0
  161.7440  206.8260  154.0430 C   0  0  1  0  0  3  0  0  0  0  0  0
  161.6710  207.3220  151.4940 C   0  0  1  0  0  3  0  0  0  0  0  0
  161.0060  208.9900  154.6790 C   0  0  2  0  0  3  0  0  0  0  0  0
  159.4660  210.7190  154.4540 C   0  0  1  0  0  0  0  0  0  0  0  0
  159.6940  209.4690  155.2420 C   0  0  0  0  0  2  0  0  0  0  0  0
  160.4840  211.0460  153.5540 O   0  0  0  0  0  0  0  0  0  0  0  0
  158.1430  211.3880  154.3840 C   0  0  1  0  0  3  0  0  0  0  0  0
  161.5470  210.1970  153.9150 C   0  0  0  0  0  2  0  0  0  0  0  0
  159.1490  211.8090  155.2820 O   0  0  0  0  0  0  0  0  0  0  0  0
  158.0600  212.3660  153.2190 C   0  0  0  0  0  2  0  0  0  0  0  0
  155.8820  213.0350  154.2420 C   0  0  0  0  0  1  0  0  0  0  0  0
  157.1460  213.5300  153.5620 C   0  0  0  0  0  2  0  0  0  0  0  0
  160.9170  205.5620  149.9150 C   0  0  0  0  0  0  0  0  0  0  0  0
  160.6600  206.4350  148.8450 C   0  0  0  0  0  3  0  0  0  0  0  0
  161.2520  203.7390  148.3430 C   0  0  0  0  0  0  0  0  0  0  0  0
  161.2080  204.2180  149.6580 C   0  0  0  0  0  3  0  0  0  0  0  0
  160.7050  205.9640  147.5300 C   0  0  0  0  0  3  0  0  0  0  0  0
  160.9990  204.6210  147.2800 C   0  0  0  0  0  3  0  0  0  0  0  0
  161.0400  201.3520  148.9520 C   0  0  0  0  0  1  0  0  0  0  0  0
  161.5430  202.3890  148.1220 O   0  0  0  0  0  0  0  0  0  0  0  0
  161.0640  208.3700  150.7940 O   0  0  0  0  0  0  0  0  0  0  0  0
  162.1100  209.2360  150.4690 C   0  0  0  0  0  2  0  0  0  0  0  0
  162.7390  208.9840  148.1880 O   0  0  0  0  0  1  0  0  0  0  0  0
  161.9340  209.7320  149.0460 C   0  0  2  0  0  3  0  0  0  0  0  0
  162.3090  211.2020  148.9460 C   0  0  0  0  0  2  0  0  0  0  0  0
  161.4690  211.9130  147.8920 C   0  0  0  0  0  2  0  0  0  0  0  0
  162.3170  214.0940  148.3030 O   0  0  0  0  0  0  0  0  0  0  0  0
  161.2990  213.3550  148.2340 C   0  0  0  0  0  0  0  0  0  0  0  0
  160.0200  213.8450  148.5280 O   0  0  0  0  0  0  0  0  0  0  0  0
  158.0440  213.9040  149.9460 O   0  0  0  0  0  0  0  0  0  0  0  0
  159.4230  213.7980  149.7920 C   0  0  0  0  0  0  0  0  0  0  0  0
  160.1480  213.6510  150.8110 O   0  0  0  0  0  1  0  0  0  0  0  0
  2  7  1  0  0  0  0
  2  9  1  1  0  0  0
  3  1  1  6  0  0  0
  3  4  1  0  0  0  0
  4  7  1  0  0  0  0
  5  2  1  0  0  0  0
  5  7  1  0  0  0  0
  6  8  1  0  0  0  0
  6  3  1  0  0  0  0
  8  5  1  0  0  0  0
  9 11  1  0  0  0  0
 10 11  1  0  0  0  0
 10 15  1  0  0  0  0
 12 14  1  0  0  0  0
 12 10  1  0  0  0  0
 13 10  1  0  0  0  0
 13 15  1  0  0  0  0
 14  9  1  0  0  0  0
 16 18  1  0  0  0  0
 16 13  1  0  0  0  0
 18 17  1  0  0  0  0
 19  6  1  0  0  0  0
 20 19  2  0  0  0  0
 21 22  2  0  0  0  0
 22 19  1  0  0  0  0
 23 20  1  0  0  0  0
 24 23  2  0  0  0  0
 24 21  1  0  0  0  0
 26 21  1  0  0  0  0
 26 25  1  0  0  0  0
 27  8  1  0  0  0  0
 28 27  1  0  0  0  0
 29 30  1  0  0  0  0
 30 28  1  0  0  0  0
 31 30  1  0  0  0  0
 32 34  1  0  0  0  0
 32 31  1  0  0  0  0
 34 33  2  0  0  0  0
 34 35  1  0  0  0  0
 35 37  1  0  0  0  0
 37 36  2  0  0  0  0
 37 38  1  0  0  0  0
M  END
>  <MODEL>
2

>  <REMARK>
 VINA RESULT:      -7.3      1.065      1.738
  Name = 
  13 active torsions:
  status: ('A' for Active; 'I' for Inactive)
    1  A    between atoms: C_1  and  C_18
    2  A    between atoms: C_1  and  C_30
    3  A    between atoms: C_4  and  N_7
    4  A    between atoms: O_5  and  C_22
    5  A    between atoms: O_5  and  C_33
    6  A    between atoms: C_8  and  O_23
    7  A    between atoms: C_8  and  C_32
    8  A    between atoms: C_11  and  C_15
    9  A    between atoms: C_16  and  O_37
   10  A    between atoms: O_23  and  C_34
   11  A    between atoms: C_27  and  C_31
   12  A    between atoms: C_27  and  C_32
   13  A    between atoms: C_31  and  C_33
                            x       y       z     vdW  Elec       q    Type
                         _______ _______ _______ _____ _____    ______ ____

>  <TORSDO>
F 13

$$$$
=
 OpenBabel11042422473D

 38 42  0  0  1  0  0  0  0  0999 V2000
  160.7690  204.0690  151.9080 C   0  0  0  0  0  1  0  0  0  0  0  0
  162.1400  205.9240  148.0220 N   0  0  1  0  0  0  0  0  0  0  0  0
  160.5690  205.0800  150.7890 C   0  0  2  0  0  3  0  0  0  0  0  0
  160.9320  204.3990  149.4850 C   0  0  0  0  0  2  0  0  0  0  0  0
  161.0070  206.7650  148.4340 C   0  0  1  0  0  3  0  0  0  0  0  0
  161.4740  206.2960  150.9670 C   0  0  1  0  0  3  0  0  0  0  0  0
  160.8170  205.3100  148.2610 C   0  0  1  0  0  3  0  0  0  0  0  0
  161.2070  207.3200  149.8600 C   0  0  1  0  0  3  0  0  0  0  0  0
  162.2960  206.1090  146.5860 C   0  0  2  0  0  3  0  0  0  0  0  0
  161.1310  204.5260  145.3410 C   0  0  1  0  0  0  0  0  0  0  0  0
  160.9710  205.9040  145.8990 C   0  0  0  0  0  2  0  0  0  0  0  0
  162.3750  203.9330  145.5730 O   0  0  0  0  0  0  0  0  0  0  0  0
  159.9800  203.7190  144.8660 C   0  0  1  0  0  3  0  0  0  0  0  0
  163.1800  204.9940  146.0330 C   0  0  0  0  0  2  0  0  0  0  0  0
  160.7850  204.4690  143.9810 O   0  0  0  0  0  0  0  0  0  0  0  0
  160.3300  202.2420  144.7460 C   0  0  0  0  0  2  0  0  0  0  0  0
  161.0120  201.0910  146.8550 C   0  0  0  0  0  1  0  0  0  0  0  0
  159.8440  201.4750  145.9640 C   0  0  0  0  0  2  0  0  0  0  0  0
  161.3070  206.9470  152.3110 C   0  0  0  0  0  0  0  0  0  0  0  0
  161.5950  206.2520  153.4970 C   0  0  0  0  0  3  0  0  0  0  0  0
  160.6360  208.8850  153.6140 C   0  0  0  0  0  0  0  0  0  0  0  0
  160.8250  208.2590  152.3760 C   0  0  0  0  0  3  0  0  0  0  0  0
  161.4110  206.8720  154.7350 C   0  0  0  0  0  3  0  0  0  0  0  0
  160.9320  208.1840  154.7940 C   0  0  0  0  0  3  0  0  0  0  0  0
  160.8880  211.2750  154.2000 C   0  0  0  0  0  1  0  0  0  0  0  0
  160.1500  210.1960  153.6430 O   0  0  0  0  0  0  0  0  0  0  0  0
  162.2050  208.2990  149.8530 O   0  0  0  0  0  0  0  0  0  0  0  0
  161.8410  209.1740  148.8270 C   0  0  0  0  0  2  0  0  0  0  0  0
  161.8130  210.9110  150.4530 O   0  0  0  0  0  1  0  0  0  0  0  0
  162.2810  210.5820  149.1820 C   0  0  2  0  0  3  0  0  0  0  0  0
  161.7430  211.5780  148.1660 C   0  0  0  0  0  2  0  0  0  0  0  0
  162.7460  212.6960  147.9100 C   0  0  0  0  0  2  0  0  0  0  0  0
  161.1330  214.4410  147.8910 O   0  0  0  0  0  0  0  0  0  0  0  0
  162.0790  213.8730  147.2830 C   0  0  0  0  0  0  0  0  0  0  0  0
  162.4760  214.2870  146.0050 O   0  0  0  0  0  0  0  0  0  0  0  0
  163.6280  213.2310  144.1400 O   0  0  0  0  0  0  0  0  0  0  0  0
  162.4670  213.4720  144.8680 C   0  0  0  0  0  0  0  0  0  0  0  0
  161.3860  212.9430  144.4980 O   0  0  0  0  0  1  0  0  0  0  0  0
  2  9  1  6  0  0  0
  2  7  1  0  0  0  0
  2  5  1  0  0  0  0
  3  6  1  0  0  0  0
  3  1  1  1  0  0  0
  4  3  1  0  0  0  0
  5  8  1  0  0  0  0
  6 19  1  0  0  0  0
  7  5  1  0  0  0  0
  7  4  1  0  0  0  0
  8  6  1  0  0  0  0
 10 12  1  0  0  0  0
 10 11  1  0  0  0  0
 11  9  1  0  0  0  0
 12 14  1  0  0  0  0
 13 10  1  0  0  0  0
 14  9  1  0  0  0  0
 15 13  1  0  0  0  0
 15 10  1  0  0  0  0
 16 13  1  0  0  0  0
 16 18  1  0  0  0  0
 18 17  1  0  0  0  0
 19 22  2  0  0  0  0
 19 20  1  0  0  0  0
 20 23  2  0  0  0  0
 21 26  1  0  0  0  0
 21 24  2  0  0  0  0
 22 21  1  0  0  0  0
 23 24  1  0  0  0  0
 26 25  1  0  0  0  0
 27  8  1  0  0  0  0
 28 30  1  0  0  0  0
 28 27  1  0  0  0  0
 30 29  1  0  0  0  0
 31 30  1  0  0  0  0
 32 31  1  0  0  0  0
 34 33  2  0  0  0  0
 34 32  1  0  0  0  0
 35 34  1  0  0  0  0
 36 37  2  0  0  0  0
 37 35  1  0  0  0  0
 38 37  1  0  0  0  0
M  END
>  <MODEL>
3

>  <REMARK>
 VINA RESULT:      -7.0      2.289      7.295
  Name = 
  13 active torsions:
  status: ('A' for Active; 'I' for Inactive)
    1  A    between atoms: C_1  and  C_18
    2  A    between atoms: C_1  and  C_30
    3  A    between atoms: C_4  and  N_7
    4  A    between atoms: O_5  and  C_22
    5  A    between atoms: O_5  and  C_33
    6  A    between atoms: C_8  and  O_23
    7  A    between atoms: C_8  and  C_32
    8  A    between atoms: C_11  and  C_15
    9  A    between atoms: C_16  and  O_37
   10  A    between atoms: O_23  and  C_34
   11  A    between atoms: C_27  and  C_31
   12  A    between atoms: C_27  and  C_32
   13  A    between atoms: C_31  and  C_33
                            x       y       z     vdW  Elec       q    Type
                         _______ _______ _______ _____ _____    ______ ____

>  <TORSDO>
F 13

$$$$
=
 OpenBabel11042422473D

 38 42  0  0  1  0  0  0  0  0999 V2000
  160.8420  204.7410  151.7940 C   0  0  0  0  0  1  0  0  0  0  0  0
  160.9140  209.2530  152.0220 N   0  0  1  0  0  0  0  0  0  0  0  0
  161.5820  206.0570  151.6100 C   0  0  2  0  0  3  0  0  0  0  0  0
  161.2160  206.9570  152.7710 C   0  0  0  0  0  2  0  0  0  0  0  0
  162.1920  208.9120  151.3810 C   0  0  1  0  0  3  0  0  0  0  0  0
  161.1720  206.7500  150.3130 C   0  0  1  0  0  3  0  0  0  0  0  0
  161.8590  208.3440  152.7040 C   0  0  1  0  0  3  0  0  0  0  0  0
  161.9770  208.0400  150.1260 C   0  0  1  0  0  3  0  0  0  0  0  0
  161.0770  210.5820  152.5960 C   0  0  2  0  0  3  0  0  0  0  0  0
  159.2300  211.2630  153.8360 C   0  0  1  0  0  0  0  0  0  0  0  0
  160.5560  210.5940  154.0090 C   0  0  0  0  0  2  0  0  0  0  0  0
  158.9410  211.6750  152.5310 O   0  0  0  0  0  0  0  0  0  0  0  0
  158.1690  211.2130  154.8710 C   0  0  1  0  0  3  0  0  0  0  0  0
  160.1710  211.5610  151.8550 C   0  0  0  0  0  2  0  0  0  0  0  0
  159.0490  212.3120  154.7530 O   0  0  0  0  0  0  0  0  0  0  0  0
  156.8050  211.5900  154.3090 C   0  0  0  0  0  2  0  0  0  0  0  0
  155.8010  211.5160  156.5950 C   0  0  0  0  0  1  0  0  0  0  0  0
  155.6930  211.0110  155.1670 C   0  0  0  0  0  2  0  0  0  0  0  0
  161.3420  205.8670  149.1090 C   0  0  0  0  0  0  0  0  0  0  0  0
  161.6390  206.4070  147.8470 C   0  0  0  0  0  3  0  0  0  0  0  0
  161.2980  203.6390  148.1420 C   0  0  0  0  0  0  0  0  0  0  0  0
  161.1690  204.4860  149.2490 C   0  0  0  0  0  3  0  0  0  0  0  0
  161.7710  205.5670  146.7390 C   0  0  0  0  0  3  0  0  0  0  0  0
  161.6000  204.1880  146.8850 C   0  0  0  0  0  3  0  0  0  0  0  0
  160.0850  201.7250  149.1330 C   0  0  0  0  0  1  0  0  0  0  0  0
  161.1150  202.2630  148.3160 O   0  0  0  0  0  0  0  0  0  0  0  0
  161.4250  208.8120  149.0990 O   0  0  0  0  0  0  0  0  0  0  0  0
  162.3690  209.8130  148.8580 C   0  0  0  0  0  2  0  0  0  0  0  0
  160.9400  210.9720  147.3500 O   0  0  0  0  0  1  0  0  0  0  0  0
  161.6570  211.1130  148.5360 C   0  0  2  0  0  3  0  0  0  0  0  0
  162.6610  212.2470  148.3940 C   0  0  0  0  0  2  0  0  0  0  0  0
  162.0570  213.4240  147.6370 C   0  0  0  0  0  2  0  0  0  0  0  0
  161.2540  214.4530  149.6220 O   0  0  0  0  0  0  0  0  0  0  0  0
  160.9930  214.0840  148.4470 C   0  0  0  0  0  0  0  0  0  0  0  0
  159.7090  214.2270  147.9060 O   0  0  0  0  0  0  0  0  0  0  0  0
  157.9820  212.6060  147.3480 O   0  0  0  0  0  0  0  0  0  0  0  0
  158.6050  213.4470  148.2650 C   0  0  0  0  0  0  0  0  0  0  0  0
  158.1690  213.5030  149.4450 O   0  0  0  0  0  1  0  0  0  0  0  0
  2  9  1  1  0  0  0
  2  7  1  0  0  0  0
  3  1  1  1  0  0  0
  3  4  1  0  0  0  0
  5  2  1  0  0  0  0
  5  7  1  0  0  0  0
  6  3  1  0  0  0  0
  7  4  1  0  0  0  0
  8  6  1  0  0  0  0
  8  5  1  0  0  0  0
  9 11  1  0  0  0  0
 10 11  1  0  0  0  0
 10 15  1  0  0  0  0
 10 13  1  0  0  0  0
 12 10  1  0  0  0  0
 14 12  1  0  0  0  0
 14  9  1  0  0  0  0
 15 13  1  0  0  0  0
 16 13  1  0  0  0  0
 16 18  1  0  0  0  0
 18 17  1  0  0  0  0
 19 22  1  0  0  0  0
 19  6  1  0  0  0  0
 20 19  2  0  0  0  0
 21 26  1  0  0  0  0
 21 22  2  0  0  0  0
 23 24  2  0  0  0  0
 23 20  1  0  0  0  0
 24 21  1  0  0  0  0
 26 25  1  0  0  0  0
 27  8  1  0  0  0  0
 28 27  1  0  0  0  0
 29 30  1  0  0  0  0
 30 28  1  0  0  0  0
 31 30  1  0  0  0  0
 32 31  1  0  0  0  0
 32 34  1  0  0  0  0
 34 33  2  0  0  0  0
 35 37  1  0  0  0  0
 35 34  1  0  0  0  0
 36 37  2  0  0  0  0
 37 38  1  0  0  0  0
M  END
>  <MODEL>
4

>  <REMARK>
 VINA RESULT:      -6.9      1.687      2.320
  Name = 
  13 active torsions:
  status: ('A' for Active; 'I' for Inactive)
    1  A    between atoms: C_1  and  C_18
    2  A    between atoms: C_1  and  C_30
    3  A    between atoms: C_4  and  N_7
    4  A    between atoms: O_5  and  C_22
    5  A    between atoms: O_5  and  C_33
    6  A    between atoms: C_8  and  O_23
    7  A    between atoms: C_8  and  C_32
    8  A    between atoms: C_11  and  C_15
    9  A    between atoms: C_16  and  O_37
   10  A    between atoms: O_23  and  C_34
   11  A    between atoms: C_27  and  C_31
   12  A    between atoms: C_27  and  C_32
   13  A    between atoms: C_31  and  C_33
                            x       y       z     vdW  Elec       q    Type
                         _______ _______ _______ _____ _____    ______ ____

>  <TORSDO>
F 13

$$$$
=
 OpenBabel11042422473D

 38 42  0  0  1  0  0  0  0  0999 V2000
  160.8040  204.2300  152.0010 C   0  0  0  0  0  1  0  0  0  0  0  0
  162.1450  206.0030  148.0670 N   0  0  1  0  0  0  0  0  0  0  0  0
  160.5890  205.2080  150.8570 C   0  0  2  0  0  3  0  0  0  0  0  0
  160.9590  204.5000  149.5700 C   0  0  0  0  0  2  0  0  0  0  0  0
  161.0010  206.8390  148.4600 C   0  0  1  0  0  3  0  0  0  0  0  0
  161.4790  206.4410  151.0030 C   0  0  1  0  0  3  0  0  0  0  0  0
  160.8300  205.3770  148.3240 C   0  0  1  0  0  3  0  0  0  0  0  0
  161.1960  207.4330  149.8700 C   0  0  1  0  0  3  0  0  0  0  0  0
  162.2950  206.1530  146.6260 C   0  0  2  0  0  3  0  0  0  0  0  0
  161.1810  204.5010  145.4250 C   0  0  1  0  0  0  0  0  0  0  0  0
  160.9780  205.8880  145.9450 C   0  0  0  0  0  2  0  0  0  0  0  0
  162.4430  203.9540  145.6730 O   0  0  0  0  0  0  0  0  0  0  0  0
  160.0560  203.6460  144.9730 C   0  0  1  0  0  3  0  0  0  0  0  0
  163.2140  205.0510  146.1030 C   0  0  0  0  0  2  0  0  0  0  0  0
  160.8380  204.3960  144.0670 O   0  0  0  0  0  0  0  0  0  0  0  0
  160.4520  202.1770  144.8930 C   0  0  0  0  0  2  0  0  0  0  0  0
  160.9370  201.3740  147.2070 C   0  0  0  0  0  1  0  0  0  0  0  0
  159.9120  201.4110  146.0870 C   0  0  0  0  0  2  0  0  0  0  0  0
  161.3050  207.1230  152.3300 C   0  0  0  0  0  0  0  0  0  0  0  0
  161.5180  206.4350  153.5360 C   0  0  0  0  0  3  0  0  0  0  0  0
  160.7000  209.1180  153.5790 C   0  0  0  0  0  0  0  0  0  0  0  0
  160.8930  208.4600  152.3590 C   0  0  0  0  0  3  0  0  0  0  0  0
  161.3300  207.0860  154.7570 C   0  0  0  0  0  3  0  0  0  0  0  0
  160.9210  208.4220  154.7790 C   0  0  0  0  0  3  0  0  0  0  0  0
  160.0350  211.1840  154.7640 C   0  0  0  0  0  1  0  0  0  0  0  0
  160.2850  210.4530  153.5720 O   0  0  0  0  0  0  0  0  0  0  0  0
  162.1820  208.4240  149.8370 O   0  0  0  0  0  0  0  0  0  0  0  0
  161.8560  209.2150  148.7330 C   0  0  0  0  0  2  0  0  0  0  0  0
  161.9130  211.0110  150.2910 O   0  0  0  0  0  1  0  0  0  0  0  0
  162.2750  210.6490  148.9950 C   0  0  2  0  0  3  0  0  0  0  0  0
  161.6110  211.5870  147.9980 C   0  0  0  0  0  2  0  0  0  0  0  0
  161.3490  212.9530  148.6210 C   0  0  0  0  0  2  0  0  0  0  0  0
  159.3300  213.0440  147.3710 O   0  0  0  0  0  0  0  0  0  0  0  0
  159.9240  213.3540  148.4380 C   0  0  0  0  0  0  0  0  0  0  0  0
  159.2930  214.1180  149.4280 O   0  0  0  0  0  0  0  0  0  0  0  0
  159.6760  213.1480  151.6270 O   0  0  0  0  0  1  0  0  0  0  0  0
  158.8110  213.6070  150.6380 C   0  0  0  0  0  0  0  0  0  0  0  0
  157.5690  213.5660  150.8380 O   0  0  0  0  0  0  0  0  0  0  0  0
  2  9  1  6  0  0  0
  2  7  1  0  0  0  0
  2  5  1  0  0  0  0
  3  6  1  0  0  0  0
  3  1  1  1  0  0  0
  4  3  1  0  0  0  0
  5  8  1  0  0  0  0
  6 19  1  0  0  0  0
  7  5  1  0  0  0  0
  7  4  1  0  0  0  0
  8  6  1  0  0  0  0
 10 12  1  0  0  0  0
 10 11  1  0  0  0  0
 11  9  1  0  0  0  0
 12 14  1  0  0  0  0
 13 10  1  0  0  0  0
 14  9  1  0  0  0  0
 15 13  1  0  0  0  0
 15 10  1  0  0  0  0
 16 13  1  0  0  0  0
 16 18  1  0  0  0  0
 18 17  1  0  0  0  0
 19 22  2  0  0  0  0
 19 20  1  0  0  0  0
 20 23  2  0  0  0  0
 21 24  2  0  0  0  0
 22 21  1  0  0  0  0
 23 24  1  0  0  0  0
 26 21  1  0  0  0  0
 26 25  1  0  0  0  0
 27  8  1  0  0  0  0
 28 30  1  0  0  0  0
 28 27  1  0  0  0  0
 30 29  1  0  0  0  0
 31 32  1  0  0  0  0
 31 30  1  0  0  0  0
 33 34  2  0  0  0  0
 34 32  1  0  0  0  0
 34 35  1  0  0  0  0
 35 37  1  0  0  0  0
 37 38  2  0  0  0  0
 37 36  1  0  0  0  0
M  END
>  <MODEL>
5

>  <REMARK>
 VINA RESULT:      -6.8      1.977      7.156
  Name = 
  13 active torsions:
  status: ('A' for Active; 'I' for Inactive)
    1  A    between atoms: C_1  and  C_18
    2  A    between atoms: C_1  and  C_30
    3  A    between atoms: C_4  and  N_7
    4  A    between atoms: O_5  and  C_22
    5  A    between atoms: O_5  and  C_33
    6  A    between atoms: C_8  and  O_23
    7  A    between atoms: C_8  and  C_32
    8  A    between atoms: C_11  and  C_15
    9  A    between atoms: C_16  and  O_37
   10  A    between atoms: O_23  and  C_34
   11  A    between atoms: C_27  and  C_31
   12  A    between atoms: C_27  and  C_32
   13  A    between atoms: C_31  and  C_33
                            x       y       z     vdW  Elec       q    Type
                         _______ _______ _______ _____ _____    ______ ____

>  <TORSDO>
F 13

$$$$
=
 OpenBabel11042422473D

 38 42  0  0  1  0  0  0  0  0999 V2000
  160.5820  203.6370  150.6500 C   0  0  0  0  0  1  0  0  0  0  0  0
  160.9850  207.7360  152.5100 N   0  0  1  0  0  0  0  0  0  0  0  0
  161.4020  204.8930  150.9040 C   0  0  2  0  0  3  0  0  0  0  0  0
  161.1650  205.3140  152.3390 C   0  0  0  0  0  2  0  0  0  0  0  0
  162.1980  207.5990  151.6900 C   0  0  1  0  0  3  0  0  0  0  0  0
  160.9700  206.0360  149.9870 C   0  0  1  0  0  3  0  0  0  0  0  0
  161.9000  206.5960  152.7350 C   0  0  1  0  0  3  0  0  0  0  0  0
  161.8520  207.2650  150.2250 C   0  0  1  0  0  3  0  0  0  0  0  0
  161.2740  208.7470  153.5170 C   0  0  2  0  0  3  0  0  0  0  0  0
  159.9930  210.6720  153.2580 C   0  0  1  0  0  0  0  0  0  0  0  0
  159.9900  209.3720  153.9960 C   0  0  0  0  0  2  0  0  0  0  0  0
  161.1180  210.8980  152.4600 O   0  0  0  0  0  0  0  0  0  0  0  0
  158.7780  211.5110  153.1160 C   0  0  1  0  0  3  0  0  0  0  0  0
  162.0290  209.9020  152.8620 C   0  0  0  0  0  2  0  0  0  0  0  0
  159.7470  211.7600  154.1120 O   0  0  0  0  0  0  0  0  0  0  0  0
  158.9200  212.5370  152.0000 C   0  0  0  0  0  2  0  0  0  0  0  0
  157.0130  213.4210  153.3480 C   0  0  0  0  0  1  0  0  0  0  0  0
  157.7760  213.5350  152.0390 C   0  0  0  0  0  2  0  0  0  0  0  0
  161.0090  205.6550  148.5340 C   0  0  0  0  0  0  0  0  0  0  0  0
  160.7890  206.6090  147.5260 C   0  0  0  0  0  3  0  0  0  0  0  0
  161.2580  203.9290  146.8430 C   0  0  0  0  0  0  0  0  0  0  0  0
  161.2380  204.3200  148.1870 C   0  0  0  0  0  3  0  0  0  0  0  0
  160.8100  206.2260  146.1830 C   0  0  0  0  0  3  0  0  0  0  0  0
  161.0420  204.8910  145.8420 C   0  0  0  0  0  3  0  0  0  0  0  0
  160.8610  201.5190  147.2310 C   0  0  0  0  0  1  0  0  0  0  0  0
  161.4870  202.5850  146.5310 O   0  0  0  0  0  0  0  0  0  0  0  0
  161.2990  208.3870  149.5990 O   0  0  0  0  0  0  0  0  0  0  0  0
  162.3490  209.3040  149.5170 C   0  0  0  0  0  2  0  0  0  0  0  0
  163.1040  210.9880  148.0150 O   0  0  0  0  0  1  0  0  0  0  0  0
  161.9590  210.4400  148.5900 C   0  0  2  0  0  3  0  0  0  0  0  0
  161.2060  211.5160  149.3560 C   0  0  0  0  0  2  0  0  0  0  0  0
  161.5260  212.9030  148.8120 C   0  0  0  0  0  2  0  0  0  0  0  0
  159.7520  214.4530  148.5050 O   0  0  0  0  0  0  0  0  0  0  0  0
  160.3690  213.4530  148.0500 C   0  0  0  0  0  0  0  0  0  0  0  0
  159.9530  212.8130  146.8760 O   0  0  0  0  0  0  0  0  0  0  0  0
  161.2770  214.1310  145.3160 O   0  0  0  0  0  1  0  0  0  0  0  0
  160.5550  212.9820  145.6240 C   0  0  0  0  0  0  0  0  0  0  0  0
  160.4460  212.0720  144.7610 O   0  0  0  0  0  0  0  0  0  0  0  0
  2  7  1  0  0  0  0
  2  9  1  1  0  0  0
  3  1  1  6  0  0  0
  3  4  1  0  0  0  0
  4  7  1  0  0  0  0
  5  2  1  0  0  0  0
  5  7  1  0  0  0  0
  6  8  1  0  0  0  0
  6  3  1  0  0  0  0
  8  5  1  0  0  0  0
  9 11  1  0  0  0  0
 10 11  1  0  0  0  0
 10 15  1  0  0  0  0
 12 14  1  0  0  0  0
 12 10  1  0  0  0  0
 13 10  1  0  0  0  0
 13 15  1  0  0  0  0
 14  9  1  0  0  0  0
 16 18  1  0  0  0  0
 16 13  1  0  0  0  0
 18 17  1  0  0  0  0
 19  6  1  0  0  0  0
 20 19  2  0  0  0  0
 21 22  2  0  0  0  0
 22 19  1  0  0  0  0
 23 20  1  0  0  0  0
 24 23  2  0  0  0  0
 24 21  1  0  0  0  0
 26 21  1  0  0  0  0
 26 25  1  0  0  0  0
 27  8  1  0  0  0  0
 28 27  1  0  0  0  0
 29 30  1  0  0  0  0
 30 31  1  0  0  0  0
 30 28  1  0  0  0  0
 32 31  1  0  0  0  0
 34 33  2  0  0  0  0
 34 32  1  0  0  0  0
 35 34  1  0  0  0  0
 36 37  1  0  0  0  0
 37 35  1  0  0  0  0
 38 37  2  0  0  0  0
M  END
>  <MODEL>
6

>  <REMARK>
 VINA RESULT:      -6.6      1.519      2.118
  Name = 
  13 active torsions:
  status: ('A' for Active; 'I' for Inactive)
    1  A    between atoms: C_1  and  C_18
    2  A    between atoms: C_1  and  C_30
    3  A    between atoms: C_4  and  N_7
    4  A    between atoms: O_5  and  C_22
    5  A    between atoms: O_5  and  C_33
    6  A    between atoms: C_8  and  O_23
    7  A    between atoms: C_8  and  C_32
    8  A    between atoms: C_11  and  C_15
    9  A    between atoms: C_16  and  O_37
   10  A    between atoms: O_23  and  C_34
   11  A    between atoms: C_27  and  C_31
   12  A    between atoms: C_27  and  C_32
   13  A    between atoms: C_31  and  C_33
                            x       y       z     vdW  Elec       q    Type
                         _______ _______ _______ _____ _____    ______ ____

>  <TORSDO>
F 13

$$$$
=
 OpenBabel11042422473D

 38 42  0  0  1  0  0  0  0  0999 V2000
  160.4290  203.2570  150.6640 C   0  0  0  0  0  1  0  0  0  0  0  0
  160.7260  206.6420  153.6430 N   0  0  1  0  0  0  0  0  0  0  0  0
  161.2330  204.3740  151.3120 C   0  0  2  0  0  3  0  0  0  0  0  0
  160.9160  204.3690  152.7930 C   0  0  0  0  0  2  0  0  0  0  0  0
  161.9830  206.7270  152.8860 C   0  0  1  0  0  3  0  0  0  0  0  0
  160.8530  205.7380  150.7410 C   0  0  1  0  0  3  0  0  0  0  0  0
  161.6270  205.4720  153.5800 C   0  0  1  0  0  3  0  0  0  0  0  0
  161.7210  206.8330  151.3690 C   0  0  1  0  0  3  0  0  0  0  0  0
  160.9570  207.3180  154.9130 C   0  0  2  0  0  3  0  0  0  0  0  0
  159.6750  209.2430  155.1580 C   0  0  1  0  0  0  0  0  0  0  0  0
  159.6460  207.7850  155.4880 C   0  0  0  0  0  2  0  0  0  0  0  0
  160.8360  209.6820  154.5160 O   0  0  0  0  0  0  0  0  0  0  0  0
  158.4620  210.0960  155.2050 C   0  0  1  0  0  3  0  0  0  0  0  0
  161.7340  208.6070  154.6570 C   0  0  0  0  0  2  0  0  0  0  0  0
  159.3790  210.0390  156.2780 O   0  0  0  0  0  0  0  0  0  0  0  0
  158.6510  211.4000  154.4420 C   0  0  0  0  0  2  0  0  0  0  0  0
  157.6180  213.6720  154.3480 C   0  0  0  0  0  1  0  0  0  0  0  0
  158.1450  212.5770  155.2580 C   0  0  0  0  0  2  0  0  0  0  0  0
  160.9750  205.7910  149.2440 C   0  0  0  0  0  0  0  0  0  0  0  0
  160.0820  206.5460  148.4670 C   0  0  0  0  0  3  0  0  0  0  0  0
  162.1060  205.0550  147.2230 C   0  0  0  0  0  0  0  0  0  0  0  0
  161.9800  205.0460  148.6170 C   0  0  0  0  0  3  0  0  0  0  0  0
  160.2030  206.5610  147.0760 C   0  0  0  0  0  3  0  0  0  0  0  0
  161.2100  205.8180  146.4560 C   0  0  0  0  0  3  0  0  0  0  0  0
  163.2590  204.1750  145.2200 C   0  0  0  0  0  1  0  0  0  0  0  0
  163.1200  204.2980  146.6290 O   0  0  0  0  0  0  0  0  0  0  0  0
  161.2040  208.0970  151.0630 O   0  0  0  0  0  0  0  0  0  0  0  0
  162.3090  208.8440  150.6510 C   0  0  0  0  0  2  0  0  0  0  0  0
  162.6970  209.1490  148.3240 O   0  0  0  0  0  1  0  0  0  0  0  0
  161.9530  209.6270  149.4010 C   0  0  2  0  0  3  0  0  0  0  0  0
  162.2370  211.1070  149.6020 C   0  0  0  0  0  2  0  0  0  0  0  0
  162.4690  211.8080  148.2690 C   0  0  0  0  0  2  0  0  0  0  0  0
  160.4670  211.9420  146.9970 O   0  0  0  0  0  0  0  0  0  0  0  0
  161.2340  212.5120  147.8180 C   0  0  0  0  0  0  0  0  0  0  0  0
  160.9820  213.8130  148.2700 O   0  0  0  0  0  0  0  0  0  0  0  0
  158.6980  214.3930  148.8790 O   0  0  0  0  0  0  0  0  0  0  0  0
  160.0220  214.1470  149.2310 C   0  0  0  0  0  0  0  0  0  0  0  0
  160.3620  214.2230  150.4410 O   0  0  0  0  0  1  0  0  0  0  0  0
  2  9  1  1  0  0  0
  3  1  1  6  0  0  0
  3  4  1  0  0  0  0
  4  7  1  0  0  0  0
  5  7  1  0  0  0  0
  5  2  1  0  0  0  0
  6  3  1  0  0  0  0
  6  8  1  0  0  0  0
  7  2  1  0  0  0  0
  8  5  1  0  0  0  0
  9 11  1  0  0  0  0
 10 13  1  0  0  0  0
 10 11  1  0  0  0  0
 10 15  1  0  0  0  0
 12 14  1  0  0  0  0
 12 10  1  0  0  0  0
 13 15  1  0  0  0  0
 14  9  1  0  0  0  0
 16 13  1  0  0  0  0
 16 18  1  0  0  0  0
 17 18  1  0  0  0  0
 19  6  1  0  0  0  0
 20 19  2  0  0  0  0
 21 22  2  0  0  0  0
 22 19  1  0  0  0  0
 23 20  1  0  0  0  0
 24 23  2  0  0  0  0
 24 21  1  0  0  0  0
 25 26  1  0  0  0  0
 26 21  1  0  0  0  0
 27  8  1  0  0  0  0
 28 27  1  0  0  0  0
 29 30  1  0  0  0  0
 30 31  1  0  0  0  0
 30 28  1  0  0  0  0
 32 31  1  0  0  0  0
 33 34  2  0  0  0  0
 34 32  1  0  0  0  0
 34 35  1  0  0  0  0
 35 37  1  0  0  0  0
 36 37  2  0  0  0  0
 37 38  1  0  0  0  0
M  END
>  <MODEL>
7

>  <REMARK>
 VINA RESULT:      -6.5      1.499      2.013
  Name = 
  13 active torsions:
  status: ('A' for Active; 'I' for Inactive)
    1  A    between atoms: C_1  and  C_18
    2  A    between atoms: C_1  and  C_30
    3  A    between atoms: C_4  and  N_7
    4  A    between atoms: O_5  and  C_22
    5  A    between atoms: O_5  and  C_33
    6  A    between atoms: C_8  and  O_23
    7  A    between atoms: C_8  and  C_32
    8  A    between atoms: C_11  and  C_15
    9  A    between atoms: C_16  and  O_37
   10  A    between atoms: O_23  and  C_34
   11  A    between atoms: C_27  and  C_31
   12  A    between atoms: C_27  and  C_32
   13  A    between atoms: C_31  and  C_33
                            x       y       z     vdW  Elec       q    Type
                         _______ _______ _______ _____ _____    ______ ____

>  <TORSDO>
F 13

$$$$
=
 OpenBabel11042422473D

 38 42  0  0  1  0  0  0  0  0999 V2000
  159.7200  213.2380  150.9610 C   0  0  0  0  0  1  0  0  0  0  0  0
  161.4820  209.0870  150.6710 N   0  0  1  0  0  0  0  0  0  0  0  0
  160.6630  212.1690  151.4890 C   0  0  2  0  0  3  0  0  0  0  0  0
  161.2980  211.4850  150.2950 C   0  0  0  0  0  2  0  0  0  0  0  0
  162.0240  209.6140  151.9320 C   0  0  1  0  0  3  0  0  0  0  0  0
  159.9150  211.1180  152.3050 C   0  0  1  0  0  3  0  0  0  0  0  0
  162.2520  210.3500  150.6700 C   0  0  1  0  0  3  0  0  0  0  0  0
  160.8990  210.0910  152.8730 C   0  0  1  0  0  3  0  0  0  0  0  0
  162.3750  208.0180  150.2470 C   0  0  2  0  0  3  0  0  0  0  0  0
  161.7830  207.1090  148.1900 C   0  0  1  0  0  0  0  0  0  0  0  0
  162.6740  208.1550  148.7780 C   0  0  0  0  0  2  0  0  0  0  0  0
  161.0520  206.3630  149.1190 O   0  0  0  0  0  0  0  0  0  0  0  0
  161.4460  207.0680  146.7450 C   0  0  1  0  0  3  0  0  0  0  0  0
  161.6420  206.6830  150.3560 C   0  0  0  0  0  2  0  0  0  0  0  0
  162.4750  206.2730  147.2970 O   0  0  0  0  0  0  0  0  0  0  0  0
  160.2260  206.1990  146.4690 C   0  0  0  0  0  2  0  0  0  0  0  0
  160.8540  204.3720  144.8870 C   0  0  0  0  0  1  0  0  0  0  0  0
  160.2110  205.7410  145.0210 C   0  0  0  0  0  2  0  0  0  0  0  0
  159.1110  211.7220  153.4220 C   0  0  0  0  0  0  0  0  0  0  0  0
  159.7020  212.5820  154.3630 C   0  0  0  0  0  3  0  0  0  0  0  0
  156.9850  211.9190  154.5840 C   0  0  0  0  0  0  0  0  0  0  0  0
  157.7560  211.3920  153.5410 C   0  0  0  0  0  3  0  0  0  0  0  0
  158.9380  213.1130  155.4040 C   0  0  0  0  0  3  0  0  0  0  0  0
  157.5850  212.7820  155.5160 C   0  0  0  0  0  3  0  0  0  0  0  0
  155.2060  210.2840  155.1070 C   0  0  0  0  0  1  0  0  0  0  0  0
  155.6360  211.5670  154.6740 O   0  0  0  0  0  0  0  0  0  0  0  0
  160.2070  208.9880  153.3840 O   0  0  0  0  0  0  0  0  0  0  0  0
  161.1630  208.2710  154.1080 C   0  0  0  0  0  2  0  0  0  0  0  0
  160.7280  206.6330  155.7770 O   0  0  0  0  0  1  0  0  0  0  0  0
  160.6330  206.8820  154.4100 C   0  0  2  0  0  3  0  0  0  0  0  0
  161.4240  205.8340  153.6420 C   0  0  0  0  0  2  0  0  0  0  0  0
  160.5110  204.7330  153.1180 C   0  0  0  0  0  2  0  0  0  0  0  0
  162.3990  203.8220  151.9990 O   0  0  0  0  0  0  0  0  0  0  0  0
  161.1530  204.0080  151.9830 C   0  0  0  0  0  0  0  0  0  0  0  0
  160.3680  203.6010  150.8970 O   0  0  0  0  0  0  0  0  0  0  0  0
  161.1810  203.1550  148.6470 O   0  0  0  0  0  0  0  0  0  0  0  0
  160.7880  202.7080  149.9050 C   0  0  0  0  0  0  0  0  0  0  0  0
  160.8140  201.4750  150.1570 O   0  0  0  0  0  1  0  0  0  0  0  0
  2  9  1  6  0  0  0
  2  5  1  0  0  0  0
  3  1  1  6  0  0  0
  3  6  1  0  0  0  0
  4  7  1  0  0  0  0
  4  3  1  0  0  0  0
  5  8  1  0  0  0  0
  6  8  1  0  0  0  0
  6 19  1  0  0  0  0
  7  2  1  0  0  0  0
  7  5  1  0  0  0  0
  8 27  1  0  0  0  0
  9 14  1  0  0  0  0
 10 11  1  0  0  0  0
 10 12  1  0  0  0  0
 11  9  1  0  0  0  0
 12 14  1  0  0  0  0
 13 15  1  0  0  0  0
 13 10  1  0  0  0  0
 15 10  1  0  0  0  0
 16 13  1  0  0  0  0
 17 18  1  0  0  0  0
 18 16  1  0  0  0  0
 19 22  2  0  0  0  0
 19 20  1  0  0  0  0
 20 23  2  0  0  0  0
 21 26  1  0  0  0  0
 21 24  2  0  0  0  0
 22 21  1  0  0  0  0
 23 24  1  0  0  0  0
 26 25  1  0  0  0  0
 27 28  1  0  0  0  0
 28 30  1  0  0  0  0
 30 29  1  0  0  0  0
 31 30  1  0  0  0  0
 32 31  1  0  0  0  0
 34 33  2  0  0  0  0
 34 32  1  0  0  0  0
 35 34  1  0  0  0  0
 36 37  2  0  0  0  0
 37 38  1  0  0  0  0
 37 35  1  0  0  0  0
M  END
>  <MODEL>
8

>  <REMARK>
 VINA RESULT:      -6.1      2.907      8.682
  Name = 
  13 active torsions:
  status: ('A' for Active; 'I' for Inactive)
    1  A    between atoms: C_1  and  C_18
    2  A    between atoms: C_1  and  C_30
    3  A    between atoms: C_4  and  N_7
    4  A    between atoms: O_5  and  C_22
    5  A    between atoms: O_5  and  C_33
    6  A    between atoms: C_8  and  O_23
    7  A    between atoms: C_8  and  C_32
    8  A    between atoms: C_11  and  C_15
    9  A    between atoms: C_16  and  O_37
   10  A    between atoms: O_23  and  C_34
   11  A    between atoms: C_27  and  C_31
   12  A    between atoms: C_27  and  C_32
   13  A    between atoms: C_31  and  C_33
                            x       y       z     vdW  Elec       q    Type
                         _______ _______ _______ _____ _____    ______ ____

>  <TORSDO>
F 13

$$$$
=
 OpenBabel11042422473D

 38 42  0  0  1  0  0  0  0  0999 V2000
  160.8690  205.2650  152.1160 C   0  0  0  0  0  1  0  0  0  0  0  0
  160.7250  209.7520  152.6270 N   0  0  1  0  0  0  0  0  0  0  0  0
  161.5530  206.6210  152.0400 C   0  0  2  0  0  3  0  0  0  0  0  0
  161.1080  207.4290  153.2420 C   0  0  0  0  0  2  0  0  0  0  0  0
  162.0370  209.5090  152.0110 C   0  0  1  0  0  3  0  0  0  0  0  0
  161.1530  207.3770  150.7760 C   0  0  1  0  0  3  0  0  0  0  0  0
  161.6890  208.8430  153.2840 C   0  0  1  0  0  3  0  0  0  0  0  0
  161.9030  208.7100  150.6980 C   0  0  1  0  0  3  0  0  0  0  0  0
  160.8090  211.0470  153.2890 C   0  0  2  0  0  3  0  0  0  0  0  0
  158.7530  211.7910  154.0830 C   0  0  1  0  0  0  0  0  0  0  0  0
  159.9630  211.0390  154.5350 C   0  0  0  0  0  2  0  0  0  0  0  0
  158.8070  212.2660  152.7690 O   0  0  0  0  0  0  0  0  0  0  0  0
  157.4720  211.7650  154.8310 C   0  0  1  0  0  3  0  0  0  0  0  0
  160.1570  212.1040  152.4020 C   0  0  0  0  0  2  0  0  0  0  0  0
  158.4060  212.8140  154.9810 O   0  0  0  0  0  0  0  0  0  0  0  0
  156.3030  212.2430  153.9780 C   0  0  0  0  0  2  0  0  0  0  0  0
  154.7220  214.1520  153.6780 C   0  0  0  0  0  1  0  0  0  0  0  0
  155.5560  213.3670  154.6740 C   0  0  0  0  0  2  0  0  0  0  0  0
  161.4010  206.5820  149.5250 C   0  0  0  0  0  0  0  0  0  0  0  0
  162.0040  207.1650  148.3990 C   0  0  0  0  0  3  0  0  0  0  0  0
  161.1900  204.4820  148.3210 C   0  0  0  0  0  0  0  0  0  0  0  0
  160.9940  205.2440  149.4790 C   0  0  0  0  0  3  0  0  0  0  0  0
  162.2050  206.4100  147.2410 C   0  0  0  0  0  3  0  0  0  0  0  0
  161.7980  205.0740  147.2010 C   0  0  0  0  0  3  0  0  0  0  0  0
  160.7630  202.3350  149.4720 C   0  0  0  0  0  1  0  0  0  0  0  0
  160.7690  203.1490  148.3070 O   0  0  0  0  0  0  0  0  0  0  0  0
  161.3490  209.5220  149.7030 O   0  0  0  0  0  0  0  0  0  0  0  0
  162.1740  210.6480  149.6590 C   0  0  0  0  0  2  0  0  0  0  0  0
  162.9950  212.3470  148.2110 O   0  0  0  0  0  1  0  0  0  0  0  0
  162.1870  211.2130  148.2510 C   0  0  2  0  0  3  0  0  0  0  0  0
  160.7760  211.5740  147.8110 C   0  0  0  0  0  2  0  0  0  0  0  0
  160.7860  212.7630  146.8580 C   0  0  0  0  0  2  0  0  0  0  0  0
  158.7380  213.4650  147.8370 O   0  0  0  0  0  0  0  0  0  0  0  0
  159.4390  213.4000  146.7930 C   0  0  0  0  0  0  0  0  0  0  0  0
  158.9570  213.8600  145.5610 O   0  0  0  0  0  0  0  0  0  0  0  0
  160.5740  212.6990  144.1620 O   0  0  0  0  0  1  0  0  0  0  0  0
  159.6130  213.6900  144.3370 C   0  0  0  0  0  0  0  0  0  0  0  0
  159.3240  214.4460  143.3730 O   0  0  0  0  0  0  0  0  0  0  0  0
  2  7  1  0  0  0  0
  2  9  1  1  0  0  0
  3  1  1  6  0  0  0
  3  4  1  0  0  0  0
  4  7  1  0  0  0  0
  5  2  1  0  0  0  0
  5  7  1  0  0  0  0
  6  3  1  0  0  0  0
  8  6  1  0  0  0  0
  8  5  1  0  0  0  0
  9 11  1  0  0  0  0
 10 11  1  0  0  0  0
 10 13  1  0  0  0  0
 10 15  1  0  0  0  0
 12 10  1  0  0  0  0
 13 15  1  0  0  0  0
 14 12  1  0  0  0  0
 14  9  1  0  0  0  0
 16 18  1  0  0  0  0
 16 13  1  0  0  0  0
 17 18  1  0  0  0  0
 19  6  1  0  0  0  0
 20 19  2  0  0  0  0
 21 22  2  0  0  0  0
 22 19  1  0  0  0  0
 23 20  1  0  0  0  0
 24 23  2  0  0  0  0
 24 21  1  0  0  0  0
 26 21  1  0  0  0  0
 26 25  1  0  0  0  0
 27  8  1  0  0  0  0
 28 27  1  0  0  0  0
 29 30  1  0  0  0  0
 30 28  1  0  0  0  0
 31 30  1  0  0  0  0
 32 31  1  0  0  0  0
 34 32  1  0  0  0  0
 34 33  2  0  0  0  0
 35 34  1  0  0  0  0
 36 37  1  0  0  0  0
 37 35  1  0  0  0  0
 38 37  2  0  0  0  0
M  END
>  <MODEL>
9

>  <REMARK>
 VINA RESULT:      -5.6      1.838      2.690
  Name = 
  13 active torsions:
  status: ('A' for Active; 'I' for Inactive)
    1  A    between atoms: C_1  and  C_18
    2  A    between atoms: C_1  and  C_30
    3  A    between atoms: C_4  and  N_7
    4  A    between atoms: O_5  and  C_22
    5  A    between atoms: O_5  and  C_33
    6  A    between atoms: C_8  and  O_23
    7  A    between atoms: C_8  and  C_32
    8  A    between atoms: C_11  and  C_15
    9  A    between atoms: C_16  and  O_37
   10  A    between atoms: O_23  and  C_34
   11  A    between atoms: C_27  and  C_31
   12  A    between atoms: C_27  and  C_32
   13  A    between atoms: C_31  and  C_33
                            x       y       z     vdW  Elec       q    Type
                         _______ _______ _______ _____ _____    ______ ____

>  <TORSDO>
F 13

$$$$
