=
 OpenBabel11052411153D

 26 28  0  0  1  0  0  0  0  0999 V2000
  161.1680  207.2030  154.5370 C   0  0  0  0  0  3  0  0  0  0  0  0
  161.0410  206.9230  152.1260 C   0  0  0  0  0  0  0  0  0  0  0  0
  161.0930  208.5940  154.3990 C   0  0  0  0  0  0  0  0  0  0  0  0
  160.9720  209.1580  153.1130 C   0  0  0  0  0  0  0  0  0  0  0  0
  161.1450  206.3750  153.4130 C   0  0  0  0  0  3  0  0  0  0  0  0
  160.9530  208.3150  151.9910 C   0  0  0  0  0  3  0  0  0  0  0  0
  160.9710  204.4030  148.6950 N   0  0  0  0  0  0  0  0  0  0  0  0
  161.0030  204.6500  151.0700 C   0  0  0  0  0  3  0  0  0  0  0  0
  160.9800  203.8400  149.9320 C   0  0  0  0  0  3  0  0  0  0  0  0
  161.0160  206.0470  150.9320 C   0  0  0  0  0  0  0  0  0  0  0  0
  161.0070  206.5950  149.6400 C   0  0  0  0  0  3  0  0  0  0  0  0
  160.9840  205.7510  148.5270 C   0  0  0  0  0  3  0  0  0  0  0  0
  158.7300  209.4960  155.6830 O   0  0  0  0  0  1  0  0  0  0  0  0
  159.9770  209.8350  156.1950 C   0  0  0  0  0  3  0  0  0  0  0  0
  161.1170  209.4350  155.6180 C   0  0  0  0  0  0  0  0  0  0  0  0
  162.7810  209.4130  157.2590 O   0  0  0  0  0  0  0  0  0  0  0  0
  162.3760  209.8600  156.1650 N   0  0  0  0  0  0  0  0  0  0  0  0
  163.1760  210.7340  155.4660 O   0  0  0  0  0  0  0  0  0  0  0  0
  160.8520  210.5470  152.9690 O   0  0  0  0  0  0  0  0  0  0  0  0
  159.8480  212.4930  151.9990 C   0  0  0  0  0  2  0  0  0  0  0  0
  159.5610  212.4990  153.4930 C   0  0  2  0  0  3  0  0  0  0  0  0
  159.6080  211.1880  152.7220 C   0  0  2  0  0  3  0  0  0  0  0  0
  157.5950  212.6260  154.9510 C   0  0  0  0  0  2  0  0  0  0  0  0
  158.1310  212.8940  153.7610 C   0  0  0  0  0  0  0  0  0  0  0  0
  157.3480  213.7750  152.8270 C   0  0  0  0  0  2  0  0  0  0  0  0
  155.9490  213.8690  153.2160 N   0  0  0  0  0  1  0  0  0  0  0  0
  2  5  1  0  0  0  0
  3  1  1  0  0  0  0
  3 15  1  0  0  0  0
  4  3  2  0  0  0  0
  5  1  2  0  0  0  0
  6  2  2  0  0  0  0
  6  4  1  0  0  0  0
  7  9  1  0  0  0  0
  9  8  2  0  0  0  0
 10  8  1  0  0  0  0
 10  2  1  0  0  0  0
 11 10  2  0  0  0  0
 12  7  2  0  0  0  0
 12 11  1  0  0  0  0
 13 14  1  0  0  0  0
 15 17  1  0  0  0  0
 15 14  2  0  0  0  0
 17 16  2  0  0  0  0
 18 17  2  0  0  0  0
 19  4  1  0  0  0  0
 20 22  1  0  0  0  0
 20 21  1  0  0  0  0
 21 24  1  6  0  0  0
 22 19  1  1  0  0  0
 22 21  1  0  0  0  0
 24 23  2  0  0  0  0
 25 26  1  0  0  0  0
 25 24  1  0  0  0  0
M  END
>  <MODEL>
1

>  <REMARK>
 VINA RESULT:      -6.9      0.000      0.000
  Name = 
  7 active torsions:
  status: ('A' for Active; 'I' for Inactive)
    1  A    between atoms: C_2  and  C_19
    2  A    between atoms: C_3  and  C_26
    3  A    between atoms: C_6  and  O_18
    4  A    between atoms: C_8  and  C_14
    5  A    between atoms: C_8  and  C_22
    6  A    between atoms: N_10  and  C_26
    7  A    between atoms: O_18  and  C_24
                            x       y       z     vdW  Elec       q    Type
                         _______ _______ _______ _____ _____    ______ ____

>  <TORSDO>
F 7

$$$$
=
 OpenBabel11052411153D

 26 28  0  0  1  0  0  0  0  0999 V2000
  162.3310  207.5450  147.4400 C   0  0  0  0  0  3  0  0  0  0  0  0
  161.5840  207.4920  149.7510 C   0  0  0  0  0  0  0  0  0  0  0  0
  161.8370  206.2520  147.2300 C   0  0  0  0  0  0  0  0  0  0  0  0
  161.1930  205.5760  148.2860 C   0  0  0  0  0  0  0  0  0  0  0  0
  162.2080  208.1590  148.6870 C   0  0  0  0  0  3  0  0  0  0  0  0
  161.0790  206.2030  149.5360 C   0  0  0  0  0  3  0  0  0  0  0  0
  161.2090  209.3600  153.5600 N   0  0  0  0  0  0  0  0  0  0  0  0
  161.7670  209.5000  151.2420 C   0  0  0  0  0  3  0  0  0  0  0  0
  161.6370  210.0950  152.4990 C   0  0  0  0  0  3  0  0  0  0  0  0
  161.4520  208.1420  151.0770 C   0  0  0  0  0  0  0  0  0  0  0  0
  161.0130  207.4130  152.1930 C   0  0  0  0  0  3  0  0  0  0  0  0
  160.8970  208.0440  153.4330 C   0  0  0  0  0  3  0  0  0  0  0  0
  164.0420  204.6090  146.5310 O   0  0  0  0  0  1  0  0  0  0  0  0
  163.0390  204.8660  145.6020 C   0  0  0  0  0  3  0  0  0  0  0  0
  161.9850  205.6390  145.8900 C   0  0  0  0  0  0  0  0  0  0  0  0
  159.8520  206.2790  145.1790 O   0  0  0  0  0  0  0  0  0  0  0  0
  161.0060  205.9100  144.8730 N   0  0  0  0  0  0  0  0  0  0  0  0
  161.3410  205.8090  143.5430 O   0  0  0  0  0  0  0  0  0  0  0  0
  160.6570  204.2990  148.0730 O   0  0  0  0  0  0  0  0  0  0  0  0
  160.3480  201.9350  148.3030 C   0  0  0  0  0  2  0  0  0  0  0  0
  160.1880  202.5750  149.6730 C   0  0  2  0  0  3  0  0  0  0  0  0
  161.1940  203.1300  148.6770 C   0  0  2  0  0  3  0  0  0  0  0  0
  161.1970  200.4920  150.4750 C   0  0  0  0  0  2  0  0  0  0  0  0
  160.8940  201.7640  150.7290 C   0  0  0  0  0  0  0  0  0  0  0  0
  161.4710  202.3820  151.9720 C   0  0  0  0  0  2  0  0  0  0  0  0
  160.8810  203.6800  152.2570 N   0  0  0  0  0  1  0  0  0  0  0  0
  1  5  1  0  0  0  0
  2 10  1  0  0  0  0
  3  1  2  0  0  0  0
  3  4  1  0  0  0  0
  4  6  2  0  0  0  0
  5  2  2  0  0  0  0
  6  2  1  0  0  0  0
  8  9  1  0  0  0  0
  9  7  2  0  0  0  0
 10  8  2  0  0  0  0
 10 11  1  0  0  0  0
 11 12  2  0  0  0  0
 12  7  1  0  0  0  0
 14 15  2  0  0  0  0
 14 13  1  0  0  0  0
 15  3  1  0  0  0  0
 17 16  2  0  0  0  0
 17 15  1  0  0  0  0
 18 17  2  0  0  0  0
 19  4  1  0  0  0  0
 20 22  1  0  0  0  0
 20 21  1  0  0  0  0
 21 24  1  1  0  0  0
 22 19  1  6  0  0  0
 22 21  1  0  0  0  0
 23 24  2  0  0  0  0
 24 25  1  0  0  0  0
 25 26  1  0  0  0  0
M  END
>  <MODEL>
2

>  <REMARK>
 VINA RESULT:      -6.9      4.735      9.205
  Name = 
  7 active torsions:
  status: ('A' for Active; 'I' for Inactive)
    1  A    between atoms: C_2  and  C_19
    2  A    between atoms: C_3  and  C_26
    3  A    between atoms: C_6  and  O_18
    4  A    between atoms: C_8  and  C_14
    5  A    between atoms: C_8  and  C_22
    6  A    between atoms: N_10  and  C_26
    7  A    between atoms: O_18  and  C_24
                            x       y       z     vdW  Elec       q    Type
                         _______ _______ _______ _____ _____    ______ ____

>  <TORSDO>
F 7

$$$$
=
 OpenBabel11052411153D

 26 28  0  0  1  0  0  0  0  0999 V2000
  161.6320  207.2450  147.8260 C   0  0  0  0  0  3  0  0  0  0  0  0
  161.3590  206.7690  150.1930 C   0  0  0  0  0  0  0  0  0  0  0  0
  161.7360  205.8770  147.5430 C   0  0  0  0  0  0  0  0  0  0  0  0
  161.6320  204.9420  148.5920 C   0  0  0  0  0  0  0  0  0  0  0  0
  161.4470  207.6870  149.1370 C   0  0  0  0  0  3  0  0  0  0  0  0
  161.4500  205.4000  149.9070 C   0  0  0  0  0  3  0  0  0  0  0  0
  160.7940  208.1070  154.1960 N   0  0  0  0  0  0  0  0  0  0  0  0
  161.2200  206.3310  152.6580 C   0  0  0  0  0  3  0  0  0  0  0  0
  161.0320  206.7890  153.9640 C   0  0  0  0  0  3  0  0  0  0  0  0
  161.1630  207.2360  151.5860 C   0  0  0  0  0  0  0  0  0  0  0  0
  160.9150  208.5890  151.8610 C   0  0  0  0  0  3  0  0  0  0  0  0
  160.7320  209.0080  153.1810 C   0  0  0  0  0  3  0  0  0  0  0  0
  164.1070  204.6120  146.6350 O   0  0  0  0  0  1  0  0  0  0  0  0
  163.0610  204.8530  145.7520 C   0  0  0  0  0  3  0  0  0  0  0  0
  161.9270  205.4510  146.1380 C   0  0  0  0  0  0  0  0  0  0  0  0
  161.1300  205.5990  143.9460 O   0  0  0  0  0  0  0  0  0  0  0  0
  160.9010  205.7180  145.1680 N   0  0  0  0  0  0  0  0  0  0  0  0
  159.6340  206.0680  145.5770 O   0  0  0  0  0  0  0  0  0  0  0  0
  161.6910  203.5700  148.3130 O   0  0  0  0  0  0  0  0  0  0  0  0
  160.5070  201.4940  148.1710 C   0  0  0  0  0  2  0  0  0  0  0  0
  161.2710  201.6990  146.8730 C   0  0  2  0  0  3  0  0  0  0  0  0
  160.6660  202.8860  147.6070 C   0  0  2  0  0  3  0  0  0  0  0  0
  160.0250  202.2870  144.8470 C   0  0  0  0  0  2  0  0  0  0  0  0
  160.4180  201.3300  145.6860 C   0  0  0  0  0  0  0  0  0  0  0  0
  160.1730  199.9030  145.2790 C   0  0  0  0  0  2  0  0  0  0  0  0
  161.2900  199.0400  145.6290 N   0  0  0  0  0  1  0  0  0  0  0  0
  1  5  1  0  0  0  0
  2 10  1  0  0  0  0
  3  1  2  0  0  0  0
  3  4  1  0  0  0  0
  4  6  2  0  0  0  0
  5  2  2  0  0  0  0
  6  2  1  0  0  0  0
  8  9  2  0  0  0  0
  9  7  1  0  0  0  0
 10 11  2  0  0  0  0
 10  8  1  0  0  0  0
 11 12  1  0  0  0  0
 12  7  2  0  0  0  0
 14 15  2  0  0  0  0
 14 13  1  0  0  0  0
 15  3  1  0  0  0  0
 16 17  2  0  0  0  0
 17 18  2  0  0  0  0
 17 15  1  0  0  0  0
 19  4  1  0  0  0  0
 21 24  1  6  0  0  0
 21 22  1  0  0  0  0
 21 20  1  0  0  0  0
 22 20  1  0  0  0  0
 22 19  1  1  0  0  0
 23 24  2  0  0  0  0
 25 26  1  0  0  0  0
 25 24  1  0  0  0  0
M  END
>  <MODEL>
3

>  <REMARK>
 VINA RESULT:      -6.5      4.863      9.988
  Name = 
  7 active torsions:
  status: ('A' for Active; 'I' for Inactive)
    1  A    between atoms: C_2  and  C_19
    2  A    between atoms: C_3  and  C_26
    3  A    between atoms: C_6  and  O_18
    4  A    between atoms: C_8  and  C_14
    5  A    between atoms: C_8  and  C_22
    6  A    between atoms: N_10  and  C_26
    7  A    between atoms: O_18  and  C_24
                            x       y       z     vdW  Elec       q    Type
                         _______ _______ _______ _____ _____    ______ ____

>  <TORSDO>
F 7

$$$$
=
 OpenBabel11052411153D

 26 28  0  0  1  0  0  0  0  0999 V2000
  160.8540  207.9330  154.8090 C   0  0  0  0  0  3  0  0  0  0  0  0
  160.9510  207.3010  152.4650 C   0  0  0  0  0  0  0  0  0  0  0  0
  160.7860  209.2880  154.4610 C   0  0  0  0  0  0  0  0  0  0  0  0
  160.7810  209.6560  153.1010 C   0  0  0  0  0  0  0  0  0  0  0  0
  160.9380  206.9500  153.8220 C   0  0  0  0  0  3  0  0  0  0  0  0
  160.8700  208.6570  152.1180 C   0  0  0  0  0  3  0  0  0  0  0  0
  161.2050  204.3090  149.4460 N   0  0  0  0  0  0  0  0  0  0  0  0
  160.9950  206.6080  150.0550 C   0  0  0  0  0  3  0  0  0  0  0  0
  161.0810  205.6120  149.0800 C   0  0  0  0  0  3  0  0  0  0  0  0
  161.0400  206.2590  151.4150 C   0  0  0  0  0  0  0  0  0  0  0  0
  161.1690  204.9050  151.7580 C   0  0  0  0  0  3  0  0  0  0  0  0
  161.2510  203.9380  150.7520 C   0  0  0  0  0  3  0  0  0  0  0  0
  163.0560  210.6430  155.4890 O   0  0  0  0  0  1  0  0  0  0  0  0
  161.7900  210.9180  155.9930 C   0  0  0  0  0  3  0  0  0  0  0  0
  160.6930  210.2980  155.5390 C   0  0  0  0  0  0  0  0  0  0  0  0
  159.3450  211.1290  157.2580 O   0  0  0  0  0  0  0  0  0  0  0  0
  159.4170  210.5890  156.1340 N   0  0  0  0  0  0  0  0  0  0  0  0
  158.2550  210.3140  155.4520 O   0  0  0  0  0  0  0  0  0  0  0  0
  160.6680  211.0050  152.7420 O   0  0  0  0  0  0  0  0  0  0  0  0
  159.6710  212.7700  151.4670 C   0  0  0  0  0  2  0  0  0  0  0  0
  159.3990  213.0310  152.9410 C   0  0  2  0  0  3  0  0  0  0  0  0
  159.4280  211.6090  152.4020 C   0  0  2  0  0  3  0  0  0  0  0  0
  157.2510  213.8530  152.0970 C   0  0  0  0  0  2  0  0  0  0  0  0
  157.9760  213.4790  153.1510 C   0  0  0  0  0  0  0  0  0  0  0  0
  157.2620  213.3150  154.4640 C   0  0  0  0  0  2  0  0  0  0  0  0
  155.9640  212.6780  154.3010 N   0  0  0  0  0  1  0  0  0  0  0  0
  2  5  1  0  0  0  0
  3  1  1  0  0  0  0
  3 15  1  0  0  0  0
  4  3  2  0  0  0  0
  5  1  2  0  0  0  0
  6  2  2  0  0  0  0
  6  4  1  0  0  0  0
  7 12  1  0  0  0  0
  8 10  2  0  0  0  0
  9  7  2  0  0  0  0
  9  8  1  0  0  0  0
 10 11  1  0  0  0  0
 10  2  1  0  0  0  0
 12 11  2  0  0  0  0
 13 14  1  0  0  0  0
 15 14  2  0  0  0  0
 15 17  1  0  0  0  0
 17 16  2  0  0  0  0
 18 17  2  0  0  0  0
 19  4  1  0  0  0  0
 20 22  1  0  0  0  0
 20 21  1  0  0  0  0
 21 24  1  6  0  0  0
 22 19  1  1  0  0  0
 22 21  1  0  0  0  0
 23 24  2  0  0  0  0
 24 25  1  0  0  0  0
 26 25  1  0  0  0  0
M  END
>  <MODEL>
4

>  <REMARK>
 VINA RESULT:      -6.3      1.088      2.143
  Name = 
  7 active torsions:
  status: ('A' for Active; 'I' for Inactive)
    1  A    between atoms: C_2  and  C_19
    2  A    between atoms: C_3  and  C_26
    3  A    between atoms: C_6  and  O_18
    4  A    between atoms: C_8  and  C_14
    5  A    between atoms: C_8  and  C_22
    6  A    between atoms: N_10  and  C_26
    7  A    between atoms: O_18  and  C_24
                            x       y       z     vdW  Elec       q    Type
                         _______ _______ _______ _____ _____    ______ ____

>  <TORSDO>
F 7

$$$$
=
 OpenBabel11052411153D

 26 28  0  0  1  0  0  0  0  0999 V2000
  160.8300  207.9630  153.8920 C   0  0  0  0  0  3  0  0  0  0  0  0
  161.2180  206.5810  151.9310 C   0  0  0  0  0  0  0  0  0  0  0  0
  161.2900  209.0950  153.2090 C   0  0  0  0  0  0  0  0  0  0  0  0
  161.7010  208.9760  151.8660 C   0  0  0  0  0  0  0  0  0  0  0  0
  160.7970  206.7180  153.2620 C   0  0  0  0  0  3  0  0  0  0  0  0
  161.6660  207.7180  151.2450 C   0  0  0  0  0  3  0  0  0  0  0  0
  161.1170  202.7870  150.0000 N   0  0  0  0  0  0  0  0  0  0  0  0
  161.0990  205.1710  149.8610 C   0  0  0  0  0  3  0  0  0  0  0  0
  161.0670  203.9180  149.2460 C   0  0  0  0  0  3  0  0  0  0  0  0
  161.1840  205.2600  151.2600 C   0  0  0  0  0  0  0  0  0  0  0  0
  161.2330  204.0740  152.0080 C   0  0  0  0  0  3  0  0  0  0  0  0
  161.1990  202.8390  151.3550 C   0  0  0  0  0  3  0  0  0  0  0  0
  159.3310  211.0980  152.7660 O   0  0  0  0  0  1  0  0  0  0  0  0
  160.3570  211.3140  153.6780 C   0  0  0  0  0  3  0  0  0  0  0  0
  161.3050  210.3970  153.9130 C   0  0  0  0  0  0  0  0  0  0  0  0
  163.5590  210.7020  154.4500 O   0  0  0  0  0  0  0  0  0  0  0  0
  162.3690  210.6980  154.8310 N   0  0  0  0  0  0  0  0  0  0  0  0
  162.0880  211.0290  156.1360 O   0  0  0  0  0  0  0  0  0  0  0  0
  162.1210  210.1120  151.1610 O   0  0  0  0  0  0  0  0  0  0  0  0
  162.0560  210.1250  148.7670 C   0  0  0  0  0  2  0  0  0  0  0  0
  162.3320  211.5420  149.2470 C   0  0  2  0  0  3  0  0  0  0  0  0
  161.4140  210.6240  150.0400 C   0  0  2  0  0  3  0  0  0  0  0  0
  161.2470  213.7250  149.0050 C   0  0  0  0  0  2  0  0  0  0  0  0
  161.5200  212.5390  148.4620 C   0  0  0  0  0  0  0  0  0  0  0  0
  161.1890  212.3470  147.0080 C   0  0  0  0  0  2  0  0  0  0  0  0
  159.7540  212.3670  146.7700 N   0  0  0  0  0  1  0  0  0  0  0  0
  2  5  2  0  0  0  0
  3  1  2  0  0  0  0
  3 15  1  0  0  0  0
  4  3  1  0  0  0  0
  5  1  1  0  0  0  0
  6  4  2  0  0  0  0
  6  2  1  0  0  0  0
  7 12  1  0  0  0  0
  8 10  2  0  0  0  0
  9  8  1  0  0  0  0
  9  7  2  0  0  0  0
 10  2  1  0  0  0  0
 10 11  1  0  0  0  0
 12 11  2  0  0  0  0
 13 14  1  0  0  0  0
 14 15  2  0  0  0  0
 15 17  1  0  0  0  0
 16 17  2  0  0  0  0
 17 18  2  0  0  0  0
 19  4  1  0  0  0  0
 20 21  1  0  0  0  0
 20 22  1  0  0  0  0
 21 24  1  6  0  0  0
 21 22  1  0  0  0  0
 22 19  1  1  0  0  0
 24 23  2  0  0  0  0
 25 24  1  0  0  0  0
 26 25  1  0  0  0  0
M  END
>  <MODEL>
5

>  <REMARK>
 VINA RESULT:      -6.3      2.653      3.632
  Name = 
  7 active torsions:
  status: ('A' for Active; 'I' for Inactive)
    1  A    between atoms: C_2  and  C_19
    2  A    between atoms: C_3  and  C_26
    3  A    between atoms: C_6  and  O_18
    4  A    between atoms: C_8  and  C_14
    5  A    between atoms: C_8  and  C_22
    6  A    between atoms: N_10  and  C_26
    7  A    between atoms: O_18  and  C_24
                            x       y       z     vdW  Elec       q    Type
                         _______ _______ _______ _____ _____    ______ ____

>  <TORSDO>
F 7

$$$$
=
 OpenBabel11052411153D

 26 28  0  0  1  0  0  0  0  0999 V2000
  162.3480  207.6580  147.6470 C   0  0  0  0  0  3  0  0  0  0  0  0
  161.5940  207.5990  149.9560 C   0  0  0  0  0  0  0  0  0  0  0  0
  161.8230  206.3800  147.4220 C   0  0  0  0  0  0  0  0  0  0  0  0
  161.1580  205.7090  148.4680 C   0  0  0  0  0  0  0  0  0  0  0  0
  162.2380  208.2620  148.9010 C   0  0  0  0  0  3  0  0  0  0  0  0
  161.0570  206.3250  149.7250 C   0  0  0  0  0  3  0  0  0  0  0  0
  161.2500  209.4310  153.7850 N   0  0  0  0  0  0  0  0  0  0  0  0
  160.9670  207.5190  152.3820 C   0  0  0  0  0  3  0  0  0  0  0  0
  160.8620  208.1370  153.6300 C   0  0  0  0  0  3  0  0  0  0  0  0
  161.4750  208.2370  151.2880 C   0  0  0  0  0  0  0  0  0  0  0  0
  161.8660  209.5710  151.4820 C   0  0  0  0  0  3  0  0  0  0  0  0
  161.7440  210.1540  152.7460 C   0  0  0  0  0  3  0  0  0  0  0  0
  164.0640  204.8170  146.6610 O   0  0  0  0  0  1  0  0  0  0  0  0
  163.0310  205.0440  145.7580 C   0  0  0  0  0  3  0  0  0  0  0  0
  161.9580  205.7790  146.0750 C   0  0  0  0  0  0  0  0  0  0  0  0
  161.2160  205.9550  143.8660 O   0  0  0  0  0  0  0  0  0  0  0  0
  160.9460  206.0210  145.0840 N   0  0  0  0  0  0  0  0  0  0  0  0
  159.6510  206.2850  145.4640 O   0  0  0  0  0  0  0  0  0  0  0  0
  160.5910  204.4490  148.2400 O   0  0  0  0  0  0  0  0  0  0  0  0
  161.1370  202.5620  146.8700 C   0  0  0  0  0  2  0  0  0  0  0  0
  160.4260  202.0590  148.1180 C   0  0  2  0  0  3  0  0  0  0  0  0
  161.3620  203.2560  148.1930 C   0  0  2  0  0  3  0  0  0  0  0  0
  160.9770  200.5350  149.9550 C   0  0  0  0  0  2  0  0  0  0  0  0
  161.1080  200.8310  148.6630 C   0  0  0  0  0  0  0  0  0  0  0  0
  161.7490  199.8000  147.7740 C   0  0  0  0  0  2  0  0  0  0  0  0
  161.1530  199.7830  146.4470 N   0  0  0  0  0  1  0  0  0  0  0  0
  1  5  1  0  0  0  0
  2 10  1  0  0  0  0
  3  1  2  0  0  0  0
  3  4  1  0  0  0  0
  4  6  2  0  0  0  0
  5  2  2  0  0  0  0
  6  2  1  0  0  0  0
  8  9  2  0  0  0  0
  9  7  1  0  0  0  0
 10 11  2  0  0  0  0
 10  8  1  0  0  0  0
 11 12  1  0  0  0  0
 12  7  2  0  0  0  0
 14 15  2  0  0  0  0
 14 13  1  0  0  0  0
 15  3  1  0  0  0  0
 16 17  2  0  0  0  0
 17 18  2  0  0  0  0
 17 15  1  0  0  0  0
 19  4  1  0  0  0  0
 20 21  1  0  0  0  0
 20 22  1  0  0  0  0
 21 22  1  0  0  0  0
 21 24  1  1  0  0  0
 22 19  1  6  0  0  0
 24 23  2  0  0  0  0
 25 24  1  0  0  0  0
 26 25  1  0  0  0  0
M  END
>  <MODEL>
6

>  <REMARK>
 VINA RESULT:      -6.0      4.664      9.717
  Name = 
  7 active torsions:
  status: ('A' for Active; 'I' for Inactive)
    1  A    between atoms: C_2  and  C_19
    2  A    between atoms: C_3  and  C_26
    3  A    between atoms: C_6  and  O_18
    4  A    between atoms: C_8  and  C_14
    5  A    between atoms: C_8  and  C_22
    6  A    between atoms: N_10  and  C_26
    7  A    between atoms: O_18  and  C_24
                            x       y       z     vdW  Elec       q    Type
                         _______ _______ _______ _____ _____    ______ ____

>  <TORSDO>
F 7

$$$$
=
 OpenBabel11052411153D

 26 28  0  0  1  0  0  0  0  0999 V2000
  160.8100  208.1070  151.9870 C   0  0  0  0  0  3  0  0  0  0  0  0
  161.4670  207.2300  149.8190 C   0  0  0  0  0  0  0  0  0  0  0  0
  161.1580  209.4040  151.5900 C   0  0  0  0  0  0  0  0  0  0  0  0
  161.6480  209.6230  150.2870 C   0  0  0  0  0  0  0  0  0  0  0  0
  160.9650  207.0300  151.1130 C   0  0  0  0  0  3  0  0  0  0  0  0
  161.8020  208.5310  149.4180 C   0  0  0  0  0  3  0  0  0  0  0  0
  161.9410  203.9530  147.1410 N   0  0  0  0  0  0  0  0  0  0  0  0
  162.2170  206.2750  147.6250 C   0  0  0  0  0  3  0  0  0  0  0  0
  162.3640  205.1880  146.7610 C   0  0  0  0  0  3  0  0  0  0  0  0
  161.6320  206.0890  148.8880 C   0  0  0  0  0  0  0  0  0  0  0  0
  161.2060  204.8020  149.2480 C   0  0  0  0  0  3  0  0  0  0  0  0
  161.3700  203.7400  148.3550 C   0  0  0  0  0  3  0  0  0  0  0  0
  162.9250  209.8650  153.7600 O   0  0  0  0  0  1  0  0  0  0  0  0
  161.8340  210.7030  153.5570 C   0  0  0  0  0  3  0  0  0  0  0  0
  160.9730  210.5180  152.5480 C   0  0  0  0  0  0  0  0  0  0  0  0
  158.7350  211.0780  152.9220 O   0  0  0  0  0  0  0  0  0  0  0  0
  159.8360  211.3870  152.4180 N   0  0  0  0  0  0  0  0  0  0  0  0
  159.9570  212.5960  151.7730 O   0  0  0  0  0  0  0  0  0  0  0  0
  161.9560  210.9230  149.8660 O   0  0  0  0  0  0  0  0  0  0  0  0
  163.0930  212.2710  148.2450 C   0  0  0  0  0  2  0  0  0  0  0  0
  161.6740  212.7980  148.3970 C   0  0  2  0  0  3  0  0  0  0  0  0
  161.9570  211.3070  148.4980 C   0  0  2  0  0  3  0  0  0  0  0  0
  161.8770  213.5520  146.0750 C   0  0  0  0  0  2  0  0  0  0  0  0
  161.0780  213.1250  147.0520 C   0  0  0  0  0  0  0  0  0  0  0  0
  159.6590  212.7830  146.6920 C   0  0  0  0  0  2  0  0  0  0  0  0
  159.5620  212.2030  145.3610 N   0  0  0  0  0  1  0  0  0  0  0  0
  2  5  1  0  0  0  0
  3  1  1  0  0  0  0
  3 15  1  0  0  0  0
  4  3  2  0  0  0  0
  5  1  2  0  0  0  0
  6  2  2  0  0  0  0
  6  4  1  0  0  0  0
  7 12  1  0  0  0  0
  8 10  2  0  0  0  0
  9  7  2  0  0  0  0
  9  8  1  0  0  0  0
 10 11  1  0  0  0  0
 10  2  1  0  0  0  0
 12 11  2  0  0  0  0
 14 13  1  0  0  0  0
 15 14  2  0  0  0  0
 17 15  1  0  0  0  0
 17 16  2  0  0  0  0
 18 17  2  0  0  0  0
 19  4  1  0  0  0  0
 20 21  1  0  0  0  0
 20 22  1  0  0  0  0
 21 24  1  6  0  0  0
 21 22  1  0  0  0  0
 22 19  1  1  0  0  0
 23 24  2  0  0  0  0
 25 24  1  0  0  0  0
 26 25  1  0  0  0  0
M  END
>  <MODEL>
7

>  <REMARK>
 VINA RESULT:      -6.0      3.455      4.736
  Name = 
  7 active torsions:
  status: ('A' for Active; 'I' for Inactive)
    1  A    between atoms: C_2  and  C_19
    2  A    between atoms: C_3  and  C_26
    3  A    between atoms: C_6  and  O_18
    4  A    between atoms: C_8  and  C_14
    5  A    between atoms: C_8  and  C_22
    6  A    between atoms: N_10  and  C_26
    7  A    between atoms: O_18  and  C_24
                            x       y       z     vdW  Elec       q    Type
                         _______ _______ _______ _____ _____    ______ ____

>  <TORSDO>
F 7

$$$$
=
 OpenBabel11052411153D

 26 28  0  0  1  0  0  0  0  0999 V2000
  160.8410  206.0840  150.9560 C   0  0  0  0  0  3  0  0  0  0  0  0
  161.2170  206.1250  148.5560 C   0  0  0  0  0  0  0  0  0  0  0  0
  161.2320  207.4240  151.0600 C   0  0  0  0  0  0  0  0  0  0  0  0
  161.6030  208.1310  149.8990 C   0  0  0  0  0  0  0  0  0  0  0  0
  160.8350  205.4390  149.7180 C   0  0  0  0  0  3  0  0  0  0  0  0
  161.5960  207.4710  148.6600 C   0  0  0  0  0  3  0  0  0  0  0  0
  161.2040  204.1660  144.7750 N   0  0  0  0  0  0  0  0  0  0  0  0
  161.5890  204.0960  147.1310 C   0  0  0  0  0  3  0  0  0  0  0  0
  161.5780  203.4710  145.8820 C   0  0  0  0  0  3  0  0  0  0  0  0
  161.2110  205.4440  147.2400 C   0  0  0  0  0  0  0  0  0  0  0  0
  160.8310  206.1320  146.0770 C   0  0  0  0  0  3  0  0  0  0  0  0
  160.8340  205.4710  144.8470 C   0  0  0  0  0  3  0  0  0  0  0  0
  161.5060  205.9600  153.4740 O   0  0  0  0  0  1  0  0  0  0  0  0
  161.3560  207.3420  153.5080 C   0  0  0  0  0  3  0  0  0  0  0  0
  161.2200  208.0700  152.3920 C   0  0  0  0  0  0  0  0  0  0  0  0
  159.8750  209.9820  152.3850 O   0  0  0  0  0  0  0  0  0  0  0  0
  161.0180  209.4890  152.4930 N   0  0  0  0  0  0  0  0  0  0  0  0
  162.0800  210.3240  152.7540 O   0  0  0  0  0  0  0  0  0  0  0  0
  161.9530  209.4850  149.9870 O   0  0  0  0  0  0  0  0  0  0  0  0
  162.9600  211.1220  148.5590 C   0  0  0  0  0  2  0  0  0  0  0  0
  161.9560  211.8240  149.4600 C   0  0  2  0  0  3  0  0  0  0  0  0
  161.6820  210.4180  148.9510 C   0  0  2  0  0  3  0  0  0  0  0  0
  160.2450  213.5720  149.3170 C   0  0  0  0  0  2  0  0  0  0  0  0
  161.1470  212.8280  148.6790 C   0  0  0  0  0  0  0  0  0  0  0  0
  161.4630  213.1860  147.2530 C   0  0  0  0  0  2  0  0  0  0  0  0
  160.4600  212.6750  146.3310 N   0  0  0  0  0  1  0  0  0  0  0  0
  1  3  1  0  0  0  0
  2  6  2  0  0  0  0
  2  5  1  0  0  0  0
  3 15  1  0  0  0  0
  4 19  1  0  0  0  0
  4  3  2  0  0  0  0
  5  1  2  0  0  0  0
  6  4  1  0  0  0  0
  7 12  2  0  0  0  0
  7  9  1  0  0  0  0
  8 10  1  0  0  0  0
  9  8  2  0  0  0  0
 10  2  1  0  0  0  0
 11 10  2  0  0  0  0
 12 11  1  0  0  0  0
 13 14  1  0  0  0  0
 15 17  1  0  0  0  0
 15 14  2  0  0  0  0
 16 17  2  0  0  0  0
 17 18  2  0  0  0  0
 20 22  1  0  0  0  0
 20 21  1  0  0  0  0
 21 24  1  6  0  0  0
 22 21  1  0  0  0  0
 22 19  1  1  0  0  0
 24 23  2  0  0  0  0
 25 24  1  0  0  0  0
 26 25  1  0  0  0  0
M  END
>  <MODEL>
8

>  <REMARK>
 VINA RESULT:      -6.0      3.307      4.581
  Name = 
  7 active torsions:
  status: ('A' for Active; 'I' for Inactive)
    1  A    between atoms: C_2  and  C_19
    2  A    between atoms: C_3  and  C_26
    3  A    between atoms: C_6  and  O_18
    4  A    between atoms: C_8  and  C_14
    5  A    between atoms: C_8  and  C_22
    6  A    between atoms: N_10  and  C_26
    7  A    between atoms: O_18  and  C_24
                            x       y       z     vdW  Elec       q    Type
                         _______ _______ _______ _____ _____    ______ ____

>  <TORSDO>
F 7

$$$$
=
 OpenBabel11052411153D

 26 28  0  0  1  0  0  0  0  0999 V2000
  162.3450  207.5920  147.5890 C   0  0  0  0  0  3  0  0  0  0  0  0
  161.5320  207.6010  149.8790 C   0  0  0  0  0  0  0  0  0  0  0  0
  161.8350  206.3030  147.3920 C   0  0  0  0  0  0  0  0  0  0  0  0
  161.1490  205.6610  148.4420 C   0  0  0  0  0  0  0  0  0  0  0  0
  162.1980  208.2350  148.8190 C   0  0  0  0  0  3  0  0  0  0  0  0
  161.0110  206.3160  149.6750 C   0  0  0  0  0  3  0  0  0  0  0  0
  161.0740  209.5510  153.6360 N   0  0  0  0  0  0  0  0  0  0  0  0
  160.9500  207.5650  152.3170 C   0  0  0  0  0  3  0  0  0  0  0  0
  160.8070  208.2220  153.5410 C   0  0  0  0  0  3  0  0  0  0  0  0
  161.3730  208.2810  151.1860 C   0  0  0  0  0  0  0  0  0  0  0  0
  161.6410  209.6520  151.3190 C   0  0  0  0  0  3  0  0  0  0  0  0
  161.4850  210.2730  152.5600 C   0  0  0  0  0  3  0  0  0  0  0  0
  159.9770  206.6280  145.2740 O   0  0  0  0  0  1  0  0  0  0  0  0
  161.1110  205.8440  145.0950 C   0  0  0  0  0  3  0  0  0  0  0  0
  162.0100  205.6600  146.0700 C   0  0  0  0  0  0  0  0  0  0  0  0
  164.0810  204.7510  146.6570 O   0  0  0  0  0  0  0  0  0  0  0  0
  163.1370  204.7970  145.8420 N   0  0  0  0  0  0  0  0  0  0  0  0
  163.1690  203.9750  144.7390 O   0  0  0  0  0  0  0  0  0  0  0  0
  160.5980  204.3890  148.2400 O   0  0  0  0  0  0  0  0  0  0  0  0
  160.3940  202.0030  148.3040 C   0  0  0  0  0  2  0  0  0  0  0  0
  160.1720  202.5410  149.7090 C   0  0  2  0  0  3  0  0  0  0  0  0
  161.1740  203.2070  148.7790 C   0  0  2  0  0  3  0  0  0  0  0  0
  161.1400  200.4140  150.4450 C   0  0  0  0  0  2  0  0  0  0  0  0
  160.8900  201.6920  150.7260 C   0  0  0  0  0  0  0  0  0  0  0  0
  161.5360  202.2740  151.9530 C   0  0  0  0  0  2  0  0  0  0  0  0
  160.9540  203.5570  152.3160 N   0  0  0  0  0  1  0  0  0  0  0  0
  1  5  1  0  0  0  0
  2 10  1  0  0  0  0
  3  1  2  0  0  0  0
  3  4  1  0  0  0  0
  4  6  2  0  0  0  0
  5  2  2  0  0  0  0
  6  2  1  0  0  0  0
  8  9  2  0  0  0  0
  9  7  1  0  0  0  0
 10 11  2  0  0  0  0
 10  8  1  0  0  0  0
 11 12  1  0  0  0  0
 12  7  2  0  0  0  0
 14 13  1  0  0  0  0
 14 15  2  0  0  0  0
 15  3  1  0  0  0  0
 17 15  1  0  0  0  0
 17 16  2  0  0  0  0
 18 17  2  0  0  0  0
 19  4  1  0  0  0  0
 20 22  1  0  0  0  0
 20 21  1  0  0  0  0
 21 24  1  1  0  0  0
 22 19  1  6  0  0  0
 22 21  1  0  0  0  0
 23 24  2  0  0  0  0
 24 25  1  0  0  0  0
 25 26  1  0  0  0  0
M  END
>  <MODEL>
9

>  <REMARK>
 VINA RESULT:      -6.0      4.607      9.006
  Name = 
  7 active torsions:
  status: ('A' for Active; 'I' for Inactive)
    1  A    between atoms: C_2  and  C_19
    2  A    between atoms: C_3  and  C_26
    3  A    between atoms: C_6  and  O_18
    4  A    between atoms: C_8  and  C_14
    5  A    between atoms: C_8  and  C_22
    6  A    between atoms: N_10  and  C_26
    7  A    between atoms: O_18  and  C_24
                            x       y       z     vdW  Elec       q    Type
                         _______ _______ _______ _____ _____    ______ ____

>  <TORSDO>
F 7

$$$$
