=
 OpenBabel11042421243D

 33 36  0  0  1  0  0  0  0  0999 V2000
  162.3790  208.8100  150.3860 C   0  0  0  0  0  3  0  0  0  0  0  0
  162.0100  210.1190  150.7540 C   0  0  0  0  0  0  0  0  0  0  0  0
  162.2800  206.4220  151.0190 O   0  0  0  0  0  0  0  0  0  0  0  0
  161.0530  206.6530  153.0350 C   0  0  0  0  0  2  0  0  0  0  0  0
  161.2830  210.3280  151.9430 C   0  0  0  0  0  3  0  0  0  0  0  0
  162.0090  207.7580  151.2190 C   0  0  0  0  0  0  0  0  0  0  0  0
  161.7530  205.6460  152.0950 C   0  0  1  0  0  3  0  0  0  0  0  0
  161.3030  207.9600  152.3690 C   0  0  0  0  0  0  0  0  0  0  0  0
  160.9210  209.2500  152.7680 C   0  0  0  0  0  0  0  0  0  0  0  0
  161.0080  209.3350  155.2450 C   0  0  0  0  0  3  0  0  0  0  0  0
  159.4680  210.8680  153.9910 C   0  0  0  0  0  0  0  0  0  0  0  0
  160.6140  211.6440  155.9420 C   0  0  0  0  0  0  0  0  0  0  0  0
  160.1440  209.5200  154.0250 C   0  0  1  0  0  3  0  0  0  0  0  0
  158.6070  211.1160  153.1050 O   0  0  0  0  0  0  0  0  0  0  0  0
  160.9050  212.6790  156.8720 N   0  0  0  0  0  1  0  0  0  0  0  0
  159.7960  211.8720  154.9590 N   0  0  0  0  0  0  0  0  0  0  0  0
  161.2300  210.3180  156.1190 C   0  0  0  0  0  3  0  0  0  0  0  0
  162.3550  211.2550  149.9500 N   0  0  0  0  0  2  0  0  0  0  0  0
  161.3070  211.4710  147.7270 N   0  0  0  0  0  0  0  0  0  0  0  0
  161.5140  211.8970  148.9840 C   0  0  0  0  0  0  0  0  0  0  0  0
  160.4720  212.3430  147.1860 N   0  0  0  0  0  2  0  0  0  0  0  0
  160.1450  213.2940  148.0490 N   0  0  0  0  0  0  0  0  0  0  0  0
  160.7890  213.0440  149.2070 C   0  0  0  0  0  3  0  0  0  0  0  0
  160.7500  204.6400  151.5550 C   0  0  0  0  0  2  0  0  0  0  0  0
  160.7580  204.6660  150.1030 N   0  0  0  0  0  2  0  0  0  0  0  0
  161.5580  204.0290  147.4310 N   0  0  0  0  0  2  0  0  0  0  0  0
  160.7730  203.3340  149.6720 N   0  0  0  0  0  2  0  0  0  0  0  0
  161.1750  202.9990  148.3460 C   0  0  0  0  0  0  0  0  0  0  0  0
  161.1950  201.7900  147.9910 O   0  0  0  0  0  0  0  0  0  0  0  0
  161.9650  203.7500  146.0620 C   0  0  1  0  0  3  0  0  0  0  0  0
  160.9030  203.1710  145.3670 O   0  0  0  0  0  1  0  0  0  0  0  0
  161.2950  205.4660  144.3860 C   0  0  0  0  0  1  0  0  0  0  0  0
  162.3670  205.0400  145.3710 C   0  0  0  0  0  2  0  0  0  0  0  0
  1  2  2  0  0  0  0
  1  6  1  0  0  0  0
  2  5  1  0  0  0  0
  3  6  1  0  0  0  0
  3  7  1  0  0  0  0
  5  9  2  0  0  0  0
  6  8  2  0  0  0  0
  7 24  1  6  0  0  0
  7  4  1  0  0  0  0
  8  9  1  0  0  0  0
  8  4  1  0  0  0  0
 10 17  2  0  0  0  0
 11 13  1  0  0  0  0
 11 16  1  0  0  0  0
 12 17  1  0  0  0  0
 12 15  1  0  0  0  0
 13  9  1  6  0  0  0
 13 10  1  0  0  0  0
 14 11  2  0  0  0  0
 16 12  2  0  0  0  0
 18  2  1  0  0  0  0
 19 20  2  0  0  0  0
 20 23  1  0  0  0  0
 20 18  1  0  0  0  0
 21 19  1  0  0  0  0
 21 22  1  0  0  0  0
 22 23  2  0  0  0  0
 25 24  1  0  0  0  0
 26 28  1  0  0  0  0
 27 25  1  0  0  0  0
 28 27  1  0  0  0  0
 29 28  2  0  0  0  0
 30 31  1  6  0  0  0
 30 26  1  0  0  0  0
 32 33  1  0  0  0  0
 33 30  1  0  0  0  0
M  END
>  <MODEL>
1

>  <REMARK>
 VINA RESULT:      -7.8      0.000      0.000
  Name = 
  8 active torsions:
  status: ('A' for Active; 'I' for Inactive)
    1  A    between atoms: N_1  and  C_20
    2  A    between atoms: C_4  and  N_12
    3  A    between atoms: N_7  and  N_25
    4  A    between atoms: C_11  and  N_12
    5  A    between atoms: C_17  and  C_22
    6  A    between atoms: C_17  and  N_25
    7  A    between atoms: C_19  and  C_28
    8  A    between atoms: C_20  and  C_32
                            x       y       z     vdW  Elec       q    Type
                         _______ _______ _______ _____ _____    ______ ____

>  <TORSDO>
F 8

$$$$
=
 OpenBabel11042421243D

 33 36  0  0  1  0  0  0  0  0999 V2000
  160.9460  202.8750  150.9150 C   0  0  0  0  0  3  0  0  0  0  0  0
  160.9080  202.5570  149.5430 C   0  0  0  0  0  0  0  0  0  0  0  0
  161.4000  204.6530  152.5720 O   0  0  0  0  0  0  0  0  0  0  0  0
  161.9640  206.3920  151.0610 C   0  0  0  0  0  2  0  0  0  0  0  0
  161.2370  203.5430  148.5910 C   0  0  0  0  0  3  0  0  0  0  0  0
  161.3110  204.1670  151.2860 C   0  0  0  0  0  0  0  0  0  0  0  0
  161.8180  206.0180  152.5530 C   0  0  1  0  0  3  0  0  0  0  0  0
  161.6260  205.1220  150.3650 C   0  0  0  0  0  0  0  0  0  0  0  0
  161.6020  204.8400  148.9900 C   0  0  0  0  0  0  0  0  0  0  0  0
  162.9810  205.3280  146.9880 C   0  0  0  0  0  3  0  0  0  0  0  0
  160.7110  206.3700  147.2320 C   0  0  0  0  0  0  0  0  0  0  0  0
  161.4790  205.6410  145.0860 C   0  0  0  0  0  0  0  0  0  0  0  0
  161.9410  205.8590  147.9400 C   0  0  1  0  0  3  0  0  0  0  0  0
  159.8160  206.9690  147.8830 O   0  0  0  0  0  0  0  0  0  0  0  0
  161.2650  205.4750  143.6910 N   0  0  0  0  0  1  0  0  0  0  0  0
  160.5520  206.1790  145.8200 N   0  0  0  0  0  0  0  0  0  0  0  0
  162.7610  205.2200  145.6770 C   0  0  0  0  0  3  0  0  0  0  0  0
  160.5440  201.2500  149.0810 N   0  0  0  0  0  2  0  0  0  0  0  0
  161.5370  199.6240  147.5130 N   0  0  0  0  0  0  0  0  0  0  0  0
  160.7920  200.7110  147.7770 C   0  0  0  0  0  0  0  0  0  0  0  0
  161.5020  199.4760  146.2000 N   0  0  0  0  0  2  0  0  0  0  0  0
  160.7680  200.4210  145.6290 N   0  0  0  0  0  0  0  0  0  0  0  0
  160.2980  201.2270  146.6020 C   0  0  0  0  0  3  0  0  0  0  0  0
  160.7610  206.8850  153.2170 C   0  0  0  0  0  2  0  0  0  0  0  0
  160.7890  208.2200  152.6450 N   0  0  0  0  0  2  0  0  0  0  0  0
  160.1070  210.9970  152.5380 N   0  0  0  0  0  2  0  0  0  0  0  0
  161.2130  209.0880  153.6590 N   0  0  0  0  0  2  0  0  0  0  0  0
  160.8770  210.4730  153.6240 C   0  0  0  0  0  0  0  0  0  0  0  0
  161.2580  211.2270  154.5590 O   0  0  0  0  0  0  0  0  0  0  0  0
  159.7440  212.4030  152.4420 C   0  0  1  0  0  3  0  0  0  0  0  0
  160.1030  212.8940  151.1860 O   0  0  0  0  0  1  0  0  0  0  0  0
  157.8920  212.5060  154.1030 C   0  0  0  0  0  1  0  0  0  0  0  0
  158.2470  212.5620  152.6300 C   0  0  0  0  0  2  0  0  0  0  0  0
  1  6  1  0  0  0  0
  2  1  2  0  0  0  0
  4  7  1  0  0  0  0
  5  9  2  0  0  0  0
  5  2  1  0  0  0  0
  6  3  1  0  0  0  0
  7  3  1  0  0  0  0
  7 24  1  6  0  0  0
  8  4  1  0  0  0  0
  8  6  2  0  0  0  0
  9  8  1  0  0  0  0
 10 13  1  0  0  0  0
 11 14  2  0  0  0  0
 11 13  1  0  0  0  0
 12 17  1  0  0  0  0
 12 16  2  0  0  0  0
 13  9  1  1  0  0  0
 15 12  1  0  0  0  0
 16 11  1  0  0  0  0
 17 10  2  0  0  0  0
 18  2  1  0  0  0  0
 19 20  2  0  0  0  0
 20 18  1  0  0  0  0
 21 19  1  0  0  0  0
 22 21  1  0  0  0  0
 22 23  2  0  0  0  0
 23 20  1  0  0  0  0
 25 24  1  0  0  0  0
 25 27  1  0  0  0  0
 26 28  1  0  0  0  0
 28 27  1  0  0  0  0
 28 29  2  0  0  0  0
 30 31  1  6  0  0  0
 30 26  1  0  0  0  0
 30 33  1  0  0  0  0
 33 32  1  0  0  0  0
M  END
>  <MODEL>
2

>  <REMARK>
 VINA RESULT:      -7.4      2.977      9.331
  Name = 
  8 active torsions:
  status: ('A' for Active; 'I' for Inactive)
    1  A    between atoms: N_1  and  C_20
    2  A    between atoms: C_4  and  N_12
    3  A    between atoms: N_7  and  N_25
    4  A    between atoms: C_11  and  N_12
    5  A    between atoms: C_17  and  C_22
    6  A    between atoms: C_17  and  N_25
    7  A    between atoms: C_19  and  C_28
    8  A    between atoms: C_20  and  C_32
                            x       y       z     vdW  Elec       q    Type
                         _______ _______ _______ _____ _____    ______ ____

>  <TORSDO>
F 8

$$$$
=
 OpenBabel11042421243D

 33 36  0  0  1  0  0  0  0  0999 V2000
  162.1820  208.2890  148.5330 C   0  0  0  0  0  3  0  0  0  0  0  0
  162.0370  206.9830  148.0270 C   0  0  0  0  0  0  0  0  0  0  0  0
  161.8400  209.7520  150.4980 O   0  0  0  0  0  0  0  0  0  0  0  0
  160.9100  208.1390  151.9670 C   0  0  0  0  0  2  0  0  0  0  0  0
  161.4870  205.9770  148.8460 C   0  0  0  0  0  3  0  0  0  0  0  0
  161.7730  208.5430  149.8400 C   0  0  0  0  0  0  0  0  0  0  0  0
  161.3120  209.6240  151.8180 C   0  0  1  0  0  3  0  0  0  0  0  0
  161.2430  207.5690  150.6340 C   0  0  0  0  0  0  0  0  0  0  0  0
  161.0800  206.2560  150.1620 C   0  0  0  0  0  0  0  0  0  0  0  0
  159.7400  204.1710  150.1470 C   0  0  0  0  0  3  0  0  0  0  0  0
  161.5500  204.4860  151.8560 C   0  0  0  0  0  0  0  0  0  0  0  0
  161.1790  202.3360  150.8760 C   0  0  0  0  0  0  0  0  0  0  0  0
  160.5020  205.1520  150.9990 C   0  0  1  0  0  3  0  0  0  0  0  0
  162.1710  205.1580  152.7210 O   0  0  0  0  0  0  0  0  0  0  0  0
  161.5180  200.9600  150.7550 N   0  0  0  0  0  1  0  0  0  0  0  0
  161.8450  203.0930  151.6940 N   0  0  0  0  0  0  0  0  0  0  0  0
  160.0610  202.8770  150.0850 C   0  0  0  0  0  3  0  0  0  0  0  0
  162.4330  206.6420  146.6920 N   0  0  0  0  0  2  0  0  0  0  0  0
  162.3270  204.3230  145.8580 N   0  0  0  0  0  0  0  0  0  0  0  0
  161.8860  205.5920  145.8860 C   0  0  0  0  0  0  0  0  0  0  0  0
  161.5490  203.6920  144.9950 N   0  0  0  0  0  2  0  0  0  0  0  0
  160.6400  204.5090  144.4820 N   0  0  0  0  0  0  0  0  0  0  0  0
  160.8220  205.7290  145.0260 C   0  0  0  0  0  3  0  0  0  0  0  0
  162.3830  209.9880  152.8330 C   0  0  0  0  0  2  0  0  0  0  0  0
  161.7930  210.7520  153.9190 N   0  0  0  0  0  2  0  0  0  0  0  0
  159.2140  210.8620  155.1540 N   0  0  0  0  0  2  0  0  0  0  0  0
  161.4540  209.8360  154.9230 N   0  0  0  0  0  2  0  0  0  0  0  0
  160.1710  209.8730  155.5430 C   0  0  0  0  0  0  0  0  0  0  0  0
  159.8870  209.0260  156.4320 O   0  0  0  0  0  0  0  0  0  0  0  0
  157.8950  210.9580  155.7600 C   0  0  1  0  0  3  0  0  0  0  0  0
  157.9150  211.9150  156.7750 O   0  0  0  0  0  1  0  0  0  0  0  0
  155.5540  210.6630  154.9620 C   0  0  0  0  0  1  0  0  0  0  0  0
  156.8750  211.3650  154.7120 C   0  0  0  0  0  2  0  0  0  0  0  0
  1  6  1  0  0  0  0
  2  1  2  0  0  0  0
  2  5  1  0  0  0  0
  3  7  1  0  0  0  0
  5  9  2  0  0  0  0
  6  3  1  0  0  0  0
  6  8  2  0  0  0  0
  7  4  1  0  0  0  0
  7 24  1  1  0  0  0
  8  4  1  0  0  0  0
  9  8  1  0  0  0  0
 10 13  1  0  0  0  0
 11 14  2  0  0  0  0
 12 16  2  0  0  0  0
 13  9  1  6  0  0  0
 13 11  1  0  0  0  0
 15 12  1  0  0  0  0
 16 11  1  0  0  0  0
 17 10  2  0  0  0  0
 17 12  1  0  0  0  0
 18  2  1  0  0  0  0
 19 20  2  0  0  0  0
 20 18  1  0  0  0  0
 21 19  1  0  0  0  0
 22 21  1  0  0  0  0
 22 23  2  0  0  0  0
 23 20  1  0  0  0  0
 24 25  1  0  0  0  0
 25 27  1  0  0  0  0
 26 28  1  0  0  0  0
 26 30  1  0  0  0  0
 27 28  1  0  0  0  0
 28 29  2  0  0  0  0
 30 31  1  1  0  0  0
 33 32  1  0  0  0  0
 33 30  1  0  0  0  0
M  END
>  <MODEL>
3

>  <REMARK>
 VINA RESULT:      -7.2      3.135      8.412
  Name = 
  8 active torsions:
  status: ('A' for Active; 'I' for Inactive)
    1  A    between atoms: N_1  and  C_20
    2  A    between atoms: C_4  and  N_12
    3  A    between atoms: N_7  and  N_25
    4  A    between atoms: C_11  and  N_12
    5  A    between atoms: C_17  and  C_22
    6  A    between atoms: C_17  and  N_25
    7  A    between atoms: C_19  and  C_28
    8  A    between atoms: C_20  and  C_32
                            x       y       z     vdW  Elec       q    Type
                         _______ _______ _______ _____ _____    ______ ____

>  <TORSDO>
F 8

$$$$
=
 OpenBabel11042421243D

 33 36  0  0  1  0  0  0  0  0999 V2000
  161.8340  208.2920  152.3180 C   0  0  0  0  0  3  0  0  0  0  0  0
  161.2880  207.0140  152.5460 C   0  0  0  0  0  0  0  0  0  0  0  0
  162.4310  209.9640  150.5970 O   0  0  0  0  0  0  0  0  0  0  0  0
  161.7310  208.7510  148.6840 C   0  0  0  0  0  2  0  0  0  0  0  0
  160.8560  206.2370  151.4520 C   0  0  0  0  0  3  0  0  0  0  0  0
  161.9290  208.7480  151.0060 C   0  0  0  0  0  0  0  0  0  0  0  0
  162.3780  210.0660  149.1740 C   0  0  1  0  0  3  0  0  0  0  0  0
  161.5080  207.9980  149.9470 C   0  0  0  0  0  0  0  0  0  0  0  0
  160.9620  206.7180  150.1360 C   0  0  0  0  0  0  0  0  0  0  0  0
  160.5710  206.5940  147.6910 C   0  0  0  0  0  3  0  0  0  0  0  0
  161.1950  204.5270  148.9680 C   0  0  0  0  0  0  0  0  0  0  0  0
  162.0610  204.8910  146.7680 C   0  0  0  0  0  0  0  0  0  0  0  0
  160.4860  205.8570  149.0020 C   0  0  1  0  0  3  0  0  0  0  0  0
  161.0930  203.7360  149.9430 O   0  0  0  0  0  0  0  0  0  0  0  0
  162.8630  204.4700  145.6730 N   0  0  0  0  0  1  0  0  0  0  0  0
  161.9870  204.1520  147.8330 N   0  0  0  0  0  0  0  0  0  0  0  0
  161.3060  206.1510  146.6690 C   0  0  0  0  0  3  0  0  0  0  0  0
  161.1580  206.4730  153.8670 N   0  0  0  0  0  2  0  0  0  0  0  0
  161.8000  207.9240  155.7560 N   0  0  0  0  0  0  0  0  0  0  0  0
  160.8930  207.2130  155.0650 C   0  0  0  0  0  0  0  0  0  0  0  0
  161.1430  208.4450  156.7790 N   0  0  0  0  0  2  0  0  0  0  0  0
  159.8660  208.0940  156.7570 N   0  0  0  0  0  0  0  0  0  0  0  0
  159.6670  207.3090  155.6800 C   0  0  0  0  0  3  0  0  0  0  0  0
  161.5210  211.2570  148.7790 C   0  0  0  0  0  2  0  0  0  0  0  0
  162.1950  212.0290  147.7490 N   0  0  0  0  0  2  0  0  0  0  0  0
  162.4620  213.1230  145.1190 N   0  0  0  0  0  2  0  0  0  0  0  0
  161.2760  212.9790  147.2860 N   0  0  0  0  0  2  0  0  0  0  0  0
  161.3910  213.5290  145.9760 C   0  0  0  0  0  0  0  0  0  0  0  0
  160.5400  214.3690  145.5790 O   0  0  0  0  0  0  0  0  0  0  0  0
  162.6390  213.6600  143.7780 C   0  0  1  0  0  3  0  0  0  0  0  0
  163.9220  214.1920  143.6520 O   0  0  0  0  0  1  0  0  0  0  0  0
  161.0030  212.1200  142.7030 C   0  0  0  0  0  1  0  0  0  0  0  0
  162.4550  212.5550  142.7540 C   0  0  0  0  0  2  0  0  0  0  0  0
  1  2  1  0  0  0  0
  2 18  1  0  0  0  0
  3  6  1  0  0  0  0
  4  7  1  0  0  0  0
  4  8  1  0  0  0  0
  5  2  2  0  0  0  0
  6  1  2  0  0  0  0
  7 24  1  1  0  0  0
  7  3  1  0  0  0  0
  8  9  2  0  0  0  0
  8  6  1  0  0  0  0
  9  5  1  0  0  0  0
 10 13  1  0  0  0  0
 11 13  1  0  0  0  0
 11 14  2  0  0  0  0
 12 16  2  0  0  0  0
 13  9  1  1  0  0  0
 15 12  1  0  0  0  0
 16 11  1  0  0  0  0
 17 12  1  0  0  0  0
 17 10  2  0  0  0  0
 18 20  1  0  0  0  0
 19 21  1  0  0  0  0
 20 23  1  0  0  0  0
 20 19  2  0  0  0  0
 22 21  1  0  0  0  0
 23 22  2  0  0  0  0
 25 24  1  0  0  0  0
 26 28  1  0  0  0  0
 27 25  1  0  0  0  0
 28 27  1  0  0  0  0
 29 28  2  0  0  0  0
 30 31  1  1  0  0  0
 30 26  1  0  0  0  0
 32 33  1  0  0  0  0
 33 30  1  0  0  0  0
M  END
>  <MODEL>
4

>  <REMARK>
 VINA RESULT:      -7.1      3.783      8.360
  Name = 
  8 active torsions:
  status: ('A' for Active; 'I' for Inactive)
    1  A    between atoms: N_1  and  C_20
    2  A    between atoms: C_4  and  N_12
    3  A    between atoms: N_7  and  N_25
    4  A    between atoms: C_11  and  N_12
    5  A    between atoms: C_17  and  C_22
    6  A    between atoms: C_17  and  N_25
    7  A    between atoms: C_19  and  C_28
    8  A    between atoms: C_20  and  C_32
                            x       y       z     vdW  Elec       q    Type
                         _______ _______ _______ _____ _____    ______ ____

>  <TORSDO>
F 8

$$$$
=
 OpenBabel11042421243D

 33 36  0  0  1  0  0  0  0  0999 V2000
  160.8510  210.9260  152.0910 C   0  0  0  0  0  3  0  0  0  0  0  0
  160.7240  209.7630  152.8760 C   0  0  0  0  0  0  0  0  0  0  0  0
  161.5820  211.8270  149.9080 O   0  0  0  0  0  0  0  0  0  0  0  0
  162.3000  209.7940  148.9210 C   0  0  0  0  0  2  0  0  0  0  0  0
  161.1360  208.5220  152.3530 C   0  0  0  0  0  3  0  0  0  0  0  0
  161.3860  210.8060  150.8110 C   0  0  0  0  0  0  0  0  0  0  0  0
  162.1640  211.3190  148.7080 C   0  0  1  0  0  3  0  0  0  0  0  0
  161.7820  209.6040  150.3020 C   0  0  0  0  0  0  0  0  0  0  0  0
  161.6730  208.4250  151.0570 C   0  0  0  0  0  0  0  0  0  0  0  0
  162.7080  206.2480  151.6370 C   0  0  0  0  0  3  0  0  0  0  0  0
  160.9720  206.3700  149.8290 C   0  0  0  0  0  0  0  0  0  0  0  0
  161.0310  204.5000  151.3190 C   0  0  0  0  0  0  0  0  0  0  0  0
  162.0970  207.0810  150.5400 C   0  0  1  0  0  3  0  0  0  0  0  0
  160.4560  206.8840  148.8010 O   0  0  0  0  0  0  0  0  0  0  0  0
  160.5030  203.2550  151.7570 N   0  0  0  0  0  1  0  0  0  0  0  0
  160.4840  205.1130  150.3140 N   0  0  0  0  0  0  0  0  0  0  0  0
  162.2090  205.0650  151.9990 C   0  0  0  0  0  3  0  0  0  0  0  0
  160.1840  209.8040  154.2040 N   0  0  0  0  0  2  0  0  0  0  0  0
  161.8730  209.6000  155.9910 N   0  0  0  0  0  0  0  0  0  0  0  0
  160.7520  209.1950  155.3700 C   0  0  0  0  0  0  0  0  0  0  0  0
  162.0350  208.7740  157.0110 N   0  0  0  0  0  2  0  0  0  0  0  0
  161.0650  207.8720  157.0580 N   0  0  0  0  0  0  0  0  0  0  0  0
  160.2270  208.1080  156.0280 C   0  0  0  0  0  3  0  0  0  0  0  0
  161.2470  211.6100  147.5320 C   0  0  0  0  0  2  0  0  0  0  0  0
  161.3350  213.0150  147.1740 N   0  0  0  0  0  2  0  0  0  0  0  0
  161.1390  213.0920  144.3200 N   0  0  0  0  0  2  0  0  0  0  0  0
  162.4880  213.1650  146.3940 N   0  0  0  0  0  2  0  0  0  0  0  0
  162.4070  213.2120  144.9720 C   0  0  0  0  0  0  0  0  0  0  0  0
  163.4600  213.3640  144.2950 O   0  0  0  0  0  0  0  0  0  0  0  0
  160.9960  213.1190  142.8730 C   0  0  1  0  0  3  0  0  0  0  0  0
  161.1060  211.8230  142.3680 O   0  0  0  0  0  1  0  0  0  0  0  0
  158.8010  213.9080  143.7460 C   0  0  0  0  0  1  0  0  0  0  0  0
  159.6380  213.6850  142.5000 C   0  0  0  0  0  2  0  0  0  0  0  0
  1  2  1  0  0  0  0
  2 18  1  0  0  0  0
  3  6  1  0  0  0  0
  4  8  1  0  0  0  0
  5  2  2  0  0  0  0
  6  1  2  0  0  0  0
  7 24  1  6  0  0  0
  7  4  1  0  0  0  0
  7  3  1  0  0  0  0
  8  6  1  0  0  0  0
  8  9  2  0  0  0  0
  9  5  1  0  0  0  0
 10 17  2  0  0  0  0
 11 16  1  0  0  0  0
 11 13  1  0  0  0  0
 12 15  1  0  0  0  0
 12 17  1  0  0  0  0
 13  9  1  1  0  0  0
 13 10  1  0  0  0  0
 14 11  2  0  0  0  0
 16 12  2  0  0  0  0
 18 20  1  0  0  0  0
 19 21  1  0  0  0  0
 20 19  2  0  0  0  0
 20 23  1  0  0  0  0
 21 22  1  0  0  0  0
 23 22  2  0  0  0  0
 25 24  1  0  0  0  0
 26 28  1  0  0  0  0
 27 25  1  0  0  0  0
 28 27  1  0  0  0  0
 29 28  2  0  0  0  0
 30 31  1  1  0  0  0
 30 26  1  0  0  0  0
 33 30  1  0  0  0  0
 33 32  1  0  0  0  0
M  END
>  <MODEL>
5

>  <REMARK>
 VINA RESULT:      -6.9      3.654      7.744
  Name = 
  8 active torsions:
  status: ('A' for Active; 'I' for Inactive)
    1  A    between atoms: N_1  and  C_20
    2  A    between atoms: C_4  and  N_12
    3  A    between atoms: N_7  and  N_25
    4  A    between atoms: C_11  and  N_12
    5  A    between atoms: C_17  and  C_22
    6  A    between atoms: C_17  and  N_25
    7  A    between atoms: C_19  and  C_28
    8  A    between atoms: C_20  and  C_32
                            x       y       z     vdW  Elec       q    Type
                         _______ _______ _______ _____ _____    ______ ____

>  <TORSDO>
F 8

$$$$
=
 OpenBabel11042421243D

 33 36  0  0  1  0  0  0  0  0999 V2000
  160.9850  206.1830  151.4660 C   0  0  0  0  0  3  0  0  0  0  0  0
  161.2060  206.9800  152.6060 C   0  0  0  0  0  0  0  0  0  0  0  0
  160.9620  206.1420  148.9940 O   0  0  0  0  0  0  0  0  0  0  0  0
  161.5750  208.4000  148.6080 C   0  0  0  0  0  2  0  0  0  0  0  0
  161.5680  208.3330  152.4480 C   0  0  0  0  0  3  0  0  0  0  0  0
  161.1350  206.7650  150.2100 C   0  0  0  0  0  0  0  0  0  0  0  0
  161.1880  207.0660  147.9300 C   0  0  1  0  0  3  0  0  0  0  0  0
  161.4890  208.0740  150.0570 C   0  0  0  0  0  0  0  0  0  0  0  0
  161.7130  208.8990  151.1700 C   0  0  0  0  0  0  0  0  0  0  0  0
  162.4380  210.6970  149.6240 C   0  0  0  0  0  3  0  0  0  0  0  0
  161.0650  211.2600  151.6480 C   0  0  0  0  0  0  0  0  0  0  0  0
  160.6980  212.4130  149.5840 C   0  0  0  0  0  0  0  0  0  0  0  0
  162.1030  210.3440  151.0510 C   0  0  1  0  0  3  0  0  0  0  0  0
  160.7850  211.1770  152.8730 O   0  0  0  0  0  0  0  0  0  0  0  0
  159.9950  213.3860  148.8230 N   0  0  0  0  0  1  0  0  0  0  0  0
  160.3920  212.2280  150.8330 N   0  0  0  0  0  0  0  0  0  0  0  0
  161.7820  211.6430  148.9500 C   0  0  0  0  0  3  0  0  0  0  0  0
  161.0710  206.4550  153.9330 N   0  0  0  0  0  2  0  0  0  0  0  0
  161.7350  207.9900  155.7470 N   0  0  0  0  0  0  0  0  0  0  0  0
  160.8320  207.2130  155.1250 C   0  0  0  0  0  0  0  0  0  0  0  0
  161.1070  208.5030  156.7910 N   0  0  0  0  0  2  0  0  0  0  0  0
  159.8510  208.0830  156.8500 N   0  0  0  0  0  0  0  0  0  0  0  0
  159.6380  207.2590  155.8050 C   0  0  0  0  0  3  0  0  0  0  0  0
  162.3260  206.5680  147.0540 C   0  0  0  0  0  2  0  0  0  0  0  0
  162.5880  205.1670  147.3350 N   0  0  0  0  0  2  0  0  0  0  0  0
  161.2840  202.6750  147.8590 N   0  0  0  0  0  2  0  0  0  0  0  0
  162.0310  204.4300  146.2820 N   0  0  0  0  0  2  0  0  0  0  0  0
  161.3720  203.1900  146.5270 C   0  0  0  0  0  0  0  0  0  0  0  0
  160.8650  202.5560  145.5630 O   0  0  0  0  0  0  0  0  0  0  0  0
  160.6370  201.4090  148.1680 C   0  0  1  0  0  3  0  0  0  0  0  0
  161.5140  200.3570  147.9030 O   0  0  0  0  0  1  0  0  0  0  0  0
  160.6190  202.6820  150.3080 C   0  0  0  0  0  1  0  0  0  0  0  0
  160.2470  201.3750  149.6350 C   0  0  0  0  0  2  0  0  0  0  0  0
  1  2  1  0  0  0  0
  2 18  1  0  0  0  0
  3  6  1  0  0  0  0
  4  8  1  0  0  0  0
  5  2  2  0  0  0  0
  6  1  2  0  0  0  0
  7 24  1  6  0  0  0
  7  4  1  0  0  0  0
  7  3  1  0  0  0  0
  8  6  1  0  0  0  0
  8  9  2  0  0  0  0
  9  5  1  0  0  0  0
 10 13  1  0  0  0  0
 11 14  2  0  0  0  0
 12 16  2  0  0  0  0
 13  9  1  6  0  0  0
 13 11  1  0  0  0  0
 15 12  1  0  0  0  0
 16 11  1  0  0  0  0
 17 12  1  0  0  0  0
 17 10  2  0  0  0  0
 18 20  1  0  0  0  0
 19 21  1  0  0  0  0
 20 19  2  0  0  0  0
 20 23  1  0  0  0  0
 21 22  1  0  0  0  0
 23 22  2  0  0  0  0
 24 25  1  0  0  0  0
 26 30  1  0  0  0  0
 27 28  1  0  0  0  0
 27 25  1  0  0  0  0
 28 26  1  0  0  0  0
 29 28  2  0  0  0  0
 30 31  1  1  0  0  0
 30 33  1  0  0  0  0
 33 32  1  0  0  0  0
M  END
>  <MODEL>
6

>  <REMARK>
 VINA RESULT:      -6.8      2.170      5.410
  Name = 
  8 active torsions:
  status: ('A' for Active; 'I' for Inactive)
    1  A    between atoms: N_1  and  C_20
    2  A    between atoms: C_4  and  N_12
    3  A    between atoms: N_7  and  N_25
    4  A    between atoms: C_11  and  N_12
    5  A    between atoms: C_17  and  C_22
    6  A    between atoms: C_17  and  N_25
    7  A    between atoms: C_19  and  C_28
    8  A    between atoms: C_20  and  C_32
                            x       y       z     vdW  Elec       q    Type
                         _______ _______ _______ _____ _____    ______ ____

>  <TORSDO>
F 8

$$$$
=
 OpenBabel11042421243D

 33 36  0  0  1  0  0  0  0  0999 V2000
  161.9170  210.5290  149.8260 C   0  0  0  0  0  3  0  0  0  0  0  0
  161.2730  211.6520  150.3790 C   0  0  0  0  0  0  0  0  0  0  0  0
  162.5370  208.1630  150.1920 O   0  0  0  0  0  0  0  0  0  0  0  0
  161.5860  207.8900  152.3470 C   0  0  0  0  0  2  0  0  0  0  0  0
  160.6900  211.5600  151.6590 C   0  0  0  0  0  3  0  0  0  0  0  0
  161.9560  209.3530  150.5710 C   0  0  0  0  0  0  0  0  0  0  0  0
  162.3870  207.1910  151.2260 C   0  0  1  0  0  3  0  0  0  0  0  0
  161.3890  209.2620  151.8090 C   0  0  0  0  0  0  0  0  0  0  0  0
  160.7410  210.3630  152.3930 C   0  0  0  0  0  0  0  0  0  0  0  0
  161.1450  210.3690  154.8390 C   0  0  0  0  0  3  0  0  0  0  0  0
  159.0340  211.3600  153.9140 C   0  0  0  0  0  0  0  0  0  0  0  0
  160.1340  212.3890  155.7720 C   0  0  0  0  0  0  0  0  0  0  0  0
  160.1040  210.3100  153.7510 C   0  0  1  0  0  3  0  0  0  0  0  0
  158.0240  211.3470  153.1620 O   0  0  0  0  0  0  0  0  0  0  0  0
  160.2050  213.4220  156.7450 N   0  0  0  0  0  1  0  0  0  0  0  0
  159.1560  212.3760  154.9180 N   0  0  0  0  0  0  0  0  0  0  0  0
  161.1610  211.3340  155.7610 C   0  0  0  0  0  3  0  0  0  0  0  0
  161.1920  212.8990  149.6750 N   0  0  0  0  0  2  0  0  0  0  0  0
  160.8210  212.6230  147.2520 N   0  0  0  0  0  0  0  0  0  0  0  0
  161.5090  213.1160  148.2950 C   0  0  0  0  0  0  0  0  0  0  0  0
  161.4440  213.0630  146.1710 N   0  0  0  0  0  2  0  0  0  0  0  0
  162.4910  213.8110  146.4920 N   0  0  0  0  0  0  0  0  0  0  0  0
  162.5650  213.8690  147.8370 C   0  0  0  0  0  3  0  0  0  0  0  0
  161.6180  205.9930  150.6930 C   0  0  0  0  0  2  0  0  0  0  0  0
  160.7320  205.4780  151.7230 N   0  0  0  0  0  2  0  0  0  0  0  0
  160.7040  203.0960  150.1380 N   0  0  0  0  0  2  0  0  0  0  0  0
  161.3150  204.3020  152.2100 N   0  0  0  0  0  2  0  0  0  0  0  0
  161.3160  203.1090  151.4310 C   0  0  0  0  0  0  0  0  0  0  0  0
  161.8630  202.0700  151.8880 O   0  0  0  0  0  0  0  0  0  0  0  0
  160.6620  201.9050  149.3020 C   0  0  1  0  0  3  0  0  0  0  0  0
  159.3890  201.3380  149.3590 O   0  0  0  0  0  1  0  0  0  0  0  0
  161.5890  203.6610  147.7990 C   0  0  0  0  0  1  0  0  0  0  0  0
  160.9790  202.2740  147.8650 C   0  0  0  0  0  2  0  0  0  0  0  0
  1  2  2  0  0  0  0
  1  6  1  0  0  0  0
  2  5  1  0  0  0  0
  3  6  1  0  0  0  0
  3  7  1  0  0  0  0
  5  9  2  0  0  0  0
  6  8  2  0  0  0  0
  7 24  1  6  0  0  0
  7  4  1  0  0  0  0
  8  4  1  0  0  0  0
  8  9  1  0  0  0  0
 10 17  2  0  0  0  0
 11 16  1  0  0  0  0
 12 15  1  0  0  0  0
 13  9  1  6  0  0  0
 13 11  1  0  0  0  0
 13 10  1  0  0  0  0
 14 11  2  0  0  0  0
 16 12  2  0  0  0  0
 17 12  1  0  0  0  0
 18  2  1  0  0  0  0
 19 20  2  0  0  0  0
 20 18  1  0  0  0  0
 21 22  1  0  0  0  0
 21 19  1  0  0  0  0
 22 23  2  0  0  0  0
 23 20  1  0  0  0  0
 24 25  1  0  0  0  0
 25 27  1  0  0  0  0
 26 28  1  0  0  0  0
 28 29  2  0  0  0  0
 28 27  1  0  0  0  0
 30 31  1  6  0  0  0
 30 26  1  0  0  0  0
 32 33  1  0  0  0  0
 33 30  1  0  0  0  0
M  END
>  <MODEL>
7

>  <REMARK>
 VINA RESULT:      -6.8      1.716      2.281
  Name = 
  8 active torsions:
  status: ('A' for Active; 'I' for Inactive)
    1  A    between atoms: N_1  and  C_20
    2  A    between atoms: C_4  and  N_12
    3  A    between atoms: N_7  and  N_25
    4  A    between atoms: C_11  and  N_12
    5  A    between atoms: C_17  and  C_22
    6  A    between atoms: C_17  and  N_25
    7  A    between atoms: C_19  and  C_28
    8  A    between atoms: C_20  and  C_32
                            x       y       z     vdW  Elec       q    Type
                         _______ _______ _______ _____ _____    ______ ____

>  <TORSDO>
F 8

$$$$
=
 OpenBabel11042421243D

 33 36  0  0  1  0  0  0  0  0999 V2000
  162.2630  208.1530  150.3310 C   0  0  0  0  0  3  0  0  0  0  0  0
  161.9800  207.8620  151.6800 C   0  0  0  0  0  0  0  0  0  0  0  0
  162.2770  209.9170  148.5980 O   0  0  0  0  0  0  0  0  0  0  0  0
  161.4800  211.7110  149.9280 C   0  0  0  0  0  2  0  0  0  0  0  0
  161.4980  208.8810  152.5250 C   0  0  0  0  0  3  0  0  0  0  0  0
  162.0550  209.4530  149.8760 C   0  0  0  0  0  0  0  0  0  0  0  0
  161.9340  211.2990  148.5100 C   0  0  1  0  0  3  0  0  0  0  0  0
  161.5920  210.4400  150.6950 C   0  0  0  0  0  0  0  0  0  0  0  0
  161.2960  210.1860  152.0430 C   0  0  0  0  0  0  0  0  0  0  0  0
  159.3530  211.5940  152.6680 C   0  0  0  0  0  3  0  0  0  0  0  0
  160.9860  210.8570  154.4260 C   0  0  0  0  0  0  0  0  0  0  0  0
  158.6470  210.9600  154.9200 C   0  0  0  0  0  0  0  0  0  0  0  0
  160.7840  211.2410  152.9810 C   0  0  1  0  0  3  0  0  0  0  0  0
  162.1500  210.6710  154.8690 O   0  0  0  0  0  0  0  0  0  0  0  0
  157.5700  210.7860  155.8320 N   0  0  0  0  0  1  0  0  0  0  0  0
  159.8620  210.7020  155.3020 N   0  0  0  0  0  0  0  0  0  0  0  0
  158.3710  211.4530  153.5610 C   0  0  0  0  0  3  0  0  0  0  0  0
  162.1670  206.5490  152.2240 N   0  0  0  0  0  2  0  0  0  0  0  0
  161.2110  204.2970  152.5400 N   0  0  0  0  0  0  0  0  0  0  0  0
  161.5420  205.3440  151.7660 C   0  0  0  0  0  0  0  0  0  0  0  0
  160.6600  203.4100  151.7280 N   0  0  0  0  0  2  0  0  0  0  0  0
  160.6310  203.8560  150.4800 N   0  0  0  0  0  0  0  0  0  0  0  0
  161.1830  205.0860  150.4640 C   0  0  0  0  0  3  0  0  0  0  0  0
  163.1540  212.1020  148.0900 C   0  0  0  0  0  2  0  0  0  0  0  0
  162.7400  213.4020  147.5880 N   0  0  0  0  0  2  0  0  0  0  0  0
  160.2360  213.4640  146.2050 N   0  0  0  0  0  2  0  0  0  0  0  0
  162.7060  213.3050  146.1910 N   0  0  0  0  0  2  0  0  0  0  0  0
  161.4670  213.3410  145.4870 C   0  0  0  0  0  0  0  0  0  0  0  0
  161.4670  213.2700  144.2280 O   0  0  0  0  0  0  0  0  0  0  0  0
  158.9410  213.4920  145.5420 C   0  0  1  0  0  3  0  0  0  0  0  0
  158.6100  212.2080  145.1080 O   0  0  0  0  0  1  0  0  0  0  0  0
  157.5230  212.8870  147.4980 C   0  0  0  0  0  1  0  0  0  0  0  0
  157.8790  213.9810  146.5090 C   0  0  0  0  0  2  0  0  0  0  0  0
  1  2  1  0  0  0  0
  2 18  1  0  0  0  0
  2  5  2  0  0  0  0
  3  6  1  0  0  0  0
  4  8  1  0  0  0  0
  6  1  2  0  0  0  0
  6  8  1  0  0  0  0
  7 24  1  1  0  0  0
  7  3  1  0  0  0  0
  7  4  1  0  0  0  0
  8  9  2  0  0  0  0
  9  5  1  0  0  0  0
 10 13  1  0  0  0  0
 10 17  2  0  0  0  0
 11 14  2  0  0  0  0
 11 16  1  0  0  0  0
 12 16  2  0  0  0  0
 12 15  1  0  0  0  0
 13  9  1  6  0  0  0
 13 11  1  0  0  0  0
 17 12  1  0  0  0  0
 20 18  1  0  0  0  0
 20 19  2  0  0  0  0
 21 19  1  0  0  0  0
 22 21  1  0  0  0  0
 23 22  2  0  0  0  0
 23 20  1  0  0  0  0
 25 24  1  0  0  0  0
 27 25  1  0  0  0  0
 28 27  1  0  0  0  0
 28 26  1  0  0  0  0
 29 28  2  0  0  0  0
 30 31  1  1  0  0  0
 30 26  1  0  0  0  0
 30 33  1  0  0  0  0
 33 32  1  0  0  0  0
M  END
>  <MODEL>
8

>  <REMARK>
 VINA RESULT:      -6.6      3.122      6.990
  Name = 
  8 active torsions:
  status: ('A' for Active; 'I' for Inactive)
    1  A    between atoms: N_1  and  C_20
    2  A    between atoms: C_4  and  N_12
    3  A    between atoms: N_7  and  N_25
    4  A    between atoms: C_11  and  N_12
    5  A    between atoms: C_17  and  C_22
    6  A    between atoms: C_17  and  N_25
    7  A    between atoms: C_19  and  C_28
    8  A    between atoms: C_20  and  C_32
                            x       y       z     vdW  Elec       q    Type
                         _______ _______ _______ _____ _____    ______ ____

>  <TORSDO>
F 8

$$$$
=
 OpenBabel11042421243D

 33 36  0  0  1  0  0  0  0  0999 V2000
  162.1020  208.2430  150.1520 C   0  0  0  0  0  3  0  0  0  0  0  0
  161.7790  207.9240  151.4850 C   0  0  0  0  0  0  0  0  0  0  0  0
  162.2360  210.0570  148.4770 O   0  0  0  0  0  0  0  0  0  0  0  0
  161.4990  211.8450  149.8490 C   0  0  0  0  0  2  0  0  0  0  0  0
  161.3300  208.9390  152.3540 C   0  0  0  0  0  3  0  0  0  0  0  0
  161.9660  209.5650  149.7350 C   0  0  0  0  0  0  0  0  0  0  0  0
  161.9610  211.4570  148.4270 C   0  0  1  0  0  3  0  0  0  0  0  0
  161.5340  210.5480  150.5760 C   0  0  0  0  0  0  0  0  0  0  0  0
  161.2000  210.2660  151.9100 C   0  0  0  0  0  0  0  0  0  0  0  0
  159.2690  211.6440  152.6340 C   0  0  0  0  0  3  0  0  0  0  0  0
  161.0030  210.9380  154.3050 C   0  0  0  0  0  0  0  0  0  0  0  0
  158.6930  211.0040  154.9210 C   0  0  0  0  0  0  0  0  0  0  0  0
  160.7210  211.3150  152.8720 C   0  0  1  0  0  3  0  0  0  0  0  0
  162.1920  210.7720  154.6870 O   0  0  0  0  0  0  0  0  0  0  0  0
  157.6680  210.8140  155.8880 N   0  0  0  0  0  1  0  0  0  0  0  0
  159.9300  210.7660  155.2380 N   0  0  0  0  0  0  0  0  0  0  0  0
  158.3380  211.4890  153.5770 C   0  0  0  0  0  3  0  0  0  0  0  0
  161.8910  206.5870  151.9900 N   0  0  0  0  0  2  0  0  0  0  0  0
  160.7090  205.3480  150.2150 N   0  0  0  0  0  0  0  0  0  0  0  0
  161.4530  205.3920  151.3330 C   0  0  0  0  0  0  0  0  0  0  0  0
  160.5360  204.0630  149.9500 N   0  0  0  0  0  2  0  0  0  0  0  0
  161.1400  203.3020  150.8510 N   0  0  0  0  0  0  0  0  0  0  0  0
  161.7360  204.1120  151.7490 C   0  0  0  0  0  3  0  0  0  0  0  0
  163.2270  212.2130  148.0560 C   0  0  0  0  0  2  0  0  0  0  0  0
  162.9920  213.0130  146.8660 N   0  0  0  0  0  2  0  0  0  0  0  0
  162.1480  213.2520  144.1430 N   0  0  0  0  0  2  0  0  0  0  0  0
  161.6410  212.8600  146.5330 N   0  0  0  0  0  2  0  0  0  0  0  0
  161.2050  212.9690  145.1800 C   0  0  0  0  0  0  0  0  0  0  0  0
  159.9850  212.8100  144.9070 O   0  0  0  0  0  0  0  0  0  0  0  0
  161.7610  213.3890  142.7470 C   0  0  1  0  0  3  0  0  0  0  0  0
  162.4610  214.4480  142.1680 O   0  0  0  0  0  1  0  0  0  0  0  0
  160.8080  211.3620  141.6590 C   0  0  0  0  0  1  0  0  0  0  0  0
  162.0830  212.1100  141.9960 C   0  0  0  0  0  2  0  0  0  0  0  0
  1  2  1  0  0  0  0
  2 18  1  0  0  0  0
  2  5  2  0  0  0  0
  3  6  1  0  0  0  0
  4  8  1  0  0  0  0
  6  1  2  0  0  0  0
  6  8  1  0  0  0  0
  7 24  1  1  0  0  0
  7  3  1  0  0  0  0
  7  4  1  0  0  0  0
  8  9  2  0  0  0  0
  9  5  1  0  0  0  0
 10 13  1  0  0  0  0
 10 17  2  0  0  0  0
 11 14  2  0  0  0  0
 11 16  1  0  0  0  0
 12 16  2  0  0  0  0
 12 15  1  0  0  0  0
 13  9  1  6  0  0  0
 13 11  1  0  0  0  0
 17 12  1  0  0  0  0
 19 20  2  0  0  0  0
 20 23  1  0  0  0  0
 20 18  1  0  0  0  0
 21 19  1  0  0  0  0
 21 22  1  0  0  0  0
 22 23  2  0  0  0  0
 25 24  1  0  0  0  0
 26 28  1  0  0  0  0
 27 25  1  0  0  0  0
 28 27  1  0  0  0  0
 29 28  2  0  0  0  0
 30 31  1  6  0  0  0
 30 26  1  0  0  0  0
 32 33  1  0  0  0  0
 33 30  1  0  0  0  0
M  END
>  <MODEL>
9

>  <REMARK>
 VINA RESULT:      -6.6      3.716      6.838
  Name = 
  8 active torsions:
  status: ('A' for Active; 'I' for Inactive)
    1  A    between atoms: N_1  and  C_20
    2  A    between atoms: C_4  and  N_12
    3  A    between atoms: N_7  and  N_25
    4  A    between atoms: C_11  and  N_12
    5  A    between atoms: C_17  and  C_22
    6  A    between atoms: C_17  and  N_25
    7  A    between atoms: C_19  and  C_28
    8  A    between atoms: C_20  and  C_32
                            x       y       z     vdW  Elec       q    Type
                         _______ _______ _______ _____ _____    ______ ____

>  <TORSDO>
F 8

$$$$
