=
 OpenBabel11052411533D

 32 36  0  0  1  0  0  0  0  0999 V2000
  161.3790  204.3050  147.3820 C   0  0  0  0  0  0  0  0  0  0  0  0
  162.5090  206.6530  149.7080 C   0  0  0  0  0  2  0  0  0  0  0  0
  160.9860  202.3980  149.6160 C   0  0  0  0  0  0  0  0  0  0  0  0
  161.3230  206.1120  149.0440 N   0  0  0  0  0  0  0  0  0  0  0  0
  161.3090  202.6570  146.9690 S   0  0  0  0  0  0  0  0  0  0  0  0
  162.5930  205.8380  152.2050 C   0  0  1  0  0  3  0  0  0  0  0  0
  160.9760  207.5120  155.2850 C   0  0  0  0  0  1  0  0  0  0  0  0
  161.0780  201.7520  148.3520 C   0  0  0  0  0  0  0  0  0  0  0  0
  161.5470  207.4360  153.8850 C   0  0  1  0  0  3  0  0  0  0  0  0
  161.2340  204.7110  148.7400 C   0  0  0  0  0  0  0  0  0  0  0  0
  161.0060  207.8300  151.4570 C   0  0  2  0  0  3  0  0  0  0  0  0
  162.0880  206.0370  153.6400 C   0  0  0  0  0  2  0  0  0  0  0  0
  160.2870  207.0150  148.5650 C   0  0  0  0  0  1  0  0  0  0  0  0
  160.9130  200.1800  149.7940 N   0  0  0  0  0  0  0  0  0  0  0  0
  161.0360  200.4240  148.4930 N   0  0  0  0  0  0  0  0  0  0  0  0
  162.3200  204.4760  151.7400 N   0  0  0  0  0  2  0  0  0  0  0  0
  161.0180  203.7970  149.8200 C   0  0  0  0  0  0  0  0  0  0  0  0
  160.0380  203.6660  152.1800 C   0  0  0  0  0  1  0  0  0  0  0  0
  160.4450  207.6990  152.8760 C   0  0  0  0  0  2  0  0  0  0  0  0
  160.8850  201.3400  150.5010 C   0  0  0  0  0  3  0  0  0  0  0  0
  160.9680  204.3790  151.2100 C   0  0  1  0  0  3  0  0  0  0  0  0
  162.2610  206.9740  151.1920 C   0  0  2  0  0  3  0  0  0  0  0  0
  161.2040  206.1380  145.2340 C   0  0  0  0  0  2  0  0  0  0  0  0
  161.6490  205.2530  146.3500 N   0  0  0  0  0  0  0  0  0  0  0  0
  162.5490  206.1140  145.5280 C   0  0  0  0  0  2  0  0  0  0  0  0
  161.3200  209.2900  151.1500 C   0  0  0  0  0  2  0  0  0  0  0  0
  161.0700  210.1340  152.3100 N   0  0  0  0  0  0  0  0  0  0  0  0
  158.7220  211.0960  152.6830 N   0  0  0  0  0  0  0  0  0  0  0  0
  159.7810  210.6620  152.5150 C   0  0  0  0  0  0  0  0  0  0  0  0
  162.1710  210.3220  153.2580 C   0  0  0  0  0  2  0  0  0  0  0  0
  162.7620  210.6790  155.5970 N   0  0  0  0  0  1  0  0  0  0  0  0
  161.7340  210.9110  154.5970 C   0  0  0  0  0  2  0  0  0  0  0  0
  1 10  2  0  0  0  0
  3 17  2  0  0  0  0
  3 20  1  0  0  0  0
  4  2  1  0  0  0  0
  5  1  1  0  0  0  0
  5  8  1  0  0  0  0
  6 12  1  1  0  0  0
  8 15  2  0  0  0  0
  8  3  1  0  0  0  0
  9  7  1  1  0  0  0
 10  4  1  0  0  0  0
 10 17  1  0  0  0  0
 11 26  1  1  0  0  0
 11 19  1  0  0  0  0
 12  9  1  0  0  0  0
 13  4  1  0  0  0  0
 14 20  2  0  0  0  0
 15 14  1  0  0  0  0
 16  6  1  0  0  0  0
 17 21  1  0  0  0  0
 19  9  1  0  0  0  0
 21 16  1  0  0  0  0
 21 18  1  1  0  0  0
 22  2  1  6  0  0  0
 22 11  1  0  0  0  0
 22  6  1  0  0  0  0
 23 25  1  0  0  0  0
 23 24  1  0  0  0  0
 24  1  1  0  0  0  0
 25 24  1  0  0  0  0
 26 27  1  0  0  0  0
 27 29  1  0  0  0  0
 27 30  1  0  0  0  0
 29 28  3  0  0  0  0
 30 32  1  0  0  0  0
 32 31  1  0  0  0  0
M  END
>  <MODEL>
1

>  <REMARK>
 VINA RESULT:      -5.6      0.000      0.000
  Name = 
  6 active torsions:
  status: ('A' for Active; 'I' for Inactive)
    1  A    between atoms: C_1  and  N_20
    2  A    between atoms: C_13  and  C_24
    3  A    between atoms: C_17  and  C_30
    4  A    between atoms: C_24  and  N_27
    5  A    between atoms: N_27  and  C_30
    6  A    between atoms: N_27  and  C_31
                            x       y       z     vdW  Elec       q    Type
                         _______ _______ _______ _____ _____    ______ ____

>  <TORSDO>
F 6

$$$$
=
 OpenBabel11052411533D

 32 36  0  0  1  0  0  0  0  0999 V2000
  161.7860  209.3320  150.7130 C   0  0  0  0  0  0  0  0  0  0  0  0
  160.8550  206.9050  148.3810 C   0  0  0  0  0  2  0  0  0  0  0  0
  161.2560  207.3590  152.8600 C   0  0  0  0  0  0  0  0  0  0  0  0
  161.9730  207.4420  149.1570 N   0  0  0  0  0  0  0  0  0  0  0  0
  161.5200  209.9590  152.2720 S   0  0  0  0  0  0  0  0  0  0  0  0
  160.0940  204.5950  149.3770 C   0  0  1  0  0  3  0  0  0  0  0  0
  161.4590  201.0900  148.5070 C   0  0  0  0  0  1  0  0  0  0  0  0
  161.2490  208.7000  153.3330 C   0  0  0  0  0  0  0  0  0  0  0  0
  161.1660  202.5600  148.2920 C   0  0  1  0  0  3  0  0  0  0  0  0
  161.7660  207.9250  150.4940 C   0  0  0  0  0  0  0  0  0  0  0  0
  162.2420  204.7890  147.8290 C   0  0  2  0  0  3  0  0  0  0  0  0
  160.3490  203.0840  149.4610 C   0  0  0  0  0  2  0  0  0  0  0  0
  163.2730  207.6160  148.5280 C   0  0  0  0  0  1  0  0  0  0  0  0
  160.7370  207.4900  155.0210 N   0  0  0  0  0  0  0  0  0  0  0  0
  160.9310  208.7460  154.6300 N   0  0  0  0  0  0  0  0  0  0  0  0
  160.1020  205.2000  150.7110 N   0  0  0  0  0  2  0  0  0  0  0  0
  161.5360  206.9650  151.5320 C   0  0  0  0  0  0  0  0  0  0  0  0
  161.9820  204.5220  152.1490 C   0  0  0  0  0  1  0  0  0  0  0  0
  162.4700  203.3320  148.2420 C   0  0  0  0  0  2  0  0  0  0  0  0
  160.9190  206.6290  153.9860 C   0  0  0  0  0  3  0  0  0  0  0  0
  161.4630  205.5170  151.1210 C   0  0  1  0  0  3  0  0  0  0  0  0
  160.8870  205.3700  148.2830 C   0  0  2  0  0  3  0  0  0  0  0  0
  161.5750  210.7930  148.3000 C   0  0  0  0  0  2  0  0  0  0  0  0
  161.9640  210.2470  149.6340 N   0  0  0  0  0  0  0  0  0  0  0  0
  162.6570  211.3670  148.9310 C   0  0  0  0  0  2  0  0  0  0  0  0
  162.3670  204.9300  146.3160 C   0  0  0  0  0  2  0  0  0  0  0  0
  161.1920  204.3970  145.6410 N   0  0  0  0  0  0  0  0  0  0  0  0
  159.2390  205.9650  145.0890 N   0  0  0  0  0  0  0  0  0  0  0  0
  160.1200  205.2570  145.3380 C   0  0  0  0  0  0  0  0  0  0  0  0
  161.2260  202.9900  145.2350 C   0  0  0  0  0  2  0  0  0  0  0  0
  159.9210  200.9740  144.8130 N   0  0  0  0  0  1  0  0  0  0  0  0
  159.8590  202.4250  144.8630 C   0  0  0  0  0  2  0  0  0  0  0  0
  1  5  1  0  0  0  0
  2  4  1  0  0  0  0
  3  8  1  0  0  0  0
  3 20  1  0  0  0  0
  4 10  1  0  0  0  0
  5  8  1  0  0  0  0
  6 12  1  1  0  0  0
  6 16  1  0  0  0  0
  8 15  2  0  0  0  0
  9  7  1  1  0  0  0
  9 12  1  0  0  0  0
 10  1  2  0  0  0  0
 10 17  1  0  0  0  0
 11 26  1  6  0  0  0
 11 19  1  0  0  0  0
 11 22  1  0  0  0  0
 13  4  1  0  0  0  0
 15 14  1  0  0  0  0
 16 21  1  0  0  0  0
 17  3  2  0  0  0  0
 19  9  1  0  0  0  0
 20 14  2  0  0  0  0
 21 17  1  0  0  0  0
 21 18  1  1  0  0  0
 22  2  1  1  0  0  0
 22  6  1  0  0  0  0
 23 25  1  0  0  0  0
 23 24  1  0  0  0  0
 24  1  1  0  0  0  0
 25 24  1  0  0  0  0
 27 26  1  0  0  0  0
 28 29  3  0  0  0  0
 29 27  1  0  0  0  0
 30 27  1  0  0  0  0
 31 32  1  0  0  0  0
 32 30  1  0  0  0  0
M  END
>  <MODEL>
2

>  <REMARK>
 VINA RESULT:      -5.4      2.574      7.243
  Name = 
  6 active torsions:
  status: ('A' for Active; 'I' for Inactive)
    1  A    between atoms: C_1  and  N_20
    2  A    between atoms: C_13  and  C_24
    3  A    between atoms: C_17  and  C_30
    4  A    between atoms: C_24  and  N_27
    5  A    between atoms: N_27  and  C_30
    6  A    between atoms: N_27  and  C_31
                            x       y       z     vdW  Elec       q    Type
                         _______ _______ _______ _____ _____    ______ ____

>  <TORSDO>
F 6

$$$$
=
 OpenBabel11052411533D

 32 36  0  0  1  0  0  0  0  0999 V2000
  161.5420  204.3860  147.2700 C   0  0  0  0  0  0  0  0  0  0  0  0
  162.9350  206.7320  149.4500 C   0  0  0  0  0  2  0  0  0  0  0  0
  160.6310  202.8470  149.6330 C   0  0  0  0  0  0  0  0  0  0  0  0
  161.7180  206.3470  148.7370 N   0  0  0  0  0  0  0  0  0  0  0  0
  161.1860  202.7420  147.0140 S   0  0  0  0  0  0  0  0  0  0  0  0
  162.6830  206.2010  152.0120 C   0  0  1  0  0  3  0  0  0  0  0  0
  161.2040  208.4800  154.7550 C   0  0  0  0  0  1  0  0  0  0  0  0
  160.6860  202.0580  148.4510 C   0  0  0  0  0  0  0  0  0  0  0  0
  161.8470  208.1420  153.4270 C   0  0  1  0  0  3  0  0  0  0  0  0
  161.3820  204.9610  148.5630 C   0  0  0  0  0  0  0  0  0  0  0  0
  161.5660  208.3540  150.9330 C   0  0  2  0  0  3  0  0  0  0  0  0
  162.1250  206.6500  153.3690 C   0  0  0  0  0  2  0  0  0  0  0  0
  160.9120  207.3650  148.0800 C   0  0  0  0  0  1  0  0  0  0  0  0
  160.1200  200.7150  150.0180 N   0  0  0  0  0  0  0  0  0  0  0  0
  160.3790  200.7840  148.7160 N   0  0  0  0  0  0  0  0  0  0  0  0
  162.1860  204.8700  151.6590 N   0  0  0  0  0  2  0  0  0  0  0  0
  160.9170  204.2300  149.7030 C   0  0  0  0  0  0  0  0  0  0  0  0
  159.7650  204.5470  151.9650 C   0  0  0  0  0  1  0  0  0  0  0  0
  160.8910  208.4890  152.3010 C   0  0  0  0  0  2  0  0  0  0  0  0
  160.2650  201.9320  150.6030 C   0  0  0  0  0  3  0  0  0  0  0  0
  160.8810  204.9630  151.0190 C   0  0  1  0  0  3  0  0  0  0  0  0
  162.6480  207.2580  150.8680 C   0  0  2  0  0  3  0  0  0  0  0  0
  161.8990  205.8350  144.8670 C   0  0  0  0  0  2  0  0  0  0  0  0
  162.0620  205.1460  146.1800 N   0  0  0  0  0  0  0  0  0  0  0  0
  163.1510  205.8490  145.4400 C   0  0  0  0  0  2  0  0  0  0  0  0
  162.1760  209.6880  150.5160 C   0  0  0  0  0  2  0  0  0  0  0  0
  161.1900  210.7570  150.5790 N   0  0  0  0  0  0  0  0  0  0  0  0
  160.2630  211.4810  152.8570 N   0  0  0  0  0  0  0  0  0  0  0  0
  160.6810  211.1540  151.8290 C   0  0  0  0  0  0  0  0  0  0  0  0
  160.8370  211.4260  149.3240 C   0  0  0  0  0  2  0  0  0  0  0  0
  162.6040  212.7590  148.3010 N   0  0  0  0  0  1  0  0  0  0  0  0
  161.9710  211.4520  148.3020 C   0  0  0  0  0  2  0  0  0  0  0  0
  1 10  2  0  0  0  0
  3 17  2  0  0  0  0
  3 20  1  0  0  0  0
  4  2  1  0  0  0  0
  5  1  1  0  0  0  0
  5  8  1  0  0  0  0
  6 12  1  1  0  0  0
  8 15  2  0  0  0  0
  8  3  1  0  0  0  0
  9  7  1  1  0  0  0
 10  4  1  0  0  0  0
 10 17  1  0  0  0  0
 11 26  1  1  0  0  0
 11 19  1  0  0  0  0
 12  9  1  0  0  0  0
 13  4  1  0  0  0  0
 14 20  2  0  0  0  0
 15 14  1  0  0  0  0
 16  6  1  0  0  0  0
 17 21  1  0  0  0  0
 19  9  1  0  0  0  0
 21 16  1  0  0  0  0
 21 18  1  1  0  0  0
 22  2  1  6  0  0  0
 22 11  1  0  0  0  0
 22  6  1  0  0  0  0
 23 25  1  0  0  0  0
 23 24  1  0  0  0  0
 24  1  1  0  0  0  0
 25 24  1  0  0  0  0
 26 27  1  0  0  0  0
 27 29  1  0  0  0  0
 29 28  3  0  0  0  0
 30 27  1  0  0  0  0
 31 32  1  0  0  0  0
 32 30  1  0  0  0  0
M  END
>  <MODEL>
3

>  <REMARK>
 VINA RESULT:      -4.2      1.457      2.071
  Name = 
  6 active torsions:
  status: ('A' for Active; 'I' for Inactive)
    1  A    between atoms: C_1  and  N_20
    2  A    between atoms: C_13  and  C_24
    3  A    between atoms: C_17  and  C_30
    4  A    between atoms: C_24  and  N_27
    5  A    between atoms: N_27  and  C_30
    6  A    between atoms: N_27  and  C_31
                            x       y       z     vdW  Elec       q    Type
                         _______ _______ _______ _____ _____    ______ ____

>  <TORSDO>
F 6

$$$$
=
 OpenBabel11052411533D

 32 36  0  0  1  0  0  0  0  0999 V2000
  161.5620  204.2960  146.8330 C   0  0  0  0  0  0  0  0  0  0  0  0
  162.9890  206.9450  148.6060 C   0  0  0  0  0  2  0  0  0  0  0  0
  160.7670  203.0940  149.4220 C   0  0  0  0  0  0  0  0  0  0  0  0
  161.7540  206.4470  148.0020 N   0  0  0  0  0  0  0  0  0  0  0  0
  161.2270  202.6290  146.8240 S   0  0  0  0  0  0  0  0  0  0  0  0
  162.8420  206.7780  151.2250 C   0  0  1  0  0  3  0  0  0  0  0  0
  161.4210  209.4000  153.6760 C   0  0  0  0  0  1  0  0  0  0  0  0
  160.7940  202.1470  148.3620 C   0  0  0  0  0  0  0  0  0  0  0  0
  162.0220  208.8870  152.3840 C   0  0  1  0  0  3  0  0  0  0  0  0
  161.4380  205.0460  148.0370 C   0  0  0  0  0  0  0  0  0  0  0  0
  161.6450  208.7420  149.8990 C   0  0  2  0  0  3  0  0  0  0  0  0
  162.3260  207.4060  152.5260 C   0  0  0  0  0  2  0  0  0  0  0  0
  160.9050  207.3520  147.2400 C   0  0  0  0  0  1  0  0  0  0  0  0
  160.3120  201.0300  150.1220 N   0  0  0  0  0  0  0  0  0  0  0  0
  160.5210  200.9190  148.8140 N   0  0  0  0  0  0  0  0  0  0  0  0
  162.3580  205.4030  151.0810 N   0  0  0  0  0  2  0  0  0  0  0  0
  161.0300  204.4760  149.2860 C   0  0  0  0  0  0  0  0  0  0  0  0
  159.9560  205.0940  151.5250 C   0  0  0  0  0  1  0  0  0  0  0  0
  161.0180  209.0590  151.2590 C   0  0  0  0  0  2  0  0  0  0  0  0
  160.4550  202.3200  150.5250 C   0  0  0  0  0  3  0  0  0  0  0  0
  161.0290  205.3880  150.4860 C   0  0  1  0  0  3  0  0  0  0  0  0
  162.7450  207.6620  149.9450 C   0  0  2  0  0  3  0  0  0  0  0  0
  161.8000  205.4050  144.2410 C   0  0  0  0  0  2  0  0  0  0  0  0
  162.0270  204.9020  145.6280 N   0  0  0  0  0  0  0  0  0  0  0  0
  163.0760  205.5010  144.7510 C   0  0  0  0  0  2  0  0  0  0  0  0
  162.2150  210.0110  149.2750 C   0  0  0  0  0  2  0  0  0  0  0  0
  161.2070  211.0600  149.2130 N   0  0  0  0  0  0  0  0  0  0  0  0
  160.4560  212.2120  151.3780 N   0  0  0  0  0  0  0  0  0  0  0  0
  160.7950  211.6920  150.4010 C   0  0  0  0  0  0  0  0  0  0  0  0
  160.7310  211.4630  147.8870 C   0  0  0  0  0  2  0  0  0  0  0  0
  160.8410  213.1930  146.1720 N   0  0  0  0  0  1  0  0  0  0  0  0
  161.5950  212.5320  147.2230 C   0  0  0  0  0  2  0  0  0  0  0  0
  1 10  2  0  0  0  0
  3 20  1  0  0  0  0
  4 10  1  0  0  0  0
  4  2  1  0  0  0  0
  5  1  1  0  0  0  0
  5  8  1  0  0  0  0
  6 12  1  1  0  0  0
  8 15  2  0  0  0  0
  8  3  1  0  0  0  0
  9 12  1  0  0  0  0
  9  7  1  1  0  0  0
 10 17  1  0  0  0  0
 11 26  1  1  0  0  0
 11 22  1  0  0  0  0
 11 19  1  0  0  0  0
 13  4  1  0  0  0  0
 14 20  2  0  0  0  0
 15 14  1  0  0  0  0
 16  6  1  0  0  0  0
 17  3  2  0  0  0  0
 17 21  1  0  0  0  0
 19  9  1  0  0  0  0
 21 16  1  0  0  0  0
 21 18  1  1  0  0  0
 22  2  1  6  0  0  0
 22  6  1  0  0  0  0
 23 25  1  0  0  0  0
 23 24  1  0  0  0  0
 24  1  1  0  0  0  0
 25 24  1  0  0  0  0
 27 26  1  0  0  0  0
 27 29  1  0  0  0  0
 29 28  3  0  0  0  0
 30 27  1  0  0  0  0
 31 32  1  0  0  0  0
 32 30  1  0  0  0  0
M  END
>  <MODEL>
4

>  <REMARK>
 VINA RESULT:      -3.4      2.123      2.864
  Name = 
  6 active torsions:
  status: ('A' for Active; 'I' for Inactive)
    1  A    between atoms: C_1  and  N_20
    2  A    between atoms: C_13  and  C_24
    3  A    between atoms: C_17  and  C_30
    4  A    between atoms: C_24  and  N_27
    5  A    between atoms: N_27  and  C_30
    6  A    between atoms: N_27  and  C_31
                            x       y       z     vdW  Elec       q    Type
                         _______ _______ _______ _____ _____    ______ ____

>  <TORSDO>
F 6

$$$$
=
 OpenBabel11052411533D

 32 36  0  0  1  0  0  0  0  0999 V2000
  158.5590  211.0210  154.7830 C   0  0  0  0  0  0  0  0  0  0  0  0
  161.2110  211.5920  152.5830 C   0  0  0  0  0  2  0  0  0  0  0  0
  157.0200  213.1060  153.3440 C   0  0  0  0  0  0  0  0  0  0  0  0
  159.9780  210.8320  152.7880 N   0  0  0  0  0  0  0  0  0  0  0  0
  157.2550  211.7190  155.6240 S   0  0  0  0  0  0  0  0  0  0  0  0
  160.8200  213.4700  150.7860 C   0  0  1  0  0  3  0  0  0  0  0  0
  161.1990  213.1800  146.9550 C   0  0  0  0  0  1  0  0  0  0  0  0
  156.5170  212.8550  154.6510 C   0  0  0  0  0  0  0  0  0  0  0  0
  161.4280  212.8130  148.4060 C   0  0  1  0  0  3  0  0  0  0  0  0
  158.8540  211.4310  153.4510 C   0  0  0  0  0  0  0  0  0  0  0  0
  161.2070  210.9420  150.0770 C   0  0  2  0  0  3  0  0  0  0  0  0
  160.7280  213.8250  149.2960 C   0  0  0  0  0  2  0  0  0  0  0  0
  159.9350  209.4180  152.4440 C   0  0  0  0  0  1  0  0  0  0  0  0
  155.3280  214.4530  153.8710 N   0  0  0  0  0  0  0  0  0  0  0  0
  155.5070  213.6810  154.9380 N   0  0  0  0  0  0  0  0  0  0  0  0
  159.5930  213.8490  151.4900 N   0  0  0  0  0  2  0  0  0  0  0  0
  158.0980  212.4190  152.7410 C   0  0  0  0  0  0  0  0  0  0  0  0
  157.5050  213.1790  150.3710 C   0  0  0  0  0  1  0  0  0  0  0  0
  160.8300  211.4460  148.6810 C   0  0  0  0  0  2  0  0  0  0  0  0
  156.2210  214.1410  152.8950 C   0  0  0  0  0  3  0  0  0  0  0  0
  158.5900  212.8000  151.3680 C   0  0  1  0  0  3  0  0  0  0  0  0
  161.3820  212.0570  151.1260 C   0  0  2  0  0  3  0  0  0  0  0  0
  160.6200  209.7080  156.2070 C   0  0  0  0  0  2  0  0  0  0  0  0
  159.3780  210.0730  155.4650 N   0  0  0  0  0  0  0  0  0  0  0  0
  159.7000  208.7080  155.9780 C   0  0  0  0  0  2  0  0  0  0  0  0
  162.4850  210.1130  150.0070 C   0  0  0  0  0  2  0  0  0  0  0  0
  162.1860  208.7130  149.7400 N   0  0  0  0  0  0  0  0  0  0  0  0
  162.4430  206.9910  151.6230 N   0  0  0  0  0  0  0  0  0  0  0  0
  162.3270  207.7680  150.7740 C   0  0  0  0  0  0  0  0  0  0  0  0
  161.6680  208.3730  148.4120 C   0  0  0  0  0  2  0  0  0  0  0  0
  160.6020  206.2130  148.0360 N   0  0  0  0  0  1  0  0  0  0  0  0
  161.8760  206.9110  148.0280 C   0  0  0  0  0  2  0  0  0  0  0  0
  1 24  1  0  0  0  0
  1  5  1  0  0  0  0
  2  4  1  0  0  0  0
  3  8  1  0  0  0  0
  4 10  1  0  0  0  0
  6 12  1  6  0  0  0
  6 22  1  0  0  0  0
  6 16  1  0  0  0  0
  8 15  2  0  0  0  0
  8  5  1  0  0  0  0
  9  7  1  6  0  0  0
  9 19  1  0  0  0  0
  9 12  1  0  0  0  0
 10  1  2  0  0  0  0
 11 26  1  6  0  0  0
 11 22  1  0  0  0  0
 13  4  1  0  0  0  0
 14 15  1  0  0  0  0
 17  3  2  0  0  0  0
 17 10  1  0  0  0  0
 19 11  1  0  0  0  0
 20  3  1  0  0  0  0
 20 14  2  0  0  0  0
 21 18  1  6  0  0  0
 21 16  1  0  0  0  0
 21 17  1  0  0  0  0
 22  2  1  1  0  0  0
 24 25  1  0  0  0  0
 24 23  1  0  0  0  0
 25 23  1  0  0  0  0
 27 26  1  0  0  0  0
 27 29  1  0  0  0  0
 29 28  3  0  0  0  0
 30 27  1  0  0  0  0
 32 31  1  0  0  0  0
 32 30  1  0  0  0  0
M  END
>  <MODEL>
5

>  <REMARK>
 VINA RESULT:      -2.9      3.947      9.364
  Name = 
  6 active torsions:
  status: ('A' for Active; 'I' for Inactive)
    1  A    between atoms: C_1  and  N_20
    2  A    between atoms: C_13  and  C_24
    3  A    between atoms: C_17  and  C_30
    4  A    between atoms: C_24  and  N_27
    5  A    between atoms: N_27  and  C_30
    6  A    between atoms: N_27  and  C_31
                            x       y       z     vdW  Elec       q    Type
                         _______ _______ _______ _____ _____    ______ ____

>  <TORSDO>
F 6

$$$$
=
 OpenBabel11052411533D

 32 36  0  0  1  0  0  0  0  0999 V2000
  159.7360  209.7220  156.0250 C   0  0  0  0  0  0  0  0  0  0  0  0
  162.0920  209.5510  153.4530 C   0  0  0  0  0  2  0  0  0  0  0  0
  158.5060  212.0350  154.6390 C   0  0  0  0  0  0  0  0  0  0  0  0
  160.7650  209.1100  153.8820 N   0  0  0  0  0  0  0  0  0  0  0  0
  158.7600  210.7440  156.9730 S   0  0  0  0  0  0  0  0  0  0  0  0
  161.8700  211.3780  151.5770 C   0  0  1  0  0  3  0  0  0  0  0  0
  161.6010  210.8220  147.7670 C   0  0  0  0  0  1  0  0  0  0  0  0
  158.1590  211.9720  156.0170 C   0  0  0  0  0  0  0  0  0  0  0  0
  161.9560  210.4820  149.1980 C   0  0  1  0  0  3  0  0  0  0  0  0
  159.9140  209.9860  154.6370 C   0  0  0  0  0  0  0  0  0  0  0  0
  161.5720  208.7980  151.0310 C   0  0  2  0  0  3  0  0  0  0  0  0
  161.6390  211.6720  150.0890 C   0  0  0  0  0  2  0  0  0  0  0  0
  160.3570  207.7300  153.6630 C   0  0  0  0  0  1  0  0  0  0  0  0
  157.2560  213.7630  155.2750 N   0  0  0  0  0  0  0  0  0  0  0  0
  157.4130  213.0240  156.3680 N   0  0  0  0  0  0  0  0  0  0  0  0
  160.8760  212.0670  152.4040 N   0  0  0  0  0  2  0  0  0  0  0  0
  159.3020  211.0870  153.9560 C   0  0  0  0  0  0  0  0  0  0  0  0
  158.5490  211.8480  151.6320 C   0  0  0  0  0  1  0  0  0  0  0  0
  161.1140  209.3080  149.6610 C   0  0  0  0  0  2  0  0  0  0  0  0
  157.9010  213.2050  154.2180 C   0  0  0  0  0  3  0  0  0  0  0  0
  159.6570  211.2760  152.5030 C   0  0  1  0  0  3  0  0  0  0  0  0
  162.1450  209.8920  151.9530 C   0  0  2  0  0  3  0  0  0  0  0  0
  161.6440  208.0270  157.2450 C   0  0  0  0  0  2  0  0  0  0  0  0
  160.4140  208.6430  156.6670 N   0  0  0  0  0  0  0  0  0  0  0  0
  160.4900  207.2750  157.2610 C   0  0  0  0  0  2  0  0  0  0  0  0
  162.6070  207.6920  150.8600 C   0  0  0  0  0  2  0  0  0  0  0  0
  161.9700  206.3840  150.8030 N   0  0  0  0  0  0  0  0  0  0  0  0
  160.8370  205.6310  148.6290 N   0  0  0  0  0  0  0  0  0  0  0  0
  161.3480  205.9700  149.6100 C   0  0  0  0  0  0  0  0  0  0  0  0
  162.0850  205.5240  151.9830 C   0  0  0  0  0  2  0  0  0  0  0  0
  161.6040  203.1590  151.6350 N   0  0  0  0  0  1  0  0  0  0  0  0
  161.0270  204.4260  152.0490 C   0  0  0  0  0  2  0  0  0  0  0  0
  1 24  1  0  0  0  0
  1  5  1  0  0  0  0
  2  4  1  0  0  0  0
  3  8  1  0  0  0  0
  4 10  1  0  0  0  0
  6 12  1  6  0  0  0
  6 22  1  0  0  0  0
  6 16  1  0  0  0  0
  8 15  2  0  0  0  0
  8  5  1  0  0  0  0
  9  7  1  6  0  0  0
  9 19  1  0  0  0  0
  9 12  1  0  0  0  0
 10  1  2  0  0  0  0
 11 26  1  6  0  0  0
 11 22  1  0  0  0  0
 13  4  1  0  0  0  0
 14 15  1  0  0  0  0
 16 21  1  0  0  0  0
 17 10  1  0  0  0  0
 17  3  2  0  0  0  0
 19 11  1  0  0  0  0
 20  3  1  0  0  0  0
 20 14  2  0  0  0  0
 21 18  1  6  0  0  0
 21 17  1  0  0  0  0
 22  2  1  1  0  0  0
 23 25  1  0  0  0  0
 24 23  1  0  0  0  0
 24 25  1  0  0  0  0
 27 26  1  0  0  0  0
 27 30  1  0  0  0  0
 28 29  3  0  0  0  0
 29 27  1  0  0  0  0
 30 32  1  0  0  0  0
 31 32  1  0  0  0  0
M  END
>  <MODEL>
6

>  <REMARK>
 VINA RESULT:      -2.7      3.291      8.772
  Name = 
  6 active torsions:
  status: ('A' for Active; 'I' for Inactive)
    1  A    between atoms: C_1  and  N_20
    2  A    between atoms: C_13  and  C_24
    3  A    between atoms: C_17  and  C_30
    4  A    between atoms: C_24  and  N_27
    5  A    between atoms: N_27  and  C_30
    6  A    between atoms: N_27  and  C_31
                            x       y       z     vdW  Elec       q    Type
                         _______ _______ _______ _____ _____    ______ ____

>  <TORSDO>
F 6

$$$$
