=
 OpenBabel11052411223D

 41 44  0  0  1  0  0  0  0  0999 V2000
  162.0150  211.8900  149.1930 O   0  0  0  0  0  1  0  0  0  0  0  0
  161.8850  210.2600  150.9650 C   0  0  0  0  0  3  0  0  0  0  0  0
  161.9470  209.5430  148.6540 C   0  0  0  0  0  3  0  0  0  0  0  0
  161.8000  206.5830  150.8130 N   0  0  0  0  0  0  0  0  0  0  0  0
  161.8110  205.5660  149.9070 C   0  0  0  0  0  0  0  0  0  0  0  0
  161.8330  207.8910  150.4410 C   0  0  0  0  0  0  0  0  0  0  0  0
  161.8530  205.8530  148.5420 C   0  0  0  0  0  3  0  0  0  0  0  0
  161.9490  210.5660  149.6020 C   0  0  0  0  0  0  0  0  0  0  0  0
  161.8180  208.9330  151.4030 C   0  0  0  0  0  0  0  0  0  0  0  0
  161.8890  208.2110  149.0650 C   0  0  0  0  0  0  0  0  0  0  0  0
  161.8940  207.1830  148.1210 C   0  0  0  0  0  3  0  0  0  0  0  0
  161.7440  208.6990  152.8170 N   0  0  0  0  0  2  0  0  0  0  0  0
  160.7300  207.8950  153.4810 C   0  0  0  0  0  2  0  0  0  0  0  0
  160.9620  207.7820  155.8610 O   0  0  0  0  0  0  0  0  0  0  0  0
  160.3690  208.5150  154.8160 C   0  0  1  0  0  3  0  0  0  0  0  0
  160.8650  209.9460  154.8540 C   0  0  2  0  0  3  0  0  0  0  0  0
  162.9580  210.6470  155.7040 O   0  0  0  0  0  1  0  0  0  0  0  0
  161.7720  209.9970  156.0420 C   0  0  2  0  0  3  0  0  0  0  0  0
  162.0490  208.5450  156.3230 C   0  0  0  0  0  2  0  0  0  0  0  0
  158.5280  212.9680  154.1010 C   0  0  0  0  0  0  0  0  0  0  0  0
  158.4940  213.8750  153.2260 O   0  0  0  0  0  0  0  0  0  0  0  0
  159.7240  210.9080  154.9980 C   0  0  0  0  0  0  0  0  0  0  0  0
  158.9080  210.7600  155.9490 O   0  0  0  0  0  0  0  0  0  0  0  0
  160.4550  212.0470  153.0160 O   0  0  0  0  0  1  0  0  0  0  0  0
  159.5710  211.9750  154.0420 N   0  0  0  0  0  0  0  0  0  0  0  0
  156.6520  214.3100  156.9790 N   0  0  0  0  0  2  0  0  0  0  0  0
  155.5100  214.1340  156.1590 C   0  0  0  0  0  0  0  0  0  0  0  0
  157.5000  212.9750  155.1900 C   0  0  1  0  0  3  0  0  0  0  0  0
  157.8800  213.9490  156.3010 C   0  0  0  0  0  2  0  0  0  0  0  0
  154.3390  214.0300  156.6910 N   0  0  0  0  0  2  0  0  0  0  0  0
  155.8460  213.4310  154.5580 S   0  0  0  0  0  0  0  0  0  0  0  0
  161.7840  204.2370  150.3320 O   0  0  0  0  0  0  0  0  0  0  0  0
  160.4680  202.9100  151.8600 C   0  0  0  0  0  1  0  0  0  0  0  0
  160.5680  203.5050  150.4640 C   0  0  2  0  0  3  0  0  0  0  0  0
  159.9230  201.3720  149.6800 O   0  0  0  0  0  0  0  0  0  0  0  0
  160.5070  202.4180  149.4390 C   0  0  0  0  0  0  0  0  0  0  0  0
  161.1350  202.6370  148.1010 C   0  0  0  0  0  2  0  0  0  0  0  0
  160.8700  201.4640  147.1650 C   0  0  0  0  0  2  0  0  0  0  0  0
  159.8010  201.6610  145.0930 C   0  0  0  0  0  1  0  0  0  0  0  0
  161.0680  201.8540  145.7780 N   0  0  0  0  0  0  0  0  0  0  0  0
  161.3220  203.2820  145.7800 C   0  0  0  0  0  1  0  0  0  0  0  0
  1  8  1  0  0  0  0
  2  9  1  0  0  0  0
  3 10  2  0  0  0  0
  3  8  1  0  0  0  0
  5 32  1  0  0  0  0
  5  4  2  0  0  0  0
  6  4  1  0  0  0  0
  6  9  2  0  0  0  0
  7  5  1  0  0  0  0
  8  2  2  0  0  0  0
  9 12  1  0  0  0  0
 10  6  1  0  0  0  0
 11  7  2  0  0  0  0
 11 10  1  0  0  0  0
 12 13  1  0  0  0  0
 14 19  1  0  0  0  0
 15 13  1  6  0  0  0
 15 16  1  0  0  0  0
 15 14  1  0  0  0  0
 16 22  1  1  0  0  0
 16 18  1  0  0  0  0
 18 17  1  6  0  0  0
 18 19  1  0  0  0  0
 21 20  2  0  0  0  0
 22 23  2  0  0  0  0
 24 25  1  0  0  0  0
 25 20  1  0  0  0  0
 25 22  1  0  0  0  0
 27 30  2  0  0  0  0
 27 26  1  0  0  0  0
 28 20  1  6  0  0  0
 28 29  1  0  0  0  0
 29 26  1  0  0  0  0
 31 28  1  0  0  0  0
 31 27  1  0  0  0  0
 32 34  1  0  0  0  0
 34 33  1  1  0  0  0
 36 35  2  0  0  0  0
 36 34  1  0  0  0  0
 37 36  1  0  0  0  0
 38 37  1  0  0  0  0
 39 40  1  0  0  0  0
 40 41  1  0  0  0  0
 40 38  1  0  0  0  0
M  END
>  <MODEL>
1

>  <REMARK>
 VINA RESULT:      -7.4      0.000      0.000
  Name = 
  11 active torsions:
  status: ('A' for Active; 'I' for Inactive)
    1  A    between atoms: C_4  and  N_9
    2  A    between atoms: C_4  and  C_18
    3  A    between atoms: C_6  and  C_25
    4  A    between atoms: C_7  and  N_16
    5  A    between atoms: C_7  and  C_29
    6  A    between atoms: N_9  and  C_30
    7  A    between atoms: C_13  and  C_29
    8  A    between atoms: C_13  and  C_39
    9  A    between atoms: C_17  and  O_33
   10  A    between atoms: C_19  and  C_34
   11  A    between atoms: O_33  and  C_39
                            x       y       z     vdW  Elec       q    Type
                         _______ _______ _______ _____ _____    ______ ____

>  <TORSDO>
F 11

$$$$
=
 OpenBabel11052411223D

 41 44  0  0  1  0  0  0  0  0999 V2000
  161.9880  211.4310  150.2100 O   0  0  0  0  0  1  0  0  0  0  0  0
  161.3700  209.3570  151.2710 C   0  0  0  0  0  3  0  0  0  0  0  0
  162.0620  209.3770  148.9520 C   0  0  0  0  0  3  0  0  0  0  0  0
  161.3180  205.9250  149.9400 N   0  0  0  0  0  0  0  0  0  0  0  0
  161.5740  205.2370  148.7930 C   0  0  0  0  0  0  0  0  0  0  0  0
  161.4560  207.2760  150.0260 C   0  0  0  0  0  0  0  0  0  0  0  0
  161.9910  205.9220  147.6500 C   0  0  0  0  0  3  0  0  0  0  0  0
  161.8070  210.0560  150.1430 C   0  0  0  0  0  0  0  0  0  0  0  0
  161.1810  207.9710  151.2310 C   0  0  0  0  0  0  0  0  0  0  0  0
  161.8890  207.9940  148.8880 C   0  0  0  0  0  0  0  0  0  0  0  0
  162.1500  207.3080  147.7010 C   0  0  0  0  0  3  0  0  0  0  0  0
  160.7210  207.3230  152.4260 N   0  0  0  0  0  2  0  0  0  0  0  0
  161.4120  207.3370  153.7060 C   0  0  0  0  0  2  0  0  0  0  0  0
  160.4110  207.1400  155.8720 O   0  0  0  0  0  0  0  0  0  0  0  0
  160.5390  207.9920  154.7590 C   0  0  1  0  0  3  0  0  0  0  0  0
  161.1700  209.3000  155.1900 C   0  0  2  0  0  3  0  0  0  0  0  0
  162.6460  209.5700  157.0190 O   0  0  0  0  0  1  0  0  0  0  0  0
  161.3630  209.1540  156.6660 C   0  0  2  0  0  3  0  0  0  0  0  0
  161.2310  207.6710  156.8830 C   0  0  0  0  0  2  0  0  0  0  0  0
  159.6560  212.8830  155.3380 C   0  0  0  0  0  0  0  0  0  0  0  0
  159.8960  213.9290  156.0020 O   0  0  0  0  0  0  0  0  0  0  0  0
  160.2770  210.4600  154.8700 C   0  0  0  0  0  0  0  0  0  0  0  0
  159.3760  210.3230  153.9970 O   0  0  0  0  0  0  0  0  0  0  0  0
  161.4900  211.8080  156.4410 O   0  0  0  0  0  1  0  0  0  0  0  0
  160.4710  211.7140  155.5510 N   0  0  0  0  0  0  0  0  0  0  0  0
  156.4570  214.0030  153.8820 N   0  0  0  0  0  2  0  0  0  0  0  0
  157.2090  214.2070  152.6990 C   0  0  0  0  0  0  0  0  0  0  0  0
  158.5090  212.8870  154.3740 C   0  0  1  0  0  3  0  0  0  0  0  0
  157.2760  213.5440  154.9850 C   0  0  0  0  0  2  0  0  0  0  0  0
  156.6170  214.2340  151.5520 N   0  0  0  0  0  2  0  0  0  0  0  0
  158.9280  213.7640  152.8250 S   0  0  0  0  0  0  0  0  0  0  0  0
  161.4270  203.8490  148.7490 O   0  0  0  0  0  0  0  0  0  0  0  0
  160.9600  203.1230  151.0030 C   0  0  0  0  0  1  0  0  0  0  0  0
  160.4810  203.1590  149.5610 C   0  0  2  0  0  3  0  0  0  0  0  0
  159.2400  201.1700  149.2650 O   0  0  0  0  0  0  0  0  0  0  0  0
  160.2850  201.7660  149.0520 C   0  0  0  0  0  0  0  0  0  0  0  0
  161.3670  201.1220  148.2470 C   0  0  0  0  0  2  0  0  0  0  0  0
  160.8390  200.6250  146.9070 C   0  0  0  0  0  2  0  0  0  0  0  0
  161.3930  202.6220  145.8200 C   0  0  0  0  0  1  0  0  0  0  0  0
  160.2920  201.7240  146.1260 N   0  0  0  0  0  0  0  0  0  0  0  0
  159.8560  201.1590  144.8630 C   0  0  0  0  0  1  0  0  0  0  0  0
  3  8  1  0  0  0  0
  4  6  1  0  0  0  0
  5  4  2  0  0  0  0
  6  9  2  0  0  0  0
  7 11  2  0  0  0  0
  7  5  1  0  0  0  0
  8  1  1  0  0  0  0
  8  2  2  0  0  0  0
  9  2  1  0  0  0  0
  9 12  1  0  0  0  0
 10  3  2  0  0  0  0
 10  6  1  0  0  0  0
 11 10  1  0  0  0  0
 12 13  1  0  0  0  0
 14 19  1  0  0  0  0
 15 13  1  6  0  0  0
 15 16  1  0  0  0  0
 15 14  1  0  0  0  0
 16 22  1  1  0  0  0
 16 18  1  0  0  0  0
 18 19  1  0  0  0  0
 18 17  1  6  0  0  0
 20 25  1  0  0  0  0
 20 21  2  0  0  0  0
 22 25  1  0  0  0  0
 23 22  2  0  0  0  0
 25 24  1  0  0  0  0
 26 29  1  0  0  0  0
 27 31  1  0  0  0  0
 27 26  1  0  0  0  0
 28 29  1  0  0  0  0
 28 20  1  1  0  0  0
 30 27  2  0  0  0  0
 31 28  1  0  0  0  0
 32  5  1  0  0  0  0
 32 34  1  0  0  0  0
 34 33  1  1  0  0  0
 36 35  2  0  0  0  0
 36 34  1  0  0  0  0
 37 36  1  0  0  0  0
 38 37  1  0  0  0  0
 39 40  1  0  0  0  0
 40 38  1  0  0  0  0
 41 40  1  0  0  0  0
M  END
>  <MODEL>
2

>  <REMARK>
 VINA RESULT:      -6.8      1.562      1.901
  Name = 
  11 active torsions:
  status: ('A' for Active; 'I' for Inactive)
    1  A    between atoms: C_4  and  N_9
    2  A    between atoms: C_4  and  C_18
    3  A    between atoms: C_6  and  C_25
    4  A    between atoms: C_7  and  N_16
    5  A    between atoms: C_7  and  C_29
    6  A    between atoms: N_9  and  C_30
    7  A    between atoms: C_13  and  C_29
    8  A    between atoms: C_13  and  C_39
    9  A    between atoms: C_17  and  O_33
   10  A    between atoms: C_19  and  C_34
   11  A    between atoms: O_33  and  C_39
                            x       y       z     vdW  Elec       q    Type
                         _______ _______ _______ _____ _____    ______ ____

>  <TORSDO>
F 11

$$$$
=
 OpenBabel11052411223D

 41 44  0  0  1  0  0  0  0  0999 V2000
  161.1640  205.5440  146.8740 O   0  0  0  0  0  1  0  0  0  0  0  0
  161.4120  207.5630  148.1680 C   0  0  0  0  0  3  0  0  0  0  0  0
  161.0480  205.4430  149.2790 C   0  0  0  0  0  3  0  0  0  0  0  0
  161.3850  208.0700  151.8140 N   0  0  0  0  0  0  0  0  0  0  0  0
  161.2460  207.3690  152.9740 C   0  0  0  0  0  0  0  0  0  0  0  0
  161.3150  207.4780  150.5920 C   0  0  0  0  0  0  0  0  0  0  0  0
  161.0200  205.9920  152.9300 C   0  0  0  0  0  3  0  0  0  0  0  0
  161.2080  206.1820  148.1060 C   0  0  0  0  0  0  0  0  0  0  0  0
  161.4600  208.2290  149.3980 C   0  0  0  0  0  0  0  0  0  0  0  0
  161.1010  206.0830  150.5180 C   0  0  0  0  0  0  0  0  0  0  0  0
  160.9490  205.3480  151.6940 C   0  0  0  0  0  3  0  0  0  0  0  0
  161.6630  209.6500  149.3810 N   0  0  0  0  0  2  0  0  0  0  0  0
  162.2370  210.4010  148.2760 C   0  0  0  0  0  2  0  0  0  0  0  0
  160.8180  212.1680  149.0490 O   0  0  0  0  0  0  0  0  0  0  0  0
  161.3160  211.5420  147.8910 C   0  0  1  0  0  3  0  0  0  0  0  0
  162.0840  212.5480  147.0600 C   0  0  2  0  0  3  0  0  0  0  0  0
  163.2040  214.4530  147.9060 O   0  0  0  0  0  1  0  0  0  0  0  0
  161.9580  213.8330  147.8150 C   0  0  2  0  0  3  0  0  0  0  0  0
  161.5120  213.3840  149.1800 C   0  0  0  0  0  2  0  0  0  0  0  0
  161.9110  213.1360  143.2150 C   0  0  0  0  0  0  0  0  0  0  0  0
  162.7460  213.4270  142.3160 O   0  0  0  0  0  0  0  0  0  0  0  0
  161.5030  212.6660  145.6830 C   0  0  0  0  0  0  0  0  0  0  0  0
  160.2660  212.4810  145.5170 O   0  0  0  0  0  0  0  0  0  0  0  0
  163.6940  213.1130  144.8130 O   0  0  0  0  0  1  0  0  0  0  0  0
  162.3670  212.9750  144.5720 N   0  0  0  0  0  0  0  0  0  0  0  0
  158.6280  214.2180  141.9260 N   0  0  0  0  0  2  0  0  0  0  0  0
  158.7720  213.1440  141.0120 C   0  0  0  0  0  0  0  0  0  0  0  0
  160.4660  213.0000  142.8420 C   0  0  1  0  0  3  0  0  0  0  0  0
  159.7780  214.3600  142.7950 C   0  0  0  0  0  2  0  0  0  0  0  0
  157.7310  212.6320  140.4450 N   0  0  0  0  0  2  0  0  0  0  0  0
  160.2580  212.1870  141.2170 S   0  0  0  0  0  0  0  0  0  0  0  0
  161.3320  208.0150  154.2090 O   0  0  0  0  0  0  0  0  0  0  0  0
  162.0020  210.3170  154.4840 C   0  0  0  0  0  1  0  0  0  0  0  0
  160.8410  209.3380  154.4110 C   0  0  2  0  0  3  0  0  0  0  0  0
  159.8620  208.3990  156.3440 O   0  0  0  0  0  0  0  0  0  0  0  0
  160.0380  209.4020  155.6700 C   0  0  0  0  0  0  0  0  0  0  0  0
  159.4830  210.7150  156.1180 C   0  0  0  0  0  2  0  0  0  0  0  0
  158.3860  211.2030  155.1810 C   0  0  0  0  0  2  0  0  0  0  0  0
  156.9120  212.1040  156.7590 C   0  0  0  0  0  1  0  0  0  0  0  0
  157.0740  211.0360  155.7880 N   0  0  0  0  0  0  0  0  0  0  0  0
  156.0980  211.2780  154.7410 C   0  0  0  0  0  1  0  0  0  0  0  0
  1  8  1  0  0  0  0
  2  9  1  0  0  0  0
  3 10  2  0  0  0  0
  4  5  2  0  0  0  0
  5 32  1  0  0  0  0
  6  4  1  0  0  0  0
  7  5  1  0  0  0  0
  8  2  2  0  0  0  0
  8  3  1  0  0  0  0
  9  6  2  0  0  0  0
 10  6  1  0  0  0  0
 10 11  1  0  0  0  0
 11  7  2  0  0  0  0
 12  9  1  0  0  0  0
 13 12  1  0  0  0  0
 14 19  1  0  0  0  0
 15 13  1  1  0  0  0
 15 14  1  0  0  0  0
 16 22  1  6  0  0  0
 16 18  1  0  0  0  0
 16 15  1  0  0  0  0
 18 17  1  1  0  0  0
 18 19  1  0  0  0  0
 20 25  1  0  0  0  0
 21 20  2  0  0  0  0
 23 22  2  0  0  0  0
 25 24  1  0  0  0  0
 25 22  1  0  0  0  0
 26 29  1  0  0  0  0
 27 31  1  0  0  0  0
 27 26  1  0  0  0  0
 28 20  1  6  0  0  0
 29 28  1  0  0  0  0
 30 27  2  0  0  0  0
 31 28  1  0  0  0  0
 32 34  1  0  0  0  0
 34 33  1  1  0  0  0
 34 36  1  0  0  0  0
 36 37  1  0  0  0  0
 36 35  2  0  0  0  0
 38 40  1  0  0  0  0
 38 37  1  0  0  0  0
 40 39  1  0  0  0  0
 41 40  1  0  0  0  0
M  END
>  <MODEL>
3

>  <REMARK>
 VINA RESULT:      -6.6      5.049      9.672
  Name = 
  11 active torsions:
  status: ('A' for Active; 'I' for Inactive)
    1  A    between atoms: C_4  and  N_9
    2  A    between atoms: C_4  and  C_18
    3  A    between atoms: C_6  and  C_25
    4  A    between atoms: C_7  and  N_16
    5  A    between atoms: C_7  and  C_29
    6  A    between atoms: N_9  and  C_30
    7  A    between atoms: C_13  and  C_29
    8  A    between atoms: C_13  and  C_39
    9  A    between atoms: C_17  and  O_33
   10  A    between atoms: C_19  and  C_34
   11  A    between atoms: O_33  and  C_39
                            x       y       z     vdW  Elec       q    Type
                         _______ _______ _______ _____ _____    ______ ____

>  <TORSDO>
F 11

$$$$
=
 OpenBabel11052411223D

 41 44  0  0  1  0  0  0  0  0999 V2000
  162.2390  206.0690  146.9290 O   0  0  0  0  0  1  0  0  0  0  0  0
  162.0740  208.0970  148.2220 C   0  0  0  0  0  3  0  0  0  0  0  0
  161.6930  205.9500  149.2730 C   0  0  0  0  0  3  0  0  0  0  0  0
  161.3360  208.5880  151.7940 N   0  0  0  0  0  0  0  0  0  0  0  0
  161.0470  207.8740  152.9180 C   0  0  0  0  0  0  0  0  0  0  0  0
  161.5420  207.9960  150.5870 C   0  0  0  0  0  0  0  0  0  0  0  0
  160.9490  206.4830  152.8500 C   0  0  0  0  0  3  0  0  0  0  0  0
  162.0020  206.7040  148.1400 C   0  0  0  0  0  0  0  0  0  0  0  0
  161.8400  208.7610  149.4310 C   0  0  0  0  0  0  0  0  0  0  0  0
  161.4630  206.5880  150.4930 C   0  0  0  0  0  0  0  0  0  0  0  0
  161.1610  205.8390  151.6310 C   0  0  0  0  0  3  0  0  0  0  0  0
  161.9220  210.1940  149.4340 N   0  0  0  0  0  2  0  0  0  0  0  0
  162.3120  211.0130  148.2970 C   0  0  0  0  0  2  0  0  0  0  0  0
  163.1180  213.2610  148.1260 O   0  0  0  0  0  0  0  0  0  0  0  0
  162.0500  212.4750  148.5980 C   0  0  1  0  0  3  0  0  0  0  0  0
  160.7660  212.9040  147.9190 C   0  0  2  0  0  3  0  0  0  0  0  0
  160.6130  213.8770  145.7680 O   0  0  0  0  0  1  0  0  0  0  0  0
  161.1700  214.0410  147.0360 C   0  0  2  0  0  3  0  0  0  0  0  0
  162.6650  213.8970  146.9570 C   0  0  0  0  0  2  0  0  0  0  0  0
  157.2770  213.5220  149.5330 C   0  0  0  0  0  0  0  0  0  0  0  0
  156.0820  213.3120  149.1880 O   0  0  0  0  0  0  0  0  0  0  0  0
  159.7410  213.3350  148.9250 C   0  0  0  0  0  0  0  0  0  0  0  0
  160.1220  213.8630  150.0060 O   0  0  0  0  0  0  0  0  0  0  0  0
  158.0060  212.5070  147.4900 O   0  0  0  0  0  1  0  0  0  0  0  0
  158.3430  213.1250  148.6490 N   0  0  0  0  0  0  0  0  0  0  0  0
  156.6850  214.4530  153.0530 N   0  0  0  0  0  2  0  0  0  0  0  0
  157.9800  213.9250  153.2820 C   0  0  0  0  0  0  0  0  0  0  0  0
  157.5420  214.2080  150.8390 C   0  0  1  0  0  3  0  0  0  0  0  0
  156.2700  214.3190  151.6720 C   0  0  0  0  0  2  0  0  0  0  0  0
  158.6550  214.2910  154.3190 N   0  0  0  0  0  2  0  0  0  0  0  0
  158.8060  213.3280  151.8230 S   0  0  0  0  0  0  0  0  0  0  0  0
  160.8500  208.5200  154.1390 O   0  0  0  0  0  0  0  0  0  0  0  0
  161.4870  210.8470  154.2420 C   0  0  0  0  0  1  0  0  0  0  0  0
  160.3400  209.8490  154.2230 C   0  0  2  0  0  3  0  0  0  0  0  0
  159.6350  209.2270  156.3900 O   0  0  0  0  0  0  0  0  0  0  0  0
  159.5080  210.0040  155.4550 C   0  0  0  0  0  0  0  0  0  0  0  0
  158.5440  211.1420  155.5500 C   0  0  0  0  0  2  0  0  0  0  0  0
  157.3470  210.9340  154.6310 C   0  0  0  0  0  2  0  0  0  0  0  0
  155.2690  210.1680  155.3860 C   0  0  0  0  0  1  0  0  0  0  0  0
  156.1140  211.3450  155.2850 N   0  0  0  0  0  0  0  0  0  0  0  0
  156.4680  211.7170  156.6410 C   0  0  0  0  0  1  0  0  0  0  0  0
  1  8  1  0  0  0  0
  2  9  1  0  0  0  0
  3 10  2  0  0  0  0
  4  5  2  0  0  0  0
  5 32  1  0  0  0  0
  6  4  1  0  0  0  0
  7  5  1  0  0  0  0
  8  2  2  0  0  0  0
  8  3  1  0  0  0  0
  9 12  1  0  0  0  0
  9  6  2  0  0  0  0
 10  6  1  0  0  0  0
 10 11  1  0  0  0  0
 11  7  2  0  0  0  0
 13 12  1  0  0  0  0
 14 15  1  0  0  0  0
 15 13  1  6  0  0  0
 16 15  1  0  0  0  0
 16 22  1  1  0  0  0
 18 17  1  6  0  0  0
 18 16  1  0  0  0  0
 19 18  1  0  0  0  0
 19 14  1  0  0  0  0
 21 20  2  0  0  0  0
 22 23  2  0  0  0  0
 24 25  1  0  0  0  0
 25 22  1  0  0  0  0
 25 20  1  0  0  0  0
 26 27  1  0  0  0  0
 27 30  2  0  0  0  0
 28 20  1  6  0  0  0
 28 29  1  0  0  0  0
 28 31  1  0  0  0  0
 29 26  1  0  0  0  0
 31 27  1  0  0  0  0
 32 34  1  0  0  0  0
 34 33  1  1  0  0  0
 34 36  1  0  0  0  0
 36 37  1  0  0  0  0
 36 35  2  0  0  0  0
 38 40  1  0  0  0  0
 38 37  1  0  0  0  0
 40 39  1  0  0  0  0
 40 41  1  0  0  0  0
M  END
>  <MODEL>
4

>  <REMARK>
 VINA RESULT:      -5.9      3.148      7.526
  Name = 
  11 active torsions:
  status: ('A' for Active; 'I' for Inactive)
    1  A    between atoms: C_4  and  N_9
    2  A    between atoms: C_4  and  C_18
    3  A    between atoms: C_6  and  C_25
    4  A    between atoms: C_7  and  N_16
    5  A    between atoms: C_7  and  C_29
    6  A    between atoms: N_9  and  C_30
    7  A    between atoms: C_13  and  C_29
    8  A    between atoms: C_13  and  C_39
    9  A    between atoms: C_17  and  O_33
   10  A    between atoms: C_19  and  C_34
   11  A    between atoms: O_33  and  C_39
                            x       y       z     vdW  Elec       q    Type
                         _______ _______ _______ _____ _____    ______ ____

>  <TORSDO>
F 11

$$$$
=
 OpenBabel11052411223D

 41 44  0  0  1  0  0  0  0  0999 V2000
  161.7320  205.3300  147.5580 O   0  0  0  0  0  1  0  0  0  0  0  0
  161.6910  207.5220  148.5600 C   0  0  0  0  0  3  0  0  0  0  0  0
  161.4380  205.5500  149.9400 C   0  0  0  0  0  3  0  0  0  0  0  0
  161.3330  208.5210  152.0850 N   0  0  0  0  0  0  0  0  0  0  0  0
  161.1690  207.9760  153.3220 C   0  0  0  0  0  0  0  0  0  0  0  0
  161.4140  207.7620  150.9590 C   0  0  0  0  0  0  0  0  0  0  0  0
  161.0750  206.5910  153.4630 C   0  0  0  0  0  3  0  0  0  0  0  0
  161.6200  206.1320  148.6850 C   0  0  0  0  0  0  0  0  0  0  0  0
  161.5820  208.3530  149.6810 C   0  0  0  0  0  0  0  0  0  0  0  0
  161.3350  206.3560  151.0740 C   0  0  0  0  0  0  0  0  0  0  0  0
  161.1600  205.7780  152.3320 C   0  0  0  0  0  3  0  0  0  0  0  0
  161.6540  209.7710  149.4720 N   0  0  0  0  0  2  0  0  0  0  0  0
  162.2710  210.4190  148.3240 C   0  0  0  0  0  2  0  0  0  0  0  0
  160.8100  212.1880  149.0070 O   0  0  0  0  0  0  0  0  0  0  0  0
  161.4350  211.6050  147.8880 C   0  0  1  0  0  3  0  0  0  0  0  0
  162.3280  212.6280  147.2160 C   0  0  2  0  0  3  0  0  0  0  0  0
  163.3780  214.4510  148.2970 O   0  0  0  0  0  1  0  0  0  0  0  0
  162.1390  213.8760  148.0170 C   0  0  2  0  0  3  0  0  0  0  0  0
  161.5110  213.3740  149.2890 C   0  0  0  0  0  2  0  0  0  0  0  0
  160.0430  212.9940  144.0850 C   0  0  0  0  0  0  0  0  0  0  0  0
  158.8000  212.9550  143.8750 O   0  0  0  0  0  0  0  0  0  0  0  0
  161.9300  212.8330  145.7850 C   0  0  0  0  0  0  0  0  0  0  0  0
  162.8260  213.0180  144.9160 O   0  0  0  0  0  0  0  0  0  0  0  0
  159.6220  212.6760  146.4210 O   0  0  0  0  0  1  0  0  0  0  0  0
  160.5340  212.8300  145.4290 N   0  0  0  0  0  0  0  0  0  0  0  0
  161.6030  212.1880  140.8400 N   0  0  0  0  0  2  0  0  0  0  0  0
  161.1550  213.4740  140.4460 C   0  0  0  0  0  0  0  0  0  0  0  0
  160.9670  213.1750  142.9190 C   0  0  1  0  0  3  0  0  0  0  0  0
  161.2040  211.8550  142.1920 C   0  0  0  0  0  2  0  0  0  0  0  0
  161.7240  214.0840  139.4610 N   0  0  0  0  0  2  0  0  0  0  0  0
  160.3150  214.3900  141.7190 S   0  0  0  0  0  0  0  0  0  0  0  0
  161.0980  208.7910  154.4540 O   0  0  0  0  0  0  0  0  0  0  0  0
  161.7660  210.8280  155.5640 C   0  0  0  0  0  1  0  0  0  0  0  0
  161.0610  210.2140  154.3650 C   0  0  2  0  0  3  0  0  0  0  0  0
  159.1600  211.0570  153.2460 O   0  0  0  0  0  0  0  0  0  0  0  0
  159.6450  210.6890  154.3060 C   0  0  0  0  0  0  0  0  0  0  0  0
  158.8140  210.6740  155.5480 C   0  0  0  0  0  2  0  0  0  0  0  0
  157.3700  211.0600  155.2540 C   0  0  0  0  0  2  0  0  0  0  0  0
  157.9110  212.1390  157.2590 C   0  0  0  0  0  1  0  0  0  0  0  0
  156.8350  211.9050  156.3110 N   0  0  0  0  0  0  0  0  0  0  0  0
  156.5330  213.1880  155.7040 C   0  0  0  0  0  1  0  0  0  0  0  0
  1  8  1  0  0  0  0
  2  8  2  0  0  0  0
  2  9  1  0  0  0  0
  3 10  2  0  0  0  0
  4  5  2  0  0  0  0
  5  7  1  0  0  0  0
  5 32  1  0  0  0  0
  6 10  1  0  0  0  0
  6  4  1  0  0  0  0
  8  3  1  0  0  0  0
  9  6  2  0  0  0  0
 10 11  1  0  0  0  0
 11  7  2  0  0  0  0
 12  9  1  0  0  0  0
 13 12  1  0  0  0  0
 14 19  1  0  0  0  0
 15 13  1  1  0  0  0
 15 14  1  0  0  0  0
 16 22  1  6  0  0  0
 16 15  1  0  0  0  0
 16 18  1  0  0  0  0
 18 17  1  1  0  0  0
 18 19  1  0  0  0  0
 20 25  1  0  0  0  0
 21 20  2  0  0  0  0
 23 22  2  0  0  0  0
 25 22  1  0  0  0  0
 25 24  1  0  0  0  0
 26 29  1  0  0  0  0
 27 26  1  0  0  0  0
 27 31  1  0  0  0  0
 28 20  1  1  0  0  0
 29 28  1  0  0  0  0
 30 27  2  0  0  0  0
 31 28  1  0  0  0  0
 34 32  1  0  0  0  0
 34 33  1  1  0  0  0
 35 36  2  0  0  0  0
 36 34  1  0  0  0  0
 36 37  1  0  0  0  0
 38 37  1  0  0  0  0
 38 40  1  0  0  0  0
 40 39  1  0  0  0  0
 41 40  1  0  0  0  0
M  END
>  <MODEL>
5

>  <REMARK>
 VINA RESULT:      -5.9      4.900      9.943
  Name = 
  11 active torsions:
  status: ('A' for Active; 'I' for Inactive)
    1  A    between atoms: C_4  and  N_9
    2  A    between atoms: C_4  and  C_18
    3  A    between atoms: C_6  and  C_25
    4  A    between atoms: C_7  and  N_16
    5  A    between atoms: C_7  and  C_29
    6  A    between atoms: N_9  and  C_30
    7  A    between atoms: C_13  and  C_29
    8  A    between atoms: C_13  and  C_39
    9  A    between atoms: C_17  and  O_33
   10  A    between atoms: C_19  and  C_34
   11  A    between atoms: O_33  and  C_39
                            x       y       z     vdW  Elec       q    Type
                         _______ _______ _______ _____ _____    ______ ____

>  <TORSDO>
F 11

$$$$
=
 OpenBabel11052411223D

 41 44  0  0  1  0  0  0  0  0999 V2000
  160.0970  213.2170  156.4850 O   0  0  0  0  0  1  0  0  0  0  0  0
  159.9780  212.3760  154.2290 C   0  0  0  0  0  3  0  0  0  0  0  0
  160.5320  210.8870  156.0540 C   0  0  0  0  0  3  0  0  0  0  0  0
  160.4740  208.9670  152.9310 N   0  0  0  0  0  0  0  0  0  0  0  0
  160.7800  207.7120  153.3590 C   0  0  0  0  0  0  0  0  0  0  0  0
  160.3950  210.0280  153.7780 C   0  0  0  0  0  0  0  0  0  0  0  0
  161.0290  207.4820  154.7140 C   0  0  0  0  0  3  0  0  0  0  0  0
  160.2030  212.1610  155.5910 C   0  0  0  0  0  0  0  0  0  0  0  0
  160.0770  211.3270  153.3070 C   0  0  0  0  0  0  0  0  0  0  0  0
  160.6290  209.8220  155.1570 C   0  0  0  0  0  0  0  0  0  0  0  0
  160.9510  208.5440  155.6150 C   0  0  0  0  0  3  0  0  0  0  0  0
  159.8420  211.6280  151.9240 N   0  0  0  0  0  2  0  0  0  0  0  0
  160.5280  212.6600  151.1620 C   0  0  0  0  0  2  0  0  0  0  0  0
  160.0370  213.4610  148.9600 O   0  0  0  0  0  0  0  0  0  0  0  0
  160.4750  212.3350  149.6830 C   0  0  1  0  0  3  0  0  0  0  0  0
  161.8560  211.9320  149.2080 C   0  0  2  0  0  3  0  0  0  0  0  0
  163.4640  213.3970  148.2780 O   0  0  0  0  0  1  0  0  0  0  0  0
  162.1720  212.8990  148.1120 C   0  0  2  0  0  3  0  0  0  0  0  0
  161.1710  214.0010  148.3290 C   0  0  0  0  0  2  0  0  0  0  0  0
  162.3310  208.0680  149.2080 C   0  0  0  0  0  0  0  0  0  0  0  0
  162.7140  207.2140  150.0540 O   0  0  0  0  0  0  0  0  0  0  0  0
  161.8640  210.5200  148.7080 C   0  0  0  0  0  0  0  0  0  0  0  0
  161.5070  210.2830  147.5210 O   0  0  0  0  0  0  0  0  0  0  0  0
  162.5860  209.7730  150.8710 O   0  0  0  0  0  1  0  0  0  0  0  0
  162.2640  209.4550  149.5930 N   0  0  0  0  0  0  0  0  0  0  0  0
  162.3270  205.8110  146.2900 N   0  0  0  0  0  2  0  0  0  0  0  0
  160.9170  205.8400  146.4250 C   0  0  0  0  0  0  0  0  0  0  0  0
  161.9910  207.6110  147.8220 C   0  0  1  0  0  3  0  0  0  0  0  0
  162.9960  206.5810  147.3190 C   0  0  0  0  0  2  0  0  0  0  0  0
  160.1630  205.5530  145.4180 N   0  0  0  0  0  2  0  0  0  0  0  0
  160.3180  206.8780  147.7410 S   0  0  0  0  0  0  0  0  0  0  0  0
  160.8440  206.6480  152.4570 O   0  0  0  0  0  0  0  0  0  0  0  0
  162.9860  205.5480  152.2930 C   0  0  0  0  0  1  0  0  0  0  0  0
  161.5410  205.4400  152.7520 C   0  0  2  0  0  3  0  0  0  0  0  0
  160.7040  203.2330  152.6780 O   0  0  0  0  0  0  0  0  0  0  0  0
  160.8750  204.2840  152.0790 C   0  0  0  0  0  0  0  0  0  0  0  0
  160.3830  204.4370  150.6760 C   0  0  0  0  0  2  0  0  0  0  0  0
  161.2650  203.6780  149.6930 C   0  0  0  0  0  2  0  0  0  0  0  0
  161.1660  202.3260  147.7850 C   0  0  0  0  0  1  0  0  0  0  0  0
  160.5230  202.5980  149.0600 N   0  0  0  0  0  0  0  0  0  0  0  0
  160.7220  201.4200  149.8820 C   0  0  0  0  0  1  0  0  0  0  0  0
  2  8  1  0  0  0  0
  4  5  2  0  0  0  0
  4  6  1  0  0  0  0
  5  7  1  0  0  0  0
  6 10  2  0  0  0  0
  7 11  2  0  0  0  0
  8  3  2  0  0  0  0
  8  1  1  0  0  0  0
  9  6  1  0  0  0  0
  9  2  2  0  0  0  0
 10 11  1  0  0  0  0
 10  3  1  0  0  0  0
 12  9  1  0  0  0  0
 13 12  1  0  0  0  0
 14 15  1  0  0  0  0
 15 13  1  1  0  0  0
 16 22  1  6  0  0  0
 16 15  1  0  0  0  0
 18 17  1  1  0  0  0
 18 19  1  0  0  0  0
 18 16  1  0  0  0  0
 19 14  1  0  0  0  0
 20 25  1  0  0  0  0
 20 21  2  0  0  0  0
 22 25  1  0  0  0  0
 23 22  2  0  0  0  0
 25 24  1  0  0  0  0
 26 27  1  0  0  0  0
 26 29  1  0  0  0  0
 27 31  1  0  0  0  0
 28 20  1  1  0  0  0
 29 28  1  0  0  0  0
 30 27  2  0  0  0  0
 31 28  1  0  0  0  0
 32 34  1  0  0  0  0
 32  5  1  0  0  0  0
 34 33  1  6  0  0  0
 36 35  2  0  0  0  0
 36 34  1  0  0  0  0
 37 36  1  0  0  0  0
 38 37  1  0  0  0  0
 39 40  1  0  0  0  0
 40 38  1  0  0  0  0
 40 41  1  0  0  0  0
M  END
>  <MODEL>
6

>  <REMARK>
 VINA RESULT:      -5.7      3.211      7.411
  Name = 
  11 active torsions:
  status: ('A' for Active; 'I' for Inactive)
    1  A    between atoms: C_4  and  N_9
    2  A    between atoms: C_4  and  C_18
    3  A    between atoms: C_6  and  C_25
    4  A    between atoms: C_7  and  N_16
    5  A    between atoms: C_7  and  C_29
    6  A    between atoms: N_9  and  C_30
    7  A    between atoms: C_13  and  C_29
    8  A    between atoms: C_13  and  C_39
    9  A    between atoms: C_17  and  O_33
   10  A    between atoms: C_19  and  C_34
   11  A    between atoms: O_33  and  C_39
                            x       y       z     vdW  Elec       q    Type
                         _______ _______ _______ _____ _____    ______ ____

>  <TORSDO>
F 11

$$$$
=
 OpenBabel11052411223D

 41 44  0  0  1  0  0  0  0  0999 V2000
  162.1390  205.4920  145.2070 O   0  0  0  0  0  1  0  0  0  0  0  0
  162.1880  207.1550  146.9520 C   0  0  0  0  0  3  0  0  0  0  0  0
  161.5320  204.8800  147.4570 C   0  0  0  0  0  3  0  0  0  0  0  0
  161.4360  206.8570  150.5430 N   0  0  0  0  0  0  0  0  0  0  0  0
  161.0390  205.9350  151.4630 C   0  0  0  0  0  0  0  0  0  0  0  0
  161.5960  206.5530  149.2280 C   0  0  0  0  0  0  0  0  0  0  0  0
  160.7800  204.6230  151.0630 C   0  0  0  0  0  3  0  0  0  0  0  0
  161.9530  205.8410  146.5380 C   0  0  0  0  0  0  0  0  0  0  0  0
  162.0080  207.5310  148.2880 C   0  0  0  0  0  0  0  0  0  0  0  0
  161.3530  205.2290  148.7970 C   0  0  0  0  0  0  0  0  0  0  0  0
  160.9400  204.2700  149.7230 C   0  0  0  0  0  3  0  0  0  0  0  0
  162.2590  208.9010  148.6360 N   0  0  0  0  0  2  0  0  0  0  0  0
  161.6190  210.0530  148.0200 C   0  0  0  0  0  2  0  0  0  0  0  0
  163.1890  211.6140  148.9310 O   0  0  0  0  0  0  0  0  0  0  0  0
  161.8220  211.2820  148.8830 C   0  0  1  0  0  3  0  0  0  0  0  0
  161.0380  212.4400  148.3000 C   0  0  2  0  0  3  0  0  0  0  0  0
  161.8870  214.0350  146.7730 O   0  0  0  0  0  1  0  0  0  0  0  0
  162.0640  213.4980  148.0470 C   0  0  2  0  0  3  0  0  0  0  0  0
  163.3610  212.7360  148.1020 C   0  0  0  0  0  2  0  0  0  0  0  0
  157.5450  213.5210  149.6350 C   0  0  0  0  0  0  0  0  0  0  0  0
  156.3890  213.6210  149.1380 O   0  0  0  0  0  0  0  0  0  0  0  0
  159.9880  212.9170  149.2560 C   0  0  0  0  0  0  0  0  0  0  0  0
  160.3120  213.1840  150.4460 O   0  0  0  0  0  0  0  0  0  0  0  0
  158.3370  212.6970  147.5300 O   0  0  0  0  0  1  0  0  0  0  0  0
  158.6260  213.0490  148.8070 N   0  0  0  0  0  0  0  0  0  0  0  0
  156.5980  214.2790  153.1180 N   0  0  0  0  0  2  0  0  0  0  0  0
  157.5410  213.2780  153.4620 C   0  0  0  0  0  0  0  0  0  0  0  0
  157.7570  213.9310  151.0600 C   0  0  1  0  0  3  0  0  0  0  0  0
  156.4630  214.4410  151.6860 C   0  0  0  0  0  2  0  0  0  0  0  0
  158.0690  213.2620  154.6390 N   0  0  0  0  0  2  0  0  0  0  0  0
  158.3870  212.5480  152.0770 S   0  0  0  0  0  0  0  0  0  0  0  0
  160.8940  206.2870  152.8060 O   0  0  0  0  0  0  0  0  0  0  0  0
  161.9510  208.4570  152.8660 C   0  0  0  0  0  1  0  0  0  0  0  0
  160.7200  207.6390  153.2230 C   0  0  2  0  0  3  0  0  0  0  0  0
  160.5880  206.6900  155.3820 O   0  0  0  0  0  0  0  0  0  0  0  0
  160.4780  207.6960  154.6970 C   0  0  0  0  0  0  0  0  0  0  0  0
  160.1380  209.0050  155.3340 C   0  0  0  0  0  2  0  0  0  0  0  0
  161.1300  209.3610  156.4350 C   0  0  0  0  0  2  0  0  0  0  0  0
  163.0190  210.7040  156.1110 C   0  0  0  0  0  1  0  0  0  0  0  0
  161.5790  210.7380  156.3010 N   0  0  0  0  0  0  0  0  0  0  0  0
  161.0110  211.2420  155.0640 C   0  0  0  0  0  1  0  0  0  0  0  0
  1  8  1  0  0  0  0
  2  9  1  0  0  0  0
  3 10  2  0  0  0  0
  4  5  2  0  0  0  0
  5 32  1  0  0  0  0
  6  4  1  0  0  0  0
  7  5  1  0  0  0  0
  8  2  2  0  0  0  0
  8  3  1  0  0  0  0
  9 12  1  0  0  0  0
  9  6  2  0  0  0  0
 10  6  1  0  0  0  0
 10 11  1  0  0  0  0
 11  7  2  0  0  0  0
 13 12  1  0  0  0  0
 15 13  1  6  0  0  0
 15 14  1  0  0  0  0
 16 15  1  0  0  0  0
 16 22  1  1  0  0  0
 18 17  1  6  0  0  0
 18 19  1  0  0  0  0
 18 16  1  0  0  0  0
 19 14  1  0  0  0  0
 21 20  2  0  0  0  0
 22 23  2  0  0  0  0
 24 25  1  0  0  0  0
 25 22  1  0  0  0  0
 25 20  1  0  0  0  0
 26 27  1  0  0  0  0
 27 30  2  0  0  0  0
 28 20  1  6  0  0  0
 28 29  1  0  0  0  0
 28 31  1  0  0  0  0
 29 26  1  0  0  0  0
 31 27  1  0  0  0  0
 32 34  1  0  0  0  0
 34 33  1  1  0  0  0
 34 36  1  0  0  0  0
 36 37  1  0  0  0  0
 36 35  2  0  0  0  0
 37 38  1  0  0  0  0
 39 40  1  0  0  0  0
 40 38  1  0  0  0  0
 41 40  1  0  0  0  0
M  END
>  <MODEL>
7

>  <REMARK>
 VINA RESULT:      -5.6      2.747      6.846
  Name = 
  11 active torsions:
  status: ('A' for Active; 'I' for Inactive)
    1  A    between atoms: C_4  and  N_9
    2  A    between atoms: C_4  and  C_18
    3  A    between atoms: C_6  and  C_25
    4  A    between atoms: C_7  and  N_16
    5  A    between atoms: C_7  and  C_29
    6  A    between atoms: N_9  and  C_30
    7  A    between atoms: C_13  and  C_29
    8  A    between atoms: C_13  and  C_39
    9  A    between atoms: C_17  and  O_33
   10  A    between atoms: C_19  and  C_34
   11  A    between atoms: O_33  and  C_39
                            x       y       z     vdW  Elec       q    Type
                         _______ _______ _______ _____ _____    ______ ____

>  <TORSDO>
F 11

$$$$
=
 OpenBabel11052411223D

 41 44  0  0  1  0  0  0  0  0999 V2000
  162.1630  211.2950  150.4800 O   0  0  0  0  0  1  0  0  0  0  0  0
  161.5400  209.1250  151.3250 C   0  0  0  0  0  3  0  0  0  0  0  0
  161.9740  209.4310  148.9640 C   0  0  0  0  0  3  0  0  0  0  0  0
  161.1330  205.9150  149.5700 N   0  0  0  0  0  0  0  0  0  0  0  0
  161.2200  205.3790  148.3210 C   0  0  0  0  0  0  0  0  0  0  0  0
  161.3620  207.2330  149.8160 C   0  0  0  0  0  0  0  0  0  0  0  0
  161.5500  206.1950  147.2380 C   0  0  0  0  0  3  0  0  0  0  0  0
  161.8930  209.9520  150.2560 C   0  0  0  0  0  0  0  0  0  0  0  0
  161.2630  207.7680  151.1260 C   0  0  0  0  0  0  0  0  0  0  0  0
  161.7110  208.0790  148.7400 C   0  0  0  0  0  0  0  0  0  0  0  0
  161.7980  207.5510  147.4510 C   0  0  0  0  0  3  0  0  0  0  0  0
  160.8970  206.9840  152.2710 N   0  0  0  0  0  2  0  0  0  0  0  0
  161.4430  207.1510  153.6090 C   0  0  0  0  0  2  0  0  0  0  0  0
  160.0470  206.8170  155.5260 O   0  0  0  0  0  0  0  0  0  0  0  0
  160.3920  207.7460  154.5260 C   0  0  1  0  0  3  0  0  0  0  0  0
  160.9420  209.0030  155.1690 C   0  0  2  0  0  3  0  0  0  0  0  0
  162.0460  209.1010  157.2590 O   0  0  0  0  0  1  0  0  0  0  0  0
  160.8490  208.7430  156.6390 C   0  0  2  0  0  3  0  0  0  0  0  0
  160.6640  207.2520  156.7120 C   0  0  0  0  0  2  0  0  0  0  0  0
  159.6780  212.6850  155.1200 C   0  0  0  0  0  0  0  0  0  0  0  0
  159.9780  213.7420  155.7400 O   0  0  0  0  0  0  0  0  0  0  0  0
  160.1370  210.2050  154.7770 C   0  0  0  0  0  0  0  0  0  0  0  0
  159.2450  210.0890  153.8930 O   0  0  0  0  0  0  0  0  0  0  0  0
  161.4130  211.5400  156.3090 O   0  0  0  0  0  1  0  0  0  0  0  0
  160.4060  211.4740  155.4040 N   0  0  0  0  0  0  0  0  0  0  0  0
  156.5710  213.9290  153.5700 N   0  0  0  0  0  2  0  0  0  0  0  0
  157.3540  214.0600  152.3970 C   0  0  0  0  0  0  0  0  0  0  0  0
  158.5510  212.7210  154.1330 C   0  0  1  0  0  3  0  0  0  0  0  0
  157.3440  213.4600  154.7010 C   0  0  0  0  0  2  0  0  0  0  0  0
  156.7870  214.0850  151.2380 N   0  0  0  0  0  2  0  0  0  0  0  0
  159.0450  213.5300  152.5690 S   0  0  0  0  0  0  0  0  0  0  0  0
  160.9850  204.0190  148.1130 O   0  0  0  0  0  0  0  0  0  0  0  0
  161.4350  204.1150  145.7440 C   0  0  0  0  0  1  0  0  0  0  0  0
  161.5630  203.3050  147.0230 C   0  0  2  0  0  3  0  0  0  0  0  0
  160.6280  201.5520  145.7450 O   0  0  0  0  0  0  0  0  0  0  0  0
  160.8870  201.9810  146.8590 C   0  0  0  0  0  0  0  0  0  0  0  0
  160.5660  201.1670  148.0710 C   0  0  0  0  0  2  0  0  0  0  0  0
  161.5570  201.4330  149.1970 C   0  0  0  0  0  2  0  0  0  0  0  0
  161.3260  202.5500  151.2400 C   0  0  0  0  0  1  0  0  0  0  0  0
  160.8950  201.3810  150.4920 N   0  0  0  0  0  0  0  0  0  0  0  0
  159.4770  201.5520  150.2400 C   0  0  0  0  0  1  0  0  0  0  0  0
  3  8  1  0  0  0  0
  4  6  1  0  0  0  0
  5  4  2  0  0  0  0
  6  9  2  0  0  0  0
  7 11  2  0  0  0  0
  7  5  1  0  0  0  0
  8  1  1  0  0  0  0
  8  2  2  0  0  0  0
  9  2  1  0  0  0  0
  9 12  1  0  0  0  0
 10  3  2  0  0  0  0
 10  6  1  0  0  0  0
 11 10  1  0  0  0  0
 12 13  1  0  0  0  0
 14 19  1  0  0  0  0
 15 13  1  6  0  0  0
 15 16  1  0  0  0  0
 15 14  1  0  0  0  0
 16 22  1  1  0  0  0
 16 18  1  0  0  0  0
 18 19  1  0  0  0  0
 18 17  1  1  0  0  0
 20 25  1  0  0  0  0
 20 21  2  0  0  0  0
 22 25  1  0  0  0  0
 23 22  2  0  0  0  0
 25 24  1  0  0  0  0
 26 29  1  0  0  0  0
 27 31  1  0  0  0  0
 27 26  1  0  0  0  0
 28 29  1  0  0  0  0
 28 20  1  1  0  0  0
 30 27  2  0  0  0  0
 31 28  1  0  0  0  0
 32  5  1  0  0  0  0
 34 33  1  6  0  0  0
 34 32  1  0  0  0  0
 35 36  2  0  0  0  0
 36 34  1  0  0  0  0
 36 37  1  0  0  0  0
 37 38  1  0  0  0  0
 38 40  1  0  0  0  0
 40 39  1  0  0  0  0
 41 40  1  0  0  0  0
M  END
>  <MODEL>
8

>  <REMARK>
 VINA RESULT:      -5.6      1.954      2.837
  Name = 
  11 active torsions:
  status: ('A' for Active; 'I' for Inactive)
    1  A    between atoms: C_4  and  N_9
    2  A    between atoms: C_4  and  C_18
    3  A    between atoms: C_6  and  C_25
    4  A    between atoms: C_7  and  N_16
    5  A    between atoms: C_7  and  C_29
    6  A    between atoms: N_9  and  C_30
    7  A    between atoms: C_13  and  C_29
    8  A    between atoms: C_13  and  C_39
    9  A    between atoms: C_17  and  O_33
   10  A    between atoms: C_19  and  C_34
   11  A    between atoms: O_33  and  C_39
                            x       y       z     vdW  Elec       q    Type
                         _______ _______ _______ _____ _____    ______ ____

>  <TORSDO>
F 11

$$$$
=
 OpenBabel11052411223D

 41 44  0  0  1  0  0  0  0  0999 V2000
  160.6050  207.4580  156.4870 O   0  0  0  0  0  1  0  0  0  0  0  0
  160.7150  208.0470  154.1520 C   0  0  0  0  0  3  0  0  0  0  0  0
  160.1360  209.7200  155.8020 C   0  0  0  0  0  3  0  0  0  0  0  0
  160.1690  211.2830  152.4860 N   0  0  0  0  0  0  0  0  0  0  0  0
  159.8440  212.5740  152.7730 C   0  0  0  0  0  0  0  0  0  0  0  0
  160.2630  210.3240  153.4450 C   0  0  0  0  0  0  0  0  0  0  0  0
  159.5900  212.9480  154.0940 C   0  0  0  0  0  3  0  0  0  0  0  0
  160.4850  208.4080  155.4820 C   0  0  0  0  0  0  0  0  0  0  0  0
  160.6010  208.9860  153.1200 C   0  0  0  0  0  0  0  0  0  0  0  0
  160.0240  210.6770  154.7920 C   0  0  0  0  0  0  0  0  0  0  0  0
  159.6830  211.9930  155.1070 C   0  0  0  0  0  3  0  0  0  0  0  0
  160.8430  208.5370  151.7780 N   0  0  0  0  0  2  0  0  0  0  0  0
  162.1360  208.5430  151.1130 C   0  0  0  0  0  2  0  0  0  0  0  0
  163.3860  206.6000  151.7430 O   0  0  0  0  0  0  0  0  0  0  0  0
  162.5380  207.1270  150.7500 C   0  0  1  0  0  3  0  0  0  0  0  0
  161.2960  206.2670  150.6350 C   0  0  2  0  0  3  0  0  0  0  0  0
  160.3570  204.9780  152.3820 O   0  0  0  0  0  1  0  0  0  0  0  0
  161.5110  205.1640  151.6220 C   0  0  2  0  0  3  0  0  0  0  0  0
  162.6150  205.6960  152.4940 C   0  0  0  0  0  2  0  0  0  0  0  0
  161.8250  205.8770  146.7980 C   0  0  0  0  0  0  0  0  0  0  0  0
  162.5350  206.4550  145.9300 O   0  0  0  0  0  0  0  0  0  0  0  0
  161.1390  205.7310  149.2440 C   0  0  0  0  0  0  0  0  0  0  0  0
  160.3360  204.7800  149.0360 O   0  0  0  0  0  0  0  0  0  0  0  0
  162.7970  207.2850  148.4740 O   0  0  0  0  0  1  0  0  0  0  0  0
  161.9160  206.3000  148.1720 N   0  0  0  0  0  0  0  0  0  0  0  0
  160.0790  203.6640  144.4180 N   0  0  0  0  0  2  0  0  0  0  0  0
  160.6480  202.6090  145.1740 C   0  0  0  0  0  0  0  0  0  0  0  0
  160.8870  204.7940  146.3600 C   0  0  1  0  0  3  0  0  0  0  0  0
  160.4860  204.9690  144.8990 C   0  0  0  0  0  2  0  0  0  0  0  0
  160.1150  201.4340  145.1490 N   0  0  0  0  0  2  0  0  0  0  0  0
  161.6240  203.1340  146.5660 S   0  0  0  0  0  0  0  0  0  0  0  0
  159.7650  213.5300  151.7590 O   0  0  0  0  0  0  0  0  0  0  0  0
  157.3980  213.0590  151.7290 C   0  0  0  0  0  1  0  0  0  0  0  0
  158.5280  213.8960  151.1520 C   0  0  2  0  0  3  0  0  0  0  0  0
  157.6180  213.3480  149.0420 O   0  0  0  0  0  0  0  0  0  0  0  0
  158.6040  213.7010  149.6710 C   0  0  0  0  0  0  0  0  0  0  0  0
  159.8890  213.9800  148.9600 C   0  0  0  0  0  2  0  0  0  0  0  0
  160.1270  212.9830  147.8340 C   0  0  0  0  0  2  0  0  0  0  0  0
  162.2460  213.9330  148.1200 C   0  0  0  0  0  1  0  0  0  0  0  0
  161.5500  212.7520  147.6390 N   0  0  0  0  0  0  0  0  0  0  0  0
  161.9200  211.6650  148.5260 C   0  0  0  0  0  1  0  0  0  0  0  0
  2  8  1  0  0  0  0
  4  5  2  0  0  0  0
  4  6  1  0  0  0  0
  5  7  1  0  0  0  0
  6 10  2  0  0  0  0
  7 11  2  0  0  0  0
  8  3  2  0  0  0  0
  8  1  1  0  0  0  0
  9  6  1  0  0  0  0
  9  2  2  0  0  0  0
 10 11  1  0  0  0  0
 10  3  1  0  0  0  0
 12  9  1  0  0  0  0
 13 12  1  0  0  0  0
 14 19  1  0  0  0  0
 15 13  1  1  0  0  0
 15 14  1  0  0  0  0
 16 22  1  6  0  0  0
 16 15  1  0  0  0  0
 16 18  1  0  0  0  0
 18 17  1  1  0  0  0
 18 19  1  0  0  0  0
 20 25  1  0  0  0  0
 21 20  2  0  0  0  0
 23 22  2  0  0  0  0
 25 24  1  0  0  0  0
 25 22  1  0  0  0  0
 26 29  1  0  0  0  0
 26 27  1  0  0  0  0
 27 31  1  0  0  0  0
 28 31  1  0  0  0  0
 28 20  1  6  0  0  0
 29 28  1  0  0  0  0
 30 27  2  0  0  0  0
 32  5  1  0  0  0  0
 34 33  1  1  0  0  0
 34 32  1  0  0  0  0
 35 36  2  0  0  0  0
 36 34  1  0  0  0  0
 37 36  1  0  0  0  0
 38 37  1  0  0  0  0
 40 38  1  0  0  0  0
 40 39  1  0  0  0  0
 40 41  1  0  0  0  0
M  END
>  <MODEL>
9

>  <REMARK>
 VINA RESULT:      -5.4      3.463      9.765
  Name = 
  11 active torsions:
  status: ('A' for Active; 'I' for Inactive)
    1  A    between atoms: C_4  and  N_9
    2  A    between atoms: C_4  and  C_18
    3  A    between atoms: C_6  and  C_25
    4  A    between atoms: C_7  and  N_16
    5  A    between atoms: C_7  and  C_29
    6  A    between atoms: N_9  and  C_30
    7  A    between atoms: C_13  and  C_29
    8  A    between atoms: C_13  and  C_39
    9  A    between atoms: C_17  and  O_33
   10  A    between atoms: C_19  and  C_34
   11  A    between atoms: O_33  and  C_39
                            x       y       z     vdW  Elec       q    Type
                         _______ _______ _______ _____ _____    ______ ____

>  <TORSDO>
F 11

$$$$
