=
 OpenBabel11042420093D

 30 34  0  0  1  0  0  0  0  0999 V2000
  162.0540  211.2170  156.3750 O   0  0  0  0  0  1  0  0  0  0  0  0
  161.5540  210.9390  155.1030 C   0  0  2  0  0  0  0  0  0  0  0  0
  160.1840  209.3620  154.1570 C   0  0  1  0  0  3  0  0  0  0  0  0
  160.7200  211.9160  154.6340 O   0  0  0  0  0  0  0  0  0  0  0  0
  160.0770  210.6800  154.9920 C   0  0  2  0  0  0  0  0  0  0  0  0
  162.4370  210.3310  154.0520 C   0  0  0  0  0  2  0  0  0  0  0  0
  159.2310  210.4120  153.7080 C   0  0  1  0  0  3  0  0  0  0  0  0
  161.5710  209.2360  153.4910 C   0  0  2  0  0  3  0  0  0  0  0  0
  161.2730  207.9290  149.8770 C   0  0  0  0  0  0  0  0  0  0  0  0
  160.9380  207.9950  151.3470 C   0  0  0  0  0  0  0  0  0  0  0  0
  161.4430  204.3040  152.0070 N   0  0  0  0  0  1  0  0  0  0  0  0
  161.9560  210.2910  151.2220 C   0  0  0  0  0  3  0  0  0  0  0  0
  162.0110  210.2040  149.8930 C   0  0  0  0  0  0  0  0  0  0  0  0
  161.0710  205.5440  149.8990 N   0  0  0  0  0  0  0  0  0  0  0  0
  161.1000  206.6400  149.1960 C   0  0  0  0  0  2  0  0  0  0  0  0
  161.7140  208.9650  149.2330 N   0  0  0  0  0  0  0  0  0  0  0  0
  161.2400  205.5380  151.3290 C   0  0  0  0  0  0  0  0  0  0  0  0
  161.5380  209.1640  152.0180 N   0  0  0  0  0  0  0  0  0  0  0  0
  161.2480  206.6840  152.0250 C   0  0  0  0  0  3  0  0  0  0  0  0
  162.4920  211.3680  149.0940 C   0  0  0  0  0  2  0  0  0  0  0  0
  161.5920  211.6280  147.9310 C   0  0  0  0  0  3  0  0  0  0  0  0
  161.4270  212.8220  147.4940 N   0  0  0  0  0  2  0  0  0  0  0  0
  159.6870  211.1010  152.5450 O   0  0  0  0  0  0  0  0  0  0  0  0
  158.0110  212.6570  152.6680 O   0  0  0  0  0  0  0  0  0  0  0  0
  159.5260  212.9320  150.9140 N   0  0  0  0  0  2  0  0  0  0  0  0
  159.0370  212.2410  152.0690 C   0  0  0  0  0  0  0  0  0  0  0  0
  158.8520  214.1030  150.3730 C   0  0  0  0  0  2  0  0  0  0  0  0
  158.3250  213.8010  148.9790 C   0  0  0  0  0  2  0  0  0  0  0  0
  156.9570  213.1410  149.0510 C   0  0  0  0  0  2  0  0  0  0  0  0
  156.0370  213.9790  149.8040 N   0  0  0  0  0  1  0  0  0  0  0  0
  2  1  1  1  0  0  0
  3  5  1  0  0  0  0
  4  5  1  0  0  0  0
  4  2  1  0  0  0  0
  5  2  1  0  0  0  0
  6  2  1  0  0  0  0
  7  3  1  0  0  0  0
  7  5  1  0  0  0  0
  8  6  1  0  0  0  0
  8  3  1  0  0  0  0
  9 10  1  0  0  0  0
 10 18  1  0  0  0  0
 10 19  2  0  0  0  0
 12 18  1  0  0  0  0
 13 12  2  0  0  0  0
 14 17  2  0  0  0  0
 15  9  1  0  0  0  0
 15 14  1  0  0  0  0
 16  9  2  0  0  0  0
 16 13  1  0  0  0  0
 17 11  1  0  0  0  0
 17 19  1  0  0  0  0
 18  8  1  0  0  0  0
 20 13  1  0  0  0  0
 21 20  1  0  0  0  0
 22 21  2  0  0  0  0
 23  7  1  0  0  0  0
 25 26  1  0  0  0  0
 26 23  1  0  0  0  0
 26 24  2  0  0  0  0
 27 25  1  0  0  0  0
 28 29  1  0  0  0  0
 28 27  1  0  0  0  0
 29 30  1  0  0  0  0
M  END
>  <MODEL>
1

>  <REMARK>
 VINA RESULT:      -5.2      0.000      0.000
  Name = 
  8 active torsions:
  status: ('A' for Active; 'I' for Inactive)
    1  A    between atoms: C_6  and  C_12
    2  A    between atoms: C_6  and  C_23
    3  A    between atoms: C_8  and  C_27
    4  A    between atoms: N_11  and  C_16
    5  A    between atoms: O_13  and  C_15
    6  A    between atoms: O_13  and  C_24
    7  A    between atoms: C_16  and  C_27
    8  A    between atoms: N_25  and  C_26
                            x       y       z     vdW  Elec       q    Type
                         _______ _______ _______ _____ _____    ______ ____

>  <TORSDO>
F 8

$$$$
=
 OpenBabel11042420093D

 30 34  0  0  1  0  0  0  0  0999 V2000
  162.2290  211.0980  156.2580 O   0  0  0  0  0  1  0  0  0  0  0  0
  161.7000  210.8310  154.9940 C   0  0  2  0  0  0  0  0  0  0  0  0
  160.3220  209.2530  154.0610 C   0  0  1  0  0  3  0  0  0  0  0  0
  160.8470  211.8060  154.5580 O   0  0  0  0  0  0  0  0  0  0  0  0
  160.2240  210.5590  154.9150 C   0  0  2  0  0  0  0  0  0  0  0  0
  162.5630  210.2440  153.9150 C   0  0  0  0  0  2  0  0  0  0  0  0
  159.3490  210.3010  153.6480 C   0  0  1  0  0  3  0  0  0  0  0  0
  161.6940  209.1490  153.3610 C   0  0  2  0  0  3  0  0  0  0  0  0
  161.2850  207.8930  149.7400 C   0  0  0  0  0  0  0  0  0  0  0  0
  160.9850  207.9490  151.2170 C   0  0  0  0  0  0  0  0  0  0  0  0
  161.4180  204.2390  151.8240 N   0  0  0  0  0  1  0  0  0  0  0  0
  162.0530  210.2220  151.0950 C   0  0  0  0  0  3  0  0  0  0  0  0
  162.0760  210.1500  149.7650 C   0  0  0  0  0  0  0  0  0  0  0  0
  161.0290  205.5130  149.7380 N   0  0  0  0  0  0  0  0  0  0  0  0
  161.0670  206.6160  149.0480 C   0  0  0  0  0  2  0  0  0  0  0  0
  161.7360  208.9260  149.0970 N   0  0  0  0  0  0  0  0  0  0  0  0
  161.2290  205.4860  151.1640 C   0  0  0  0  0  0  0  0  0  0  0  0
  161.6270  209.0960  151.8880 N   0  0  0  0  0  0  0  0  0  0  0  0
  161.2790  206.6230  151.8730 C   0  0  0  0  0  3  0  0  0  0  0  0
  162.5660  211.3120  148.9680 C   0  0  0  0  0  2  0  0  0  0  0  0
  161.4260  212.1330  148.4620 C   0  0  0  0  0  3  0  0  0  0  0  0
  161.1960  212.2160  147.2040 N   0  0  0  0  0  2  0  0  0  0  0  0
  159.7720  211.0080  152.4840 O   0  0  0  0  0  0  0  0  0  0  0  0
  159.8370  212.9940  151.3430 O   0  0  0  0  0  0  0  0  0  0  0  0
  157.9480  212.6440  152.6690 N   0  0  0  0  0  2  0  0  0  0  0  0
  159.2130  212.2390  152.1350 C   0  0  0  0  0  0  0  0  0  0  0  0
  157.3540  213.9350  152.3520 C   0  0  0  0  0  2  0  0  0  0  0  0
  156.4420  214.3790  153.4840 C   0  0  0  0  0  2  0  0  0  0  0  0
  156.8630  213.7380  154.7980 C   0  0  0  0  0  2  0  0  0  0  0  0
  155.7600  212.9700  155.3550 N   0  0  0  0  0  1  0  0  0  0  0  0
  2  1  1  1  0  0  0
  3  5  1  0  0  0  0
  4  5  1  0  0  0  0
  4  2  1  0  0  0  0
  5  2  1  0  0  0  0
  6  2  1  0  0  0  0
  7  3  1  0  0  0  0
  7  5  1  0  0  0  0
  8  6  1  0  0  0  0
  8  3  1  0  0  0  0
  9 10  1  0  0  0  0
 10 19  2  0  0  0  0
 10 18  1  0  0  0  0
 12 18  1  0  0  0  0
 13 12  2  0  0  0  0
 14 17  2  0  0  0  0
 15 14  1  0  0  0  0
 15  9  1  0  0  0  0
 16  9  2  0  0  0  0
 16 13  1  0  0  0  0
 17 11  1  0  0  0  0
 17 19  1  0  0  0  0
 18  8  1  0  0  0  0
 20 13  1  0  0  0  0
 21 20  1  0  0  0  0
 22 21  2  0  0  0  0
 23  7  1  0  0  0  0
 24 26  2  0  0  0  0
 26 23  1  0  0  0  0
 26 25  1  0  0  0  0
 27 25  1  0  0  0  0
 27 28  1  0  0  0  0
 28 29  1  0  0  0  0
 29 30  1  0  0  0  0
M  END
>  <MODEL>
2

>  <REMARK>
 VINA RESULT:      -4.8      1.611      1.900
  Name = 
  8 active torsions:
  status: ('A' for Active; 'I' for Inactive)
    1  A    between atoms: C_6  and  C_12
    2  A    between atoms: C_6  and  C_23
    3  A    between atoms: C_8  and  C_27
    4  A    between atoms: N_11  and  C_16
    5  A    between atoms: O_13  and  C_15
    6  A    between atoms: O_13  and  C_24
    7  A    between atoms: C_16  and  C_27
    8  A    between atoms: N_25  and  C_26
                            x       y       z     vdW  Elec       q    Type
                         _______ _______ _______ _____ _____    ______ ____

>  <TORSDO>
F 8

$$$$
=
 OpenBabel11042420093D

 30 34  0  0  1  0  0  0  0  0999 V2000
  163.5210  204.7030  145.6490 O   0  0  0  0  0  1  0  0  0  0  0  0
  162.8280  205.1860  146.7600 C   0  0  2  0  0  0  0  0  0  0  0  0
  161.1060  206.6510  147.1430 C   0  0  1  0  0  3  0  0  0  0  0  0
  162.1200  204.2140  147.4080 O   0  0  0  0  0  0  0  0  0  0  0  0
  161.3260  205.1720  146.6860 C   0  0  2  0  0  0  0  0  0  0  0  0
  163.4600  206.1960  147.6720 C   0  0  0  0  0  2  0  0  0  0  0  0
  160.2960  205.5800  147.7850 C   0  0  1  0  0  3  0  0  0  0  0  0
  162.3590  207.2060  147.8530 C   0  0  2  0  0  3  0  0  0  0  0  0
  161.6810  209.3630  150.9760 C   0  0  0  0  0  0  0  0  0  0  0  0
  161.5430  208.9570  149.5290 C   0  0  2  0  0  3  0  0  0  0  0  0
  162.4240  212.3510  148.1080 N   0  0  0  0  0  1  0  0  0  0  0  0
  162.3490  206.7170  150.3380 C   0  0  0  0  0  3  0  0  0  0  0  0
  162.2310  207.1210  151.6030 C   0  0  0  0  0  0  0  0  0  0  0  0
  161.6740  211.6780  150.3680 N   0  0  0  0  0  0  0  0  0  0  0  0
  161.5200  210.7850  151.3030 C   0  0  0  0  0  3  0  0  0  0  0  0
  161.9470  208.4950  151.9030 N   0  0  0  0  0  0  0  0  0  0  0  0
  162.0340  211.3290  149.0180 C   0  0  0  0  0  0  0  0  0  0  0  0
  162.1340  207.6340  149.2480 N   0  0  0  0  0  0  0  0  0  0  0  0
  162.0450  210.0490  148.6180 C   0  0  0  0  0  3  0  0  0  0  0  0
  162.5050  206.1660  152.7150 C   0  0  0  0  0  2  0  0  0  0  0  0
  161.2690  205.8970  153.5080 C   0  0  0  0  0  3  0  0  0  0  0  0
  160.9340  206.6770  154.4690 N   0  0  0  0  0  2  0  0  0  0  0  0
  160.7150  205.3050  149.1210 O   0  0  0  0  0  0  0  0  0  0  0  0
  160.3900  203.9730  150.9560 O   0  0  0  0  0  0  0  0  0  0  0  0
  160.4500  202.8730  148.8980 N   0  0  0  0  0  2  0  0  0  0  0  0
  160.5140  204.0540  149.7050 C   0  0  0  0  0  0  0  0  0  0  0  0
  160.2750  201.5500  149.4800 C   0  0  0  0  0  2  0  0  0  0  0  0
  161.1690  200.5470  148.7670 C   0  0  0  0  0  2  0  0  0  0  0  0
  161.1650  200.7930  147.2660 C   0  0  0  0  0  2  0  0  0  0  0  0
  161.5220  199.5740  146.5590 N   0  0  0  0  0  1  0  0  0  0  0  0
  2  1  1  6  0  0  0
  2  4  1  0  0  0  0
  2  6  1  0  0  0  0
  3  7  1  0  0  0  0
  3  8  1  0  0  0  0
  5  2  1  0  0  0  0
  5  3  1  0  0  0  0
  5  4  1  0  0  0  0
  5  7  1  0  0  0  0
  6  8  1  0  0  0  0
  7 23  1  0  0  0  0
  8 18  1  0  0  0  0
  9 15  1  0  0  0  0
  9 16  2  0  0  0  0
 10  9  1  0  0  0  0
 11 17  1  0  0  0  0
 12 13  2  0  0  0  0
 13 16  1  0  0  0  0
 13 20  1  0  0  0  0
 14 15  2  0  0  0  0
 17 14  1  0  0  0  0
 18 10  1  0  0  0  0
 18 12  1  0  0  0  0
 19 17  2  0  0  0  0
 19 10  1  0  0  0  0
 20 21  1  0  0  0  0
 21 22  2  0  0  0  0
 23 26  1  0  0  0  0
 25 27  1  0  0  0  0
 25 26  1  0  0  0  0
 26 24  2  0  0  0  0
 28 27  1  0  0  0  0
 29 28  1  0  0  0  0
 30 29  1  0  0  0  0
M  END
>  <MODEL>
3

>  <REMARK>
 VINA RESULT:      -3.8      4.121      8.592
  Name = 
  8 active torsions:
  status: ('A' for Active; 'I' for Inactive)
    1  A    between atoms: C_6  and  C_12
    2  A    between atoms: C_6  and  C_23
    3  A    between atoms: C_8  and  C_27
    4  A    between atoms: N_11  and  C_16
    5  A    between atoms: O_13  and  C_15
    6  A    between atoms: O_13  and  C_24
    7  A    between atoms: C_16  and  C_27
    8  A    between atoms: N_25  and  C_26
                            x       y       z     vdW  Elec       q    Type
                         _______ _______ _______ _____ _____    ______ ____

>  <TORSDO>
F 8

$$$$
=
 OpenBabel11042420093D

 30 34  0  0  1  0  0  0  0  0999 V2000
  160.5430  203.4590  152.9920 O   0  0  0  0  0  1  0  0  0  0  0  0
  160.8870  204.6100  152.2830 C   0  0  2  0  0  0  0  0  0  0  0  0
  162.8230  205.6710  151.6630 C   0  0  1  0  0  3  0  0  0  0  0  0
  160.5200  204.5540  150.9680 O   0  0  0  0  0  0  0  0  0  0  0  0
  161.9340  204.4660  151.2140 C   0  0  2  0  0  0  0  0  0  0  0  0
  160.7270  205.9660  152.9070 C   0  0  0  0  0  2  0  0  0  0  0  0
  162.4670  205.5480  150.2230 C   0  0  1  0  0  3  0  0  0  0  0  0
  162.0350  206.6330  152.5770 C   0  0  2  0  0  3  0  0  0  0  0  0
  161.2860  210.4040  152.2890 C   0  0  0  0  0  0  0  0  0  0  0  0
  161.7050  209.1350  152.9900 C   0  0  2  0  0  3  0  0  0  0  0  0
  159.2650  209.4760  155.8620 N   0  0  0  0  0  1  0  0  0  0  0  0
  162.1460  208.2890  150.6630 C   0  0  0  0  0  3  0  0  0  0  0  0
  161.9560  209.5140  150.1720 C   0  0  0  0  0  0  0  0  0  0  0  0
  160.1160  211.1420  154.2420 N   0  0  0  0  0  0  0  0  0  0  0  0
  160.6560  211.4540  153.0990 C   0  0  0  0  0  3  0  0  0  0  0  0
  161.4580  210.5650  151.0130 N   0  0  0  0  0  0  0  0  0  0  0  0
  160.0760  209.7900  154.7350 C   0  0  0  0  0  0  0  0  0  0  0  0
  161.9150  208.0100  152.0590 N   0  0  0  0  0  0  0  0  0  0  0  0
  160.7630  208.8140  154.1230 C   0  0  0  0  0  3  0  0  0  0  0  0
  162.1550  209.7670  148.7170 C   0  0  0  0  0  2  0  0  0  0  0  0
  161.9470  211.2090  148.3910 C   0  0  0  0  0  3  0  0  0  0  0  0
  162.9260  211.9280  147.9790 N   0  0  0  0  0  2  0  0  0  0  0  0
  161.4940  206.5090  149.8170 O   0  0  0  0  0  0  0  0  0  0  0  0
  159.6540  206.5720  148.4550 O   0  0  0  0  0  0  0  0  0  0  0  0
  161.7060  206.2870  147.3800 N   0  0  0  0  0  2  0  0  0  0  0  0
  160.9040  206.4610  148.5530 C   0  0  0  0  0  0  0  0  0  0  0  0
  161.1190  206.2000  146.0510 C   0  0  0  0  0  2  0  0  0  0  0  0
  161.7350  205.0390  145.2860 C   0  0  0  0  0  2  0  0  0  0  0  0
  161.5760  203.7390  146.0590 C   0  0  0  0  0  2  0  0  0  0  0  0
  160.8300  202.7740  145.2670 N   0  0  0  0  0  1  0  0  0  0  0  0
  2  6  1  0  0  0  0
  2  1  1  1  0  0  0
  3  8  1  0  0  0  0
  4  5  1  0  0  0  0
  4  2  1  0  0  0  0
  5  3  1  0  0  0  0
  5  2  1  0  0  0  0
  7  5  1  0  0  0  0
  7  3  1  0  0  0  0
  8  6  1  0  0  0  0
  9 10  1  0  0  0  0
  9 15  1  0  0  0  0
 10 19  1  0  0  0  0
 12 18  1  0  0  0  0
 13 12  2  0  0  0  0
 13 16  1  0  0  0  0
 14 17  1  0  0  0  0
 15 14  2  0  0  0  0
 16  9  2  0  0  0  0
 17 11  1  0  0  0  0
 18  8  1  0  0  0  0
 18 10  1  0  0  0  0
 19 17  2  0  0  0  0
 20 13  1  0  0  0  0
 21 20  1  0  0  0  0
 22 21  2  0  0  0  0
 23  7  1  0  0  0  0
 24 26  2  0  0  0  0
 25 26  1  0  0  0  0
 26 23  1  0  0  0  0
 27 25  1  0  0  0  0
 28 27  1  0  0  0  0
 28 29  1  0  0  0  0
 30 29  1  0  0  0  0
M  END
>  <MODEL>
4

>  <REMARK>
 VINA RESULT:      -2.8      3.575      6.425
  Name = 
  8 active torsions:
  status: ('A' for Active; 'I' for Inactive)
    1  A    between atoms: C_6  and  C_12
    2  A    between atoms: C_6  and  C_23
    3  A    between atoms: C_8  and  C_27
    4  A    between atoms: N_11  and  C_16
    5  A    between atoms: O_13  and  C_15
    6  A    between atoms: O_13  and  C_24
    7  A    between atoms: C_16  and  C_27
    8  A    between atoms: N_25  and  C_26
                            x       y       z     vdW  Elec       q    Type
                         _______ _______ _______ _____ _____    ______ ____

>  <TORSDO>
F 8

$$$$
=
 OpenBabel11042420093D

 30 34  0  0  1  0  0  0  0  0999 V2000
  161.4000  206.5250  149.6800 O   0  0  0  0  0  1  0  0  0  0  0  0
  161.3180  207.8100  150.2160 C   0  0  2  0  0  0  0  0  0  0  0  0
  162.6410  209.1660  151.5090 C   0  0  1  0  0  3  0  0  0  0  0  0
  161.2870  208.7850  149.2590 O   0  0  0  0  0  0  0  0  0  0  0  0
  162.5060  208.7100  150.0190 C   0  0  2  0  0  0  0  0  0  0  0  0
  160.4390  208.0870  151.4010 C   0  0  0  0  0  2  0  0  0  0  0  0
  162.6760  210.2030  150.4420 C   0  0  1  0  0  3  0  0  0  0  0  0
  161.3370  208.9020  152.2910 C   0  0  2  0  0  3  0  0  0  0  0  0
  160.4100  211.7870  154.6740 C   0  0  0  0  0  0  0  0  0  0  0  0
  161.3290  210.7840  154.0230 C   0  0  2  0  0  3  0  0  0  0  0  0
  162.6370  209.3240  157.2590 N   0  0  0  0  0  1  0  0  0  0  0  0
  159.5800  210.7250  152.2170 C   0  0  0  0  0  3  0  0  0  0  0  0
  158.9570  211.7640  152.7740 C   0  0  0  0  0  0  0  0  0  0  0  0
  161.4910  211.4650  156.7860 N   0  0  0  0  0  0  0  0  0  0  0  0
  160.7260  212.2130  156.0430 C   0  0  0  0  0  3  0  0  0  0  0  0
  159.3640  212.2500  154.0610 N   0  0  0  0  0  0  0  0  0  0  0  0
  162.0160  210.2040  156.3290 C   0  0  0  0  0  0  0  0  0  0  0  0
  160.7120  210.1100  152.8650 N   0  0  0  0  0  0  0  0  0  0  0  0
  161.8930  209.8310  155.0470 C   0  0  0  0  0  3  0  0  0  0  0  0
  157.7600  212.3530  152.1080 C   0  0  0  0  0  2  0  0  0  0  0  0
  157.9230  213.8250  151.9190 C   0  0  0  0  0  3  0  0  0  0  0  0
  157.7830  214.3480  150.7570 N   0  0  0  0  0  2  0  0  0  0  0  0
  161.4750  210.9730  150.3890 O   0  0  0  0  0  0  0  0  0  0  0  0
  160.6420  213.0110  149.7610 O   0  0  0  0  0  0  0  0  0  0  0  0
  161.8510  211.8610  148.1300 N   0  0  0  0  0  2  0  0  0  0  0  0
  161.2980  211.9840  149.4450 C   0  0  0  0  0  0  0  0  0  0  0  0
  161.6550  212.8820  147.1110 C   0  0  0  0  0  2  0  0  0  0  0  0
  160.3100  212.6850  146.4300 C   0  0  0  0  0  2  0  0  0  0  0  0
  160.3320  213.2560  145.0200 C   0  0  0  0  0  2  0  0  0  0  0  0
  160.2230  212.1820  144.0450 N   0  0  0  0  0  1  0  0  0  0  0  0
  2  1  1  6  0  0  0
  2  6  1  0  0  0  0
  3  8  1  0  0  0  0
  4  5  1  0  0  0  0
  4  2  1  0  0  0  0
  5  2  1  0  0  0  0
  5  7  1  0  0  0  0
  5  3  1  0  0  0  0
  6  8  1  0  0  0  0
  7  3  1  0  0  0  0
  8 18  1  0  0  0  0
  9 15  1  0  0  0  0
 10  9  1  0  0  0  0
 10 19  1  0  0  0  0
 12 13  2  0  0  0  0
 12 18  1  0  0  0  0
 13 16  1  0  0  0  0
 15 14  2  0  0  0  0
 16  9  2  0  0  0  0
 17 14  1  0  0  0  0
 17 11  1  0  0  0  0
 18 10  1  0  0  0  0
 19 17  2  0  0  0  0
 20 13  1  0  0  0  0
 21 20  1  0  0  0  0
 22 21  2  0  0  0  0
 23  7  1  0  0  0  0
 25 26  1  0  0  0  0
 26 24  2  0  0  0  0
 26 23  1  0  0  0  0
 27 25  1  0  0  0  0
 28 27  1  0  0  0  0
 29 28  1  0  0  0  0
 30 29  1  0  0  0  0
M  END
>  <MODEL>
5

>  <REMARK>
 VINA RESULT:      -2.8      2.700      5.441
  Name = 
  8 active torsions:
  status: ('A' for Active; 'I' for Inactive)
    1  A    between atoms: C_6  and  C_12
    2  A    between atoms: C_6  and  C_23
    3  A    between atoms: C_8  and  C_27
    4  A    between atoms: N_11  and  C_16
    5  A    between atoms: O_13  and  C_15
    6  A    between atoms: O_13  and  C_24
    7  A    between atoms: C_16  and  C_27
    8  A    between atoms: N_25  and  C_26
                            x       y       z     vdW  Elec       q    Type
                         _______ _______ _______ _____ _____    ______ ____

>  <TORSDO>
F 8

$$$$
=
 OpenBabel11042420093D

 30 34  0  0  1  0  0  0  0  0999 V2000
  161.0980  213.0990  145.6330 O   0  0  0  0  0  1  0  0  0  0  0  0
  160.8250  212.8850  146.9840 C   0  0  2  0  0  0  0  0  0  0  0  0
  161.5730  213.7120  148.9880 C   0  0  1  0  0  3  0  0  0  0  0  0
  159.5530  213.2440  147.3330 O   0  0  0  0  0  0  0  0  0  0  0  0
  160.5920  214.1030  147.8350 C   0  0  2  0  0  0  0  0  0  0  0  0
  161.3260  211.6520  147.6770 C   0  0  0  0  0  2  0  0  0  0  0  0
  160.2040  214.1740  149.3450 C   0  0  1  0  0  3  0  0  0  0  0  0
  161.8990  212.2040  148.9540 C   0  0  2  0  0  3  0  0  0  0  0  0
  161.2350  209.3760  151.4880 C   0  0  0  0  0  0  0  0  0  0  0  0
  161.9670  210.0750  150.3700 C   0  0  2  0  0  3  0  0  0  0  0  0
  161.8780  207.1460  147.9770 N   0  0  0  0  0  1  0  0  0  0  0  0
  160.8290  212.1380  151.2490 C   0  0  0  0  0  3  0  0  0  0  0  0
  160.4060  211.4610  152.3160 C   0  0  0  0  0  0  0  0  0  0  0  0
  161.5680  207.2540  150.4300 N   0  0  0  0  0  0  0  0  0  0  0  0
  161.2800  207.9090  151.5180 C   0  0  0  0  0  3  0  0  0  0  0  0
  160.5730  210.0370  152.3860 N   0  0  0  0  0  0  0  0  0  0  0  0
  161.8110  207.9140  149.1730 C   0  0  0  0  0  0  0  0  0  0  0  0
  161.5170  211.4670  150.1740 N   0  0  0  0  0  0  0  0  0  0  0  0
  161.9360  209.2480  149.1090 C   0  0  0  0  0  3  0  0  0  0  0  0
  159.6540  212.1680  153.3920 C   0  0  0  0  0  2  0  0  0  0  0  0
  159.1590  211.2060  154.4210 C   0  0  0  0  0  3  0  0  0  0  0  0
  159.5470  211.3030  155.6390 N   0  0  0  0  0  2  0  0  0  0  0  0
  159.3680  213.1070  149.7910 O   0  0  0  0  0  0  0  0  0  0  0  0
  157.1120  212.8550  149.4810 O   0  0  0  0  0  0  0  0  0  0  0  0
  157.7490  214.0890  151.3580 N   0  0  0  0  0  2  0  0  0  0  0  0
  158.0460  213.3300  150.1800 C   0  0  0  0  0  0  0  0  0  0  0  0
  156.3820  214.3680  151.7720 C   0  0  0  0  0  2  0  0  0  0  0  0
  156.3060  214.4530  153.2880 C   0  0  0  0  0  2  0  0  0  0  0  0
  155.8950  213.1150  153.8830 C   0  0  0  0  0  2  0  0  0  0  0  0
  156.2290  213.0730  155.2980 N   0  0  0  0  0  1  0  0  0  0  0  0
  2  1  1  6  0  0  0
  2  4  1  0  0  0  0
  2  6  1  0  0  0  0
  2  5  1  0  0  0  0
  3  7  1  0  0  0  0
  4  5  1  0  0  0  0
  5  3  1  0  0  0  0
  5  7  1  0  0  0  0
  6  8  1  0  0  0  0
  7 23  1  0  0  0  0
  8  3  1  0  0  0  0
  8 18  1  0  0  0  0
  9 15  1  0  0  0  0
  9 16  2  0  0  0  0
 10  9  1  0  0  0  0
 11 17  1  0  0  0  0
 12 13  2  0  0  0  0
 13 16  1  0  0  0  0
 13 20  1  0  0  0  0
 14 15  2  0  0  0  0
 17 14  1  0  0  0  0
 18 10  1  0  0  0  0
 18 12  1  0  0  0  0
 19 17  2  0  0  0  0
 19 10  1  0  0  0  0
 20 21  1  0  0  0  0
 21 22  2  0  0  0  0
 23 26  1  0  0  0  0
 24 26  2  0  0  0  0
 25 27  1  0  0  0  0
 26 25  1  0  0  0  0
 27 28  1  0  0  0  0
 28 29  1  0  0  0  0
 29 30  1  0  0  0  0
M  END
>  <MODEL>
6

>  <REMARK>
 VINA RESULT:      -2.5      2.885      5.291
  Name = 
  8 active torsions:
  status: ('A' for Active; 'I' for Inactive)
    1  A    between atoms: C_6  and  C_12
    2  A    between atoms: C_6  and  C_23
    3  A    between atoms: C_8  and  C_27
    4  A    between atoms: N_11  and  C_16
    5  A    between atoms: O_13  and  C_15
    6  A    between atoms: O_13  and  C_24
    7  A    between atoms: C_16  and  C_27
    8  A    between atoms: N_25  and  C_26
                            x       y       z     vdW  Elec       q    Type
                         _______ _______ _______ _____ _____    ______ ____

>  <TORSDO>
F 8

$$$$
=
 OpenBabel11042420093D

 30 34  0  0  1  0  0  0  0  0999 V2000
  160.8980  207.9120  157.1650 O   0  0  0  0  0  1  0  0  0  0  0  0
  160.7180  208.8380  156.1370 C   0  0  2  0  0  0  0  0  0  0  0  0
  161.6060  210.8680  155.5460 C   0  0  1  0  0  3  0  0  0  0  0  0
  161.0730  208.3480  154.9120 O   0  0  0  0  0  0  0  0  0  0  0  0
  161.9560  209.3470  155.4520 C   0  0  2  0  0  0  0  0  0  0  0  0
  159.5090  209.7270  156.1150 C   0  0  0  0  0  2  0  0  0  0  0  0
  162.0640  210.3230  154.2390 C   0  0  1  0  0  3  0  0  0  0  0  0
  160.1010  211.0770  155.8150 C   0  0  2  0  0  3  0  0  0  0  0  0
  157.3470  212.8580  153.7890 C   0  0  0  0  0  0  0  0  0  0  0  0
  158.0470  212.3880  155.0400 C   0  0  0  0  0  0  0  0  0  0  0  0
  155.0160  210.6970  156.5460 N   0  0  0  0  0  1  0  0  0  0  0  0
  160.0620  212.2040  153.5470 C   0  0  0  0  0  3  0  0  0  0  0  0
  159.4040  212.8240  152.5680 C   0  0  0  0  0  0  0  0  0  0  0  0
  155.2100  212.4060  154.7670 N   0  0  0  0  0  0  0  0  0  0  0  0
  155.8900  213.0240  153.8450 C   0  0  0  0  0  2  0  0  0  0  0  0
  158.0000  213.0940  152.6930 N   0  0  0  0  0  0  0  0  0  0  0  0
  155.8290  211.5270  155.7250 C   0  0  0  0  0  0  0  0  0  0  0  0
  159.3940  211.8470  154.7740 N   0  0  0  0  0  0  0  0  0  0  0  0
  157.1640  211.4510  155.8270 C   0  0  0  0  0  3  0  0  0  0  0  0
  160.1040  213.1400  151.2900 C   0  0  0  0  0  2  0  0  0  0  0  0
  159.2970  214.0790  150.4550 C   0  0  0  0  0  3  0  0  0  0  0  0
  158.8400  213.7060  149.3170 N   0  0  0  0  0  2  0  0  0  0  0  0
  161.0020  210.2110  153.2930 O   0  0  0  0  0  0  0  0  0  0  0  0
  161.6580  210.2310  151.0980 O   0  0  0  0  0  0  0  0  0  0  0  0
  160.8340  208.1980  151.8950 N   0  0  0  0  0  2  0  0  0  0  0  0
  161.1830  209.5760  152.0630 C   0  0  0  0  0  0  0  0  0  0  0  0
  160.9790  207.5160  150.6170 C   0  0  0  0  0  2  0  0  0  0  0  0
  161.1680  206.0240  150.8440 C   0  0  0  0  0  2  0  0  0  0  0  0
  162.0020  205.7690  152.0900 C   0  0  0  0  0  2  0  0  0  0  0  0
  161.2090  205.0690  153.0880 N   0  0  0  0  0  1  0  0  0  0  0  0
  2  1  1  1  0  0  0
  3  8  1  0  0  0  0
  4  5  1  0  0  0  0
  4  2  1  0  0  0  0
  5  3  1  0  0  0  0
  5  2  1  0  0  0  0
  6  2  1  0  0  0  0
  7  5  1  0  0  0  0
  7  3  1  0  0  0  0
  8  6  1  0  0  0  0
  9 15  1  0  0  0  0
  9 10  1  0  0  0  0
 10 19  2  0  0  0  0
 12 18  1  0  0  0  0
 13 16  1  0  0  0  0
 13 12  2  0  0  0  0
 14 17  2  0  0  0  0
 15 14  1  0  0  0  0
 16  9  2  0  0  0  0
 17 19  1  0  0  0  0
 17 11  1  0  0  0  0
 18 10  1  0  0  0  0
 18  8  1  0  0  0  0
 20 13  1  0  0  0  0
 21 20  1  0  0  0  0
 22 21  2  0  0  0  0
 23  7  1  0  0  0  0
 24 26  2  0  0  0  0
 25 26  1  0  0  0  0
 26 23  1  0  0  0  0
 27 28  1  0  0  0  0
 27 25  1  0  0  0  0
 28 29  1  0  0  0  0
 29 30  1  0  0  0  0
M  END
>  <MODEL>
7

>  <REMARK>
 VINA RESULT:      -2.5      2.726      6.147
  Name = 
  8 active torsions:
  status: ('A' for Active; 'I' for Inactive)
    1  A    between atoms: C_6  and  C_12
    2  A    between atoms: C_6  and  C_23
    3  A    between atoms: C_8  and  C_27
    4  A    between atoms: N_11  and  C_16
    5  A    between atoms: O_13  and  C_15
    6  A    between atoms: O_13  and  C_24
    7  A    between atoms: C_16  and  C_27
    8  A    between atoms: N_25  and  C_26
                            x       y       z     vdW  Elec       q    Type
                         _______ _______ _______ _____ _____    ______ ____

>  <TORSDO>
F 8

$$$$
=
 OpenBabel11042420093D

 30 34  0  0  1  0  0  0  0  0999 V2000
  160.6540  204.9200  149.4920 O   0  0  0  0  0  1  0  0  0  0  0  0
  160.9260  206.1600  150.0710 C   0  0  2  0  0  0  0  0  0  0  0  0
  162.5300  207.0410  151.4510 C   0  0  1  0  0  3  0  0  0  0  0  0
  161.2170  207.1250  149.1480 O   0  0  0  0  0  0  0  0  0  0  0  0
  162.3300  206.6800  149.9430 C   0  0  2  0  0  0  0  0  0  0  0  0
  160.1160  206.6510  151.2360 C   0  0  0  0  0  2  0  0  0  0  0  0
  162.9070  208.0490  150.4230 C   0  0  1  0  0  3  0  0  0  0  0  0
  161.1750  207.1490  152.1820 C   0  0  2  0  0  3  0  0  0  0  0  0
  160.5990  209.9930  154.7190 C   0  0  0  0  0  0  0  0  0  0  0  0
  161.2270  208.7260  154.1940 C   0  0  2  0  0  3  0  0  0  0  0  0
  160.4730  206.6420  157.2610 N   0  0  0  0  0  1  0  0  0  0  0  0
  160.4570  209.5660  151.9530 C   0  0  0  0  0  3  0  0  0  0  0  0
  160.1270  210.7380  152.4950 C   0  0  0  0  0  0  0  0  0  0  0  0
  160.5440  209.0940  156.9370 N   0  0  0  0  0  0  0  0  0  0  0  0
  160.4920  210.1490  156.1750 C   0  0  0  0  0  3  0  0  0  0  0  0
  160.1510  210.9120  153.9200 N   0  0  0  0  0  0  0  0  0  0  0  0
  160.6660  207.7620  156.4040 C   0  0  0  0  0  0  0  0  0  0  0  0
  160.9030  208.4710  152.7770 N   0  0  0  0  0  0  0  0  0  0  0  0
  160.9210  207.5620  155.1030 C   0  0  0  0  0  3  0  0  0  0  0  0
  159.6230  211.8410  151.6270 C   0  0  0  0  0  2  0  0  0  0  0  0
  158.7620  212.7820  152.4030 C   0  0  0  0  0  3  0  0  0  0  0  0
  158.3030  213.8450  151.8510 N   0  0  0  0  0  2  0  0  0  0  0  0
  161.9840  209.1350  150.3600 O   0  0  0  0  0  0  0  0  0  0  0  0
  161.5880  209.6290  148.1580 O   0  0  0  0  0  0  0  0  0  0  0  0
  162.4170  211.3800  149.4610 N   0  0  0  0  0  2  0  0  0  0  0  0
  161.9800  210.0270  149.2870 C   0  0  0  0  0  0  0  0  0  0  0  0
  162.4570  212.3260  148.3550 C   0  0  0  0  0  2  0  0  0  0  0  0
  161.4390  213.4320  148.5820 C   0  0  0  0  0  2  0  0  0  0  0  0
  160.1290  213.1120  147.8780 C   0  0  0  0  0  2  0  0  0  0  0  0
  160.3920  212.5750  146.5530 N   0  0  0  0  0  1  0  0  0  0  0  0
  2  1  1  6  0  0  0
  2  6  1  0  0  0  0
  3  8  1  0  0  0  0
  4  5  1  0  0  0  0
  4  2  1  0  0  0  0
  5  2  1  0  0  0  0
  5  7  1  0  0  0  0
  5  3  1  0  0  0  0
  6  8  1  0  0  0  0
  7  3  1  0  0  0  0
  8 18  1  0  0  0  0
  9 15  1  0  0  0  0
 10  9  1  0  0  0  0
 10 19  1  0  0  0  0
 12 13  2  0  0  0  0
 12 18  1  0  0  0  0
 13 16  1  0  0  0  0
 15 14  2  0  0  0  0
 16  9  2  0  0  0  0
 17 14  1  0  0  0  0
 17 11  1  0  0  0  0
 18 10  1  0  0  0  0
 19 17  2  0  0  0  0
 20 21  1  0  0  0  0
 20 13  1  0  0  0  0
 22 21  2  0  0  0  0
 23  7  1  0  0  0  0
 24 26  2  0  0  0  0
 26 25  1  0  0  0  0
 26 23  1  0  0  0  0
 27 28  1  0  0  0  0
 27 25  1  0  0  0  0
 29 28  1  0  0  0  0
 30 29  1  0  0  0  0
M  END
>  <MODEL>
8

>  <REMARK>
 VINA RESULT:      -2.5      2.833      5.278
  Name = 
  8 active torsions:
  status: ('A' for Active; 'I' for Inactive)
    1  A    between atoms: C_6  and  C_12
    2  A    between atoms: C_6  and  C_23
    3  A    between atoms: C_8  and  C_27
    4  A    between atoms: N_11  and  C_16
    5  A    between atoms: O_13  and  C_15
    6  A    between atoms: O_13  and  C_24
    7  A    between atoms: C_16  and  C_27
    8  A    between atoms: N_25  and  C_26
                            x       y       z     vdW  Elec       q    Type
                         _______ _______ _______ _____ _____    ______ ____

>  <TORSDO>
F 8

$$$$
=
 OpenBabel11042420093D

 30 34  0  0  1  0  0  0  0  0999 V2000
  160.9070  208.0260  157.2600 O   0  0  0  0  0  1  0  0  0  0  0  0
  160.7300  208.9340  156.2170 C   0  0  2  0  0  0  0  0  0  0  0  0
  161.6610  210.9260  155.5630 C   0  0  1  0  0  3  0  0  0  0  0  0
  161.0450  208.4090  154.9950 O   0  0  0  0  0  0  0  0  0  0  0  0
  161.9660  209.3940  155.4940 C   0  0  2  0  0  0  0  0  0  0  0  0
  159.5460  209.8560  156.2010 C   0  0  0  0  0  2  0  0  0  0  0  0
  162.0740  210.3410  154.2590 C   0  0  1  0  0  3  0  0  0  0  0  0
  160.1680  211.1830  155.8600 C   0  0  2  0  0  3  0  0  0  0  0  0
  157.4370  213.0580  153.8890 C   0  0  0  0  0  0  0  0  0  0  0  0
  158.1710  212.6010  155.1250 C   0  0  0  0  0  0  0  0  0  0  0  0
  155.1170  211.2120  156.8750 N   0  0  0  0  0  1  0  0  0  0  0  0
  160.0810  212.1960  153.5410 C   0  0  0  0  0  3  0  0  0  0  0  0
  159.4150  212.8140  152.5650 C   0  0  0  0  0  0  0  0  0  0  0  0
  155.3310  212.8120  155.0000 N   0  0  0  0  0  0  0  0  0  0  0  0
  156.0000  213.3330  154.0120 C   0  0  0  0  0  2  0  0  0  0  0  0
  158.0420  213.1910  152.7490 N   0  0  0  0  0  0  0  0  0  0  0  0
  155.9400  211.9390  155.9700 C   0  0  0  0  0  0  0  0  0  0  0  0
  159.4590  211.9500  154.8180 N   0  0  0  0  0  0  0  0  0  0  0  0
  157.2700  211.7700  156.0050 C   0  0  0  0  0  3  0  0  0  0  0  0
  160.0620  213.0150  151.2370 C   0  0  0  0  0  2  0  0  0  0  0  0
  159.2500  213.9250  150.3770 C   0  0  0  0  0  3  0  0  0  0  0  0
  159.1240  213.6900  149.1230 N   0  0  0  0  0  2  0  0  0  0  0  0
  160.9890  210.2390  153.3380 O   0  0  0  0  0  0  0  0  0  0  0  0
  160.4610  208.3830  152.1040 O   0  0  0  0  0  0  0  0  0  0  0  0
  161.8900  209.9160  151.0760 N   0  0  0  0  0  2  0  0  0  0  0  0
  161.0870  209.4730  152.1760 C   0  0  0  0  0  0  0  0  0  0  0  0
  162.0400  209.1260  149.8630 C   0  0  0  0  0  2  0  0  0  0  0  0
  161.9670  210.0290  148.6420 C   0  0  0  0  0  2  0  0  0  0  0  0
  162.3650  211.4530  149.0000 C   0  0  0  0  0  2  0  0  0  0  0  0
  162.0390  212.3530  147.9060 N   0  0  0  0  0  1  0  0  0  0  0  0
  2  1  1  1  0  0  0
  3  8  1  0  0  0  0
  4  5  1  0  0  0  0
  4  2  1  0  0  0  0
  5  3  1  0  0  0  0
  5  2  1  0  0  0  0
  6  2  1  0  0  0  0
  7  5  1  0  0  0  0
  7  3  1  0  0  0  0
  8  6  1  0  0  0  0
  9 15  1  0  0  0  0
  9 10  1  0  0  0  0
 10 19  2  0  0  0  0
 12 18  1  0  0  0  0
 13 16  1  0  0  0  0
 13 12  2  0  0  0  0
 14 17  2  0  0  0  0
 15 14  1  0  0  0  0
 16  9  2  0  0  0  0
 17 19  1  0  0  0  0
 17 11  1  0  0  0  0
 18 10  1  0  0  0  0
 18  8  1  0  0  0  0
 20 13  1  0  0  0  0
 21 20  1  0  0  0  0
 22 21  2  0  0  0  0
 23  7  1  0  0  0  0
 24 26  2  0  0  0  0
 25 26  1  0  0  0  0
 26 23  1  0  0  0  0
 27 25  1  0  0  0  0
 28 29  1  0  0  0  0
 28 27  1  0  0  0  0
 30 29  1  0  0  0  0
M  END
>  <MODEL>
9

>  <REMARK>
 VINA RESULT:      -2.4      2.759      5.681
  Name = 
  8 active torsions:
  status: ('A' for Active; 'I' for Inactive)
    1  A    between atoms: C_6  and  C_12
    2  A    between atoms: C_6  and  C_23
    3  A    between atoms: C_8  and  C_27
    4  A    between atoms: N_11  and  C_16
    5  A    between atoms: O_13  and  C_15
    6  A    between atoms: O_13  and  C_24
    7  A    between atoms: C_16  and  C_27
    8  A    between atoms: N_25  and  C_26
                            x       y       z     vdW  Elec       q    Type
                         _______ _______ _______ _____ _____    ______ ____

>  <TORSDO>
F 8

$$$$
