=
 OpenBabel11042422443D

 38 41  0  0  1  0  0  0  0  0999 V2000
  161.3980  204.4960  147.4690 C   0  0  0  0  0  0  0  0  0  0  0  0
  161.1450  204.0570  149.8420 C   0  0  0  0  0  0  0  0  0  0  0  0
  160.9430  203.7290  152.3760 C   0  0  0  0  0  3  0  0  0  0  0  0
  161.1980  203.6530  148.4610 N   0  0  0  0  0  0  0  0  0  0  0  0
  161.3040  205.3310  150.1150 C   0  0  0  0  0  0  0  0  0  0  0  0
  161.3350  205.9060  151.4090 C   0  0  0  0  0  0  0  0  0  0  0  0
  160.9530  203.0770  150.9860 C   0  0  0  0  0  2  0  0  0  0  0  0
  161.5420  206.3370  149.1520 C   0  0  0  0  0  0  0  0  0  0  0  0
  161.5820  207.2120  151.2870 C   0  0  0  0  0  3  0  0  0  0  0  0
  161.4380  204.0150  146.1260 N   0  0  0  0  0  2  0  0  0  0  0  0
  161.1380  205.0480  152.5820 C   0  0  0  0  0  0  0  0  0  0  0  0
  161.6000  205.9960  147.6940 C   0  0  0  0  0  2  0  0  0  0  0  0
  161.7130  207.4800  149.8230 C   0  0  0  0  0  0  0  0  0  0  0  0
  162.0190  208.7940  149.2290 C   0  0  0  0  0  0  0  0  0  0  0  0
  162.5490  208.8680  148.0870 O   0  0  0  0  0  0  0  0  0  0  0  0
  161.7260  210.0460  149.9960 C   0  0  1  0  0  3  0  0  0  0  0  0
  162.4020  209.9870  151.3550 C   0  0  0  0  0  1  0  0  0  0  0  0
  162.1980  211.2660  149.2210 C   0  0  0  0  0  2  0  0  0  0  0  0
  161.2350  212.3570  149.3620 N   0  0  0  0  0  2  0  0  0  0  0  0
  162.5100  213.6260  147.6840 C   0  0  0  0  0  1  0  0  0  0  0  0
  161.1410  213.1210  148.1140 C   0  0  0  0  0  0  0  0  0  0  0  0
  160.2650  214.1990  148.2640 O   0  0  0  0  0  1  0  0  0  0  0  0
  160.6080  212.2100  147.0270 C   0  0  0  0  0  1  0  0  0  0  0  0
  161.2950  202.6050  145.7960 C   0  0  0  0  0  2  0  0  0  0  0  0
  159.7730  200.9200  144.7780 C   0  0  0  0  0  1  0  0  0  0  0  0
  160.0820  202.4000  144.9080 C   0  0  0  0  0  2  0  0  0  0  0  0
  161.1000  205.6120  153.9590 C   0  0  0  0  0  2  0  0  0  0  0  0
  161.3240  207.0470  153.9060 N   0  0  0  0  0  2  0  0  0  0  0  0
  160.8540  209.3570  154.6410 N   0  0  0  0  0  2  0  0  0  0  0  0
  160.6600  207.9470  154.7950 C   0  0  0  0  0  0  0  0  0  0  0  0
  159.9030  207.5030  155.7010 O   0  0  0  0  0  0  0  0  0  0  0  0
  160.2380  210.3300  155.5300 C   0  0  0  0  0  2  0  0  0  0  0  0
  160.2950  211.7730  153.5390 O   0  0  0  0  0  0  0  0  0  0  0  0
  160.3840  211.7400  154.9540 C   0  0  1  0  0  3  0  0  0  0  0  0
  159.4320  212.7450  155.6160 C   0  0  0  0  0  2  0  0  0  0  0  0
  158.0060  212.5450  155.1190 C   0  0  0  0  0  2  0  0  0  0  0  0
  157.9860  212.4880  153.5970 C   0  0  0  0  0  2  0  0  0  0  0  0
  158.9850  211.4310  153.1370 C   0  0  0  0  0  2  0  0  0  0  0  0
  1 12  1  0  0  0  0
  1  4  2  0  0  0  0
  2  5  2  0  0  0  0
  2  7  1  0  0  0  0
  3 11  2  0  0  0  0
  4  2  1  0  0  0  0
  5  6  1  0  0  0  0
  6 11  1  0  0  0  0
  7  3  1  0  0  0  0
  8 13  2  0  0  0  0
  8  5  1  0  0  0  0
  9  6  2  0  0  0  0
 10  1  1  0  0  0  0
 11 27  1  0  0  0  0
 12  8  1  0  0  0  0
 13  9  1  0  0  0  0
 14 13  1  0  0  0  0
 14 16  1  0  0  0  0
 15 14  2  0  0  0  0
 16 17  1  1  0  0  0
 18 19  1  0  0  0  0
 18 16  1  0  0  0  0
 20 21  1  0  0  0  0
 21 22  1  0  0  0  0
 21 19  1  0  0  0  0
 23 21  1  0  0  0  0
 24 10  1  0  0  0  0
 25 26  1  0  0  0  0
 26 24  1  0  0  0  0
 28 27  1  0  0  0  0
 28 30  1  0  0  0  0
 29 30  1  0  0  0  0
 29 32  1  0  0  0  0
 30 31  2  0  0  0  0
 33 34  1  0  0  0  0
 34 32  1  1  0  0  0
 34 35  1  0  0  0  0
 36 35  1  0  0  0  0
 37 36  1  0  0  0  0
 38 33  1  0  0  0  0
 38 37  1  0  0  0  0
M  END
>  <MODEL>
1

>  <REMARK>
 VINA RESULT:      -8.5      0.000      0.000
  Name = 
  11 active torsions:
  status: ('A' for Active; 'I' for Inactive)
    1  A    between atoms: C_1  and  C_6
    2  A    between atoms: C_1  and  C_36
    3  A    between atoms: N_4  and  C_38
    4  A    between atoms: C_6  and  C_10
    5  A    between atoms: C_7  and  C_22
    6  A    between atoms: N_9  and  C_10
    7  A    between atoms: N_9  and  C_11
    8  A    between atoms: N_12  and  C_22
    9  A    between atoms: N_28  and  C_34
   10  A    between atoms: C_30  and  C_38
   11  A    between atoms: C_34  and  C_37
                            x       y       z     vdW  Elec       q    Type
                         _______ _______ _______ _____ _____    ______ ____

>  <TORSDO>
F 11

$$$$
=
 OpenBabel11042422443D

 38 41  0  0  1  0  0  0  0  0999 V2000
  160.8300  204.4460  150.4960 C   0  0  0  0  0  0  0  0  0  0  0  0
  161.3950  206.5370  149.4030 C   0  0  0  0  0  0  0  0  0  0  0  0
  161.9460  208.8190  148.3760 C   0  0  0  0  0  3  0  0  0  0  0  0
  161.0860  205.1310  149.4010 N   0  0  0  0  0  0  0  0  0  0  0  0
  161.4210  207.1570  150.5600 C   0  0  0  0  0  0  0  0  0  0  0  0
  161.6530  208.5410  150.7560 C   0  0  0  0  0  0  0  0  0  0  0  0
  161.6510  207.3320  148.1350 C   0  0  0  0  0  3  0  0  0  0  0  0
  161.1520  206.5490  151.8060 C   0  0  0  0  0  0  0  0  0  0  0  0
  161.5370  208.8100  152.0580 C   0  0  0  0  0  3  0  0  0  0  0  0
  160.5310  203.0530  150.4080 N   0  0  0  0  0  2  0  0  0  0  0  0
  161.9330  209.3940  149.5960 C   0  0  0  0  0  0  0  0  0  0  0  0
  160.8320  205.0870  151.8860 C   0  0  0  0  0  3  0  0  0  0  0  0
  161.2130  207.5140  152.7280 C   0  0  0  0  0  0  0  0  0  0  0  0
  160.9660  207.3490  154.1720 C   0  0  0  0  0  0  0  0  0  0  0  0
  161.0440  206.2080  154.7030 O   0  0  0  0  0  0  0  0  0  0  0  0
  160.5920  208.5350  155.0060 C   0  0  1  0  0  3  0  0  0  0  0  0
  161.5700  208.6830  156.1580 C   0  0  0  0  0  1  0  0  0  0  0  0
  160.5760  209.7960  154.1580 C   0  0  0  0  0  2  0  0  0  0  0  0
  160.1650  210.9430  154.9660 N   0  0  0  0  0  2  0  0  0  0  0  0
  158.9370  211.2480  152.8570 C   0  0  0  0  0  1  0  0  0  0  0  0
  159.0620  211.6580  154.3160 C   0  0  0  0  0  0  0  0  0  0  0  0
  159.2540  213.0390  154.4040 O   0  0  0  0  0  1  0  0  0  0  0  0
  157.7700  211.3010  155.0220 C   0  0  0  0  0  1  0  0  0  0  0  0
  160.4650  202.3460  149.1380 C   0  0  0  0  0  2  0  0  0  0  0  0
  161.4820  200.4530  147.8830 C   0  0  0  0  0  1  0  0  0  0  0  0
  161.1430  200.9950  149.2600 C   0  0  0  0  0  2  0  0  0  0  0  0
  162.2440  210.8420  149.7540 C   0  0  0  0  0  2  0  0  0  0  0  0
  161.6070  211.5980  148.6890 N   0  0  0  0  0  2  0  0  0  0  0  0
  161.6860  213.1020  146.7330 N   0  0  0  0  0  2  0  0  0  0  0  0
  162.3670  212.3050  147.7080 C   0  0  0  0  0  0  0  0  0  0  0  0
  163.6260  212.2350  147.7070 O   0  0  0  0  0  0  0  0  0  0  0  0
  162.3930  213.8220  145.6840 C   0  0  0  0  0  2  0  0  0  0  0  0
  161.9450  214.2140  143.2970 O   0  0  0  0  0  0  0  0  0  0  0  0
  161.4100  214.2900  144.6090 C   0  0  1  0  0  3  0  0  0  0  0  0
  160.0470  213.5940  144.7180 C   0  0  0  0  0  2  0  0  0  0  0  0
  160.1320  212.1600  144.2070 C   0  0  0  0  0  2  0  0  0  0  0  0
  160.8040  212.1310  142.8410 C   0  0  0  0  0  2  0  0  0  0  0  0
  162.1400  212.8610  142.9410 C   0  0  0  0  0  2  0  0  0  0  0  0
  1 12  1  0  0  0  0
  2  5  1  0  0  0  0
  3 11  2  0  0  0  0
  4  2  1  0  0  0  0
  4  1  2  0  0  0  0
  5  6  2  0  0  0  0
  5  8  1  0  0  0  0
  6  9  1  0  0  0  0
  7  3  1  0  0  0  0
  7  2  2  0  0  0  0
  8 12  2  0  0  0  0
  8 13  1  0  0  0  0
  9 13  2  0  0  0  0
 10  1  1  0  0  0  0
 11 27  1  0  0  0  0
 11  6  1  0  0  0  0
 13 14  1  0  0  0  0
 14 15  2  0  0  0  0
 14 16  1  0  0  0  0
 16 17  1  1  0  0  0
 18 19  1  0  0  0  0
 18 16  1  0  0  0  0
 20 21  1  0  0  0  0
 21 22  1  0  0  0  0
 21 19  1  0  0  0  0
 21 23  1  0  0  0  0
 24 26  1  0  0  0  0
 24 10  1  0  0  0  0
 25 26  1  0  0  0  0
 28 27  1  0  0  0  0
 29 30  1  0  0  0  0
 30 28  1  0  0  0  0
 31 30  2  0  0  0  0
 32 29  1  0  0  0  0
 33 34  1  0  0  0  0
 34 35  1  0  0  0  0
 34 32  1  1  0  0  0
 36 35  1  0  0  0  0
 37 38  1  0  0  0  0
 37 36  1  0  0  0  0
 38 33  1  0  0  0  0
M  END
>  <MODEL>
2

>  <REMARK>
 VINA RESULT:      -8.4      2.176      6.889
  Name = 
  11 active torsions:
  status: ('A' for Active; 'I' for Inactive)
    1  A    between atoms: C_1  and  C_6
    2  A    between atoms: C_1  and  C_36
    3  A    between atoms: N_4  and  C_38
    4  A    between atoms: C_6  and  C_10
    5  A    between atoms: C_7  and  C_22
    6  A    between atoms: N_9  and  C_10
    7  A    between atoms: N_9  and  C_11
    8  A    between atoms: N_12  and  C_22
    9  A    between atoms: N_28  and  C_34
   10  A    between atoms: C_30  and  C_38
   11  A    between atoms: C_34  and  C_37
                            x       y       z     vdW  Elec       q    Type
                         _______ _______ _______ _____ _____    ______ ____

>  <TORSDO>
F 11

$$$$
=
 OpenBabel11042422443D

 38 41  0  0  1  0  0  0  0  0999 V2000
  161.3110  205.3090  148.7410 C   0  0  0  0  0  0  0  0  0  0  0  0
  161.2000  205.3430  151.1650 C   0  0  0  0  0  0  0  0  0  0  0  0
  161.1470  205.5170  153.7210 C   0  0  0  0  0  3  0  0  0  0  0  0
  161.1840  204.6750  149.8890 N   0  0  0  0  0  0  0  0  0  0  0  0
  161.3480  206.6470  151.1740 C   0  0  0  0  0  0  0  0  0  0  0  0
  161.4390  207.4650  152.3260 C   0  0  0  0  0  0  0  0  0  0  0  0
  161.0930  204.6050  152.4880 C   0  0  0  0  0  2  0  0  0  0  0  0
  161.5090  207.4460  150.0210 C   0  0  0  0  0  0  0  0  0  0  0  0
  161.6500  208.7240  151.9360 C   0  0  0  0  0  3  0  0  0  0  0  0
  161.2860  204.5730  147.5180 N   0  0  0  0  0  2  0  0  0  0  0  0
  161.3250  206.8520  153.6530 C   0  0  0  0  0  0  0  0  0  0  0  0
  161.4930  206.8260  148.6560 C   0  0  0  0  0  2  0  0  0  0  0  0
  161.6930  208.7000  150.4430 C   0  0  0  0  0  0  0  0  0  0  0  0
  161.9380  209.8750  149.5860 C   0  0  0  0  0  0  0  0  0  0  0  0
  162.1960  209.7260  148.3610 O   0  0  0  0  0  0  0  0  0  0  0  0
  161.9080  211.2500  150.1790 C   0  0  1  0  0  3  0  0  0  0  0  0
  161.8720  212.2880  149.0710 C   0  0  0  0  0  1  0  0  0  0  0  0
  160.7040  211.4080  151.0930 C   0  0  0  0  0  2  0  0  0  0  0  0
  160.2090  212.7830  151.0440 N   0  0  0  0  0  2  0  0  0  0  0  0
  158.6250  211.6540  152.5500 C   0  0  0  0  0  1  0  0  0  0  0  0
  158.8940  212.8760  151.6860 C   0  0  0  0  0  0  0  0  0  0  0  0
  157.8880  213.0050  150.7260 O   0  0  0  0  0  1  0  0  0  0  0  0
  158.8760  214.1020  152.5760 C   0  0  0  0  0  1  0  0  0  0  0  0
  161.1540  203.1250  147.4800 C   0  0  0  0  0  2  0  0  0  0  0  0
  161.1020  203.8310  145.0940 C   0  0  0  0  0  1  0  0  0  0  0  0
  161.1110  202.6450  146.0420 C   0  0  0  0  0  2  0  0  0  0  0  0
  161.3530  207.6760  154.8940 C   0  0  0  0  0  2  0  0  0  0  0  0
  160.0790  208.3560  155.0580 N   0  0  0  0  0  2  0  0  0  0  0  0
  158.7100  210.2780  155.7820 N   0  0  0  0  0  2  0  0  0  0  0  0
  159.9960  209.6900  155.5620 C   0  0  0  0  0  0  0  0  0  0  0  0
  161.0460  210.3390  155.8190 O   0  0  0  0  0  0  0  0  0  0  0  0
  158.5490  211.6430  156.2620 C   0  0  0  0  0  2  0  0  0  0  0  0
  156.8830  213.1890  157.2030 O   0  0  0  0  0  0  0  0  0  0  0  0
  157.1280  211.8540  156.7900 C   0  0  1  0  0  3  0  0  0  0  0  0
  156.0590  211.3450  155.8150 C   0  0  0  0  0  2  0  0  0  0  0  0
  155.9060  212.3000  154.6360 C   0  0  0  0  0  2  0  0  0  0  0  0
  155.7460  213.7280  155.1380 C   0  0  0  0  0  2  0  0  0  0  0  0
  156.9040  214.0460  156.0800 C   0  0  0  0  0  2  0  0  0  0  0  0
  1  4  2  0  0  0  0
  2  5  2  0  0  0  0
  2  7  1  0  0  0  0
  4  2  1  0  0  0  0
  5  6  1  0  0  0  0
  6 11  1  0  0  0  0
  7  3  1  0  0  0  0
  8 13  2  0  0  0  0
  8  5  1  0  0  0  0
  9  6  2  0  0  0  0
 10  1  1  0  0  0  0
 11  3  2  0  0  0  0
 11 27  1  0  0  0  0
 12  1  1  0  0  0  0
 12  8  1  0  0  0  0
 13  9  1  0  0  0  0
 14 16  1  0  0  0  0
 14 13  1  0  0  0  0
 15 14  2  0  0  0  0
 16 17  1  6  0  0  0
 16 18  1  0  0  0  0
 19 18  1  0  0  0  0
 19 21  1  0  0  0  0
 21 20  1  0  0  0  0
 21 23  1  0  0  0  0
 22 21  1  0  0  0  0
 24 10  1  0  0  0  0
 25 26  1  0  0  0  0
 26 24  1  0  0  0  0
 27 28  1  0  0  0  0
 28 30  1  0  0  0  0
 29 32  1  0  0  0  0
 30 29  1  0  0  0  0
 30 31  2  0  0  0  0
 34 32  1  6  0  0  0
 34 33  1  0  0  0  0
 35 34  1  0  0  0  0
 36 37  1  0  0  0  0
 36 35  1  0  0  0  0
 37 38  1  0  0  0  0
 38 33  1  0  0  0  0
M  END
>  <MODEL>
3

>  <REMARK>
 VINA RESULT:      -8.0      1.812      2.873
  Name = 
  11 active torsions:
  status: ('A' for Active; 'I' for Inactive)
    1  A    between atoms: C_1  and  C_6
    2  A    between atoms: C_1  and  C_36
    3  A    between atoms: N_4  and  C_38
    4  A    between atoms: C_6  and  C_10
    5  A    between atoms: C_7  and  C_22
    6  A    between atoms: N_9  and  C_10
    7  A    between atoms: N_9  and  C_11
    8  A    between atoms: N_12  and  C_22
    9  A    between atoms: N_28  and  C_34
   10  A    between atoms: C_30  and  C_38
   11  A    between atoms: C_34  and  C_37
                            x       y       z     vdW  Elec       q    Type
                         _______ _______ _______ _____ _____    ______ ____

>  <TORSDO>
F 11

$$$$
=
 OpenBabel11042422443D

 38 41  0  0  1  0  0  0  0  0999 V2000
  159.6880  211.7330  155.1390 C   0  0  0  0  0  0  0  0  0  0  0  0
  160.0720  209.3370  155.1350 C   0  0  0  0  0  0  0  0  0  0  0  0
  160.4820  206.8120  154.9770 C   0  0  0  0  0  3  0  0  0  0  0  0
  159.6470  210.5670  155.7510 N   0  0  0  0  0  0  0  0  0  0  0  0
  160.5220  209.3920  153.9030 C   0  0  0  0  0  0  0  0  0  0  0  0
  160.9340  208.2870  153.1190 C   0  0  0  0  0  0  0  0  0  0  0  0
  159.9870  207.9890  155.8290 C   0  0  0  0  0  2  0  0  0  0  0  0
  160.6050  210.5690  153.1280 C   0  0  0  0  0  0  0  0  0  0  0  0
  161.2620  208.7280  151.9030 C   0  0  0  0  0  3  0  0  0  0  0  0
  159.2460  212.9070  155.8210 N   0  0  0  0  0  2  0  0  0  0  0  0
  160.9110  206.9420  153.7040 C   0  0  0  0  0  0  0  0  0  0  0  0
  160.1910  211.8900  153.7030 C   0  0  0  0  0  2  0  0  0  0  0  0
  161.0460  210.2060  151.9200 C   0  0  0  0  0  0  0  0  0  0  0  0
  161.2560  211.1030  150.7690 C   0  0  0  0  0  0  0  0  0  0  0  0
  160.6040  212.1790  150.6750 O   0  0  0  0  0  0  0  0  0  0  0  0
  162.2250  210.7230  149.6930 C   0  0  1  0  0  3  0  0  0  0  0  0
  161.7560  209.4530  149.0040 C   0  0  0  0  0  1  0  0  0  0  0  0
  162.3680  211.8510  148.6850 C   0  0  0  0  0  2  0  0  0  0  0  0
  161.3990  211.6890  147.6020 N   0  0  0  0  0  2  0  0  0  0  0  0
  159.5580  213.3160  147.4870 C   0  0  0  0  0  1  0  0  0  0  0  0
  160.9890  212.9960  147.0820 C   0  0  0  0  0  0  0  0  0  0  0  0
  161.1040  213.0290  145.6900 O   0  0  0  0  0  1  0  0  0  0  0  0
  161.8970  214.0580  147.6680 C   0  0  0  0  0  1  0  0  0  0  0  0
  158.7150  212.8720  157.1750 C   0  0  0  0  0  2  0  0  0  0  0  0
  156.3710  212.0790  156.9050 C   0  0  0  0  0  1  0  0  0  0  0  0
  157.2550  213.2840  157.1700 C   0  0  0  0  0  2  0  0  0  0  0  0
  161.3910  205.7550  152.9430 C   0  0  0  0  0  2  0  0  0  0  0  0
  161.1580  205.9580  151.5230 N   0  0  0  0  0  2  0  0  0  0  0  0
  161.1660  205.1840  149.1790 N   0  0  0  0  0  2  0  0  0  0  0  0
  161.3270  204.9050  150.5740 C   0  0  0  0  0  0  0  0  0  0  0  0
  161.6250  203.7420  150.9600 O   0  0  0  0  0  0  0  0  0  0  0  0
  161.2900  204.1540  148.1580 C   0  0  0  0  0  2  0  0  0  0  0  0
  162.3050  203.7100  145.9620 O   0  0  0  0  0  0  0  0  0  0  0  0
  162.2350  204.6200  147.0480 C   0  0  1  0  0  3  0  0  0  0  0  0
  161.9350  206.0510  146.5850 C   0  0  0  0  0  2  0  0  0  0  0  0
  160.6820  206.0850  145.7170 C   0  0  0  0  0  2  0  0  0  0  0  0
  160.7700  205.0220  144.6310 C   0  0  0  0  0  2  0  0  0  0  0  0
  161.0630  203.6770  145.2890 C   0  0  0  0  0  2  0  0  0  0  0  0
  1  4  2  0  0  0  0
  1 10  1  0  0  0  0
  2  4  1  0  0  0  0
  2  7  1  0  0  0  0
  3  7  1  0  0  0  0
  5  2  2  0  0  0  0
  6 11  1  0  0  0  0
  6  5  1  0  0  0  0
  8 12  1  0  0  0  0
  8  5  1  0  0  0  0
  9 13  1  0  0  0  0
  9  6  2  0  0  0  0
 10 24  1  0  0  0  0
 11  3  2  0  0  0  0
 12  1  1  0  0  0  0
 13  8  2  0  0  0  0
 14 13  1  0  0  0  0
 15 14  2  0  0  0  0
 16 17  1  6  0  0  0
 16 14  1  0  0  0  0
 18 16  1  0  0  0  0
 19 18  1  0  0  0  0
 21 20  1  0  0  0  0
 21 19  1  0  0  0  0
 21 23  1  0  0  0  0
 22 21  1  0  0  0  0
 25 26  1  0  0  0  0
 26 24  1  0  0  0  0
 27 11  1  0  0  0  0
 28 27  1  0  0  0  0
 29 30  1  0  0  0  0
 30 31  2  0  0  0  0
 30 28  1  0  0  0  0
 32 29  1  0  0  0  0
 33 34  1  0  0  0  0
 34 32  1  1  0  0  0
 35 34  1  0  0  0  0
 36 35  1  0  0  0  0
 37 38  1  0  0  0  0
 37 36  1  0  0  0  0
 38 33  1  0  0  0  0
M  END
>  <MODEL>
4

>  <REMARK>
 VINA RESULT:      -7.9      2.174      8.193
  Name = 
  11 active torsions:
  status: ('A' for Active; 'I' for Inactive)
    1  A    between atoms: C_1  and  C_6
    2  A    between atoms: C_1  and  C_36
    3  A    between atoms: N_4  and  C_38
    4  A    between atoms: C_6  and  C_10
    5  A    between atoms: C_7  and  C_22
    6  A    between atoms: N_9  and  C_10
    7  A    between atoms: N_9  and  C_11
    8  A    between atoms: N_12  and  C_22
    9  A    between atoms: N_28  and  C_34
   10  A    between atoms: C_30  and  C_38
   11  A    between atoms: C_34  and  C_37
                            x       y       z     vdW  Elec       q    Type
                         _______ _______ _______ _____ _____    ______ ____

>  <TORSDO>
F 11

$$$$
=
 OpenBabel11042422443D

 38 41  0  0  1  0  0  0  0  0999 V2000
  158.3800  212.3730  154.5180 C   0  0  0  0  0  0  0  0  0  0  0  0
  159.5120  212.4310  152.3720 C   0  0  0  0  0  0  0  0  0  0  0  0
  160.8160  212.4030  150.1660 C   0  0  0  0  0  3  0  0  0  0  0  0
  158.5660  212.9270  153.3370 N   0  0  0  0  0  0  0  0  0  0  0  0
  160.2200  211.3740  152.6940 C   0  0  0  0  0  0  0  0  0  0  0  0
  161.2300  210.7760  151.9020 C   0  0  0  0  0  0  0  0  0  0  0  0
  159.7510  213.0950  151.0280 C   0  0  0  0  0  3  0  0  0  0  0  0
  160.1330  210.6930  153.9290 C   0  0  0  0  0  0  0  0  0  0  0  0
  161.7670  209.7660  152.5890 C   0  0  0  0  0  3  0  0  0  0  0  0
  157.4210  212.9270  155.4190 N   0  0  0  0  0  2  0  0  0  0  0  0
  161.5230  211.3290  150.5750 C   0  0  0  0  0  0  0  0  0  0  0  0
  159.1640  211.1430  154.9800 C   0  0  0  0  0  3  0  0  0  0  0  0
  161.0500  209.7210  153.8990 C   0  0  0  0  0  0  0  0  0  0  0  0
  161.3420  208.7740  154.9900 C   0  0  0  0  0  0  0  0  0  0  0  0
  162.0240  209.1410  155.9850 O   0  0  0  0  0  0  0  0  0  0  0  0
  160.8530  207.3610  154.9030 C   0  0  1  0  0  3  0  0  0  0  0  0
  159.4490  207.2660  155.4730 C   0  0  0  0  0  1  0  0  0  0  0  0
  160.8750  206.8800  153.4610 C   0  0  0  0  0  2  0  0  0  0  0  0
  161.0330  205.4270  153.4150 N   0  0  0  0  0  2  0  0  0  0  0  0
  161.5490  203.4860  151.9960 C   0  0  0  0  0  1  0  0  0  0  0  0
  161.4770  205.0020  152.0850 C   0  0  0  0  0  0  0  0  0  0  0  0
  162.7260  205.5520  151.7860 O   0  0  0  0  0  1  0  0  0  0  0  0
  160.4750  205.4910  151.0600 C   0  0  0  0  0  1  0  0  0  0  0  0
  156.6450  214.1160  155.1000 C   0  0  0  0  0  2  0  0  0  0  0  0
  155.0070  214.2480  153.2310 C   0  0  0  0  0  1  0  0  0  0  0  0
  155.2580  213.7200  154.6320 C   0  0  0  0  0  2  0  0  0  0  0  0
  162.5320  210.7010  149.6780 C   0  0  0  0  0  2  0  0  0  0  0  0
  161.8600  209.8820  148.6830 N   0  0  0  0  0  2  0  0  0  0  0  0
  161.2740  207.7000  147.6890 N   0  0  0  0  0  2  0  0  0  0  0  0
  161.8810  208.4550  148.7420 C   0  0  0  0  0  0  0  0  0  0  0  0
  162.4380  207.8670  149.7080 O   0  0  0  0  0  0  0  0  0  0  0  0
  161.2280  206.2450  147.6980 C   0  0  0  0  0  2  0  0  0  0  0  0
  162.6650  204.3480  147.0760 O   0  0  0  0  0  0  0  0  0  0  0  0
  162.2850  205.6760  146.7500 C   0  0  1  0  0  3  0  0  0  0  0  0
  161.8860  205.8170  145.2750 C   0  0  0  0  0  2  0  0  0  0  0  0
  160.8130  204.7980  144.9080 C   0  0  0  0  0  2  0  0  0  0  0  0
  161.2320  203.4090  145.3700 C   0  0  0  0  0  2  0  0  0  0  0  0
  161.5780  203.4740  146.8550 C   0  0  0  0  0  2  0  0  0  0  0  0
  1 12  1  0  0  0  0
  1 10  1  0  0  0  0
  2  5  1  0  0  0  0
  2  4  1  0  0  0  0
  3 11  2  0  0  0  0
  3  7  1  0  0  0  0
  4  1  2  0  0  0  0
  5  8  1  0  0  0  0
  6  9  1  0  0  0  0
  6  5  2  0  0  0  0
  7  2  2  0  0  0  0
  8 12  2  0  0  0  0
  9 13  2  0  0  0  0
 11  6  1  0  0  0  0
 13  8  1  0  0  0  0
 13 14  1  0  0  0  0
 14 15  2  0  0  0  0
 16 14  1  0  0  0  0
 16 17  1  6  0  0  0
 18 16  1  0  0  0  0
 19 18  1  0  0  0  0
 20 21  1  0  0  0  0
 21 19  1  0  0  0  0
 22 21  1  0  0  0  0
 23 21  1  0  0  0  0
 24 10  1  0  0  0  0
 25 26  1  0  0  0  0
 26 24  1  0  0  0  0
 27 11  1  0  0  0  0
 28 30  1  0  0  0  0
 28 27  1  0  0  0  0
 29 32  1  0  0  0  0
 29 30  1  0  0  0  0
 30 31  2  0  0  0  0
 34 33  1  0  0  0  0
 34 32  1  1  0  0  0
 35 34  1  0  0  0  0
 36 35  1  0  0  0  0
 36 37  1  0  0  0  0
 37 38  1  0  0  0  0
 38 33  1  0  0  0  0
M  END
>  <MODEL>
5

>  <REMARK>
 VINA RESULT:      -7.8      2.340      9.516
  Name = 
  11 active torsions:
  status: ('A' for Active; 'I' for Inactive)
    1  A    between atoms: C_1  and  C_6
    2  A    between atoms: C_1  and  C_36
    3  A    between atoms: N_4  and  C_38
    4  A    between atoms: C_6  and  C_10
    5  A    between atoms: C_7  and  C_22
    6  A    between atoms: N_9  and  C_10
    7  A    between atoms: N_9  and  C_11
    8  A    between atoms: N_12  and  C_22
    9  A    between atoms: N_28  and  C_34
   10  A    between atoms: C_30  and  C_38
   11  A    between atoms: C_34  and  C_37
                            x       y       z     vdW  Elec       q    Type
                         _______ _______ _______ _____ _____    ______ ____

>  <TORSDO>
F 11

$$$$
=
 OpenBabel11042422443D

 38 41  0  0  1  0  0  0  0  0999 V2000
  161.8430  210.1910  150.3290 C   0  0  0  0  0  0  0  0  0  0  0  0
  161.5870  207.7830  150.1920 C   0  0  0  0  0  0  0  0  0  0  0  0
  161.3380  205.2320  150.1980 C   0  0  0  0  0  3  0  0  0  0  0  0
  161.8350  209.0810  149.6210 N   0  0  0  0  0  0  0  0  0  0  0  0
  161.3590  207.7130  151.4820 C   0  0  0  0  0  0  0  0  0  0  0  0
  161.1470  206.5270  152.2260 C   0  0  0  0  0  0  0  0  0  0  0  0
  161.6160  206.5000  149.3790 C   0  0  0  0  0  3  0  0  0  0  0  0
  161.3540  208.8200  152.3590 C   0  0  0  0  0  0  0  0  0  0  0  0
  161.0160  206.8520  153.5140 C   0  0  0  0  0  3  0  0  0  0  0  0
  162.0990  211.4410  149.6860 N   0  0  0  0  0  2  0  0  0  0  0  0
  161.1340  205.2360  151.5320 C   0  0  0  0  0  0  0  0  0  0  0  0
  161.5940  210.2050  151.8380 C   0  0  0  0  0  3  0  0  0  0  0  0
  161.1510  208.3380  153.5890 C   0  0  0  0  0  0  0  0  0  0  0  0
  161.1030  209.1290  154.8310 C   0  0  0  0  0  0  0  0  0  0  0  0
  162.0570  209.8970  155.1350 O   0  0  0  0  0  0  0  0  0  0  0  0
  159.9290  209.0000  155.7530 C   0  0  1  0  0  3  0  0  0  0  0  0
  160.2920  208.1050  156.9260 C   0  0  0  0  0  1  0  0  0  0  0  0
  159.4880  210.3690  156.2460 C   0  0  0  0  0  2  0  0  0  0  0  0
  158.2050  210.7320  155.6460 N   0  0  0  0  0  2  0  0  0  0  0  0
  159.5960  212.6990  155.1530 C   0  0  0  0  0  1  0  0  0  0  0  0
  158.3600  211.8980  154.7730 C   0  0  0  0  0  0  0  0  0  0  0  0
  157.2290  212.7160  154.8410 O   0  0  0  0  0  1  0  0  0  0  0  0
  158.5260  211.4170  153.3460 C   0  0  0  0  0  1  0  0  0  0  0  0
  162.3850  211.5440  148.2630 C   0  0  0  0  0  2  0  0  0  0  0  0
  161.5060  213.8700  148.3480 C   0  0  0  0  0  1  0  0  0  0  0  0
  162.6540  212.9890  147.8910 C   0  0  0  0  0  2  0  0  0  0  0  0
  160.8560  203.9660  152.2580 C   0  0  0  0  0  2  0  0  0  0  0  0
  161.4000  202.8450  151.5100 N   0  0  0  0  0  2  0  0  0  0  0  0
  161.2940  201.1760  149.6940 N   0  0  0  0  0  2  0  0  0  0  0  0
  160.7580  202.3350  150.3410 C   0  0  0  0  0  0  0  0  0  0  0  0
  159.7230  202.8960  149.8890 O   0  0  0  0  0  0  0  0  0  0  0  0
  160.7120  200.6210  148.4810 C   0  0  0  0  0  2  0  0  0  0  0  0
  161.1900  200.2210  146.1010 O   0  0  0  0  0  0  0  0  0  0  0  0
  161.6790  200.7890  147.3060 C   0  0  1  0  0  3  0  0  0  0  0  0
  162.1270  202.2440  147.1190 C   0  0  0  0  0  2  0  0  0  0  0  0
  161.0120  203.0750  146.4950 C   0  0  0  0  0  2  0  0  0  0  0  0
  160.4600  202.3690  145.2650 C   0  0  0  0  0  2  0  0  0  0  0  0
  160.0640  200.9490  145.6550 C   0  0  0  0  0  2  0  0  0  0  0  0
  1 12  1  0  0  0  0
  2  5  1  0  0  0  0
  3 11  2  0  0  0  0
  4  2  1  0  0  0  0
  4  1  2  0  0  0  0
  5  6  2  0  0  0  0
  5  8  1  0  0  0  0
  6  9  1  0  0  0  0
  7  2  2  0  0  0  0
  7  3  1  0  0  0  0
  8 13  1  0  0  0  0
  9 13  2  0  0  0  0
 10  1  1  0  0  0  0
 11  6  1  0  0  0  0
 11 27  1  0  0  0  0
 12  8  2  0  0  0  0
 13 14  1  0  0  0  0
 14 15  2  0  0  0  0
 14 16  1  0  0  0  0
 16 18  1  0  0  0  0
 16 17  1  1  0  0  0
 19 18  1  0  0  0  0
 21 22  1  0  0  0  0
 21 20  1  0  0  0  0
 21 19  1  0  0  0  0
 23 21  1  0  0  0  0
 24 10  1  0  0  0  0
 26 24  1  0  0  0  0
 26 25  1  0  0  0  0
 28 27  1  0  0  0  0
 29 30  1  0  0  0  0
 30 28  1  0  0  0  0
 31 30  2  0  0  0  0
 32 29  1  0  0  0  0
 33 34  1  0  0  0  0
 34 32  1  1  0  0  0
 35 34  1  0  0  0  0
 36 35  1  0  0  0  0
 37 38  1  0  0  0  0
 37 36  1  0  0  0  0
 38 33  1  0  0  0  0
M  END
>  <MODEL>
6

>  <REMARK>
 VINA RESULT:      -7.7      2.486      8.259
  Name = 
  11 active torsions:
  status: ('A' for Active; 'I' for Inactive)
    1  A    between atoms: C_1  and  C_6
    2  A    between atoms: C_1  and  C_36
    3  A    between atoms: N_4  and  C_38
    4  A    between atoms: C_6  and  C_10
    5  A    between atoms: C_7  and  C_22
    6  A    between atoms: N_9  and  C_10
    7  A    between atoms: N_9  and  C_11
    8  A    between atoms: N_12  and  C_22
    9  A    between atoms: N_28  and  C_34
   10  A    between atoms: C_30  and  C_38
   11  A    between atoms: C_34  and  C_37
                            x       y       z     vdW  Elec       q    Type
                         _______ _______ _______ _____ _____    ______ ____

>  <TORSDO>
F 11

$$$$
=
 OpenBabel11042422443D

 38 41  0  0  1  0  0  0  0  0999 V2000
  161.7810  206.0260  147.6040 C   0  0  0  0  0  0  0  0  0  0  0  0
  161.8810  208.0460  148.9440 C   0  0  0  0  0  0  0  0  0  0  0  0
  161.9240  210.1020  150.4740 C   0  0  0  0  0  3  0  0  0  0  0  0
  161.9020  207.3350  147.6920 N   0  0  0  0  0  0  0  0  0  0  0  0
  161.7340  207.3480  150.0440 C   0  0  0  0  0  0  0  0  0  0  0  0
  161.6390  207.8730  151.3560 C   0  0  2  0  0  3  0  0  0  0  0  0
  161.9830  209.5580  149.0390 C   0  0  0  0  0  3  0  0  0  0  0  0
  161.5770  205.9440  150.0920 C   0  0  0  0  0  0  0  0  0  0  0  0
  161.4290  206.8630  152.2030 C   0  0  0  0  0  3  0  0  0  0  0  0
  161.8110  205.3960  146.3230 N   0  0  0  0  0  2  0  0  0  0  0  0
  161.7470  209.3210  151.5600 C   0  0  0  0  0  0  0  0  0  0  0  0
  161.5990  205.1330  148.8320 C   0  0  0  0  0  2  0  0  0  0  0  0
  161.3920  205.6200  151.3750 C   0  0  0  0  0  0  0  0  0  0  0  0
  161.1510  204.2630  151.8990 C   0  0  0  0  0  0  0  0  0  0  0  0
  160.6040  204.1040  153.0240 O   0  0  0  0  0  0  0  0  0  0  0  0
  161.5830  203.0690  151.1050 C   0  0  1  0  0  3  0  0  0  0  0  0
  162.2920  202.0780  152.0110 C   0  0  0  0  0  1  0  0  0  0  0  0
  160.3860  202.4150  150.4350 C   0  0  0  0  0  2  0  0  0  0  0  0
  160.7870  201.1650  149.7920 N   0  0  0  0  0  2  0  0  0  0  0  0
  161.5810  200.1560  147.6940 C   0  0  0  0  0  1  0  0  0  0  0  0
  160.8860  201.3450  148.3410 C   0  0  0  0  0  0  0  0  0  0  0  0
  161.5810  202.5190  148.0390 O   0  0  0  0  0  1  0  0  0  0  0  0
  159.4880  201.4480  147.7680 C   0  0  0  0  0  1  0  0  0  0  0  0
  161.9420  206.1480  145.0840 C   0  0  0  0  0  2  0  0  0  0  0  0
  160.4570  204.2360  144.5100 C   0  0  0  0  0  1  0  0  0  0  0  0
  161.2060  205.4380  143.9640 C   0  0  0  0  0  2  0  0  0  0  0  0
  161.7140  209.9180  152.9240 C   0  0  0  0  0  2  0  0  0  0  0  0
  160.9320  211.1440  152.9030 N   0  0  0  0  0  2  0  0  0  0  0  0
  159.3120  212.7140  153.9030 N   0  0  0  0  0  2  0  0  0  0  0  0
  160.1260  211.5420  154.0120 C   0  0  0  0  0  0  0  0  0  0  0  0
  160.1250  210.8620  155.0740 O   0  0  0  0  0  0  0  0  0  0  0  0
  158.4910  213.1980  155.0030 C   0  0  0  0  0  2  0  0  0  0  0  0
  156.5630  211.8280  154.3270 O   0  0  0  0  0  0  0  0  0  0  0  0
  157.0100  213.1420  154.6230 C   0  0  1  0  0  3  0  0  0  0  0  0
  156.1130  213.8370  155.6560 C   0  0  0  0  0  2  0  0  0  0  0  0
  155.9640  212.9780  156.9060 C   0  0  0  0  0  2  0  0  0  0  0  0
  155.5810  211.5560  156.5190 C   0  0  0  0  0  2  0  0  0  0  0  0
  156.5910  211.0400  155.4990 C   0  0  0  0  0  2  0  0  0  0  0  0
  1  4  2  0  0  0  0
  1 12  1  0  0  0  0
  2  7  2  0  0  0  0
  2  5  1  0  0  0  0
  3 11  2  0  0  0  0
  4  2  1  0  0  0  0
  5  8  2  0  0  0  0
  5  6  1  0  0  0  0
  6 11  1  0  0  0  0
  6  9  1  6  0  0  0
  7  3  1  0  0  0  0
  8 13  1  0  0  0  0
 10  1  1  0  0  0  0
 11 27  1  0  0  0  0
 12  8  1  0  0  0  0
 13 14  1  0  0  0  0
 13  9  2  0  0  0  0
 14 15  2  0  0  0  0
 16 14  1  0  0  0  0
 16 17  1  1  0  0  0
 18 16  1  0  0  0  0
 19 18  1  0  0  0  0
 20 21  1  0  0  0  0
 21 19  1  0  0  0  0
 22 21  1  0  0  0  0
 23 21  1  0  0  0  0
 24 10  1  0  0  0  0
 26 25  1  0  0  0  0
 26 24  1  0  0  0  0
 28 27  1  0  0  0  0
 28 30  1  0  0  0  0
 29 30  1  0  0  0  0
 29 32  1  0  0  0  0
 30 31  2  0  0  0  0
 33 34  1  0  0  0  0
 33 38  1  0  0  0  0
 34 32  1  1  0  0  0
 34 35  1  0  0  0  0
 35 36  1  0  0  0  0
 37 36  1  0  0  0  0
 38 37  1  0  0  0  0
M  END
>  <MODEL>
7

>  <REMARK>
 VINA RESULT:      -7.2      2.630      5.948
  Name = 
  11 active torsions:
  status: ('A' for Active; 'I' for Inactive)
    1  A    between atoms: C_1  and  C_6
    2  A    between atoms: C_1  and  C_36
    3  A    between atoms: N_4  and  C_38
    4  A    between atoms: C_6  and  C_10
    5  A    between atoms: C_7  and  C_22
    6  A    between atoms: N_9  and  C_10
    7  A    between atoms: N_9  and  C_11
    8  A    between atoms: N_12  and  C_22
    9  A    between atoms: N_28  and  C_34
   10  A    between atoms: C_30  and  C_38
   11  A    between atoms: C_34  and  C_37
                            x       y       z     vdW  Elec       q    Type
                         _______ _______ _______ _____ _____    ______ ____

>  <TORSDO>
F 11

$$$$
=
 OpenBabel11042422443D

 38 41  0  0  1  0  0  0  0  0999 V2000
  161.2630  205.2800  149.6350 C   0  0  0  0  0  0  0  0  0  0  0  0
  161.1870  206.0570  151.9320 C   0  0  0  0  0  0  0  0  0  0  0  0
  161.1710  207.0090  154.3120 C   0  0  0  0  0  3  0  0  0  0  0  0
  161.1480  205.0310  150.9240 N   0  0  0  0  0  0  0  0  0  0  0  0
  161.3450  207.2990  151.5380 C   0  0  0  0  0  0  0  0  0  0  0  0
  161.4590  208.4310  152.3820 C   0  0  0  0  0  0  0  0  0  0  0  0
  161.0920  205.7630  153.4190 C   0  0  0  0  0  2  0  0  0  0  0  0
  161.4970  207.7040  150.1930 C   0  0  0  0  0  0  0  0  0  0  0  0
  161.6760  209.5060  151.6220 C   0  0  0  0  0  3  0  0  0  0  0  0
  161.2150  204.2040  148.6980 N   0  0  0  0  0  2  0  0  0  0  0  0
  161.3590  208.2570  153.8350 C   0  0  0  0  0  0  0  0  0  0  0  0
  161.4570  206.6950  149.0860 C   0  0  0  0  0  2  0  0  0  0  0  0
  161.6980  209.0240  150.2080 C   0  0  0  0  0  0  0  0  0  0  0  0
  161.9400  209.8760  149.0290 C   0  0  0  0  0  0  0  0  0  0  0  0
  161.9650  209.3710  147.8740 O   0  0  0  0  0  0  0  0  0  0  0  0
  162.1870  211.3420  149.2060 C   0  0  1  0  0  3  0  0  0  0  0  0
  163.2370  211.8110  148.2130 C   0  0  0  0  0  1  0  0  0  0  0  0
  160.8960  212.1240  149.0240 C   0  0  0  0  0  2  0  0  0  0  0  0
  160.5710  212.2370  147.6020 N   0  0  0  0  0  2  0  0  0  0  0  0
  159.4590  214.1990  148.5830 C   0  0  0  0  0  1  0  0  0  0  0  0
  159.9900  213.5510  147.3140 C   0  0  0  0  0  0  0  0  0  0  0  0
  158.9620  213.4380  146.3750 O   0  0  0  0  0  1  0  0  0  0  0  0
  161.0720  214.4440  146.7410 C   0  0  0  0  0  1  0  0  0  0  0  0
  161.0710  202.8150  149.1080 C   0  0  0  0  0  2  0  0  0  0  0  0
  161.1710  202.1510  146.7120 C   0  0  0  0  0  1  0  0  0  0  0  0
  160.3960  202.0170  148.0100 C   0  0  0  0  0  2  0  0  0  0  0  0
  161.4110  209.4210  154.7620 C   0  0  0  0  0  2  0  0  0  0  0  0
  160.0760  209.7090  155.2610 N   0  0  0  0  0  2  0  0  0  0  0  0
  158.4630  211.1180  156.4880 N   0  0  0  0  0  2  0  0  0  0  0  0
  159.7730  210.9260  155.9430 C   0  0  0  0  0  0  0  0  0  0  0  0
  160.6540  211.8190  156.0730 O   0  0  0  0  0  0  0  0  0  0  0  0
  158.0730  212.3460  157.1660 C   0  0  0  0  0  2  0  0  0  0  0  0
  156.6940  214.1530  156.2250 O   0  0  0  0  0  0  0  0  0  0  0  0
  156.6990  212.8070  156.6750 C   0  0  1  0  0  3  0  0  0  0  0  0
  156.0940  211.8500  155.6400 C   0  0  0  0  0  2  0  0  0  0  0  0
  156.7810  212.0130  154.2890 C   0  0  0  0  0  2  0  0  0  0  0  0
  156.8340  213.4860  153.9050 C   0  0  0  0  0  2  0  0  0  0  0  0
  157.4730  214.2640  155.0510 C   0  0  0  0  0  2  0  0  0  0  0  0
  1  4  2  0  0  0  0
  2  7  1  0  0  0  0
  4  2  1  0  0  0  0
  5  2  2  0  0  0  0
  5  6  1  0  0  0  0
  6 11  1  0  0  0  0
  7  3  1  0  0  0  0
  8 13  2  0  0  0  0
  8  5  1  0  0  0  0
  9  6  2  0  0  0  0
 10 24  1  0  0  0  0
 10  1  1  0  0  0  0
 11  3  2  0  0  0  0
 11 27  1  0  0  0  0
 12  1  1  0  0  0  0
 12  8  1  0  0  0  0
 13  9  1  0  0  0  0
 14 16  1  0  0  0  0
 14 13  1  0  0  0  0
 15 14  2  0  0  0  0
 16 17  1  6  0  0  0
 18 16  1  0  0  0  0
 19 18  1  0  0  0  0
 21 19  1  0  0  0  0
 21 20  1  0  0  0  0
 22 21  1  0  0  0  0
 23 21  1  0  0  0  0
 25 26  1  0  0  0  0
 26 24  1  0  0  0  0
 27 28  1  0  0  0  0
 28 30  1  0  0  0  0
 29 32  1  0  0  0  0
 30 31  2  0  0  0  0
 30 29  1  0  0  0  0
 33 34  1  0  0  0  0
 34 32  1  6  0  0  0
 35 34  1  0  0  0  0
 36 35  1  0  0  0  0
 37 36  1  0  0  0  0
 37 38  1  0  0  0  0
 38 33  1  0  0  0  0
M  END
>  <MODEL>
8

>  <REMARK>
 VINA RESULT:      -7.0      1.789      2.923
  Name = 
  11 active torsions:
  status: ('A' for Active; 'I' for Inactive)
    1  A    between atoms: C_1  and  C_6
    2  A    between atoms: C_1  and  C_36
    3  A    between atoms: N_4  and  C_38
    4  A    between atoms: C_6  and  C_10
    5  A    between atoms: C_7  and  C_22
    6  A    between atoms: N_9  and  C_10
    7  A    between atoms: N_9  and  C_11
    8  A    between atoms: N_12  and  C_22
    9  A    between atoms: N_28  and  C_34
   10  A    between atoms: C_30  and  C_38
   11  A    between atoms: C_34  and  C_37
                            x       y       z     vdW  Elec       q    Type
                         _______ _______ _______ _____ _____    ______ ____

>  <TORSDO>
F 11

$$$$
=
 OpenBabel11042422443D

 38 41  0  0  1  0  0  0  0  0999 V2000
  158.7360  212.1120  154.1620 C   0  0  0  0  0  0  0  0  0  0  0  0
  159.6930  212.6960  152.0100 C   0  0  0  0  0  0  0  0  0  0  0  0
  160.8030  213.1980  149.7560 C   0  0  0  0  0  3  0  0  0  0  0  0
  158.9010  212.9740  153.1790 N   0  0  0  0  0  0  0  0  0  0  0  0
  160.2750  211.5230  151.9280 C   0  0  0  0  0  0  0  0  0  0  0  0
  161.1300  211.0900  150.8850 C   0  0  0  0  0  0  0  0  0  0  0  0
  159.9120  213.7060  150.8970 C   0  0  0  0  0  3  0  0  0  0  0  0
  160.1950  210.5140  152.9140 C   0  0  0  0  0  0  0  0  0  0  0  0
  161.5790  209.8690  151.1840 C   0  0  0  0  0  3  0  0  0  0  0  0
  157.9350  212.4660  155.2890 N   0  0  0  0  0  2  0  0  0  0  0  0
  161.3890  211.9830  149.7510 C   0  0  0  0  0  0  0  0  0  0  0  0
  159.3810  210.7250  154.1550 C   0  0  0  0  0  3  0  0  0  0  0  0
  160.9670  209.5060  152.4980 C   0  0  0  0  0  0  0  0  0  0  0  0
  161.2150  208.2480  153.2260 C   0  0  0  0  0  0  0  0  0  0  0  0
  161.0830  208.2020  154.4790 O   0  0  0  0  0  0  0  0  0  0  0  0
  161.6530  207.0270  152.4780 C   0  0  1  0  0  3  0  0  0  0  0  0
  161.3810  205.7870  153.3120 C   0  0  0  0  0  1  0  0  0  0  0  0
  160.9340  206.9360  151.1420 C   0  0  0  0  0  2  0  0  0  0  0  0
  161.4750  205.8320  150.3510 N   0  0  0  0  0  2  0  0  0  0  0  0
  162.2070  207.1870  148.4330 C   0  0  0  0  0  1  0  0  0  0  0  0
  161.2800  206.0840  148.9200 C   0  0  0  0  0  0  0  0  0  0  0  0
  159.9530  206.4350  148.6610 O   0  0  0  0  0  1  0  0  0  0  0  0
  161.6050  204.8180  148.1560 C   0  0  0  0  0  1  0  0  0  0  0  0
  157.3030  213.7700  155.4210 C   0  0  0  0  0  2  0  0  0  0  0  0
  155.6850  212.2250  156.5120 C   0  0  0  0  0  1  0  0  0  0  0  0
  156.1020  213.6750  156.3430 C   0  0  0  0  0  2  0  0  0  0  0  0
  162.2310  211.5530  148.6000 C   0  0  0  0  0  2  0  0  0  0  0  0
  162.3360  212.6380  147.6390 N   0  0  0  0  0  2  0  0  0  0  0  0
  161.6410  213.7970  145.5740 N   0  0  0  0  0  2  0  0  0  0  0  0
  161.4370  212.7570  146.5360 C   0  0  0  0  0  0  0  0  0  0  0  0
  160.4780  211.9490  146.4070 O   0  0  0  0  0  0  0  0  0  0  0  0
  160.7460  214.0000  144.4440 C   0  0  0  0  0  2  0  0  0  0  0  0
  160.2350  213.1530  142.1920 O   0  0  0  0  0  0  0  0  0  0  0  0
  161.0200  212.9590  143.3570 C   0  0  1  0  0  3  0  0  0  0  0  0
  162.5140  212.8310  143.0320 C   0  0  0  0  0  2  0  0  0  0  0  0
  162.9880  214.0180  142.2020 C   0  0  0  0  0  2  0  0  0  0  0  0
  162.0510  214.2390  141.0230 C   0  0  0  0  0  2  0  0  0  0  0  0
  160.6240  214.3490  141.5500 C   0  0  0  0  0  2  0  0  0  0  0  0
  1 10  1  0  0  0  0
  2  4  1  0  0  0  0
  3  7  1  0  0  0  0
  4  1  2  0  0  0  0
  5  2  1  0  0  0  0
  5  8  1  0  0  0  0
  6  9  1  0  0  0  0
  6  5  2  0  0  0  0
  7  2  2  0  0  0  0
  8 12  2  0  0  0  0
  9 13  2  0  0  0  0
 10 24  1  0  0  0  0
 11  3  2  0  0  0  0
 11  6  1  0  0  0  0
 12  1  1  0  0  0  0
 13  8  1  0  0  0  0
 13 14  1  0  0  0  0
 14 15  2  0  0  0  0
 16 14  1  0  0  0  0
 16 17  1  1  0  0  0
 18 16  1  0  0  0  0
 19 18  1  0  0  0  0
 20 21  1  0  0  0  0
 21 19  1  0  0  0  0
 22 21  1  0  0  0  0
 23 21  1  0  0  0  0
 24 26  1  0  0  0  0
 26 25  1  0  0  0  0
 27 11  1  0  0  0  0
 28 27  1  0  0  0  0
 29 30  1  0  0  0  0
 30 28  1  0  0  0  0
 31 30  2  0  0  0  0
 32 29  1  0  0  0  0
 33 34  1  0  0  0  0
 34 32  1  1  0  0  0
 35 34  1  0  0  0  0
 36 35  1  0  0  0  0
 37 38  1  0  0  0  0
 37 36  1  0  0  0  0
 38 33  1  0  0  0  0
M  END
>  <MODEL>
9

>  <REMARK>
 VINA RESULT:      -6.6      2.985      9.764
  Name = 
  11 active torsions:
  status: ('A' for Active; 'I' for Inactive)
    1  A    between atoms: C_1  and  C_6
    2  A    between atoms: C_1  and  C_36
    3  A    between atoms: N_4  and  C_38
    4  A    between atoms: C_6  and  C_10
    5  A    between atoms: C_7  and  C_22
    6  A    between atoms: N_9  and  C_10
    7  A    between atoms: N_9  and  C_11
    8  A    between atoms: N_12  and  C_22
    9  A    between atoms: N_28  and  C_34
   10  A    between atoms: C_30  and  C_38
   11  A    between atoms: C_34  and  C_37
                            x       y       z     vdW  Elec       q    Type
                         _______ _______ _______ _____ _____    ______ ____

>  <TORSDO>
F 11

$$$$
