=
 OpenBabel11042420533D

 52 59  0  0  1  0  0  0  0  0999 V2000
  161.0490  211.7230  151.0760 C   0  0  0  0  0  3  0  0  0  0  0  0
  158.5370  212.6780  152.5500 C   0  0  0  0  0  0  0  0  0  0  0  0
  158.9340  212.9950  151.3380 C   0  0  0  0  0  0  0  0  0  0  0  0
  161.6930  210.4260  156.2230 C   0  0  2  0  0  3  0  0  0  0  0  0
  160.4910  212.2110  156.1710 C   0  0  1  0  0  3  0  0  0  0  0  0
  160.0630  210.6710  154.3770 C   0  0  1  0  0  3  0  0  0  0  0  0
  163.0700  210.5860  156.3750 O   0  0  0  0  0  1  0  0  0  0  0  0
  161.1960  211.3480  155.1220 C   0  0  2  0  0  3  0  0  0  0  0  0
  158.8600  211.4650  154.6140 N   0  0  0  0  0  0  0  0  0  0  0  0
  157.5310  213.4550  154.5700 C   0  0  0  0  0  2  0  0  0  0  0  0
  160.4050  213.0780  151.0570 C   0  0  0  0  0  2  0  0  0  0  0  0
  158.3060  213.4170  155.8780 C   0  0  0  0  0  2  0  0  0  0  0  0
  160.7590  210.8980  152.0420 C   0  0  0  0  0  0  0  0  0  0  0  0
  158.9850  212.0500  155.9320 C   0  0  2  0  0  3  0  0  0  0  0  0
  160.3370  210.1230  153.0070 C   0  0  0  0  0  0  0  0  0  0  0  0
  160.9690  211.2680  157.2610 C   0  0  0  0  0  2  0  0  0  0  0  0
  158.1620  212.3870  153.7670 C   0  0  0  0  0  0  0  0  0  0  0  0
  160.4020  208.2900  151.3990 N   0  0  0  0  0  0  0  0  0  0  0  0
  161.1210  207.8240  153.5210 C   0  0  0  0  0  0  0  0  0  0  0  0
  161.8360  207.1060  152.7240 N   0  0  0  0  0  0  0  0  0  0  0  0
  161.2560  207.7630  155.0030 C   0  0  0  0  0  1  0  0  0  0  0  0
  160.1220  208.6530  152.7820 C   0  0  1  0  0  3  0  0  0  0  0  0
  161.3570  207.4190  151.4210 C   0  0  0  0  0  0  0  0  0  0  0  0
  161.6220  207.7020  148.9590 C   0  0  0  0  0  0  0  0  0  0  0  0
  161.5140  205.4020  150.0220 C   0  0  0  0  0  2  0  0  0  0  0  0
  161.3520  207.0730  147.6990 N   0  0  0  0  0  2  0  0  0  0  0  0
  161.9570  206.8590  150.1710 C   0  0  2  0  0  3  0  0  0  0  0  0
  161.0350  205.6550  147.5910 C   0  0  0  0  0  2  0  0  0  0  0  0
  161.9830  209.2990  148.9640 S   0  0  0  0  0  0  0  0  0  0  0  0
  161.8320  204.8590  148.6340 C   0  0  2  0  0  3  0  0  0  0  0  0
  161.7990  200.7550  147.6990 O   0  0  0  0  0  0  0  0  0  0  0  0
  160.5770  201.4900  149.6200 C   0  0  0  0  0  2  0  0  0  0  0  0
  160.8610  201.5630  147.0300 C   0  0  1  0  0  3  0  0  0  0  0  0
  160.5020  200.7830  148.2600 C   0  0  1  0  0  3  0  0  0  0  0  0
  161.1730  203.0600  147.2200 C   0  0  0  0  0  2  0  0  0  0  0  0
  161.5980  203.4080  148.5750 N   0  0  2  0  0  0  0  0  0  0  0  0
  160.5450  203.0000  149.4980 C   0  0  0  0  0  2  0  0  0  0  0  0
  158.3210  213.7970  149.1100 C   0  0  0  0  0  0  0  0  0  0  0  0
  158.6830  214.3650  147.9910 C   0  0  0  0  0  3  0  0  0  0  0  0
  157.9800  213.2190  150.2360 C   0  0  0  0  0  3  0  0  0  0  0  0
  161.1680  214.4530  148.2460 C   0  0  0  0  0  1  0  0  0  0  0  0
  160.0000  214.0330  147.3620 C   0  0  1  0  0  3  0  0  0  0  0  0
  160.0960  212.5530  146.9940 C   0  0  0  0  0  2  0  0  0  0  0  0
  159.6060  212.2640  145.5780 C   0  0  2  0  0  3  0  0  0  0  0  0
  160.0200  214.4210  143.7500 O   0  0  0  0  0  0  0  0  0  0  0  0
  160.7330  213.0110  144.3640 P   0  0  1  0  0  0  0  0  0  0  0  0
  162.0360  213.3660  145.0470 O   0  0  0  0  0  1  0  0  0  0  0  0
  160.1410  212.2840  142.0800 C   0  0  0  0  0  1  0  0  0  0  0  0
  161.0170  211.9110  143.1040 O   0  0  0  0  0  0  0  0  0  0  0  0
  158.2150  212.7770  145.3950 C   0  0  0  0  0  0  0  0  0  0  0  0
  157.1570  212.2300  146.1130 O   0  0  0  0  0  1  0  0  0  0  0  0
  158.0000  213.7210  144.5890 O   0  0  0  0  0  0  0  0  0  0  0  0
  1 13  2  0  0  0  0
  2 17  2  0  0  0  0
  3  2  2  0  0  0  0
  4  7  1  1  0  0  0
  4 16  1  0  0  0  0
  5 16  1  1  0  0  0
  6 15  1  6  0  0  0
  6  9  1  0  0  0  0
  6  8  1  0  0  0  0
  8  5  1  0  0  0  0
  8  4  1  0  0  0  0
  9 14  1  0  0  0  0
 10 12  1  0  0  0  0
 11  1  1  0  0  0  0
 11  3  1  0  0  0  0
 12 14  1  0  0  0  0
 13 15  2  0  0  0  0
 14  5  1  0  0  0  0
 17 10  1  0  0  0  0
 17  9  1  0  0  0  0
 18 23  2  0  0  0  0
 18 22  1  0  0  0  0
 19 21  1  0  0  0  0
 20 19  2  0  0  0  0
 22 15  1  0  0  0  0
 22 19  1  0  0  0  0
 23 20  1  0  0  0  0
 24 29  2  0  0  0  0
 24 27  1  0  0  0  0
 25 27  1  0  0  0  0
 26 24  1  0  0  0  0
 27 23  1  0  0  0  0
 28 26  1  0  0  0  0
 28 30  1  0  0  0  0
 30 25  1  0  0  0  0
 31 34  1  0  0  0  0
 33 35  1  0  0  0  0
 33 31  1  0  0  0  0
 33 34  1  0  0  0  0
 34 32  1  0  0  0  0
 35 36  1  0  0  0  0
 36 30  1  0  0  0  0
 36 37  1  0  0  0  0
 37 32  1  0  0  0  0
 38 40  2  0  0  0  0
 39 38  2  0  0  0  0
 40  3  1  0  0  0  0
 42 39  1  0  0  0  0
 42 41  1  0  0  0  0
 43 42  1  0  0  0  0
 44 43  1  0  0  0  0
 45 46  2  0  0  0  0
 46 47  1  0  0  0  0
 46 44  1  0  0  0  0
 48 49  1  0  0  0  0
 49 46  1  0  0  0  0
 50 44  1  0  0  0  0
 50 51  1  0  0  0  0
 52 50  2  0  0  0  0
M  END
>  <MODEL>
1

>  <REMARK>
 VINA RESULT:      -7.6      0.000      0.000
  Name = 
  10 active torsions:
  status: ('A' for Active; 'I' for Inactive)
    1  A    between atoms: C_8  and  C_33
    2  A    between atoms: C_9  and  C_35
    3  A    between atoms: P_23  and  C_35
    4  A    between atoms: P_23  and  O_49
    5  A    between atoms: C_25  and  C_30
    6  A    between atoms: C_25  and  C_45
    7  A    between atoms: C_28  and  C_43
    8  A    between atoms: C_35  and  C_45
    9  A    between atoms: C_36  and  C_44
   10  A    between atoms: C_46  and  N_48
                            x       y       z     vdW  Elec       q    Type
                         _______ _______ _______ _____ _____    ______ ____

>  <TORSDO>
F 10

$$$$
=
 OpenBabel11042420533D

 52 59  0  0  1  0  0  0  0  0999 V2000
  159.6440  209.4820  151.6160 C   0  0  0  0  0  3  0  0  0  0  0  0
  161.6170  209.0510  153.9220 C   0  0  0  0  0  0  0  0  0  0  0  0
  161.5730  208.4270  152.7670 C   0  0  0  0  0  0  0  0  0  0  0  0
  157.5960  211.9650  155.8860 C   0  0  2  0  0  3  0  0  0  0  0  0
  158.7280  210.2870  156.6190 C   0  0  1  0  0  3  0  0  0  0  0  0
  159.6760  211.3620  154.6900 C   0  0  1  0  0  3  0  0  0  0  0  0
  156.2290  211.7760  155.6830 O   0  0  0  0  0  1  0  0  0  0  0  0
  158.3660  210.8300  155.2340 C   0  0  2  0  0  3  0  0  0  0  0  0
  160.7470  210.7140  155.4430 N   0  0  0  0  0  0  0  0  0  0  0  0
  161.9950  208.8460  156.2700 C   0  0  0  0  0  2  0  0  0  0  0  0
  160.2400  208.2010  152.1170 C   0  0  0  0  0  2  0  0  0  0  0  0
  160.8820  209.1620  157.2570 C   0  0  0  0  0  2  0  0  0  0  0  0
  159.6650  210.5340  152.3870 C   0  0  0  0  0  0  0  0  0  0  0  0
  160.2420  210.4630  156.7770 C   0  0  2  0  0  3  0  0  0  0  0  0
  159.8120  211.5420  153.2070 C   0  0  0  0  0  0  0  0  0  0  0  0
  157.9790  211.4420  157.2610 C   0  0  0  0  0  2  0  0  0  0  0  0
  161.6380  209.6500  155.0830 C   0  0  0  0  0  0  0  0  0  0  0  0
  159.9810  212.9760  151.2410 N   0  0  0  0  0  0  0  0  0  0  0  0
  159.0820  213.9140  153.1250 C   0  0  0  0  0  0  0  0  0  0  0  0
  158.4790  214.4530  152.1210 N   0  0  0  0  0  0  0  0  0  0  0  0
  158.8080  214.3030  154.5360 C   0  0  0  0  0  1  0  0  0  0  0  0
  160.1110  212.9220  152.6910 C   0  0  1  0  0  3  0  0  0  0  0  0
  159.0680  213.8500  150.9740 C   0  0  0  0  0  0  0  0  0  0  0  0
  157.3600  213.3640  149.2240 C   0  0  0  0  0  0  0  0  0  0  0  0
  159.7740  213.8510  148.6180 C   0  0  0  0  0  2  0  0  0  0  0  0
  157.1940  212.8260  147.9060 N   0  0  0  0  0  2  0  0  0  0  0  0
  158.6160  214.1330  149.5770 C   0  0  2  0  0  3  0  0  0  0  0  0
  158.3120  212.6690  146.9840 C   0  0  0  0  0  2  0  0  0  0  0  0
  156.0340  213.5110  150.1730 S   0  0  0  0  0  0  0  0  0  0  0  0
  159.3070  213.8230  147.1680 C   0  0  2  0  0  3  0  0  0  0  0  0
  161.9400  214.0290  143.8900 O   0  0  0  0  0  0  0  0  0  0  0  0
  162.8160  213.3380  146.0060 C   0  0  0  0  0  2  0  0  0  0  0  0
  161.1930  212.8440  144.0270 C   0  0  1  0  0  3  0  0  0  0  0  0
  162.6000  212.9580  144.5340 C   0  0  1  0  0  3  0  0  0  0  0  0
  160.0630  213.0100  145.0620 C   0  0  0  0  0  2  0  0  0  0  0  0
  160.4560  213.7650  146.2500 N   0  0  2  0  0  0  0  0  0  0  0  0
  161.5920  213.0850  146.8620 C   0  0  0  0  0  2  0  0  0  0  0  0
  162.7700  207.4080  150.8920 C   0  0  0  0  0  0  0  0  0  0  0  0
  162.7250  206.8400  149.7170 C   0  0  0  0  0  3  0  0  0  0  0  0
  162.7950  207.9890  152.0670 C   0  0  0  0  0  3  0  0  0  0  0  0
  161.7150  208.8620  148.6490 C   0  0  0  0  0  1  0  0  0  0  0  0
  161.7810  207.3390  148.6690 C   0  0  1  0  0  3  0  0  0  0  0  0
  162.1260  206.7870  147.2860 C   0  0  0  0  0  2  0  0  0  0  0  0
  161.1900  205.6650  146.8480 C   0  0  2  0  0  3  0  0  0  0  0  0
  161.3370  203.0450  145.7170 O   0  0  0  0  0  0  0  0  0  0  0  0
  162.0790  204.0810  146.8350 P   0  0  1  0  0  0  0  0  0  0  0  0
  163.5150  204.3180  146.4210 O   0  0  0  0  0  1  0  0  0  0  0  0
  160.8210  203.8230  148.9440 C   0  0  0  0  0  1  0  0  0  0  0  0
  162.0260  203.3900  148.3840 O   0  0  0  0  0  0  0  0  0  0  0  0
  160.6190  205.9630  145.4990 C   0  0  0  0  0  0  0  0  0  0  0  0
  161.4150  205.8890  144.3610 O   0  0  0  0  0  0  0  0  0  0  0  0
  159.4040  206.2750  145.3920 O   0  0  0  0  0  1  0  0  0  0  0  0
  1 11  1  0  0  0  0
  1 13  2  0  0  0  0
  2 17  2  0  0  0  0
  3  2  2  0  0  0  0
  4  7  1  1  0  0  0
  4 16  1  0  0  0  0
  5 14  1  0  0  0  0
  5 16  1  1  0  0  0
  6 15  1  6  0  0  0
  6  8  1  0  0  0  0
  6  9  1  0  0  0  0
  8  4  1  0  0  0  0
  8  5  1  0  0  0  0
  9 14  1  0  0  0  0
 10 12  1  0  0  0  0
 11  3  1  0  0  0  0
 13 15  2  0  0  0  0
 14 12  1  0  0  0  0
 17  9  1  0  0  0  0
 17 10  1  0  0  0  0
 18 22  1  0  0  0  0
 19 21  1  0  0  0  0
 20 19  2  0  0  0  0
 22 19  1  0  0  0  0
 22 15  1  0  0  0  0
 23 18  2  0  0  0  0
 23 20  1  0  0  0  0
 24 27  1  0  0  0  0
 24 29  2  0  0  0  0
 25 27  1  0  0  0  0
 26 24  1  0  0  0  0
 27 23  1  0  0  0  0
 28 30  1  0  0  0  0
 28 26  1  0  0  0  0
 30 25  1  0  0  0  0
 31 33  1  0  0  0  0
 31 34  1  0  0  0  0
 32 37  1  0  0  0  0
 33 34  1  0  0  0  0
 33 35  1  0  0  0  0
 34 32  1  0  0  0  0
 35 36  1  0  0  0  0
 36 37  1  0  0  0  0
 36 30  1  0  0  0  0
 38 40  2  0  0  0  0
 39 38  2  0  0  0  0
 40  3  1  0  0  0  0
 41 42  1  0  0  0  0
 42 39  1  0  0  0  0
 43 42  1  0  0  0  0
 44 43  1  0  0  0  0
 45 46  2  0  0  0  0
 46 44  1  0  0  0  0
 46 49  1  0  0  0  0
 47 46  1  0  0  0  0
 49 48  1  0  0  0  0
 50 44  1  0  0  0  0
 51 50  2  0  0  0  0
 52 50  1  0  0  0  0
M  END
>  <MODEL>
2

>  <REMARK>
 VINA RESULT:      -4.7      3.249      7.611
  Name = 
  10 active torsions:
  status: ('A' for Active; 'I' for Inactive)
    1  A    between atoms: C_8  and  C_33
    2  A    between atoms: C_9  and  C_35
    3  A    between atoms: P_23  and  C_35
    4  A    between atoms: P_23  and  O_49
    5  A    between atoms: C_25  and  C_30
    6  A    between atoms: C_25  and  C_45
    7  A    between atoms: C_28  and  C_43
    8  A    between atoms: C_35  and  C_45
    9  A    between atoms: C_36  and  C_44
   10  A    between atoms: C_46  and  N_48
                            x       y       z     vdW  Elec       q    Type
                         _______ _______ _______ _____ _____    ______ ____

>  <TORSDO>
F 10

$$$$
=
 OpenBabel11042420533D

 52 59  0  0  1  0  0  0  0  0999 V2000
  160.3200  206.4840  150.0190 C   0  0  0  0  0  3  0  0  0  0  0  0
  161.4680  206.0150  152.8220 C   0  0  0  0  0  0  0  0  0  0  0  0
  161.2430  205.1260  151.8800 C   0  0  0  0  0  0  0  0  0  0  0  0
  159.3890  210.9330  152.8350 C   0  0  2  0  0  3  0  0  0  0  0  0
  159.3640  209.2920  154.2280 C   0  0  1  0  0  3  0  0  0  0  0  0
  160.9640  209.0650  152.4500 C   0  0  1  0  0  3  0  0  0  0  0  0
  158.1650  211.3410  152.3050 O   0  0  0  0  0  1  0  0  0  0  0  0
  159.5150  209.4250  152.7110 C   0  0  2  0  0  3  0  0  0  0  0  0
  161.4300  208.3000  153.6040 N   0  0  0  0  0  0  0  0  0  0  0  0
  161.3910  206.4830  155.1620 C   0  0  0  0  0  2  0  0  0  0  0  0
  160.0820  205.3350  150.9530 C   0  0  0  0  0  2  0  0  0  0  0  0
  160.5020  207.5970  155.6920 C   0  0  0  0  0  2  0  0  0  0  0  0
  160.7980  207.5990  150.4970 C   0  0  0  0  0  0  0  0  0  0  0  0
  160.7110  208.7900  154.7610 C   0  0  2  0  0  3  0  0  0  0  0  0
  161.3540  208.6370  151.0650 C   0  0  0  0  0  0  0  0  0  0  0  0
  159.2670  210.8030  154.3450 C   0  0  0  0  0  2  0  0  0  0  0  0
  161.6610  206.8940  153.7680 C   0  0  0  0  0  0  0  0  0  0  0  0
  161.8130  210.1790  149.2310 N   0  0  0  0  0  0  0  0  0  0  0  0
  162.9220  210.5580  151.1960 C   0  0  0  0  0  0  0  0  0  0  0  0
  162.6990  211.7130  150.6700 N   0  0  0  0  0  0  0  0  0  0  0  0
  163.6740  210.3820  152.4700 C   0  0  0  0  0  1  0  0  0  0  0  0
  162.3970  209.4470  150.3470 C   0  0  1  0  0  3  0  0  0  0  0  0
  162.0160  211.4350  149.4530 C   0  0  0  0  0  0  0  0  0  0  0  0
  160.1090  212.9560  148.9410 C   0  0  0  0  0  0  0  0  0  0  0  0
  161.5650  211.9950  147.1010 C   0  0  0  0  0  2  0  0  0  0  0  0
  159.1420  213.2800  147.9340 N   0  0  0  0  0  2  0  0  0  0  0  0
  161.4970  212.5020  148.5430 C   0  0  2  0  0  3  0  0  0  0  0  0
  159.2980  212.8630  146.5450 C   0  0  0  0  0  2  0  0  0  0  0  0
  159.8440  213.4880  150.4670 S   0  0  0  0  0  0  0  0  0  0  0  0
  160.7810  212.8950  146.1530 C   0  0  2  0  0  3  0  0  0  0  0  0
  162.4230  212.1050  142.3580 O   0  0  0  0  0  0  0  0  0  0  0  0
  160.1350  211.5220  142.7470 C   0  0  0  0  0  2  0  0  0  0  0  0
  161.9300  213.4040  142.5750 C   0  0  1  0  0  3  0  0  0  0  0  0
  161.1090  212.3480  141.8960 C   0  0  1  0  0  3  0  0  0  0  0  0
  161.6460  213.6550  144.0690 C   0  0  0  0  0  2  0  0  0  0  0  0
  161.0290  212.5190  144.7520 N   0  0  2  0  0  0  0  0  0  0  0  0
  159.7870  212.1950  144.0590 C   0  0  0  0  0  2  0  0  0  0  0  0
  161.7250  202.8690  151.0720 C   0  0  0  0  0  0  0  0  0  0  0  0
  161.3130  201.7920  150.4600 C   0  0  0  0  0  3  0  0  0  0  0  0
  162.1240  203.9620  151.6760 C   0  0  0  0  0  3  0  0  0  0  0  0
  158.9630  201.8620  149.6080 C   0  0  0  0  0  1  0  0  0  0  0  0
  160.4430  201.8950  149.2460 C   0  0  1  0  0  3  0  0  0  0  0  0
  160.7770  203.1330  148.4130 C   0  0  0  0  0  2  0  0  0  0  0  0
  161.5720  202.8000  147.1540 C   0  0  2  0  0  3  0  0  0  0  0  0
  163.4610  204.7710  146.3080 O   0  0  0  0  0  1  0  0  0  0  0  0
  161.8380  204.3050  146.1700 P   0  0  1  0  0  0  0  0  0  0  0  0
  161.5210  204.0130  144.7190 O   0  0  0  0  0  0  0  0  0  0  0  0
  160.3510  206.1950  145.6080 C   0  0  0  0  0  1  0  0  0  0  0  0
  160.8310  205.5430  146.7470 O   0  0  0  0  0  0  0  0  0  0  0  0
  160.8620  201.7610  146.3510 C   0  0  0  0  0  0  0  0  0  0  0  0
  161.2650  200.4300  146.3980 O   0  0  0  0  0  1  0  0  0  0  0  0
  159.8830  202.0910  145.6300 O   0  0  0  0  0  0  0  0  0  0  0  0
  1 13  2  0  0  0  0
  1 11  1  0  0  0  0
  2 17  2  0  0  0  0
  3  2  2  0  0  0  0
  4  7  1  6  0  0  0
  4 16  1  0  0  0  0
  5 16  1  1  0  0  0
  5 14  1  0  0  0  0
  6 15  1  6  0  0  0
  6  8  1  0  0  0  0
  6  9  1  0  0  0  0
  8  4  1  0  0  0  0
  8  5  1  0  0  0  0
  9 17  1  0  0  0  0
  9 14  1  0  0  0  0
 10 12  1  0  0  0  0
 11  3  1  0  0  0  0
 13 15  2  0  0  0  0
 14 12  1  0  0  0  0
 17 10  1  0  0  0  0
 18 23  2  0  0  0  0
 18 22  1  0  0  0  0
 19 21  1  0  0  0  0
 20 19  2  0  0  0  0
 22 15  1  0  0  0  0
 22 19  1  0  0  0  0
 23 20  1  0  0  0  0
 24 29  2  0  0  0  0
 25 27  1  0  0  0  0
 26 24  1  0  0  0  0
 27 24  1  0  0  0  0
 27 23  1  0  0  0  0
 28 26  1  0  0  0  0
 30 28  1  0  0  0  0
 30 25  1  0  0  0  0
 31 33  1  0  0  0  0
 32 37  1  0  0  0  0
 33 35  1  0  0  0  0
 34 31  1  0  0  0  0
 34 33  1  0  0  0  0
 34 32  1  0  0  0  0
 35 36  1  0  0  0  0
 36 30  1  0  0  0  0
 37 36  1  0  0  0  0
 38 40  2  0  0  0  0
 39 38  2  0  0  0  0
 40  3  1  0  0  0  0
 42 41  1  0  0  0  0
 42 39  1  0  0  0  0
 43 42  1  0  0  0  0
 44 43  1  0  0  0  0
 46 45  1  0  0  0  0
 46 49  1  0  0  0  0
 46 44  1  0  0  0  0
 47 46  2  0  0  0  0
 48 49  1  0  0  0  0
 50 51  1  0  0  0  0
 50 44  1  0  0  0  0
 52 50  2  0  0  0  0
M  END
>  <MODEL>
3

>  <REMARK>
 VINA RESULT:      -4.7      2.966      8.351
  Name = 
  10 active torsions:
  status: ('A' for Active; 'I' for Inactive)
    1  A    between atoms: C_8  and  C_33
    2  A    between atoms: C_9  and  C_35
    3  A    between atoms: P_23  and  C_35
    4  A    between atoms: P_23  and  O_49
    5  A    between atoms: C_25  and  C_30
    6  A    between atoms: C_25  and  C_45
    7  A    between atoms: C_28  and  C_43
    8  A    between atoms: C_35  and  C_45
    9  A    between atoms: C_36  and  C_44
   10  A    between atoms: C_46  and  N_48
                            x       y       z     vdW  Elec       q    Type
                         _______ _______ _______ _____ _____    ______ ____

>  <TORSDO>
F 10

$$$$
