=
 OpenBabel11042421233D

 33 37  0  0  1  0  0  0  0  0999 V2000
  161.9230  209.5930  150.7630 C   0  0  0  0  0  0  0  0  0  0  0  0
  162.2090  210.5610  150.0120 O   0  0  0  0  0  0  0  0  0  0  0  0
  161.3780  209.8660  151.9670 N   0  0  0  0  0  0  0  0  0  0  0  0
  160.9850  207.6730  153.0920 C   0  0  0  0  0  0  0  0  0  0  0  0
  162.1940  208.3240  150.2880 C   0  0  0  0  0  3  0  0  0  0  0  0
  161.9870  207.0970  150.8870 C   0  0  0  0  0  3  0  0  0  0  0  0
  160.9680  209.0690  152.9800 C   0  0  0  0  0  3  0  0  0  0  0  0
  161.3750  205.4950  152.4440 N   0  0  0  0  0  2  0  0  0  0  0  0
  161.4520  206.7600  152.1320 C   0  0  0  0  0  0  0  0  0  0  0  0
  161.3270  203.0730  152.2150 C   0  0  0  0  0  2  0  0  0  0  0  0
  161.7840  204.3780  151.5960 C   0  0  1  0  0  3  0  0  0  0  0  0
  160.9690  202.1770  151.0530 C   0  0  0  0  0  2  0  0  0  0  0  0
  161.1090  204.4720  150.2360 C   0  0  0  0  0  2  0  0  0  0  0  0
  160.4730  203.1180  149.9740 C   0  0  1  0  0  3  0  0  0  0  0  0
  160.7740  202.5990  148.5700 C   0  0  0  0  0  2  0  0  0  0  0  0
  161.9330  203.3380  147.9070 C   0  0  0  0  0  2  0  0  0  0  0  0
  161.3140  203.5930  145.5560 C   0  0  0  0  0  3  0  0  0  0  0  0
  162.4040  206.3100  147.3450 N   0  0  0  0  0  1  0  0  0  0  0  0
  160.8390  204.3520  144.4410 N   0  0  0  0  0  0  0  0  0  0  0  0
  161.4450  204.1580  146.7600 C   0  0  0  0  0  0  0  0  0  0  0  0
  160.5710  206.3230  145.7760 C   0  0  0  0  0  3  0  0  0  0  0  0
  161.1750  205.6320  146.9720 C   0  0  0  0  0  0  0  0  0  0  0  0
  160.4380  205.7150  144.5990 C   0  0  0  0  0  3  0  0  0  0  0  0
  160.4850  207.1190  154.2830 O   0  0  0  0  0  0  0  0  0  0  0  0
  159.7540  208.3480  156.1710 C   0  0  1  0  0  3  0  0  0  0  0  0
  160.8580  207.5650  155.5810 C   0  0  1  0  0  3  0  0  0  0  0  0
  159.9820  207.0090  156.5300 O   0  0  0  0  0  0  0  0  0  0  0  0
  160.2960  209.2520  157.2600 C   0  0  0  0  0  2  0  0  0  0  0  0
  160.3350  212.7070  156.3680 N   0  0  0  0  0  0  0  0  0  0  0  0
  160.0260  210.6750  156.9190 C   0  0  0  0  0  0  0  0  0  0  0  0
  160.9630  211.5540  156.5310 N   0  0  0  0  0  0  0  0  0  0  0  0
  159.0450  212.5920  156.6470 N   0  0  0  0  0  2  0  0  0  0  0  0
  158.8110  211.3150  157.0060 C   0  0  0  0  0  3  0  0  0  0  0  0
  1  3  1  0  0  0  0
  2  1  2  0  0  0  0
  3  7  2  0  0  0  0
  4 24  1  0  0  0  0
  5  1  1  0  0  0  0
  5  6  2  0  0  0  0
  6  9  1  0  0  0  0
  7  4  1  0  0  0  0
  9  8  1  0  0  0  0
  9  4  2  0  0  0  0
 11 10  1  0  0  0  0
 11  8  1  1  0  0  0
 12 10  1  0  0  0  0
 13 11  1  0  0  0  0
 14 15  1  6  0  0  0
 14 13  1  0  0  0  0
 14 12  1  0  0  0  0
 16 15  1  0  0  0  0
 17 20  1  0  0  0  0
 19 23  1  0  0  0  0
 19 17  2  0  0  0  0
 20 22  2  0  0  0  0
 20 16  1  0  0  0  0
 21 22  1  0  0  0  0
 22 18  1  0  0  0  0
 23 21  2  0  0  0  0
 25 27  1  0  0  0  0
 25 28  1  1  0  0  0
 26 24  1  6  0  0  0
 26 25  1  0  0  0  0
 26 27  1  0  0  0  0
 29 31  2  0  0  0  0
 29 32  1  0  0  0  0
 30 33  2  0  0  0  0
 30 28  1  0  0  0  0
 31 30  1  0  0  0  0
 32 33  1  0  0  0  0
M  END
>  <MODEL>
1

>  <REMARK>
 VINA RESULT:      -9.0      0.000      0.000
  Name = 
  8 active torsions:
  status: ('A' for Active; 'I' for Inactive)
    1  A    between atoms: C_6  and  C_25
    2  A    between atoms: C_9  and  C_29
    3  A    between atoms: C_11  and  O_22
    4  A    between atoms: C_13  and  O_22
    5  A    between atoms: C_14  and  C_25
    6  A    between atoms: C_15  and  C_29
    7  A    between atoms: C_15  and  C_32
    8  A    between atoms: C_17  and  N_31
                            x       y       z     vdW  Elec       q    Type
                         _______ _______ _______ _____ _____    ______ ____

>  <TORSDO>
F 8

$$$$
=
 OpenBabel11042421233D

 33 37  0  0  1  0  0  0  0  0999 V2000
  161.9230  210.4600  149.7860 C   0  0  0  0  0  0  0  0  0  0  0  0
  162.1760  211.2240  148.8190 O   0  0  0  0  0  0  0  0  0  0  0  0
  161.4540  211.0130  150.9240 N   0  0  0  0  0  0  0  0  0  0  0  0
  161.1030  209.1440  152.5400 C   0  0  0  0  0  0  0  0  0  0  0  0
  162.1500  209.1100  149.6000 C   0  0  0  0  0  3  0  0  0  0  0  0
  161.9650  208.0570  150.4740 C   0  0  0  0  0  3  0  0  0  0  0  0
  161.0960  210.4780  152.1130 C   0  0  0  0  0  3  0  0  0  0  0  0
  161.4280  206.8660  152.3870 N   0  0  0  0  0  2  0  0  0  0  0  0
  161.5010  208.0240  151.7900 C   0  0  0  0  0  0  0  0  0  0  0  0
  161.2800  204.4570  152.6900 C   0  0  0  0  0  2  0  0  0  0  0  0
  161.7730  205.5760  151.7950 C   0  0  1  0  0  3  0  0  0  0  0  0
  160.8590  203.3470  151.7540 C   0  0  0  0  0  2  0  0  0  0  0  0
  161.0690  205.4030  150.4580 C   0  0  0  0  0  2  0  0  0  0  0  0
  160.3740  204.0530  150.5050 C   0  0  1  0  0  3  0  0  0  0  0  0
  160.6210  203.2300  149.2430 C   0  0  0  0  0  2  0  0  0  0  0  0
  161.8320  203.7180  148.4520 C   0  0  0  0  0  2  0  0  0  0  0  0
  161.3480  203.3410  146.0860 C   0  0  0  0  0  3  0  0  0  0  0  0
  162.3620  206.4390  147.1550 N   0  0  0  0  0  1  0  0  0  0  0  0
  160.9440  203.7770  144.7850 N   0  0  0  0  0  0  0  0  0  0  0  0
  161.4170  204.2040  147.1040 C   0  0  0  0  0  0  0  0  0  0  0  0
  160.6200  206.0290  145.5370 C   0  0  0  0  0  3  0  0  0  0  0  0
  161.1490  205.6800  146.9040 C   0  0  0  0  0  0  0  0  0  0  0  0
  160.5480  205.1310  144.5550 C   0  0  0  0  0  3  0  0  0  0  0  0
  160.6680  208.8880  153.8520 O   0  0  0  0  0  0  0  0  0  0  0  0
  159.4590  209.7220  155.7100 C   0  0  1  0  0  3  0  0  0  0  0  0
  160.6830  209.8560  154.8940 C   0  0  1  0  0  3  0  0  0  0  0  0
  160.6910  209.1980  156.1360 O   0  0  0  0  0  0  0  0  0  0  0  0
  159.1930  211.0210  156.4450 C   0  0  0  0  0  2  0  0  0  0  0  0
  155.9000  211.7510  155.2790 N   0  0  0  0  0  0  0  0  0  0  0  0
  157.7890  211.4560  156.2140 C   0  0  0  0  0  0  0  0  0  0  0  0
  157.0660  211.1440  155.1270 N   0  0  0  0  0  0  0  0  0  0  0  0
  155.8630  212.4370  156.4120 N   0  0  0  0  0  2  0  0  0  0  0  0
  157.0480  212.2780  157.0330 C   0  0  0  0  0  3  0  0  0  0  0  0
  1  3  1  0  0  0  0
  2  1  2  0  0  0  0
  3  7  2  0  0  0  0
  4 24  1  0  0  0  0
  5  1  1  0  0  0  0
  5  6  2  0  0  0  0
  6  9  1  0  0  0  0
  7  4  1  0  0  0  0
  9  8  1  0  0  0  0
  9  4  2  0  0  0  0
 11  8  1  1  0  0  0
 11 10  1  0  0  0  0
 12 10  1  0  0  0  0
 13 14  1  0  0  0  0
 13 11  1  0  0  0  0
 14 15  1  6  0  0  0
 14 12  1  0  0  0  0
 16 15  1  0  0  0  0
 17 20  1  0  0  0  0
 19 17  2  0  0  0  0
 20 16  1  0  0  0  0
 21 22  1  0  0  0  0
 22 20  2  0  0  0  0
 22 18  1  0  0  0  0
 23 19  1  0  0  0  0
 23 21  2  0  0  0  0
 25 27  1  0  0  0  0
 25 28  1  1  0  0  0
 26 24  1  6  0  0  0
 26 25  1  0  0  0  0
 26 27  1  0  0  0  0
 29 32  1  0  0  0  0
 30 28  1  0  0  0  0
 30 33  2  0  0  0  0
 31 29  2  0  0  0  0
 31 30  1  0  0  0  0
 32 33  1  0  0  0  0
M  END
>  <MODEL>
2

>  <REMARK>
 VINA RESULT:      -8.6      1.585      1.814
  Name = 
  8 active torsions:
  status: ('A' for Active; 'I' for Inactive)
    1  A    between atoms: C_6  and  C_25
    2  A    between atoms: C_9  and  C_29
    3  A    between atoms: C_11  and  O_22
    4  A    between atoms: C_13  and  O_22
    5  A    between atoms: C_14  and  C_25
    6  A    between atoms: C_15  and  C_29
    7  A    between atoms: C_15  and  C_32
    8  A    between atoms: C_17  and  N_31
                            x       y       z     vdW  Elec       q    Type
                         _______ _______ _______ _____ _____    ______ ____

>  <TORSDO>
F 8

$$$$
=
 OpenBabel11042421233D

 33 37  0  0  1  0  0  0  0  0999 V2000
  160.3000  207.7330  156.0560 C   0  0  0  0  0  0  0  0  0  0  0  0
  160.0890  207.1380  157.1440 O   0  0  0  0  0  0  0  0  0  0  0  0
  160.1050  209.0690  156.0160 N   0  0  0  0  0  0  0  0  0  0  0  0
  160.6400  209.8040  153.6920 C   0  0  2  0  0  3  0  0  0  0  0  0
  160.7160  206.9640  154.9860 C   0  0  0  0  0  3  0  0  0  0  0  0
  161.0180  207.3440  153.6930 C   0  0  0  0  0  3  0  0  0  0  0  0
  160.2420  209.9770  155.0240 C   0  0  0  0  0  3  0  0  0  0  0  0
  161.3390  208.6610  151.8150 N   0  0  0  0  0  0  0  0  0  0  0  0
  161.0000  208.5950  153.0730 C   0  0  0  0  0  0  0  0  0  0  0  0
  160.8760  206.3390  151.2550 C   0  0  0  0  0  2  0  0  0  0  0  0
  161.7610  207.5380  150.9820 C   0  0  1  0  0  3  0  0  0  0  0  0
  160.7340  205.6310  149.9280 C   0  0  0  0  0  2  0  0  0  0  0  0
  161.5880  207.8770  149.5090 C   0  0  0  0  0  2  0  0  0  0  0  0
  160.8080  206.7310  148.8890 C   0  0  1  0  0  3  0  0  0  0  0  0
  161.4300  206.2500  147.5800 C   0  0  0  0  0  2  0  0  0  0  0  0
  162.1900  204.9360  147.7400 C   0  0  0  0  0  2  0  0  0  0  0  0
  161.1180  204.1490  145.6890 C   0  0  0  0  0  3  0  0  0  0  0  0
  160.4930  202.5630  148.6660 N   0  0  0  0  0  1  0  0  0  0  0  0
  160.5210  203.1370  144.8730 N   0  0  0  0  0  0  0  0  0  0  0  0
  161.5620  203.8620  146.9160 C   0  0  0  0  0  0  0  0  0  0  0  0
  160.8490  201.4580  146.5510 C   0  0  0  0  0  3  0  0  0  0  0  0
  161.3800  202.4860  147.5180 C   0  0  0  0  0  0  0  0  0  0  0  0
  160.4370  201.7840  145.3270 C   0  0  0  0  0  3  0  0  0  0  0  0
  160.6890  210.9520  152.8820 O   0  0  0  0  0  0  0  0  0  0  0  0
  159.4220  212.5460  151.6710 C   0  0  1  0  0  3  0  0  0  0  0  0
  159.7940  212.0510  153.0120 C   0  0  1  0  0  3  0  0  0  0  0  0
  158.5650  211.7180  152.4160 O   0  0  0  0  0  0  0  0  0  0  0  0
  158.9390  213.9790  151.7750 C   0  0  0  0  0  2  0  0  0  0  0  0
  155.4370  214.3020  151.1650 N   0  0  0  0  0  0  0  0  0  0  0  0
  157.5530  214.0850  151.2440 C   0  0  0  0  0  0  0  0  0  0  0  0
  156.4670  214.3300  151.9940 N   0  0  0  0  0  2  0  0  0  0  0  0
  155.8280  214.0410  149.9260 N   0  0  0  0  0  0  0  0  0  0  0  0
  157.1670  213.8910  149.9360 C   0  0  0  0  0  3  0  0  0  0  0  0
  1  2  2  0  0  0  0
  3  1  1  0  0  0  0
  4 24  1  1  0  0  0
  4  7  1  0  0  0  0
  5  1  1  0  0  0  0
  6  5  2  0  0  0  0
  7  3  2  0  0  0  0
  8  9  2  0  0  0  0
  9  4  1  0  0  0  0
  9  6  1  0  0  0  0
 11 10  1  0  0  0  0
 11  8  1  1  0  0  0
 12 10  1  0  0  0  0
 13 11  1  0  0  0  0
 14 15  1  6  0  0  0
 14 13  1  0  0  0  0
 14 12  1  0  0  0  0
 15 16  1  0  0  0  0
 17 20  1  0  0  0  0
 19 23  1  0  0  0  0
 19 17  2  0  0  0  0
 20 22  2  0  0  0  0
 20 16  1  0  0  0  0
 21 22  1  0  0  0  0
 22 18  1  0  0  0  0
 23 21  2  0  0  0  0
 25 28  1  1  0  0  0
 25 27  1  0  0  0  0
 25 26  1  0  0  0  0
 26 24  1  6  0  0  0
 27 26  1  0  0  0  0
 29 31  1  0  0  0  0
 30 28  1  0  0  0  0
 30 31  1  0  0  0  0
 32 33  1  0  0  0  0
 32 29  2  0  0  0  0
 33 30  2  0  0  0  0
M  END
>  <MODEL>
3

>  <REMARK>
 VINA RESULT:      -8.2      3.295      4.858
  Name = 
  8 active torsions:
  status: ('A' for Active; 'I' for Inactive)
    1  A    between atoms: C_6  and  C_25
    2  A    between atoms: C_9  and  C_29
    3  A    between atoms: C_11  and  O_22
    4  A    between atoms: C_13  and  O_22
    5  A    between atoms: C_14  and  C_25
    6  A    between atoms: C_15  and  C_29
    7  A    between atoms: C_15  and  C_32
    8  A    between atoms: C_17  and  N_31
                            x       y       z     vdW  Elec       q    Type
                         _______ _______ _______ _____ _____    ______ ____

>  <TORSDO>
F 8

$$$$
=
 OpenBabel11042421233D

 33 37  0  0  1  0  0  0  0  0999 V2000
  160.7350  207.9990  155.0760 C   0  0  0  0  0  0  0  0  0  0  0  0
  160.5510  208.2460  156.2950 O   0  0  0  0  0  0  0  0  0  0  0  0
  160.6880  209.0310  154.2060 N   0  0  0  0  0  0  0  0  0  0  0  0
  161.1030  208.0780  151.9380 C   0  0  2  0  0  3  0  0  0  0  0  0
  160.9710  206.6830  154.7270 C   0  0  0  0  0  3  0  0  0  0  0  0
  161.2030  206.1300  153.4830 C   0  0  0  0  0  3  0  0  0  0  0  0
  160.8410  209.0950  152.8650 C   0  0  0  0  0  3  0  0  0  0  0  0
  161.5090  205.9330  151.1960 N   0  0  0  0  0  0  0  0  0  0  0  0
  161.2720  206.7110  152.2160 C   0  0  0  0  0  0  0  0  0  0  0  0
  160.9900  203.9070  152.4390 C   0  0  0  0  0  2  0  0  0  0  0  0
  161.7320  204.4900  151.2540 C   0  0  1  0  0  3  0  0  0  0  0  0
  160.5240  202.5410  151.9920 C   0  0  0  0  0  2  0  0  0  0  0  0
  161.1630  203.8170  150.0130 C   0  0  0  0  0  2  0  0  0  0  0  0
  160.2840  202.6790  150.5020 C   0  0  1  0  0  3  0  0  0  0  0  0
  160.5510  201.3770  149.7500 C   0  0  0  0  0  2  0  0  0  0  0  0
  161.6700  201.5130  148.7210 C   0  0  0  0  0  2  0  0  0  0  0  0
  161.5840  199.6410  147.1520 C   0  0  0  0  0  3  0  0  0  0  0  0
  161.4180  202.8640  145.9860 N   0  0  0  0  0  1  0  0  0  0  0  0
  161.1980  199.0350  145.9150 N   0  0  0  0  0  0  0  0  0  0  0  0
  161.2620  200.9110  147.4190 C   0  0  0  0  0  0  0  0  0  0  0  0
  160.0830  201.0240  145.1790 C   0  0  0  0  0  3  0  0  0  0  0  0
  160.5510  201.7740  146.4000 C   0  0  0  0  0  0  0  0  0  0  0  0
  160.4090  199.7510  144.9620 C   0  0  0  0  0  3  0  0  0  0  0  0
  161.2120  208.4530  150.5870 O   0  0  0  0  0  0  0  0  0  0  0  0
  161.5760  207.5880  148.4120 C   0  0  1  0  0  3  0  0  0  0  0  0
  162.2020  207.9430  149.7020 C   0  0  1  0  0  3  0  0  0  0  0  0
  162.2940  208.7850  148.5790 O   0  0  0  0  0  0  0  0  0  0  0  0
  162.4480  206.5860  147.6820 C   0  0  0  0  0  2  0  0  0  0  0  0
  161.5580  205.6050  144.3680 N   0  0  0  0  0  0  0  0  0  0  0  0
  161.8060  206.1970  146.3970 C   0  0  0  0  0  0  0  0  0  0  0  0
  162.4750  205.8210  145.2960 N   0  0  0  0  0  2  0  0  0  0  0  0
  160.3400  205.8370  144.8360 N   0  0  0  0  0  0  0  0  0  0  0  0
  160.4570  206.2210  146.1230 C   0  0  0  0  0  3  0  0  0  0  0  0
  1  2  2  0  0  0  0
  3  1  1  0  0  0  0
  4 24  1  1  0  0  0
  4  9  1  0  0  0  0
  4  7  1  0  0  0  0
  5  1  1  0  0  0  0
  6  5  2  0  0  0  0
  7  3  2  0  0  0  0
  8  9  2  0  0  0  0
  9  6  1  0  0  0  0
 11  8  1  6  0  0  0
 11 10  1  0  0  0  0
 12 10  1  0  0  0  0
 13 14  1  0  0  0  0
 13 11  1  0  0  0  0
 14 15  1  6  0  0  0
 14 12  1  0  0  0  0
 16 15  1  0  0  0  0
 17 20  1  0  0  0  0
 18 22  1  0  0  0  0
 19 17  2  0  0  0  0
 20 16  1  0  0  0  0
 21 22  1  0  0  0  0
 22 20  2  0  0  0  0
 23 21  2  0  0  0  0
 23 19  1  0  0  0  0
 25 28  1  6  0  0  0
 25 27  1  0  0  0  0
 25 26  1  0  0  0  0
 26 24  1  1  0  0  0
 27 26  1  0  0  0  0
 29 32  2  0  0  0  0
 29 31  1  0  0  0  0
 30 28  1  0  0  0  0
 31 30  1  0  0  0  0
 32 33  1  0  0  0  0
 33 30  2  0  0  0  0
M  END
>  <MODEL>
4

>  <REMARK>
 VINA RESULT:      -7.8      2.112      6.498
  Name = 
  8 active torsions:
  status: ('A' for Active; 'I' for Inactive)
    1  A    between atoms: C_6  and  C_25
    2  A    between atoms: C_9  and  C_29
    3  A    between atoms: C_11  and  O_22
    4  A    between atoms: C_13  and  O_22
    5  A    between atoms: C_14  and  C_25
    6  A    between atoms: C_15  and  C_29
    7  A    between atoms: C_15  and  C_32
    8  A    between atoms: C_17  and  N_31
                            x       y       z     vdW  Elec       q    Type
                         _______ _______ _______ _____ _____    ______ ____

>  <TORSDO>
F 8

$$$$
=
 OpenBabel11042421233D

 33 37  0  0  1  0  0  0  0  0999 V2000
  161.1640  203.2710  151.2580 C   0  0  0  0  0  0  0  0  0  0  0  0
  161.1470  202.1680  151.8630 O   0  0  0  0  0  0  0  0  0  0  0  0
  160.8930  203.2720  149.9360 N   0  0  0  0  0  0  0  0  0  0  0  0
  161.0410  205.6440  149.1750 C   0  0  2  0  0  3  0  0  0  0  0  0
  161.4620  204.3950  152.0040 C   0  0  0  0  0  2  0  0  0  0  0  0
  161.5500  205.7150  151.6100 C   0  0  0  0  0  3  0  0  0  0  0  0
  160.8330  204.2680  149.0230 C   0  0  0  0  0  3  0  0  0  0  0  0
  161.5200  207.6110  150.2790 N   0  0  0  0  0  2  0  0  0  0  0  0
  161.3700  206.3170  150.3630 C   0  0  0  0  0  0  0  0  0  0  0  0
  161.9370  209.9330  150.8760 C   0  0  0  0  0  2  0  0  0  0  0  0
  161.8450  208.5080  151.3850 C   0  0  1  0  0  3  0  0  0  0  0  0
  161.4050  210.7970  151.9950 C   0  0  0  0  0  2  0  0  0  0  0  0
  160.7340  208.4910  152.4240 C   0  0  0  0  0  2  0  0  0  0  0  0
  160.3650  209.9410  152.6890 C   0  0  1  0  0  3  0  0  0  0  0  0
  160.2640  210.2490  154.1810 C   0  0  0  0  0  2  0  0  0  0  0  0
  160.0560  211.7350  154.4600 C   0  0  0  0  0  2  0  0  0  0  0  0
  157.7240  211.3210  155.0650 C   0  0  0  0  0  3  0  0  0  0  0  0
  158.4720  212.9880  152.1600 N   0  0  0  0  0  1  0  0  0  0  0  0
  156.3290  211.6350  155.0400 N   0  0  0  0  0  0  0  0  0  0  0  0
  158.6060  212.0810  154.4080 C   0  0  0  0  0  0  0  0  0  0  0  0
  156.6920  213.5740  153.6810 C   0  0  0  0  0  3  0  0  0  0  0  0
  158.1590  213.2480  153.5550 C   0  0  0  0  0  0  0  0  0  0  0  0
  155.8510  212.8000  154.3640 C   0  0  0  0  0  3  0  0  0  0  0  0
  160.9070  206.4450  148.0270 O   0  0  0  0  0  0  0  0  0  0  0  0
  160.3510  205.5170  145.9190 C   0  0  1  0  0  3  0  0  0  0  0  0
  161.4290  206.0910  146.7510 C   0  0  1  0  0  3  0  0  0  0  0  0
  160.7770  206.8470  145.7610 O   0  0  0  0  0  0  0  0  0  0  0  0
  160.9560  204.6700  144.8170 C   0  0  0  0  0  2  0  0  0  0  0  0
  159.8140  201.2940  144.9970 N   0  0  0  0  0  0  0  0  0  0  0  0
  160.6930  203.2300  145.0840 C   0  0  0  0  0  0  0  0  0  0  0  0
  159.7660  202.4960  144.4480 N   0  0  0  0  0  0  0  0  0  0  0  0
  160.7250  201.2430  145.9580 N   0  0  0  0  0  2  0  0  0  0  0  0
  161.3020  202.4570  146.0470 C   0  0  0  0  0  3  0  0  0  0  0  0
  1  2  2  0  0  0  0
  1  5  1  0  0  0  0
  3  1  1  0  0  0  0
  4 24  1  1  0  0  0
  4  9  1  0  0  0  0
  6  5  1  0  0  0  0
  7  4  1  0  0  0  0
  7  3  2  0  0  0  0
  8  9  1  0  0  0  0
  9  6  2  0  0  0  0
 10 11  1  0  0  0  0
 10 12  1  0  0  0  0
 11  8  1  6  0  0  0
 11 13  1  0  0  0  0
 12 14  1  0  0  0  0
 13 14  1  0  0  0  0
 14 15  1  1  0  0  0
 15 16  1  0  0  0  0
 18 22  1  0  0  0  0
 19 17  1  0  0  0  0
 20 16  1  0  0  0  0
 20 17  2  0  0  0  0
 21 23  1  0  0  0  0
 22 21  2  0  0  0  0
 22 20  1  0  0  0  0
 23 19  2  0  0  0  0
 25 28  1  6  0  0  0
 25 26  1  0  0  0  0
 26 24  1  1  0  0  0
 27 25  1  0  0  0  0
 27 26  1  0  0  0  0
 28 30  1  0  0  0  0
 29 32  1  0  0  0  0
 30 33  2  0  0  0  0
 31 29  2  0  0  0  0
 31 30  1  0  0  0  0
 32 33  1  0  0  0  0
M  END
>  <MODEL>
5

>  <REMARK>
 VINA RESULT:      -7.8      2.807     10.016
  Name = 
  8 active torsions:
  status: ('A' for Active; 'I' for Inactive)
    1  A    between atoms: C_6  and  C_25
    2  A    between atoms: C_9  and  C_29
    3  A    between atoms: C_11  and  O_22
    4  A    between atoms: C_13  and  O_22
    5  A    between atoms: C_14  and  C_25
    6  A    between atoms: C_15  and  C_29
    7  A    between atoms: C_15  and  C_32
    8  A    between atoms: C_17  and  N_31
                            x       y       z     vdW  Elec       q    Type
                         _______ _______ _______ _____ _____    ______ ____

>  <TORSDO>
F 8

$$$$
=
 OpenBabel11042421233D

 33 37  0  0  1  0  0  0  0  0999 V2000
  160.8350  208.3680  156.0790 C   0  0  0  0  0  0  0  0  0  0  0  0
  161.0060  207.9720  157.2610 O   0  0  0  0  0  0  0  0  0  0  0  0
  160.2080  209.5490  155.8910 N   0  0  0  0  0  0  0  0  0  0  0  0
  160.0940  209.9170  153.4260 C   0  0  2  0  0  3  0  0  0  0  0  0
  161.3050  207.5540  155.0660 C   0  0  0  0  0  3  0  0  0  0  0  0
  161.2560  207.7330  153.6980 C   0  0  0  0  0  3  0  0  0  0  0  0
  159.8790  210.2330  154.7730 C   0  0  0  0  0  3  0  0  0  0  0  0
  160.8220  208.6730  151.6260 N   0  0  0  0  0  0  0  0  0  0  0  0
  160.7290  208.7680  152.9240 C   0  0  0  0  0  0  0  0  0  0  0  0
  160.8300  206.2610  151.3040 C   0  0  0  0  0  2  0  0  0  0  0  0
  161.4530  207.5790  150.8920 C   0  0  1  0  0  3  0  0  0  0  0  0
  160.8180  205.4100  150.0560 C   0  0  0  0  0  2  0  0  0  0  0  0
  161.1990  207.7290  149.3990 C   0  0  0  0  0  2  0  0  0  0  0  0
  160.6590  206.3940  148.9150 C   0  0  1  0  0  3  0  0  0  0  0  0
  161.3500  205.9180  147.6390 C   0  0  0  0  0  2  0  0  0  0  0  0
  162.0630  204.5820  147.8230 C   0  0  0  0  0  2  0  0  0  0  0  0
  161.0410  203.8520  145.7260 C   0  0  0  0  0  3  0  0  0  0  0  0
  160.3100  202.2130  148.6500 N   0  0  0  0  0  1  0  0  0  0  0  0
  160.4540  202.8660  144.8730 N   0  0  0  0  0  0  0  0  0  0  0  0
  161.4450  203.5340  146.9600 C   0  0  0  0  0  0  0  0  0  0  0  0
  160.7120  201.1480  146.5230 C   0  0  0  0  0  3  0  0  0  0  0  0
  161.2280  202.1480  147.5260 C   0  0  0  0  0  0  0  0  0  0  0  0
  160.3390  201.5050  145.2950 C   0  0  0  0  0  3  0  0  0  0  0  0
  159.6340  210.8380  152.4680 O   0  0  0  0  0  0  0  0  0  0  0  0
  159.4080  212.8710  151.2730 C   0  0  1  0  0  3  0  0  0  0  0  0
  160.1980  212.1300  152.2780 C   0  0  1  0  0  3  0  0  0  0  0  0
  159.2560  213.1050  152.6510 O   0  0  0  0  0  0  0  0  0  0  0  0
  160.2550  213.9760  150.6740 C   0  0  0  0  0  2  0  0  0  0  0  0
  161.0660  213.6730  147.2120 N   0  0  0  0  0  0  0  0  0  0  0  0
  160.3080  213.8280  149.1950 C   0  0  0  0  0  0  0  0  0  0  0  0
  161.4410  213.7520  148.4780 N   0  0  0  0  0  2  0  0  0  0  0  0
  159.7460  213.7040  147.1010 N   0  0  0  0  0  0  0  0  0  0  0  0
  159.2280  213.8080  148.3410 C   0  0  0  0  0  3  0  0  0  0  0  0
  1  2  2  0  0  0  0
  3  1  1  0  0  0  0
  4 24  1  1  0  0  0
  4  7  1  0  0  0  0
  5  1  1  0  0  0  0
  6  5  2  0  0  0  0
  7  3  2  0  0  0  0
  8  9  2  0  0  0  0
  9  4  1  0  0  0  0
  9  6  1  0  0  0  0
 11 10  1  0  0  0  0
 11  8  1  1  0  0  0
 12 10  1  0  0  0  0
 13 11  1  0  0  0  0
 14 15  1  6  0  0  0
 14 13  1  0  0  0  0
 14 12  1  0  0  0  0
 15 16  1  0  0  0  0
 17 20  1  0  0  0  0
 19 23  1  0  0  0  0
 19 17  2  0  0  0  0
 20 22  2  0  0  0  0
 20 16  1  0  0  0  0
 21 22  1  0  0  0  0
 22 18  1  0  0  0  0
 23 21  2  0  0  0  0
 25 28  1  6  0  0  0
 25 26  1  0  0  0  0
 25 27  1  0  0  0  0
 26 24  1  1  0  0  0
 26 27  1  0  0  0  0
 29 31  1  0  0  0  0
 30 28  1  0  0  0  0
 31 30  1  0  0  0  0
 32 29  2  0  0  0  0
 32 33  1  0  0  0  0
 33 30  2  0  0  0  0
M  END
>  <MODEL>
6

>  <REMARK>
 VINA RESULT:      -7.8      3.078      5.327
  Name = 
  8 active torsions:
  status: ('A' for Active; 'I' for Inactive)
    1  A    between atoms: C_6  and  C_25
    2  A    between atoms: C_9  and  C_29
    3  A    between atoms: C_11  and  O_22
    4  A    between atoms: C_13  and  O_22
    5  A    between atoms: C_14  and  C_25
    6  A    between atoms: C_15  and  C_29
    7  A    between atoms: C_15  and  C_32
    8  A    between atoms: C_17  and  N_31
                            x       y       z     vdW  Elec       q    Type
                         _______ _______ _______ _____ _____    ______ ____

>  <TORSDO>
F 8

$$$$
=
 OpenBabel11042421233D

 33 37  0  0  1  0  0  0  0  0999 V2000
  160.1240  207.6050  156.2030 C   0  0  0  0  0  0  0  0  0  0  0  0
  159.8680  206.9730  157.2600 O   0  0  0  0  0  0  0  0  0  0  0  0
  159.9610  208.9460  156.2120 N   0  0  0  0  0  0  0  0  0  0  0  0
  160.5790  209.7580  153.9350 C   0  0  2  0  0  3  0  0  0  0  0  0
  160.5520  206.8690  155.1160 C   0  0  0  0  0  3  0  0  0  0  0  0
  160.9000  207.2920  153.8480 C   0  0  0  0  0  3  0  0  0  0  0  0
  160.1480  209.8880  155.2610 C   0  0  0  0  0  3  0  0  0  0  0  0
  161.3040  208.6740  152.0340 N   0  0  0  0  0  0  0  0  0  0  0  0
  160.9280  208.5670  153.2790 C   0  0  0  0  0  0  0  0  0  0  0  0
  161.1240  206.2760  151.6660 C   0  0  0  0  0  2  0  0  0  0  0  0
  161.7250  207.5750  151.1690 C   0  0  1  0  0  3  0  0  0  0  0  0
  160.8290  205.4660  150.4250 C   0  0  0  0  0  2  0  0  0  0  0  0
  161.1980  207.7830  149.7560 C   0  0  0  0  0  2  0  0  0  0  0  0
  160.5050  206.4910  149.3580 C   0  0  1  0  0  3  0  0  0  0  0  0
  160.9130  206.0220  147.9630 C   0  0  0  0  0  2  0  0  0  0  0  0
  161.9820  204.9330  148.0000 C   0  0  0  0  0  2  0  0  0  0  0  0
  161.2930  202.5880  148.0330 C   0  0  0  0  0  3  0  0  0  0  0  0
  162.5860  203.9530  145.1630 N   0  0  0  0  0  1  0  0  0  0  0  0
  160.8190  201.3920  147.4070 N   0  0  0  0  0  0  0  0  0  0  0  0
  161.4960  203.6980  147.3170 C   0  0  0  0  0  0  0  0  0  0  0  0
  160.7010  202.4500  145.2600 C   0  0  0  0  0  3  0  0  0  0  0  0
  161.3110  203.7120  145.8160 C   0  0  0  0  0  0  0  0  0  0  0  0
  160.4950  201.3720  146.0150 C   0  0  0  0  0  3  0  0  0  0  0  0
  160.6780  210.9360  153.1740 O   0  0  0  0  0  0  0  0  0  0  0  0
  159.2690  212.8380  153.0700 C   0  0  1  0  0  3  0  0  0  0  0  0
  159.5840  211.5220  152.4770 C   0  0  1  0  0  3  0  0  0  0  0  0
  160.0080  212.7220  151.8800 O   0  0  0  0  0  0  0  0  0  0  0  0
  157.8410  213.2190  152.7300 C   0  0  0  0  0  2  0  0  0  0  0  0
  156.2770  212.9750  155.9280 N   0  0  0  0  0  0  0  0  0  0  0  0
  157.0420  213.3490  153.9780 C   0  0  0  0  0  0  0  0  0  0  0  0
  157.1950  212.5750  155.0640 N   0  0  0  0  0  0  0  0  0  0  0  0
  155.5470  213.9620  155.4290 N   0  0  0  0  0  2  0  0  0  0  0  0
  156.0000  214.2250  154.1880 C   0  0  0  0  0  3  0  0  0  0  0  0
  1  3  1  0  0  0  0
  1  2  2  0  0  0  0
  4 24  1  1  0  0  0
  4  7  1  0  0  0  0
  5  1  1  0  0  0  0
  6  5  2  0  0  0  0
  7  3  2  0  0  0  0
  8  9  2  0  0  0  0
  9  6  1  0  0  0  0
  9  4  1  0  0  0  0
 11 10  1  0  0  0  0
 11  8  1  1  0  0  0
 12 10  1  0  0  0  0
 13 11  1  0  0  0  0
 14 15  1  6  0  0  0
 14 13  1  0  0  0  0
 14 12  1  0  0  0  0
 15 16  1  0  0  0  0
 18 22  1  0  0  0  0
 19 17  1  0  0  0  0
 20 16  1  0  0  0  0
 20 17  2  0  0  0  0
 21 22  2  0  0  0  0
 21 23  1  0  0  0  0
 22 20  1  0  0  0  0
 23 19  2  0  0  0  0
 25 28  1  6  0  0  0
 26 25  1  0  0  0  0
 26 24  1  1  0  0  0
 27 26  1  0  0  0  0
 27 25  1  0  0  0  0
 28 30  1  0  0  0  0
 30 33  2  0  0  0  0
 30 31  1  0  0  0  0
 31 29  2  0  0  0  0
 32 29  1  0  0  0  0
 33 32  1  0  0  0  0
M  END
>  <MODEL>
7

>  <REMARK>
 VINA RESULT:      -7.7      2.483      4.293
  Name = 
  8 active torsions:
  status: ('A' for Active; 'I' for Inactive)
    1  A    between atoms: C_6  and  C_25
    2  A    between atoms: C_9  and  C_29
    3  A    between atoms: C_11  and  O_22
    4  A    between atoms: C_13  and  O_22
    5  A    between atoms: C_14  and  C_25
    6  A    between atoms: C_15  and  C_29
    7  A    between atoms: C_15  and  C_32
    8  A    between atoms: C_17  and  N_31
                            x       y       z     vdW  Elec       q    Type
                         _______ _______ _______ _____ _____    ______ ____

>  <TORSDO>
F 8

$$$$
=
 OpenBabel11042421233D

 33 37  0  0  1  0  0  0  0  0999 V2000
  161.9020  211.9290  148.6700 C   0  0  0  0  0  0  0  0  0  0  0  0
  162.3440  212.2440  147.5350 O   0  0  0  0  0  0  0  0  0  0  0  0
  161.0490  212.7830  149.2760 N   0  0  0  0  0  0  0  0  0  0  0  0
  160.4470  211.7580  151.4700 C   0  0  0  0  0  0  0  0  0  0  0  0
  162.3320  210.7300  149.2050 C   0  0  0  0  0  3  0  0  0  0  0  0
  162.0150  210.1410  150.4130 C   0  0  0  0  0  3  0  0  0  0  0  0
  160.4130  212.7360  150.4680 C   0  0  0  0  0  3  0  0  0  0  0  0
  161.0680  209.7890  152.4970 N   0  0  0  0  0  2  0  0  0  0  0  0
  161.1820  210.5610  151.4510 C   0  0  0  0  0  0  0  0  0  0  0  0
  161.2140  207.8440  153.9510 C   0  0  0  0  0  2  0  0  0  0  0  0
  161.7250  208.4980  152.6830 C   0  0  1  0  0  3  0  0  0  0  0  0
  161.1840  206.3620  153.6580 C   0  0  0  0  0  2  0  0  0  0  0  0
  161.3740  207.5570  151.5400 C   0  0  0  0  0  2  0  0  0  0  0  0
  160.8950  206.2630  152.1740 C   0  0  1  0  0  3  0  0  0  0  0  0
  161.5390  205.0330  151.5390 C   0  0  0  0  0  2  0  0  0  0  0  0
  160.5930  204.2990  150.5930 C   0  0  0  0  0  2  0  0  0  0  0  0
  160.5130  205.8210  148.6820 C   0  0  0  0  0  3  0  0  0  0  0  0
  160.7450  202.4370  148.1680 N   0  0  0  0  0  1  0  0  0  0  0  0
  160.8020  206.1800  147.3280 N   0  0  0  0  0  0  0  0  0  0  0  0
  160.9010  204.6410  149.1730 C   0  0  0  0  0  0  0  0  0  0  0  0
  161.9550  204.1170  146.9290 C   0  0  0  0  0  3  0  0  0  0  0  0
  161.5880  203.6120  148.3010 C   0  0  0  0  0  0  0  0  0  0  0  0
  161.5650  205.3110  146.4860 C   0  0  0  0  0  3  0  0  0  0  0  0
  159.6690  211.9890  152.6180 O   0  0  0  0  0  0  0  0  0  0  0  0
  158.0870  213.0970  153.9900 C   0  0  1  0  0  3  0  0  0  0  0  0
  158.4400  212.7060  152.6100 C   0  0  1  0  0  3  0  0  0  0  0  0
  158.6630  214.0090  153.0890 O   0  0  0  0  0  0  0  0  0  0  0  0
  156.5970  213.3630  154.0770 C   0  0  0  0  0  2  0  0  0  0  0  0
  155.1810  211.9770  157.0460 N   0  0  0  0  0  0  0  0  0  0  0  0
  155.9990  212.5400  155.1630 C   0  0  0  0  0  0  0  0  0  0  0  0
  155.6130  213.0200  156.3560 N   0  0  0  0  0  2  0  0  0  0  0  0
  155.2880  210.8600  156.3410 N   0  0  0  0  0  0  0  0  0  0  0  0
  155.8090  211.1770  155.1390 C   0  0  0  0  0  3  0  0  0  0  0  0
  1  5  1  0  0  0  0
  1  3  1  0  0  0  0
  2  1  2  0  0  0  0
  3  7  2  0  0  0  0
  4 24  1  0  0  0  0
  5  6  2  0  0  0  0
  6  9  1  0  0  0  0
  7  4  1  0  0  0  0
  9  4  2  0  0  0  0
  9  8  1  0  0  0  0
 11  8  1  6  0  0  0
 11 10  1  0  0  0  0
 12 10  1  0  0  0  0
 13 14  1  0  0  0  0
 13 11  1  0  0  0  0
 14 15  1  6  0  0  0
 14 12  1  0  0  0  0
 16 15  1  0  0  0  0
 17 20  1  0  0  0  0
 18 22  1  0  0  0  0
 19 17  2  0  0  0  0
 20 16  1  0  0  0  0
 21 22  1  0  0  0  0
 22 20  2  0  0  0  0
 23 21  2  0  0  0  0
 23 19  1  0  0  0  0
 25 28  1  6  0  0  0
 26 24  1  1  0  0  0
 26 27  1  0  0  0  0
 26 25  1  0  0  0  0
 27 25  1  0  0  0  0
 28 30  1  0  0  0  0
 30 31  1  0  0  0  0
 31 29  1  0  0  0  0
 32 29  2  0  0  0  0
 33 30  2  0  0  0  0
 33 32  1  0  0  0  0
M  END
>  <MODEL>
8

>  <REMARK>
 VINA RESULT:      -7.5      2.821      4.361
  Name = 
  8 active torsions:
  status: ('A' for Active; 'I' for Inactive)
    1  A    between atoms: C_6  and  C_25
    2  A    between atoms: C_9  and  C_29
    3  A    between atoms: C_11  and  O_22
    4  A    between atoms: C_13  and  O_22
    5  A    between atoms: C_14  and  C_25
    6  A    between atoms: C_15  and  C_29
    7  A    between atoms: C_15  and  C_32
    8  A    between atoms: C_17  and  N_31
                            x       y       z     vdW  Elec       q    Type
                         _______ _______ _______ _____ _____    ______ ____

>  <TORSDO>
F 8

$$$$
=
 OpenBabel11042421233D

 33 37  0  0  1  0  0  0  0  0999 V2000
  161.9630  208.8360  149.5790 C   0  0  0  0  0  0  0  0  0  0  0  0
  162.2010  209.6450  148.6460 O   0  0  0  0  0  0  0  0  0  0  0  0
  162.1500  207.5200  149.3390 N   0  0  0  0  0  0  0  0  0  0  0  0
  161.5620  206.3160  151.4440 C   0  0  1  0  0  3  0  0  0  0  0  0
  161.5280  209.3650  150.7780 C   0  0  0  0  0  2  0  0  0  0  0  0
  161.1970  208.7240  151.9560 C   0  0  0  0  0  3  0  0  0  0  0  0
  161.9870  206.4250  150.1140 C   0  0  0  0  0  3  0  0  0  0  0  0
  160.8290  207.0430  153.5060 N   0  0  0  0  0  2  0  0  0  0  0  0
  161.1970  207.3710  152.2980 C   0  0  0  0  0  0  0  0  0  0  0  0
  160.3480  207.2390  155.8830 C   0  0  0  0  0  2  0  0  0  0  0  0
  160.4260  207.9710  154.5590 C   0  0  1  0  0  3  0  0  0  0  0  0
  160.8010  208.2350  156.9250 C   0  0  0  0  0  2  0  0  0  0  0  0
  161.4730  209.0630  154.7300 C   0  0  0  0  0  2  0  0  0  0  0  0
  161.8070  209.1150  156.2110 C   0  0  1  0  0  3  0  0  0  0  0  0
  161.8140  210.5430  156.7520 C   0  0  0  0  0  2  0  0  0  0  0  0
  160.4440  210.9840  157.2610 C   0  0  0  0  0  2  0  0  0  0  0  0
  159.9580  213.2620  156.5170 C   0  0  0  0  0  3  0  0  0  0  0  0
  157.8290  210.6990  155.6950 N   0  0  0  0  0  1  0  0  0  0  0  0
  159.3760  214.2090  155.6180 N   0  0  0  0  0  0  0  0  0  0  0  0
  159.8180  211.9490  156.3100 C   0  0  0  0  0  0  0  0  0  0  0  0
  158.5030  212.4780  154.2100 C   0  0  0  0  0  3  0  0  0  0  0  0
  158.9780  211.4170  155.1690 C   0  0  0  0  0  0  0  0  0  0  0  0
  158.6830  213.7770  154.4450 C   0  0  0  0  0  3  0  0  0  0  0  0
  161.4890  205.0230  151.9920 O   0  0  0  0  0  0  0  0  0  0  0  0
  161.4340  203.0200  150.7280 C   0  0  1  0  0  3  0  0  0  0  0  0
  160.6360  203.9990  151.4940 C   0  0  1  0  0  3  0  0  0  0  0  0
  161.0230  202.7670  152.0470 O   0  0  0  0  0  0  0  0  0  0  0  0
  160.5310  202.2640  149.7740 C   0  0  0  0  0  2  0  0  0  0  0  0
  161.5870  203.6050  146.6400 N   0  0  0  0  0  0  0  0  0  0  0  0
  160.9200  202.5570  148.3680 C   0  0  0  0  0  0  0  0  0  0  0  0
  161.4120  203.7320  147.9440 N   0  0  0  0  0  2  0  0  0  0  0  0
  161.2170  202.4030  146.2230 N   0  0  0  0  0  0  0  0  0  0  0  0
  160.7830  201.7080  147.2930 C   0  0  0  0  0  3  0  0  0  0  0  0
  1  5  1  0  0  0  0
  2  1  2  0  0  0  0
  3  1  1  0  0  0  0
  3  7  2  0  0  0  0
  4 24  1  6  0  0  0
  4  9  1  0  0  0  0
  5  6  1  0  0  0  0
  6  9  2  0  0  0  0
  7  4  1  0  0  0  0
  9  8  1  0  0  0  0
 10 12  1  0  0  0  0
 11  8  1  6  0  0  0
 11 13  1  0  0  0  0
 11 10  1  0  0  0  0
 13 14  1  0  0  0  0
 14 15  1  1  0  0  0
 14 12  1  0  0  0  0
 15 16  1  0  0  0  0
 19 17  2  0  0  0  0
 20 17  1  0  0  0  0
 20 16  1  0  0  0  0
 21 23  2  0  0  0  0
 21 22  1  0  0  0  0
 22 18  1  0  0  0  0
 22 20  2  0  0  0  0
 23 19  1  0  0  0  0
 25 28  1  6  0  0  0
 25 26  1  0  0  0  0
 25 27  1  0  0  0  0
 26 24  1  1  0  0  0
 26 27  1  0  0  0  0
 29 31  1  0  0  0  0
 30 28  1  0  0  0  0
 31 30  1  0  0  0  0
 32 29  2  0  0  0  0
 32 33  1  0  0  0  0
 33 30  2  0  0  0  0
M  END
>  <MODEL>
9

>  <REMARK>
 VINA RESULT:      -7.5      2.277      9.158
  Name = 
  8 active torsions:
  status: ('A' for Active; 'I' for Inactive)
    1  A    between atoms: C_6  and  C_25
    2  A    between atoms: C_9  and  C_29
    3  A    between atoms: C_11  and  O_22
    4  A    between atoms: C_13  and  O_22
    5  A    between atoms: C_14  and  C_25
    6  A    between atoms: C_15  and  C_29
    7  A    between atoms: C_15  and  C_32
    8  A    between atoms: C_17  and  N_31
                            x       y       z     vdW  Elec       q    Type
                         _______ _______ _______ _____ _____    ______ ____

>  <TORSDO>
F 8

$$$$
