=
 OpenBabel11042422173D

 52 55  0  0  1  0  0  0  0  0999 V2000
  159.4990  213.0360  148.5900 C   0  0  2  0  0  3  0  0  0  0  0  0
  158.9600  213.6930  150.9720 C   0  0  2  0  0  3  0  0  0  0  0  0
  161.2750  212.9090  150.3530 C   0  0  0  0  0  2  0  0  0  0  0  0
  158.6670  213.9480  149.4920 C   0  0  0  0  0  2  0  0  0  0  0  0
  160.4620  213.8390  151.2470 C   0  0  0  0  0  2  0  0  0  0  0  0
  160.9900  213.2300  148.8900 C   0  0  1  0  0  3  0  0  0  0  0  0
  157.9510  212.8430  147.0250 C   0  0  0  0  0  1  0  0  0  0  0  0
  159.2330  213.3460  147.2550 O   0  0  0  0  0  0  0  0  0  0  0  0
  158.4840  212.3700  151.3540 N   0  0  0  0  0  2  0  0  0  0  0  0
  157.3090  211.3930  154.8250 C   0  0  0  0  0  3  0  0  0  0  0  0
  157.6930  212.5130  152.5660 C   0  0  1  0  0  3  0  0  0  0  0  0
  158.2660  211.6280  153.6930 C   0  0  1  0  0  3  0  0  0  0  0  0
  156.1310  214.4020  153.0520 C   0  0  0  0  0  2  0  0  0  0  0  0
  157.5920  213.9940  152.9450 C   0  0  0  0  0  2  0  0  0  0  0  0
  156.4530  212.3240  155.1470 C   0  0  0  0  0  0  0  0  0  0  0  0
  155.6550  213.3380  155.3470 C   0  0  0  0  0  0  0  0  0  0  0  0
  155.6760  214.4510  154.4460 N   0  0  0  0  0  2  0  0  0  0  0  0
  154.9320  213.4460  156.5740 N   0  0  0  0  0  1  0  0  0  0  0  0
  159.6260  212.1050  154.1880 C   0  0  0  0  0  2  0  0  0  0  0  0
  159.9320  211.4930  155.5490 C   0  0  0  0  0  2  0  0  0  0  0  0
  161.4280  211.2890  155.7210 C   0  0  0  0  0  2  0  0  0  0  0  0
  161.2330  208.8300  155.2400 C   0  0  0  0  0  0  0  0  0  0  0  0
  160.6660  208.3500  152.8560 C   0  0  0  0  0  2  0  0  0  0  0  0
  161.9110  210.1340  154.8510 C   0  0  1  0  0  3  0  0  0  0  0  0
  161.8140  209.2760  152.4780 C   0  0  0  0  0  2  0  0  0  0  0  0
  160.7240  207.9940  154.3160 C   0  0  0  0  0  3  0  0  0  0  0  0
  161.7520  210.5080  153.3690 C   0  0  0  0  0  2  0  0  0  0  0  0
  160.0640  207.7740  157.0160 O   0  0  0  0  0  1  0  0  0  0  0  0
  161.2760  208.3810  156.6690 C   0  0  0  0  0  2  0  0  0  0  0  0
  161.7630  212.4080  148.0640 O   0  0  0  0  0  0  0  0  0  0  0  0
  162.0640  211.2900  148.8460 C   0  0  0  0  0  2  0  0  0  0  0  0
  161.8750  210.0210  148.0380 C   0  0  0  0  0  2  0  0  0  0  0  0
  161.7310  208.8410  148.9760 C   0  0  0  0  0  2  0  0  0  0  0  0
  162.2150  207.5830  148.2870 C   0  0  0  0  0  2  0  0  0  0  0  0
  161.1740  206.5600  148.3130 N   0  0  0  0  0  0  0  0  0  0  0  0
  161.7760  203.3230  150.1630 O   0  0  0  0  0  0  0  0  0  0  0  0
  160.1230  204.0930  151.6050 F   0  0  0  0  0  0  0  0  0  0  0  0
  162.2810  204.1540  152.2190 O   0  0  0  0  0  1  0  0  0  0  0  0
  161.5460  205.6530  150.5860 N   0  0  0  0  0  0  0  0  0  0  0  0
  162.5880  206.4340  150.9650 O   0  0  0  0  0  1  0  0  0  0  0  0
  160.7580  203.1950  149.2000 C   0  0  1  0  0  3  0  0  0  0  0  0
  161.0600  205.6000  147.2120 C   0  0  2  0  0  3  0  0  0  0  0  0
  162.4240  204.3910  147.2900 S   0  0  0  0  0  0  0  0  0  0  0  0
  161.3570  203.0020  147.8090 C   0  0  0  0  0  2  0  0  0  0  0  0
  159.8950  201.9880  149.5270 C   0  0  0  0  0  1  0  0  0  0  0  0
  161.4150  204.2950  151.1330 C   0  0  1  0  0  0  0  0  0  0  0  0
  159.4070  206.0220  149.7260 O   0  0  0  0  0  0  0  0  0  0  0  0
  160.6550  206.1330  149.5730 C   0  0  0  0  0  0  0  0  0  0  0  0
  160.9410  206.2520  145.8260 C   0  0  2  0  0  3  0  0  0  0  0  0
  159.6430  206.1520  145.3210 O   0  0  0  0  0  1  0  0  0  0  0  0
  161.9140  205.6670  144.8520 C   0  0  0  0  0  3  0  0  0  0  0  0
  161.6360  205.6000  143.6650 O   0  0  0  0  0  0  0  0  0  0  0  0
  1  8  1  6  0  0  0
  1  6  1  0  0  0  0
  1  4  1  0  0  0  0
  2  5  1  0  0  0  0
  2  9  1  6  0  0  0
  3  5  1  0  0  0  0
  4  2  1  0  0  0  0
  6 30  1  6  0  0  0
  6  3  1  0  0  0  0
  7  8  1  0  0  0  0
 10 15  2  0  0  0  0
 11  9  1  6  0  0  0
 11 14  1  0  0  0  0
 11 12  1  0  0  0  0
 12 19  1  1  0  0  0
 12 10  1  0  0  0  0
 13 17  1  0  0  0  0
 14 13  1  0  0  0  0
 15 16  2  0  0  0  0
 16 18  1  0  0  0  0
 17 16  1  0  0  0  0
 19 20  1  0  0  0  0
 20 21  1  0  0  0  0
 22 29  1  0  0  0  0
 23 26  1  0  0  0  0
 24 22  1  0  0  0  0
 24 21  1  1  0  0  0
 25 23  1  0  0  0  0
 25 27  1  0  0  0  0
 26 22  2  0  0  0  0
 27 24  1  0  0  0  0
 29 28  1  0  0  0  0
 30 31  1  0  0  0  0
 32 31  1  0  0  0  0
 32 33  1  0  0  0  0
 34 35  1  0  0  0  0
 34 33  1  0  0  0  0
 35 48  1  0  0  0  0
 36 46  1  0  0  0  0
 39 40  1  0  0  0  0
 39 46  1  0  0  0  0
 41 45  1  1  0  0  0
 41 36  1  0  0  0  0
 42 49  1  6  0  0  0
 42 43  1  0  0  0  0
 42 35  1  0  0  0  0
 43 44  1  0  0  0  0
 44 41  1  0  0  0  0
 46 37  1  1  0  0  0
 46 38  1  0  0  0  0
 48 47  2  0  0  0  0
 48 39  1  0  0  0  0
 49 50  1  6  0  0  0
 51 49  1  0  0  0  0
 52 51  2  0  0  0  0
M  END
>  <MODEL>
1

>  <REMARK>
 VINA RESULT:      -5.5      0.000      0.000
  Name = 
  16 active torsions:
  status: ('A' for Active; 'I' for Inactive)
    1  A    between atoms: C_1  and  O_7
    2  A    between atoms: C_1  and  C_23
    3  A    between atoms: N_2  and  C_49
    4  A    between atoms: C_4  and  O_17
    5  A    between atoms: C_5  and  C_38
    6  A    between atoms: C_6  and  C_27
    7  A    between atoms: C_6  and  C_34
    8  A    between atoms: O_7  and  C_41
    9  A    between atoms: C_8  and  N_15
   10  A    between atoms: C_12  and  N_15
   11  A    between atoms: C_19  and  C_27
   12  A    between atoms: C_21  and  C_34
   13  A    between atoms: C_23  and  C_29
   14  A    between atoms: C_26  and  C_35
   15  A    between atoms: C_26  and  C_36
   16  A    between atoms: C_29  and  C_49
                            x       y       z     vdW  Elec       q    Type
                         _______ _______ _______ _____ _____    ______ ____

>  <TORSDO>
F 16

$$$$
=
 OpenBabel11042422173D

 52 55  0  0  1  0  0  0  0  0999 V2000
  158.8470  213.6420  147.6300 C   0  0  2  0  0  3  0  0  0  0  0  0
  159.0630  213.9630  150.1300 C   0  0  2  0  0  3  0  0  0  0  0  0
  161.0520  213.2510  148.7540 C   0  0  0  0  0  2  0  0  0  0  0  0
  158.3620  214.4260  148.8510 C   0  0  0  0  0  2  0  0  0  0  0  0
  160.5840  214.0540  149.9640 C   0  0  0  0  0  2  0  0  0  0  0  0
  160.3680  213.7780  147.4970 C   0  0  1  0  0  3  0  0  0  0  0  0
  157.5680  213.0350  145.9340 C   0  0  0  0  0  1  0  0  0  0  0  0
  158.2180  214.1400  146.4870 O   0  0  0  0  0  0  0  0  0  0  0  0
  158.6530  212.6040  150.4590 N   0  0  0  0  0  2  0  0  0  0  0  0
  158.1320  211.2430  153.9600 C   0  0  0  0  0  3  0  0  0  0  0  0
  158.1140  212.6150  151.8100 C   0  0  1  0  0  3  0  0  0  0  0  0
  158.8610  211.5970  152.6970 C   0  0  1  0  0  3  0  0  0  0  0  0
  156.7410  214.4530  152.7990 C   0  0  0  0  0  2  0  0  0  0  0  0
  158.1390  214.0420  152.3650 C   0  0  0  0  0  2  0  0  0  0  0  0
  157.3860  212.1410  154.5460 C   0  0  0  0  0  0  0  0  0  0  0  0
  156.6780  213.1340  155.0080 C   0  0  0  0  0  0  0  0  0  0  0  0
  156.5640  214.3440  154.2520 N   0  0  0  0  0  2  0  0  0  0  0  0
  156.2080  213.1070  156.3570 N   0  0  0  0  0  1  0  0  0  0  0  0
  160.3070  211.9960  152.9690 C   0  0  0  0  0  2  0  0  0  0  0  0
  161.1300  210.7680  153.3320 C   0  0  0  0  0  2  0  0  0  0  0  0
  161.4650  209.9600  152.0900 C   0  0  0  0  0  2  0  0  0  0  0  0
  161.6140  207.5960  151.2470 C   0  0  0  0  0  0  0  0  0  0  0  0
  162.0210  205.9410  153.0710 C   0  0  0  0  0  2  0  0  0  0  0  0
  160.9200  208.5410  152.2150 C   0  0  1  0  0  3  0  0  0  0  0  0
  160.8570  206.5840  153.8100 C   0  0  0  0  0  2  0  0  0  0  0  0
  162.0570  206.3860  151.6350 C   0  0  0  0  0  3  0  0  0  0  0  0
  160.9840  208.0960  153.6840 C   0  0  0  0  0  2  0  0  0  0  0  0
  161.3030  206.8340  149.0210 O   0  0  0  0  0  1  0  0  0  0  0  0
  161.6620  207.9450  149.7910 C   0  0  0  0  0  2  0  0  0  0  0  0
  160.8230  213.0730  146.3780 O   0  0  0  0  0  0  0  0  0  0  0  0
  161.6160  213.9820  145.6750 C   0  0  0  0  0  2  0  0  0  0  0  0
  161.6490  213.6180  144.2040 C   0  0  0  0  0  2  0  0  0  0  0  0
  160.6330  214.4530  143.4530 C   0  0  0  0  0  2  0  0  0  0  0  0
  160.9670  214.4530  141.9760 C   0  0  0  0  0  2  0  0  0  0  0  0
  160.3740  213.2900  141.3240 N   0  0  0  0  0  0  0  0  0  0  0  0
  161.8750  211.9730  138.1180 O   0  0  0  0  0  0  0  0  0  0  0  0
  162.4520  210.1240  139.4040 F   0  0  0  0  0  0  0  0  0  0  0  0
  164.0110  211.6280  138.8180 O   0  0  0  0  0  1  0  0  0  0  0  0
  162.4230  212.2370  140.4180 N   0  0  0  0  0  0  0  0  0  0  0  0
  163.3410  213.1360  140.8530 O   0  0  0  0  0  1  0  0  0  0  0  0
  160.5380  211.5610  138.2790 C   0  0  1  0  0  3  0  0  0  0  0  0
  159.2400  213.4570  140.4120 C   0  0  2  0  0  3  0  0  0  0  0  0
  159.8010  214.2060  138.8450 S   0  0  0  0  0  0  0  0  0  0  0  0
  159.5810  212.6770  137.8680 C   0  0  0  0  0  2  0  0  0  0  0  0
  160.2690  210.3480  137.4060 C   0  0  0  0  0  1  0  0  0  0  0  0
  162.6730  211.4780  139.1840 C   0  0  1  0  0  0  0  0  0  0  0  0
  160.7110  210.9900  141.4000 O   0  0  0  0  0  0  0  0  0  0  0  0
  161.1780  212.1270  141.1170 C   0  0  0  0  0  0  0  0  0  0  0  0
  158.0540  214.2160  141.0250 C   0  0  2  0  0  3  0  0  0  0  0  0
  157.7910  213.7910  142.3290 O   0  0  0  0  0  1  0  0  0  0  0  0
  156.8200  214.0880  140.1880 C   0  0  0  0  0  3  0  0  0  0  0  0
  156.7360  213.2160  139.3380 O   0  0  0  0  0  0  0  0  0  0  0  0
  1  8  1  6  0  0  0
  1  4  1  0  0  0  0
  2  9  1  6  0  0  0
  3  5  1  0  0  0  0
  4  2  1  0  0  0  0
  5  2  1  0  0  0  0
  6 30  1  6  0  0  0
  6  1  1  0  0  0  0
  6  3  1  0  0  0  0
  7  8  1  0  0  0  0
 10 15  2  0  0  0  0
 11  9  1  6  0  0  0
 11 14  1  0  0  0  0
 11 12  1  0  0  0  0
 12 19  1  1  0  0  0
 12 10  1  0  0  0  0
 13 17  1  0  0  0  0
 14 13  1  0  0  0  0
 15 16  2  0  0  0  0
 16 18  1  0  0  0  0
 17 16  1  0  0  0  0
 19 20  1  0  0  0  0
 21 20  1  0  0  0  0
 22 26  2  0  0  0  0
 22 24  1  0  0  0  0
 23 25  1  0  0  0  0
 24 21  1  1  0  0  0
 24 27  1  0  0  0  0
 26 23  1  0  0  0  0
 27 25  1  0  0  0  0
 28 29  1  0  0  0  0
 29 22  1  0  0  0  0
 31 30  1  0  0  0  0
 32 31  1  0  0  0  0
 33 32  1  0  0  0  0
 34 33  1  0  0  0  0
 35 34  1  0  0  0  0
 36 41  1  0  0  0  0
 36 46  1  0  0  0  0
 39 40  1  0  0  0  0
 39 48  1  0  0  0  0
 41 45  1  6  0  0  0
 42 49  1  1  0  0  0
 42 35  1  0  0  0  0
 43 42  1  0  0  0  0
 44 41  1  0  0  0  0
 44 43  1  0  0  0  0
 46 38  1  6  0  0  0
 46 37  1  0  0  0  0
 46 39  1  0  0  0  0
 48 35  1  0  0  0  0
 48 47  2  0  0  0  0
 49 50  1  1  0  0  0
 51 49  1  0  0  0  0
 52 51  2  0  0  0  0
M  END
>  <MODEL>
2

>  <REMARK>
 VINA RESULT:      -5.3      5.397      7.768
  Name = 
  16 active torsions:
  status: ('A' for Active; 'I' for Inactive)
    1  A    between atoms: C_1  and  O_7
    2  A    between atoms: C_1  and  C_23
    3  A    between atoms: N_2  and  C_49
    4  A    between atoms: C_4  and  O_17
    5  A    between atoms: C_5  and  C_38
    6  A    between atoms: C_6  and  C_27
    7  A    between atoms: C_6  and  C_34
    8  A    between atoms: O_7  and  C_41
    9  A    between atoms: C_8  and  N_15
   10  A    between atoms: C_12  and  N_15
   11  A    between atoms: C_19  and  C_27
   12  A    between atoms: C_21  and  C_34
   13  A    between atoms: C_23  and  C_29
   14  A    between atoms: C_26  and  C_35
   15  A    between atoms: C_26  and  C_36
   16  A    between atoms: C_29  and  C_49
                            x       y       z     vdW  Elec       q    Type
                         _______ _______ _______ _____ _____    ______ ____

>  <TORSDO>
F 16

$$$$
=
 OpenBabel11042422173D

 52 55  0  0  1  0  0  0  0  0999 V2000
  162.3300  207.6470  149.7060 C   0  0  2  0  0  3  0  0  0  0  0  0
  160.9320  207.2500  147.6360 C   0  0  2  0  0  3  0  0  0  0  0  0
  160.8800  205.6090  149.5490 C   0  0  0  0  0  2  0  0  0  0  0  0
  161.5390  208.2980  148.5710 C   0  0  0  0  0  2  0  0  0  0  0  0
  160.0710  206.2640  148.4340 C   0  0  0  0  0  2  0  0  0  0  0  0
  161.4240  206.6850  150.4830 C   0  0  1  0  0  3  0  0  0  0  0  0
  162.0100  209.7530  150.2950 C   0  0  0  0  0  1  0  0  0  0  0  0
  162.8150  208.6420  150.5570 O   0  0  0  0  0  0  0  0  0  0  0  0
  161.9880  206.5570  146.9110 N   0  0  0  0  0  2  0  0  0  0  0  0
  160.0050  204.5570  144.3720 C   0  0  0  0  0  3  0  0  0  0  0  0
  161.4180  205.3450  146.3430 C   0  0  1  0  0  3  0  0  0  0  0  0
  160.9550  205.5960  144.8930 C   0  0  1  0  0  3  0  0  0  0  0  0
  161.7800  203.0340  147.2210 C   0  0  0  0  0  2  0  0  0  0  0  0
  162.4190  204.1940  146.4730 C   0  0  0  0  0  2  0  0  0  0  0  0
  160.1160  203.3220  144.7790 C   0  0  0  0  0  0  0  0  0  0  0  0
  160.3450  202.1390  145.2810 C   0  0  0  0  0  0  0  0  0  0  0  0
  161.3280  201.9770  146.3090 N   0  0  0  0  0  2  0  0  0  0  0  0
  159.7910  200.9800  144.6560 N   0  0  0  0  0  1  0  0  0  0  0  0
  162.1140  205.8370  143.9320 C   0  0  0  0  0  2  0  0  0  0  0  0
  161.6090  205.8520  142.4960 C   0  0  0  0  0  2  0  0  0  0  0  0
  162.1360  207.0700  141.7550 C   0  0  0  0  0  2  0  0  0  0  0  0
  161.6130  208.4810  139.7410 C   0  0  0  0  0  0  0  0  0  0  0  0
  162.8140  207.7230  137.6880 C   0  0  0  0  0  2  0  0  0  0  0  0
  161.6360  207.0720  140.3140 C   0  0  1  0  0  3  0  0  0  0  0  0
  162.2960  206.3250  137.9940 C   0  0  0  0  0  2  0  0  0  0  0  0
  162.0980  208.7540  138.5150 C   0  0  0  0  0  3  0  0  0  0  0  0
  162.4540  206.0690  139.4860 C   0  0  0  0  0  2  0  0  0  0  0  0
  161.1640  210.8060  139.9090 O   0  0  0  0  0  1  0  0  0  0  0  0
  160.8880  209.5610  140.4840 C   0  0  0  0  0  2  0  0  0  0  0  0
  162.1340  206.0890  151.5310 O   0  0  0  0  0  0  0  0  0  0  0  0
  161.2450  206.0780  152.6090 C   0  0  0  0  0  2  0  0  0  0  0  0
  161.5920  207.1880  153.5820 C   0  0  0  0  0  2  0  0  0  0  0  0
  160.5920  208.3150  153.4400 C   0  0  0  0  0  2  0  0  0  0  0  0
  161.0780  209.5260  154.2100 C   0  0  0  0  0  2  0  0  0  0  0  0
  160.0030  210.0650  155.0360 N   0  0  0  0  0  0  0  0  0  0  0  0
  159.3730  213.7880  155.0920 O   0  0  0  0  0  0  0  0  0  0  0  0
  157.3790  213.2470  154.0250 F   0  0  0  0  0  0  0  0  0  0  0  0
  159.0750  214.1520  152.8670 O   0  0  0  0  0  1  0  0  0  0  0  0
  159.2790  211.9420  153.5940 N   0  0  0  0  0  0  0  0  0  0  0  0
  160.1570  211.7840  152.5720 O   0  0  0  0  0  1  0  0  0  0  0  0
  158.8410  213.1490  156.2270 C   0  0  1  0  0  3  0  0  0  0  0  0
  160.2390  210.3530  156.4530 C   0  0  2  0  0  3  0  0  0  0  0  0
  161.2850  211.8370  156.6260 S   0  0  0  0  0  0  0  0  0  0  0  0
  159.9350  212.8920  157.2600 C   0  0  0  0  0  2  0  0  0  0  0  0
  157.7780  214.0330  156.8590 C   0  0  0  0  0  1  0  0  0  0  0  0
  158.7640  213.2820  153.9130 C   0  0  1  0  0  0  0  0  0  0  0  0
  157.7570  210.5740  154.7160 O   0  0  0  0  0  0  0  0  0  0  0  0
  158.9570  210.8110  154.4110 C   0  0  0  0  0  0  0  0  0  0  0  0
  160.7900  209.1600  157.2480 C   0  0  2  0  0  3  0  0  0  0  0  0
  162.1600  208.9890  157.0360 O   0  0  0  0  0  1  0  0  0  0  0  0
  160.0630  207.8930  156.9240 C   0  0  0  0  0  3  0  0  0  0  0  0
  160.6120  206.8110  157.0630 O   0  0  0  0  0  0  0  0  0  0  0  0
  1  6  1  0  0  0  0
  1  8  1  1  0  0  0
  2  9  1  1  0  0  0
  2  5  1  0  0  0  0
  2  4  1  0  0  0  0
  3  6  1  0  0  0  0
  4  1  1  0  0  0  0
  5  3  1  0  0  0  0
  6 30  1  1  0  0  0
  7  8  1  0  0  0  0
 10 15  2  0  0  0  0
 10 12  1  0  0  0  0
 11 14  1  0  0  0  0
 11  9  1  6  0  0  0
 12 19  1  6  0  0  0
 12 11  1  0  0  0  0
 14 13  1  0  0  0  0
 15 16  2  0  0  0  0
 16 17  1  0  0  0  0
 17 13  1  0  0  0  0
 18 16  1  0  0  0  0
 20 19  1  0  0  0  0
 21 20  1  0  0  0  0
 22 24  1  0  0  0  0
 22 29  1  0  0  0  0
 23 25  1  0  0  0  0
 23 26  1  0  0  0  0
 24 21  1  1  0  0  0
 25 27  1  0  0  0  0
 26 22  2  0  0  0  0
 27 24  1  0  0  0  0
 28 29  1  0  0  0  0
 30 31  1  0  0  0  0
 31 32  1  0  0  0  0
 33 32  1  0  0  0  0
 33 34  1  0  0  0  0
 34 35  1  0  0  0  0
 35 42  1  0  0  0  0
 36 41  1  0  0  0  0
 39 46  1  0  0  0  0
 39 48  1  0  0  0  0
 40 39  1  0  0  0  0
 41 45  1  1  0  0  0
 41 44  1  0  0  0  0
 42 43  1  0  0  0  0
 42 49  1  6  0  0  0
 43 44  1  0  0  0  0
 46 38  1  6  0  0  0
 46 37  1  0  0  0  0
 46 36  1  0  0  0  0
 48 47  2  0  0  0  0
 48 35  1  0  0  0  0
 49 50  1  6  0  0  0
 51 52  2  0  0  0  0
 51 49  1  0  0  0  0
M  END
>  <MODEL>
3

>  <REMARK>
 VINA RESULT:      -3.8      4.110     11.638
  Name = 
  16 active torsions:
  status: ('A' for Active; 'I' for Inactive)
    1  A    between atoms: C_1  and  O_7
    2  A    between atoms: C_1  and  C_23
    3  A    between atoms: N_2  and  C_49
    4  A    between atoms: C_4  and  O_17
    5  A    between atoms: C_5  and  C_38
    6  A    between atoms: C_6  and  C_27
    7  A    between atoms: C_6  and  C_34
    8  A    between atoms: O_7  and  C_41
    9  A    between atoms: C_8  and  N_15
   10  A    between atoms: C_12  and  N_15
   11  A    between atoms: C_19  and  C_27
   12  A    between atoms: C_21  and  C_34
   13  A    between atoms: C_23  and  C_29
   14  A    between atoms: C_26  and  C_35
   15  A    between atoms: C_26  and  C_36
   16  A    between atoms: C_29  and  C_49
                            x       y       z     vdW  Elec       q    Type
                         _______ _______ _______ _____ _____    ______ ____

>  <TORSDO>
F 16

$$$$
