=
 OpenBabel11052409373D

 38 40  0  0  1  0  0  0  0  0999 V2000
  161.4740  203.5830  148.8510 C   0  0  1  0  0  3  0  0  0  0  0  0
  160.8100  206.0720  149.1130 N   0  0  0  0  0  0  0  0  0  0  0  0
  160.6730  202.1600  150.9120 C   0  0  0  0  0  3  0  0  0  0  0  0
  161.7630  204.9910  150.8630 C   0  0  2  0  0  3  0  0  0  0  0  0
  161.4900  206.3590  151.3870 C   0  0  1  0  0  3  0  0  0  0  0  0
  161.3730  204.8710  149.6150 C   0  0  0  0  0  0  0  0  0  0  0  0
  160.8520  207.0640  150.1800 C   0  0  1  0  0  3  0  0  0  0  0  0
  160.6060  202.5070  149.4740 C   0  0  0  0  0  0  0  0  0  0  0  0
  161.4230  202.7470  151.8550 C   0  0  0  0  0  3  0  0  0  0  0  0
  162.3910  203.8730  151.6320 C   0  0  0  0  0  2  0  0  0  0  0  0
  159.7960  201.8590  148.7570 O   0  0  0  0  0  0  0  0  0  0  0  0
  161.6750  208.2500  149.7710 C   0  0  0  0  0  0  0  0  0  0  0  0
  161.6170  209.4750  150.5250 N   0  0  0  0  0  0  0  0  0  0  0  0
  162.4590  208.1510  148.7860 O   0  0  0  0  0  0  0  0  0  0  0  0
  162.5280  210.5730  150.2340 C   0  0  0  0  0  2  0  0  0  0  0  0
  161.8180  211.6430  149.4260 C   0  0  0  0  0  2  0  0  0  0  0  0
  162.7060  212.0720  148.2760 C   0  0  0  0  0  2  0  0  0  0  0  0
  162.7740  214.4420  148.0600 O   0  0  0  0  0  0  0  0  0  0  0  0
  160.4760  212.2400  146.3790 N   0  0  0  0  0  1  0  0  0  0  0  0
  161.1230  213.4070  146.8010 N   0  0  0  0  0  2  0  0  0  0  0  0
  162.2190  213.3660  147.7140 C   0  0  0  0  0  0  0  0  0  0  0  0
  160.7690  209.5880  151.7040 C   0  0  0  0  0  2  0  0  0  0  0  0
  162.0110  210.2920  153.6150 O   0  0  0  0  0  1  0  0  0  0  0  0
  161.2170  210.7570  152.5670 C   0  0  2  0  0  3  0  0  0  0  0  0
  160.1540  212.1710  154.1580 O   0  0  0  0  0  1  0  0  0  0  0  0
  160.0340  211.4770  153.1150 C   0  0  0  0  0  0  0  0  0  0  0  0
  158.7890  211.3630  152.5010 O   0  0  0  0  0  0  0  0  0  0  0  0
  161.2070  203.7750  147.4120 C   0  0  0  0  0  0  0  0  0  0  0  0
  160.9970  203.9270  146.2840 N   0  0  0  0  0  0  0  0  0  0  0  0
  160.4890  206.2870  152.5330 C   0  0  0  0  0  2  0  0  0  0  0  0
  161.1770  206.5190  153.8720 C   0  0  0  0  0  2  0  0  0  0  0  0
  160.3050  207.1840  154.7830 O   0  0  0  0  0  0  0  0  0  0  0  0
  160.0240  209.2500  156.1680 C   0  0  0  0  0  0  0  0  0  0  0  0
  161.9070  208.0170  156.3150 N   0  0  0  0  0  0  0  0  0  0  0  0
  158.8760  209.5750  155.7690 O   0  0  0  0  0  0  0  0  0  0  0  0
  162.1000  209.1330  157.2420 C   0  0  0  0  0  3  0  0  0  0  0  0
  160.8230  209.9840  157.1730 C   0  0  0  0  0  3  0  0  0  0  0  0
  160.7640  208.1030  155.7300 C   0  0  0  0  0  0  0  0  0  0  0  0
  1 28  1  6  0  0  0
  1  8  1  0  0  0  0
  1  6  1  0  0  0  0
  2  6  2  0  0  0  0
  2  7  1  0  0  0  0
  3  9  2  0  0  0  0
  4  5  1  0  0  0  0
  4 10  1  1  0  0  0
  5 30  1  1  0  0  0
  6  4  1  0  0  0  0
  7 12  1  6  0  0  0
  7  5  1  0  0  0  0
  8  3  1  0  0  0  0
 10  9  1  0  0  0  0
 11  8  2  0  0  0  0
 12 13  1  0  0  0  0
 13 22  1  0  0  0  0
 14 12  2  0  0  0  0
 15 13  1  0  0  0  0
 16 15  1  0  0  0  0
 17 16  1  0  0  0  0
 19 20  1  0  0  0  0
 20 21  1  0  0  0  0
 21 18  2  0  0  0  0
 21 17  1  0  0  0  0
 22 24  1  0  0  0  0
 24 26  1  0  0  0  0
 24 23  1  1  0  0  0
 26 25  1  0  0  0  0
 27 26  2  0  0  0  0
 29 28  3  0  0  0  0
 30 31  1  0  0  0  0
 31 32  1  0  0  0  0
 32 38  1  0  0  0  0
 33 37  1  0  0  0  0
 34 36  1  0  0  0  0
 35 33  2  0  0  0  0
 37 36  2  0  0  0  0
 38 33  1  0  0  0  0
 38 34  2  0  0  0  0
M  END
>  <MODEL>
1

>  <REMARK>
 VINA RESULT:      -6.7      0.000      0.000
  Name = 
  13 active torsions:
  status: ('A' for Active; 'I' for Inactive)
    1  A    between atoms: C_1  and  C_26
    2  A    between atoms: N_2  and  C_6
    3  A    between atoms: N_2  and  C_12
    4  A    between atoms: C_5  and  C_7
    5  A    between atoms: C_6  and  C_30
    6  A    between atoms: C_12  and  C_36
    7  A    between atoms: C_16  and  C_22
    8  A    between atoms: C_18  and  C_24
    9  A    between atoms: C_18  and  C_30
   10  A    between atoms: C_20  and  C_22
   11  A    between atoms: C_20  and  O_32
   12  A    between atoms: C_23  and  C_36
   13  A    between atoms: C_27  and  O_32
                            x       y       z     vdW  Elec       q    Type
                         _______ _______ _______ _____ _____    ______ ____

>  <TORSDO>
F 13

$$$$
=
 OpenBabel11052409373D

 38 40  0  0  1  0  0  0  0  0999 V2000
  161.2110  208.1690  153.8220 C   0  0  1  0  0  3  0  0  0  0  0  0
  160.4190  206.5240  151.9850 N   0  0  0  0  0  2  0  0  0  0  0  0
  161.2230  210.6460  152.9420 C   0  0  0  0  0  3  0  0  0  0  0  0
  161.9630  208.1010  151.4670 C   0  0  0  0  0  0  0  0  0  0  0  0
  161.7320  207.3840  150.1810 C   0  0  1  0  0  3  0  0  0  0  0  0
  161.2230  207.6030  152.4310 C   0  0  0  0  0  0  0  0  0  0  0  0
  160.6890  206.3230  150.5660 C   0  0  1  0  0  3  0  0  0  0  0  0
  160.6850  209.5910  153.8300 C   0  0  0  0  0  0  0  0  0  0  0  0
  162.1660  210.5110  151.9980 C   0  0  0  0  0  3  0  0  0  0  0  0
  162.9030  209.2460  151.6690 C   0  0  0  0  0  2  0  0  0  0  0  0
  159.7620  209.9160  154.6250 O   0  0  0  0  0  0  0  0  0  0  0  0
  161.2270  204.9440  150.3180 C   0  0  0  0  0  0  0  0  0  0  0  0
  161.1810  204.3700  148.9990 N   0  0  0  0  0  0  0  0  0  0  0  0
  161.7650  204.3080  151.2670 O   0  0  0  0  0  0  0  0  0  0  0  0
  161.8430  203.1040  148.7140 C   0  0  0  0  0  2  0  0  0  0  0  0
  160.8140  202.0270  148.4310 C   0  0  0  0  0  2  0  0  0  0  0  0
  161.4330  200.9620  147.5490 C   0  0  0  0  0  2  0  0  0  0  0  0
  160.3100  202.0810  145.7730 O   0  0  0  0  0  0  0  0  0  0  0  0
  161.3440  198.6330  145.7700 N   0  0  0  0  0  1  0  0  0  0  0  0
  160.7850  199.8480  145.3580 N   0  0  0  0  0  2  0  0  0  0  0  0
  160.8190  201.0070  146.1900 C   0  0  0  0  0  0  0  0  0  0  0  0
  160.6240  205.1140  147.8770 C   0  0  0  0  0  2  0  0  0  0  0  0
  162.5980  206.1440  147.0200 O   0  0  0  0  0  1  0  0  0  0  0  0
  161.6280  205.1820  146.7380 C   0  0  2  0  0  3  0  0  0  0  0  0
  160.0980  206.4640  145.4410 O   0  0  0  0  0  1  0  0  0  0  0  0
  160.9380  205.5260  145.4630 C   0  0  0  0  0  0  0  0  0  0  0  0
  161.1890  204.7970  144.3030 O   0  0  0  0  0  0  0  0  0  0  0  0
  160.4980  207.2860  154.7670 C   0  0  0  0  0  0  0  0  0  0  0  0
  159.9400  206.5940  155.5080 N   0  0  0  0  0  0  0  0  0  0  0  0
  161.1420  208.3400  149.1520 C   0  0  0  0  0  2  0  0  0  0  0  0
  162.2020  209.3050  148.6360 C   0  0  0  0  0  2  0  0  0  0  0  0
  161.8380  210.6550  148.9110 O   0  0  0  0  0  0  0  0  0  0  0  0
  162.8030  212.5100  147.5360 C   0  0  0  0  0  0  0  0  0  0  0  0
  160.6740  211.8350  147.2210 N   0  0  0  0  0  0  0  0  0  0  0  0
  163.9540  212.5240  148.0410 O   0  0  0  0  0  0  0  0  0  0  0  0
  160.8810  212.9260  146.2660 C   0  0  0  0  0  3  0  0  0  0  0  0
  162.3320  213.3970  146.4500 C   0  0  0  0  0  3  0  0  0  0  0  0
  161.7390  211.6270  147.9130 C   0  0  0  0  0  0  0  0  0  0  0  0
  1  8  1  0  0  0  0
  1 28  1  1  0  0  0
  2  6  1  0  0  0  0
  3  8  1  0  0  0  0
  4 10  1  0  0  0  0
  4  6  2  0  0  0  0
  5 30  1  6  0  0  0
  5  7  1  0  0  0  0
  5  4  1  0  0  0  0
  6  1  1  0  0  0  0
  7 12  1  1  0  0  0
  7  2  1  0  0  0  0
  8 11  2  0  0  0  0
  9  3  2  0  0  0  0
 10  9  1  0  0  0  0
 12 14  2  0  0  0  0
 13 12  1  0  0  0  0
 15 13  1  0  0  0  0
 16 15  1  0  0  0  0
 17 16  1  0  0  0  0
 18 21  2  0  0  0  0
 20 19  1  0  0  0  0
 20 21  1  0  0  0  0
 21 17  1  0  0  0  0
 22 13  1  0  0  0  0
 24 23  1  1  0  0  0
 24 22  1  0  0  0  0
 25 26  1  0  0  0  0
 26 24  1  0  0  0  0
 27 26  2  0  0  0  0
 28 29  3  0  0  0  0
 31 32  1  0  0  0  0
 31 30  1  0  0  0  0
 33 38  1  0  0  0  0
 33 35  2  0  0  0  0
 34 38  2  0  0  0  0
 36 37  2  0  0  0  0
 36 34  1  0  0  0  0
 37 33  1  0  0  0  0
 38 32  1  0  0  0  0
M  END
>  <MODEL>
2

>  <REMARK>
 VINA RESULT:      -6.1      2.421      8.613
  Name = 
  13 active torsions:
  status: ('A' for Active; 'I' for Inactive)
    1  A    between atoms: C_1  and  C_26
    2  A    between atoms: N_2  and  C_6
    3  A    between atoms: N_2  and  C_12
    4  A    between atoms: C_5  and  C_7
    5  A    between atoms: C_6  and  C_30
    6  A    between atoms: C_12  and  C_36
    7  A    between atoms: C_16  and  C_22
    8  A    between atoms: C_18  and  C_24
    9  A    between atoms: C_18  and  C_30
   10  A    between atoms: C_20  and  C_22
   11  A    between atoms: C_20  and  O_32
   12  A    between atoms: C_23  and  C_36
   13  A    between atoms: C_27  and  O_32
                            x       y       z     vdW  Elec       q    Type
                         _______ _______ _______ _____ _____    ______ ____

>  <TORSDO>
F 13

$$$$
=
 OpenBabel11052409373D

 38 40  0  0  1  0  0  0  0  0999 V2000
  161.0720  208.5880  155.9410 C   0  0  1  0  0  3  0  0  0  0  0  0
  160.3700  207.3100  153.8010 N   0  0  0  0  0  2  0  0  0  0  0  0
  160.9260  211.1900  155.5890 C   0  0  0  0  0  3  0  0  0  0  0  0
  161.8100  209.0520  153.6270 C   0  0  0  0  0  0  0  0  0  0  0  0
  161.6140  208.6010  152.2200 C   0  0  1  0  0  3  0  0  0  0  0  0
  161.1090  208.3220  154.4640 C   0  0  0  0  0  0  0  0  0  0  0  0
  160.6410  207.4220  152.3740 C   0  0  1  0  0  3  0  0  0  0  0  0
  160.4600  209.9440  156.2380 C   0  0  0  0  0  0  0  0  0  0  0  0
  161.8680  211.3100  154.6430 C   0  0  0  0  0  3  0  0  0  0  0  0
  162.6790  210.1870  154.0650 C   0  0  0  0  0  2  0  0  0  0  0  0
  159.5240  210.0410  157.0780 O   0  0  0  0  0  0  0  0  0  0  0  0
  161.2600  206.1590  151.8500 C   0  0  0  0  0  0  0  0  0  0  0  0
  161.2250  205.8580  150.4430 N   0  0  0  0  0  0  0  0  0  0  0  0
  161.8570  205.3840  152.6490 O   0  0  0  0  0  0  0  0  0  0  0  0
  161.9610  204.7210  149.9060 C   0  0  0  0  0  2  0  0  0  0  0  0
  161.0050  203.5980  149.5540 C   0  0  0  0  0  2  0  0  0  0  0  0
  161.2250  203.1860  148.1120 C   0  0  0  0  0  2  0  0  0  0  0  0
  161.2780  200.9770  148.9980 O   0  0  0  0  0  0  0  0  0  0  0  0
  160.6300  201.8560  145.5670 N   0  0  0  0  0  1  0  0  0  0  0  0
  160.8310  201.0940  146.7240 N   0  0  0  0  0  2  0  0  0  0  0  0
  161.1110  201.7050  147.9830 C   0  0  0  0  0  0  0  0  0  0  0  0
  160.5990  206.7710  149.4970 C   0  0  0  0  0  2  0  0  0  0  0  0
  161.5330  208.5930  148.2720 O   0  0  0  0  0  1  0  0  0  0  0  0
  161.6020  207.2100  148.4430 C   0  0  2  0  0  3  0  0  0  0  0  0
  160.1290  206.3480  146.7850 O   0  0  0  0  0  1  0  0  0  0  0  0
  161.3210  206.5300  147.1480 C   0  0  0  0  0  0  0  0  0  0  0  0
  162.3630  206.0640  146.3510 O   0  0  0  0  0  0  0  0  0  0  0  0
  160.4220  207.4890  156.6810 C   0  0  0  0  0  0  0  0  0  0  0  0
  159.9110  206.6270  157.2600 N   0  0  0  0  0  0  0  0  0  0  0  0
  160.9590  209.7100  151.4060 C   0  0  0  0  0  2  0  0  0  0  0  0
  161.9850  210.4250  150.5360 C   0  0  0  0  0  2  0  0  0  0  0  0
  161.5340  211.7310  150.1880 O   0  0  0  0  0  0  0  0  0  0  0  0
  160.6590  213.0130  148.2240 C   0  0  0  0  0  0  0  0  0  0  0  0
  162.7320  212.1240  148.1840 N   0  0  0  0  0  0  0  0  0  0  0  0
  159.5280  213.3010  148.6920 O   0  0  0  0  0  0  0  0  0  0  0  0
  162.5640  212.7780  146.8850 C   0  0  0  0  0  3  0  0  0  0  0  0
  161.1610  213.4050  146.8900 C   0  0  0  0  0  3  0  0  0  0  0  0
  161.6720  212.2590  148.9030 C   0  0  0  0  0  0  0  0  0  0  0  0
  1  8  1  0  0  0  0
  1 28  1  1  0  0  0
  2  6  1  0  0  0  0
  3  8  1  0  0  0  0
  4 10  1  0  0  0  0
  4  6  2  0  0  0  0
  5 30  1  6  0  0  0
  5  7  1  0  0  0  0
  5  4  1  0  0  0  0
  6  1  1  0  0  0  0
  7 12  1  1  0  0  0
  7  2  1  0  0  0  0
  8 11  2  0  0  0  0
  9  3  2  0  0  0  0
 10  9  1  0  0  0  0
 12 14  2  0  0  0  0
 13 12  1  0  0  0  0
 15 13  1  0  0  0  0
 16 15  1  0  0  0  0
 17 16  1  0  0  0  0
 19 20  1  0  0  0  0
 20 21  1  0  0  0  0
 21 17  1  0  0  0  0
 21 18  2  0  0  0  0
 22 13  1  0  0  0  0
 24 23  1  6  0  0  0
 24 22  1  0  0  0  0
 25 26  1  0  0  0  0
 26 24  1  0  0  0  0
 27 26  2  0  0  0  0
 28 29  3  0  0  0  0
 31 30  1  0  0  0  0
 32 31  1  0  0  0  0
 33 35  2  0  0  0  0
 33 38  1  0  0  0  0
 34 38  2  0  0  0  0
 36 37  2  0  0  0  0
 36 34  1  0  0  0  0
 37 33  1  0  0  0  0
 38 32  1  0  0  0  0
M  END
>  <MODEL>
3

>  <REMARK>
 VINA RESULT:      -6.0      2.020      8.256
  Name = 
  13 active torsions:
  status: ('A' for Active; 'I' for Inactive)
    1  A    between atoms: C_1  and  C_26
    2  A    between atoms: N_2  and  C_6
    3  A    between atoms: N_2  and  C_12
    4  A    between atoms: C_5  and  C_7
    5  A    between atoms: C_6  and  C_30
    6  A    between atoms: C_12  and  C_36
    7  A    between atoms: C_16  and  C_22
    8  A    between atoms: C_18  and  C_24
    9  A    between atoms: C_18  and  C_30
   10  A    between atoms: C_20  and  C_22
   11  A    between atoms: C_20  and  O_32
   12  A    between atoms: C_23  and  C_36
   13  A    between atoms: C_27  and  O_32
                            x       y       z     vdW  Elec       q    Type
                         _______ _______ _______ _____ _____    ______ ____

>  <TORSDO>
F 13

$$$$
=
 OpenBabel11052409373D

 38 40  0  0  1  0  0  0  0  0999 V2000
  159.4460  214.1290  146.1390 C   0  0  1  0  0  3  0  0  0  0  0  0
  159.2770  212.9700  148.4490 N   0  0  0  0  0  2  0  0  0  0  0  0
  161.3440  213.0540  144.6700 C   0  0  0  0  0  3  0  0  0  0  0  0
  161.3150  213.5710  147.6590 C   0  0  0  0  0  0  0  0  0  0  0  0
  161.6110  212.9130  148.9620 C   0  0  1  0  0  3  0  0  0  0  0  0
  160.0260  213.5790  147.4100 C   0  0  0  0  0  0  0  0  0  0  0  0
  160.2150  212.5240  149.4720 C   0  0  1  0  0  3  0  0  0  0  0  0
  159.9140  213.3340  144.9350 C   0  0  0  0  0  0  0  0  0  0  0  0
  162.3920  213.3850  145.4360 C   0  0  0  0  0  3  0  0  0  0  0  0
  162.3290  214.1510  146.7260 C   0  0  0  0  0  2  0  0  0  0  0  0
  159.0720  212.8940  144.1060 O   0  0  0  0  0  0  0  0  0  0  0  0
  159.9280  213.1950  150.7830 C   0  0  0  0  0  0  0  0  0  0  0  0
  159.8340  212.4220  151.9930 N   0  0  0  0  0  0  0  0  0  0  0  0
  159.8200  214.4530  150.8250 O   0  0  0  0  0  0  0  0  0  0  0  0
  159.7180  213.0770  153.2890 C   0  0  0  0  0  2  0  0  0  0  0  0
  158.2870  213.0070  153.7860 C   0  0  0  0  0  2  0  0  0  0  0  0
  157.6090  214.3420  153.5500 C   0  0  0  0  0  2  0  0  0  0  0  0
  156.5740  214.0700  151.4230 O   0  0  0  0  0  0  0  0  0  0  0  0
  154.8740  214.1820  154.5940 N   0  0  0  0  0  1  0  0  0  0  0  0
  155.1020  214.0970  153.2160 N   0  0  0  0  0  2  0  0  0  0  0  0
  156.4190  214.1580  152.6700 C   0  0  0  0  0  0  0  0  0  0  0  0
  160.0220  210.9780  151.9760 C   0  0  0  0  0  2  0  0  0  0  0  0
  162.2600  210.1760  152.1680 O   0  0  0  0  0  1  0  0  0  0  0  0
  161.1520  210.5810  152.9120 C   0  0  2  0  0  3  0  0  0  0  0  0
  160.9980  208.2820  153.5080 O   0  0  0  0  0  0  0  0  0  0  0  0
  160.7160  209.4720  153.8070 C   0  0  0  0  0  0  0  0  0  0  0  0
  159.9710  209.7390  154.9520 O   0  0  0  0  0  1  0  0  0  0  0  0
  157.9770  214.2490  146.2130 C   0  0  0  0  0  0  0  0  0  0  0  0
  156.8250  214.3430  146.2720 N   0  0  0  0  0  0  0  0  0  0  0  0
  162.4460  211.6590  148.7350 C   0  0  0  0  0  2  0  0  0  0  0  0
  161.5560  210.4310  148.5940 C   0  0  0  0  0  2  0  0  0  0  0  0
  162.3370  209.2390  148.5630 O   0  0  0  0  0  0  0  0  0  0  0  0
  161.8130  206.8210  148.1800 C   0  0  0  0  0  0  0  0  0  0  0  0
  161.3610  207.7940  150.1650 N   0  0  0  0  0  0  0  0  0  0  0  0
  162.2260  206.7370  146.9960 O   0  0  0  0  0  0  0  0  0  0  0  0
  160.9180  206.4060  150.3030 C   0  0  0  0  0  3  0  0  0  0  0  0
  161.2280  205.7140  148.9660 C   0  0  0  0  0  3  0  0  0  0  0  0
  161.8440  208.0040  148.9900 C   0  0  0  0  0  0  0  0  0  0  0  0
  1 28  1  1  0  0  0
  1  6  1  0  0  0  0
  2  7  1  0  0  0  0
  3  8  1  0  0  0  0
  3  9  2  0  0  0  0
  4  5  1  0  0  0  0
  5 30  1  6  0  0  0
  5  7  1  0  0  0  0
  6  4  2  0  0  0  0
  6  2  1  0  0  0  0
  7 12  1  1  0  0  0
  8  1  1  0  0  0  0
  9 10  1  0  0  0  0
 10  4  1  0  0  0  0
 11  8  2  0  0  0  0
 12 14  2  0  0  0  0
 12 13  1  0  0  0  0
 13 15  1  0  0  0  0
 15 16  1  0  0  0  0
 17 16  1  0  0  0  0
 18 21  2  0  0  0  0
 20 19  1  0  0  0  0
 21 20  1  0  0  0  0
 21 17  1  0  0  0  0
 22 13  1  0  0  0  0
 22 24  1  0  0  0  0
 24 23  1  6  0  0  0
 24 26  1  0  0  0  0
 25 26  2  0  0  0  0
 26 27  1  0  0  0  0
 28 29  3  0  0  0  0
 31 30  1  0  0  0  0
 32 31  1  0  0  0  0
 32 38  1  0  0  0  0
 33 37  1  0  0  0  0
 33 38  1  0  0  0  0
 34 36  1  0  0  0  0
 35 33  2  0  0  0  0
 37 36  2  0  0  0  0
 38 34  2  0  0  0  0
M  END
>  <MODEL>
4

>  <REMARK>
 VINA RESULT:      -5.8      3.274      8.047
  Name = 
  13 active torsions:
  status: ('A' for Active; 'I' for Inactive)
    1  A    between atoms: C_1  and  C_26
    2  A    between atoms: N_2  and  C_6
    3  A    between atoms: N_2  and  C_12
    4  A    between atoms: C_5  and  C_7
    5  A    between atoms: C_6  and  C_30
    6  A    between atoms: C_12  and  C_36
    7  A    between atoms: C_16  and  C_22
    8  A    between atoms: C_18  and  C_24
    9  A    between atoms: C_18  and  C_30
   10  A    between atoms: C_20  and  C_22
   11  A    between atoms: C_20  and  O_32
   12  A    between atoms: C_23  and  C_36
   13  A    between atoms: C_27  and  O_32
                            x       y       z     vdW  Elec       q    Type
                         _______ _______ _______ _____ _____    ______ ____

>  <TORSDO>
F 13

$$$$
=
 OpenBabel11052409373D

 38 40  0  0  1  0  0  0  0  0999 V2000
  158.0780  213.7960  149.2220 C   0  0  1  0  0  3  0  0  0  0  0  0
  158.0640  212.6680  151.5530 N   0  0  0  0  0  2  0  0  0  0  0  0
  159.7760  212.6130  147.6010 C   0  0  0  0  0  3  0  0  0  0  0  0
  160.0480  213.1570  150.5720 C   0  0  0  0  0  0  0  0  0  0  0  0
  160.4290  212.4970  151.8530 C   0  0  1  0  0  3  0  0  0  0  0  0
  158.7430  213.2290  150.4430 C   0  0  0  0  0  0  0  0  0  0  0  0
  159.0680  212.1840  152.4930 C   0  0  1  0  0  3  0  0  0  0  0  0
  158.3930  212.9680  147.9920 C   0  0  0  0  0  0  0  0  0  0  0  0
  160.9060  212.8970  148.2630 C   0  0  0  0  0  3  0  0  0  0  0  0
  161.0000  213.6760  149.5430 C   0  0  0  0  0  2  0  0  0  0  0  0
  157.4570  212.5650  147.2490 O   0  0  0  0  0  0  0  0  0  0  0  0
  158.9370  212.8810  153.8150 C   0  0  0  0  0  0  0  0  0  0  0  0
  159.0490  212.1400  155.0440 N   0  0  0  0  0  0  0  0  0  0  0  0
  158.7770  214.1330  153.8430 O   0  0  0  0  0  0  0  0  0  0  0  0
  159.0860  212.8280  156.3280 C   0  0  0  0  0  2  0  0  0  0  0  0
  157.8270  212.5290  157.1180 C   0  0  0  0  0  2  0  0  0  0  0  0
  156.6870  213.3720  156.5820 C   0  0  0  0  0  2  0  0  0  0  0  0
  155.6070  211.3500  155.9420 O   0  0  0  0  0  0  0  0  0  0  0  0
  155.5190  214.4530  154.1200 N   0  0  0  0  0  1  0  0  0  0  0  0
  155.2970  213.1160  154.4700 N   0  0  0  0  0  2  0  0  0  0  0  0
  155.8390  212.5560  155.6660 C   0  0  0  0  0  0  0  0  0  0  0  0
  159.3000  210.7050  155.0340 C   0  0  0  0  0  2  0  0  0  0  0  0
  161.6740  210.8970  155.1590 O   0  0  0  0  0  1  0  0  0  0  0  0
  160.5600  210.3830  155.8210 C   0  0  2  0  0  3  0  0  0  0  0  0
  161.8550  208.3980  156.0290 O   0  0  0  0  0  0  0  0  0  0  0  0
  160.7060  208.9090  155.9800 C   0  0  0  0  0  0  0  0  0  0  0  0
  159.5830  208.0890  156.0430 O   0  0  0  0  0  1  0  0  0  0  0  0
  156.6290  213.9920  149.4280 C   0  0  0  0  0  0  0  0  0  0  0  0
  155.4940  214.1460  149.5910 N   0  0  0  0  0  0  0  0  0  0  0  0
  161.1760  211.2000  151.5670 C   0  0  0  0  0  2  0  0  0  0  0  0
  160.3790  209.9950  152.0490 C   0  0  0  0  0  2  0  0  0  0  0  0
  161.2450  208.9150  152.3890 O   0  0  0  0  0  0  0  0  0  0  0  0
  161.5010  206.4250  152.3550 C   0  0  0  0  0  0  0  0  0  0  0  0
  160.8970  207.5430  150.4910 N   0  0  0  0  0  0  0  0  0  0  0  0
  161.8250  206.2650  153.5590 O   0  0  0  0  0  0  0  0  0  0  0  0
  160.9570  206.1340  150.0970 C   0  0  0  0  0  3  0  0  0  0  0  0
  161.3540  205.3460  151.3550 C   0  0  0  0  0  3  0  0  0  0  0  0
  161.2050  207.6830  151.7330 C   0  0  0  0  0  0  0  0  0  0  0  0
  1 28  1  1  0  0  0
  1  6  1  0  0  0  0
  2  7  1  0  0  0  0
  3  8  1  0  0  0  0
  3  9  2  0  0  0  0
  4  5  1  0  0  0  0
  5 30  1  6  0  0  0
  5  7  1  0  0  0  0
  6  4  2  0  0  0  0
  6  2  1  0  0  0  0
  7 12  1  1  0  0  0
  8  1  1  0  0  0  0
  9 10  1  0  0  0  0
 10  4  1  0  0  0  0
 11  8  2  0  0  0  0
 12 14  2  0  0  0  0
 12 13  1  0  0  0  0
 13 15  1  0  0  0  0
 15 16  1  0  0  0  0
 17 16  1  0  0  0  0
 19 20  1  0  0  0  0
 20 21  1  0  0  0  0
 21 18  2  0  0  0  0
 21 17  1  0  0  0  0
 22 13  1  0  0  0  0
 22 24  1  0  0  0  0
 24 23  1  6  0  0  0
 24 26  1  0  0  0  0
 26 25  2  0  0  0  0
 26 27  1  0  0  0  0
 28 29  3  0  0  0  0
 30 31  1  0  0  0  0
 31 32  1  0  0  0  0
 33 35  2  0  0  0  0
 34 38  2  0  0  0  0
 36 34  1  0  0  0  0
 36 37  2  0  0  0  0
 37 33  1  0  0  0  0
 38 33  1  0  0  0  0
 38 32  1  0  0  0  0
M  END
>  <MODEL>
5

>  <REMARK>
 VINA RESULT:      -5.6      3.644      7.957
  Name = 
  13 active torsions:
  status: ('A' for Active; 'I' for Inactive)
    1  A    between atoms: C_1  and  C_26
    2  A    between atoms: N_2  and  C_6
    3  A    between atoms: N_2  and  C_12
    4  A    between atoms: C_5  and  C_7
    5  A    between atoms: C_6  and  C_30
    6  A    between atoms: C_12  and  C_36
    7  A    between atoms: C_16  and  C_22
    8  A    between atoms: C_18  and  C_24
    9  A    between atoms: C_18  and  C_30
   10  A    between atoms: C_20  and  C_22
   11  A    between atoms: C_20  and  O_32
   12  A    between atoms: C_23  and  C_36
   13  A    between atoms: C_27  and  O_32
                            x       y       z     vdW  Elec       q    Type
                         _______ _______ _______ _____ _____    ______ ____

>  <TORSDO>
F 13

$$$$
=
 OpenBabel11052409373D

 38 40  0  0  1  0  0  0  0  0999 V2000
  161.2690  207.9000  154.9870 C   0  0  1  0  0  3  0  0  0  0  0  0
  160.6890  208.4100  152.5150 N   0  0  0  0  0  0  0  0  0  0  0  0
  160.3990  209.8020  156.5810 C   0  0  0  0  0  3  0  0  0  0  0  0
  161.5860  210.0470  153.8010 C   0  0  2  0  0  3  0  0  0  0  0  0
  161.3560  210.7060  152.4840 C   0  0  1  0  0  3  0  0  0  0  0  0
  161.2050  208.7910  153.7790 C   0  0  0  0  0  0  0  0  0  0  0  0
  160.7550  209.5730  151.6380 C   0  0  1  0  0  3  0  0  0  0  0  0
  160.3580  208.4060  156.0880 C   0  0  0  0  0  0  0  0  0  0  0  0
  161.1600  210.8040  156.1200 C   0  0  0  0  0  3  0  0  0  0  0  0
  162.1680  210.7020  155.0120 C   0  0  0  0  0  2  0  0  0  0  0  0
  159.5330  207.6220  156.6320 O   0  0  0  0  0  0  0  0  0  0  0  0
  161.6230  209.2910  150.4460 C   0  0  0  0  0  0  0  0  0  0  0  0
  161.6070  207.9930  149.8230 N   0  0  0  0  0  0  0  0  0  0  0  0
  162.3320  210.2170  149.9630 O   0  0  0  0  0  0  0  0  0  0  0  0
  162.3190  207.7580  148.5740 C   0  0  0  0  0  2  0  0  0  0  0  0
  161.5270  206.8150  147.6900 C   0  0  0  0  0  2  0  0  0  0  0  0
  162.4850  205.9270  146.9210 C   0  0  0  0  0  2  0  0  0  0  0  0
  161.7970  203.7030  147.4180 O   0  0  0  0  0  0  0  0  0  0  0  0
  161.2010  205.4500  144.3280 N   0  0  0  0  0  1  0  0  0  0  0  0
  161.2130  204.4410  145.2980 N   0  0  0  0  0  2  0  0  0  0  0  0
  161.8170  204.6380  146.5760 C   0  0  0  0  0  0  0  0  0  0  0  0
  160.7460  206.9310  150.3260 C   0  0  0  0  0  2  0  0  0  0  0  0
  162.8820  206.3150  151.1920 O   0  0  0  0  0  1  0  0  0  0  0  0
  161.5190  206.0280  151.2720 C   0  0  2  0  0  3  0  0  0  0  0  0
  160.4570  204.3010  150.0260 O   0  0  0  0  0  0  0  0  0  0  0  0
  161.2860  204.5980  150.9260 C   0  0  0  0  0  0  0  0  0  0  0  0
  161.9530  203.5860  151.6110 O   0  0  0  0  0  1  0  0  0  0  0  0
  161.0230  206.4870  154.6400 C   0  0  0  0  0  0  0  0  0  0  0  0
  160.8300  205.3790  154.3670 N   0  0  0  0  0  0  0  0  0  0  0  0
  160.3420  211.8320  152.6360 C   0  0  0  0  0  2  0  0  0  0  0  0
  158.9270  211.2780  152.7570 C   0  0  0  0  0  2  0  0  0  0  0  0
  158.4500  211.3880  154.0950 O   0  0  0  0  0  0  0  0  0  0  0  0
  156.9120  212.3990  155.7920 C   0  0  0  0  0  0  0  0  0  0  0  0
  156.7890  213.0080  153.6230 N   0  0  0  0  0  0  0  0  0  0  0  0
  157.3390  211.7870  156.8040 O   0  0  0  0  0  0  0  0  0  0  0  0
  155.7490  213.7810  154.3030 C   0  0  0  0  0  3  0  0  0  0  0  0
  155.8190  213.3950  155.7890 C   0  0  0  0  0  3  0  0  0  0  0  0
  157.4120  212.2500  154.4560 C   0  0  0  0  0  0  0  0  0  0  0  0
  1 28  1  6  0  0  0
  1  8  1  0  0  0  0
  2  6  2  0  0  0  0
  4 10  1  1  0  0  0
  5 30  1  1  0  0  0
  5  4  1  0  0  0  0
  6  4  1  0  0  0  0
  6  1  1  0  0  0  0
  7 12  1  6  0  0  0
  7  5  1  0  0  0  0
  7  2  1  0  0  0  0
  8  3  1  0  0  0  0
  8 11  2  0  0  0  0
  9  3  2  0  0  0  0
 10  9  1  0  0  0  0
 13 22  1  0  0  0  0
 13 12  1  0  0  0  0
 14 12  2  0  0  0  0
 15 13  1  0  0  0  0
 16 15  1  0  0  0  0
 17 16  1  0  0  0  0
 19 20  1  0  0  0  0
 20 21  1  0  0  0  0
 21 17  1  0  0  0  0
 21 18  2  0  0  0  0
 22 24  1  0  0  0  0
 24 23  1  6  0  0  0
 25 26  2  0  0  0  0
 26 24  1  0  0  0  0
 26 27  1  0  0  0  0
 29 28  3  0  0  0  0
 30 31  1  0  0  0  0
 31 32  1  0  0  0  0
 32 38  1  0  0  0  0
 33 35  2  0  0  0  0
 34 36  1  0  0  0  0
 34 38  2  0  0  0  0
 36 37  2  0  0  0  0
 37 33  1  0  0  0  0
 38 33  1  0  0  0  0
M  END
>  <MODEL>
6

>  <REMARK>
 VINA RESULT:      -5.6      2.595      6.655
  Name = 
  13 active torsions:
  status: ('A' for Active; 'I' for Inactive)
    1  A    between atoms: C_1  and  C_26
    2  A    between atoms: N_2  and  C_6
    3  A    between atoms: N_2  and  C_12
    4  A    between atoms: C_5  and  C_7
    5  A    between atoms: C_6  and  C_30
    6  A    between atoms: C_12  and  C_36
    7  A    between atoms: C_16  and  C_22
    8  A    between atoms: C_18  and  C_24
    9  A    between atoms: C_18  and  C_30
   10  A    between atoms: C_20  and  C_22
   11  A    between atoms: C_20  and  O_32
   12  A    between atoms: C_23  and  C_36
   13  A    between atoms: C_27  and  O_32
                            x       y       z     vdW  Elec       q    Type
                         _______ _______ _______ _____ _____    ______ ____

>  <TORSDO>
F 13

$$$$
=
 OpenBabel11052409373D

 38 40  0  0  1  0  0  0  0  0999 V2000
  162.1490  206.1930  148.7470 C   0  0  1  0  0  3  0  0  0  0  0  0
  161.4970  208.6960  148.6200 N   0  0  0  0  0  0  0  0  0  0  0  0
  161.1000  205.0400  150.8650 C   0  0  0  0  0  3  0  0  0  0  0  0
  162.2300  207.8420  150.5880 C   0  0  2  0  0  3  0  0  0  0  0  0
  161.9200  209.2650  150.9030 C   0  0  1  0  0  3  0  0  0  0  0  0
  161.9820  207.5670  149.3280 C   0  0  0  0  0  0  0  0  0  0  0  0
  161.4330  209.8140  149.5530 C   0  0  1  0  0  3  0  0  0  0  0  0
  161.2010  205.2040  149.3970 C   0  0  0  0  0  0  0  0  0  0  0  0
  161.7480  205.7400  151.8070 C   0  0  0  0  0  3  0  0  0  0  0  0
  162.7510  206.8290  151.5560 C   0  0  0  0  0  2  0  0  0  0  0  0
  160.4670  204.4720  148.6790 O   0  0  0  0  0  0  0  0  0  0  0  0
  162.3150  210.9390  149.0950 C   0  0  0  0  0  0  0  0  0  0  0  0
  161.8330  211.8990  148.1370 N   0  0  0  0  0  0  0  0  0  0  0  0
  163.4670  211.0660  149.5940 O   0  0  0  0  0  0  0  0  0  0  0  0
  162.6180  213.0820  147.8090 C   0  0  0  0  0  2  0  0  0  0  0  0
  163.1770  212.9660  146.4040 C   0  0  0  0  0  2  0  0  0  0  0  0
  162.3270  213.7870  145.4570 C   0  0  0  0  0  2  0  0  0  0  0  0
  163.8170  214.0070  143.6130 O   0  0  0  0  0  0  0  0  0  0  0  0
  160.7140  212.1810  143.6080 N   0  0  0  0  0  1  0  0  0  0  0  0
  161.9190  212.7460  143.1740 N   0  0  0  0  0  2  0  0  0  0  0  0
  162.7370  213.5240  144.0470 C   0  0  0  0  0  0  0  0  0  0  0  0
  160.4830  211.8080  147.5990 C   0  0  0  0  0  2  0  0  0  0  0  0
  159.6370  213.3220  149.2360 O   0  0  0  0  0  1  0  0  0  0  0  0
  159.7210  213.0960  147.8630 C   0  0  2  0  0  3  0  0  0  0  0  0
  157.3480  213.1960  148.0230 O   0  0  0  0  0  1  0  0  0  0  0  0
  158.3510  213.0130  147.2830 C   0  0  0  0  0  0  0  0  0  0  0  0
  158.1690  212.7020  145.9380 O   0  0  0  0  0  0  0  0  0  0  0  0
  162.0490  206.2040  147.2740 C   0  0  0  0  0  0  0  0  0  0  0  0
  161.9700  206.2120  146.1200 N   0  0  0  0  0  0  0  0  0  0  0  0
  160.7950  209.3380  151.9270 C   0  0  0  0  0  2  0  0  0  0  0  0
  160.7940  210.6850  152.6400 C   0  0  0  0  0  2  0  0  0  0  0  0
  160.0610  210.6140  153.8600 O   0  0  0  0  0  0  0  0  0  0  0  0
  161.8140  209.9530  155.5190 C   0  0  0  0  0  0  0  0  0  0  0  0
  159.7570  209.0310  155.5940 N   0  0  0  0  0  0  0  0  0  0  0  0
  162.7390  210.6970  155.1040 O   0  0  0  0  0  0  0  0  0  0  0  0
  160.5020  208.4070  156.6880 C   0  0  0  0  0  3  0  0  0  0  0  0
  161.9080  209.0280  156.6690 C   0  0  0  0  0  3  0  0  0  0  0  0
  160.4970  209.8720  154.9600 C   0  0  0  0  0  0  0  0  0  0  0  0
  1 28  1  6  0  0  0
  1  6  1  0  0  0  0
  1  8  1  0  0  0  0
  2  6  2  0  0  0  0
  2  7  1  0  0  0  0
  3  9  2  0  0  0  0
  4  5  1  0  0  0  0
  4 10  1  1  0  0  0
  5 30  1  1  0  0  0
  6  4  1  0  0  0  0
  7 12  1  6  0  0  0
  7  5  1  0  0  0  0
  8  3  1  0  0  0  0
 10  9  1  0  0  0  0
 11  8  2  0  0  0  0
 12 14  2  0  0  0  0
 13 12  1  0  0  0  0
 15 13  1  0  0  0  0
 16 15  1  0  0  0  0
 17 16  1  0  0  0  0
 18 21  2  0  0  0  0
 20 19  1  0  0  0  0
 20 21  1  0  0  0  0
 21 17  1  0  0  0  0
 22 24  1  0  0  0  0
 22 13  1  0  0  0  0
 24 23  1  1  0  0  0
 26 24  1  0  0  0  0
 26 25  1  0  0  0  0
 27 26  2  0  0  0  0
 29 28  3  0  0  0  0
 30 31  1  0  0  0  0
 31 32  1  0  0  0  0
 32 38  1  0  0  0  0
 33 37  1  0  0  0  0
 34 36  1  0  0  0  0
 35 33  2  0  0  0  0
 37 36  2  0  0  0  0
 38 33  1  0  0  0  0
 38 34  2  0  0  0  0
M  END
>  <MODEL>
7

>  <REMARK>
 VINA RESULT:      -5.4      2.452      3.698
  Name = 
  13 active torsions:
  status: ('A' for Active; 'I' for Inactive)
    1  A    between atoms: C_1  and  C_26
    2  A    between atoms: N_2  and  C_6
    3  A    between atoms: N_2  and  C_12
    4  A    between atoms: C_5  and  C_7
    5  A    between atoms: C_6  and  C_30
    6  A    between atoms: C_12  and  C_36
    7  A    between atoms: C_16  and  C_22
    8  A    between atoms: C_18  and  C_24
    9  A    between atoms: C_18  and  C_30
   10  A    between atoms: C_20  and  C_22
   11  A    between atoms: C_20  and  O_32
   12  A    between atoms: C_23  and  C_36
   13  A    between atoms: C_27  and  O_32
                            x       y       z     vdW  Elec       q    Type
                         _______ _______ _______ _____ _____    ______ ____

>  <TORSDO>
F 13

$$$$
=
 OpenBabel11052409373D

 38 40  0  0  1  0  0  0  0  0999 V2000
  161.1470  208.2290  154.9000 C   0  0  1  0  0  3  0  0  0  0  0  0
  160.6730  208.3620  152.3580 N   0  0  0  0  0  0  0  0  0  0  0  0
  160.0560  210.2500  156.1800 C   0  0  0  0  0  3  0  0  0  0  0  0
  161.3780  210.2190  153.4510 C   0  0  2  0  0  3  0  0  0  0  0  0
  161.1770  210.6780  152.0480 C   0  0  1  0  0  3  0  0  0  0  0  0
  161.0880  208.9440  153.5820 C   0  0  0  0  0  0  0  0  0  0  0  0
  160.7060  209.4010  151.3350 C   0  0  1  0  0  3  0  0  0  0  0  0
  160.1410  208.8030  155.8800 C   0  0  0  0  0  0  0  0  0  0  0  0
  160.7700  211.2390  155.6240 C   0  0  0  0  0  3  0  0  0  0  0  0
  161.8430  211.0700  154.5880 C   0  0  0  0  0  2  0  0  0  0  0  0
  159.3440  208.0360  156.4850 O   0  0  0  0  0  0  0  0  0  0  0  0
  161.6570  209.0320  150.2350 C   0  0  0  0  0  0  0  0  0  0  0  0
  161.6110  207.7230  149.6390 N   0  0  0  0  0  0  0  0  0  0  0  0
  162.4680  209.8970  149.8000 O   0  0  0  0  0  0  0  0  0  0  0  0
  162.4160  207.4090  148.4660 C   0  0  0  0  0  2  0  0  0  0  0  0
  161.5800  206.6720  147.4380 C   0  0  0  0  0  2  0  0  0  0  0  0
  162.4750  205.7550  146.6290 C   0  0  0  0  0  2  0  0  0  0  0  0
  161.5920  203.5690  146.9580 O   0  0  0  0  0  0  0  0  0  0  0  0
  161.1980  205.5750  143.9950 N   0  0  0  0  0  1  0  0  0  0  0  0
  161.1080  204.5030  144.8900 N   0  0  0  0  0  2  0  0  0  0  0  0
  161.7060  204.5560  146.1850 C   0  0  0  0  0  0  0  0  0  0  0  0
  160.6390  206.7320  150.0810 C   0  0  0  0  0  2  0  0  0  0  0  0
  160.2650  204.3990  149.7550 O   0  0  0  0  0  1  0  0  0  0  0  0
  161.2510  205.3410  150.0480 C   0  0  2  0  0  3  0  0  0  0  0  0
  162.6950  205.8270  151.8760 O   0  0  0  0  0  0  0  0  0  0  0  0
  161.8750  205.0210  151.3630 C   0  0  0  0  0  0  0  0  0  0  0  0
  161.5840  203.8250  152.0120 O   0  0  0  0  0  1  0  0  0  0  0  0
  161.0210  206.7670  154.7370 C   0  0  0  0  0  0  0  0  0  0  0  0
  160.9220  205.6210  154.6080 N   0  0  0  0  0  0  0  0  0  0  0  0
  160.0790  211.7330  151.9980 C   0  0  0  0  0  2  0  0  0  0  0  0
  160.4610  212.8730  151.0630 C   0  0  0  0  0  2  0  0  0  0  0  0
  159.9920  212.6250  149.7400 O   0  0  0  0  0  0  0  0  0  0  0  0
  160.2750  212.9000  147.2680 C   0  0  0  0  0  0  0  0  0  0  0  0
  162.0580  213.0020  148.6470 N   0  0  0  0  0  0  0  0  0  0  0  0
  159.0680  212.7800  146.9380 O   0  0  0  0  0  0  0  0  0  0  0  0
  162.5980  213.1900  147.2990 C   0  0  0  0  0  3  0  0  0  0  0  0
  161.4000  213.1390  146.3380 C   0  0  0  0  0  3  0  0  0  0  0  0
  160.7820  212.8370  148.6080 C   0  0  0  0  0  0  0  0  0  0  0  0
  1 28  1  6  0  0  0
  1  8  1  0  0  0  0
  2  6  2  0  0  0  0
  4  6  1  0  0  0  0
  4 10  1  1  0  0  0
  5 30  1  1  0  0  0
  5  4  1  0  0  0  0
  6  1  1  0  0  0  0
  7 12  1  6  0  0  0
  7  5  1  0  0  0  0
  7  2  1  0  0  0  0
  8  3  1  0  0  0  0
  8 11  2  0  0  0  0
  9  3  2  0  0  0  0
 10  9  1  0  0  0  0
 13 22  1  0  0  0  0
 13 12  1  0  0  0  0
 14 12  2  0  0  0  0
 15 13  1  0  0  0  0
 16 15  1  0  0  0  0
 17 16  1  0  0  0  0
 19 20  1  0  0  0  0
 20 21  1  0  0  0  0
 21 17  1  0  0  0  0
 21 18  2  0  0  0  0
 24 23  1  1  0  0  0
 24 22  1  0  0  0  0
 24 26  1  0  0  0  0
 26 25  2  0  0  0  0
 26 27  1  0  0  0  0
 29 28  3  0  0  0  0
 31 30  1  0  0  0  0
 32 31  1  0  0  0  0
 33 38  1  0  0  0  0
 35 33  2  0  0  0  0
 36 34  1  0  0  0  0
 37 33  1  0  0  0  0
 37 36  2  0  0  0  0
 38 34  2  0  0  0  0
 38 32  1  0  0  0  0
M  END
>  <MODEL>
8

>  <REMARK>
 VINA RESULT:      -5.4      2.144      7.484
  Name = 
  13 active torsions:
  status: ('A' for Active; 'I' for Inactive)
    1  A    between atoms: C_1  and  C_26
    2  A    between atoms: N_2  and  C_6
    3  A    between atoms: N_2  and  C_12
    4  A    between atoms: C_5  and  C_7
    5  A    between atoms: C_6  and  C_30
    6  A    between atoms: C_12  and  C_36
    7  A    between atoms: C_16  and  C_22
    8  A    between atoms: C_18  and  C_24
    9  A    between atoms: C_18  and  C_30
   10  A    between atoms: C_20  and  C_22
   11  A    between atoms: C_20  and  O_32
   12  A    between atoms: C_23  and  C_36
   13  A    between atoms: C_27  and  O_32
                            x       y       z     vdW  Elec       q    Type
                         _______ _______ _______ _____ _____    ______ ____

>  <TORSDO>
F 13

$$$$
=
 OpenBabel11052409373D

 38 40  0  0  1  0  0  0  0  0999 V2000
  162.1100  210.7790  149.4280 C   0  0  1  0  0  3  0  0  0  0  0  0
  160.8040  210.8820  151.6610 N   0  0  0  0  0  2  0  0  0  0  0  0
  161.8020  208.4480  148.2500 C   0  0  0  0  0  3  0  0  0  0  0  0
  162.0770  209.0620  151.2080 C   0  0  0  0  0  0  0  0  0  0  0  0
  161.4610  208.7540  152.5290 C   0  0  1  0  0  3  0  0  0  0  0  0
  161.6900  210.2360  150.7630 C   0  0  0  0  0  0  0  0  0  0  0  0
  160.6120  210.0040  152.8090 C   0  0  1  0  0  3  0  0  0  0  0  0
  161.5910  209.9130  148.2960 C   0  0  0  0  0  0  0  0  0  0  0  0
  162.3980  207.6830  149.1760 C   0  0  0  0  0  3  0  0  0  0  0  0
  163.0130  208.1730  150.4550 C   0  0  0  0  0  2  0  0  0  0  0  0
  160.9620  210.4400  147.3380 O   0  0  0  0  0  0  0  0  0  0  0  0
  161.0660  210.6750  154.0720 C   0  0  0  0  0  0  0  0  0  0  0  0
  160.1060  211.2450  154.9810 N   0  0  0  0  0  0  0  0  0  0  0  0
  162.2960  210.6930  154.3570 O   0  0  0  0  0  0  0  0  0  0  0  0
  160.5210  211.7530  156.2810 C   0  0  0  0  0  2  0  0  0  0  0  0
  161.1820  210.6510  157.0870 C   0  0  0  0  0  2  0  0  0  0  0  0
  160.2750  209.4380  157.1150 C   0  0  0  0  0  2  0  0  0  0  0  0
  162.3040  208.2070  156.9130 O   0  0  0  0  0  0  0  0  0  0  0  0
  159.0170  207.0030  156.0710 N   0  0  0  0  0  1  0  0  0  0  0  0
  160.4050  207.0520  156.2480 N   0  0  0  0  0  2  0  0  0  0  0  0
  161.0530  208.2140  156.7640 C   0  0  0  0  0  0  0  0  0  0  0  0
  158.6780  211.1770  154.7020 C   0  0  0  0  0  2  0  0  0  0  0  0
  157.0020  212.4660  155.8070 O   0  0  0  0  0  1  0  0  0  0  0  0
  158.0390  212.5450  154.8770 C   0  0  2  0  0  3  0  0  0  0  0  0
  158.2680  213.0870  152.5710 O   0  0  0  0  0  0  0  0  0  0  0  0
  157.5100  213.0380  153.5750 C   0  0  0  0  0  0  0  0  0  0  0  0
  156.1920  213.4750  153.4660 O   0  0  0  0  0  1  0  0  0  0  0  0
  161.7490  212.2020  149.2750 C   0  0  0  0  0  0  0  0  0  0  0  0
  161.4660  213.3180  149.1570 N   0  0  0  0  0  0  0  0  0  0  0  0
  160.5590  207.5330  152.4100 C   0  0  0  0  0  2  0  0  0  0  0  0
  161.2600  206.2860  152.9360 C   0  0  0  0  0  2  0  0  0  0  0  0
  161.9430  205.6060  151.8860 O   0  0  0  0  0  0  0  0  0  0  0  0
  160.7970  204.2650  150.1100 C   0  0  0  0  0  0  0  0  0  0  0  0
  161.6620  203.2560  151.9330 N   0  0  0  0  0  0  0  0  0  0  0  0
  160.5050  205.2120  149.3350 O   0  0  0  0  0  0  0  0  0  0  0  0
  161.0720  202.1790  151.1350 C   0  0  0  0  0  3  0  0  0  0  0  0
  160.4860  202.8390  149.8770 C   0  0  0  0  0  3  0  0  0  0  0  0
  161.4950  204.3940  151.3560 C   0  0  0  0  0  0  0  0  0  0  0  0
  1 28  1  6  0  0  0
  1  6  1  0  0  0  0
  2  7  1  0  0  0  0
  3  8  1  0  0  0  0
  3  9  2  0  0  0  0
  4  5  1  0  0  0  0
  5 30  1  6  0  0  0
  5  7  1  0  0  0  0
  6  4  2  0  0  0  0
  6  2  1  0  0  0  0
  7 12  1  1  0  0  0
  8  1  1  0  0  0  0
  9 10  1  0  0  0  0
 10  4  1  0  0  0  0
 11  8  2  0  0  0  0
 12 14  2  0  0  0  0
 12 13  1  0  0  0  0
 13 15  1  0  0  0  0
 15 16  1  0  0  0  0
 16 17  1  0  0  0  0
 19 20  1  0  0  0  0
 20 21  1  0  0  0  0
 21 18  2  0  0  0  0
 21 17  1  0  0  0  0
 22 24  1  0  0  0  0
 22 13  1  0  0  0  0
 24 23  1  1  0  0  0
 25 26  2  0  0  0  0
 26 24  1  0  0  0  0
 27 26  1  0  0  0  0
 29 28  3  0  0  0  0
 30 31  1  0  0  0  0
 32 31  1  0  0  0  0
 33 38  1  0  0  0  0
 35 33  2  0  0  0  0
 36 34  1  0  0  0  0
 37 33  1  0  0  0  0
 37 36  2  0  0  0  0
 38 32  1  0  0  0  0
 38 34  2  0  0  0  0
M  END
>  <MODEL>
9

>  <REMARK>
 VINA RESULT:      -5.0      2.214      6.929
  Name = 
  13 active torsions:
  status: ('A' for Active; 'I' for Inactive)
    1  A    between atoms: C_1  and  C_26
    2  A    between atoms: N_2  and  C_6
    3  A    between atoms: N_2  and  C_12
    4  A    between atoms: C_5  and  C_7
    5  A    between atoms: C_6  and  C_30
    6  A    between atoms: C_12  and  C_36
    7  A    between atoms: C_16  and  C_22
    8  A    between atoms: C_18  and  C_24
    9  A    between atoms: C_18  and  C_30
   10  A    between atoms: C_20  and  C_22
   11  A    between atoms: C_20  and  O_32
   12  A    between atoms: C_23  and  C_36
   13  A    between atoms: C_27  and  O_32
                            x       y       z     vdW  Elec       q    Type
                         _______ _______ _______ _____ _____    ______ ____

>  <TORSDO>
F 13

$$$$
