=
 OpenBabel11052410023D

 39 43  0  0  1  0  0  0  0  0999 V2000
  159.6380  212.5090  153.1130 N   0  0  0  0  0  2  0  0  0  0  0  0
  160.1820  210.8570  151.3800 C   0  0  0  0  0  2  0  0  0  0  0  0
  162.2550  209.6300  152.2970 C   0  0  2  0  0  3  0  0  0  0  0  0
  158.7910  211.8560  155.3790 C   0  0  2  0  0  3  0  0  0  0  0  0
  159.2580  212.9070  154.4330 C   0  0  0  0  0  0  0  0  0  0  0  0
  159.6980  210.6250  155.3100 C   0  0  2  0  0  3  0  0  0  0  0  0
  160.1630  208.8670  153.5970 O   0  0  0  0  0  0  0  0  0  0  0  0
  159.5160  211.1080  152.7390 C   0  0  1  0  0  3  0  0  0  0  0  0
  162.9150  210.1520  153.3910 F   0  0  0  0  0  0  0  0  0  0  0  0
  160.1440  210.2580  153.8630 C   0  0  1  0  0  3  0  0  0  0  0  0
  161.7030  210.7660  151.4210 C   0  0  0  0  0  2  0  0  0  0  0  0
  161.2360  208.5070  152.7030 C   0  0  2  0  0  3  0  0  0  0  0  0
  159.4040  214.0950  154.7940 O   0  0  0  0  0  0  0  0  0  0  0  0
  162.1060  205.9880  150.7900 C   0  0  2  0  0  3  0  0  0  0  0  0
  160.9810  206.1770  153.7440 C   0  0  0  0  0  2  0  0  0  0  0  0
  162.2600  205.0730  151.8270 C   0  0  1  0  0  3  0  0  0  0  0  0
  162.4000  206.4130  152.1330 C   0  0  2  0  0  3  0  0  0  0  0  0
  161.0530  204.9280  152.7690 C   0  0  0  0  0  2  0  0  0  0  0  0
  161.9630  207.2410  153.2140 C   0  0  1  0  0  3  0  0  0  0  0  0
  161.5860  206.3340  149.4650 C   0  0  0  0  0  0  0  0  0  0  0  0
  162.3280  206.6730  148.4490 N   0  0  0  0  0  0  0  0  0  0  0  0
  160.0920  206.6770  147.9280 C   0  0  0  0  0  3  0  0  0  0  0  0
  160.2020  206.3530  149.1690 N   0  0  0  0  0  0  0  0  0  0  0  0
  161.4340  206.8900  147.3130 C   0  0  2  0  0  3  0  0  0  0  0  0
  161.1120  205.9440  145.1610 O   0  0  0  0  0  0  0  0  0  0  0  0
  161.6680  205.8380  146.2550 C   0  0  0  0  0  0  0  0  0  0  0  0
  162.5010  204.6310  146.5590 C   0  0  0  0  0  2  0  0  0  0  0  0
  161.6050  203.4140  146.6540 C   0  0  0  0  0  2  0  0  0  0  0  0
  161.2810  203.1630  148.0420 N   0  0  0  0  0  2  0  0  0  0  0  0
  160.9990  201.7420  148.1490 C   0  0  0  0  0  1  0  0  0  0  0  0
  159.1220  209.5440  156.0160 O   0  0  0  0  0  0  0  0  0  0  0  0
  160.0270  209.1620  157.0180 C   0  0  0  0  0  2  0  0  0  0  0  0
  160.1280  207.6450  157.0330 C   0  0  0  0  0  1  0  0  0  0  0  0
  157.4100  211.5120  155.0620 N   0  0  0  0  0  2  0  0  0  0  0  0
  155.4470  211.0050  156.4340 C   0  0  0  0  0  1  0  0  0  0  0  0
  156.4680  212.0750  156.0510 C   0  0  1  0  0  0  0  0  0  0  0  0
  157.1320  212.5110  157.2230 O   0  0  0  0  0  1  0  0  0  0  0  0
  155.7960  213.2220  155.4520 N   0  0  0  0  0  0  0  0  0  0  0  0
  155.5720  213.2940  154.1870 C   0  0  0  0  0  2  0  0  0  0  0  0
  1  5  1  0  0  0  0
  2 11  1  0  0  0  0
  3 12  1  0  0  0  0
  3  9  1  1  0  0  0
  4 34  1  6  0  0  0
  5 13  2  0  0  0  0
  5  4  1  0  0  0  0
  6  4  1  0  0  0  0
  6 31  1  6  0  0  0
  8  2  1  6  0  0  0
  8  1  1  0  0  0  0
  8 10  1  0  0  0  0
 10  7  1  6  0  0  0
 10  6  1  0  0  0  0
 11  3  1  0  0  0  0
 12 19  1  0  0  0  0
 12  7  1  1  0  0  0
 14 20  1  1  0  0  0
 14 16  1  0  0  0  0
 14 17  1  0  0  0  0
 16 17  1  0  0  0  0
 16 18  1  1  0  0  0
 17 19  1  0  0  0  0
 18 15  1  0  0  0  0
 19 15  1  0  0  0  0
 21 20  2  0  0  0  0
 22 23  2  0  0  0  0
 23 20  1  0  0  0  0
 24 22  1  0  0  0  0
 24 21  1  0  0  0  0
 25 26  2  0  0  0  0
 26 27  1  0  0  0  0
 26 24  1  0  0  0  0
 27 28  1  0  0  0  0
 28 29  1  0  0  0  0
 29 30  1  0  0  0  0
 31 32  1  0  0  0  0
 32 33  1  0  0  0  0
 34 36  1  0  0  0  0
 36 35  1  0  0  0  0
 36 37  1  0  0  0  0
 38 36  1  0  0  0  0
 39 38  2  0  0  0  0
M  END
>  <MODEL>
1

>  <REMARK>
 VINA RESULT:      -5.7      0.000      0.000
  Name = 
  11 active torsions:
  status: ('A' for Active; 'I' for Inactive)
    1  A    between atoms: N_1  and  C_21
    2  A    between atoms: C_2  and  C_3
    3  A    between atoms: C_12  and  N_31
    4  A    between atoms: C_16  and  O_28
    5  A    between atoms: N_18  and  C_33
    6  A    between atoms: C_21  and  N_31
    7  A    between atoms: C_27  and  C_36
    8  A    between atoms: O_28  and  C_32
    9  A    between atoms: C_30  and  C_35
   10  A    between atoms: C_33  and  C_34
   11  A    between atoms: C_34  and  C_36
                            x       y       z     vdW  Elec       q    Type
                         _______ _______ _______ _____ _____    ______ ____

>  <TORSDO>
F 11

$$$$
=
 OpenBabel11052410023D

 39 43  0  0  1  0  0  0  0  0999 V2000
  161.8100  210.0180  152.9790 N   0  0  0  0  0  2  0  0  0  0  0  0
  161.4810  208.7720  150.8890 C   0  0  0  0  0  2  0  0  0  0  0  0
  162.6740  206.5240  151.2920 C   0  0  2  0  0  3  0  0  0  0  0  0
  160.7370  209.3360  155.1380 C   0  0  2  0  0  3  0  0  0  0  0  0
  161.6670  210.2240  154.3870 C   0  0  0  0  0  0  0  0  0  0  0  0
  160.9210  207.8770  154.7120 C   0  0  2  0  0  3  0  0  0  0  0  0
  160.4700  206.5750  152.6280 O   0  0  0  0  0  0  0  0  0  0  0  0
  161.0160  208.9820  152.3360 C   0  0  1  0  0  3  0  0  0  0  0  0
  163.5000  206.3880  152.3900 F   0  0  0  0  0  0  0  0  0  0  0  0
  161.1370  207.6960  153.1800 C   0  0  1  0  0  3  0  0  0  0  0  0
  162.7600  207.9560  150.7400 C   0  0  0  0  0  2  0  0  0  0  0  0
  161.2320  205.9680  151.5650 C   0  0  2  0  0  3  0  0  0  0  0  0
  162.3770  211.0720  154.9700 O   0  0  0  0  0  0  0  0  0  0  0  0
  161.4860  203.8760  149.0510 C   0  0  2  0  0  3  0  0  0  0  0  0
  159.8140  203.8390  151.7400 C   0  0  0  0  0  2  0  0  0  0  0  0
  160.9930  202.7720  149.7390 C   0  0  1  0  0  3  0  0  0  0  0  0
  161.5710  203.7810  150.4850 C   0  0  2  0  0  3  0  0  0  0  0  0
  159.6310  202.9720  150.4240 C   0  0  0  0  0  2  0  0  0  0  0  0
  161.2380  204.4290  151.7150 C   0  0  1  0  0  3  0  0  0  0  0  0
  161.5060  204.7300  147.8610 C   0  0  0  0  0  0  0  0  0  0  0  0
  162.2310  204.5010  146.8030 N   0  0  0  0  0  0  0  0  0  0  0  0
  160.9720  206.4100  146.5940 C   0  0  0  0  0  3  0  0  0  0  0  0
  160.7400  205.9150  147.7600 N   0  0  0  0  0  0  0  0  0  0  0  0
  161.9270  205.5520  145.8340 C   0  0  2  0  0  3  0  0  0  0  0  0
  161.4660  205.4120  143.5110 O   0  0  0  0  0  0  0  0  0  0  0  0
  161.2210  204.9680  144.6330 C   0  0  0  0  0  0  0  0  0  0  0  0
  160.1690  203.9160  144.8110 C   0  0  0  0  0  2  0  0  0  0  0  0
  160.8260  202.6110  145.2040 C   0  0  0  0  0  2  0  0  0  0  0  0
  159.9510  201.5100  144.8620 N   0  0  0  0  0  2  0  0  0  0  0  0
  160.4730  200.3400  145.5480 C   0  0  0  0  0  1  0  0  0  0  0  0
  159.8820  207.0730  155.2360 O   0  0  0  0  0  0  0  0  0  0  0  0
  159.8540  207.2700  156.6250 C   0  0  0  0  0  2  0  0  0  0  0  0
  161.2460  207.0160  157.1820 C   0  0  0  0  0  1  0  0  0  0  0  0
  159.3680  209.7830  154.9120 N   0  0  0  0  0  2  0  0  0  0  0  0
  157.4860  210.8660  156.0430 C   0  0  0  0  0  1  0  0  0  0  0  0
  158.9980  210.8860  155.8220 C   0  0  1  0  0  0  0  0  0  0  0  0
  159.6420  210.7720  157.0780 O   0  0  0  0  0  1  0  0  0  0  0  0
  159.4020  212.1470  155.2120 N   0  0  0  0  0  0  0  0  0  0  0  0
  159.6050  213.2060  155.9120 C   0  0  0  0  0  2  0  0  0  0  0  0
  1  5  1  0  0  0  0
  3 12  1  0  0  0  0
  3  9  1  1  0  0  0
  4 34  1  6  0  0  0
  5 13  2  0  0  0  0
  5  4  1  0  0  0  0
  6  4  1  0  0  0  0
  6 31  1  6  0  0  0
  8  2  1  6  0  0  0
  8  1  1  0  0  0  0
  8 10  1  0  0  0  0
 10  7  1  6  0  0  0
 10  6  1  0  0  0  0
 11  2  1  0  0  0  0
 11  3  1  0  0  0  0
 12 19  1  0  0  0  0
 12  7  1  1  0  0  0
 14 20  1  1  0  0  0
 14 16  1  0  0  0  0
 14 17  1  0  0  0  0
 16 18  1  1  0  0  0
 16 17  1  0  0  0  0
 17 19  1  0  0  0  0
 18 15  1  0  0  0  0
 19 15  1  0  0  0  0
 21 20  2  0  0  0  0
 22 23  2  0  0  0  0
 23 20  1  0  0  0  0
 24 22  1  0  0  0  0
 24 21  1  0  0  0  0
 25 26  2  0  0  0  0
 26 27  1  0  0  0  0
 26 24  1  0  0  0  0
 27 28  1  0  0  0  0
 29 28  1  0  0  0  0
 29 30  1  0  0  0  0
 31 32  1  0  0  0  0
 32 33  1  0  0  0  0
 34 36  1  0  0  0  0
 36 35  1  0  0  0  0
 36 37  1  0  0  0  0
 38 36  1  0  0  0  0
 38 39  2  0  0  0  0
M  END
>  <MODEL>
2

>  <REMARK>
 VINA RESULT:      -4.9      2.084      2.927
  Name = 
  11 active torsions:
  status: ('A' for Active; 'I' for Inactive)
    1  A    between atoms: N_1  and  C_21
    2  A    between atoms: C_2  and  C_3
    3  A    between atoms: C_12  and  N_31
    4  A    between atoms: C_16  and  O_28
    5  A    between atoms: N_18  and  C_33
    6  A    between atoms: C_21  and  N_31
    7  A    between atoms: C_27  and  C_36
    8  A    between atoms: O_28  and  C_32
    9  A    between atoms: C_30  and  C_35
   10  A    between atoms: C_33  and  C_34
   11  A    between atoms: C_34  and  C_36
                            x       y       z     vdW  Elec       q    Type
                         _______ _______ _______ _____ _____    ______ ____

>  <TORSDO>
F 11

$$$$
=
 OpenBabel11052410023D

 39 43  0  0  1  0  0  0  0  0999 V2000
  160.6430  202.4140  150.4520 N   0  0  0  0  0  2  0  0  0  0  0  0
  159.9680  204.4930  151.5720 C   0  0  0  0  0  2  0  0  0  0  0  0
  162.1370  205.8780  151.7060 C   0  0  2  0  0  3  0  0  0  0  0  0
  161.3520  202.3470  148.0500 C   0  0  2  0  0  3  0  0  0  0  0  0
  161.1640  201.6570  149.3560 C   0  0  0  0  0  0  0  0  0  0  0  0
  161.9970  203.7210  148.2520 C   0  0  2  0  0  3  0  0  0  0  0  0
  161.2690  205.8790  149.2790 O   0  0  0  0  0  0  0  0  0  0  0  0
  160.2840  203.8080  150.2360 C   0  0  1  0  0  3  0  0  0  0  0  0
  163.3430  205.2680  151.4220 F   0  0  0  0  0  0  0  0  0  0  0  0
  161.4500  204.4910  149.4920 C   0  0  1  0  0  3  0  0  0  0  0  0
  161.1900  204.8820  152.3960 C   0  0  0  0  0  2  0  0  0  0  0  0
  161.5570  206.6450  150.4660 C   0  0  2  0  0  3  0  0  0  0  0  0
  161.5290  200.4740  149.5300 O   0  0  0  0  0  0  0  0  0  0  0  0
  161.8380  209.2910  152.3850 C   0  0  2  0  0  3  0  0  0  0  0  0
  161.6450  208.9010  149.2490 C   0  0  0  0  0  2  0  0  0  0  0  0
  162.3030  210.1390  151.3850 C   0  0  1  0  0  3  0  0  0  0  0  0
  162.5160  208.7840  151.2210 C   0  0  2  0  0  3  0  0  0  0  0  0
  161.4340  210.2100  150.1190 C   0  0  0  0  0  2  0  0  0  0  0  0
  162.4140  207.8840  150.1150 C   0  0  1  0  0  3  0  0  0  0  0  0
  160.9440  209.0240  153.5140 C   0  0  0  0  0  0  0  0  0  0  0  0
  160.8860  207.8920  154.1560 N   0  0  0  0  0  0  0  0  0  0  0  0
  159.4160  209.4430  154.9990 C   0  0  0  0  0  3  0  0  0  0  0  0
  160.0280  209.9850  154.0050 N   0  0  0  0  0  0  0  0  0  0  0  0
  159.9110  208.0550  155.2330 C   0  0  2  0  0  3  0  0  0  0  0  0
  160.7180  206.9090  157.1480 O   0  0  0  0  0  0  0  0  0  0  0  0
  160.5990  207.9930  156.5760 C   0  0  0  0  0  0  0  0  0  0  0  0
  161.0590  209.2500  157.2490 C   0  0  0  0  0  2  0  0  0  0  0  0
  162.5720  209.2890  157.2610 C   0  0  0  0  0  2  0  0  0  0  0  0
  163.0190  210.6570  157.1080 N   0  0  0  0  0  2  0  0  0  0  0  0
  161.8290  211.4570  156.8760 C   0  0  0  0  0  1  0  0  0  0  0  0
  161.9510  204.4710  147.0540 O   0  0  0  0  0  0  0  0  0  0  0  0
  163.2260  205.0220  146.8510 C   0  0  0  0  0  2  0  0  0  0  0  0
  163.9790  204.1530  145.8570 C   0  0  0  0  0  1  0  0  0  0  0  0
  160.0610  202.4630  147.3830 N   0  0  0  0  0  2  0  0  0  0  0  0
  160.8710  200.5480  146.0910 C   0  0  0  0  0  1  0  0  0  0  0  0
  160.0880  201.8600  146.0350 C   0  0  1  0  0  0  0  0  0  0  0  0
  158.7850  201.5910  145.5510 O   0  0  0  0  0  1  0  0  0  0  0  0
  160.7340  202.7940  145.1200 N   0  0  0  0  0  0  0  0  0  0  0  0
  160.0780  203.7280  144.5280 C   0  0  0  0  0  2  0  0  0  0  0  0
  2 11  1  0  0  0  0
  3  9  1  6  0  0  0
  3 11  1  0  0  0  0
  4 34  1  1  0  0  0
  4  6  1  0  0  0  0
  4  5  1  0  0  0  0
  5 13  2  0  0  0  0
  5  1  1  0  0  0  0
  6 31  1  6  0  0  0
  6 10  1  0  0  0  0
  8  1  1  0  0  0  0
  8  2  1  1  0  0  0
 10  7  1  6  0  0  0
 10  8  1  0  0  0  0
 12  7  1  6  0  0  0
 12  3  1  0  0  0  0
 14 20  1  6  0  0  0
 15 19  1  0  0  0  0
 15 18  1  0  0  0  0
 16 18  1  6  0  0  0
 16 14  1  0  0  0  0
 17 16  1  0  0  0  0
 17 14  1  0  0  0  0
 19 12  1  0  0  0  0
 19 17  1  0  0  0  0
 20 23  1  0  0  0  0
 20 21  2  0  0  0  0
 21 24  1  0  0  0  0
 22 24  1  0  0  0  0
 23 22  2  0  0  0  0
 24 26  1  0  0  0  0
 26 25  2  0  0  0  0
 26 27  1  0  0  0  0
 27 28  1  0  0  0  0
 29 28  1  0  0  0  0
 30 29  1  0  0  0  0
 32 31  1  0  0  0  0
 33 32  1  0  0  0  0
 36 35  1  0  0  0  0
 36 34  1  0  0  0  0
 37 36  1  0  0  0  0
 38 36  1  0  0  0  0
 39 38  2  0  0  0  0
M  END
>  <MODEL>
3

>  <REMARK>
 VINA RESULT:      -3.5      3.183     10.019
  Name = 
  11 active torsions:
  status: ('A' for Active; 'I' for Inactive)
    1  A    between atoms: N_1  and  C_21
    2  A    between atoms: C_2  and  C_3
    3  A    between atoms: C_12  and  N_31
    4  A    between atoms: C_16  and  O_28
    5  A    between atoms: N_18  and  C_33
    6  A    between atoms: C_21  and  N_31
    7  A    between atoms: C_27  and  C_36
    8  A    between atoms: O_28  and  C_32
    9  A    between atoms: C_30  and  C_35
   10  A    between atoms: C_33  and  C_34
   11  A    between atoms: C_34  and  C_36
                            x       y       z     vdW  Elec       q    Type
                         _______ _______ _______ _____ _____    ______ ____

>  <TORSDO>
F 11

$$$$
=
 OpenBabel11052410023D

 39 43  0  0  1  0  0  0  0  0999 V2000
  162.0900  210.2230  148.2240 N   0  0  0  0  0  2  0  0  0  0  0  0
  161.3470  207.8820  148.2260 C   0  0  0  0  0  2  0  0  0  0  0  0
  162.8420  206.7380  149.9850 C   0  0  2  0  0  3  0  0  0  0  0  0
  161.7200  211.7540  150.1730 C   0  0  2  0  0  3  0  0  0  0  0  0
  162.3110  211.4990  148.8290 C   0  0  0  0  0  0  0  0  0  0  0  0
  161.9410  210.5540  151.0960 C   0  0  2  0  0  3  0  0  0  0  0  0
  161.0890  208.2070  151.1750 O   0  0  0  0  0  0  0  0  0  0  0  0
  161.2700  209.2460  148.9250 C   0  0  1  0  0  3  0  0  0  0  0  0
  163.9430  207.4140  150.4730 F   0  0  0  0  0  0  0  0  0  0  0  0
  161.7540  209.1780  150.3880 C   0  0  1  0  0  3  0  0  0  0  0  0
  162.6190  207.0910  148.5050 C   0  0  0  0  0  2  0  0  0  0  0  0
  161.5960  206.8790  150.9290 C   0  0  2  0  0  3  0  0  0  0  0  0
  163.0550  212.3350  148.2720 O   0  0  0  0  0  0  0  0  0  0  0  0
  161.4750  203.6160  151.2410 C   0  0  2  0  0  3  0  0  0  0  0  0
  160.5090  206.0050  153.0810 C   0  0  0  0  0  2  0  0  0  0  0  0
  161.2870  203.6150  152.6200 C   0  0  1  0  0  3  0  0  0  0  0  0
  161.9100  204.7160  152.0620 C   0  0  2  0  0  3  0  0  0  0  0  0
  160.1150  204.4690  153.1300 C   0  0  0  0  0  2  0  0  0  0  0  0
  161.8110  206.1270  152.2640 C   0  0  1  0  0  3  0  0  0  0  0  0
  161.1140  203.1310  149.9070 C   0  0  0  0  0  0  0  0  0  0  0  0
  160.7140  203.8940  148.9290 N   0  0  0  0  0  0  0  0  0  0  0  0
  160.7930  201.6810  148.3240 C   0  0  0  0  0  3  0  0  0  0  0  0
  161.1470  201.7600  149.5590 N   0  0  0  0  0  0  0  0  0  0  0  0
  160.5040  203.0340  147.7670 C   0  0  2  0  0  3  0  0  0  0  0  0
  162.5280  203.9870  146.9790 O   0  0  0  0  0  0  0  0  0  0  0  0
  161.5130  203.3530  146.6900 C   0  0  0  0  0  0  0  0  0  0  0  0
  161.2430  202.9770  145.2650 C   0  0  0  0  0  2  0  0  0  0  0  0
  160.3060  203.9930  144.6470 C   0  0  0  0  0  2  0  0  0  0  0  0
  161.0330  205.2140  144.3740 N   0  0  0  0  0  2  0  0  0  0  0  0
  160.3750  206.2640  145.1320 C   0  0  0  0  0  1  0  0  0  0  0  0
  161.1760  210.6900  152.2780 O   0  0  0  0  0  0  0  0  0  0  0  0
  162.0160  210.3930  153.3620 C   0  0  0  0  0  2  0  0  0  0  0  0
  161.2050  209.6620  154.4210 C   0  0  0  0  0  1  0  0  0  0  0  0
  160.3010  212.0490  150.0190 N   0  0  0  0  0  2  0  0  0  0  0  0
  159.4330  213.7060  151.5980 C   0  0  0  0  0  1  0  0  0  0  0  0
  160.0200  213.4870  150.2040 C   0  0  1  0  0  0  0  0  0  0  0  0
  161.1910  214.2740  150.0760 O   0  0  0  0  0  1  0  0  0  0  0  0
  159.0680  213.9110  149.1840 N   0  0  0  0  0  0  0  0  0  0  0  0
  159.0810  213.4170  147.9970 C   0  0  0  0  0  2  0  0  0  0  0  0
  1  5  1  0  0  0  0
  1  8  1  0  0  0  0
  2 11  1  0  0  0  0
  3  9  1  1  0  0  0
  3 12  1  0  0  0  0
  4 34  1  6  0  0  0
  4  6  1  0  0  0  0
  5  4  1  0  0  0  0
  6 31  1  1  0  0  0
  8  2  1  6  0  0  0
  8 10  1  0  0  0  0
 10  6  1  0  0  0  0
 10  7  1  1  0  0  0
 11  3  1  0  0  0  0
 12  7  1  1  0  0  0
 12 19  1  0  0  0  0
 13  5  2  0  0  0  0
 14 20  1  6  0  0  0
 14 17  1  0  0  0  0
 14 16  1  0  0  0  0
 15 18  1  0  0  0  0
 16 18  1  6  0  0  0
 17 19  1  0  0  0  0
 17 16  1  0  0  0  0
 19 15  1  0  0  0  0
 21 20  2  0  0  0  0
 22 23  2  0  0  0  0
 23 20  1  0  0  0  0
 24 22  1  0  0  0  0
 24 21  1  0  0  0  0
 26 25  2  0  0  0  0
 26 24  1  0  0  0  0
 27 26  1  0  0  0  0
 28 27  1  0  0  0  0
 29 28  1  0  0  0  0
 29 30  1  0  0  0  0
 31 32  1  0  0  0  0
 32 33  1  0  0  0  0
 34 36  1  0  0  0  0
 36 35  1  0  0  0  0
 37 36  1  0  0  0  0
 38 36  1  0  0  0  0
 39 38  2  0  0  0  0
M  END
>  <MODEL>
4

>  <REMARK>
 VINA RESULT:      -3.2      3.218      4.664
  Name = 
  11 active torsions:
  status: ('A' for Active; 'I' for Inactive)
    1  A    between atoms: N_1  and  C_21
    2  A    between atoms: C_2  and  C_3
    3  A    between atoms: C_12  and  N_31
    4  A    between atoms: C_16  and  O_28
    5  A    between atoms: N_18  and  C_33
    6  A    between atoms: C_21  and  N_31
    7  A    between atoms: C_27  and  C_36
    8  A    between atoms: O_28  and  C_32
    9  A    between atoms: C_30  and  C_35
   10  A    between atoms: C_33  and  C_34
   11  A    between atoms: C_34  and  C_36
                            x       y       z     vdW  Elec       q    Type
                         _______ _______ _______ _____ _____    ______ ____

>  <TORSDO>
F 11

$$$$
=
 OpenBabel11052410023D

 39 43  0  0  1  0  0  0  0  0999 V2000
  161.5910  209.8120  152.3240 N   0  0  0  0  0  2  0  0  0  0  0  0
  161.2260  208.1040  150.5980 C   0  0  0  0  0  2  0  0  0  0  0  0
  162.5830  206.0710  151.4140 C   0  0  2  0  0  3  0  0  0  0  0  0
  160.6860  209.5900  154.6500 C   0  0  2  0  0  3  0  0  0  0  0  0
  161.5130  210.3280  153.6550 C   0  0  0  0  0  0  0  0  0  0  0  0
  160.9400  208.0840  154.5530 C   0  0  2  0  0  3  0  0  0  0  0  0
  160.4580  206.3170  152.8540 O   0  0  0  0  0  0  0  0  0  0  0  0
  160.8310  208.6170  151.9890 C   0  0  1  0  0  3  0  0  0  0  0  0
  163.4760  206.2330  152.4550 F   0  0  0  0  0  0  0  0  0  0  0  0
  161.0820  207.5670  153.0900 C   0  0  1  0  0  3  0  0  0  0  0  0
  162.5450  207.3410  150.5490 C   0  0  0  0  0  2  0  0  0  0  0  0
  161.1970  205.5210  151.9050 C   0  0  2  0  0  3  0  0  0  0  0  0
  162.1980  211.3210  153.9820 O   0  0  0  0  0  0  0  0  0  0  0  0
  161.3500  202.9160  149.9180 C   0  0  2  0  0  3  0  0  0  0  0  0
  159.9340  203.4360  152.7010 C   0  0  0  0  0  2  0  0  0  0  0  0
  160.9900  201.9820  150.8840 C   0  0  1  0  0  3  0  0  0  0  0  0
  161.5700  203.1590  151.3190 C   0  0  2  0  0  3  0  0  0  0  0  0
  159.6860  202.2820  151.6420 C   0  0  0  0  0  2  0  0  0  0  0  0
  161.3110  204.0600  152.3980 C   0  0  1  0  0  3  0  0  0  0  0  0
  161.2090  203.4710  148.5690 C   0  0  0  0  0  0  0  0  0  0  0  0
  160.9490  204.7220  148.3120 N   0  0  0  0  0  0  0  0  0  0  0  0
  161.1660  203.4700  146.3990 C   0  0  0  0  0  3  0  0  0  0  0  0
  161.3230  202.6790  147.4020 N   0  0  0  0  0  0  0  0  0  0  0  0
  160.9390  204.8710  146.8580 C   0  0  2  0  0  3  0  0  0  0  0  0
  162.6990  206.4150  147.2400 O   0  0  0  0  0  0  0  0  0  0  0  0
  162.0950  205.7330  146.4120 C   0  0  0  0  0  0  0  0  0  0  0  0
  162.4540  205.8250  144.9600 C   0  0  0  0  0  2  0  0  0  0  0  0
  161.2180  206.1720  144.1580 C   0  0  0  0  0  2  0  0  0  0  0  0
  161.2140  205.4120  142.9270 N   0  0  0  0  0  2  0  0  0  0  0  0
  161.9540  206.1980  141.9540 C   0  0  0  0  0  1  0  0  0  0  0  0
  159.9860  207.3700  155.3160 O   0  0  0  0  0  0  0  0  0  0  0  0
  160.6140  206.9590  156.5020 C   0  0  0  0  0  2  0  0  0  0  0  0
  161.5880  208.0420  156.9390 C   0  0  0  0  0  1  0  0  0  0  0  0
  159.2800  209.9040  154.4240 N   0  0  0  0  0  2  0  0  0  0  0  0
  159.4350  210.7310  156.7230 C   0  0  0  0  0  1  0  0  0  0  0  0
  158.8010  210.9500  155.3500 C   0  0  1  0  0  0  0  0  0  0  0  0
  159.1370  212.2490  154.8970 O   0  0  0  0  0  1  0  0  0  0  0  0
  157.3490  210.8580  155.4440 N   0  0  0  0  0  0  0  0  0  0  0  0
  156.6090  211.9030  155.5650 C   0  0  0  0  0  2  0  0  0  0  0  0
  1  5  1  0  0  0  0
  3 12  1  0  0  0  0
  3  9  1  1  0  0  0
  4 34  1  6  0  0  0
  5 13  2  0  0  0  0
  5  4  1  0  0  0  0
  6  4  1  0  0  0  0
  6 31  1  6  0  0  0
  8  2  1  6  0  0  0
  8  1  1  0  0  0  0
  8 10  1  0  0  0  0
 10  7  1  6  0  0  0
 10  6  1  0  0  0  0
 11  2  1  0  0  0  0
 11  3  1  0  0  0  0
 12 19  1  0  0  0  0
 12  7  1  1  0  0  0
 14 20  1  1  0  0  0
 14 16  1  0  0  0  0
 14 17  1  0  0  0  0
 16 17  1  0  0  0  0
 16 18  1  1  0  0  0
 17 19  1  0  0  0  0
 18 15  1  0  0  0  0
 19 15  1  0  0  0  0
 21 20  2  0  0  0  0
 22 24  1  0  0  0  0
 22 23  2  0  0  0  0
 23 20  1  0  0  0  0
 24 21  1  0  0  0  0
 26 24  1  0  0  0  0
 26 25  2  0  0  0  0
 27 26  1  0  0  0  0
 28 27  1  0  0  0  0
 29 28  1  0  0  0  0
 30 29  1  0  0  0  0
 31 32  1  0  0  0  0
 32 33  1  0  0  0  0
 34 36  1  0  0  0  0
 36 38  1  0  0  0  0
 36 35  1  0  0  0  0
 37 36  1  0  0  0  0
 38 39  2  0  0  0  0
M  END
>  <MODEL>
5

>  <REMARK>
 VINA RESULT:      -2.9      2.200      3.370
  Name = 
  11 active torsions:
  status: ('A' for Active; 'I' for Inactive)
    1  A    between atoms: N_1  and  C_21
    2  A    between atoms: C_2  and  C_3
    3  A    between atoms: C_12  and  N_31
    4  A    between atoms: C_16  and  O_28
    5  A    between atoms: N_18  and  C_33
    6  A    between atoms: C_21  and  N_31
    7  A    between atoms: C_27  and  C_36
    8  A    between atoms: O_28  and  C_32
    9  A    between atoms: C_30  and  C_35
   10  A    between atoms: C_33  and  C_34
   11  A    between atoms: C_34  and  C_36
                            x       y       z     vdW  Elec       q    Type
                         _______ _______ _______ _____ _____    ______ ____

>  <TORSDO>
F 11

$$$$
=
 OpenBabel11052410023D

 39 43  0  0  1  0  0  0  0  0999 V2000
  160.6870  202.5630  150.5070 N   0  0  0  0  0  2  0  0  0  0  0  0
  159.9910  204.6500  151.5960 C   0  0  0  0  0  2  0  0  0  0  0  0
  162.1500  206.0510  151.7320 C   0  0  2  0  0  3  0  0  0  0  0  0
  161.4170  202.4710  148.1120 C   0  0  2  0  0  3  0  0  0  0  0  0
  161.2220  201.7960  149.4250 C   0  0  0  0  0  0  0  0  0  0  0  0
  162.0510  203.8510  148.3030 C   0  0  2  0  0  3  0  0  0  0  0  0
  161.3020  206.0170  149.2970 O   0  0  0  0  0  0  0  0  0  0  0  0
  160.3220  203.9510  150.2710 C   0  0  1  0  0  3  0  0  0  0  0  0
  163.3610  205.4450  151.4650 F   0  0  0  0  0  0  0  0  0  0  0  0
  161.4900  204.6320  149.5290 C   0  0  1  0  0  3  0  0  0  0  0  0
  161.2040  205.0570  152.4250 C   0  0  0  0  0  2  0  0  0  0  0  0
  161.5750  206.7990  150.4780 C   0  0  2  0  0  3  0  0  0  0  0  0
  161.5920  200.6170  149.6160 O   0  0  0  0  0  0  0  0  0  0  0  0
  162.1060  209.3180  152.5110 C   0  0  2  0  0  3  0  0  0  0  0  0
  161.6080  209.1210  149.3900 C   0  0  0  0  0  2  0  0  0  0  0  0
  162.4960  210.2150  151.5220 C   0  0  1  0  0  3  0  0  0  0  0  0
  162.6570  208.8680  151.2610 C   0  0  2  0  0  3  0  0  0  0  0  0
  161.5140  210.3800  150.3510 C   0  0  0  0  0  2  0  0  0  0  0  0
  162.4290  208.0390  150.1190 C   0  0  1  0  0  3  0  0  0  0  0  0
  161.3140  209.0030  153.7030 C   0  0  0  0  0  0  0  0  0  0  0  0
  161.5640  209.4650  154.8960 N   0  0  0  0  0  0  0  0  0  0  0  0
  159.7270  208.0880  154.8670 C   0  0  0  0  0  3  0  0  0  0  0  0
  160.1980  208.1330  153.6700 N   0  0  0  0  0  0  0  0  0  0  0  0
  160.5220  208.9540  155.7840 C   0  0  2  0  0  3  0  0  0  0  0  0
  160.0040  210.7370  157.2610 O   0  0  0  0  0  0  0  0  0  0  0  0
  159.6530  210.0860  156.2760 C   0  0  0  0  0  0  0  0  0  0  0  0
  158.3320  210.3640  155.6260 C   0  0  0  0  0  2  0  0  0  0  0  0
  158.3140  211.7870  155.1130 C   0  0  0  0  0  2  0  0  0  0  0  0
  159.3770  211.9640  154.1460 N   0  0  0  0  0  2  0  0  0  0  0  0
  158.8240  211.5950  152.8540 C   0  0  0  0  0  1  0  0  0  0  0  0
  162.0110  204.5870  147.0960 O   0  0  0  0  0  0  0  0  0  0  0  0
  163.3300  204.9380  146.7700 C   0  0  0  0  0  2  0  0  0  0  0  0
  163.6790  204.3230  145.4230 C   0  0  0  0  0  1  0  0  0  0  0  0
  160.1310  202.5710  147.4340 N   0  0  0  0  0  2  0  0  0  0  0  0
  160.9920  200.5920  146.2790 C   0  0  0  0  0  1  0  0  0  0  0  0
  160.1390  201.8530  146.1430 C   0  0  1  0  0  0  0  0  0  0  0  0
  158.8340  201.4770  145.7400 O   0  0  0  0  0  1  0  0  0  0  0  0
  160.6980  202.7330  145.1240 N   0  0  0  0  0  0  0  0  0  0  0  0
  160.0500  203.7470  144.6710 C   0  0  0  0  0  2  0  0  0  0  0  0
  2 11  1  0  0  0  0
  3  9  1  6  0  0  0
  3 11  1  0  0  0  0
  4 34  1  1  0  0  0
  4  6  1  0  0  0  0
  4  5  1  0  0  0  0
  5 13  2  0  0  0  0
  5  1  1  0  0  0  0
  6 31  1  6  0  0  0
  6 10  1  0  0  0  0
  8  1  1  0  0  0  0
  8  2  1  1  0  0  0
 10  7  1  6  0  0  0
 10  8  1  0  0  0  0
 12  7  1  6  0  0  0
 12  3  1  0  0  0  0
 14 20  1  6  0  0  0
 15 19  1  0  0  0  0
 15 18  1  0  0  0  0
 16 18  1  6  0  0  0
 16 14  1  0  0  0  0
 17 16  1  0  0  0  0
 17 14  1  0  0  0  0
 19 12  1  0  0  0  0
 19 17  1  0  0  0  0
 20 21  2  0  0  0  0
 21 24  1  0  0  0  0
 22 24  1  0  0  0  0
 23 20  1  0  0  0  0
 23 22  2  0  0  0  0
 24 26  1  0  0  0  0
 26 25  2  0  0  0  0
 27 26  1  0  0  0  0
 28 27  1  0  0  0  0
 29 28  1  0  0  0  0
 30 29  1  0  0  0  0
 32 31  1  0  0  0  0
 33 32  1  0  0  0  0
 36 35  1  0  0  0  0
 36 34  1  0  0  0  0
 37 36  1  0  0  0  0
 38 36  1  0  0  0  0
 39 38  2  0  0  0  0
M  END
>  <MODEL>
6

>  <REMARK>
 VINA RESULT:      -2.9      2.530      9.941
  Name = 
  11 active torsions:
  status: ('A' for Active; 'I' for Inactive)
    1  A    between atoms: N_1  and  C_21
    2  A    between atoms: C_2  and  C_3
    3  A    between atoms: C_12  and  N_31
    4  A    between atoms: C_16  and  O_28
    5  A    between atoms: N_18  and  C_33
    6  A    between atoms: C_21  and  N_31
    7  A    between atoms: C_27  and  C_36
    8  A    between atoms: O_28  and  C_32
    9  A    between atoms: C_30  and  C_35
   10  A    between atoms: C_33  and  C_34
   11  A    between atoms: C_34  and  C_36
                            x       y       z     vdW  Elec       q    Type
                         _______ _______ _______ _____ _____    ______ ____

>  <TORSDO>
F 11

$$$$
=
 OpenBabel11052410023D

 39 43  0  0  1  0  0  0  0  0999 V2000
  161.1370  204.1320  151.8830 N   0  0  0  0  0  2  0  0  0  0  0  0
  160.4560  206.4730  152.1730 C   0  0  0  0  0  2  0  0  0  0  0  0
  162.4830  207.8340  151.3490 C   0  0  2  0  0  3  0  0  0  0  0  0
  161.4690  203.0950  149.6270 C   0  0  2  0  0  3  0  0  0  0  0  0
  161.5490  203.0010  151.1110 C   0  0  0  0  0  0  0  0  0  0  0  0
  162.0090  204.4420  149.1410 C   0  0  2  0  0  3  0  0  0  0  0  0
  161.2540  206.8170  149.3240 O   0  0  0  0  0  0  0  0  0  0  0  0
  160.6230  205.3050  151.1930 C   0  0  1  0  0  3  0  0  0  0  0  0
  163.6810  207.1850  151.1250 F   0  0  0  0  0  0  0  0  0  0  0  0
  161.5920  205.6440  150.0420 C   0  0  1  0  0  3  0  0  0  0  0  0
  161.7500  207.1910  152.5380 C   0  0  0  0  0  2  0  0  0  0  0  0
  161.6500  208.0100  150.0310 C   0  0  2  0  0  3  0  0  0  0  0  0
  162.0430  202.0030  151.6780 O   0  0  0  0  0  0  0  0  0  0  0  0
  161.6130  211.2650  150.4320 C   0  0  2  0  0  3  0  0  0  0  0  0
  161.4100  209.3950  147.8860 C   0  0  0  0  0  2  0  0  0  0  0  0
  161.9390  211.5720  149.1150 C   0  0  1  0  0  3  0  0  0  0  0  0
  162.3290  210.3370  149.5980 C   0  0  2  0  0  3  0  0  0  0  0  0
  161.0430  210.9300  148.0430 C   0  0  0  0  0  2  0  0  0  0  0  0
  162.3270  209.0110  149.0640 C   0  0  1  0  0  3  0  0  0  0  0  0
  160.7860  211.4810  151.6220 C   0  0  0  0  0  0  0  0  0  0  0  0
  160.6010  210.5960  152.5610 N   0  0  0  0  0  0  0  0  0  0  0  0
  159.4760  212.5530  152.9800 C   0  0  0  0  0  3  0  0  0  0  0  0
  160.0810  212.6860  151.8520 N   0  0  0  0  0  0  0  0  0  0  0  0
  159.7600  211.2180  153.5810 C   0  0  2  0  0  3  0  0  0  0  0  0
  160.2060  212.2880  155.6510 O   0  0  0  0  0  0  0  0  0  0  0  0
  160.5390  211.4040  154.8610 C   0  0  0  0  0  0  0  0  0  0  0  0
  161.7600  210.5790  155.1300 C   0  0  0  0  0  2  0  0  0  0  0  0
  161.7230  210.0800  156.5580 C   0  0  0  0  0  2  0  0  0  0  0  0
  161.9560  208.6510  156.5750 N   0  0  0  0  0  2  0  0  0  0  0  0
  160.7700  208.0330  156.0060 C   0  0  0  0  0  1  0  0  0  0  0  0
  161.7100  204.6320  147.7710 O   0  0  0  0  0  0  0  0  0  0  0  0
  162.9190  204.8810  147.1050 C   0  0  0  0  0  2  0  0  0  0  0  0
  162.6090  205.4400  145.7250 C   0  0  0  0  0  1  0  0  0  0  0  0
  160.0850  202.9000  149.2120 N   0  0  0  0  0  2  0  0  0  0  0  0
  161.1200  200.7470  148.6760 C   0  0  0  0  0  1  0  0  0  0  0  0
  159.9230  201.6630  148.4220 C   0  0  1  0  0  0  0  0  0  0  0  0
  158.7380  200.9680  148.7660 O   0  0  0  0  0  1  0  0  0  0  0  0
  159.8520  202.0190  147.0090 N   0  0  0  0  0  0  0  0  0  0  0  0
  160.7670  201.6720  146.1750 C   0  0  0  0  0  2  0  0  0  0  0  0
  2 11  1  0  0  0  0
  3  9  1  6  0  0  0
  3 11  1  0  0  0  0
  4 34  1  1  0  0  0
  4  5  1  0  0  0  0
  5 13  2  0  0  0  0
  5  1  1  0  0  0  0
  6 31  1  6  0  0  0
  6  4  1  0  0  0  0
  6 10  1  0  0  0  0
  8  1  1  0  0  0  0
  8  2  1  1  0  0  0
 10  7  1  6  0  0  0
 10  8  1  0  0  0  0
 12  7  1  6  0  0  0
 12  3  1  0  0  0  0
 14 20  1  6  0  0  0
 15 18  1  0  0  0  0
 15 19  1  0  0  0  0
 16 18  1  6  0  0  0
 16 17  1  0  0  0  0
 16 14  1  0  0  0  0
 17 14  1  0  0  0  0
 19 17  1  0  0  0  0
 19 12  1  0  0  0  0
 20 23  1  0  0  0  0
 20 21  2  0  0  0  0
 21 24  1  0  0  0  0
 22 24  1  0  0  0  0
 23 22  2  0  0  0  0
 24 26  1  0  0  0  0
 26 27  1  0  0  0  0
 26 25  2  0  0  0  0
 27 28  1  0  0  0  0
 28 29  1  0  0  0  0
 30 29  1  0  0  0  0
 32 31  1  0  0  0  0
 33 32  1  0  0  0  0
 36 35  1  0  0  0  0
 36 37  1  0  0  0  0
 36 34  1  0  0  0  0
 38 36  1  0  0  0  0
 39 38  2  0  0  0  0
M  END
>  <MODEL>
7

>  <REMARK>
 VINA RESULT:      -2.8      2.723      9.314
  Name = 
  11 active torsions:
  status: ('A' for Active; 'I' for Inactive)
    1  A    between atoms: N_1  and  C_21
    2  A    between atoms: C_2  and  C_3
    3  A    between atoms: C_12  and  N_31
    4  A    between atoms: C_16  and  O_28
    5  A    between atoms: N_18  and  C_33
    6  A    between atoms: C_21  and  N_31
    7  A    between atoms: C_27  and  C_36
    8  A    between atoms: O_28  and  C_32
    9  A    between atoms: C_30  and  C_35
   10  A    between atoms: C_33  and  C_34
   11  A    between atoms: C_34  and  C_36
                            x       y       z     vdW  Elec       q    Type
                         _______ _______ _______ _____ _____    ______ ____

>  <TORSDO>
F 11

$$$$
=
 OpenBabel11052410023D

 39 43  0  0  1  0  0  0  0  0999 V2000
  160.9330  206.5150  154.6990 N   0  0  0  0  0  2  0  0  0  0  0  0
  162.3560  205.6360  152.9020 C   0  0  0  0  0  2  0  0  0  0  0  0
  160.8980  205.8200  150.7850 C   0  0  2  0  0  3  0  0  0  0  0  0
  160.2710  208.9280  154.8350 C   0  0  2  0  0  3  0  0  0  0  0  0
  160.1670  207.5340  155.3480 C   0  0  0  0  0  0  0  0  0  0  0  0
  160.2110  208.9470  153.3060 C   0  0  2  0  0  3  0  0  0  0  0  0
  161.7150  208.1670  151.4700 O   0  0  0  0  0  0  0  0  0  0  0  0
  161.8080  206.8890  153.5980 C   0  0  1  0  0  3  0  0  0  0  0  0
  159.5520  206.0970  150.9190 F   0  0  0  0  0  0  0  0  0  0  0  0
  161.0050  207.7870  152.6350 C   0  0  1  0  0  3  0  0  0  0  0  0
  161.3770  204.9480  151.9580 C   0  0  0  0  0  2  0  0  0  0  0  0
  161.7400  207.1110  150.4880 C   0  0  2  0  0  3  0  0  0  0  0  0
  159.3690  207.2300  156.2610 O   0  0  0  0  0  0  0  0  0  0  0  0
  160.8920  205.2630  147.9140 C   0  0  2  0  0  3  0  0  0  0  0  0
  162.7090  207.8370  148.2280 C   0  0  0  0  0  2  0  0  0  0  0  0
  161.2010  206.2180  146.9500 C   0  0  1  0  0  3  0  0  0  0  0  0
  160.8920  206.6700  148.2190 C   0  0  2  0  0  3  0  0  0  0  0  0
  162.6200  206.8040  147.0280 C   0  0  0  0  0  2  0  0  0  0  0  0
  161.4350  207.6740  149.0800 C   0  0  1  0  0  3  0  0  0  0  0  0
  160.9600  203.8860  148.4090 C   0  0  0  0  0  0  0  0  0  0  0  0
  160.0850  202.9610  148.1350 N   0  0  0  0  0  0  0  0  0  0  0  0
  161.7650  202.1880  149.4950 C   0  0  0  0  0  3  0  0  0  0  0  0
  161.9920  203.4340  149.2660 N   0  0  0  0  0  0  0  0  0  0  0  0
  160.5400  201.7300  148.7770 C   0  0  2  0  0  3  0  0  0  0  0  0
  161.8300  199.9060  147.9780 O   0  0  0  0  0  0  0  0  0  0  0  0
  160.9280  200.7080  147.7350 C   0  0  0  0  0  0  0  0  0  0  0  0
  160.2810  200.7220  146.3840 C   0  0  0  0  0  2  0  0  0  0  0  0
  160.8140  201.8910  145.5840 C   0  0  0  0  0  2  0  0  0  0  0  0
  159.8840  202.2120  144.5220 N   0  0  0  0  0  2  0  0  0  0  0  0
  159.8760  203.6600  144.4040 C   0  0  0  0  0  1  0  0  0  0  0  0
  160.5540  210.2280  152.8120 O   0  0  0  0  0  0  0  0  0  0  0  0
  159.3590  210.9250  152.5780 C   0  0  0  0  0  2  0  0  0  0  0  0
  159.6920  212.3820  152.2980 C   0  0  0  0  0  1  0  0  0  0  0  0
  161.5100  209.5210  155.3220 N   0  0  0  0  0  2  0  0  0  0  0  0
  160.9260  211.8330  155.8770 C   0  0  0  0  0  1  0  0  0  0  0  0
  161.2640  210.4540  156.4410 C   0  0  1  0  0  0  0  0  0  0  0  0
  160.1930  210.0240  157.2610 O   0  0  0  0  0  1  0  0  0  0  0  0
  162.4680  210.5260  157.2600 N   0  0  0  0  0  0  0  0  0  0  0  0
  163.5510  211.0690  156.8300 C   0  0  0  0  0  2  0  0  0  0  0  0
  1  5  1  0  0  0  0
  3  9  1  1  0  0  0
  3 11  1  0  0  0  0
  4 34  1  6  0  0  0
  4  5  1  0  0  0  0
  5 13  2  0  0  0  0
  6 31  1  6  0  0  0
  6  4  1  0  0  0  0
  8  2  1  6  0  0  0
  8  1  1  0  0  0  0
 10  7  1  6  0  0  0
 10  6  1  0  0  0  0
 10  8  1  0  0  0  0
 11  2  1  0  0  0  0
 12  3  1  0  0  0  0
 12  7  1  1  0  0  0
 14 17  1  0  0  0  0
 14 20  1  1  0  0  0
 15 19  1  0  0  0  0
 16 18  1  1  0  0  0
 16 14  1  0  0  0  0
 16 17  1  0  0  0  0
 17 19  1  0  0  0  0
 18 15  1  0  0  0  0
 19 12  1  0  0  0  0
 20 23  1  0  0  0  0
 21 20  2  0  0  0  0
 21 24  1  0  0  0  0
 23 22  2  0  0  0  0
 24 22  1  0  0  0  0
 26 25  2  0  0  0  0
 26 24  1  0  0  0  0
 27 26  1  0  0  0  0
 28 27  1  0  0  0  0
 29 28  1  0  0  0  0
 30 29  1  0  0  0  0
 32 31  1  0  0  0  0
 33 32  1  0  0  0  0
 34 36  1  0  0  0  0
 35 36  1  0  0  0  0
 36 38  1  0  0  0  0
 36 37  1  0  0  0  0
 39 38  2  0  0  0  0
M  END
>  <MODEL>
8

>  <REMARK>
 VINA RESULT:      -2.7      3.018      5.021
  Name = 
  11 active torsions:
  status: ('A' for Active; 'I' for Inactive)
    1  A    between atoms: N_1  and  C_21
    2  A    between atoms: C_2  and  C_3
    3  A    between atoms: C_12  and  N_31
    4  A    between atoms: C_16  and  O_28
    5  A    between atoms: N_18  and  C_33
    6  A    between atoms: C_21  and  N_31
    7  A    between atoms: C_27  and  C_36
    8  A    between atoms: O_28  and  C_32
    9  A    between atoms: C_30  and  C_35
   10  A    between atoms: C_33  and  C_34
   11  A    between atoms: C_34  and  C_36
                            x       y       z     vdW  Elec       q    Type
                         _______ _______ _______ _____ _____    ______ ____

>  <TORSDO>
F 11

$$$$
