=
 OpenBabel11052410043D

 68 78  0  0  1  0  0  0  0  0999 V2000
  159.1680  211.3170  154.2850 C   0  0  0  0  0  0  0  0  0  0  0  0
  154.7620  213.3020  152.6580 F   0  0  0  0  0  0  0  0  0  0  0  0
  160.1800  208.2380  150.4060 O   0  0  0  0  0  0  0  0  0  0  0  0
  158.1740  211.8440  155.1710 N   0  0  0  0  0  2  0  0  0  0  0  0
  161.5730  208.1680  150.2060 C   0  0  2  0  0  0  0  0  0  0  0  0
  160.0320  211.0190  152.0030 C   0  0  2  0  0  3  0  0  0  0  0  0
  161.3230  210.6120  152.5650 N   0  0  0  0  0  0  0  0  0  0  0  0
  159.7650  214.1120  149.9490 C   0  0  0  0  0  3  0  0  0  0  0  0
  162.5750  210.3050  154.5370 O   0  0  0  0  0  0  0  0  0  0  0  0
  163.6230  210.4280  152.1790 F   0  0  0  0  0  0  0  0  0  0  0  0
  160.2290  210.4350  154.8510 C   0  0  0  0  0  2  0  0  0  0  0  0
  162.3810  210.1230  151.6470 C   0  0  2  0  0  0  0  0  0  0  0  0
  160.7090  206.9630  150.1270 C   0  0  0  0  0  2  0  0  0  0  0  0
  162.8740  209.9820  149.2330 O   0  0  0  0  0  0  0  0  0  0  0  0
  162.3430  210.8230  150.2440 C   0  0  1  0  0  3  0  0  0  0  0  0
  161.3780  212.6570  148.8760 N   0  0  0  0  0  0  0  0  0  0  0  0
  161.4490  210.4690  153.9960 C   0  0  0  0  0  0  0  0  0  0  0  0
  156.1440  213.0260  155.5730 N   0  0  0  0  0  0  0  0  0  0  0  0
  155.2650  213.7850  154.8410 O   0  0  0  0  0  0  0  0  0  0  0  0
  160.2640  211.9860  150.9380 N   0  0  0  0  0  0  0  0  0  0  0  0
  162.3200  208.5800  151.4790 C   0  0  1  0  0  3  0  0  0  0  0  0
  160.2230  213.5330  148.6560 C   0  0  0  0  0  2  0  0  0  0  0  0
  161.0410  211.5310  149.7790 C   0  0  2  0  0  3  0  0  0  0  0  0
  159.1140  211.5640  153.0120 N   0  0  0  0  0  0  0  0  0  0  0  0
  161.9520  208.9440  148.9400 C   0  0  1  0  0  3  0  0  0  0  0  0
  157.0770  212.6670  154.7640 C   0  0  0  0  0  0  0  0  0  0  0  0
  155.6890  213.9040  153.4880 C   0  0  1  0  0  3  0  0  0  0  0  0
  156.8920  213.1520  153.4790 O   0  0  0  0  0  0  0  0  0  0  0  0
  159.7630  213.3310  151.0210 C   0  0  0  0  0  3  0  0  0  0  0  0
  160.5100  207.1060  147.2990 O   0  0  0  0  0  0  0  0  0  0  0  0
  162.5420  208.0540  147.9530 N   0  0  0  0  0  2  0  0  0  0  0  0
  162.4040  206.2920  146.2370 N   0  0  0  0  0  1  0  0  0  0  0  0
  161.7620  207.1490  147.1730 C   0  0  0  0  0  0  0  0  0  0  0  0
  162.0200  207.7780  152.7540 C   0  0  0  0  0  2  0  0  0  0  0  0
  161.0290  206.6450  152.5140 C   0  0  0  0  0  2  0  0  0  0  0  0
  160.8700  204.6410  154.0770 C   0  0  0  0  0  1  0  0  0  0  0  0
  161.5970  205.2790  152.8980 C   0  0  1  0  0  3  0  0  0  0  0  0
  161.7310  204.4130  151.7870 O   0  0  0  0  0  0  0  0  0  0  0  0
  160.5570  203.6420  151.6370 C   0  0  1  0  0  3  0  0  0  0  0  0
  159.8240  204.1030  150.5250 O   0  0  0  0  0  0  0  0  0  0  0  0
  160.5180  202.8900  150.3440 C   0  0  1  0  0  3  0  0  0  0  0  0
  161.3440  203.2300  148.1400 C   0  0  0  0  0  0  0  0  0  0  0  0
  161.7560  203.0770  149.4510 C   0  0  1  0  0  3  0  0  0  0  0  0
  160.8590  202.7620  146.9960 C   0  0  0  0  0  3  0  0  0  0  0  0
  161.8560  204.3610  148.9780 O   0  0  0  0  0  0  0  0  0  0  0  0
  160.5150  201.3160  146.8270 C   0  0  1  0  0  3  0  0  0  0  0  0
  160.2530  200.9660  145.3650 C   0  0  0  0  0  2  0  0  0  0  0  0
  159.6380  202.0320  144.7020 O   0  0  0  0  0  1  0  0  0  0  0  0
  161.5860  199.4020  146.4930 C   0  0  0  0  0  1  0  0  0  0  0  0
  161.5540  200.5260  147.3240 O   0  0  0  0  0  0  0  0  0  0  0  0
  161.8530  212.1730  147.5720 C   0  0  0  0  0  2  0  0  0  0  0  0
  161.1830  212.8540  146.3710 C   0  0  0  0  0  2  0  0  0  0  0  0
  162.2180  213.4130  145.3970 C   0  0  0  0  0  2  0  0  0  0  0  0
  161.6010  212.3650  137.5700 C   0  0  0  0  0  2  0  0  0  0  0  0
  161.5830  213.8340  139.4590 O   0  0  0  0  0  0  0  0  0  0  0  0
  159.9170  211.6440  139.2400 C   0  0  0  0  0  2  0  0  0  0  0  0
  163.8000  214.2890  143.2630 O   0  0  0  0  0  0  0  0  0  0  0  0
  162.8390  213.5270  142.9750 C   0  0  0  0  0  0  0  0  0  0  0  0
  159.0090  214.0760  140.6640 C   0  0  0  0  0  1  0  0  0  0  0  0
  161.9320  213.0870  143.9940 N   0  0  0  0  0  0  0  0  0  0  0  0
  161.3540  211.4660  138.7630 C   0  0  2  0  0  3  0  0  0  0  0  0
  161.4650  213.7150  140.8740 C   0  0  1  0  0  3  0  0  0  0  0  0
  159.8520  211.7370  140.7630 C   0  0  0  0  0  2  0  0  0  0  0  0
  162.2390  212.7120  138.8980 C   0  0  1  0  0  3  0  0  0  0  0  0
  160.0690  213.1680  141.2750 C   0  0  2  0  0  0  0  0  0  0  0  0
  159.8120  213.2210  142.7860 C   0  0  0  0  0  2  0  0  0  0  0  0
  162.6810  213.0620  141.5680 C   0  0  0  0  0  2  0  0  0  0  0  0
  160.7360  212.3370  143.6130 C   0  0  0  0  0  2  0  0  0  0  0  0
  1 11  1  0  0  0  0
  1  4  1  0  0  0  0
  5 13  1  6  0  0  0
  5  3  1  0  0  0  0
  5 21  1  0  0  0  0
  6  7  1  0  0  0  0
  6 24  1  1  0  0  0
  7 17  1  0  0  0  0
  8 29  2  0  0  0  0
 12 10  1  1  0  0  0
 12  7  1  0  0  0  0
 13  3  1  0  0  0  0
 15 14  1  6  0  0  0
 15 12  1  0  0  0  0
 17  9  2  0  0  0  0
 17 11  1  0  0  0  0
 19 18  1  0  0  0  0
 20 29  1  0  0  0  0
 20  6  1  0  0  0  0
 21 12  1  0  0  0  0
 21 34  1  1  0  0  0
 22 16  1  0  0  0  0
 22  8  1  0  0  0  0
 23 16  1  6  0  0  0
 23 15  1  0  0  0  0
 23 20  1  0  0  0  0
 24  1  2  0  0  0  0
 25 31  1  6  0  0  0
 25 14  1  0  0  0  0
 25  5  1  0  0  0  0
 26  4  1  0  0  0  0
 26 18  2  0  0  0  0
 27  2  1  6  0  0  0
 27 19  1  0  0  0  0
 28 27  1  0  0  0  0
 28 26  1  0  0  0  0
 32 33  1  0  0  0  0
 33 30  2  0  0  0  0
 33 31  1  0  0  0  0
 35 34  1  0  0  0  0
 35 37  1  0  0  0  0
 37 36  1  1  0  0  0
 38 37  1  0  0  0  0
 39 38  1  6  0  0  0
 40 39  1  0  0  0  0
 41 40  1  6  0  0  0
 41 39  1  0  0  0  0
 42 45  1  0  0  0  0
 43 42  1  6  0  0  0
 43 41  1  0  0  0  0
 44 42  2  0  0  0  0
 45 43  1  0  0  0  0
 46 47  1  6  0  0  0
 46 44  1  0  0  0  0
 46 50  1  0  0  0  0
 48 47  1  0  0  0  0
 49 50  1  0  0  0  0
 51 16  1  0  0  0  0
 52 51  1  0  0  0  0
 53 52  1  0  0  0  0
 55 62  1  0  0  0  0
 56 63  1  0  0  0  0
 58 57  2  0  0  0  0
 58 60  1  0  0  0  0
 60 53  1  0  0  0  0
 61 54  1  6  0  0  0
 61 64  1  0  0  0  0
 61 56  1  0  0  0  0
 62 65  1  0  0  0  0
 62 67  1  6  0  0  0
 63 65  1  0  0  0  0
 64 54  1  6  0  0  0
 64 55  1  0  0  0  0
 65 59  1  6  0  0  0
 65 66  1  0  0  0  0
 66 68  1  0  0  0  0
 67 58  1  0  0  0  0
 68 60  1  0  0  0  0
M  END
>  <MODEL>
1

>  <REMARK>
 VINA RESULT:      -5.0      0.000      0.000
  Name = 
  14 active torsions:
  status: ('A' for Active; 'I' for Inactive)
    1  A    between atoms: C_3  and  C_31
    2  A    between atoms: C_4  and  O_64
    3  A    between atoms: C_14  and  C_58
    4  A    between atoms: C_18  and  C_31
    5  A    between atoms: C_21  and  C_48
    6  A    between atoms: C_21  and  O_64
    7  A    between atoms: N_26  and  C_47
    8  A    between atoms: O_30  and  C_31
    9  A    between atoms: N_39  and  C_50
   10  A    between atoms: C_43  and  C_48
   11  A    between atoms: C_43  and  C_51
   12  A    between atoms: N_45  and  C_62
   13  A    between atoms: C_47  and  C_49
   14  A    between atoms: C_49  and  C_50
                            x       y       z     vdW  Elec       q    Type
                         _______ _______ _______ _____ _____    ______ ____

>  <TORSDO>
F 14

$$$$
