=
 OpenBabel11052410373D

 25 29  0  0  1  0  0  0  0  0999 V2000
  160.9600  206.7050  148.9370 N   0  0  0  0  0  2  0  0  0  0  0  0
  160.8830  202.1330  150.8330 C   0  0  0  0  0  3  0  0  0  0  0  0
  161.0470  205.2930  149.1760 C   0  0  0  0  0  0  0  0  0  0  0  0
  161.1000  207.1460  147.5370 C   0  0  2  0  0  3  0  0  0  0  0  0
  161.2030  201.9570  148.0090 C   0  0  0  0  0  0  0  0  0  0  0  0
  161.1630  204.4370  148.1390 N   0  0  0  0  0  0  0  0  0  0  0  0
  160.9270  204.6100  150.3780 C   0  0  0  0  0  0  0  0  0  0  0  0
  160.3560  206.1420  146.6500 C   0  0  1  0  0  3  0  0  0  0  0  0
  160.9890  203.2710  150.0370 C   0  0  0  0  0  0  0  0  0  0  0  0
  161.0900  200.7950  148.7940 C   0  0  0  0  0  3  0  0  0  0  0  0
  162.5570  206.9530  147.1160 C   0  0  0  0  0  2  0  0  0  0  0  0
  160.9350  200.8830  150.1930 C   0  0  0  0  0  3  0  0  0  0  0  0
  161.1410  203.1940  148.6650 C   0  0  0  0  0  0  0  0  0  0  0  0
  160.2860  206.6000  145.3310 O   0  0  0  0  0  1  0  0  0  0  0  0
  162.6540  205.5230  146.5750 C   0  0  0  0  0  2  0  0  0  0  0  0
  161.2630  204.9140  146.7540 C   0  0  1  0  0  3  0  0  0  0  0  0
  160.7600  205.1250  151.6670 O   0  0  0  0  0  0  0  0  0  0  0  0
  161.6180  206.1190  152.2050 C   0  0  2  0  0  3  0  0  0  0  0  0
  161.1880  206.4450  153.6200 C   0  0  0  0  0  2  0  0  0  0  0  0
  161.7460  208.5630  152.4800 C   0  0  0  0  0  1  0  0  0  0  0  0
  160.8120  207.3710  152.4810 C   0  0  1  0  0  3  0  0  0  0  0  0
  161.3620  201.8510  146.6260 O   0  0  0  0  0  0  0  0  0  0  0  0
  161.1360  199.6260  146.0380 O   0  0  0  0  0  0  0  0  0  0  0  0
  160.7780  200.8240  145.8800 C   0  0  0  0  0  0  0  0  0  0  0  0
  159.7600  201.1340  144.9380 N   0  0  0  0  0  1  0  0  0  0  0  0
  1  3  1  0  0  0  0
  3  7  2  0  0  0  0
  4 11  1  6  0  0  0
  4  1  1  0  0  0  0
  5 13  2  0  0  0  0
  5 10  1  0  0  0  0
  6 13  1  0  0  0  0
  6  3  1  0  0  0  0
  7 17  1  0  0  0  0
  8 14  1  6  0  0  0
  8 16  1  0  0  0  0
  8  4  1  0  0  0  0
  9  7  1  0  0  0  0
  9  2  2  0  0  0  0
 10 12  2  0  0  0  0
 12  2  1  0  0  0  0
 13  9  1  0  0  0  0
 15 11  1  0  0  0  0
 16 15  1  1  0  0  0
 16  6  1  0  0  0  0
 18 17  1  6  0  0  0
 18 21  1  0  0  0  0
 18 19  1  0  0  0  0
 21 20  1  1  0  0  0
 21 19  1  0  0  0  0
 22  5  1  0  0  0  0
 24 23  2  0  0  0  0
 24 22  1  0  0  0  0
 25 24  1  0  0  0  0
M  END
>  <MODEL>
1

>  <REMARK>
 VINA RESULT:      -8.6      0.000      0.000
  Name = 
  4 active torsions:
  status: ('A' for Active; 'I' for Inactive)
    1  A    between atoms: O_4  and  C_9
    2  A    between atoms: O_4  and  C_20
    3  A    between atoms: C_7  and  O_21
    4  A    between atoms: C_16  and  O_21
                            x       y       z     vdW  Elec       q    Type
                         _______ _______ _______ _____ _____    ______ ____

>  <TORSDO>
F 4

$$$$
=
 OpenBabel11052410373D

 25 29  0  0  1  0  0  0  0  0999 V2000
  162.1230  207.2750  147.6650 N   0  0  0  0  0  2  0  0  0  0  0  0
  161.5000  205.5250  152.2540 C   0  0  0  0  0  3  0  0  0  0  0  0
  161.8890  206.4740  148.8320 C   0  0  0  0  0  0  0  0  0  0  0  0
  161.8120  206.6530  146.3660 C   0  0  2  0  0  3  0  0  0  0  0  0
  160.5980  203.5710  150.3890 C   0  0  0  0  0  0  0  0  0  0  0  0
  161.3280  205.2520  148.7120 N   0  0  0  0  0  0  0  0  0  0  0  0
  162.0690  206.8140  150.1660 C   0  0  0  0  0  0  0  0  0  0  0  0
  160.5210  205.8430  146.5280 C   0  0  1  0  0  3  0  0  0  0  0  0
  161.6010  205.7250  150.8790 C   0  0  0  0  0  0  0  0  0  0  0  0
  160.4780  203.3530  151.7730 C   0  0  0  0  0  3  0  0  0  0  0  0
  162.8560  205.5710  146.0880 C   0  0  0  0  0  2  0  0  0  0  0  0
  160.9290  204.3190  152.6960 C   0  0  0  0  0  3  0  0  0  0  0  0
  161.1620  204.7830  149.9670 C   0  0  0  0  0  0  0  0  0  0  0  0
  160.0640  205.3820  145.2890 O   0  0  0  0  0  1  0  0  0  0  0  0
  162.3120  204.2880  146.7250 C   0  0  0  0  0  2  0  0  0  0  0  0
  160.9980  204.6810  147.4000 C   0  0  1  0  0  3  0  0  0  0  0  0
  162.5870  207.9930  150.7080 O   0  0  0  0  0  0  0  0  0  0  0  0
  161.7800  209.1310  150.9660 C   0  0  2  0  0  3  0  0  0  0  0  0
  162.5240  210.0810  151.8800 C   0  0  0  0  0  2  0  0  0  0  0  0
  160.1760  209.9740  152.6330 C   0  0  0  0  0  1  0  0  0  0  0  0
  161.4480  209.1760  152.4430 C   0  0  1  0  0  3  0  0  0  0  0  0
  160.1520  202.6010  149.4900 O   0  0  0  0  0  0  0  0  0  0  0  0
  161.3390  200.7290  150.1490 O   0  0  0  0  0  0  0  0  0  0  0  0
  160.8800  201.4400  149.2150 C   0  0  0  0  0  0  0  0  0  0  0  0
  161.1000  201.0540  147.8650 N   0  0  0  0  0  1  0  0  0  0  0  0
  1  3  1  0  0  0  0
  2 12  1  0  0  0  0
  3  7  2  0  0  0  0
  4 11  1  1  0  0  0
  4  8  1  0  0  0  0
  4  1  1  0  0  0  0
  5 10  1  0  0  0  0
  6  3  1  0  0  0  0
  6 13  1  0  0  0  0
  7 17  1  0  0  0  0
  7  9  1  0  0  0  0
  8 14  1  6  0  0  0
  8 16  1  0  0  0  0
  9  2  2  0  0  0  0
 10 12  2  0  0  0  0
 11 15  1  0  0  0  0
 13  5  2  0  0  0  0
 13  9  1  0  0  0  0
 16 15  1  6  0  0  0
 16  6  1  0  0  0  0
 18 17  1  1  0  0  0
 18 19  1  0  0  0  0
 18 21  1  0  0  0  0
 19 21  1  0  0  0  0
 21 20  1  6  0  0  0
 22  5  1  0  0  0  0
 24 22  1  0  0  0  0
 24 23  2  0  0  0  0
 25 24  1  0  0  0  0
M  END
>  <MODEL>
2

>  <REMARK>
 VINA RESULT:      -8.4      1.889      2.750
  Name = 
  4 active torsions:
  status: ('A' for Active; 'I' for Inactive)
    1  A    between atoms: O_4  and  C_9
    2  A    between atoms: O_4  and  C_20
    3  A    between atoms: C_7  and  O_21
    4  A    between atoms: C_16  and  O_21
                            x       y       z     vdW  Elec       q    Type
                         _______ _______ _______ _____ _____    ______ ____

>  <TORSDO>
F 4

$$$$
=
 OpenBabel11052410373D

 25 29  0  0  1  0  0  0  0  0999 V2000
  161.2270  202.4410  151.1930 N   0  0  0  0  0  2  0  0  0  0  0  0
  161.5930  207.1760  149.7930 C   0  0  0  0  0  3  0  0  0  0  0  0
  161.2140  203.6930  150.4920 C   0  0  0  0  0  0  0  0  0  0  0  0
  161.0050  201.2310  150.3830 C   0  0  2  0  0  3  0  0  0  0  0  0
  161.1550  205.5620  147.4890 C   0  0  0  0  0  0  0  0  0  0  0  0
  161.0900  203.7150  149.1480 N   0  0  0  0  0  0  0  0  0  0  0  0
  161.4180  204.9700  150.9970 C   0  0  0  0  0  0  0  0  0  0  0  0
  161.7520  201.4070  149.0570 C   0  0  1  0  0  3  0  0  0  0  0  0
  161.4000  205.7990  149.8900 C   0  0  0  0  0  0  0  0  0  0  0  0
  161.3550  206.9490  147.3670 C   0  0  0  0  0  3  0  0  0  0  0  0
  159.5410  201.2070  149.9440 C   0  0  0  0  0  2  0  0  0  0  0  0
  161.5680  207.7480  148.5100 C   0  0  0  0  0  3  0  0  0  0  0  0
  161.1910  205.0080  148.7750 C   0  0  0  0  0  0  0  0  0  0  0  0
  161.7430  200.2200  148.3180 O   0  0  0  0  0  1  0  0  0  0  0  0
  159.4840  201.9850  148.6250 C   0  0  0  0  0  2  0  0  0  0  0  0
  160.9070  202.4820  148.3710 C   0  0  1  0  0  3  0  0  0  0  0  0
  161.6190  205.3680  152.3220 O   0  0  0  0  0  0  0  0  0  0  0  0
  160.6630  206.1330  153.0390 C   0  0  2  0  0  3  0  0  0  0  0  0
  161.0760  207.5890  153.0340 C   0  0  0  0  0  2  0  0  0  0  0  0
  160.2670  207.0290  155.2990 C   0  0  0  0  0  1  0  0  0  0  0  0
  161.3280  206.7350  154.2590 C   0  0  1  0  0  3  0  0  0  0  0  0
  160.9400  204.7870  146.3470 O   0  0  0  0  0  0  0  0  0  0  0  0
  162.9680  204.3050  145.3470 O   0  0  0  0  0  0  0  0  0  0  0  0
  161.8120  204.7990  145.2560 C   0  0  0  0  0  0  0  0  0  0  0  0
  161.3870  205.3680  144.0250 N   0  0  0  0  0  1  0  0  0  0  0  0
  2  9  1  0  0  0  0
  3  7  2  0  0  0  0
  3  1  1  0  0  0  0
  4 11  1  6  0  0  0
  4  1  1  0  0  0  0
  5 13  1  0  0  0  0
  6  3  1  0  0  0  0
  7 17  1  0  0  0  0
  8 14  1  6  0  0  0
  8  4  1  0  0  0  0
  9  7  1  0  0  0  0
 10  5  2  0  0  0  0
 10 12  1  0  0  0  0
 12  2  2  0  0  0  0
 13  6  1  0  0  0  0
 13  9  2  0  0  0  0
 15 11  1  0  0  0  0
 16 15  1  1  0  0  0
 16  8  1  0  0  0  0
 16  6  1  0  0  0  0
 18 17  1  6  0  0  0
 18 21  1  0  0  0  0
 19 18  1  0  0  0  0
 19 21  1  0  0  0  0
 21 20  1  1  0  0  0
 22  5  1  0  0  0  0
 24 23  2  0  0  0  0
 24 22  1  0  0  0  0
 25 24  1  0  0  0  0
M  END
>  <MODEL>
3

>  <REMARK>
 VINA RESULT:      -7.9      1.777      4.359
  Name = 
  4 active torsions:
  status: ('A' for Active; 'I' for Inactive)
    1  A    between atoms: O_4  and  C_9
    2  A    between atoms: O_4  and  C_20
    3  A    between atoms: C_7  and  O_21
    4  A    between atoms: C_16  and  O_21
                            x       y       z     vdW  Elec       q    Type
                         _______ _______ _______ _____ _____    ______ ____

>  <TORSDO>
F 4

$$$$
=
 OpenBabel11052410373D

 25 29  0  0  1  0  0  0  0  0999 V2000
  160.9800  206.6000  147.0920 N   0  0  0  0  0  2  0  0  0  0  0  0
  160.7250  204.1080  151.3620 C   0  0  0  0  0  3  0  0  0  0  0  0
  161.0550  205.6310  148.1480 C   0  0  0  0  0  0  0  0  0  0  0  0
  161.2910  206.1190  145.7340 C   0  0  2  0  0  3  0  0  0  0  0  0
  161.4020  202.2950  149.2730 C   0  0  0  0  0  0  0  0  0  0  0  0
  161.3130  204.3370  147.8630 N   0  0  0  0  0  0  0  0  0  0  0  0
  160.7930  205.8030  149.5010 C   0  0  0  0  0  0  0  0  0  0  0  0
  160.6780  204.7230  145.5770 C   0  0  1  0  0  3  0  0  0  0  0  0
  160.9160  204.5400  150.0520 C   0  0  0  0  0  0  0  0  0  0  0  0
  161.2050  201.8360  150.5880 C   0  0  0  0  0  3  0  0  0  0  0  0
  162.7910  205.8400  145.6540 C   0  0  0  0  0  2  0  0  0  0  0  0
  160.8740  202.7350  151.6230 C   0  0  0  0  0  3  0  0  0  0  0  0
  161.2410  203.6660  149.0310 C   0  0  0  0  0  0  0  0  0  0  0  0
  160.7690  204.2850  144.2520 O   0  0  0  0  0  1  0  0  0  0  0  0
  162.9750  204.3880  146.1070 C   0  0  0  0  0  2  0  0  0  0  0  0
  161.5810  203.8900  146.4900 C   0  0  1  0  0  3  0  0  0  0  0  0
  160.4580  206.9730  150.1870 O   0  0  0  0  0  0  0  0  0  0  0  0
  161.4360  207.8980  150.6370 C   0  0  2  0  0  3  0  0  0  0  0  0
  161.9550  207.4630  151.9910 C   0  0  0  0  0  2  0  0  0  0  0  0
  161.6330  209.9100  152.0420 C   0  0  0  0  0  1  0  0  0  0  0  0
  160.9330  208.5770  151.8940 C   0  0  1  0  0  3  0  0  0  0  0  0
  161.7360  201.3920  148.2620 O   0  0  0  0  0  0  0  0  0  0  0  0
  159.6060  201.3210  147.3630 O   0  0  0  0  0  0  0  0  0  0  0  0
  160.7960  200.9060  147.3490 C   0  0  0  0  0  0  0  0  0  0  0  0
  161.1910  199.9370  146.3870 N   0  0  0  0  0  1  0  0  0  0  0  0
  1  3  1  0  0  0  0
  2 12  1  0  0  0  0
  3  7  2  0  0  0  0
  4 11  1  1  0  0  0
  4  1  1  0  0  0  0
  5 10  1  0  0  0  0
  6  3  1  0  0  0  0
  6 13  1  0  0  0  0
  7  9  1  0  0  0  0
  7 17  1  0  0  0  0
  8 14  1  6  0  0  0
  8  4  1  0  0  0  0
  8 16  1  0  0  0  0
  9  2  2  0  0  0  0
 10 12  2  0  0  0  0
 11 15  1  0  0  0  0
 13  5  2  0  0  0  0
 13  9  1  0  0  0  0
 16 15  1  6  0  0  0
 16  6  1  0  0  0  0
 18 17  1  1  0  0  0
 18 21  1  0  0  0  0
 18 19  1  0  0  0  0
 21 19  1  0  0  0  0
 21 20  1  6  0  0  0
 22  5  1  0  0  0  0
 24 23  2  0  0  0  0
 24 22  1  0  0  0  0
 25 24  1  0  0  0  0
M  END
>  <MODEL>
4

>  <REMARK>
 VINA RESULT:      -7.5      1.548      1.816
  Name = 
  4 active torsions:
  status: ('A' for Active; 'I' for Inactive)
    1  A    between atoms: O_4  and  C_9
    2  A    between atoms: O_4  and  C_20
    3  A    between atoms: C_7  and  O_21
    4  A    between atoms: C_16  and  O_21
                            x       y       z     vdW  Elec       q    Type
                         _______ _______ _______ _____ _____    ______ ____

>  <TORSDO>
F 4

$$$$
=
 OpenBabel11052410373D

 25 29  0  0  1  0  0  0  0  0999 V2000
  161.3220  203.6580  147.0660 N   0  0  0  0  0  2  0  0  0  0  0  0
  160.9470  205.7490  151.5370 C   0  0  0  0  0  3  0  0  0  0  0  0
  161.2100  204.5530  148.1820 C   0  0  0  0  0  0  0  0  0  0  0  0
  161.6140  204.2710  145.7580 C   0  0  2  0  0  3  0  0  0  0  0  0
  161.5370  207.7690  149.6190 C   0  0  0  0  0  0  0  0  0  0  0  0
  161.4540  205.8710  148.0200 N   0  0  0  0  0  0  0  0  0  0  0  0
  160.9680  204.2490  149.5150 C   0  0  0  0  0  0  0  0  0  0  0  0
  162.6320  205.3960  145.9800 C   0  0  1  0  0  3  0  0  0  0  0  0
  161.0600  205.4580  150.1800 C   0  0  0  0  0  0  0  0  0  0  0  0
  161.4350  208.0840  150.9870 C   0  0  0  0  0  3  0  0  0  0  0  0
  160.3710  205.0290  145.2920 C   0  0  0  0  0  2  0  0  0  0  0  0
  161.1390  207.0830  151.9360 C   0  0  0  0  0  3  0  0  0  0  0  0
  161.3490  206.4330  149.2430 C   0  0  0  0  0  0  0  0  0  0  0  0
  163.0980  205.8940  144.7600 O   0  0  0  0  0  1  0  0  0  0  0  0
  160.4960  206.4410  145.8730 C   0  0  0  0  0  2  0  0  0  0  0  0
  161.7780  206.4380  146.7050 C   0  0  1  0  0  3  0  0  0  0  0  0
  160.7040  203.0060  150.0960 O   0  0  0  0  0  0  0  0  0  0  0  0
  160.3380  201.8700  149.3290 C   0  0  2  0  0  3  0  0  0  0  0  0
  160.6220  200.6120  150.1220 C   0  0  0  0  0  2  0  0  0  0  0  0
  161.3320  200.2250  147.7890 C   0  0  0  0  0  1  0  0  0  0  0  0
  161.5780  201.0530  149.0330 C   0  0  1  0  0  3  0  0  0  0  0  0
  161.8240  208.7740  148.6930 O   0  0  0  0  0  0  0  0  0  0  0  0
  162.2550  210.4350  150.2430 O   0  0  0  0  0  0  0  0  0  0  0  0
  161.9630  210.1150  149.0590 C   0  0  0  0  0  0  0  0  0  0  0  0
  161.7810  211.1300  148.0810 N   0  0  0  0  0  1  0  0  0  0  0  0
  1  3  1  0  0  0  0
  2 12  1  0  0  0  0
  3  7  2  0  0  0  0
  4 11  1  1  0  0  0
  4  8  1  0  0  0  0
  4  1  1  0  0  0  0
  5 10  1  0  0  0  0
  6  3  1  0  0  0  0
  6 13  1  0  0  0  0
  7 17  1  0  0  0  0
  7  9  1  0  0  0  0
  8 14  1  6  0  0  0
  8 16  1  0  0  0  0
  9  2  2  0  0  0  0
 10 12  2  0  0  0  0
 11 15  1  0  0  0  0
 13  5  2  0  0  0  0
 13  9  1  0  0  0  0
 16 15  1  6  0  0  0
 16  6  1  0  0  0  0
 18 17  1  1  0  0  0
 18 19  1  0  0  0  0
 21 20  1  6  0  0  0
 21 18  1  0  0  0  0
 21 19  1  0  0  0  0
 22 24  1  0  0  0  0
 22  5  1  0  0  0  0
 24 23  2  0  0  0  0
 25 24  1  0  0  0  0
M  END
>  <MODEL>
5

>  <REMARK>
 VINA RESULT:      -7.4      2.255      5.849
  Name = 
  4 active torsions:
  status: ('A' for Active; 'I' for Inactive)
    1  A    between atoms: O_4  and  C_9
    2  A    between atoms: O_4  and  C_20
    3  A    between atoms: C_7  and  O_21
    4  A    between atoms: C_16  and  O_21
                            x       y       z     vdW  Elec       q    Type
                         _______ _______ _______ _____ _____    ______ ____

>  <TORSDO>
F 4

$$$$
=
 OpenBabel11052410373D

 25 29  0  0  1  0  0  0  0  0999 V2000
  160.7100  206.8730  155.5330 N   0  0  0  0  0  2  0  0  0  0  0  0
  161.8590  207.3450  150.7410 C   0  0  0  0  0  3  0  0  0  0  0  0
  161.0790  207.3380  154.2260 C   0  0  0  0  0  0  0  0  0  0  0  0
  160.4040  207.9070  156.5380 C   0  0  2  0  0  3  0  0  0  0  0  0
  161.4460  209.9340  151.8510 C   0  0  0  0  0  0  0  0  0  0  0  0
  161.0510  208.6580  153.9450 N   0  0  0  0  0  0  0  0  0  0  0  0
  161.3900  206.5920  153.0980 C   0  0  0  0  0  0  0  0  0  0  0  0
  159.6210  209.0250  155.8410 C   0  0  1  0  0  3  0  0  0  0  0  0
  161.5700  207.5240  152.0920 C   0  0  0  0  0  0  0  0  0  0  0  0
  161.7290  209.7760  150.4820 C   0  0  0  0  0  3  0  0  0  0  0  0
  161.7090  208.6020  156.9260 C   0  0  0  0  0  2  0  0  0  0  0  0
  161.9370  208.4930  149.9340 C   0  0  0  0  0  3  0  0  0  0  0  0
  161.3650  208.7780  152.6380 C   0  0  0  0  0  0  0  0  0  0  0  0
  159.1330  209.9460  156.7730 O   0  0  0  0  0  1  0  0  0  0  0  0
  161.8850  209.7550  155.9320 C   0  0  0  0  0  2  0  0  0  0  0  0
  160.7050  209.6560  154.9650 C   0  0  1  0  0  3  0  0  0  0  0  0
  161.4900  205.2050  152.9640 O   0  0  0  0  0  0  0  0  0  0  0  0
  160.6830  204.4670  152.0590 C   0  0  2  0  0  3  0  0  0  0  0  0
  161.0420  202.9990  152.1450 C   0  0  0  0  0  2  0  0  0  0  0  0
  160.7420  203.5780  149.7640 C   0  0  0  0  0  1  0  0  0  0  0  0
  161.5700  203.8420  151.0030 C   0  0  1  0  0  3  0  0  0  0  0  0
  161.2490  211.2120  152.3780 O   0  0  0  0  0  0  0  0  0  0  0  0
  160.1180  213.0160  151.4760 O   0  0  0  0  0  0  0  0  0  0  0  0
  160.0840  211.9490  152.1450 C   0  0  0  0  0  0  0  0  0  0  0  0
  158.8450  211.4820  152.6630 N   0  0  0  0  0  1  0  0  0  0  0  0
  1  4  1  0  0  0  0
  2  9  1  0  0  0  0
  3  1  1  0  0  0  0
  4 11  1  6  0  0  0
  5 22  1  0  0  0  0
  5 13  1  0  0  0  0
  6  3  1  0  0  0  0
  6 16  1  0  0  0  0
  7  3  2  0  0  0  0
  8  4  1  0  0  0  0
  8 14  1  1  0  0  0
  9 13  2  0  0  0  0
  9  7  1  0  0  0  0
 10  5  2  0  0  0  0
 12 10  1  0  0  0  0
 12  2  2  0  0  0  0
 13  6  1  0  0  0  0
 15 11  1  0  0  0  0
 16  8  1  0  0  0  0
 16 15  1  1  0  0  0
 17  7  1  0  0  0  0
 18 19  1  0  0  0  0
 18 17  1  1  0  0  0
 21 20  1  6  0  0  0
 21 18  1  0  0  0  0
 21 19  1  0  0  0  0
 23 24  2  0  0  0  0
 24 22  1  0  0  0  0
 24 25  1  0  0  0  0
M  END
>  <MODEL>
6

>  <REMARK>
 VINA RESULT:      -7.3      4.625      8.486
  Name = 
  4 active torsions:
  status: ('A' for Active; 'I' for Inactive)
    1  A    between atoms: O_4  and  C_9
    2  A    between atoms: O_4  and  C_20
    3  A    between atoms: C_7  and  O_21
    4  A    between atoms: C_16  and  O_21
                            x       y       z     vdW  Elec       q    Type
                         _______ _______ _______ _____ _____    ______ ____

>  <TORSDO>
F 4

$$$$
=
 OpenBabel11052410373D

 25 29  0  0  1  0  0  0  0  0999 V2000
  160.6990  207.9810  154.1090 N   0  0  0  0  0  2  0  0  0  0  0  0
  162.0600  206.7230  149.5180 C   0  0  0  0  0  3  0  0  0  0  0  0
  161.1700  207.9470  152.7530 C   0  0  0  0  0  0  0  0  0  0  0  0
  160.4990  209.3140  154.7030 C   0  0  2  0  0  3  0  0  0  0  0  0
  161.9550  209.5620  149.7050 C   0  0  0  0  0  0  0  0  0  0  0  0
  161.3250  209.0960  152.0620 N   0  0  0  0  0  0  0  0  0  0  0  0
  161.4170  206.8420  151.9500 C   0  0  0  0  0  0  0  0  0  0  0  0
  159.8940  210.2240  153.6280 C   0  0  1  0  0  3  0  0  0  0  0  0
  161.7520  207.3660  150.7150 C   0  0  0  0  0  0  0  0  0  0  0  0
  162.2600  208.9320  148.4850 C   0  0  0  0  0  3  0  0  0  0  0  0
  161.8710  209.9440  154.9440 C   0  0  0  0  0  2  0  0  0  0  0  0
  162.3160  207.5260  148.3940 C   0  0  0  0  0  3  0  0  0  0  0  0
  161.6960  208.7440  150.8130 C   0  0  0  0  0  0  0  0  0  0  0  0
  159.5010  211.4490  154.1760 O   0  0  0  0  0  1  0  0  0  0  0  0
  162.2300  210.6810  153.6490 C   0  0  0  0  0  2  0  0  0  0  0  0
  161.0800  210.4060  152.6800 C   0  0  1  0  0  3  0  0  0  0  0  0
  161.3380  205.4850  152.2770 O   0  0  0  0  0  0  0  0  0  0  0  0
  160.5850  204.5610  151.5080 C   0  0  2  0  0  3  0  0  0  0  0  0
  160.8320  203.1580  152.0210 C   0  0  0  0  0  2  0  0  0  0  0  0
  160.8300  203.0830  149.5530 C   0  0  0  0  0  1  0  0  0  0  0  0
  161.5360  203.6420  150.7700 C   0  0  1  0  0  3  0  0  0  0  0  0
  161.9100  210.9550  149.7780 O   0  0  0  0  0  0  0  0  0  0  0  0
  163.1250  212.2050  148.2590 O   0  0  0  0  0  0  0  0  0  0  0  0
  162.0080  211.7700  148.6470 C   0  0  0  0  0  0  0  0  0  0  0  0
  160.8320  212.1040  147.9210 N   0  0  0  0  0  1  0  0  0  0  0  0
  1  4  1  0  0  0  0
  2  9  1  0  0  0  0
  3  1  1  0  0  0  0
  4 11  1  6  0  0  0
  5 22  1  0  0  0  0
  5 13  1  0  0  0  0
  6 16  1  0  0  0  0
  6  3  1  0  0  0  0
  7 17  1  0  0  0  0
  7  3  2  0  0  0  0
  8 14  1  1  0  0  0
  8  4  1  0  0  0  0
  9 13  2  0  0  0  0
  9  7  1  0  0  0  0
 10  5  2  0  0  0  0
 12 10  1  0  0  0  0
 12  2  2  0  0  0  0
 13  6  1  0  0  0  0
 15 11  1  0  0  0  0
 16  8  1  0  0  0  0
 16 15  1  1  0  0  0
 18 19  1  0  0  0  0
 18 17  1  1  0  0  0
 21 20  1  6  0  0  0
 21 18  1  0  0  0  0
 21 19  1  0  0  0  0
 23 24  2  0  0  0  0
 24 22  1  0  0  0  0
 25 24  1  0  0  0  0
M  END
>  <MODEL>
7

>  <REMARK>
 VINA RESULT:      -7.0      4.039      7.432
  Name = 
  4 active torsions:
  status: ('A' for Active; 'I' for Inactive)
    1  A    between atoms: O_4  and  C_9
    2  A    between atoms: O_4  and  C_20
    3  A    between atoms: C_7  and  O_21
    4  A    between atoms: C_16  and  O_21
                            x       y       z     vdW  Elec       q    Type
                         _______ _______ _______ _____ _____    ______ ____

>  <TORSDO>
F 4

$$$$
=
 OpenBabel11052410373D

 25 29  0  0  1  0  0  0  0  0999 V2000
  161.3330  202.2370  147.3160 N   0  0  0  0  0  2  0  0  0  0  0  0
  162.2030  207.0770  147.8860 C   0  0  0  0  0  3  0  0  0  0  0  0
  161.5190  203.5720  147.8080 C   0  0  0  0  0  0  0  0  0  0  0  0
  160.7380  201.2670  148.2520 C   0  0  2  0  0  3  0  0  0  0  0  0
  161.0240  206.0630  150.2710 C   0  0  0  0  0  0  0  0  0  0  0  0
  161.0770  203.9070  149.0390 N   0  0  0  0  0  0  0  0  0  0  0  0
  162.0280  204.6780  147.1400 C   0  0  0  0  0  0  0  0  0  0  0  0
  159.6350  201.9860  149.0370 C   0  0  1  0  0  3  0  0  0  0  0  0
  161.8940  205.7270  148.0320 C   0  0  0  0  0  0  0  0  0  0  0  0
  161.3200  207.4320  150.1410 C   0  0  0  0  0  3  0  0  0  0  0  0
  161.7680  200.9480  149.3340 C   0  0  0  0  0  2  0  0  0  0  0  0
  161.9080  207.9330  148.9610 C   0  0  0  0  0  3  0  0  0  0  0  0
  161.3180  205.2270  149.1850 C   0  0  0  0  0  0  0  0  0  0  0  0
  158.9000  201.0790  149.8070 O   0  0  0  0  0  1  0  0  0  0  0  0
  161.5610  201.9930  150.4360 C   0  0  0  0  0  2  0  0  0  0  0  0
  160.4550  202.9190  149.9290 C   0  0  1  0  0  3  0  0  0  0  0  0
  162.5520  204.7570  145.8470 O   0  0  0  0  0  0  0  0  0  0  0  0
  161.8410  204.2950  144.7090 C   0  0  2  0  0  3  0  0  0  0  0  0
  161.2060  205.4720  144.0000 C   0  0  0  0  0  2  0  0  0  0  0  0
  159.5680  203.6260  144.0410 C   0  0  0  0  0  1  0  0  0  0  0  0
  160.3670  204.5860  144.8970 C   0  0  1  0  0  3  0  0  0  0  0  0
  160.4480  205.5840  151.4490 O   0  0  0  0  0  0  0  0  0  0  0  0
  161.2060  204.1810  153.1230 O   0  0  0  0  0  0  0  0  0  0  0  0
  161.1960  205.3280  152.6000 C   0  0  0  0  0  0  0  0  0  0  0  0
  161.9630  206.3730  153.1840 N   0  0  0  0  0  1  0  0  0  0  0  0
  1  3  1  0  0  0  0
  1  4  1  0  0  0  0
  2  9  2  0  0  0  0
  2 12  1  0  0  0  0
  3  6  1  0  0  0  0
  4  8  1  0  0  0  0
  4 11  1  1  0  0  0
  5 22  1  0  0  0  0
  6 13  1  0  0  0  0
  6 16  1  0  0  0  0
  7  3  2  0  0  0  0
  7  9  1  0  0  0  0
  8 14  1  1  0  0  0
  8 16  1  0  0  0  0
  9 13  1  0  0  0  0
 10  5  1  0  0  0  0
 11 15  1  0  0  0  0
 12 10  2  0  0  0  0
 13  5  2  0  0  0  0
 16 15  1  6  0  0  0
 17  7  1  0  0  0  0
 18 21  1  0  0  0  0
 18 17  1  1  0  0  0
 19 18  1  0  0  0  0
 19 21  1  0  0  0  0
 21 20  1  6  0  0  0
 22 24  1  0  0  0  0
 24 23  2  0  0  0  0
 24 25  1  0  0  0  0
M  END
>  <MODEL>
8

>  <REMARK>
 VINA RESULT:      -6.7      2.063      6.443
  Name = 
  4 active torsions:
  status: ('A' for Active; 'I' for Inactive)
    1  A    between atoms: O_4  and  C_9
    2  A    between atoms: O_4  and  C_20
    3  A    between atoms: C_7  and  O_21
    4  A    between atoms: C_16  and  O_21
                            x       y       z     vdW  Elec       q    Type
                         _______ _______ _______ _____ _____    ______ ____

>  <TORSDO>
F 4

$$$$
=
 OpenBabel11052410373D

 25 29  0  0  1  0  0  0  0  0999 V2000
  161.8910  204.5860  146.7380 N   0  0  0  0  0  2  0  0  0  0  0  0
  161.0260  201.7200  150.6810 C   0  0  0  0  0  3  0  0  0  0  0  0
  161.5320  204.0470  148.0190 C   0  0  0  0  0  0  0  0  0  0  0  0
  161.9040  206.0550  146.6220 C   0  0  2  0  0  3  0  0  0  0  0  0
  160.8190  204.4510  151.4610 C   0  0  0  0  0  0  0  0  0  0  0  0
  161.3110  204.8740  149.0630 N   0  0  0  0  0  0  0  0  0  0  0  0
  161.4640  202.7170  148.4100 C   0  0  0  0  0  0  0  0  0  0  0  0
  162.4920  206.6250  147.9180 C   0  0  1  0  0  3  0  0  0  0  0  0
  161.1720  202.7560  149.7620 C   0  0  0  0  0  0  0  0  0  0  0  0
  160.6770  203.4200  152.4070 C   0  0  0  0  0  3  0  0  0  0  0  0
  160.4600  206.5540  146.6600 C   0  0  0  0  0  2  0  0  0  0  0  0
  160.7750  202.0680  152.0190 C   0  0  0  0  0  3  0  0  0  0  0  0
  161.0770  204.0850  150.1320 C   0  0  0  0  0  0  0  0  0  0  0  0
  162.7110  208.0010  147.8020 O   0  0  0  0  0  1  0  0  0  0  0  0
  160.1270  206.7690  148.1400 C   0  0  0  0  0  2  0  0  0  0  0  0
  161.3700  206.3340  148.9160 C   0  0  1  0  0  3  0  0  0  0  0  0
  161.6590  201.5660  147.6420 O   0  0  0  0  0  0  0  0  0  0  0  0
  160.6080  200.9520  146.9120 C   0  0  2  0  0  3  0  0  0  0  0  0
  161.1930  199.9940  145.8960 C   0  0  0  0  0  2  0  0  0  0  0  0
  159.3470  201.2270  144.8140 C   0  0  0  0  0  1  0  0  0  0  0  0
  160.7110  201.3620  145.4580 C   0  0  1  0  0  3  0  0  0  0  0  0
  160.7130  205.7840  151.8610 O   0  0  0  0  0  0  0  0  0  0  0  0
  162.8930  206.5240  152.0700 O   0  0  0  0  0  0  0  0  0  0  0  0
  161.7320  206.4440  152.5530 C   0  0  0  0  0  0  0  0  0  0  0  0
  161.4510  207.0400  153.8120 N   0  0  0  0  0  1  0  0  0  0  0  0
  1  3  1  0  0  0  0
  2 12  1  0  0  0  0
  3  7  2  0  0  0  0
  3  6  1  0  0  0  0
  4 11  1  1  0  0  0
  4  1  1  0  0  0  0
  4  8  1  0  0  0  0
  5 22  1  0  0  0  0
  5 10  1  0  0  0  0
  6 13  1  0  0  0  0
  7  9  1  0  0  0  0
  8 14  1  6  0  0  0
  8 16  1  0  0  0  0
  9 13  1  0  0  0  0
  9  2  2  0  0  0  0
 11 15  1  0  0  0  0
 12 10  2  0  0  0  0
 13  5  2  0  0  0  0
 16 15  1  6  0  0  0
 16  6  1  0  0  0  0
 17  7  1  0  0  0  0
 18 17  1  1  0  0  0
 19 18  1  0  0  0  0
 21 20  1  6  0  0  0
 21 19  1  0  0  0  0
 21 18  1  0  0  0  0
 22 24  1  0  0  0  0
 23 24  2  0  0  0  0
 24 25  1  0  0  0  0
M  END
>  <MODEL>
9

>  <REMARK>
 VINA RESULT:      -6.4      1.673      5.755
  Name = 
  4 active torsions:
  status: ('A' for Active; 'I' for Inactive)
    1  A    between atoms: O_4  and  C_9
    2  A    between atoms: O_4  and  C_20
    3  A    between atoms: C_7  and  O_21
    4  A    between atoms: C_16  and  O_21
                            x       y       z     vdW  Elec       q    Type
                         _______ _______ _______ _____ _____    ______ ____

>  <TORSDO>
F 4

$$$$
