=
 OpenBabel11042420333D

 49 54  0  0  1  0  0  0  0  0999 V2000
  161.7090  209.6660  151.1940 C   0  0  2  0  0  3  0  0  0  0  0  0
  161.8570  210.9310  150.3470 C   0  0  0  0  0  2  0  0  0  0  0  0
  162.3090  209.4220  148.4060 C   0  0  0  0  0  3  0  0  0  0  0  0
  162.3220  210.6580  148.9340 C   0  0  0  0  0  0  0  0  0  0  0  0
  161.0430  208.5630  150.3790 C   0  0  0  0  0  2  0  0  0  0  0  0
  161.9520  208.1920  149.2060 C   0  0  1  0  0  3  0  0  0  0  0  0
  161.1140  204.1430  147.9340 C   0  0  2  0  0  3  0  0  0  0  0  0
  160.2930  206.2520  149.0460 C   0  0  0  0  0  2  0  0  0  0  0  0
  161.7990  205.0770  146.9210 C   0  0  0  0  0  2  0  0  0  0  0  0
  162.3990  206.3140  147.5830 C   0  0  0  0  0  2  0  0  0  0  0  0
  161.3130  207.1370  148.2950 C   0  0  2  0  0  3  0  0  0  0  0  0
  160.7930  204.8280  149.2660 C   0  0  0  0  0  2  0  0  0  0  0  0
  161.9670  202.9100  148.2090 C   0  0  0  0  0  2  0  0  0  0  0  0
  160.3170  201.8260  146.8420 O   0  0  0  0  0  1  0  0  0  0  0  0
  161.2300  201.6110  147.8750 C   0  0  2  0  0  3  0  0  0  0  0  0
  160.5020  201.0400  149.0900 C   0  0  1  0  0  3  0  0  0  0  0  0
  161.2150  201.4070  150.3790 C   0  0  0  0  0  1  0  0  0  0  0  0
  159.1830  201.4890  149.1330 O   0  0  0  0  0  1  0  0  0  0  0  0
  160.9300  209.9510  152.3150 O   0  0  0  0  0  0  0  0  0  0  0  0
  162.4280  208.2870  152.8410 O   0  0  0  0  0  1  0  0  0  0  0  0
  161.3540  209.0490  153.2920 C   0  0  2  0  0  3  0  0  0  0  0  0
  159.9510  210.1020  155.7670 C   0  0  0  0  0  0  0  0  0  0  0  0
  159.4730  208.7780  155.1860 C   0  0  2  0  0  3  0  0  0  0  0  0
  160.8770  210.1150  156.7380 C   0  0  0  0  0  3  0  0  0  0  0  0
  160.4330  207.5850  155.3600 C   0  0  1  0  0  3  0  0  0  0  0  0
  161.4760  208.8550  157.2600 C   0  0  0  0  0  2  0  0  0  0  0  0
  160.2280  208.2120  153.9670 C   0  0  2  0  0  3  0  0  0  0  0  0
  161.7370  207.9160  156.0990 C   0  0  0  0  0  2  0  0  0  0  0  0
  158.0070  213.2160  153.1990 N   0  0  0  0  0  0  0  0  0  0  0  0
  157.4390  213.0250  155.6620 C   0  0  0  0  0  2  0  0  0  0  0  0
  155.8000  213.0380  153.9520 O   0  0  0  0  0  0  0  0  0  0  0  0
  159.4110  213.0020  153.3980 C   0  0  0  0  0  3  0  0  0  0  0  0
  159.2840  211.3640  155.3410 C   0  0  0  0  0  0  0  0  0  0  0  0
  157.0260  213.0820  154.2350 C   0  0  0  0  0  0  0  0  0  0  0  0
  158.1430  211.7430  155.9350 C   0  0  0  0  0  3  0  0  0  0  0  0
  159.9600  212.1960  154.3180 C   0  0  0  0  0  3  0  0  0  0  0  0
  158.1530  212.8880  150.8980 O   0  0  0  0  0  1  0  0  0  0  0  0
  157.5930  213.6930  151.8900 C   0  0  0  0  0  2  0  0  0  0  0  0
  162.6530  211.8250  148.0590 C   0  0  0  0  0  2  0  0  0  0  0  0
  160.8070  213.4350  145.8170 C   0  0  2  0  0  3  0  0  0  0  0  0
  161.7320  213.8460  146.9300 C   0  0  0  0  0  2  0  0  0  0  0  0
  160.1410  212.2070  146.2330 N   0  0  0  0  0  2  0  0  0  0  0  0
  160.2690  212.1130  147.6320 N   0  0  0  0  0  2  0  0  0  0  0  0
  161.4900  212.8140  148.0000 C   0  0  1  0  0  3  0  0  0  0  0  0
  161.5830  213.2120  144.5600 C   0  0  0  0  0  0  0  0  0  0  0  0
  163.1530  213.6880  144.5030 S   0  0  0  0  0  0  0  0  0  0  0  0
  161.0000  212.4690  143.4850 N   0  0  0  0  0  2  0  0  0  0  0  0
  161.0520  211.3670  141.4830 C   0  0  0  0  0  1  0  0  0  0  0  0
  161.4740  212.5710  142.1710 N   0  0  0  0  0  2  0  0  0  0  0  0
  1 19  1  1  0  0  0
  2  1  1  0  0  0  0
  3  4  2  0  0  0  0
  4  2  1  0  0  0  0
  5  1  1  0  0  0  0
  6  3  1  6  0  0  0
  6  5  1  0  0  0  0
  7 13  1  1  0  0  0
  7 12  1  0  0  0  0
  8 12  1  0  0  0  0
  9 10  1  0  0  0  0
  9  7  1  0  0  0  0
 11 10  1  1  0  0  0
 11  8  1  0  0  0  0
 11  6  1  0  0  0  0
 15 14  1  6  0  0  0
 15 13  1  0  0  0  0
 15 16  1  0  0  0  0
 16 18  1  0  0  0  0
 16 17  1  1  0  0  0
 19 21  1  0  0  0  0
 21 20  1  6  0  0  0
 22 24  2  0  0  0  0
 23 25  1  0  0  0  0
 23 22  1  1  0  0  0
 24 26  1  0  0  0  0
 25 28  1  1  0  0  0
 27 21  1  1  0  0  0
 27 23  1  0  0  0  0
 27 25  1  0  0  0  0
 28 26  1  0  0  0  0
 29 32  1  0  0  0  0
 29 34  1  0  0  0  0
 30 35  1  0  0  0  0
 31 34  2  0  0  0  0
 32 36  2  0  0  0  0
 33 22  1  0  0  0  0
 33 35  2  0  0  0  0
 34 30  1  0  0  0  0
 36 33  1  0  0  0  0
 37 38  1  0  0  0  0
 38 29  1  0  0  0  0
 39  4  1  0  0  0  0
 40 45  1  6  0  0  0
 40 42  1  0  0  0  0
 40 41  1  0  0  0  0
 41 44  1  0  0  0  0
 42 43  1  0  0  0  0
 43 44  1  0  0  0  0
 44 39  1  6  0  0  0
 46 45  2  0  0  0  0
 47 45  1  0  0  0  0
 48 49  1  0  0  0  0
 49 47  1  0  0  0  0
M  END
>  <MODEL>
1

>  <REMARK>
 VINA RESULT:      -6.8      0.000      0.000
  Name = 
  14 active torsions:
  status: ('A' for Active; 'I' for Inactive)
    1  A    between atoms: C_1  and  O_22
    2  A    between atoms: C_3  and  C_9
    3  A    between atoms: C_4  and  C_47
    4  A    between atoms: C_5  and  C_28
    5  A    between atoms: C_8  and  C_18
    6  A    between atoms: C_9  and  N_48
    7  A    between atoms: N_12  and  C_42
    8  A    between atoms: C_15  and  C_25
    9  A    between atoms: C_18  and  C_47
   10  A    between atoms: O_22  and  C_38
   11  A    between atoms: C_25  and  C_45
   12  A    between atoms: C_34  and  C_49
   13  A    between atoms: C_37  and  C_38
   14  A    between atoms: N_41  and  N_48
                            x       y       z     vdW  Elec       q    Type
                         _______ _______ _______ _____ _____    ______ ____

>  <TORSDO>
F 14

$$$$
=
 OpenBabel11042420333D

 49 54  0  0  1  0  0  0  0  0999 V2000
  161.7870  209.9860  149.6010 C   0  0  2  0  0  3  0  0  0  0  0  0
  162.3510  210.8260  148.4530 C   0  0  0  0  0  2  0  0  0  0  0  0
  160.8180  212.6510  149.2060 C   0  0  0  0  0  3  0  0  0  0  0  0
  161.6430  212.1490  148.2710 C   0  0  0  0  0  0  0  0  0  0  0  0
  161.5140  210.8710  150.8120 C   0  0  0  0  0  2  0  0  0  0  0  0
  160.4310  211.8900  150.4520 C   0  0  1  0  0  3  0  0  0  0  0  0
  158.1450  213.4260  153.7870 C   0  0  2  0  0  3  0  0  0  0  0  0
  160.1770  212.1700  152.9810 C   0  0  0  0  0  2  0  0  0  0  0  0
  158.4030  214.3780  152.6060 C   0  0  0  0  0  2  0  0  0  0  0  0
  158.8500  213.6380  151.3490 C   0  0  0  0  0  2  0  0  0  0  0  0
  160.1550  212.8660  151.6020 C   0  0  2  0  0  3  0  0  0  0  0  0
  158.7900  212.0490  153.6050 C   0  0  0  0  0  2  0  0  0  0  0  0
  156.6510  213.2390  154.0260 C   0  0  0  0  0  2  0  0  0  0  0  0
  157.2760  214.4500  156.0020 O   0  0  0  0  0  1  0  0  0  0  0  0
  156.1910  213.8740  155.3410 C   0  0  2  0  0  3  0  0  0  0  0  0
  155.5130  212.8590  156.2570 C   0  0  1  0  0  3  0  0  0  0  0  0
  156.5300  211.9270  156.8920 C   0  0  0  0  0  1  0  0  0  0  0  0
  154.7760  213.5040  157.2510 O   0  0  0  0  0  1  0  0  0  0  0  0
  162.7080  208.9980  149.9450 O   0  0  0  0  0  0  0  0  0  0  0  0
  162.9930  207.8790  147.9570 O   0  0  0  0  0  1  0  0  0  0  0  0
  162.3450  207.8820  149.1890 C   0  0  2  0  0  3  0  0  0  0  0  0
  161.0420  205.9170  151.0960 C   0  0  0  0  0  0  0  0  0  0  0  0
  160.1460  206.6510  150.1080 C   0  0  2  0  0  3  0  0  0  0  0  0
  161.5420  204.7120  150.7830 C   0  0  0  0  0  3  0  0  0  0  0  0
  160.2890  206.2290  148.6320 C   0  0  1  0  0  3  0  0  0  0  0  0
  161.2610  204.0690  149.4680 C   0  0  0  0  0  2  0  0  0  0  0  0
  160.8160  207.6010  149.0960 C   0  0  2  0  0  3  0  0  0  0  0  0
  161.3240  205.1230  148.3820 C   0  0  0  0  0  2  0  0  0  0  0  0
  160.5140  208.4460  154.7560 N   0  0  0  0  0  0  0  0  0  0  0  0
  161.5020  206.1180  154.9190 C   0  0  0  0  0  2  0  0  0  0  0  0
  159.6700  206.8430  156.2350 O   0  0  0  0  0  0  0  0  0  0  0  0
  161.2310  208.7820  153.5600 C   0  0  0  0  0  3  0  0  0  0  0  0
  161.2430  206.4880  152.4570 C   0  0  0  0  0  0  0  0  0  0  0  0
  160.5050  207.1370  155.3390 C   0  0  0  0  0  0  0  0  0  0  0  0
  161.2210  205.6780  153.5260 C   0  0  0  0  0  3  0  0  0  0  0  0
  161.5380  207.9370  152.5650 C   0  0  0  0  0  3  0  0  0  0  0  0
  160.7930  210.3190  156.1120 O   0  0  0  0  0  1  0  0  0  0  0  0
  159.8480  209.5350  155.4500 C   0  0  0  0  0  2  0  0  0  0  0  0
  162.0020  212.9870  147.0850 C   0  0  0  0  0  2  0  0  0  0  0  0
  160.9490  213.3050  143.9520 C   0  0  2  0  0  3  0  0  0  0  0  0
  161.1330  214.2410  145.1160 C   0  0  0  0  0  2  0  0  0  0  0  0
  160.5520  212.0100  144.4900 N   0  0  0  0  0  2  0  0  0  0  0  0
  160.0750  212.2270  145.7980 N   0  0  0  0  0  2  0  0  0  0  0  0
  160.7540  213.4080  146.3120 C   0  0  1  0  0  3  0  0  0  0  0  0
  162.2250  213.1840  143.1830 C   0  0  0  0  0  0  0  0  0  0  0  0
  163.5050  214.1130  143.6230 S   0  0  0  0  0  0  0  0  0  0  0  0
  162.3590  212.1750  142.1790 N   0  0  0  0  0  2  0  0  0  0  0  0
  162.4870  211.2490  140.0920 C   0  0  0  0  0  1  0  0  0  0  0  0
  162.0880  212.4330  140.8290 N   0  0  0  0  0  2  0  0  0  0  0  0
  1 19  1  1  0  0  0
  1  5  1  0  0  0  0
  2  1  1  0  0  0  0
  4  2  1  0  0  0  0
  4  3  2  0  0  0  0
  6  3  1  6  0  0  0
  6  5  1  0  0  0  0
  6 11  1  0  0  0  0
  7 13  1  6  0  0  0
  8 12  1  0  0  0  0
  9  7  1  0  0  0  0
 10  9  1  0  0  0  0
 11 10  1  6  0  0  0
 11  8  1  0  0  0  0
 12  7  1  0  0  0  0
 13 15  1  0  0  0  0
 15 14  1  1  0  0  0
 15 16  1  0  0  0  0
 16 17  1  1  0  0  0
 16 18  1  0  0  0  0
 21 20  1  6  0  0  0
 21 19  1  0  0  0  0
 22 33  1  0  0  0  0
 23 22  1  1  0  0  0
 24 22  2  0  0  0  0
 25 28  1  1  0  0  0
 25 27  1  0  0  0  0
 25 23  1  0  0  0  0
 26 24  1  0  0  0  0
 27 21  1  1  0  0  0
 27 23  1  0  0  0  0
 28 26  1  0  0  0  0
 29 34  1  0  0  0  0
 29 38  1  0  0  0  0
 30 34  1  0  0  0  0
 32 29  1  0  0  0  0
 33 36  1  0  0  0  0
 33 35  2  0  0  0  0
 34 31  2  0  0  0  0
 35 30  1  0  0  0  0
 36 32  2  0  0  0  0
 38 37  1  0  0  0  0
 39  4  1  0  0  0  0
 40 45  1  1  0  0  0
 40 42  1  0  0  0  0
 40 41  1  0  0  0  0
 41 44  1  0  0  0  0
 42 43  1  0  0  0  0
 43 44  1  0  0  0  0
 44 39  1  6  0  0  0
 45 46  2  0  0  0  0
 47 45  1  0  0  0  0
 48 49  1  0  0  0  0
 49 47  1  0  0  0  0
M  END
>  <MODEL>
2

>  <REMARK>
 VINA RESULT:      -6.1      2.390      7.407
  Name = 
  14 active torsions:
  status: ('A' for Active; 'I' for Inactive)
    1  A    between atoms: C_1  and  O_22
    2  A    between atoms: C_3  and  C_9
    3  A    between atoms: C_4  and  C_47
    4  A    between atoms: C_5  and  C_28
    5  A    between atoms: C_8  and  C_18
    6  A    between atoms: C_9  and  N_48
    7  A    between atoms: N_12  and  C_42
    8  A    between atoms: C_15  and  C_25
    9  A    between atoms: C_18  and  C_47
   10  A    between atoms: O_22  and  C_38
   11  A    between atoms: C_25  and  C_45
   12  A    between atoms: C_34  and  C_49
   13  A    between atoms: C_37  and  C_38
   14  A    between atoms: N_41  and  N_48
                            x       y       z     vdW  Elec       q    Type
                         _______ _______ _______ _____ _____    ______ ____

>  <TORSDO>
F 14

$$$$
=
 OpenBabel11042420333D

 49 54  0  0  1  0  0  0  0  0999 V2000
  161.1450  208.9650  151.6760 C   0  0  2  0  0  3  0  0  0  0  0  0
  161.0630  210.4250  151.2270 C   0  0  0  0  0  2  0  0  0  0  0  0
  162.1250  209.6910  149.0860 C   0  0  0  0  0  3  0  0  0  0  0  0
  161.7530  210.6890  149.9080 C   0  0  0  0  0  0  0  0  0  0  0  0
  160.8930  208.0380  150.4930 C   0  0  0  0  0  2  0  0  0  0  0  0
  162.0040  208.2330  149.4590 C   0  0  1  0  0  3  0  0  0  0  0  0
  161.4640  204.5090  147.3260 C   0  0  2  0  0  3  0  0  0  0  0  0
  160.4350  206.6200  148.2450 C   0  0  0  0  0  2  0  0  0  0  0  0
  162.6470  205.4010  146.9080 C   0  0  0  0  0  2  0  0  0  0  0  0
  162.9790  206.4570  147.9580 C   0  0  0  0  0  2  0  0  0  0  0  0
  161.7770  207.3840  148.2040 C   0  0  2  0  0  3  0  0  0  0  0  0
  160.6150  205.1180  148.4460 C   0  0  0  0  0  2  0  0  0  0  0  0
  161.9440  203.1320  147.7690 C   0  0  0  0  0  2  0  0  0  0  0  0
  161.0280  201.9290  149.6350 O   0  0  0  0  0  1  0  0  0  0  0  0
  160.8000  202.2640  148.2990 C   0  0  2  0  0  3  0  0  0  0  0  0
  160.6210  200.9910  147.4760 C   0  0  1  0  0  3  0  0  0  0  0  0
  160.5580  201.3020  145.9910 C   0  0  0  0  0  1  0  0  0  0  0  0
  161.6550  200.0890  147.7290 O   0  0  0  0  0  1  0  0  0  0  0  0
  160.1870  208.7320  152.6620 O   0  0  0  0  0  0  0  0  0  0  0  0
  161.9140  207.5930  153.6660 O   0  0  0  0  0  1  0  0  0  0  0  0
  160.9130  208.5450  153.8390 C   0  0  2  0  0  3  0  0  0  0  0  0
  160.8730  210.6760  155.9970 C   0  0  0  0  0  0  0  0  0  0  0  0
  159.9930  209.4480  156.1910 C   0  0  2  0  0  3  0  0  0  0  0  0
  162.1120  210.7040  156.5110 C   0  0  0  0  0  3  0  0  0  0  0  0
  160.7380  208.1330  156.4980 C   0  0  1  0  0  3  0  0  0  0  0  0
  162.6700  209.5440  157.2600 C   0  0  0  0  0  2  0  0  0  0  0  0
  160.0630  208.3360  155.1270 C   0  0  2  0  0  3  0  0  0  0  0  0
  162.2660  208.2640  156.5590 C   0  0  0  0  0  2  0  0  0  0  0  0
  158.2770  213.3000  153.4570 N   0  0  0  0  0  0  0  0  0  0  0  0
  159.3340  214.1870  155.5830 C   0  0  0  0  0  2  0  0  0  0  0  0
  157.0160  214.3510  155.1220 O   0  0  0  0  0  0  0  0  0  0  0  0
  159.4470  212.5760  153.0520 C   0  0  0  0  0  3  0  0  0  0  0  0
  160.2940  211.8870  155.3500 C   0  0  0  0  0  0  0  0  0  0  0  0
  158.1420  213.9490  154.7270 C   0  0  0  0  0  0  0  0  0  0  0  0
  159.8430  212.8940  156.1130 C   0  0  0  0  0  3  0  0  0  0  0  0
  160.3120  211.9600  153.8700 C   0  0  0  0  0  3  0  0  0  0  0  0
  157.5970  214.4130  151.5270 O   0  0  0  0  0  1  0  0  0  0  0  0
  157.2230  213.4540  152.4680 C   0  0  0  0  0  2  0  0  0  0  0  0
  161.8740  212.1050  149.4420 C   0  0  0  0  0  2  0  0  0  0  0  0
  161.0550  213.4040  146.4980 C   0  0  2  0  0  3  0  0  0  0  0  0
  161.2680  212.0110  147.0280 C   0  0  0  0  0  2  0  0  0  0  0  0
  161.9800  214.2850  147.2000 N   0  0  0  0  0  2  0  0  0  0  0  0
  162.9870  213.4760  147.7610 N   0  0  0  0  0  2  0  0  0  0  0  0
  162.4000  212.1680  148.0100 C   0  0  1  0  0  3  0  0  0  0  0  0
  159.6420  213.8320  146.7310 C   0  0  0  0  0  0  0  0  0  0  0  0
  159.2350  214.4530  148.1960 S   0  0  0  0  0  0  0  0  0  0  0  0
  158.7090  213.8290  145.6480 N   0  0  0  0  0  2  0  0  0  0  0  0
  159.5240  212.8050  143.7740 C   0  0  0  0  0  1  0  0  0  0  0  0
  158.5310  212.7080  144.8260 N   0  0  0  0  0  2  0  0  0  0  0  0
  1 19  1  1  0  0  0
  2  1  1  0  0  0  0
  3  4  2  0  0  0  0
  4  2  1  0  0  0  0
  5  1  1  0  0  0  0
  6  3  1  6  0  0  0
  6  5  1  0  0  0  0
  7 13  1  1  0  0  0
  7 12  1  0  0  0  0
  8 12  1  0  0  0  0
  9  7  1  0  0  0  0
  9 10  1  0  0  0  0
 11 10  1  1  0  0  0
 11  8  1  0  0  0  0
 11  6  1  0  0  0  0
 13 15  1  0  0  0  0
 15 14  1  1  0  0  0
 16 17  1  6  0  0  0
 16 18  1  0  0  0  0
 16 15  1  0  0  0  0
 19 21  1  0  0  0  0
 21 20  1  6  0  0  0
 22 24  2  0  0  0  0
 23 22  1  6  0  0  0
 23 25  1  0  0  0  0
 24 26  1  0  0  0  0
 25 28  1  6  0  0  0
 27 21  1  6  0  0  0
 27 23  1  0  0  0  0
 27 25  1  0  0  0  0
 28 26  1  0  0  0  0
 29 34  1  0  0  0  0
 30 35  1  0  0  0  0
 32 29  1  0  0  0  0
 32 36  2  0  0  0  0
 33 22  1  0  0  0  0
 33 35  2  0  0  0  0
 34 31  2  0  0  0  0
 34 30  1  0  0  0  0
 36 33  1  0  0  0  0
 37 38  1  0  0  0  0
 38 29  1  0  0  0  0
 39  4  1  0  0  0  0
 40 45  1  1  0  0  0
 40 41  1  0  0  0  0
 40 42  1  0  0  0  0
 41 44  1  0  0  0  0
 42 43  1  0  0  0  0
 43 44  1  0  0  0  0
 44 39  1  1  0  0  0
 45 46  2  0  0  0  0
 47 45  1  0  0  0  0
 48 49  1  0  0  0  0
 49 47  1  0  0  0  0
M  END
>  <MODEL>
3

>  <REMARK>
 VINA RESULT:      -5.9      1.665      1.961
  Name = 
  14 active torsions:
  status: ('A' for Active; 'I' for Inactive)
    1  A    between atoms: C_1  and  O_22
    2  A    between atoms: C_3  and  C_9
    3  A    between atoms: C_4  and  C_47
    4  A    between atoms: C_5  and  C_28
    5  A    between atoms: C_8  and  C_18
    6  A    between atoms: C_9  and  N_48
    7  A    between atoms: N_12  and  C_42
    8  A    between atoms: C_15  and  C_25
    9  A    between atoms: C_18  and  C_47
   10  A    between atoms: O_22  and  C_38
   11  A    between atoms: C_25  and  C_45
   12  A    between atoms: C_34  and  C_49
   13  A    between atoms: C_37  and  C_38
   14  A    between atoms: N_41  and  N_48
                            x       y       z     vdW  Elec       q    Type
                         _______ _______ _______ _____ _____    ______ ____

>  <TORSDO>
F 14

$$$$
=
 OpenBabel11042420333D

 49 54  0  0  1  0  0  0  0  0999 V2000
  161.7100  208.8830  149.7530 C   0  0  2  0  0  3  0  0  0  0  0  0
  162.2670  209.9210  148.7770 C   0  0  0  0  0  2  0  0  0  0  0  0
  161.3260  211.6670  150.2980 C   0  0  0  0  0  3  0  0  0  0  0  0
  161.8610  211.3380  149.1090 C   0  0  0  0  0  0  0  0  0  0  0  0
  161.8350  209.3900  151.1850 C   0  0  0  0  0  2  0  0  0  0  0  0
  160.9720  210.6420  151.3490 C   0  0  1  0  0  3  0  0  0  0  0  0
  159.7550  211.2720  155.4520 C   0  0  2  0  0  3  0  0  0  0  0  0
  161.3560  210.1830  153.8360 C   0  0  0  0  0  2  0  0  0  0  0  0
  159.8550  212.5110  154.5430 C   0  0  0  0  0  2  0  0  0  0  0  0
  159.8930  212.1450  153.0630 C   0  0  0  0  0  2  0  0  0  0  0  0
  161.1060  211.2530  152.7490 C   0  0  2  0  0  3  0  0  0  0  0  0
  160.1490  209.9720  154.7460 C   0  0  0  0  0  2  0  0  0  0  0  0
  158.3470  211.1160  156.0150 C   0  0  0  0  0  2  0  0  0  0  0  0
  157.5530  213.0130  157.2550 O   0  0  0  0  0  1  0  0  0  0  0  0
  157.5640  212.4310  155.9870 C   0  0  2  0  0  3  0  0  0  0  0  0
  156.1300  212.2300  155.5030 C   0  0  1  0  0  3  0  0  0  0  0  0
  155.8430  210.7630  155.2330 C   0  0  0  0  0  1  0  0  0  0  0  0
  155.2190  212.7280  156.4340 O   0  0  0  0  0  1  0  0  0  0  0  0
  162.4240  207.6920  149.6170 O   0  0  0  0  0  0  0  0  0  0  0  0
  160.7090  207.3580  151.1120 O   0  0  0  0  0  1  0  0  0  0  0  0
  161.7020  206.7490  150.3490 C   0  0  2  0  0  3  0  0  0  0  0  0
  161.2090  203.7780  149.9870 C   0  0  0  0  0  0  0  0  0  0  0  0
  162.3470  204.2050  150.9040 C   0  0  2  0  0  3  0  0  0  0  0  0
  159.9900  203.5420  150.4940 C   0  0  0  0  0  3  0  0  0  0  0  0
  161.9250  204.8430  152.2430 C   0  0  1  0  0  3  0  0  0  0  0  0
  159.7050  203.7070  151.9470 C   0  0  0  0  0  2  0  0  0  0  0  0
  162.5560  205.7140  151.1380 C   0  0  2  0  0  3  0  0  0  0  0  0
  160.4090  204.9520  152.4480 C   0  0  0  0  0  2  0  0  0  0  0  0
  160.6880  202.5060  145.7230 N   0  0  0  0  0  0  0  0  0  0  0  0
  162.3690  204.2970  146.3470 C   0  0  0  0  0  2  0  0  0  0  0  0
  160.7190  204.5950  144.6730 O   0  0  0  0  0  0  0  0  0  0  0  0
  160.9980  201.6740  146.8500 C   0  0  0  0  0  3  0  0  0  0  0  0
  161.4990  203.4970  148.5530 C   0  0  0  0  0  0  0  0  0  0  0  0
  161.2130  203.8270  145.5400 C   0  0  0  0  0  0  0  0  0  0  0  0
  161.9560  204.4810  147.7640 C   0  0  0  0  0  3  0  0  0  0  0  0
  161.3400  202.1040  148.0720 C   0  0  0  0  0  3  0  0  0  0  0  0
  159.9490  200.5250  144.7460 O   0  0  0  0  0  1  0  0  0  0  0  0
  159.8750  201.9160  144.6740 C   0  0  0  0  0  2  0  0  0  0  0  0
  162.2140  212.4220  148.1400 C   0  0  0  0  0  2  0  0  0  0  0  0
  160.5260  213.4660  145.4790 C   0  0  2  0  0  3  0  0  0  0  0  0
  161.2760  214.1380  146.5970 C   0  0  0  0  0  2  0  0  0  0  0  0
  159.9160  212.2600  146.0230 N   0  0  0  0  0  2  0  0  0  0  0  0
  159.8830  212.4020  147.4240 N   0  0  0  0  0  2  0  0  0  0  0  0
  160.9910  213.2690  147.7950 C   0  0  1  0  0  3  0  0  0  0  0  0
  161.4630  213.1240  144.3650 C   0  0  0  0  0  0  0  0  0  0  0  0
  163.0170  213.6470  144.4490 S   0  0  0  0  0  0  0  0  0  0  0  0
  161.0390  212.2390  143.3240 N   0  0  0  0  0  2  0  0  0  0  0  0
  159.8760  212.3210  141.3580 C   0  0  0  0  0  1  0  0  0  0  0  0
  161.1660  212.5740  141.9700 N   0  0  0  0  0  2  0  0  0  0  0  0
  1 19  1  1  0  0  0
  1  5  1  0  0  0  0
  2  4  1  0  0  0  0
  2  1  1  0  0  0  0
  4  3  2  0  0  0  0
  5  6  1  0  0  0  0
  6  3  1  6  0  0  0
  6 11  1  0  0  0  0
  7 13  1  6  0  0  0
  8 12  1  0  0  0  0
  9  7  1  0  0  0  0
 10  9  1  0  0  0  0
 11 10  1  1  0  0  0
 11  8  1  0  0  0  0
 12  7  1  0  0  0  0
 15 13  1  0  0  0  0
 15 14  1  1  0  0  0
 16 17  1  1  0  0  0
 16 15  1  0  0  0  0
 16 18  1  0  0  0  0
 19 21  1  0  0  0  0
 21 20  1  1  0  0  0
 22 24  2  0  0  0  0
 23 22  1  6  0  0  0
 23 27  1  0  0  0  0
 23 25  1  0  0  0  0
 24 26  1  0  0  0  0
 25 28  1  6  0  0  0
 26 28  1  0  0  0  0
 27 21  1  6  0  0  0
 27 25  1  0  0  0  0
 29 32  1  0  0  0  0
 30 35  1  0  0  0  0
 31 34  2  0  0  0  0
 32 36  2  0  0  0  0
 33 22  1  0  0  0  0
 34 29  1  0  0  0  0
 34 30  1  0  0  0  0
 35 33  2  0  0  0  0
 36 33  1  0  0  0  0
 38 37  1  0  0  0  0
 38 29  1  0  0  0  0
 39  4  1  0  0  0  0
 40 45  1  6  0  0  0
 40 42  1  0  0  0  0
 40 41  1  0  0  0  0
 41 44  1  0  0  0  0
 42 43  1  0  0  0  0
 43 44  1  0  0  0  0
 44 39  1  6  0  0  0
 45 46  2  0  0  0  0
 47 45  1  0  0  0  0
 48 49  1  0  0  0  0
 49 47  1  0  0  0  0
M  END
>  <MODEL>
4

>  <REMARK>
 VINA RESULT:      -5.3      2.266      8.577
  Name = 
  14 active torsions:
  status: ('A' for Active; 'I' for Inactive)
    1  A    between atoms: C_1  and  O_22
    2  A    between atoms: C_3  and  C_9
    3  A    between atoms: C_4  and  C_47
    4  A    between atoms: C_5  and  C_28
    5  A    between atoms: C_8  and  C_18
    6  A    between atoms: C_9  and  N_48
    7  A    between atoms: N_12  and  C_42
    8  A    between atoms: C_15  and  C_25
    9  A    between atoms: C_18  and  C_47
   10  A    between atoms: O_22  and  C_38
   11  A    between atoms: C_25  and  C_45
   12  A    between atoms: C_34  and  C_49
   13  A    between atoms: C_37  and  C_38
   14  A    between atoms: N_41  and  N_48
                            x       y       z     vdW  Elec       q    Type
                         _______ _______ _______ _____ _____    ______ ____

>  <TORSDO>
F 14

$$$$
=
 OpenBabel11042420333D

 49 54  0  0  1  0  0  0  0  0999 V2000
  161.6640  207.5160  149.9030 C   0  0  2  0  0  3  0  0  0  0  0  0
  162.0180  208.9070  149.3750 C   0  0  0  0  0  2  0  0  0  0  0  0
  161.3420  209.7880  151.6150 C   0  0  0  0  0  3  0  0  0  0  0  0
  161.6570  210.0230  150.3290 C   0  0  0  0  0  0  0  0  0  0  0  0
  162.0400  207.4030  151.3760 C   0  0  0  0  0  2  0  0  0  0  0  0
  161.2010  208.3960  152.1830 C   0  0  1  0  0  3  0  0  0  0  0  0
  160.5560  209.3010  156.3640 C   0  0  2  0  0  3  0  0  0  0  0  0
  160.5850  207.5750  154.5260 C   0  0  0  0  0  2  0  0  0  0  0  0
  161.8300  209.8610  155.7050 C   0  0  0  0  0  2  0  0  0  0  0  0
  161.7580  209.8300  154.1810 C   0  0  0  0  0  2  0  0  0  0  0  0
  161.5780  208.3910  153.6690 C   0  0  2  0  0  3  0  0  0  0  0  0
  159.7070  208.4530  155.4120 C   0  0  0  0  0  2  0  0  0  0  0  0
  159.6900  210.4220  156.9260 C   0  0  0  0  0  2  0  0  0  0  0  0
  160.0450  212.7960  156.8500 O   0  0  0  0  0  1  0  0  0  0  0  0
  159.7440  211.6840  156.0620 C   0  0  2  0  0  3  0  0  0  0  0  0
  158.4320  211.9240  155.3200 C   0  0  1  0  0  3  0  0  0  0  0  0
  158.5550  211.5510  153.8530 C   0  0  0  0  0  1  0  0  0  0  0  0
  157.3920  211.2030  155.9070 O   0  0  0  0  0  1  0  0  0  0  0  0
  162.3590  206.5540  149.1710 O   0  0  0  0  0  0  0  0  0  0  0  0
  162.6910  208.1520  147.5520 O   0  0  0  0  0  1  0  0  0  0  0  0
  162.1570  206.8980  147.8340 C   0  0  2  0  0  3  0  0  0  0  0  0
  161.2650  204.1710  146.8500 C   0  0  0  0  0  0  0  0  0  0  0  0
  160.2380  205.2960  146.8610 C   0  0  2  0  0  3  0  0  0  0  0  0
  161.9820  203.9250  145.7440 C   0  0  0  0  0  3  0  0  0  0  0  0
  160.4480  206.4020  145.8080 C   0  0  1  0  0  3  0  0  0  0  0  0
  161.8170  204.7450  144.5110 C   0  0  0  0  0  2  0  0  0  0  0  0
  160.7090  206.6960  147.2990 C   0  0  2  0  0  3  0  0  0  0  0  0
  161.6710  206.2010  144.9040 C   0  0  0  0  0  2  0  0  0  0  0  0
  160.6570  202.4610  150.9470 N   0  0  0  0  0  0  0  0  0  0  0  0
  161.2070  200.9580  148.9820 C   0  0  0  0  0  2  0  0  0  0  0  0
  159.3560  200.5920  150.4130 O   0  0  0  0  0  0  0  0  0  0  0  0
  161.5820  203.4860  150.5580 C   0  0  0  0  0  3  0  0  0  0  0  0
  161.3650  203.2690  148.0320 C   0  0  0  0  0  0  0  0  0  0  0  0
  160.3460  201.3200  150.1380 C   0  0  0  0  0  0  0  0  0  0  0  0
  161.0560  201.9700  147.9020 C   0  0  0  0  0  3  0  0  0  0  0  0
  161.8800  203.8380  149.3000 C   0  0  0  0  0  3  0  0  0  0  0  0
  160.4890  203.7550  152.8760 O   0  0  0  0  0  1  0  0  0  0  0  0
  160.0920  202.5570  152.2820 C   0  0  0  0  0  2  0  0  0  0  0  0
  161.8120  211.4350  149.8590 C   0  0  0  0  0  2  0  0  0  0  0  0
  161.3990  213.2340  147.1000 C   0  0  2  0  0  3  0  0  0  0  0  0
  161.1630  211.7980  147.4820 C   0  0  0  0  0  2  0  0  0  0  0  0
  162.5700  213.6960  147.8340 N   0  0  0  0  0  2  0  0  0  0  0  0
  163.2750  212.5540  148.2620 N   0  0  0  0  0  2  0  0  0  0  0  0
  162.3040  211.4810  148.4140 C   0  0  1  0  0  3  0  0  0  0  0  0
  160.2030  214.0610  147.4450 C   0  0  0  0  0  0  0  0  0  0  0  0
  159.1370  214.4460  146.2570 S   0  0  0  0  0  0  0  0  0  0  0  0
  159.9280  214.3810  148.8120 N   0  0  0  0  0  2  0  0  0  0  0  0
  158.7790  213.9880  150.7480 C   0  0  0  0  0  1  0  0  0  0  0  0
  158.6340  214.3140  149.3430 N   0  0  0  0  0  2  0  0  0  0  0  0
  1 19  1  6  0  0  0
  1  5  1  0  0  0  0
  2  1  1  0  0  0  0
  2  4  1  0  0  0  0
  3  6  1  0  0  0  0
  4  3  2  0  0  0  0
  6  5  1  6  0  0  0
  6 11  1  0  0  0  0
  7 13  1  6  0  0  0
  8 12  1  0  0  0  0
  9  7  1  0  0  0  0
 10  9  1  0  0  0  0
 11 10  1  1  0  0  0
 11  8  1  0  0  0  0
 12  7  1  0  0  0  0
 15 14  1  1  0  0  0
 15 13  1  0  0  0  0
 16 17  1  6  0  0  0
 16 18  1  0  0  0  0
 16 15  1  0  0  0  0
 21 20  1  1  0  0  0
 21 19  1  0  0  0  0
 22 33  1  0  0  0  0
 23 22  1  6  0  0  0
 23 27  1  0  0  0  0
 24 22  2  0  0  0  0
 25 28  1  6  0  0  0
 25 23  1  0  0  0  0
 25 27  1  0  0  0  0
 26 28  1  0  0  0  0
 26 24  1  0  0  0  0
 27 21  1  6  0  0  0
 29 38  1  0  0  0  0
 30 34  1  0  0  0  0
 32 29  1  0  0  0  0
 33 36  1  0  0  0  0
 34 31  2  0  0  0  0
 34 29  1  0  0  0  0
 35 33  2  0  0  0  0
 35 30  1  0  0  0  0
 36 32  2  0  0  0  0
 38 37  1  0  0  0  0
 39  4  1  0  0  0  0
 40 45  1  1  0  0  0
 40 41  1  0  0  0  0
 40 42  1  0  0  0  0
 41 44  1  0  0  0  0
 42 43  1  0  0  0  0
 43 44  1  0  0  0  0
 44 39  1  1  0  0  0
 45 47  1  0  0  0  0
 46 45  2  0  0  0  0
 47 49  1  0  0  0  0
 49 48  1  0  0  0  0
M  END
>  <MODEL>
5

>  <REMARK>
 VINA RESULT:      -5.0      2.591      8.932
  Name = 
  14 active torsions:
  status: ('A' for Active; 'I' for Inactive)
    1  A    between atoms: C_1  and  O_22
    2  A    between atoms: C_3  and  C_9
    3  A    between atoms: C_4  and  C_47
    4  A    between atoms: C_5  and  C_28
    5  A    between atoms: C_8  and  C_18
    6  A    between atoms: C_9  and  N_48
    7  A    between atoms: N_12  and  C_42
    8  A    between atoms: C_15  and  C_25
    9  A    between atoms: C_18  and  C_47
   10  A    between atoms: O_22  and  C_38
   11  A    between atoms: C_25  and  C_45
   12  A    between atoms: C_34  and  C_49
   13  A    between atoms: C_37  and  C_38
   14  A    between atoms: N_41  and  N_48
                            x       y       z     vdW  Elec       q    Type
                         _______ _______ _______ _____ _____    ______ ____

>  <TORSDO>
F 14

$$$$
=
 OpenBabel11042420333D

 49 54  0  0  1  0  0  0  0  0999 V2000
  161.4920  209.2760  150.8770 C   0  0  2  0  0  3  0  0  0  0  0  0
  161.7570  210.4150  149.8900 C   0  0  0  0  0  2  0  0  0  0  0  0
  160.6520  211.9300  151.5440 C   0  0  0  0  0  3  0  0  0  0  0  0
  161.1280  211.7260  150.3020 C   0  0  0  0  0  0  0  0  0  0  0  0
  161.6520  209.7740  152.3080 C   0  0  0  0  0  2  0  0  0  0  0  0
  160.5910  210.8410  152.5880 C   0  0  1  0  0  3  0  0  0  0  0  0
  159.2230  211.7740  156.5840 C   0  0  2  0  0  3  0  0  0  0  0  0
  160.7000  210.3690  155.0990 C   0  0  0  0  0  2  0  0  0  0  0  0
  159.6230  212.9520  155.6780 C   0  0  0  0  0  2  0  0  0  0  0  0
  159.6980  212.5560  154.2070 C   0  0  0  0  0  2  0  0  0  0  0  0
  160.7370  211.4440  153.9900 C   0  0  2  0  0  3  0  0  0  0  0  0
  159.4130  210.4080  155.9170 C   0  0  0  0  0  2  0  0  0  0  0  0
  157.7740  211.8990  157.0410 C   0  0  0  0  0  2  0  0  0  0  0  0
  156.7780  214.0730  157.2600 O   0  0  0  0  0  1  0  0  0  0  0  0
  157.0460  213.0520  156.3460 C   0  0  2  0  0  3  0  0  0  0  0  0
  155.7450  212.5940  155.6940 C   0  0  1  0  0  3  0  0  0  0  0  0
  155.9200  212.3940  154.1990 C   0  0  0  0  0  1  0  0  0  0  0  0
  155.2860  211.4140  156.2800 O   0  0  0  0  0  1  0  0  0  0  0  0
  162.3970  208.2420  150.6410 O   0  0  0  0  0  0  0  0  0  0  0  0
  160.6200  207.3630  151.8050 O   0  0  0  0  0  1  0  0  0  0  0  0
  161.7230  207.0760  151.0050 C   0  0  2  0  0  3  0  0  0  0  0  0
  161.2920  204.2280  150.0560 C   0  0  0  0  0  0  0  0  0  0  0  0
  162.4390  204.4910  151.0230 C   0  0  2  0  0  3  0  0  0  0  0  0
  160.0890  203.8610  150.5230 C   0  0  0  0  0  3  0  0  0  0  0  0
  162.0290  204.8330  152.4690 C   0  0  1  0  0  3  0  0  0  0  0  0
  159.8310  203.7210  151.9840 C   0  0  0  0  0  2  0  0  0  0  0  0
  162.6170  205.9260  151.5550 C   0  0  2  0  0  3  0  0  0  0  0  0
  160.5150  204.8580  152.7160 C   0  0  0  0  0  2  0  0  0  0  0  0
  160.7940  203.6410  145.6420 N   0  0  0  0  0  0  0  0  0  0  0  0
  162.1890  205.5530  146.5480 C   0  0  0  0  0  2  0  0  0  0  0  0
  160.4410  205.8560  144.9800 O   0  0  0  0  0  0  0  0  0  0  0  0
  161.2830  202.6910  146.5990 C   0  0  0  0  0  3  0  0  0  0  0  0
  161.5600  204.2510  148.5910 C   0  0  0  0  0  0  0  0  0  0  0  0
  161.0900  205.0420  145.6890 C   0  0  0  0  0  0  0  0  0  0  0  0
  161.8160  205.4180  147.9820 C   0  0  0  0  0  3  0  0  0  0  0  0
  161.6060  202.9540  147.8730 C   0  0  0  0  0  3  0  0  0  0  0  0
  159.4660  201.8920  144.8680 O   0  0  0  0  0  1  0  0  0  0  0  0
  160.0400  203.1130  144.5180 C   0  0  0  0  0  2  0  0  0  0  0  0
  161.1850  212.8730  149.3430 C   0  0  0  0  0  2  0  0  0  0  0  0
  160.5230  213.2490  146.1110 C   0  0  2  0  0  3  0  0  0  0  0  0
  160.5800  212.0820  147.0600 C   0  0  0  0  0  2  0  0  0  0  0  0
  161.5360  214.2070  146.5350 N   0  0  0  0  0  2  0  0  0  0  0  0
  162.4470  213.5190  147.3590 N   0  0  0  0  0  2  0  0  0  0  0  0
  161.7190  212.4240  147.9840 C   0  0  1  0  0  3  0  0  0  0  0  0
  159.1650  213.8720  146.1440 C   0  0  0  0  0  0  0  0  0  0  0  0
  158.3100  213.9800  144.7470 S   0  0  0  0  0  0  0  0  0  0  0  0
  158.5750  214.2310  147.3970 N   0  0  0  0  0  2  0  0  0  0  0  0
  157.1830  214.1280  149.2070 C   0  0  0  0  0  1  0  0  0  0  0  0
  157.4050  213.6200  147.8670 N   0  0  0  0  0  2  0  0  0  0  0  0
  1 19  1  6  0  0  0
  1  5  1  0  0  0  0
  2  4  1  0  0  0  0
  2  1  1  0  0  0  0
  4  3  2  0  0  0  0
  5  6  1  0  0  0  0
  6  3  1  6  0  0  0
  6 11  1  0  0  0  0
  7 13  1  6  0  0  0
  8 12  1  0  0  0  0
  9  7  1  0  0  0  0
 10  9  1  0  0  0  0
 11 10  1  1  0  0  0
 11  8  1  0  0  0  0
 12  7  1  0  0  0  0
 15 13  1  0  0  0  0
 15 14  1  1  0  0  0
 16 17  1  6  0  0  0
 16 18  1  0  0  0  0
 16 15  1  0  0  0  0
 19 21  1  0  0  0  0
 21 20  1  1  0  0  0
 22 24  2  0  0  0  0
 23 22  1  6  0  0  0
 23 27  1  0  0  0  0
 23 25  1  0  0  0  0
 24 26  1  0  0  0  0
 25 28  1  6  0  0  0
 26 28  1  0  0  0  0
 27 21  1  6  0  0  0
 27 25  1  0  0  0  0
 29 34  1  0  0  0  0
 29 32  1  0  0  0  0
 30 35  1  0  0  0  0
 31 34  2  0  0  0  0
 32 36  2  0  0  0  0
 33 22  1  0  0  0  0
 34 30  1  0  0  0  0
 35 33  2  0  0  0  0
 36 33  1  0  0  0  0
 38 37  1  0  0  0  0
 38 29  1  0  0  0  0
 39  4  1  0  0  0  0
 40 45  1  1  0  0  0
 40 42  1  0  0  0  0
 40 41  1  0  0  0  0
 41 44  1  0  0  0  0
 42 43  1  0  0  0  0
 43 44  1  0  0  0  0
 44 39  1  1  0  0  0
 45 47  1  0  0  0  0
 46 45  2  0  0  0  0
 47 49  1  0  0  0  0
 49 48  1  0  0  0  0
M  END
>  <MODEL>
6

>  <REMARK>
 VINA RESULT:      -5.0      2.484      8.805
  Name = 
  14 active torsions:
  status: ('A' for Active; 'I' for Inactive)
    1  A    between atoms: C_1  and  O_22
    2  A    between atoms: C_3  and  C_9
    3  A    between atoms: C_4  and  C_47
    4  A    between atoms: C_5  and  C_28
    5  A    between atoms: C_8  and  C_18
    6  A    between atoms: C_9  and  N_48
    7  A    between atoms: N_12  and  C_42
    8  A    between atoms: C_15  and  C_25
    9  A    between atoms: C_18  and  C_47
   10  A    between atoms: O_22  and  C_38
   11  A    between atoms: C_25  and  C_45
   12  A    between atoms: C_34  and  C_49
   13  A    between atoms: C_37  and  C_38
   14  A    between atoms: N_41  and  N_48
                            x       y       z     vdW  Elec       q    Type
                         _______ _______ _______ _____ _____    ______ ____

>  <TORSDO>
F 14

$$$$
=
 OpenBabel11042420333D

 49 55  0  0  1  0  0  0  0  0999 V2000
  161.7240  209.3980  150.3190 C   0  0  2  0  0  3  0  0  0  0  0  0
  160.8250  209.7850  151.4950 C   0  0  2  0  0  3  0  0  0  0  0  0
  161.3010  212.1670  150.9080 C   0  0  0  0  0  3  0  0  0  0  0  0
  160.8140  211.2690  151.7820 C   0  0  0  0  0  0  0  0  0  0  0  0
  161.5440  210.3880  149.1740 C   0  0  0  0  0  2  0  0  0  0  0  0
  162.0080  211.7720  149.6330 C   0  0  1  0  0  3  0  0  0  0  0  0
  160.4290  213.2470  145.8860 C   0  0  2  0  0  3  0  0  0  0  0  0
  160.2990  213.2240  148.4040 C   0  0  0  0  0  2  0  0  0  0  0  0
  161.9560  213.2860  146.0760 C   0  0  0  0  0  2  0  0  0  0  0  0
  162.4220  212.3960  147.2250 C   0  0  0  0  0  2  0  0  0  0  0  0
  161.7870  212.8380  148.5540 C   0  0  2  0  0  3  0  0  0  0  0  0
  159.6810  212.7070  147.1080 C   0  0  0  0  0  2  0  0  0  0  0  0
  160.0480  212.4110  144.6690 C   0  0  0  0  0  2  0  0  0  0  0  0
  158.7700  213.4630  142.9300 O   0  0  0  0  0  1  0  0  0  0  0  0
  160.0720  213.2280  143.3750 C   0  0  2  0  0  3  0  0  0  0  0  0
  160.8710  212.5330  142.2770 C   0  0  1  0  0  3  0  0  0  0  0  0
  162.3620  212.5880  142.5640 C   0  0  0  0  0  1  0  0  0  0  0  0
  160.4650  211.2070  142.1320 O   0  0  0  0  0  1  0  0  0  0  0  0
  161.3870  208.1170  149.8840 O   0  0  0  0  0  0  0  0  0  0  0  0
  160.6800  208.1430  152.0710 O   0  0  0  0  0  0  0  0  0  0  0  0
  161.2200  207.3670  151.0490 C   0  0  2  0  0  3  0  0  0  0  0  0
  161.5710  204.5440  149.9990 C   0  0  0  0  0  0  0  0  0  0  0  0
  162.6610  205.1100  150.9000 C   0  0  2  0  0  3  0  0  0  0  0  0
  160.5680  203.8260  150.5270 C   0  0  0  0  0  3  0  0  0  0  0  0
  162.2810  205.2790  152.3840 C   0  0  1  0  0  3  0  0  0  0  0  0
  160.4740  203.5800  151.9930 C   0  0  0  0  0  2  0  0  0  0  0  0
  162.4520  206.5200  151.4850 C   0  0  2  0  0  3  0  0  0  0  0  0
  160.8500  204.8490  152.7310 C   0  0  0  0  0  2  0  0  0  0  0  0
  160.8180  204.0780  145.6070 N   0  0  0  0  0  0  0  0  0  0  0  0
  161.9250  206.1670  146.5200 C   0  0  0  0  0  2  0  0  0  0  0  0
  160.0260  206.2210  145.1060 O   0  0  0  0  0  0  0  0  0  0  0  0
  161.5450  203.1900  146.4660 C   0  0  0  0  0  3  0  0  0  0  0  0
  161.7070  204.6810  148.5220 C   0  0  0  0  0  0  0  0  0  0  0  0
  160.8650  205.5070  145.7150 C   0  0  0  0  0  0  0  0  0  0  0  0
  161.7030  205.9020  147.9670 C   0  0  0  0  0  3  0  0  0  0  0  0
  161.9210  203.4490  147.7270 C   0  0  0  0  0  3  0  0  0  0  0  0
  159.9860  202.0980  144.7080 O   0  0  0  0  0  1  0  0  0  0  0  0
  160.0770  203.4750  144.5120 C   0  0  0  0  0  2  0  0  0  0  0  0
  160.0960  211.7500  153.0020 C   0  0  0  0  0  2  0  0  0  0  0  0
  157.2800  212.6190  154.5330 C   0  0  2  0  0  3  0  0  0  0  0  0
  157.6840  211.5250  153.5810 C   0  0  0  0  0  2  0  0  0  0  0  0
  158.0570  213.8040  154.1930 N   0  0  0  0  0  2  0  0  0  0  0  0
  158.5420  213.6250  152.8820 N   0  0  0  0  0  2  0  0  0  0  0  0
  158.6740  212.1930  152.6640 C   0  0  1  0  0  3  0  0  0  0  0  0
  157.5530  212.2000  155.9420 C   0  0  0  0  0  0  0  0  0  0  0  0
  156.3510  212.3310  157.0530 S   0  0  0  0  0  0  0  0  0  0  0  0
  158.7920  211.5670  156.2710 N   0  0  0  0  0  2  0  0  0  0  0  0
  160.9860  211.4800  156.9090 C   0  0  0  0  0  1  0  0  0  0  0  0
  159.7270  212.1670  157.1240 N   0  0  0  0  0  2  0  0  0  0  0  0
  1  5  1  6  0  0  0
  1  2  1  0  0  0  0
  2  4  1  1  0  0  0
  2 20  1  0  0  0  0
  3  4  2  0  0  0  0
  4 39  1  0  0  0  0
  6  5  1  6  0  0  0
  6  3  1  0  0  0  0
  7 13  1  6  0  0  0
  7  9  1  0  0  0  0
  7 12  1  0  0  0  0
  8 11  1  0  0  0  0
  9 10  1  0  0  0  0
 11 10  1  6  0  0  0
 11  6  1  0  0  0  0
 12  8  1  0  0  0  0
 15 14  1  6  0  0  0
 15 13  1  0  0  0  0
 16 17  1  1  0  0  0
 16 15  1  0  0  0  0
 18 16  1  0  0  0  0
 19  1  1  0  0  0  0
 21 19  1  6  0  0  0
 21 20  1  0  0  0  0
 22 24  2  0  0  0  0
 23 22  1  6  0  0  0
 23 27  1  0  0  0  0
 23 25  1  0  0  0  0
 24 26  1  0  0  0  0
 25 28  1  6  0  0  0
 26 28  1  0  0  0  0
 27 21  1  6  0  0  0
 27 25  1  0  0  0  0
 29 34  1  0  0  0  0
 29 32  1  0  0  0  0
 30 35  1  0  0  0  0
 31 34  2  0  0  0  0
 32 36  2  0  0  0  0
 33 22  1  0  0  0  0
 34 30  1  0  0  0  0
 35 33  2  0  0  0  0
 36 33  1  0  0  0  0
 38 37  1  0  0  0  0
 38 29  1  0  0  0  0
 40 45  1  1  0  0  0
 41 40  1  0  0  0  0
 42 40  1  0  0  0  0
 43 42  1  0  0  0  0
 44 43  1  0  0  0  0
 44 39  1  1  0  0  0
 44 41  1  0  0  0  0
 45 47  1  0  0  0  0
 45 46  2  0  0  0  0
 47 49  1  0  0  0  0
 48 49  1  0  0  0  0
M  END
>  <MODEL>
7

>  <REMARK>
 VINA RESULT:      -4.8      3.747      9.402
  Name = 
  14 active torsions:
  status: ('A' for Active; 'I' for Inactive)
    1  A    between atoms: C_1  and  O_22
    2  A    between atoms: C_3  and  C_9
    3  A    between atoms: C_4  and  C_47
    4  A    between atoms: C_5  and  C_28
    5  A    between atoms: C_8  and  C_18
    6  A    between atoms: C_9  and  N_48
    7  A    between atoms: N_12  and  C_42
    8  A    between atoms: C_15  and  C_25
    9  A    between atoms: C_18  and  C_47
   10  A    between atoms: O_22  and  C_38
   11  A    between atoms: C_25  and  C_45
   12  A    between atoms: C_34  and  C_49
   13  A    between atoms: C_37  and  C_38
   14  A    between atoms: N_41  and  N_48
                            x       y       z     vdW  Elec       q    Type
                         _______ _______ _______ _____ _____    ______ ____

>  <TORSDO>
F 14

$$$$
=
 OpenBabel11042420333D

 49 54  0  0  1  0  0  0  0  0999 V2000
  161.2190  208.4620  151.6880 C   0  0  2  0  0  3  0  0  0  0  0  0
  161.4390  209.5870  150.6750 C   0  0  0  0  0  2  0  0  0  0  0  0
  161.7040  207.8020  148.9450 C   0  0  0  0  0  3  0  0  0  0  0  0
  161.8330  209.0920  149.3020 C   0  0  0  0  0  0  0  0  0  0  0  0
  160.4410  207.3210  151.0440 C   0  0  0  0  0  2  0  0  0  0  0  0
  161.2780  206.7220  149.9110 C   0  0  1  0  0  3  0  0  0  0  0  0
  160.7060  202.6670  148.5180 C   0  0  2  0  0  3  0  0  0  0  0  0
  160.0300  204.4990  150.1140 C   0  0  0  0  0  2  0  0  0  0  0  0
  160.7900  203.7770  147.4550 C   0  0  0  0  0  2  0  0  0  0  0  0
  161.3810  205.0700  148.0090 C   0  0  0  0  0  2  0  0  0  0  0  0
  160.5260  205.6130  149.1660 C   0  0  2  0  0  3  0  0  0  0  0  0
  160.8060  203.1960  149.9530 C   0  0  0  0  0  2  0  0  0  0  0  0
  161.7930  201.6190  148.3060 C   0  0  0  0  0  2  0  0  0  0  0  0
  161.9610  199.2270  148.1810 O   0  0  0  0  0  1  0  0  0  0  0  0
  161.2380  200.3240  147.7090 C   0  0  2  0  0  3  0  0  0  0  0  0
  161.2690  200.3400  146.1830 C   0  0  1  0  0  3  0  0  0  0  0  0
  161.2030  198.9320  145.6170 C   0  0  0  0  0  1  0  0  0  0  0  0
  160.2210  201.1060  145.6740 O   0  0  0  0  0  1  0  0  0  0  0  0
  160.5030  208.9560  152.7780 O   0  0  0  0  0  0  0  0  0  0  0  0
  161.7480  207.1930  153.5690 O   0  0  0  0  0  1  0  0  0  0  0  0
  161.1020  208.3810  153.8990 C   0  0  2  0  0  3  0  0  0  0  0  0
  160.7000  210.7990  155.6860 C   0  0  0  0  0  0  0  0  0  0  0  0
  159.9450  209.5220  156.0330 C   0  0  2  0  0  3  0  0  0  0  0  0
  161.8940  211.0470  156.2450 C   0  0  0  0  0  3  0  0  0  0  0  0
  160.8040  208.3650  156.5790 C   0  0  1  0  0  3  0  0  0  0  0  0
  162.5240  210.0880  157.1950 C   0  0  0  0  0  2  0  0  0  0  0  0
  160.1990  208.2760  155.1630 C   0  0  2  0  0  3  0  0  0  0  0  0
  162.3020  208.6770  156.6880 C   0  0  0  0  0  2  0  0  0  0  0  0
  158.3050  212.6720  152.3950 N   0  0  0  0  0  0  0  0  0  0  0  0
  158.5320  213.8130  154.6460 C   0  0  0  0  0  2  0  0  0  0  0  0
  156.4430  213.3930  153.6120 O   0  0  0  0  0  0  0  0  0  0  0  0
  159.6780  212.2580  152.3480 C   0  0  0  0  0  3  0  0  0  0  0  0
  160.0380  211.8220  154.8290 C   0  0  0  0  0  0  0  0  0  0  0  0
  157.6950  213.2790  153.5410 C   0  0  0  0  0  0  0  0  0  0  0  0
  159.1790  212.6920  155.3800 C   0  0  0  0  0  3  0  0  0  0  0  0
  160.4210  211.8840  153.3990 C   0  0  0  0  0  3  0  0  0  0  0  0
  157.8750  213.5880  150.2970 O   0  0  0  0  0  1  0  0  0  0  0  0
  157.5390  212.5500  151.1660 C   0  0  0  0  0  2  0  0  0  0  0  0
  162.2260  210.1020  148.2700 C   0  0  0  0  0  2  0  0  0  0  0  0
  161.9120  213.3910  147.9520 C   0  0  2  0  0  3  0  0  0  0  0  0
  163.0550  212.4160  147.8740 C   0  0  0  0  0  2  0  0  0  0  0  0
  160.9750  212.8880  148.9480 N   0  0  0  0  0  2  0  0  0  0  0  0
  161.6700  211.9600  149.7480 N   0  0  0  0  0  2  0  0  0  0  0  0
  162.7250  211.3880  148.9240 C   0  0  1  0  0  3  0  0  0  0  0  0
  161.2460  213.5110  146.6190 C   0  0  0  0  0  0  0  0  0  0  0  0
  159.7810  212.8030  146.4000 S   0  0  0  0  0  0  0  0  0  0  0  0
  161.8170  214.3480  145.6100 N   0  0  0  0  0  2  0  0  0  0  0  0
  163.3820  213.3140  144.3030 C   0  0  0  0  0  1  0  0  0  0  0  0
  162.0500  213.8850  144.3080 N   0  0  0  0  0  2  0  0  0  0  0  0
  1 19  1  1  0  0  0
  2  1  1  0  0  0  0
  3  4  2  0  0  0  0
  4  2  1  0  0  0  0
  5  1  1  0  0  0  0
  6  3  1  6  0  0  0
  6  5  1  0  0  0  0
  7 13  1  6  0  0  0
  7 12  1  0  0  0  0
  9 10  1  0  0  0  0
  9  7  1  0  0  0  0
 11 10  1  6  0  0  0
 11  6  1  0  0  0  0
 11  8  1  0  0  0  0
 12  8  1  0  0  0  0
 15 14  1  1  0  0  0
 15 13  1  0  0  0  0
 16 17  1  6  0  0  0
 16 15  1  0  0  0  0
 18 16  1  0  0  0  0
 19 21  1  0  0  0  0
 21 20  1  6  0  0  0
 22 24  2  0  0  0  0
 23 22  1  6  0  0  0
 23 25  1  0  0  0  0
 24 26  1  0  0  0  0
 25 28  1  6  0  0  0
 27 21  1  6  0  0  0
 27 23  1  0  0  0  0
 27 25  1  0  0  0  0
 28 26  1  0  0  0  0
 29 34  1  0  0  0  0
 30 35  1  0  0  0  0
 32 29  1  0  0  0  0
 32 36  2  0  0  0  0
 33 35  2  0  0  0  0
 33 22  1  0  0  0  0
 34 31  2  0  0  0  0
 34 30  1  0  0  0  0
 36 33  1  0  0  0  0
 37 38  1  0  0  0  0
 38 29  1  0  0  0  0
 39  4  1  0  0  0  0
 40 45  1  6  0  0  0
 40 42  1  0  0  0  0
 41 40  1  0  0  0  0
 41 44  1  0  0  0  0
 42 43  1  0  0  0  0
 44 39  1  6  0  0  0
 44 43  1  0  0  0  0
 46 45  2  0  0  0  0
 47 45  1  0  0  0  0
 48 49  1  0  0  0  0
 49 47  1  0  0  0  0
M  END
>  <MODEL>
8

>  <REMARK>
 VINA RESULT:      -4.8      1.563      2.110
  Name = 
  14 active torsions:
  status: ('A' for Active; 'I' for Inactive)
    1  A    between atoms: C_1  and  O_22
    2  A    between atoms: C_3  and  C_9
    3  A    between atoms: C_4  and  C_47
    4  A    between atoms: C_5  and  C_28
    5  A    between atoms: C_8  and  C_18
    6  A    between atoms: C_9  and  N_48
    7  A    between atoms: N_12  and  C_42
    8  A    between atoms: C_15  and  C_25
    9  A    between atoms: C_18  and  C_47
   10  A    between atoms: O_22  and  C_38
   11  A    between atoms: C_25  and  C_45
   12  A    between atoms: C_34  and  C_49
   13  A    between atoms: C_37  and  C_38
   14  A    between atoms: N_41  and  N_48
                            x       y       z     vdW  Elec       q    Type
                         _______ _______ _______ _____ _____    ______ ____

>  <TORSDO>
F 14

$$$$
=
 OpenBabel11042420333D

 49 54  0  0  1  0  0  0  0  0999 V2000
  161.8880  209.0030  149.5840 C   0  0  2  0  0  3  0  0  0  0  0  0
  162.3510  210.1530  148.6860 C   0  0  0  0  0  2  0  0  0  0  0  0
  161.2500  211.6960  150.3160 C   0  0  0  0  0  3  0  0  0  0  0  0
  161.8160  211.5010  149.1120 C   0  0  0  0  0  0  0  0  0  0  0  0
  161.9630  209.4180  151.0490 C   0  0  0  0  0  2  0  0  0  0  0  0
  160.9880  210.5730  151.2910 C   0  0  1  0  0  3  0  0  0  0  0  0
  159.5770  210.9800  155.3590 C   0  0  2  0  0  3  0  0  0  0  0  0
  161.2370  209.9560  153.7600 C   0  0  0  0  0  2  0  0  0  0  0  0
  159.7460  212.2680  154.5350 C   0  0  0  0  0  2  0  0  0  0  0  0
  159.8520  211.9920  153.0380 C   0  0  0  0  0  2  0  0  0  0  0  0
  161.0620  211.0940  152.7300 C   0  0  2  0  0  3  0  0  0  0  0  0
  159.9820  209.7160  154.5950 C   0  0  0  0  0  2  0  0  0  0  0  0
  158.1390  210.8200  155.8410 C   0  0  0  0  0  2  0  0  0  0  0  0
  157.3900  212.6850  157.1550 O   0  0  0  0  0  1  0  0  0  0  0  0
  157.3860  212.1520  155.8650 C   0  0  2  0  0  3  0  0  0  0  0  0
  155.9470  212.0020  155.3780 C   0  0  1  0  0  3  0  0  0  0  0  0
  155.6530  212.9540  154.2310 C   0  0  0  0  0  1  0  0  0  0  0  0
  155.6930  210.6890  154.9820 O   0  0  0  0  0  1  0  0  0  0  0  0
  162.7080  207.8950  149.3720 O   0  0  0  0  0  0  0  0  0  0  0  0
  163.0490  208.3170  147.1380 O   0  0  0  0  0  1  0  0  0  0  0  0
  162.4340  207.4830  148.0670 C   0  0  2  0  0  3  0  0  0  0  0  0
  161.3620  204.6540  148.2840 C   0  0  0  0  0  0  0  0  0  0  0  0
  160.3800  205.7630  147.9290 C   0  0  2  0  0  3  0  0  0  0  0  0
  161.9670  203.9540  147.3130 C   0  0  0  0  0  3  0  0  0  0  0  0
  160.5320  206.3640  146.5180 C   0  0  1  0  0  3  0  0  0  0  0  0
  161.7200  204.2470  145.8730 C   0  0  0  0  0  2  0  0  0  0  0  0
  160.9370  207.1890  147.7560 C   0  0  2  0  0  3  0  0  0  0  0  0
  161.6610  205.7490  145.6790 C   0  0  0  0  0  2  0  0  0  0  0  0
  161.1810  204.7630  152.7600 N   0  0  0  0  0  0  0  0  0  0  0  0
  161.2710  202.5560  151.5180 C   0  0  0  0  0  2  0  0  0  0  0  0
  159.6220  203.0620  153.1410 O   0  0  0  0  0  0  0  0  0  0  0  0
  162.1440  205.4010  151.9100 C   0  0  0  0  0  3  0  0  0  0  0  0
  161.5360  204.2700  149.7130 C   0  0  0  0  0  0  0  0  0  0  0  0
  160.6330  203.4630  152.5070 C   0  0  0  0  0  0  0  0  0  0  0  0
  161.0730  203.0860  150.1420 C   0  0  0  0  0  3  0  0  0  0  0  0
  162.2900  205.1930  150.5940 C   0  0  0  0  0  3  0  0  0  0  0  0
  161.7100  206.5140  154.2020 O   0  0  0  0  0  1  0  0  0  0  0  0
  160.8320  205.4510  153.9910 C   0  0  0  0  0  2  0  0  0  0  0  0
  162.0710  212.6770  148.2230 C   0  0  0  0  0  2  0  0  0  0  0  0
  160.5410  213.5260  145.4020 C   0  0  2  0  0  3  0  0  0  0  0  0
  161.0170  214.2670  146.6220 C   0  0  0  0  0  2  0  0  0  0  0  0
  160.1070  212.2030  145.8350 N   0  0  0  0  0  2  0  0  0  0  0  0
  159.8850  212.2680  147.2240 N   0  0  0  0  0  2  0  0  0  0  0  0
  160.7610  213.3030  147.7520 C   0  0  1  0  0  3  0  0  0  0  0  0
  161.6470  213.4140  144.4040 C   0  0  0  0  0  0  0  0  0  0  0  0
  163.0360  214.2490  144.6660 S   0  0  0  0  0  0  0  0  0  0  0  0
  161.5410  212.4840  143.3220 N   0  0  0  0  0  2  0  0  0  0  0  0
  161.2610  213.1840  141.1640 C   0  0  0  0  0  1  0  0  0  0  0  0
  162.2270  212.6700  142.1150 N   0  0  0  0  0  2  0  0  0  0  0  0
  1 19  1  1  0  0  0
  1  5  1  0  0  0  0
  2  4  1  0  0  0  0
  2  1  1  0  0  0  0
  4  3  2  0  0  0  0
  5  6  1  0  0  0  0
  6  3  1  6  0  0  0
  6 11  1  0  0  0  0
  7 13  1  6  0  0  0
  8 12  1  0  0  0  0
  9  7  1  0  0  0  0
 10  9  1  0  0  0  0
 11 10  1  1  0  0  0
 11  8  1  0  0  0  0
 12  7  1  0  0  0  0
 13 15  1  0  0  0  0
 15 14  1  1  0  0  0
 16 17  1  6  0  0  0
 16 15  1  0  0  0  0
 18 16  1  0  0  0  0
 21 20  1  6  0  0  0
 21 19  1  0  0  0  0
 22 33  1  0  0  0  0
 23 22  1  6  0  0  0
 24 22  2  0  0  0  0
 25 28  1  6  0  0  0
 25 27  1  0  0  0  0
 25 23  1  0  0  0  0
 26 24  1  0  0  0  0
 27 23  1  0  0  0  0
 27 21  1  6  0  0  0
 28 26  1  0  0  0  0
 29 38  1  0  0  0  0
 30 34  1  0  0  0  0
 32 29  1  0  0  0  0
 33 35  2  0  0  0  0
 33 36  1  0  0  0  0
 34 29  1  0  0  0  0
 34 31  2  0  0  0  0
 35 30  1  0  0  0  0
 36 32  2  0  0  0  0
 38 37  1  0  0  0  0
 39  4  1  0  0  0  0
 40 45  1  6  0  0  0
 40 42  1  0  0  0  0
 40 41  1  0  0  0  0
 41 44  1  0  0  0  0
 42 43  1  0  0  0  0
 43 44  1  0  0  0  0
 44 39  1  6  0  0  0
 45 46  2  0  0  0  0
 47 45  1  0  0  0  0
 48 49  1  0  0  0  0
 49 47  1  0  0  0  0
M  END
>  <MODEL>
9

>  <REMARK>
 VINA RESULT:      -4.6      2.239      8.049
  Name = 
  14 active torsions:
  status: ('A' for Active; 'I' for Inactive)
    1  A    between atoms: C_1  and  O_22
    2  A    between atoms: C_3  and  C_9
    3  A    between atoms: C_4  and  C_47
    4  A    between atoms: C_5  and  C_28
    5  A    between atoms: C_8  and  C_18
    6  A    between atoms: C_9  and  N_48
    7  A    between atoms: N_12  and  C_42
    8  A    between atoms: C_15  and  C_25
    9  A    between atoms: C_18  and  C_47
   10  A    between atoms: O_22  and  C_38
   11  A    between atoms: C_25  and  C_45
   12  A    between atoms: C_34  and  C_49
   13  A    between atoms: C_37  and  C_38
   14  A    between atoms: N_41  and  N_48
                            x       y       z     vdW  Elec       q    Type
                         _______ _______ _______ _____ _____    ______ ____

>  <TORSDO>
F 14

$$$$
