=
 OpenBabel11042420163D

 25 27  0  0  1  0  0  0  0  0999 V2000
  160.9690  204.4670  151.8970 C   0  0  0  0  0  3  0  0  0  0  0  0
  161.1530  205.4800  150.9470 C   0  0  0  0  0  0  0  0  0  0  0  0
  161.7610  209.0570  151.2420 C   0  0  0  0  0  0  0  0  0  0  0  0
  161.3720  206.2230  148.5010 C   0  0  2  0  0  3  0  0  0  0  0  0
  161.5900  207.8330  150.4980 C   0  0  0  0  0  0  0  0  0  0  0  0
  161.3220  206.8780  151.3670 C   0  0  0  0  0  0  0  0  0  0  0  0
  160.9090  202.8120  150.1310 C   0  0  0  0  0  3  0  0  0  0  0  0
  160.6670  202.1610  152.4100 F   0  0  0  0  0  0  0  0  0  0  0  0
  161.5830  208.8060  152.5910 O   0  0  0  0  0  0  0  0  0  0  0  0
  162.0310  210.1880  150.7610 O   0  0  0  0  0  0  0  0  0  0  0  0
  162.0780  208.5080  148.2800 O   0  0  0  0  0  0  0  0  0  0  0  0
  160.8450  203.1370  151.4880 C   0  0  0  0  0  0  0  0  0  0  0  0
  161.2970  207.4180  152.7730 C   0  0  0  0  0  2  0  0  0  0  0  0
  161.2130  205.1550  149.5710 C   0  0  0  0  0  0  0  0  0  0  0  0
  161.7130  207.5860  149.0560 C   0  0  0  0  0  0  0  0  0  0  0  0
  161.0920  203.8170  149.1770 C   0  0  0  0  0  3  0  0  0  0  0  0
  160.1990  206.3100  147.7460 O   0  0  0  0  0  0  0  0  0  0  0  0
  160.6300  206.4280  146.4220 C   0  0  0  0  0  2  0  0  0  0  0  0
  161.6100  205.3170  146.0980 C   0  0  2  0  0  3  0  0  0  0  0  0
  162.6770  205.8340  145.2580 N   0  0  0  0  0  1  0  0  0  0  0  0
  160.8780  204.2030  145.3670 C   0  0  0  0  0  2  0  0  0  0  0  0
  161.4910  202.9460  145.6290 O   0  0  0  0  0  0  0  0  0  0  0  0
  159.7840  201.3340  144.9110 N   0  0  0  0  0  1  0  0  0  0  0  0
  160.9400  201.1260  146.9110 O   0  0  0  0  0  0  0  0  0  0  0  0
  160.7490  201.7850  145.8570 C   0  0  0  0  0  0  0  0  0  0  0  0
  2  6  1  0  0  0  0
  2  1  2  0  0  0  0
  3  9  1  0  0  0  0
  4 17  1  1  0  0  0
  4 15  1  0  0  0  0
  4 14  1  0  0  0  0
  5  3  1  0  0  0  0
  5  6  2  0  0  0  0
  6 13  1  0  0  0  0
  7 12  2  0  0  0  0
  9 13  1  0  0  0  0
 10  3  2  0  0  0  0
 11 15  2  0  0  0  0
 12  1  1  0  0  0  0
 12  8  1  0  0  0  0
 14  2  1  0  0  0  0
 15  5  1  0  0  0  0
 16 14  2  0  0  0  0
 16  7  1  0  0  0  0
 18 17  1  0  0  0  0
 19 20  1  6  0  0  0
 19 18  1  0  0  0  0
 21 22  1  0  0  0  0
 21 19  1  0  0  0  0
 22 25  1  0  0  0  0
 23 25  1  0  0  0  0
 25 24  2  0  0  0  0
M  END
>  <MODEL>
1

>  <REMARK>
 VINA RESULT:      -8.9      0.000      0.000
  Name = 
  6 active torsions:
  status: ('A' for Active; 'I' for Inactive)
    1  A    between atoms: C_2  and  C_21
    2  A    between atoms: C_2  and  C_25
    3  A    between atoms: C_5  and  O_18
    4  A    between atoms: O_7  and  C_17
    5  A    between atoms: O_7  and  C_21
    6  A    between atoms: O_18  and  C_25
                            x       y       z     vdW  Elec       q    Type
                         _______ _______ _______ _____ _____    ______ ____

>  <TORSDO>
F 6

$$$$
=
 OpenBabel11042420163D

 25 27  0  0  1  0  0  0  0  0999 V2000
  161.0830  202.8070  150.1000 C   0  0  0  0  0  3  0  0  0  0  0  0
  161.0880  203.8410  149.1560 C   0  0  0  0  0  0  0  0  0  0  0  0
  161.1410  203.8580  145.5160 C   0  0  0  0  0  0  0  0  0  0  0  0
  161.0140  206.3450  148.5970 C   0  0  2  0  0  3  0  0  0  0  0  0
  161.0880  204.4940  146.8090 C   0  0  0  0  0  0  0  0  0  0  0  0
  161.1760  203.5430  147.7190 C   0  0  0  0  0  0  0  0  0  0  0  0
  160.8440  204.4260  151.8830 C   0  0  0  0  0  3  0  0  0  0  0  0
  160.9590  202.0970  152.3700 F   0  0  0  0  0  0  0  0  0  0  0  0
  161.2680  202.4900  145.6780 O   0  0  0  0  0  0  0  0  0  0  0  0
  161.0830  204.4370  144.3990 O   0  0  0  0  0  0  0  0  0  0  0  0
  160.7350  206.7680  146.2500 O   0  0  0  0  0  0  0  0  0  0  0  0
  160.9640  203.1000  151.4600 C   0  0  0  0  0  0  0  0  0  0  0  0
  161.2950  202.1870  147.0740 C   0  0  0  0  0  2  0  0  0  0  0  0
  160.9720  205.1860  149.5810 C   0  0  0  0  0  0  0  0  0  0  0  0
  160.9250  205.9110  147.1520 C   0  0  0  0  0  0  0  0  0  0  0  0
  160.8490  205.4650  150.9480 C   0  0  0  0  0  3  0  0  0  0  0  0
  162.1840  207.0830  148.7890 O   0  0  0  0  0  0  0  0  0  0  0  0
  161.7620  208.4130  148.8690 C   0  0  0  0  0  2  0  0  0  0  0  0
  162.1190  208.9860  150.2270 C   0  0  2  0  0  3  0  0  0  0  0  0
  161.0930  208.6310  151.1930 N   0  0  0  0  0  1  0  0  0  0  0  0
  162.2180  210.4990  150.1210 C   0  0  0  0  0  2  0  0  0  0  0  0
  162.1160  210.9120  148.7630 O   0  0  0  0  0  0  0  0  0  0  0  0
  161.1980  213.1670  148.4420 N   0  0  0  0  0  1  0  0  0  0  0  0
  163.4020  212.6320  147.9580 O   0  0  0  0  0  0  0  0  0  0  0  0
  162.2810  212.2430  148.3720 C   0  0  0  0  0  0  0  0  0  0  0  0
  1 12  1  0  0  0  0
  2 14  1  0  0  0  0
  2  1  2  0  0  0  0
  3  9  1  0  0  0  0
  3  5  1  0  0  0  0
  4 17  1  6  0  0  0
  4 14  1  0  0  0  0
  5 15  1  0  0  0  0
  5  6  2  0  0  0  0
  6  2  1  0  0  0  0
  9 13  1  0  0  0  0
 10  3  2  0  0  0  0
 11 15  2  0  0  0  0
 12  7  2  0  0  0  0
 12  8  1  0  0  0  0
 13  6  1  0  0  0  0
 14 16  2  0  0  0  0
 15  4  1  0  0  0  0
 16  7  1  0  0  0  0
 17 18  1  0  0  0  0
 18 19  1  0  0  0  0
 19 20  1  1  0  0  0
 21 19  1  0  0  0  0
 22 21  1  0  0  0  0
 24 25  2  0  0  0  0
 25 23  1  0  0  0  0
 25 22  1  0  0  0  0
M  END
>  <MODEL>
2

>  <REMARK>
 VINA RESULT:      -8.2      2.752      6.370
  Name = 
  6 active torsions:
  status: ('A' for Active; 'I' for Inactive)
    1  A    between atoms: C_2  and  C_21
    2  A    between atoms: C_2  and  C_25
    3  A    between atoms: C_5  and  O_18
    4  A    between atoms: O_7  and  C_17
    5  A    between atoms: O_7  and  C_21
    6  A    between atoms: O_18  and  C_25
                            x       y       z     vdW  Elec       q    Type
                         _______ _______ _______ _____ _____    ______ ____

>  <TORSDO>
F 6

$$$$
=
 OpenBabel11042420163D

 25 27  0  0  1  0  0  0  0  0999 V2000
  161.0480  202.2080  148.9310 C   0  0  0  0  0  3  0  0  0  0  0  0
  161.0740  203.5240  148.4510 C   0  0  0  0  0  0  0  0  0  0  0  0
  161.2400  204.9200  145.0930 C   0  0  0  0  0  0  0  0  0  0  0  0
  160.9960  206.0520  148.8810 C   0  0  2  0  0  3  0  0  0  0  0  0
  161.1410  205.0180  146.5280 C   0  0  0  0  0  0  0  0  0  0  0  0
  161.2090  203.7920  147.0110 C   0  0  0  0  0  0  0  0  0  0  0  0
  160.7400  203.0310  151.1860 C   0  0  0  0  0  3  0  0  0  0  0  0
  160.8600  200.6910  150.7570 F   0  0  0  0  0  0  0  0  0  0  0  0
  161.3730  203.5920  144.7280 O   0  0  0  0  0  0  0  0  0  0  0  0
  161.2110  205.8790  144.2780 O   0  0  0  0  0  0  0  0  0  0  0  0
  160.7870  207.3360  146.8630 O   0  0  0  0  0  0  0  0  0  0  0  0
  160.8840  201.9640  150.2970 C   0  0  0  0  0  0  0  0  0  0  0  0
  161.3600  202.7820  145.9050 C   0  0  0  0  0  2  0  0  0  0  0  0
  160.9340  204.6070  149.3500 C   0  0  0  0  0  0  0  0  0  0  0  0
  160.9550  206.2000  147.3780 C   0  0  0  0  0  0  0  0  0  0  0  0
  160.7660  204.3460  150.7160 C   0  0  0  0  0  3  0  0  0  0  0  0
  162.1530  206.6580  149.3770 O   0  0  0  0  0  0  0  0  0  0  0  0
  161.7150  207.8500  149.9600 C   0  0  0  0  0  2  0  0  0  0  0  0
  162.0800  207.8670  151.4320 C   0  0  2  0  0  3  0  0  0  0  0  0
  162.8150  206.6600  151.7690 N   0  0  0  0  0  1  0  0  0  0  0  0
  160.8080  207.9390  152.2610 C   0  0  0  0  0  2  0  0  0  0  0  0
  160.9210  207.1240  153.4220 O   0  0  0  0  0  0  0  0  0  0  0  0
  161.3100  208.9650  155.0000 N   0  0  0  0  0  1  0  0  0  0  0  0
  160.3530  206.9500  155.6370 O   0  0  0  0  0  0  0  0  0  0  0  0
  160.8450  207.6480  154.7150 C   0  0  0  0  0  0  0  0  0  0  0  0
  1 12  1  0  0  0  0
  2  1  2  0  0  0  0
  2 14  1  0  0  0  0
  3  5  1  0  0  0  0
  4 14  1  0  0  0  0
  4 17  1  6  0  0  0
  5  6  2  0  0  0  0
  5 15  1  0  0  0  0
  6  2  1  0  0  0  0
  9  3  1  0  0  0  0
  9 13  1  0  0  0  0
 10  3  2  0  0  0  0
 11 15  2  0  0  0  0
 12  8  1  0  0  0  0
 12  7  2  0  0  0  0
 13  6  1  0  0  0  0
 14 16  2  0  0  0  0
 15  4  1  0  0  0  0
 16  7  1  0  0  0  0
 17 18  1  0  0  0  0
 18 19  1  0  0  0  0
 19 20  1  1  0  0  0
 19 21  1  0  0  0  0
 21 22  1  0  0  0  0
 22 25  1  0  0  0  0
 25 23  1  0  0  0  0
 25 24  2  0  0  0  0
M  END
>  <MODEL>
3

>  <REMARK>
 VINA RESULT:      -8.0      2.896      6.323
  Name = 
  6 active torsions:
  status: ('A' for Active; 'I' for Inactive)
    1  A    between atoms: C_2  and  C_21
    2  A    between atoms: C_2  and  C_25
    3  A    between atoms: C_5  and  O_18
    4  A    between atoms: O_7  and  C_17
    5  A    between atoms: O_7  and  C_21
    6  A    between atoms: O_18  and  C_25
                            x       y       z     vdW  Elec       q    Type
                         _______ _______ _______ _____ _____    ______ ____

>  <TORSDO>
F 6

$$$$
=
 OpenBabel11042420163D

 25 27  0  0  1  0  0  0  0  0999 V2000
  161.0060  203.0340  150.4500 C   0  0  0  0  0  3  0  0  0  0  0  0
  161.1090  204.0130  149.4530 C   0  0  0  0  0  0  0  0  0  0  0  0
  161.2820  203.8250  145.8220 C   0  0  0  0  0  0  0  0  0  0  0  0
  161.2140  206.4820  148.7600 C   0  0  2  0  0  3  0  0  0  0  0  0
  161.2280  204.5340  147.0770 C   0  0  0  0  0  0  0  0  0  0  0  0
  161.2240  203.6300  148.0380 C   0  0  0  0  0  0  0  0  0  0  0  0
  160.8130  204.7610  152.1350 C   0  0  0  0  0  3  0  0  0  0  0  0
  160.7620  202.4600  152.7490 F   0  0  0  0  0  0  0  0  0  0  0  0
  161.3150  202.4630  146.0610 O   0  0  0  0  0  0  0  0  0  0  0  0
  161.2970  204.3440  144.6750 O   0  0  0  0  0  0  0  0  0  0  0  0
  161.0400  206.7910  146.3850 O   0  0  0  0  0  0  0  0  0  0  0  0
  160.8610  203.4090  151.7880 C   0  0  0  0  0  0  0  0  0  0  0  0
  161.2770  202.2370  147.4710 C   0  0  0  0  0  2  0  0  0  0  0  0
  161.0660  205.3840  149.8020 C   0  0  0  0  0  0  0  0  0  0  0  0
  161.1450  205.9750  147.3380 C   0  0  0  0  0  0  0  0  0  0  0  0
  160.9160  205.7440  151.1470 C   0  0  0  0  0  3  0  0  0  0  0  0
  162.4220  207.1550  148.9550 O   0  0  0  0  0  0  0  0  0  0  0  0
  162.2720  208.3690  148.2800 C   0  0  0  0  0  2  0  0  0  0  0  0
  161.7520  209.4280  149.2330 C   0  0  2  0  0  3  0  0  0  0  0  0
  162.1970  210.7400  148.7970 N   0  0  0  0  0  1  0  0  0  0  0  0
  162.2830  209.1470  150.6290 C   0  0  0  0  0  2  0  0  0  0  0  0
  161.2100  209.0030  151.5530 O   0  0  0  0  0  0  0  0  0  0  0  0
  160.9020  208.3260  153.8930 N   0  0  0  0  0  1  0  0  0  0  0  0
  161.9080  210.3280  153.2900 O   0  0  0  0  0  0  0  0  0  0  0  0
  161.3580  209.2600  152.9180 C   0  0  0  0  0  0  0  0  0  0  0  0
  1 12  1  0  0  0  0
  2 14  1  0  0  0  0
  2  1  2  0  0  0  0
  3  9  1  0  0  0  0
  3  5  1  0  0  0  0
  4 17  1  6  0  0  0
  4 14  1  0  0  0  0
  5 15  1  0  0  0  0
  5  6  2  0  0  0  0
  6  2  1  0  0  0  0
  9 13  1  0  0  0  0
 10  3  2  0  0  0  0
 11 15  2  0  0  0  0
 12  7  2  0  0  0  0
 12  8  1  0  0  0  0
 13  6  1  0  0  0  0
 14 16  2  0  0  0  0
 15  4  1  0  0  0  0
 16  7  1  0  0  0  0
 18 17  1  0  0  0  0
 18 19  1  0  0  0  0
 19 20  1  6  0  0  0
 19 21  1  0  0  0  0
 21 22  1  0  0  0  0
 22 25  1  0  0  0  0
 25 24  2  0  0  0  0
 25 23  1  0  0  0  0
M  END
>  <MODEL>
4

>  <REMARK>
 VINA RESULT:      -7.8      2.651      6.063
  Name = 
  6 active torsions:
  status: ('A' for Active; 'I' for Inactive)
    1  A    between atoms: C_2  and  C_21
    2  A    between atoms: C_2  and  C_25
    3  A    between atoms: C_5  and  O_18
    4  A    between atoms: O_7  and  C_17
    5  A    between atoms: O_7  and  C_21
    6  A    between atoms: O_18  and  C_25
                            x       y       z     vdW  Elec       q    Type
                         _______ _______ _______ _____ _____    ______ ____

>  <TORSDO>
F 6

$$$$
=
 OpenBabel11042420163D

 25 27  0  0  1  0  0  0  0  0999 V2000
  162.0330  208.0330  151.5640 C   0  0  0  0  0  3  0  0  0  0  0  0
  161.6950  206.9440  150.7500 C   0  0  0  0  0  0  0  0  0  0  0  0
  160.9480  203.4570  151.4780 C   0  0  0  0  0  0  0  0  0  0  0  0
  161.1720  205.9780  148.4310 C   0  0  2  0  0  3  0  0  0  0  0  0
  161.0960  204.5890  150.5970 C   0  0  0  0  0  0  0  0  0  0  0  0
  161.5050  205.6070  151.3290 C   0  0  0  0  0  0  0  0  0  0  0  0
  161.9800  209.4990  149.6390 C   0  0  0  0  0  3  0  0  0  0  0  0
  162.5040  210.3560  151.7990 F   0  0  0  0  0  0  0  0  0  0  0  0
  161.2850  203.8280  152.7680 O   0  0  0  0  0  0  0  0  0  0  0  0
  160.5700  202.3020  151.1490 O   0  0  0  0  0  0  0  0  0  0  0  0
  160.3330  203.7300  148.5250 O   0  0  0  0  0  0  0  0  0  0  0  0
  162.1770  209.3060  151.0080 C   0  0  0  0  0  0  0  0  0  0  0  0
  161.6580  205.2070  152.7730 C   0  0  0  0  0  2  0  0  0  0  0  0
  161.5000  207.1350  149.3610 C   0  0  0  0  0  0  0  0  0  0  0  0
  160.8260  204.6990  149.1590 C   0  0  0  0  0  0  0  0  0  0  0  0
  161.6430  208.4180  148.8190 C   0  0  0  0  0  3  0  0  0  0  0  0
  162.2480  205.7470  147.5710 O   0  0  0  0  0  0  0  0  0  0  0  0
  161.7850  206.1190  146.3060 C   0  0  0  0  0  2  0  0  0  0  0  0
  162.3000  205.1460  145.2620 C   0  0  2  0  0  3  0  0  0  0  0  0
  161.5440  205.3010  144.0320 N   0  0  0  0  0  1  0  0  0  0  0  0
  162.1430  203.7260  145.7830 C   0  0  0  0  0  2  0  0  0  0  0  0
  160.9280  203.1530  145.3150 O   0  0  0  0  0  0  0  0  0  0  0  0
  161.0670  201.1460  146.7220 N   0  0  0  0  0  1  0  0  0  0  0  0
  159.8290  201.2180  144.7620 O   0  0  0  0  0  0  0  0  0  0  0  0
  160.5830  201.8230  145.5660 C   0  0  0  0  0  0  0  0  0  0  0  0
  2  6  1  0  0  0  0
  2  1  2  0  0  0  0
  3  9  1  0  0  0  0
  4 17  1  6  0  0  0
  4 15  1  0  0  0  0
  4 14  1  0  0  0  0
  5  6  2  0  0  0  0
  5  3  1  0  0  0  0
  6 13  1  0  0  0  0
  7 12  2  0  0  0  0
  9 13  1  0  0  0  0
 10  3  2  0  0  0  0
 11 15  2  0  0  0  0
 12  1  1  0  0  0  0
 12  8  1  0  0  0  0
 14  2  1  0  0  0  0
 15  5  1  0  0  0  0
 16 14  2  0  0  0  0
 16  7  1  0  0  0  0
 18 17  1  0  0  0  0
 19 20  1  6  0  0  0
 19 21  1  0  0  0  0
 19 18  1  0  0  0  0
 22 25  1  0  0  0  0
 22 21  1  0  0  0  0
 24 25  2  0  0  0  0
 25 23  1  0  0  0  0
M  END
>  <MODEL>
5

>  <REMARK>
 VINA RESULT:      -7.8      2.583      3.984
  Name = 
  6 active torsions:
  status: ('A' for Active; 'I' for Inactive)
    1  A    between atoms: C_2  and  C_21
    2  A    between atoms: C_2  and  C_25
    3  A    between atoms: C_5  and  O_18
    4  A    between atoms: O_7  and  C_17
    5  A    between atoms: O_7  and  C_21
    6  A    between atoms: O_18  and  C_25
                            x       y       z     vdW  Elec       q    Type
                         _______ _______ _______ _____ _____    ______ ____

>  <TORSDO>
F 6

$$$$
=
 OpenBabel11042420163D

 25 27  0  0  1  0  0  0  0  0999 V2000
  160.8490  204.8290  152.9880 C   0  0  0  0  0  3  0  0  0  0  0  0
  161.1860  206.0780  152.4500 C   0  0  0  0  0  0  0  0  0  0  0  0
  161.2120  209.4390  153.8460 C   0  0  0  0  0  0  0  0  0  0  0  0
  162.0520  207.4990  150.4960 C   0  0  2  0  0  3  0  0  0  0  0  0
  161.4370  208.4750  152.7980 C   0  0  0  0  0  0  0  0  0  0  0  0
  161.0380  207.3020  153.2500 C   0  0  0  0  0  0  0  0  0  0  0  0
  161.5470  203.7490  150.9370 C   0  0  0  0  0  3  0  0  0  0  0  0
  160.6990  202.4640  152.7540 F   0  0  0  0  0  0  0  0  0  0  0  0
  160.6610  208.8060  154.9460 O   0  0  0  0  0  0  0  0  0  0  0  0
  161.4720  210.6700  153.7940 O   0  0  0  0  0  0  0  0  0  0  0  0
  162.4950  209.7740  151.1230 O   0  0  0  0  0  0  0  0  0  0  0  0
  161.0270  203.6690  152.2310 C   0  0  0  0  0  0  0  0  0  0  0  0
  160.5120  207.4150  154.6570 C   0  0  0  0  0  2  0  0  0  0  0  0
  161.7090  206.1640  151.1370 C   0  0  0  0  0  0  0  0  0  0  0  0
  162.0290  208.6570  151.4670 C   0  0  0  0  0  0  0  0  0  0  0  0
  161.8860  204.9910  150.3920 C   0  0  0  0  0  3  0  0  0  0  0  0
  161.1680  207.7560  149.4460 O   0  0  0  0  0  0  0  0  0  0  0  0
  161.9630  207.7510  148.2960 C   0  0  0  0  0  2  0  0  0  0  0  0
  161.3270  206.8740  147.2340 C   0  0  2  0  0  3  0  0  0  0  0  0
  160.1470  206.2240  147.7780 N   0  0  0  0  0  1  0  0  0  0  0  0
  162.3300  205.8230  146.7880 C   0  0  0  0  0  2  0  0  0  0  0  0
  162.4490  205.8150  145.3700 O   0  0  0  0  0  0  0  0  0  0  0  0
  161.0990  203.8070  144.9500 N   0  0  0  0  0  1  0  0  0  0  0  0
  161.2170  205.5740  143.4510 O   0  0  0  0  0  0  0  0  0  0  0  0
  161.5810  205.0880  144.5520 C   0  0  0  0  0  0  0  0  0  0  0  0
  2  1  1  0  0  0  0
  2  6  1  0  0  0  0
  3  9  1  0  0  0  0
  4 17  1  6  0  0  0
  4 14  1  0  0  0  0
  4 15  1  0  0  0  0
  5  6  2  0  0  0  0
  5  3  1  0  0  0  0
  6 13  1  0  0  0  0
  7 12  1  0  0  0  0
 10  3  2  0  0  0  0
 11 15  2  0  0  0  0
 12  8  1  0  0  0  0
 12  1  2  0  0  0  0
 13  9  1  0  0  0  0
 14  2  2  0  0  0  0
 15  5  1  0  0  0  0
 16  7  2  0  0  0  0
 16 14  1  0  0  0  0
 18 17  1  0  0  0  0
 19 20  1  1  0  0  0
 19 18  1  0  0  0  0
 21 19  1  0  0  0  0
 22 21  1  0  0  0  0
 24 25  2  0  0  0  0
 25 23  1  0  0  0  0
 25 22  1  0  0  0  0
M  END
>  <MODEL>
6

>  <REMARK>
 VINA RESULT:      -7.7      1.946      2.629
  Name = 
  6 active torsions:
  status: ('A' for Active; 'I' for Inactive)
    1  A    between atoms: C_2  and  C_21
    2  A    between atoms: C_2  and  C_25
    3  A    between atoms: C_5  and  O_18
    4  A    between atoms: O_7  and  C_17
    5  A    between atoms: O_7  and  C_21
    6  A    between atoms: O_18  and  C_25
                            x       y       z     vdW  Elec       q    Type
                         _______ _______ _______ _____ _____    ______ ____

>  <TORSDO>
F 6

$$$$
=
 OpenBabel11042420163D

 25 27  0  0  1  0  0  0  0  0999 V2000
  160.9430  207.9090  153.4720 C   0  0  0  0  0  3  0  0  0  0  0  0
  161.2890  207.7770  152.1210 C   0  0  0  0  0  0  0  0  0  0  0  0
  161.9570  210.2100  149.4970 C   0  0  0  0  0  0  0  0  0  0  0  0
  161.8710  206.2960  150.1080 C   0  0  2  0  0  3  0  0  0  0  0  0
  161.8550  208.8700  150.0200 C   0  0  0  0  0  0  0  0  0  0  0  0
  161.4390  208.9640  151.2680 C   0  0  0  0  0  0  0  0  0  0  0  0
  161.0820  205.5080  153.7500 C   0  0  0  0  0  3  0  0  0  0  0  0
  160.5020  206.9070  155.5880 F   0  0  0  0  0  0  0  0  0  0  0  0
  161.5840  211.1160  150.4740 O   0  0  0  0  0  0  0  0  0  0  0  0
  162.3260  210.5300  148.3370 O   0  0  0  0  0  0  0  0  0  0  0  0
  162.6700  207.5550  148.2250 O   0  0  0  0  0  0  0  0  0  0  0  0
  160.8370  206.7760  154.2830 C   0  0  0  0  0  0  0  0  0  0  0  0
  161.2340  210.4030  151.6620 C   0  0  0  0  0  2  0  0  0  0  0  0
  161.5320  206.4940  151.5770 C   0  0  0  0  0  0  0  0  0  0  0  0
  162.1720  207.5870  149.3810 C   0  0  0  0  0  0  0  0  0  0  0  0
  161.4270  205.3670  152.4030 C   0  0  0  0  0  3  0  0  0  0  0  0
  160.8200  205.6370  149.4670 O   0  0  0  0  0  0  0  0  0  0  0  0
  161.2060  204.2950  149.4280 C   0  0  0  0  0  2  0  0  0  0  0  0
  160.9980  203.7400  148.0310 C   0  0  2  0  0  3  0  0  0  0  0  0
  161.0810  202.2890  148.0630 N   0  0  0  0  0  1  0  0  0  0  0  0
  162.0710  204.2930  147.1090 C   0  0  0  0  0  2  0  0  0  0  0  0
  161.6510  204.2170  145.7510 O   0  0  0  0  0  0  0  0  0  0  0  0
  160.4560  206.3610  145.6820 N   0  0  0  0  0  1  0  0  0  0  0  0
  161.4880  205.4420  143.8190 O   0  0  0  0  0  0  0  0  0  0  0  0
  161.2100  205.3360  145.0410 C   0  0  0  0  0  0  0  0  0  0  0  0
  1 12  1  0  0  0  0
  2  1  2  0  0  0  0
  3  5  1  0  0  0  0
  3  9  1  0  0  0  0
  4 17  1  6  0  0  0
  4 14  1  0  0  0  0
  5  6  2  0  0  0  0
  6 13  1  0  0  0  0
  6  2  1  0  0  0  0
  7 12  2  0  0  0  0
  9 13  1  0  0  0  0
 10  3  2  0  0  0  0
 11 15  2  0  0  0  0
 12  8  1  0  0  0  0
 14  2  1  0  0  0  0
 14 16  2  0  0  0  0
 15  5  1  0  0  0  0
 15  4  1  0  0  0  0
 16  7  1  0  0  0  0
 18 17  1  0  0  0  0
 19 20  1  1  0  0  0
 19 18  1  0  0  0  0
 21 19  1  0  0  0  0
 22 21  1  0  0  0  0
 24 25  2  0  0  0  0
 25 23  1  0  0  0  0
 25 22  1  0  0  0  0
M  END
>  <MODEL>
7

>  <REMARK>
 VINA RESULT:      -7.7      2.120      3.324
  Name = 
  6 active torsions:
  status: ('A' for Active; 'I' for Inactive)
    1  A    between atoms: C_2  and  C_21
    2  A    between atoms: C_2  and  C_25
    3  A    between atoms: C_5  and  O_18
    4  A    between atoms: O_7  and  C_17
    5  A    between atoms: O_7  and  C_21
    6  A    between atoms: O_18  and  C_25
                            x       y       z     vdW  Elec       q    Type
                         _______ _______ _______ _____ _____    ______ ____

>  <TORSDO>
F 6

$$$$
=
 OpenBabel11042420163D

 25 27  0  0  1  0  0  0  0  0999 V2000
  161.0870  207.5330  153.2040 C   0  0  0  0  0  3  0  0  0  0  0  0
  161.3770  207.6350  151.8370 C   0  0  0  0  0  0  0  0  0  0  0  0
  161.9710  210.4810  149.6470 C   0  0  0  0  0  0  0  0  0  0  0  0
  161.8570  206.5210  149.5760 C   0  0  2  0  0  3  0  0  0  0  0  0
  161.8730  209.0710  149.9340 C   0  0  0  0  0  0  0  0  0  0  0  0
  161.5090  208.9510  151.1960 C   0  0  0  0  0  0  0  0  0  0  0  0
  161.2050  205.1200  153.0570 C   0  0  0  0  0  3  0  0  0  0  0  0
  160.7190  206.1840  155.1320 F   0  0  0  0  0  0  0  0  0  0  0  0
  161.6500  211.2070  150.7800 O   0  0  0  0  0  0  0  0  0  0  0  0
  162.2970  210.9950  148.5450 O   0  0  0  0  0  0  0  0  0  0  0  0
  162.5970  208.0820  147.9070 O   0  0  0  0  0  0  0  0  0  0  0  0
  160.9990  206.2780  153.8100 C   0  0  0  0  0  0  0  0  0  0  0  0
  161.3390  210.3010  151.8400 C   0  0  0  0  0  2  0  0  0  0  0  0
  161.5800  206.4640  151.0700 C   0  0  0  0  0  0  0  0  0  0  0  0
  162.1460  207.9160  149.0700 C   0  0  0  0  0  0  0  0  0  0  0  0
  161.4930  205.2120  151.6920 C   0  0  0  0  0  3  0  0  0  0  0  0
  160.7720  205.9900  148.8760 O   0  0  0  0  0  0  0  0  0  0  0  0
  161.2880  204.8820  148.1970 C   0  0  0  0  0  2  0  0  0  0  0  0
  161.5480  205.2420  146.7470 C   0  0  2  0  0  3  0  0  0  0  0  0
  160.4480  206.0420  146.2360 N   0  0  0  0  0  1  0  0  0  0  0  0
  161.6750  203.9670  145.9300 C   0  0  0  0  0  2  0  0  0  0  0  0
  161.3290  202.8330  146.7170 O   0  0  0  0  0  0  0  0  0  0  0  0
  160.0310  201.6860  144.9780 N   0  0  0  0  0  1  0  0  0  0  0  0
  161.1070  200.5500  146.6910 O   0  0  0  0  0  0  0  0  0  0  0  0
  160.8340  201.6540  146.1540 C   0  0  0  0  0  0  0  0  0  0  0  0
  1 12  1  0  0  0  0
  2  1  2  0  0  0  0
  3  5  1  0  0  0  0
  3  9  1  0  0  0  0
  4 17  1  6  0  0  0
  4 14  1  0  0  0  0
  5  6  2  0  0  0  0
  6  2  1  0  0  0  0
  6 13  1  0  0  0  0
  7 12  2  0  0  0  0
  9 13  1  0  0  0  0
 10  3  2  0  0  0  0
 11 15  2  0  0  0  0
 12  8  1  0  0  0  0
 14 16  2  0  0  0  0
 14  2  1  0  0  0  0
 15  4  1  0  0  0  0
 15  5  1  0  0  0  0
 16  7  1  0  0  0  0
 18 17  1  0  0  0  0
 19 20  1  6  0  0  0
 19 18  1  0  0  0  0
 21 22  1  0  0  0  0
 21 19  1  0  0  0  0
 23 25  1  0  0  0  0
 25 24  2  0  0  0  0
 25 22  1  0  0  0  0
M  END
>  <MODEL>
8

>  <REMARK>
 VINA RESULT:      -7.6      1.681      2.334
  Name = 
  6 active torsions:
  status: ('A' for Active; 'I' for Inactive)
    1  A    between atoms: C_2  and  C_21
    2  A    between atoms: C_2  and  C_25
    3  A    between atoms: C_5  and  O_18
    4  A    between atoms: O_7  and  C_17
    5  A    between atoms: O_7  and  C_21
    6  A    between atoms: O_18  and  C_25
                            x       y       z     vdW  Elec       q    Type
                         _______ _______ _______ _____ _____    ______ ____

>  <TORSDO>
F 6

$$$$
=
 OpenBabel11042420163D

 25 27  0  0  1  0  0  0  0  0999 V2000
  161.2940  203.7710  146.6480 C   0  0  0  0  0  3  0  0  0  0  0  0
  161.3610  204.2760  147.9520 C   0  0  0  0  0  0  0  0  0  0  0  0
  160.8110  202.7610  151.2160 C   0  0  0  0  0  0  0  0  0  0  0  0
  161.8490  206.2100  149.5670 C   0  0  2  0  0  3  0  0  0  0  0  0
  161.1660  203.8520  150.3430 C   0  0  0  0  0  0  0  0  0  0  0  0
  161.0200  203.4270  149.1030 C   0  0  0  0  0  0  0  0  0  0  0  0
  162.0890  205.8860  145.7800 C   0  0  0  0  0  3  0  0  0  0  0  0
  161.5870  204.0840  144.3050 F   0  0  0  0  0  0  0  0  0  0  0  0
  160.4420  201.6630  150.4580 O   0  0  0  0  0  0  0  0  0  0  0  0
  160.8280  202.7790  152.4750 O   0  0  0  0  0  0  0  0  0  0  0  0
  161.8790  205.5190  151.8670 O   0  0  0  0  0  0  0  0  0  0  0  0
  161.6540  204.5760  145.5650 C   0  0  0  0  0  0  0  0  0  0  0  0
  160.5480  201.9970  149.0730 C   0  0  0  0  0  2  0  0  0  0  0  0
  161.7960  205.6040  148.1730 C   0  0  0  0  0  0  0  0  0  0  0  0
  161.6510  205.1980  150.6710 C   0  0  0  0  0  0  0  0  0  0  0  0
  162.1590  206.3980  147.0780 C   0  0  0  0  0  3  0  0  0  0  0  0
  160.8840  207.2140  149.6790 O   0  0  0  0  0  0  0  0  0  0  0  0
  161.5860  208.4100  149.4990 C   0  0  0  0  0  2  0  0  0  0  0  0
  161.8690  209.0490  150.8460 C   0  0  2  0  0  3  0  0  0  0  0  0
  160.7830  208.7550  151.7660 N   0  0  0  0  0  1  0  0  0  0  0  0
  161.9950  210.5530  150.6680 C   0  0  0  0  0  2  0  0  0  0  0  0
  162.1930  210.8790  149.2970 O   0  0  0  0  0  0  0  0  0  0  0  0
  162.5540  212.6410  147.6260 N   0  0  0  0  0  1  0  0  0  0  0  0
  160.9850  212.8290  149.3250 O   0  0  0  0  0  0  0  0  0  0  0  0
  161.8790  212.1370  148.7750 C   0  0  0  0  0  0  0  0  0  0  0  0
  1  2  1  0  0  0  0
  2 14  2  0  0  0  0
  2  6  1  0  0  0  0
  3 10  2  0  0  0  0
  4 17  1  6  0  0  0
  4 15  1  0  0  0  0
  5 15  1  0  0  0  0
  5  3  1  0  0  0  0
  6  5  2  0  0  0  0
  7 16  2  0  0  0  0
  8 12  1  0  0  0  0
  9  3  1  0  0  0  0
 12  7  1  0  0  0  0
 12  1  2  0  0  0  0
 13  6  1  0  0  0  0
 13  9  1  0  0  0  0
 14  4  1  0  0  0  0
 15 11  2  0  0  0  0
 16 14  1  0  0  0  0
 18 17  1  0  0  0  0
 18 19  1  0  0  0  0
 19 20  1  1  0  0  0
 21 19  1  0  0  0  0
 22 21  1  0  0  0  0
 23 25  1  0  0  0  0
 25 22  1  0  0  0  0
 25 24  2  0  0  0  0
M  END
>  <MODEL>
9

>  <REMARK>
 VINA RESULT:      -7.6      3.559      6.680
  Name = 
  6 active torsions:
  status: ('A' for Active; 'I' for Inactive)
    1  A    between atoms: C_2  and  C_21
    2  A    between atoms: C_2  and  C_25
    3  A    between atoms: C_5  and  O_18
    4  A    between atoms: O_7  and  C_17
    5  A    between atoms: O_7  and  C_21
    6  A    between atoms: O_18  and  C_25
                            x       y       z     vdW  Elec       q    Type
                         _______ _______ _______ _____ _____    ______ ____

>  <TORSDO>
F 6

$$$$
