=
 OpenBabel11052411423D

 42 46  0  0  1  0  0  0  0  0999 V2000
  159.4760  211.3620  155.1810 C   0  0  0  0  0  0  0  0  0  0  0  0
  160.3620  210.4010  155.1430 N   0  0  0  0  0  0  0  0  0  0  0  0
  159.0050  214.1030  152.6190 C   0  0  0  0  0  3  0  0  0  0  0  0
  159.4840  213.4150  153.6580 C   0  0  0  0  0  3  0  0  0  0  0  0
  157.7560  212.1030  151.9140 N   0  0  0  0  0  2  0  0  0  0  0  0
  157.8790  213.5580  151.7810 C   0  0  2  0  0  3  0  0  0  0  0  0
  158.9860  212.0610  153.9750 C   0  0  0  0  0  0  0  0  0  0  0  0
  158.2010  211.4270  153.0950 C   0  0  0  0  0  3  0  0  0  0  0  0
  157.0110  213.2230  149.4450 C   0  0  0  0  0  2  0  0  0  0  0  0
  157.5590  213.1680  148.1060 N   0  0  0  0  0  2  0  0  0  0  0  0
  159.6010  213.4480  147.0110 O   0  0  0  0  0  0  0  0  0  0  0  0
  159.7020  213.7210  149.6650 S   0  0  0  0  0  0  0  0  0  0  0  0
  158.9520  213.4060  148.0880 C   0  0  0  0  0  0  0  0  0  0  0  0
  158.0100  213.9800  150.3220 C   0  0  2  0  0  3  0  0  0  0  0  0
  162.1840  209.6680  151.9380 C   0  0  0  0  0  3  0  0  0  0  0  0
  160.9000  207.7260  152.6010 C   0  0  0  0  0  3  0  0  0  0  0  0
  161.7360  210.3490  153.0730 C   0  0  0  0  0  3  0  0  0  0  0  0
  160.4550  208.4070  153.7380 C   0  0  0  0  0  3  0  0  0  0  0  0
  161.7630  208.3560  151.7000 C   0  0  0  0  0  0  0  0  0  0  0  0
  160.8870  209.7150  153.9950 C   0  0  0  0  0  0  0  0  0  0  0  0
  162.2760  207.6170  150.5150 C   0  0  0  0  0  2  0  0  0  0  0  0
  161.7020  206.3340  150.4750 O   0  0  0  0  0  0  0  0  0  0  0  0
  161.5340  204.5950  145.0430 C   0  0  0  0  0  1  0  0  0  0  0  0
  161.9260  205.7680  149.2010 C   0  0  1  0  0  3  0  0  0  0  0  0
  161.2530  205.1900  146.4060 C   0  0  2  0  0  3  0  0  0  0  0  0
  162.3460  206.1900  146.7550 C   0  0  0  0  0  2  0  0  0  0  0  0
  160.9330  204.6310  148.8400 C   0  0  1  0  0  3  0  0  0  0  0  0
  162.0470  206.8340  148.1020 C   0  0  0  0  0  2  0  0  0  0  0  0
  161.2270  204.0760  147.4460 C   0  0  0  0  0  2  0  0  0  0  0  0
  160.3610  203.8300  151.0490 O   0  0  0  0  0  1  0  0  0  0  0  0
  160.9610  203.4700  149.8390 C   0  0  1  0  0  3  0  0  0  0  0  0
  161.1440  200.9990  149.5580 C   0  0  0  0  0  1  0  0  0  0  0  0
  160.3030  202.2260  149.2650 C   0  0  0  0  0  2  0  0  0  0  0  0
  158.9790  211.8450  156.5130 C   0  0  2  0  0  3  0  0  0  0  0  0
  160.8140  213.3440  157.0860 O   0  0  0  0  0  0  0  0  0  0  0  0
  157.5670  212.1950  156.4330 N   0  0  0  0  0  0  0  0  0  0  0  0
  158.6060  214.1610  157.0190 N   0  0  0  0  0  2  0  0  0  0  0  0
  159.5860  213.1480  156.8850 C   0  0  0  0  0  0  0  0  0  0  0  0
  157.4100  213.4490  156.7240 C   0  0  0  0  0  0  0  0  0  0  0  0
  156.0730  214.0990  156.7170 C   0  0  0  0  0  2  0  0  0  0  0  0
  155.2810  213.5390  155.7150 O   0  0  0  0  0  0  0  0  0  0  0  0
  155.5840  214.2800  154.5760 C   0  0  0  0  0  1  0  0  0  0  0  0
  2  1  2  0  0  0  0
  3  4  2  0  0  0  0
  4  7  1  0  0  0  0
  5  8  1  0  0  0  0
  6  5  1  0  0  0  0
  6  3  1  1  0  0  0
  7  1  1  0  0  0  0
  8  7  2  0  0  0  0
 10  9  1  0  0  0  0
 11 13  2  0  0  0  0
 12 14  1  0  0  0  0
 13 10  1  0  0  0  0
 13 12  1  0  0  0  0
 14  9  1  6  0  0  0
 14  6  1  0  0  0  0
 15 17  1  0  0  0  0
 16 18  2  0  0  0  0
 17 20  2  0  0  0  0
 18 20  1  0  0  0  0
 19 15  2  0  0  0  0
 19 16  1  0  0  0  0
 20  2  1  0  0  0  0
 21 19  1  0  0  0  0
 22 21  1  0  0  0  0
 24 22  1  1  0  0  0
 25 23  1  6  0  0  0
 25 26  1  0  0  0  0
 25 29  1  0  0  0  0
 26 28  1  0  0  0  0
 27 24  1  0  0  0  0
 27 31  1  1  0  0  0
 28 24  1  0  0  0  0
 29 27  1  0  0  0  0
 31 30  1  1  0  0  0
 33 32  1  0  0  0  0
 33 31  1  0  0  0  0
 34  1  1  6  0  0  0
 34 38  1  0  0  0  0
 36 34  1  0  0  0  0
 36 39  2  0  0  0  0
 38 37  1  0  0  0  0
 38 35  2  0  0  0  0
 39 37  1  0  0  0  0
 40 39  1  0  0  0  0
 41 40  1  0  0  0  0
 42 41  1  0  0  0  0
M  END
>  <MODEL>
1

>  <REMARK>
 VINA RESULT:      -7.0      0.000      0.000
  Name = 
  11 active torsions:
  status: ('A' for Active; 'I' for Inactive)
    1  A    between atoms: C_7  and  C_17
    2  A    between atoms: C_7  and  C_20
    3  A    between atoms: O_8  and  C_34
    4  A    between atoms: C_9  and  O_37
    5  A    between atoms: C_15  and  C_29
    6  A    between atoms: C_15  and  O_37
    7  A    between atoms: C_18  and  C_35
    8  A    between atoms: C_24  and  C_26
    9  A    between atoms: C_24  and  C_31
   10  A    between atoms: C_34  and  C_41
   11  A    between atoms: N_40  and  C_42
                            x       y       z     vdW  Elec       q    Type
                         _______ _______ _______ _____ _____    ______ ____

>  <TORSDO>
F 11

$$$$
=
 OpenBabel11052411423D

 42 46  0  0  1  0  0  0  0  0999 V2000
  159.6470  210.9560  154.9660 C   0  0  0  0  0  0  0  0  0  0  0  0
  160.4190  209.9070  154.8480 N   0  0  0  0  0  0  0  0  0  0  0  0
  159.6290  213.7290  152.3950 C   0  0  0  0  0  3  0  0  0  0  0  0
  160.0320  212.9250  153.3810 C   0  0  0  0  0  3  0  0  0  0  0  0
  157.7620  212.1880  151.9480 N   0  0  0  0  0  2  0  0  0  0  0  0
  158.2830  213.5440  151.7450 C   0  0  2  0  0  3  0  0  0  0  0  0
  159.2120  211.7750  153.8160 C   0  0  0  0  0  0  0  0  0  0  0  0
  158.1570  211.4060  153.0780 C   0  0  0  0  0  3  0  0  0  0  0  0
  157.3040  213.0930  149.4740 C   0  0  0  0  0  2  0  0  0  0  0  0
  157.7810  213.0090  148.1080 N   0  0  0  0  0  2  0  0  0  0  0  0
  159.7470  213.3240  146.8930 O   0  0  0  0  0  0  0  0  0  0  0  0
  159.9810  213.6980  149.5260 S   0  0  0  0  0  0  0  0  0  0  0  0
  159.1600  213.2970  148.0050 C   0  0  0  0  0  0  0  0  0  0  0  0
  158.3190  213.9180  150.2660 C   0  0  2  0  0  3  0  0  0  0  0  0
  161.1570  207.2200  152.3270 C   0  0  0  0  0  3  0  0  0  0  0  0
  161.9780  209.3450  151.5080 C   0  0  0  0  0  3  0  0  0  0  0  0
  160.6890  207.8490  153.4830 C   0  0  0  0  0  3  0  0  0  0  0  0
  161.5060  209.9740  152.6640 C   0  0  0  0  0  3  0  0  0  0  0  0
  161.8050  207.9680  151.3390 C   0  0  0  0  0  0  0  0  0  0  0  0
  160.8370  209.2360  153.6500 C   0  0  0  0  0  0  0  0  0  0  0  0
  162.2640  207.3050  150.0890 C   0  0  0  0  0  2  0  0  0  0  0  0
  161.2100  207.2700  149.1600 O   0  0  0  0  0  0  0  0  0  0  0  0
  161.0980  201.6080  148.4610 C   0  0  0  0  0  1  0  0  0  0  0  0
  160.9150  205.9240  148.8470 C   0  0  1  0  0  3  0  0  0  0  0  0
  161.4530  203.0430  148.7840 C   0  0  2  0  0  3  0  0  0  0  0  0
  160.4100  203.6220  149.7290 C   0  0  0  0  0  2  0  0  0  0  0  0
  161.8540  205.3140  147.7730 C   0  0  1  0  0  3  0  0  0  0  0  0
  160.7850  205.0490  150.1030 C   0  0  0  0  0  2  0  0  0  0  0  0
  161.4840  203.8560  147.4950 C   0  0  0  0  0  2  0  0  0  0  0  0
  162.8130  205.6130  145.5730 O   0  0  0  0  0  1  0  0  0  0  0  0
  161.8260  206.0800  146.4470 C   0  0  1  0  0  3  0  0  0  0  0  0
  160.5340  205.2530  144.4820 C   0  0  0  0  0  1  0  0  0  0  0  0
  160.4570  206.0110  145.7920 C   0  0  0  0  0  2  0  0  0  0  0  0
  159.2370  211.4120  156.3360 C   0  0  2  0  0  3  0  0  0  0  0  0
  161.4090  212.1460  157.1640 O   0  0  0  0  0  0  0  0  0  0  0  0
  158.0210  212.2140  156.2640 N   0  0  0  0  0  0  0  0  0  0  0  0
  159.5920  213.6430  157.1440 N   0  0  0  0  0  2  0  0  0  0  0  0
  160.2020  212.3890  156.9010 C   0  0  0  0  0  0  0  0  0  0  0  0
  158.2550  213.4040  156.7200 C   0  0  0  0  0  0  0  0  0  0  0  0
  157.2020  214.4530  156.7630 C   0  0  0  0  0  2  0  0  0  0  0  0
  156.3060  214.2660  155.7110 O   0  0  0  0  0  0  0  0  0  0  0  0
  155.0640  214.1400  156.3290 C   0  0  0  0  0  1  0  0  0  0  0  0
  2  1  2  0  0  0  0
  3  4  2  0  0  0  0
  4  7  1  0  0  0  0
  5  8  1  0  0  0  0
  6  5  1  0  0  0  0
  6  3  1  6  0  0  0
  7  1  1  0  0  0  0
  8  7  2  0  0  0  0
 10  9  1  0  0  0  0
 11 13  2  0  0  0  0
 12 14  1  0  0  0  0
 13 10  1  0  0  0  0
 13 12  1  0  0  0  0
 14  9  1  6  0  0  0
 14  6  1  0  0  0  0
 15 17  1  0  0  0  0
 16 18  2  0  0  0  0
 17 20  2  0  0  0  0
 18 20  1  0  0  0  0
 19 16  1  0  0  0  0
 19 15  2  0  0  0  0
 20  2  1  0  0  0  0
 21 19  1  0  0  0  0
 22 21  1  0  0  0  0
 24 22  1  1  0  0  0
 24 28  1  0  0  0  0
 25 23  1  6  0  0  0
 25 26  1  0  0  0  0
 26 28  1  0  0  0  0
 27 31  1  6  0  0  0
 27 24  1  0  0  0  0
 29 27  1  0  0  0  0
 29 25  1  0  0  0  0
 31 30  1  6  0  0  0
 32 33  1  0  0  0  0
 33 31  1  0  0  0  0
 34  1  1  6  0  0  0
 34 38  1  0  0  0  0
 36 34  1  0  0  0  0
 36 39  2  0  0  0  0
 38 37  1  0  0  0  0
 38 35  2  0  0  0  0
 39 40  1  0  0  0  0
 39 37  1  0  0  0  0
 41 42  1  0  0  0  0
 41 40  1  0  0  0  0
M  END
>  <MODEL>
2

>  <REMARK>
 VINA RESULT:      -7.0      1.145      2.361
  Name = 
  11 active torsions:
  status: ('A' for Active; 'I' for Inactive)
    1  A    between atoms: C_7  and  C_17
    2  A    between atoms: C_7  and  C_20
    3  A    between atoms: O_8  and  C_34
    4  A    between atoms: C_9  and  O_37
    5  A    between atoms: C_15  and  C_29
    6  A    between atoms: C_15  and  O_37
    7  A    between atoms: C_18  and  C_35
    8  A    between atoms: C_24  and  C_26
    9  A    between atoms: C_24  and  C_31
   10  A    between atoms: C_34  and  C_41
   11  A    between atoms: N_40  and  C_42
                            x       y       z     vdW  Elec       q    Type
                         _______ _______ _______ _____ _____    ______ ____

>  <TORSDO>
F 11

$$$$
=
 OpenBabel11052411423D

 42 46  0  0  1  0  0  0  0  0999 V2000
  159.5730  212.4400  152.6360 C   0  0  0  0  0  0  0  0  0  0  0  0
  160.2690  211.3630  152.8910 N   0  0  0  0  0  0  0  0  0  0  0  0
  160.4330  214.2020  149.4020 C   0  0  0  0  0  3  0  0  0  0  0  0
  160.5650  213.6230  150.5980 C   0  0  0  0  0  3  0  0  0  0  0  0
  158.1340  213.3330  149.2730 N   0  0  0  0  0  2  0  0  0  0  0  0
  159.0850  214.3120  148.7380 C   0  0  2  0  0  3  0  0  0  0  0  0
  159.4120  212.9960  151.2770 C   0  0  0  0  0  0  0  0  0  0  0  0
  158.2700  212.8170  150.6000 C   0  0  0  0  0  3  0  0  0  0  0  0
  157.8280  213.9710  146.5880 C   0  0  0  0  0  2  0  0  0  0  0  0
  158.0430  213.2920  145.3270 N   0  0  0  0  0  2  0  0  0  0  0  0
  159.7100  212.0910  144.2200 O   0  0  0  0  0  0  0  0  0  0  0  0
  160.3510  212.8950  146.6840 S   0  0  0  0  0  0  0  0  0  0  0  0
  159.3180  212.6870  145.2570 C   0  0  0  0  0  0  0  0  0  0  0  0
  159.1990  214.2160  147.2200 C   0  0  2  0  0  3  0  0  0  0  0  0
  161.9940  209.9000  149.8900 C   0  0  0  0  0  3  0  0  0  0  0  0
  161.1190  208.1140  151.2690 C   0  0  0  0  0  3  0  0  0  0  0  0
  161.5020  210.8410  150.7980 C   0  0  0  0  0  3  0  0  0  0  0  0
  160.6290  209.0560  152.1790 C   0  0  0  0  0  3  0  0  0  0  0  0
  161.8000  208.5360  150.1230 C   0  0  0  0  0  0  0  0  0  0  0  0
  160.8370  210.4250  151.9640 C   0  0  0  0  0  0  0  0  0  0  0  0
  162.3630  207.5340  149.1780 C   0  0  0  0  0  2  0  0  0  0  0  0
  161.4160  207.2440  148.1800 O   0  0  0  0  0  0  0  0  0  0  0  0
  160.8520  201.6910  149.3630 C   0  0  0  0  0  1  0  0  0  0  0  0
  161.0320  205.8890  148.2880 C   0  0  1  0  0  3  0  0  0  0  0  0
  161.3020  203.1300  149.2430 C   0  0  2  0  0  3  0  0  0  0  0  0
  160.2210  204.0460  149.7980 C   0  0  0  0  0  2  0  0  0  0  0  0
  162.0210  204.9050  147.6080 C   0  0  1  0  0  3  0  0  0  0  0  0
  160.6850  205.4950  149.7320 C   0  0  0  0  0  2  0  0  0  0  0  0
  161.5490  203.4600  147.7760 C   0  0  0  0  0  2  0  0  0  0  0  0
  162.6760  204.0450  145.4450 O   0  0  0  0  0  1  0  0  0  0  0  0
  162.2100  205.1810  146.1130 C   0  0  1  0  0  3  0  0  0  0  0  0
  160.4930  204.7640  144.3550 C   0  0  0  0  0  1  0  0  0  0  0  0
  160.9290  205.6890  145.4740 C   0  0  0  0  0  2  0  0  0  0  0  0
  158.9680  213.2060  153.7760 C   0  0  2  0  0  3  0  0  0  0  0  0
  156.6480  212.5020  153.5240 O   0  0  0  0  0  0  0  0  0  0  0  0
  159.7890  213.0730  154.9730 N   0  0  0  0  0  0  0  0  0  0  0  0
  157.7620  212.1660  155.5710 N   0  0  0  0  0  2  0  0  0  0  0  0
  157.6880  212.6010  154.2260 C   0  0  0  0  0  0  0  0  0  0  0  0
  159.0970  212.5180  155.9180 C   0  0  0  0  0  0  0  0  0  0  0  0
  159.6740  212.2420  157.2600 C   0  0  0  0  0  2  0  0  0  0  0  0
  160.4540  211.0880  157.2100 O   0  0  0  0  0  0  0  0  0  0  0  0
  161.7660  211.5520  157.2570 C   0  0  0  0  0  1  0  0  0  0  0  0
  1  2  2  0  0  0  0
  3  4  2  0  0  0  0
  4  7  1  0  0  0  0
  5  8  1  0  0  0  0
  6  5  1  0  0  0  0
  6  3  1  1  0  0  0
  7  1  1  0  0  0  0
  8  7  2  0  0  0  0
 10  9  1  0  0  0  0
 11 13  2  0  0  0  0
 12 14  1  0  0  0  0
 13 10  1  0  0  0  0
 13 12  1  0  0  0  0
 14  9  1  6  0  0  0
 14  6  1  0  0  0  0
 15 19  2  0  0  0  0
 15 17  1  0  0  0  0
 16 18  2  0  0  0  0
 17 20  2  0  0  0  0
 19 16  1  0  0  0  0
 20 18  1  0  0  0  0
 20  2  1  0  0  0  0
 21 19  1  0  0  0  0
 22 21  1  0  0  0  0
 24 22  1  1  0  0  0
 24 28  1  0  0  0  0
 25 23  1  6  0  0  0
 25 26  1  0  0  0  0
 27 31  1  6  0  0  0
 27 29  1  0  0  0  0
 27 24  1  0  0  0  0
 28 26  1  0  0  0  0
 29 25  1  0  0  0  0
 31 30  1  6  0  0  0
 32 33  1  0  0  0  0
 33 31  1  0  0  0  0
 34  1  1  6  0  0  0
 34 38  1  0  0  0  0
 34 36  1  0  0  0  0
 35 38  2  0  0  0  0
 36 39  2  0  0  0  0
 37 39  1  0  0  0  0
 38 37  1  0  0  0  0
 39 40  1  0  0  0  0
 41 42  1  0  0  0  0
 41 40  1  0  0  0  0
M  END
>  <MODEL>
3

>  <REMARK>
 VINA RESULT:      -6.6      1.977      3.543
  Name = 
  11 active torsions:
  status: ('A' for Active; 'I' for Inactive)
    1  A    between atoms: C_7  and  C_17
    2  A    between atoms: C_7  and  C_20
    3  A    between atoms: O_8  and  C_34
    4  A    between atoms: C_9  and  O_37
    5  A    between atoms: C_15  and  C_29
    6  A    between atoms: C_15  and  O_37
    7  A    between atoms: C_18  and  C_35
    8  A    between atoms: C_24  and  C_26
    9  A    between atoms: C_24  and  C_31
   10  A    between atoms: C_34  and  C_41
   11  A    between atoms: N_40  and  C_42
                            x       y       z     vdW  Elec       q    Type
                         _______ _______ _______ _____ _____    ______ ____

>  <TORSDO>
F 11

$$$$
=
 OpenBabel11052411423D

 42 46  0  0  1  0  0  0  0  0999 V2000
  161.2250  208.7210  154.4270 C   0  0  0  0  0  0  0  0  0  0  0  0
  161.3350  207.4290  154.2620 N   0  0  0  0  0  0  0  0  0  0  0  0
  162.2330  210.7510  151.4000 C   0  0  0  0  0  3  0  0  0  0  0  0
  162.2640  209.8430  152.3780 C   0  0  0  0  0  3  0  0  0  0  0  0
  159.8690  211.1870  151.9260 N   0  0  0  0  0  2  0  0  0  0  0  0
  161.0700  211.6960  151.2550 C   0  0  2  0  0  3  0  0  0  0  0  0
  161.1240  209.6760  153.3040 C   0  0  0  0  0  0  0  0  0  0  0  0
  159.9650  210.2880  153.0340 C   0  0  0  0  0  3  0  0  0  0  0  0
  161.9520  211.5610  148.9050 C   0  0  0  0  0  2  0  0  0  0  0  0
  161.9650  212.4020  147.7250 N   0  0  0  0  0  2  0  0  0  0  0  0
  161.1180  214.4490  146.9950 O   0  0  0  0  0  0  0  0  0  0  0  0
  160.5240  213.8230  149.5210 S   0  0  0  0  0  0  0  0  0  0  0  0
  161.2600  213.6100  147.9220 C   0  0  0  0  0  0  0  0  0  0  0  0
  160.7990  212.0320  149.7920 C   0  0  2  0  0  3  0  0  0  0  0  0
  160.7860  206.5070  150.6610 C   0  0  0  0  0  3  0  0  0  0  0  0
  161.0110  204.4940  151.9850 C   0  0  0  0  0  3  0  0  0  0  0  0
  160.9680  207.2810  151.8100 C   0  0  0  0  0  3  0  0  0  0  0  0
  161.1960  205.2700  153.1340 C   0  0  0  0  0  3  0  0  0  0  0  0
  160.8040  205.1120  150.7480 C   0  0  0  0  0  0  0  0  0  0  0  0
  161.1990  206.6680  153.0520 C   0  0  0  0  0  0  0  0  0  0  0  0
  160.6540  204.2900  149.5180 C   0  0  0  0  0  2  0  0  0  0  0  0
  161.9200  203.8690  149.0750 O   0  0  0  0  0  0  0  0  0  0  0  0
  161.2350  205.3430  143.6050 C   0  0  0  0  0  1  0  0  0  0  0  0
  162.0210  204.0950  147.6840 C   0  0  1  0  0  3  0  0  0  0  0  0
  161.0870  205.0900  145.0900 C   0  0  2  0  0  3  0  0  0  0  0  0
  162.2100  205.7940  145.8370 C   0  0  0  0  0  2  0  0  0  0  0  0
  160.9960  203.2870  146.8450 C   0  0  1  0  0  3  0  0  0  0  0  0
  162.0410  205.5910  147.3370 C   0  0  0  0  0  2  0  0  0  0  0  0
  161.1560  203.5910  145.3550 C   0  0  0  0  0  2  0  0  0  0  0  0
  160.3730  201.3500  148.1520 O   0  0  0  0  0  1  0  0  0  0  0  0
  161.1160  201.7730  147.0450 C   0  0  1  0  0  3  0  0  0  0  0  0
  161.1470  199.5660  145.8860 C   0  0  0  0  0  1  0  0  0  0  0  0
  160.6990  201.0120  145.7990 C   0  0  0  0  0  2  0  0  0  0  0  0
  161.2820  209.2880  155.8160 C   0  0  2  0  0  3  0  0  0  0  0  0
  163.1990  210.7700  155.5490 O   0  0  0  0  0  0  0  0  0  0  0  0
  159.9480  209.6700  156.2650 N   0  0  0  0  0  0  0  0  0  0  0  0
  161.1380  211.6370  156.2870 N   0  0  0  0  0  2  0  0  0  0  0  0
  161.9890  210.5940  155.8470 C   0  0  0  0  0  0  0  0  0  0  0  0
  159.9190  210.9400  156.5190 C   0  0  0  0  0  0  0  0  0  0  0  0
  158.6840  211.6230  156.9880 C   0  0  0  0  0  2  0  0  0  0  0  0
  157.7230  211.6060  155.9770 O   0  0  0  0  0  0  0  0  0  0  0  0
  157.5500  212.9460  155.6400 C   0  0  0  0  0  1  0  0  0  0  0  0
  2  1  2  0  0  0  0
  3  4  2  0  0  0  0
  4  7  1  0  0  0  0
  5  8  1  0  0  0  0
  6  3  1  6  0  0  0
  6  5  1  0  0  0  0
  7  1  1  0  0  0  0
  8  7  2  0  0  0  0
 10 13  1  0  0  0  0
 10  9  1  0  0  0  0
 11 13  2  0  0  0  0
 12 14  1  0  0  0  0
 13 12  1  0  0  0  0
 14  9  1  6  0  0  0
 14  6  1  0  0  0  0
 15 19  2  0  0  0  0
 15 17  1  0  0  0  0
 16 18  2  0  0  0  0
 17 20  2  0  0  0  0
 19 16  1  0  0  0  0
 20 18  1  0  0  0  0
 20  2  1  0  0  0  0
 21 19  1  0  0  0  0
 22 21  1  0  0  0  0
 24 22  1  1  0  0  0
 25 23  1  6  0  0  0
 25 29  1  0  0  0  0
 25 26  1  0  0  0  0
 26 28  1  0  0  0  0
 27 31  1  6  0  0  0
 27 24  1  0  0  0  0
 28 24  1  0  0  0  0
 29 27  1  0  0  0  0
 31 30  1  1  0  0  0
 33 32  1  0  0  0  0
 33 31  1  0  0  0  0
 34  1  1  6  0  0  0
 34 38  1  0  0  0  0
 34 36  1  0  0  0  0
 35 38  2  0  0  0  0
 36 39  2  0  0  0  0
 37 39  1  0  0  0  0
 38 37  1  0  0  0  0
 39 40  1  0  0  0  0
 41 40  1  0  0  0  0
 42 41  1  0  0  0  0
M  END
>  <MODEL>
4

>  <REMARK>
 VINA RESULT:      -6.5      2.292      3.264
  Name = 
  11 active torsions:
  status: ('A' for Active; 'I' for Inactive)
    1  A    between atoms: C_7  and  C_17
    2  A    between atoms: C_7  and  C_20
    3  A    between atoms: O_8  and  C_34
    4  A    between atoms: C_9  and  O_37
    5  A    between atoms: C_15  and  C_29
    6  A    between atoms: C_15  and  O_37
    7  A    between atoms: C_18  and  C_35
    8  A    between atoms: C_24  and  C_26
    9  A    between atoms: C_24  and  C_31
   10  A    between atoms: C_34  and  C_41
   11  A    between atoms: N_40  and  C_42
                            x       y       z     vdW  Elec       q    Type
                         _______ _______ _______ _____ _____    ______ ____

>  <TORSDO>
F 11

$$$$
=
 OpenBabel11052411423D

 42 46  0  0  1  0  0  0  0  0999 V2000
  160.5060  209.2880  155.1990 C   0  0  0  0  0  0  0  0  0  0  0  0
  160.9940  208.0870  155.0300 N   0  0  0  0  0  0  0  0  0  0  0  0
  161.0450  211.6330  152.2810 C   0  0  0  0  0  3  0  0  0  0  0  0
  161.2870  210.7480  153.2510 C   0  0  0  0  0  3  0  0  0  0  0  0
  158.6310  211.2870  152.6170 N   0  0  0  0  0  2  0  0  0  0  0  0
  159.6570  212.1700  152.0510 C   0  0  2  0  0  3  0  0  0  0  0  0
  160.1930  210.2000  154.0790 C   0  0  0  0  0  0  0  0  0  0  0  0
  158.9230  210.4270  153.7220 C   0  0  0  0  0  3  0  0  0  0  0  0
  160.3770  213.5070  150.0470 C   0  0  0  0  0  2  0  0  0  0  0  0
  159.7420  214.1690  148.9270 N   0  0  0  0  0  2  0  0  0  0  0  0
  157.6180  214.4450  148.0010 O   0  0  0  0  0  0  0  0  0  0  0  0
  157.6860  213.0070  150.2490 S   0  0  0  0  0  0  0  0  0  0  0  0
  158.3410  213.9870  148.9230 C   0  0  0  0  0  0  0  0  0  0  0  0
  159.4030  212.4530  150.5740 C   0  0  2  0  0  3  0  0  0  0  0  0
  161.5900  205.2870  152.5940 C   0  0  0  0  0  3  0  0  0  0  0  0
  161.3580  207.3730  151.3880 C   0  0  0  0  0  3  0  0  0  0  0  0
  161.3910  205.9650  153.8000 C   0  0  0  0  0  3  0  0  0  0  0  0
  161.1550  208.0490  152.5950 C   0  0  0  0  0  3  0  0  0  0  0  0
  161.5770  205.9920  151.3870 C   0  0  0  0  0  0  0  0  0  0  0  0
  161.1470  207.3490  153.8080 C   0  0  0  0  0  0  0  0  0  0  0  0
  161.7450  205.2630  150.1010 C   0  0  0  0  0  2  0  0  0  0  0  0
  160.4910  205.0930  149.4890 O   0  0  0  0  0  0  0  0  0  0  0  0
  161.5360  199.9620  147.2210 C   0  0  0  0  0  1  0  0  0  0  0  0
  160.4870  203.8720  148.7780 C   0  0  1  0  0  3  0  0  0  0  0  0
  161.5820  201.2740  147.9740 C   0  0  2  0  0  3  0  0  0  0  0  0
  160.3860  201.3610  148.9110 C   0  0  0  0  0  2  0  0  0  0  0  0
  161.5940  203.7770  147.6950 C   0  0  1  0  0  3  0  0  0  0  0  0
  160.4500  202.6540  149.7130 C   0  0  0  0  0  2  0  0  0  0  0  0
  161.5360  202.4270  146.9780 C   0  0  0  0  0  2  0  0  0  0  0  0
  162.6740  205.6520  146.6160 O   0  0  0  0  0  1  0  0  0  0  0  0
  161.5040  204.8870  146.6440 C   0  0  1  0  0  3  0  0  0  0  0  0
  161.3730  205.3960  144.2070 C   0  0  0  0  0  1  0  0  0  0  0  0
  161.1990  204.3260  145.2660 C   0  0  0  0  0  2  0  0  0  0  0  0
  160.3220  209.8130  156.5930 C   0  0  2  0  0  3  0  0  0  0  0  0
  162.6330  210.4140  157.0850 O   0  0  0  0  0  0  0  0  0  0  0  0
  159.1650  210.6970  156.6560 N   0  0  0  0  0  0  0  0  0  0  0  0
  160.9350  212.0370  157.2550 N   0  0  0  0  0  2  0  0  0  0  0  0
  161.4200  210.7350  156.9810 C   0  0  0  0  0  0  0  0  0  0  0  0
  159.5380  211.8810  157.0280 C   0  0  0  0  0  0  0  0  0  0  0  0
  158.5740  213.0030  157.1730 C   0  0  0  0  0  2  0  0  0  0  0  0
  157.4720  212.7880  156.3470 O   0  0  0  0  0  0  0  0  0  0  0  0
  157.1270  214.0580  155.8890 C   0  0  0  0  0  1  0  0  0  0  0  0
  2  1  2  0  0  0  0
  3  4  2  0  0  0  0
  4  7  1  0  0  0  0
  5  8  1  0  0  0  0
  6  3  1  6  0  0  0
  6  5  1  0  0  0  0
  7  1  1  0  0  0  0
  8  7  2  0  0  0  0
 10  9  1  0  0  0  0
 11 13  2  0  0  0  0
 12 14  1  0  0  0  0
 13 10  1  0  0  0  0
 13 12  1  0  0  0  0
 14  9  1  1  0  0  0
 14  6  1  0  0  0  0
 15 17  1  0  0  0  0
 16 18  2  0  0  0  0
 17 20  2  0  0  0  0
 18 20  1  0  0  0  0
 19 16  1  0  0  0  0
 19 15  2  0  0  0  0
 20  2  1  0  0  0  0
 21 19  1  0  0  0  0
 22 21  1  0  0  0  0
 24 22  1  1  0  0  0
 24 28  1  0  0  0  0
 25 23  1  6  0  0  0
 25 26  1  0  0  0  0
 26 28  1  0  0  0  0
 27 31  1  6  0  0  0
 27 24  1  0  0  0  0
 29 27  1  0  0  0  0
 29 25  1  0  0  0  0
 31 30  1  6  0  0  0
 32 33  1  0  0  0  0
 33 31  1  0  0  0  0
 34  1  1  6  0  0  0
 34 36  1  0  0  0  0
 34 38  1  0  0  0  0
 36 39  2  0  0  0  0
 38 35  2  0  0  0  0
 38 37  1  0  0  0  0
 39 40  1  0  0  0  0
 39 37  1  0  0  0  0
 41 40  1  0  0  0  0
 42 41  1  0  0  0  0
M  END
>  <MODEL>
5

>  <REMARK>
 VINA RESULT:      -5.8      1.879      3.208
  Name = 
  11 active torsions:
  status: ('A' for Active; 'I' for Inactive)
    1  A    between atoms: C_7  and  C_17
    2  A    between atoms: C_7  and  C_20
    3  A    between atoms: O_8  and  C_34
    4  A    between atoms: C_9  and  O_37
    5  A    between atoms: C_15  and  C_29
    6  A    between atoms: C_15  and  O_37
    7  A    between atoms: C_18  and  C_35
    8  A    between atoms: C_24  and  C_26
    9  A    between atoms: C_24  and  C_31
   10  A    between atoms: C_34  and  C_41
   11  A    between atoms: N_40  and  C_42
                            x       y       z     vdW  Elec       q    Type
                         _______ _______ _______ _____ _____    ______ ____

>  <TORSDO>
F 11

$$$$
=
 OpenBabel11052411423D

 42 46  0  0  1  0  0  0  0  0999 V2000
  160.6070  209.1670  154.0880 C   0  0  0  0  0  0  0  0  0  0  0  0
  160.6720  207.8690  154.2310 N   0  0  0  0  0  0  0  0  0  0  0  0
  162.5890  210.1480  151.0190 C   0  0  0  0  0  3  0  0  0  0  0  0
  162.1990  209.4880  152.1130 C   0  0  0  0  0  3  0  0  0  0  0  0
  160.4570  211.3780  151.0430 N   0  0  0  0  0  2  0  0  0  0  0  0
  161.8310  211.3530  150.5300 C   0  0  2  0  0  3  0  0  0  0  0  0
  160.9650  209.8630  152.8340 C   0  0  0  0  0  0  0  0  0  0  0  0
  160.1150  210.7320  152.2730 C   0  0  0  0  0  3  0  0  0  0  0  0
  163.1680  212.1040  148.5370 C   0  0  0  0  0  2  0  0  0  0  0  0
  162.9070  212.7280  147.2560 N   0  0  0  0  0  2  0  0  0  0  0  0
  161.0980  213.4280  145.9590 O   0  0  0  0  0  0  0  0  0  0  0  0
  160.4470  212.4030  148.3360 S   0  0  0  0  0  0  0  0  0  0  0  0
  161.5280  212.9410  147.0370 C   0  0  0  0  0  0  0  0  0  0  0  0
  161.8650  211.4560  149.0080 C   0  0  2  0  0  3  0  0  0  0  0  0
  160.8980  206.1240  150.9100 C   0  0  0  0  0  3  0  0  0  0  0  0
  161.3890  204.5530  152.6840 C   0  0  0  0  0  3  0  0  0  0  0  0
  160.7200  207.1350  151.8580 C   0  0  0  0  0  3  0  0  0  0  0  0
  161.2140  205.5660  153.6320 C   0  0  0  0  0  3  0  0  0  0  0  0
  161.2300  204.8300  151.3240 C   0  0  0  0  0  0  0  0  0  0  0  0
  160.9010  206.8700  153.2260 C   0  0  0  0  0  0  0  0  0  0  0  0
  161.4630  203.7660  150.3110 C   0  0  0  0  0  2  0  0  0  0  0  0
  161.7650  204.3530  149.0710 O   0  0  0  0  0  0  0  0  0  0  0  0
  160.0850  200.6530  145.0650 C   0  0  0  0  0  1  0  0  0  0  0  0
  161.1140  203.6310  148.0460 C   0  0  1  0  0  3  0  0  0  0  0  0
  160.8200  201.4210  146.1420 C   0  0  2  0  0  3  0  0  0  0  0  0
  159.9520  201.4970  147.3900 C   0  0  0  0  0  2  0  0  0  0  0  0
  161.8760  203.6390  146.6950 C   0  0  1  0  0  3  0  0  0  0  0  0
  160.7020  202.2220  148.4990 C   0  0  0  0  0  2  0  0  0  0  0  0
  161.1200  202.8280  145.6410 C   0  0  0  0  0  2  0  0  0  0  0  0
  163.4630  205.2660  145.8690 O   0  0  0  0  0  1  0  0  0  0  0  0
  162.1100  205.0490  146.1450 C   0  0  1  0  0  3  0  0  0  0  0  0
  160.0890  206.2070  145.2560 C   0  0  0  0  0  1  0  0  0  0  0  0
  161.2630  205.3130  144.9120 C   0  0  0  0  0  2  0  0  0  0  0  0
  160.2290  210.0150  155.2670 C   0  0  2  0  0  3  0  0  0  0  0  0
  162.3960  211.0330  155.7210 O   0  0  0  0  0  0  0  0  0  0  0  0
  158.9780  210.7180  155.0090 N   0  0  0  0  0  0  0  0  0  0  0  0
  160.5170  212.3960  155.3260 N   0  0  0  0  0  2  0  0  0  0  0  0
  161.1710  211.1470  155.4550 C   0  0  0  0  0  0  0  0  0  0  0  0
  159.1770  211.9980  155.0620 C   0  0  0  0  0  0  0  0  0  0  0  0
  158.0830  212.9770  154.8290 C   0  0  0  0  0  2  0  0  0  0  0  0
  156.8490  212.3650  155.0460 O   0  0  0  0  0  0  0  0  0  0  0  0
  156.2650  213.1110  156.0670 C   0  0  0  0  0  1  0  0  0  0  0  0
  1  2  2  0  0  0  0
  3  4  2  0  0  0  0
  4  7  1  0  0  0  0
  5  8  1  0  0  0  0
  6  3  1  6  0  0  0
  6  5  1  0  0  0  0
  7  1  1  0  0  0  0
  8  7  2  0  0  0  0
 10  9  1  0  0  0  0
 11 13  2  0  0  0  0
 12 14  1  0  0  0  0
 13 10  1  0  0  0  0
 13 12  1  0  0  0  0
 14  9  1  1  0  0  0
 14  6  1  0  0  0  0
 15 19  2  0  0  0  0
 15 17  1  0  0  0  0
 16 18  2  0  0  0  0
 17 20  2  0  0  0  0
 19 16  1  0  0  0  0
 20 18  1  0  0  0  0
 20  2  1  0  0  0  0
 21 19  1  0  0  0  0
 22 21  1  0  0  0  0
 24 28  1  0  0  0  0
 24 22  1  1  0  0  0
 25 23  1  6  0  0  0
 25 26  1  0  0  0  0
 26 28  1  0  0  0  0
 27 31  1  6  0  0  0
 27 24  1  0  0  0  0
 29 25  1  0  0  0  0
 29 27  1  0  0  0  0
 31 30  1  6  0  0  0
 33 32  1  0  0  0  0
 33 31  1  0  0  0  0
 34  1  1  6  0  0  0
 34 38  1  0  0  0  0
 36 39  2  0  0  0  0
 36 34  1  0  0  0  0
 37 38  1  0  0  0  0
 38 35  2  0  0  0  0
 39 37  1  0  0  0  0
 40 41  1  0  0  0  0
 40 39  1  0  0  0  0
 41 42  1  0  0  0  0
M  END
>  <MODEL>
6

>  <REMARK>
 VINA RESULT:      -5.8      2.346      3.822
  Name = 
  11 active torsions:
  status: ('A' for Active; 'I' for Inactive)
    1  A    between atoms: C_7  and  C_17
    2  A    between atoms: C_7  and  C_20
    3  A    between atoms: O_8  and  C_34
    4  A    between atoms: C_9  and  O_37
    5  A    between atoms: C_15  and  C_29
    6  A    between atoms: C_15  and  O_37
    7  A    between atoms: C_18  and  C_35
    8  A    between atoms: C_24  and  C_26
    9  A    between atoms: C_24  and  C_31
   10  A    between atoms: C_34  and  C_41
   11  A    between atoms: N_40  and  C_42
                            x       y       z     vdW  Elec       q    Type
                         _______ _______ _______ _____ _____    ______ ____

>  <TORSDO>
F 11

$$$$
=
 OpenBabel11052411423D

 42 46  0  0  1  0  0  0  0  0999 V2000
  160.2660  213.1740  149.2840 C   0  0  0  0  0  0  0  0  0  0  0  0
  160.7340  212.2920  150.1280 N   0  0  0  0  0  0  0  0  0  0  0  0
  159.5230  212.2400  145.6950 C   0  0  0  0  0  3  0  0  0  0  0  0
  159.3710  212.4250  147.0090 C   0  0  0  0  0  3  0  0  0  0  0  0
  161.5990  213.5590  145.7840 N   0  0  0  0  0  2  0  0  0  0  0  0
  160.8150  212.5940  145.0060 C   0  0  2  0  0  3  0  0  0  0  0  0
  160.4300  213.0600  147.8200 C   0  0  0  0  0  0  0  0  0  0  0  0
  161.4640  213.6480  147.2050 C   0  0  0  0  0  3  0  0  0  0  0  0
  159.1180  213.5090  143.3930 C   0  0  0  0  0  2  0  0  0  0  0  0
  158.7970  213.3580  141.9880 N   0  0  0  0  0  2  0  0  0  0  0  0
  159.6140  212.2780  140.0880 O   0  0  0  0  0  0  0  0  0  0  0  0
  160.9960  211.8160  142.3250 S   0  0  0  0  0  0  0  0  0  0  0  0
  159.6990  212.4960  141.3240 C   0  0  0  0  0  0  0  0  0  0  0  0
  160.5740  213.0820  143.5810 C   0  0  2  0  0  3  0  0  0  0  0  0
  162.1070  209.3080  148.3010 C   0  0  0  0  0  3  0  0  0  0  0  0
  161.9800  208.8190  150.6680 C   0  0  0  0  0  3  0  0  0  0  0  0
  161.6020  210.5890  148.5410 C   0  0  0  0  0  3  0  0  0  0  0  0
  161.4780  210.1020  150.9080 C   0  0  0  0  0  3  0  0  0  0  0  0
  162.2930  208.4210  149.3650 C   0  0  0  0  0  0  0  0  0  0  0  0
  161.3060  211.0040  149.8500 C   0  0  0  0  0  0  0  0  0  0  0  0
  162.8720  207.0740  149.1140 C   0  0  0  0  0  2  0  0  0  0  0  0
  162.2950  206.5210  147.9580 O   0  0  0  0  0  0  0  0  0  0  0  0
  160.3190  201.5410  149.9210 C   0  0  0  0  0  1  0  0  0  0  0  0
  161.5430  205.3810  148.3170 C   0  0  1  0  0  3  0  0  0  0  0  0
  161.1570  202.7370  149.5240 C   0  0  2  0  0  3  0  0  0  0  0  0
  160.6000  203.9870  150.1890 C   0  0  0  0  0  2  0  0  0  0  0  0
  161.9620  204.0930  147.5610 C   0  0  1  0  0  3  0  0  0  0  0  0
  161.4670  205.1900  149.8390 C   0  0  0  0  0  2  0  0  0  0  0  0
  161.1150  202.9010  148.0090 C   0  0  0  0  0  2  0  0  0  0  0  0
  161.1830  203.1230  145.4870 O   0  0  0  0  0  1  0  0  0  0  0  0
  161.8430  204.2250  146.0390 C   0  0  1  0  0  3  0  0  0  0  0  0
  161.2790  205.7550  144.1530 C   0  0  0  0  0  1  0  0  0  0  0  0
  161.1490  205.5170  145.6450 C   0  0  0  0  0  2  0  0  0  0  0  0
  159.5930  214.4070  149.8130 C   0  0  2  0  0  3  0  0  0  0  0  0
  157.5820  214.3690  148.4370 O   0  0  0  0  0  0  0  0  0  0  0  0
  159.6460  214.4310  151.2690 N   0  0  0  0  0  0  0  0  0  0  0  0
  157.3990  214.3990  150.7840 N   0  0  0  0  0  2  0  0  0  0  0  0
  158.1280  214.3810  149.5710 C   0  0  0  0  0  0  0  0  0  0  0  0
  158.4430  214.4380  151.7510 C   0  0  0  0  0  0  0  0  0  0  0  0
  158.1780  214.4510  153.2140 C   0  0  0  0  0  2  0  0  0  0  0  0
  157.5960  213.2450  153.5990 O   0  0  0  0  0  0  0  0  0  0  0  0
  156.3460  213.6040  154.0960 C   0  0  0  0  0  1  0  0  0  0  0  0
  1  2  2  0  0  0  0
  3  4  2  0  0  0  0
  4  7  1  0  0  0  0
  5  8  1  0  0  0  0
  6  3  1  1  0  0  0
  6  5  1  0  0  0  0
  7  1  1  0  0  0  0
  8  7  2  0  0  0  0
 10  9  1  0  0  0  0
 11 13  2  0  0  0  0
 12 14  1  0  0  0  0
 13 10  1  0  0  0  0
 13 12  1  0  0  0  0
 14  9  1  1  0  0  0
 14  6  1  0  0  0  0
 15 17  2  0  0  0  0
 15 19  1  0  0  0  0
 16 18  1  0  0  0  0
 17 20  1  0  0  0  0
 19 16  2  0  0  0  0
 20  2  1  0  0  0  0
 20 18  2  0  0  0  0
 21 19  1  0  0  0  0
 22 21  1  0  0  0  0
 24 22  1  1  0  0  0
 24 28  1  0  0  0  0
 25 23  1  6  0  0  0
 25 26  1  0  0  0  0
 27 31  1  6  0  0  0
 27 29  1  0  0  0  0
 27 24  1  0  0  0  0
 28 26  1  0  0  0  0
 29 25  1  0  0  0  0
 31 30  1  1  0  0  0
 32 33  1  0  0  0  0
 33 31  1  0  0  0  0
 34  1  1  1  0  0  0
 34 36  1  0  0  0  0
 35 38  2  0  0  0  0
 36 39  2  0  0  0  0
 37 39  1  0  0  0  0
 38 34  1  0  0  0  0
 38 37  1  0  0  0  0
 39 40  1  0  0  0  0
 40 41  1  0  0  0  0
 41 42  1  0  0  0  0
M  END
>  <MODEL>
7

>  <REMARK>
 VINA RESULT:      -5.6      3.207      5.505
  Name = 
  11 active torsions:
  status: ('A' for Active; 'I' for Inactive)
    1  A    between atoms: C_7  and  C_17
    2  A    between atoms: C_7  and  C_20
    3  A    between atoms: O_8  and  C_34
    4  A    between atoms: C_9  and  O_37
    5  A    between atoms: C_15  and  C_29
    6  A    between atoms: C_15  and  O_37
    7  A    between atoms: C_18  and  C_35
    8  A    between atoms: C_24  and  C_26
    9  A    between atoms: C_24  and  C_31
   10  A    between atoms: C_34  and  C_41
   11  A    between atoms: N_40  and  C_42
                            x       y       z     vdW  Elec       q    Type
                         _______ _______ _______ _____ _____    ______ ____

>  <TORSDO>
F 11

$$$$
=
 OpenBabel11052411423D

 42 46  0  0  1  0  0  0  0  0999 V2000
  161.1310  213.1050  148.8810 C   0  0  0  0  0  0  0  0  0  0  0  0
  161.7990  212.0250  148.5710 N   0  0  0  0  0  0  0  0  0  0  0  0
  157.7520  213.3930  150.5550 C   0  0  0  0  0  3  0  0  0  0  0  0
  158.6860  213.2730  149.6080 C   0  0  0  0  0  3  0  0  0  0  0  0
  159.4740  212.9590  152.2590 N   0  0  0  0  0  2  0  0  0  0  0  0
  158.1310  213.4920  152.0090 C   0  0  2  0  0  3  0  0  0  0  0  0
  160.1170  213.1500  149.9550 C   0  0  0  0  0  0  0  0  0  0  0  0
  160.4680  212.9440  151.2300 C   0  0  0  0  0  3  0  0  0  0  0  0
  156.1840  213.8860  153.5510 C   0  0  0  0  0  2  0  0  0  0  0  0
  155.6800  213.3280  154.7890 N   0  0  0  0  0  2  0  0  0  0  0  0
  156.1520  211.5940  156.2770 O   0  0  0  0  0  0  0  0  0  0  0  0
  157.8430  211.8030  154.2210 S   0  0  0  0  0  0  0  0  0  0  0  0
  156.4600  212.2420  155.2430 C   0  0  0  0  0  0  0  0  0  0  0  0
  157.0880  212.8340  152.9060 C   0  0  2  0  0  3  0  0  0  0  0  0
  161.5800  208.3560  149.3550 C   0  0  0  0  0  3  0  0  0  0  0  0
  162.0670  209.5880  151.3810 C   0  0  0  0  0  3  0  0  0  0  0  0
  161.5780  209.5510  148.6320 C   0  0  0  0  0  3  0  0  0  0  0  0
  162.0690  210.7830  150.6550 C   0  0  0  0  0  3  0  0  0  0  0  0
  161.8210  208.3740  150.7320 C   0  0  0  0  0  0  0  0  0  0  0  0
  161.8470  210.7720  149.2720 C   0  0  0  0  0  0  0  0  0  0  0  0
  161.8660  207.0970  151.4940 C   0  0  0  0  0  2  0  0  0  0  0  0
  162.5280  206.1180  150.7330 O   0  0  0  0  0  0  0  0  0  0  0  0
  159.7950  201.2520  149.5470 C   0  0  0  0  0  1  0  0  0  0  0  0
  161.6110  205.0980  150.3950 C   0  0  1  0  0  3  0  0  0  0  0  0
  160.8060  202.3260  149.8840 C   0  0  2  0  0  3  0  0  0  0  0  0
  160.3790  203.0410  151.1580 C   0  0  0  0  0  2  0  0  0  0  0  0
  161.9030  204.4250  149.0280 C   0  0  1  0  0  3  0  0  0  0  0  0
  161.4160  204.0890  151.5360 C   0  0  0  0  0  2  0  0  0  0  0  0
  160.8800  203.3250  148.7360 C   0  0  0  0  0  2  0  0  0  0  0  0
  162.8000  205.0240  146.8640 O   0  0  0  0  0  1  0  0  0  0  0  0
  161.8970  205.4130  147.8580 C   0  0  1  0  0  3  0  0  0  0  0  0
  160.5310  206.5350  146.1000 C   0  0  0  0  0  1  0  0  0  0  0  0
  160.5030  205.5810  147.2780 C   0  0  0  0  0  2  0  0  0  0  0  0
  161.3330  214.3490  148.0650 C   0  0  2  0  0  3  0  0  0  0  0  0
  163.7680  214.4530  148.1190 O   0  0  0  0  0  0  0  0  0  0  0  0
  160.4930  214.3190  146.8740 N   0  0  0  0  0  0  0  0  0  0  0  0
  162.6390  214.4080  146.0530 N   0  0  0  0  0  2  0  0  0  0  0  0
  162.6920  214.3990  147.4680 C   0  0  0  0  0  0  0  0  0  0  0  0
  161.2370  214.3640  145.8130 C   0  0  0  0  0  0  0  0  0  0  0  0
  160.6600  214.3390  144.4430 C   0  0  0  0  0  2  0  0  0  0  0  0
  159.2970  214.0530  144.5110 O   0  0  0  0  0  0  0  0  0  0  0  0
  159.2080  212.7000  144.1920 C   0  0  0  0  0  1  0  0  0  0  0  0
  1  7  1  0  0  0  0
  2  1  2  0  0  0  0
  2 20  1  0  0  0  0
  4  7  1  0  0  0  0
  4  3  2  0  0  0  0
  6  3  1  6  0  0  0
  6  5  1  0  0  0  0
  6 14  1  0  0  0  0
  7  8  2  0  0  0  0
  8  5  1  0  0  0  0
  9 10  1  0  0  0  0
 10 13  1  0  0  0  0
 12 13  1  0  0  0  0
 13 11  2  0  0  0  0
 14  9  1  1  0  0  0
 14 12  1  0  0  0  0
 15 19  1  0  0  0  0
 17 20  1  0  0  0  0
 17 15  2  0  0  0  0
 18 16  1  0  0  0  0
 19 16  2  0  0  0  0
 19 21  1  0  0  0  0
 20 18  2  0  0  0  0
 22 21  1  0  0  0  0
 24 22  1  1  0  0  0
 24 28  1  0  0  0  0
 25 23  1  6  0  0  0
 25 26  1  0  0  0  0
 26 28  1  0  0  0  0
 27 31  1  6  0  0  0
 27 24  1  0  0  0  0
 29 27  1  0  0  0  0
 29 25  1  0  0  0  0
 31 30  1  6  0  0  0
 32 33  1  0  0  0  0
 33 31  1  0  0  0  0
 34  1  1  6  0  0  0
 36 34  1  0  0  0  0
 37 38  1  0  0  0  0
 38 34  1  0  0  0  0
 38 35  2  0  0  0  0
 39 37  1  0  0  0  0
 39 36  2  0  0  0  0
 40 41  1  0  0  0  0
 40 39  1  0  0  0  0
 42 41  1  0  0  0  0
M  END
>  <MODEL>
8

>  <REMARK>
 VINA RESULT:      -5.3      2.600      6.519
  Name = 
  11 active torsions:
  status: ('A' for Active; 'I' for Inactive)
    1  A    between atoms: C_7  and  C_17
    2  A    between atoms: C_7  and  C_20
    3  A    between atoms: O_8  and  C_34
    4  A    between atoms: C_9  and  O_37
    5  A    between atoms: C_15  and  C_29
    6  A    between atoms: C_15  and  O_37
    7  A    between atoms: C_18  and  C_35
    8  A    between atoms: C_24  and  C_26
    9  A    between atoms: C_24  and  C_31
   10  A    between atoms: C_34  and  C_41
   11  A    between atoms: N_40  and  C_42
                            x       y       z     vdW  Elec       q    Type
                         _______ _______ _______ _____ _____    ______ ____

>  <TORSDO>
F 11

$$$$
=
 OpenBabel11052411423D

 42 46  0  0  1  0  0  0  0  0999 V2000
  160.1210  210.4500  154.1290 C   0  0  0  0  0  0  0  0  0  0  0  0
  160.9140  209.4670  153.7890 N   0  0  0  0  0  0  0  0  0  0  0  0
  159.9620  213.4180  151.7910 C   0  0  0  0  0  3  0  0  0  0  0  0
  160.4450  212.4800  152.6090 C   0  0  0  0  0  3  0  0  0  0  0  0
  157.8250  212.2000  151.7120 N   0  0  0  0  0  2  0  0  0  0  0  0
  158.4930  213.4820  151.4670 C   0  0  2  0  0  3  0  0  0  0  0  0
  159.5730  211.4210  153.1600 C   0  0  0  0  0  0  0  0  0  0  0  0
  158.3360  211.2710  152.6730 C   0  0  0  0  0  3  0  0  0  0  0  0
  156.9270  213.4480  149.5000 C   0  0  0  0  0  2  0  0  0  0  0  0
  157.0350  213.4000  148.0570 N   0  0  0  0  0  2  0  0  0  0  0  0
  158.6750  213.4340  146.3970 O   0  0  0  0  0  0  0  0  0  0  0  0
  159.6050  213.5050  148.8990 S   0  0  0  0  0  0  0  0  0  0  0  0
  158.3780  213.4190  147.6200 C   0  0  0  0  0  0  0  0  0  0  0  0
  158.2540  213.9780  150.0440 C   0  0  2  0  0  3  0  0  0  0  0  0
  162.1920  209.3890  150.2560 C   0  0  0  0  0  3  0  0  0  0  0  0
  161.1050  207.2880  150.7690 C   0  0  0  0  0  3  0  0  0  0  0  0
  161.9190  209.8430  151.5480 C   0  0  0  0  0  3  0  0  0  0  0  0
  160.8360  207.7430  152.0640 C   0  0  0  0  0  3  0  0  0  0  0  0
  161.7820  208.1110  149.8640 C   0  0  0  0  0  0  0  0  0  0  0  0
  161.2600  209.0140  152.4710 C   0  0  0  0  0  0  0  0  0  0  0  0
  162.1120  207.6110  148.5030 C   0  0  0  0  0  2  0  0  0  0  0  0
  162.6270  206.3060  148.5920 O   0  0  0  0  0  0  0  0  0  0  0  0
  160.0770  204.0070  144.0340 C   0  0  0  0  0  1  0  0  0  0  0  0
  162.2600  205.5850  147.4330 C   0  0  1  0  0  3  0  0  0  0  0  0
  160.4310  204.7710  145.2910 C   0  0  2  0  0  3  0  0  0  0  0  0
  161.6050  205.6970  145.0060 C   0  0  0  0  0  2  0  0  0  0  0  0
  161.1670  204.5130  147.6860 C   0  0  1  0  0  3  0  0  0  0  0  0
  161.9370  206.5090  146.2500 C   0  0  0  0  0  2  0  0  0  0  0  0
  160.8130  203.7840  146.3880 C   0  0  0  0  0  2  0  0  0  0  0  0
  160.8560  203.6310  149.9160 O   0  0  0  0  0  1  0  0  0  0  0  0
  161.5780  203.4700  148.7290 C   0  0  1  0  0  3  0  0  0  0  0  0
  160.4140  201.2860  149.0270 C   0  0  0  0  0  1  0  0  0  0  0  0
  161.4210  202.0570  148.1960 C   0  0  0  0  0  2  0  0  0  0  0  0
  159.8030  210.6640  155.5810 C   0  0  2  0  0  3  0  0  0  0  0  0
  162.0090  211.3490  156.3600 O   0  0  0  0  0  0  0  0  0  0  0  0
  158.5620  211.4140  155.7260 N   0  0  0  0  0  0  0  0  0  0  0  0
  160.1510  212.7510  156.7120 N   0  0  0  0  0  2  0  0  0  0  0  0
  160.7790  211.5790  156.2270 C   0  0  0  0  0  0  0  0  0  0  0  0
  158.7930  212.5260  156.3500 C   0  0  0  0  0  0  0  0  0  0  0  0
  157.7150  213.5090  156.6370 C   0  0  0  0  0  2  0  0  0  0  0  0
  156.8520  213.5940  155.5460 O   0  0  0  0  0  0  0  0  0  0  0  0
  155.8900  212.6160  155.7850 C   0  0  0  0  0  1  0  0  0  0  0  0
  2  1  2  0  0  0  0
  3  4  2  0  0  0  0
  4  7  1  0  0  0  0
  5  8  1  0  0  0  0
  6  5  1  0  0  0  0
  6  3  1  6  0  0  0
  7  1  1  0  0  0  0
  8  7  2  0  0  0  0
 10  9  1  0  0  0  0
 11 13  2  0  0  0  0
 12 14  1  0  0  0  0
 13 10  1  0  0  0  0
 13 12  1  0  0  0  0
 14  9  1  6  0  0  0
 14  6  1  0  0  0  0
 15 17  1  0  0  0  0
 16 18  2  0  0  0  0
 17 20  2  0  0  0  0
 18 20  1  0  0  0  0
 19 15  2  0  0  0  0
 19 16  1  0  0  0  0
 20  2  1  0  0  0  0
 21 22  1  0  0  0  0
 21 19  1  0  0  0  0
 24 27  1  0  0  0  0
 24 22  1  1  0  0  0
 25 23  1  6  0  0  0
 25 29  1  0  0  0  0
 26 25  1  0  0  0  0
 26 28  1  0  0  0  0
 27 31  1  1  0  0  0
 28 24  1  0  0  0  0
 29 27  1  0  0  0  0
 31 30  1  1  0  0  0
 33 31  1  0  0  0  0
 33 32  1  0  0  0  0
 34  1  1  6  0  0  0
 34 36  1  0  0  0  0
 34 38  1  0  0  0  0
 36 39  2  0  0  0  0
 38 35  2  0  0  0  0
 38 37  1  0  0  0  0
 39 40  1  0  0  0  0
 39 37  1  0  0  0  0
 41 42  1  0  0  0  0
 41 40  1  0  0  0  0
M  END
>  <MODEL>
9

>  <REMARK>
 VINA RESULT:      -5.2      1.253      1.550
  Name = 
  11 active torsions:
  status: ('A' for Active; 'I' for Inactive)
    1  A    between atoms: C_7  and  C_17
    2  A    between atoms: C_7  and  C_20
    3  A    between atoms: O_8  and  C_34
    4  A    between atoms: C_9  and  O_37
    5  A    between atoms: C_15  and  C_29
    6  A    between atoms: C_15  and  O_37
    7  A    between atoms: C_18  and  C_35
    8  A    between atoms: C_24  and  C_26
    9  A    between atoms: C_24  and  C_31
   10  A    between atoms: C_34  and  C_41
   11  A    between atoms: N_40  and  C_42
                            x       y       z     vdW  Elec       q    Type
                         _______ _______ _______ _____ _____    ______ ____

>  <TORSDO>
F 11

$$$$
