=
 OpenBabel11052410393D

 53 56  0  0  1  0  0  0  0  0999 V2000
  158.6800  214.4520  150.6430 C   0  0  0  0  0  3  0  0  0  0  0  0
  158.9540  213.6420  151.7560 C   0  0  0  0  0  0  0  0  0  0  0  0
  159.9960  212.6820  151.6580 C   0  0  0  0  0  0  0  0  0  0  0  0
  160.7330  212.5750  150.4720 C   0  0  0  0  0  3  0  0  0  0  0  0
  160.4520  213.3930  149.3780 C   0  0  0  0  0  0  0  0  0  0  0  0
  159.4180  214.3310  149.4650 C   0  0  0  0  0  3  0  0  0  0  0  0
  158.5240  214.4360  154.1720 C   0  0  0  0  0  3  0  0  0  0  0  0
  156.4570  213.8870  154.2790 N   0  0  0  0  0  0  0  0  0  0  0  0
  156.8340  213.5160  153.0690 N   0  0  0  0  0  0  0  0  0  0  0  0
  157.4380  214.4420  154.9690 N   0  0  0  0  0  0  0  0  0  0  0  0
  158.1360  213.8510  152.9770 C   0  0  0  0  0  0  0  0  0  0  0  0
  155.1060  213.7220  154.7860 C   0  0  0  0  0  2  0  0  0  0  0  0
  155.1440  213.0780  156.0890 N   0  0  0  0  0  2  0  0  0  0  0  0
  156.9810  211.8050  157.0210 C   0  0  0  0  0  1  0  0  0  0  0  0
  155.0840  210.7470  156.0640 O   0  0  0  0  0  1  0  0  0  0  0  0
  155.9200  211.8590  155.9440 C   0  0  1  0  0  3  0  0  0  0  0  0
  160.3690  211.7640  152.7760 C   0  0  0  0  0  2  0  0  0  0  0  0
  160.0710  210.3280  152.3970 C   0  0  0  0  0  2  0  0  0  0  0  0
  161.0980  209.4220  153.0470 C   0  0  0  0  0  2  0  0  0  0  0  0
  160.9530  206.8820  152.7970 C   0  0  0  0  0  0  0  0  0  0  0  0
  161.1550  205.9850  151.7660 C   0  0  0  0  0  0  0  0  0  0  0  0
  161.5220  206.7350  150.6610 C   0  0  0  0  0  0  0  0  0  0  0  0
  160.5310  206.5870  154.0520 F   0  0  0  0  0  0  0  0  0  0  0  0
  161.5480  208.0450  150.9870 N   0  0  0  0  0  0  0  0  0  0  0  0
  161.8530  209.1530  150.0920 C   0  0  0  0  0  1  0  0  0  0  0  0
  161.2090  208.1400  152.2890 C   0  0  0  0  0  0  0  0  0  0  0  0
  160.9050  204.5170  151.8120 C   0  0  0  0  0  2  0  0  0  0  0  0
  162.1100  203.8320  151.6750 O   0  0  0  0  0  1  0  0  0  0  0  0
  161.7650  206.2000  149.2860 C   0  0  0  0  0  2  0  0  0  0  0  0
  160.5450  205.8960  148.6780 O   0  0  0  0  0  1  0  0  0  0  0  0
  161.2740  213.2470  148.1340 C   0  0  2  0  0  3  0  0  0  0  0  0
  159.4880  212.0810  147.0730 O   0  0  0  0  0  0  0  0  0  0  0  0
  160.6700  213.5370  145.6850 N   0  0  0  0  0  2  0  0  0  0  0  0
  160.4200  212.9180  146.9490 C   0  0  0  0  0  0  0  0  0  0  0  0
  159.8690  213.2310  144.5090 C   0  0  0  0  0  2  0  0  0  0  0  0
  160.7750  212.8330  143.3530 C   0  0  0  0  0  2  0  0  0  0  0  0
  160.0090  212.1330  142.3290 N   0  0  0  0  0  2  0  0  0  0  0  0
  158.7870  211.6240  139.3190 C   0  0  1  0  0  3  0  0  0  0  0  0
  159.4550  211.7780  138.0860 O   0  0  0  0  0  0  0  0  0  0  0  0
  160.3080  212.7380  141.0350 C   0  0  2  0  0  3  0  0  0  0  0  0
  161.5140  212.2570  138.9800 O   0  0  0  0  0  0  0  0  0  0  0  0
  160.7680  211.3980  138.2050 N   0  0  0  0  0  0  0  0  0  0  0  0
  159.0270  212.8690  140.1900 C   0  0  2  0  0  3  0  0  0  0  0  0
  157.9310  213.1760  141.0020 O   0  0  0  0  0  1  0  0  0  0  0  0
  161.3870  211.9080  140.3360 C   0  0  0  0  0  2  0  0  0  0  0  0
  161.4450  209.3690  140.0610 O   0  0  0  0  0  1  0  0  0  0  0  0
  161.0230  209.6530  138.4490 P   0  0  0  0  0  0  0  0  0  0  0  0
  159.6200  208.7790  138.0800 O   0  0  0  0  0  1  0  0  0  0  0  0
  162.1480  209.1860  137.5530 O   0  0  0  0  0  0  0  0  0  0  0  0
  156.9790  211.2830  138.9830 P   0  0  0  0  0  2  0  0  0  0  0  0
  156.7690  212.6420  137.9200 O   0  0  0  0  0  1  0  0  0  0  0  0
  162.4040  212.2430  148.3310 C   0  0  0  0  0  2  0  0  0  0  0  0
  163.3590  212.3970  147.3250 O   0  0  0  0  0  1  0  0  0  0  0  0
  1  2  1  0  0  0  0
  2 11  1  0  0  0  0
  3  2  2  0  0  0  0
  3 17  1  0  0  0  0
  4  3  1  0  0  0  0
  5  6  1  0  0  0  0
  5  4  2  0  0  0  0
  6  1  2  0  0  0  0
  7 10  2  0  0  0  0
  8 12  1  0  0  0  0
  8 10  1  0  0  0  0
  9  8  1  0  0  0  0
 11  9  2  0  0  0  0
 11  7  1  0  0  0  0
 12 13  1  0  0  0  0
 16 15  1  0  0  0  0
 16 13  1  0  0  0  0
 16 14  1  1  0  0  0
 18 17  1  0  0  0  0
 18 19  1  0  0  0  0
 20 23  1  0  0  0  0
 21 27  1  0  0  0  0
 21 20  1  0  0  0  0
 22 24  1  0  0  0  0
 22 21  2  0  0  0  0
 24 26  1  0  0  0  0
 25 24  1  0  0  0  0
 26 20  2  0  0  0  0
 26 19  1  0  0  0  0
 28 27  1  0  0  0  0
 29 22  1  0  0  0  0
 30 29  1  0  0  0  0
 31 52  1  1  0  0  0
 31  5  1  0  0  0  0
 33 34  1  0  0  0  0
 34 32  2  0  0  0  0
 34 31  1  0  0  0  0
 35 33  1  0  0  0  0
 36 35  1  0  0  0  0
 37 36  1  0  0  0  0
 38 50  1  6  0  0  0
 38 43  1  0  0  0  0
 39 42  1  0  0  0  0
 39 38  1  0  0  0  0
 40 37  1  1  0  0  0
 41 45  1  0  0  0  0
 42 47  1  0  0  0  0
 42 41  1  0  0  0  0
 43 44  1  1  0  0  0
 43 40  1  0  0  0  0
 45 40  1  0  0  0  0
 47 46  1  0  0  0  0
 48 47  1  0  0  0  0
 49 47  2  0  0  0  0
 51 50  1  0  0  0  0
 53 52  1  0  0  0  0
M  END
>  <MODEL>
1

>  <REMARK>
 VINA RESULT:      -5.8      0.000      0.000
  Name = 
  19 active torsions:
  status: ('A' for Active; 'I' for Inactive)
    1  A    between atoms: C_2  and  C_3
    2  A    between atoms: C_4  and  N_35
    3  A    between atoms: C_4  and  N_45
    4  A    between atoms: C_5  and  C_19
    5  A    between atoms: N_6  and  C_12
    6  A    between atoms: N_6  and  C_25
    7  A    between atoms: C_10  and  P_15
    8  A    between atoms: C_12  and  C_21
    9  A    between atoms: C_13  and  C_18
   10  A    between atoms: C_13  and  C_48
   11  A    between atoms: C_18  and  C_33
   12  A    between atoms: C_21  and  N_30
   13  A    between atoms: C_22  and  C_34
   14  A    between atoms: P_23  and  N_29
   15  A    between atoms: C_24  and  C_51
   16  A    between atoms: C_34  and  C_42
   17  A    between atoms: C_34  and  C_50
   18  A    between atoms: C_41  and  C_48
   19  A    between atoms: N_45  and  C_52
                            x       y       z     vdW  Elec       q    Type
                         _______ _______ _______ _____ _____    ______ ____

>  <TORSDO>
F 19

$$$$
=
 OpenBabel11052410393D

 53 56  0  0  1  0  0  0  0  0999 V2000
  157.5200  213.9270  150.9180 C   0  0  0  0  0  3  0  0  0  0  0  0
  158.4590  213.3710  151.8010 C   0  0  0  0  0  0  0  0  0  0  0  0
  159.6050  212.7310  151.2580 C   0  0  0  0  0  0  0  0  0  0  0  0
  159.7820  212.6800  149.8710 C   0  0  0  0  0  3  0  0  0  0  0  0
  158.8420  213.2440  149.0080 C   0  0  0  0  0  0  0  0  0  0  0  0
  157.7050  213.8640  149.5370 C   0  0  0  0  0  3  0  0  0  0  0  0
  158.6990  214.4510  154.1310 C   0  0  0  0  0  3  0  0  0  0  0  0
  157.3670  213.1430  155.1800 N   0  0  0  0  0  0  0  0  0  0  0  0
  157.3630  212.6920  153.9390 N   0  0  0  0  0  0  0  0  0  0  0  0
  158.1530  214.1940  155.3350 N   0  0  0  0  0  0  0  0  0  0  0  0
  158.1970  213.5000  153.2560 C   0  0  0  0  0  0  0  0  0  0  0  0
  156.5780  212.5590  156.2500 C   0  0  0  0  0  2  0  0  0  0  0  0
  156.5060  211.1170  156.0780 N   0  0  0  0  0  2  0  0  0  0  0  0
  154.9820  209.5380  155.0520 C   0  0  0  0  0  1  0  0  0  0  0  0
  154.5370  210.5130  157.1700 O   0  0  0  0  0  1  0  0  0  0  0  0
  155.1040  210.7720  155.9210 C   0  0  1  0  0  3  0  0  0  0  0  0
  160.6650  212.1010  152.1020 C   0  0  0  0  0  2  0  0  0  0  0  0
  160.4670  210.5990  152.1590 C   0  0  0  0  0  2  0  0  0  0  0  0
  161.8040  209.9170  151.9510 C   0  0  0  0  0  2  0  0  0  0  0  0
  161.2580  207.4690  151.4510 C   0  0  0  0  0  0  0  0  0  0  0  0
  161.2170  206.6860  150.3130 C   0  0  0  0  0  0  0  0  0  0  0  0
  161.5760  207.5090  149.2590 C   0  0  0  0  0  0  0  0  0  0  0  0
  160.9290  207.0830  152.7080 F   0  0  0  0  0  0  0  0  0  0  0  0
  161.8290  208.7540  149.7160 N   0  0  0  0  0  0  0  0  0  0  0  0
  162.2020  209.9120  148.9150 C   0  0  0  0  0  1  0  0  0  0  0  0
  161.6450  208.7340  151.0530 C   0  0  0  0  0  0  0  0  0  0  0  0
  160.7580  205.2710  150.2320 C   0  0  0  0  0  2  0  0  0  0  0  0
  161.7180  204.4340  150.7960 O   0  0  0  0  0  1  0  0  0  0  0  0
  161.5940  207.1190  147.8150 C   0  0  0  0  0  2  0  0  0  0  0  0
  160.5170  206.2720  147.5450 O   0  0  0  0  0  1  0  0  0  0  0  0
  159.0800  213.1720  147.5310 C   0  0  2  0  0  3  0  0  0  0  0  0
  161.1940  214.1640  148.0040 O   0  0  0  0  0  0  0  0  0  0  0  0
  161.0580  213.0800  145.9410 N   0  0  0  0  0  2  0  0  0  0  0  0
  160.5000  213.5000  147.1890 C   0  0  0  0  0  0  0  0  0  0  0  0
  162.4290  213.3940  145.5700 C   0  0  0  0  0  2  0  0  0  0  0  0
  162.6330  213.1520  144.0820 C   0  0  0  0  0  2  0  0  0  0  0  0
  161.3450  213.0710  143.4020 N   0  0  0  0  0  2  0  0  0  0  0  0
  160.3200  212.7880  140.2910 C   0  0  1  0  0  3  0  0  0  0  0  0
  160.8450  213.4360  139.1530 O   0  0  0  0  0  0  0  0  0  0  0  0
  161.3580  214.0010  142.2780 C   0  0  2  0  0  3  0  0  0  0  0  0
  162.5980  214.4490  140.2350 O   0  0  0  0  0  0  0  0  0  0  0  0
  162.2070  213.5570  139.2620 N   0  0  0  0  0  0  0  0  0  0  0  0
  160.0980  213.8200  141.4100 C   0  0  2  0  0  3  0  0  0  0  0  0
  158.9900  213.5170  142.2080 O   0  0  0  0  0  1  0  0  0  0  0  0
  162.6500  213.8010  141.4820 C   0  0  0  0  0  2  0  0  0  0  0  0
  162.8300  211.1150  140.5540 O   0  0  0  0  0  1  0  0  0  0  0  0
  163.1060  212.0240  139.1550 P   0  0  0  0  0  0  0  0  0  0  0  0
  162.6160  211.1270  137.8040 O   0  0  0  0  0  0  0  0  0  0  0  0
  164.5840  212.3220  139.0430 O   0  0  0  0  0  1  0  0  0  0  0  0
  158.7630  211.8770  139.7960 P   0  0  0  0  0  2  0  0  0  0  0  0
  158.0560  213.2320  138.9700 O   0  0  0  0  0  1  0  0  0  0  0  0
  158.0840  214.0350  146.7670 C   0  0  0  0  0  2  0  0  0  0  0  0
  157.5430  213.3100  145.7030 O   0  0  0  0  0  1  0  0  0  0  0  0
  1  2  1  0  0  0  0
  2 11  1  0  0  0  0
  3  2  2  0  0  0  0
  3 17  1  0  0  0  0
  4  3  1  0  0  0  0
  5  6  1  0  0  0  0
  5  4  2  0  0  0  0
  6  1  2  0  0  0  0
  7 10  2  0  0  0  0
  8 10  1  0  0  0  0
  8 12  1  0  0  0  0
  9  8  1  0  0  0  0
 11  9  2  0  0  0  0
 11  7  1  0  0  0  0
 13 12  1  0  0  0  0
 16 14  1  6  0  0  0
 16 13  1  0  0  0  0
 16 15  1  0  0  0  0
 17 18  1  0  0  0  0
 19 18  1  0  0  0  0
 20 23  1  0  0  0  0
 21 20  1  0  0  0  0
 22 24  1  0  0  0  0
 22 21  2  0  0  0  0
 24 26  1  0  0  0  0
 25 24  1  0  0  0  0
 26 20  2  0  0  0  0
 26 19  1  0  0  0  0
 27 21  1  0  0  0  0
 27 28  1  0  0  0  0
 29 22  1  0  0  0  0
 30 29  1  0  0  0  0
 31 52  1  6  0  0  0
 31  5  1  0  0  0  0
 33 34  1  0  0  0  0
 34 31  1  0  0  0  0
 34 32  2  0  0  0  0
 35 33  1  0  0  0  0
 36 35  1  0  0  0  0
 37 36  1  0  0  0  0
 38 50  1  6  0  0  0
 38 43  1  0  0  0  0
 39 42  1  0  0  0  0
 39 38  1  0  0  0  0
 40 37  1  1  0  0  0
 41 45  1  0  0  0  0
 42 41  1  0  0  0  0
 43 44  1  1  0  0  0
 43 40  1  0  0  0  0
 45 40  1  0  0  0  0
 47 42  1  0  0  0  0
 47 46  1  0  0  0  0
 48 47  2  0  0  0  0
 49 47  1  0  0  0  0
 51 50  1  0  0  0  0
 53 52  1  0  0  0  0
M  END
>  <MODEL>
2

>  <REMARK>
 VINA RESULT:      -5.5      1.728      2.213
  Name = 
  19 active torsions:
  status: ('A' for Active; 'I' for Inactive)
    1  A    between atoms: C_2  and  C_3
    2  A    between atoms: C_4  and  N_35
    3  A    between atoms: C_4  and  N_45
    4  A    between atoms: C_5  and  C_19
    5  A    between atoms: N_6  and  C_12
    6  A    between atoms: N_6  and  C_25
    7  A    between atoms: C_10  and  P_15
    8  A    between atoms: C_12  and  C_21
    9  A    between atoms: C_13  and  C_18
   10  A    between atoms: C_13  and  C_48
   11  A    between atoms: C_18  and  C_33
   12  A    between atoms: C_21  and  N_30
   13  A    between atoms: C_22  and  C_34
   14  A    between atoms: P_23  and  N_29
   15  A    between atoms: C_24  and  C_51
   16  A    between atoms: C_34  and  C_42
   17  A    between atoms: C_34  and  C_50
   18  A    between atoms: C_41  and  C_48
   19  A    between atoms: N_45  and  C_52
                            x       y       z     vdW  Elec       q    Type
                         _______ _______ _______ _____ _____    ______ ____

>  <TORSDO>
F 19

$$$$
=
 OpenBabel11052410393D

 53 56  0  0  1  0  0  0  0  0999 V2000
  160.4420  208.5680  155.0070 C   0  0  0  0  0  3  0  0  0  0  0  0
  160.3250  209.9040  154.5940 C   0  0  0  0  0  0  0  0  0  0  0  0
  160.7860  210.2580  153.2990 C   0  0  0  0  0  0  0  0  0  0  0  0
  161.3290  209.2760  152.4620 C   0  0  0  0  0  3  0  0  0  0  0  0
  161.4330  207.9510  152.8850 C   0  0  0  0  0  0  0  0  0  0  0  0
  160.9910  207.6000  154.1650 C   0  0  0  0  0  3  0  0  0  0  0  0
  160.1750  211.2480  156.7910 C   0  0  0  0  0  3  0  0  0  0  0  0
  158.3780  212.3210  156.3360 N   0  0  0  0  0  0  0  0  0  0  0  0
  158.5810  211.5540  155.2800 N   0  0  0  0  0  0  0  0  0  0  0  0
  159.3100  212.1680  157.2610 N   0  0  0  0  0  0  0  0  0  0  0  0
  159.7090  210.8660  155.5430 C   0  0  0  0  0  0  0  0  0  0  0  0
  157.2650  213.2460  156.4550 C   0  0  0  0  0  2  0  0  0  0  0  0
  156.0100  212.5260  156.3120 N   0  0  0  0  0  2  0  0  0  0  0  0
  156.3990  213.8280  154.3080 C   0  0  0  0  0  1  0  0  0  0  0  0
  155.2550  211.7490  154.2480 O   0  0  0  0  0  1  0  0  0  0  0  0
  155.4480  212.8930  155.0240 C   0  0  1  0  0  3  0  0  0  0  0  0
  160.7160  211.6490  152.7590 C   0  0  0  0  0  2  0  0  0  0  0  0
  159.8990  211.6760  151.4820 C   0  0  0  0  0  2  0  0  0  0  0  0
  159.7460  213.1130  151.0250 C   0  0  0  0  0  2  0  0  0  0  0  0
  160.6340  212.9410  148.6330 C   0  0  0  0  0  0  0  0  0  0  0  0
  160.0860  213.0730  147.3720 C   0  0  0  0  0  0  0  0  0  0  0  0
  158.7460  213.3720  147.5570 C   0  0  0  0  0  0  0  0  0  0  0  0
  161.9130  212.5990  148.9250 F   0  0  0  0  0  0  0  0  0  0  0  0
  158.4670  213.4240  148.8770 N   0  0  0  0  0  0  0  0  0  0  0  0
  157.1650  213.6760  149.4770 C   0  0  0  0  0  1  0  0  0  0  0  0
  159.6160  213.1700  149.5380 C   0  0  0  0  0  0  0  0  0  0  0  0
  160.7790  212.8200  146.0780 C   0  0  0  0  0  2  0  0  0  0  0  0
  161.7470  213.8000  145.8650 O   0  0  0  0  0  1  0  0  0  0  0  0
  157.7290  213.5240  146.4710 C   0  0  0  0  0  2  0  0  0  0  0  0
  157.0290  212.3270  146.3120 O   0  0  0  0  0  1  0  0  0  0  0  0
  162.0130  206.9350  151.9500 C   0  0  2  0  0  3  0  0  0  0  0  0
  160.1970  206.6220  150.4390 O   0  0  0  0  0  0  0  0  0  0  0  0
  162.1260  207.5220  149.4820 N   0  0  0  0  0  2  0  0  0  0  0  0
  161.3830  207.0170  150.5940 C   0  0  0  0  0  0  0  0  0  0  0  0
  161.5520  207.6020  148.1480 C   0  0  0  0  0  2  0  0  0  0  0  0
  160.7630  206.3370  147.8460 C   0  0  0  0  0  2  0  0  0  0  0  0
  160.9720  205.9300  146.4620 N   0  0  0  0  0  2  0  0  0  0  0  0
  160.5630  202.6830  146.1390 C   0  0  1  0  0  3  0  0  0  0  0  0
  161.3680  201.6600  146.6830 O   0  0  0  0  0  0  0  0  0  0  0  0
  161.9190  204.8200  146.4450 C   0  0  2  0  0  3  0  0  0  0  0  0
  162.7470  203.0460  147.8860 O   0  0  0  0  0  0  0  0  0  0  0  0
  161.8250  202.0240  147.9240 N   0  0  0  0  0  0  0  0  0  0  0  0
  161.4600  203.7310  145.4570 C   0  0  2  0  0  3  0  0  0  0  0  0
  160.8550  204.3070  144.3350 O   0  0  0  0  0  1  0  0  0  0  0  0
  162.0830  204.2850  147.8690 C   0  0  0  0  0  2  0  0  0  0  0  0
  161.2260  201.5680  150.6540 O   0  0  0  0  0  1  0  0  0  0  0  0
  160.5750  202.1040  149.1890 P   0  0  0  0  0  0  0  0  0  0  0  0
  160.0060  203.6880  149.3800 O   0  0  0  0  0  1  0  0  0  0  0  0
  159.4200  201.2060  148.8040 O   0  0  0  0  0  0  0  0  0  0  0  0
  159.3080  201.9100  144.9870 P   0  0  0  0  0  2  0  0  0  0  0  0
  160.1490  200.3950  144.8510 O   0  0  0  0  0  1  0  0  0  0  0  0
  161.9390  205.5320  152.5410 C   0  0  0  0  0  2  0  0  0  0  0  0
  162.2920  204.5890  151.5740 O   0  0  0  0  0  1  0  0  0  0  0  0
  2  1  1  0  0  0  0
  2 11  1  0  0  0  0
  3  2  2  0  0  0  0
  4  5  2  0  0  0  0
  4  3  1  0  0  0  0
  5  6  1  0  0  0  0
  6  1  2  0  0  0  0
  7 10  2  0  0  0  0
  8 12  1  0  0  0  0
  8 10  1  0  0  0  0
  9 11  2  0  0  0  0
  9  8  1  0  0  0  0
 11  7  1  0  0  0  0
 13 12  1  0  0  0  0
 15 16  1  0  0  0  0
 16 14  1  6  0  0  0
 16 13  1  0  0  0  0
 17  3  1  0  0  0  0
 18 17  1  0  0  0  0
 19 18  1  0  0  0  0
 20 23  1  0  0  0  0
 20 26  2  0  0  0  0
 21 22  2  0  0  0  0
 21 20  1  0  0  0  0
 22 24  1  0  0  0  0
 24 25  1  0  0  0  0
 24 26  1  0  0  0  0
 26 19  1  0  0  0  0
 27 21  1  0  0  0  0
 28 27  1  0  0  0  0
 29 22  1  0  0  0  0
 30 29  1  0  0  0  0
 31 52  1  1  0  0  0
 31  5  1  0  0  0  0
 32 34  2  0  0  0  0
 33 34  1  0  0  0  0
 34 31  1  0  0  0  0
 35 33  1  0  0  0  0
 36 35  1  0  0  0  0
 37 36  1  0  0  0  0
 38 50  1  6  0  0  0
 38 39  1  0  0  0  0
 39 42  1  0  0  0  0
 40 37  1  1  0  0  0
 40 45  1  0  0  0  0
 41 42  1  0  0  0  0
 42 47  1  0  0  0  0
 43 44  1  6  0  0  0
 43 38  1  0  0  0  0
 43 40  1  0  0  0  0
 45 41  1  0  0  0  0
 47 48  1  0  0  0  0
 47 46  1  0  0  0  0
 49 47  2  0  0  0  0
 51 50  1  0  0  0  0
 53 52  1  0  0  0  0
M  END
>  <MODEL>
3

>  <REMARK>
 VINA RESULT:      -4.9      4.578      8.370
  Name = 
  19 active torsions:
  status: ('A' for Active; 'I' for Inactive)
    1  A    between atoms: C_2  and  C_3
    2  A    between atoms: C_4  and  N_35
    3  A    between atoms: C_4  and  N_45
    4  A    between atoms: C_5  and  C_19
    5  A    between atoms: N_6  and  C_12
    6  A    between atoms: N_6  and  C_25
    7  A    between atoms: C_10  and  P_15
    8  A    between atoms: C_12  and  C_21
    9  A    between atoms: C_13  and  C_18
   10  A    between atoms: C_13  and  C_48
   11  A    between atoms: C_18  and  C_33
   12  A    between atoms: C_21  and  N_30
   13  A    between atoms: C_22  and  C_34
   14  A    between atoms: P_23  and  N_29
   15  A    between atoms: C_24  and  C_51
   16  A    between atoms: C_34  and  C_42
   17  A    between atoms: C_34  and  C_50
   18  A    between atoms: C_41  and  C_48
   19  A    between atoms: N_45  and  C_52
                            x       y       z     vdW  Elec       q    Type
                         _______ _______ _______ _____ _____    ______ ____

>  <TORSDO>
F 19

$$$$
=
 OpenBabel11052410393D

 53 56  0  0  1  0  0  0  0  0999 V2000
  162.1420  210.9880  149.2040 C   0  0  0  0  0  3  0  0  0  0  0  0
  161.2660  212.0840  149.2320 C   0  0  0  0  0  0  0  0  0  0  0  0
  160.5740  212.3700  150.4390 C   0  0  0  0  0  0  0  0  0  0  0  0
  160.7870  211.5720  151.5680 C   0  0  0  0  0  3  0  0  0  0  0  0
  161.6670  210.4900  151.5260 C   0  0  0  0  0  0  0  0  0  0  0  0
  162.3410  210.1960  150.3360 C   0  0  0  0  0  3  0  0  0  0  0  0
  161.6390  214.1490  147.7320 C   0  0  0  0  0  3  0  0  0  0  0  0
  160.6140  213.4200  145.9990 N   0  0  0  0  0  0  0  0  0  0  0  0
  160.4900  212.4500  146.8870 N   0  0  0  0  0  0  0  0  0  0  0  0
  161.2940  214.4520  146.4650 N   0  0  0  0  0  0  0  0  0  0  0  0
  161.1280  212.8870  147.9900 C   0  0  0  0  0  0  0  0  0  0  0  0
  160.0770  213.3480  144.6510 C   0  0  0  0  0  2  0  0  0  0  0  0
  160.5350  212.1280  144.0040 N   0  0  0  0  0  2  0  0  0  0  0  0
  162.2580  212.7050  142.4030 C   0  0  0  0  0  1  0  0  0  0  0  0
  160.3810  211.3830  141.7990 O   0  0  0  0  0  1  0  0  0  0  0  0
  160.7810  212.4490  142.6090 C   0  0  1  0  0  3  0  0  0  0  0  0
  159.6150  213.5070  150.5800 C   0  0  0  0  0  2  0  0  0  0  0  0
  159.4060  213.8390  152.0440 C   0  0  0  0  0  2  0  0  0  0  0  0
  157.9220  213.8150  152.3490 C   0  0  0  0  0  2  0  0  0  0  0  0
  158.6660  212.8530  154.5990 C   0  0  0  0  0  0  0  0  0  0  0  0
  158.0260  212.4740  155.7630 C   0  0  0  0  0  0  0  0  0  0  0  0
  156.6750  212.7020  155.5590 C   0  0  0  0  0  0  0  0  0  0  0  0
  160.0030  212.8480  154.3750 F   0  0  0  0  0  0  0  0  0  0  0  0
  156.4780  213.2040  154.3210 N   0  0  0  0  0  0  0  0  0  0  0  0
  155.2030  213.6050  153.7420 C   0  0  0  0  0  1  0  0  0  0  0  0
  157.6870  213.2910  153.7270 C   0  0  0  0  0  0  0  0  0  0  0  0
  158.6800  212.0270  157.0240 C   0  0  0  0  0  2  0  0  0  0  0  0
  159.8450  212.7630  157.2340 O   0  0  0  0  0  1  0  0  0  0  0  0
  155.5960  212.5160  156.5780 C   0  0  0  0  0  2  0  0  0  0  0  0
  155.1810  211.1830  156.5830 O   0  0  0  0  0  1  0  0  0  0  0  0
  161.8680  209.6710  152.7630 C   0  0  2  0  0  3  0  0  0  0  0  0
  160.7040  207.8350  153.7390 O   0  0  0  0  0  0  0  0  0  0  0  0
  160.9450  207.7240  151.4200 N   0  0  0  0  0  2  0  0  0  0  0  0
  161.1370  208.3670  152.6820 C   0  0  0  0  0  0  0  0  0  0  0  0
  160.2520  206.4500  151.3050 C   0  0  0  0  0  2  0  0  0  0  0  0
  161.1700  205.4140  150.6750 C   0  0  0  0  0  2  0  0  0  0  0  0
  160.6930  205.0600  149.3430 N   0  0  0  0  0  2  0  0  0  0  0  0
  161.1500  204.9160  146.0900 C   0  0  1  0  0  3  0  0  0  0  0  0
  161.9930  204.0350  145.3810 O   0  0  0  0  0  0  0  0  0  0  0  0
  161.8410  204.6670  148.5310 C   0  0  2  0  0  3  0  0  0  0  0  0
  162.6380  202.7940  147.2020 O   0  0  0  0  0  0  0  0  0  0  0  0
  162.0020  202.8010  145.9810 N   0  0  0  0  0  0  0  0  0  0  0  0
  161.9290  205.5370  147.2630 C   0  0  2  0  0  3  0  0  0  0  0  0
  161.5320  206.8490  147.5360 O   0  0  0  0  0  1  0  0  0  0  0  0
  161.7350  203.1750  148.2110 C   0  0  0  0  0  2  0  0  0  0  0  0
  159.5110  202.5900  144.6510 O   0  0  0  0  0  0  0  0  0  0  0  0
  160.4750  201.8950  145.8540 P   0  0  0  0  0  0  0  0  0  0  0  0
  160.7640  200.2720  145.4650 O   0  0  0  0  0  1  0  0  0  0  0  0
  159.7440  201.9660  147.1760 O   0  0  0  0  0  1  0  0  0  0  0  0
  160.4650  206.1820  144.8940 P   0  0  0  0  0  2  0  0  0  0  0  0
  161.2090  205.4760  143.4920 O   0  0  0  0  0  1  0  0  0  0  0  0
  161.5090  210.4610  154.0160 C   0  0  0  0  0  2  0  0  0  0  0  0
  162.6100  210.5230  154.8720 O   0  0  0  0  0  1  0  0  0  0  0  0
  1  2  2  0  0  0  0
  1  6  1  0  0  0  0
  2  3  1  0  0  0  0
  3 17  1  0  0  0  0
  3  4  2  0  0  0  0
  5  4  1  0  0  0  0
  5 31  1  0  0  0  0
  6  5  2  0  0  0  0
  7 11  1  0  0  0  0
  8 10  1  0  0  0  0
  8  9  1  0  0  0  0
  9 11  2  0  0  0  0
 10  7  2  0  0  0  0
 11  2  1  0  0  0  0
 12  8  1  0  0  0  0
 13 12  1  0  0  0  0
 15 16  1  0  0  0  0
 16 14  1  1  0  0  0
 16 13  1  0  0  0  0
 17 18  1  0  0  0  0
 18 19  1  0  0  0  0
 19 26  1  0  0  0  0
 20 21  1  0  0  0  0
 21 27  1  0  0  0  0
 22 21  2  0  0  0  0
 22 29  1  0  0  0  0
 23 20  1  0  0  0  0
 24 22  1  0  0  0  0
 25 24  1  0  0  0  0
 26 24  1  0  0  0  0
 26 20  2  0  0  0  0
 27 28  1  0  0  0  0
 29 30  1  0  0  0  0
 31 52  1  1  0  0  0
 33 34  1  0  0  0  0
 34 31  1  0  0  0  0
 34 32  2  0  0  0  0
 35 33  1  0  0  0  0
 36 35  1  0  0  0  0
 37 36  1  0  0  0  0
 38 50  1  6  0  0  0
 38 43  1  0  0  0  0
 39 42  1  0  0  0  0
 39 38  1  0  0  0  0
 40 37  1  6  0  0  0
 41 45  1  0  0  0  0
 42 41  1  0  0  0  0
 43 44  1  1  0  0  0
 43 40  1  0  0  0  0
 45 40  1  0  0  0  0
 46 47  2  0  0  0  0
 47 42  1  0  0  0  0
 47 49  1  0  0  0  0
 48 47  1  0  0  0  0
 51 50  1  0  0  0  0
 52 53  1  0  0  0  0
M  END
>  <MODEL>
4

>  <REMARK>
 VINA RESULT:      -4.1      3.410      9.252
  Name = 
  19 active torsions:
  status: ('A' for Active; 'I' for Inactive)
    1  A    between atoms: C_2  and  C_3
    2  A    between atoms: C_4  and  N_35
    3  A    between atoms: C_4  and  N_45
    4  A    between atoms: C_5  and  C_19
    5  A    between atoms: N_6  and  C_12
    6  A    between atoms: N_6  and  C_25
    7  A    between atoms: C_10  and  P_15
    8  A    between atoms: C_12  and  C_21
    9  A    between atoms: C_13  and  C_18
   10  A    between atoms: C_13  and  C_48
   11  A    between atoms: C_18  and  C_33
   12  A    between atoms: C_21  and  N_30
   13  A    between atoms: C_22  and  C_34
   14  A    between atoms: P_23  and  N_29
   15  A    between atoms: C_24  and  C_51
   16  A    between atoms: C_34  and  C_42
   17  A    between atoms: C_34  and  C_50
   18  A    between atoms: C_41  and  C_48
   19  A    between atoms: N_45  and  C_52
                            x       y       z     vdW  Elec       q    Type
                         _______ _______ _______ _____ _____    ______ ____

>  <TORSDO>
F 19

$$$$
=
 OpenBabel11052410393D

 53 56  0  0  1  0  0  0  0  0999 V2000
  161.1350  205.2100  150.2330 C   0  0  0  0  0  3  0  0  0  0  0  0
  161.2930  206.1650  149.2170 C   0  0  0  0  0  0  0  0  0  0  0  0
  161.1930  207.5410  149.5570 C   0  0  0  0  0  0  0  0  0  0  0  0
  160.9560  207.9130  150.8850 C   0  0  0  0  0  3  0  0  0  0  0  0
  160.8070  206.9500  151.8840 C   0  0  0  0  0  0  0  0  0  0  0  0
  160.8930  205.5940  151.5520 C   0  0  0  0  0  3  0  0  0  0  0  0
  162.8030  205.4580  147.2490 C   0  0  0  0  0  3  0  0  0  0  0  0
  161.2430  204.9010  145.8910 N   0  0  0  0  0  0  0  0  0  0  0  0
  160.6070  205.3140  146.9730 N   0  0  0  0  0  0  0  0  0  0  0  0
  162.5560  204.9710  146.0170 N   0  0  0  0  0  0  0  0  0  0  0  0
  161.5690  205.6720  147.8440 C   0  0  0  0  0  0  0  0  0  0  0  0
  160.5700  204.4050  144.7040 C   0  0  0  0  0  2  0  0  0  0  0  0
  160.8880  203.0000  144.5080 N   0  0  0  0  0  2  0  0  0  0  0  0
  159.6740  201.1440  145.4810 C   0  0  0  0  0  1  0  0  0  0  0  0
  161.7770  201.8460  146.3290 O   0  0  0  0  0  1  0  0  0  0  0  0
  160.5940  202.3150  145.7540 C   0  0  1  0  0  3  0  0  0  0  0  0
  161.3380  208.6420  148.5580 C   0  0  0  0  0  2  0  0  0  0  0  0
  162.5120  209.5290  148.9210 C   0  0  0  0  0  2  0  0  0  0  0  0
  161.9890  210.8180  149.5210 C   0  0  0  0  0  2  0  0  0  0  0  0
  162.8940  212.1980  147.5680 C   0  0  0  0  0  0  0  0  0  0  0  0
  162.3980  213.2100  146.7690 C   0  0  0  0  0  0  0  0  0  0  0  0
  161.1110  213.4630  147.2130 C   0  0  0  0  0  0  0  0  0  0  0  0
  164.1050  211.5990  147.4520 F   0  0  0  0  0  0  0  0  0  0  0  0
  160.8140  212.6450  148.2450 N   0  0  0  0  0  0  0  0  0  0  0  0
  159.5480  212.5800  148.9620 C   0  0  0  0  0  1  0  0  0  0  0  0
  161.9000  211.8770  148.4720 C   0  0  0  0  0  0  0  0  0  0  0  0
  163.0750  213.8140  145.5870 C   0  0  0  0  0  2  0  0  0  0  0  0
  162.5030  213.3200  144.4160 O   0  0  0  0  0  1  0  0  0  0  0  0
  160.1490  214.4270  146.5940 C   0  0  0  0  0  2  0  0  0  0  0  0
  159.2240  213.7320  145.8140 O   0  0  0  0  0  1  0  0  0  0  0  0
  160.5640  207.3990  153.2920 C   0  0  2  0  0  3  0  0  0  0  0  0
  160.0110  209.6620  152.7920 O   0  0  0  0  0  0  0  0  0  0  0  0
  161.7840  209.3920  154.2860 N   0  0  0  0  0  2  0  0  0  0  0  0
  160.7550  208.8770  153.4370 C   0  0  0  0  0  0  0  0  0  0  0  0
  162.0080  210.8210  154.4390 C   0  0  0  0  0  2  0  0  0  0  0  0
  160.6940  211.5220  154.7490 C   0  0  0  0  0  2  0  0  0  0  0  0
  160.4790  211.5780  156.1900 N   0  0  0  0  0  2  0  0  0  0  0  0
  157.3350  211.7970  155.2490 C   0  0  1  0  0  3  0  0  0  0  0  0
  156.5810  212.9720  155.0470 O   0  0  0  0  0  0  0  0  0  0  0  0
  159.4400  212.5670  156.4640 C   0  0  2  0  0  3  0  0  0  0  0  0
  158.3120  214.4390  155.3980 O   0  0  0  0  0  0  0  0  0  0  0  0
  157.3730  213.9590  154.5140 N   0  0  0  0  0  0  0  0  0  0  0  0
  158.0660  211.8850  156.6000 C   0  0  2  0  0  3  0  0  0  0  0  0
  158.1940  210.6400  157.2230 O   0  0  0  0  0  1  0  0  0  0  0  0
  159.4600  213.6270  155.3600 C   0  0  0  0  0  2  0  0  0  0  0  0
  159.3890  214.4360  152.5840 O   0  0  0  0  0  1  0  0  0  0  0  0
  157.9030  213.6710  152.8400 P   0  0  0  0  0  0  0  0  0  0  0  0
  158.0730  212.0130  152.5350 O   0  0  0  0  0  1  0  0  0  0  0  0
  156.8790  214.2470  151.8880 O   0  0  0  0  0  0  0  0  0  0  0  0
  156.1940  210.3210  155.1110 P   0  0  0  0  0  2  0  0  0  0  0  0
  155.2630  210.7240  156.5220 O   0  0  0  0  0  1  0  0  0  0  0  0
  161.4090  206.6040  154.2800 C   0  0  0  0  0  2  0  0  0  0  0  0
  161.2470  207.1200  155.5670 O   0  0  0  0  0  1  0  0  0  0  0  0
  1  6  1  0  0  0  0
  2  3  1  0  0  0  0
  2  1  2  0  0  0  0
  3  4  2  0  0  0  0
  4  5  1  0  0  0  0
  5 31  1  0  0  0  0
  6  5  2  0  0  0  0
  7 11  1  0  0  0  0
  8 10  1  0  0  0  0
  8  9  1  0  0  0  0
  9 11  2  0  0  0  0
 10  7  2  0  0  0  0
 11  2  1  0  0  0  0
 12  8  1  0  0  0  0
 13 12  1  0  0  0  0
 13 16  1  0  0  0  0
 16 14  1  6  0  0  0
 16 15  1  0  0  0  0
 17 18  1  0  0  0  0
 17  3  1  0  0  0  0
 18 19  1  0  0  0  0
 20 26  2  0  0  0  0
 21 22  2  0  0  0  0
 21 20  1  0  0  0  0
 22 24  1  0  0  0  0
 23 20  1  0  0  0  0
 24 26  1  0  0  0  0
 24 25  1  0  0  0  0
 26 19  1  0  0  0  0
 27 21  1  0  0  0  0
 28 27  1  0  0  0  0
 29 22  1  0  0  0  0
 30 29  1  0  0  0  0
 31 34  1  0  0  0  0
 31 52  1  1  0  0  0
 32 34  2  0  0  0  0
 33 35  1  0  0  0  0
 34 33  1  0  0  0  0
 35 36  1  0  0  0  0
 36 37  1  0  0  0  0
 38 50  1  1  0  0  0
 38 43  1  0  0  0  0
 39 38  1  0  0  0  0
 40 37  1  6  0  0  0
 40 43  1  0  0  0  0
 42 39  1  0  0  0  0
 42 41  1  0  0  0  0
 43 44  1  6  0  0  0
 45 41  1  0  0  0  0
 45 40  1  0  0  0  0
 46 47  1  0  0  0  0
 47 42  1  0  0  0  0
 48 47  1  0  0  0  0
 49 47  2  0  0  0  0
 50 51  1  0  0  0  0
 52 53  1  0  0  0  0
M  END
>  <MODEL>
5

>  <REMARK>
 VINA RESULT:      -3.6      5.059     11.975
  Name = 
  19 active torsions:
  status: ('A' for Active; 'I' for Inactive)
    1  A    between atoms: C_2  and  C_3
    2  A    between atoms: C_4  and  N_35
    3  A    between atoms: C_4  and  N_45
    4  A    between atoms: C_5  and  C_19
    5  A    between atoms: N_6  and  C_12
    6  A    between atoms: N_6  and  C_25
    7  A    between atoms: C_10  and  P_15
    8  A    between atoms: C_12  and  C_21
    9  A    between atoms: C_13  and  C_18
   10  A    between atoms: C_13  and  C_48
   11  A    between atoms: C_18  and  C_33
   12  A    between atoms: C_21  and  N_30
   13  A    between atoms: C_22  and  C_34
   14  A    between atoms: P_23  and  N_29
   15  A    between atoms: C_24  and  C_51
   16  A    between atoms: C_34  and  C_42
   17  A    between atoms: C_34  and  C_50
   18  A    between atoms: C_41  and  C_48
   19  A    between atoms: N_45  and  C_52
                            x       y       z     vdW  Elec       q    Type
                         _______ _______ _______ _____ _____    ______ ____

>  <TORSDO>
F 19

$$$$
=
 OpenBabel11052410393D

 53 56  0  0  1  0  0  0  0  0999 V2000
  160.7960  204.8750  151.7460 C   0  0  0  0  0  3  0  0  0  0  0  0
  161.3570  205.4650  150.6030 C   0  0  0  0  0  0  0  0  0  0  0  0
  161.7080  206.8410  150.6510 C   0  0  0  0  0  0  0  0  0  0  0  0
  161.5040  207.5680  151.8290 C   0  0  0  0  0  3  0  0  0  0  0  0
  160.9510  206.9640  152.9590 C   0  0  0  0  0  0  0  0  0  0  0  0
  160.5920  205.6130  152.9120 C   0  0  0  0  0  3  0  0  0  0  0  0
  161.4520  203.2230  149.3300 C   0  0  0  0  0  3  0  0  0  0  0  0
  161.9160  204.0230  147.3980 N   0  0  0  0  0  0  0  0  0  0  0  0
  161.8500  205.0810  148.1860 N   0  0  0  0  0  0  0  0  0  0  0  0
  161.6830  202.8940  148.0440 N   0  0  0  0  0  0  0  0  0  0  0  0
  161.5600  204.6030  149.4110 C   0  0  0  0  0  0  0  0  0  0  0  0
  162.1920  204.0970  145.9740 C   0  0  0  0  0  2  0  0  0  0  0  0
  160.9460  204.0380  145.2270 N   0  0  0  0  0  2  0  0  0  0  0  0
  160.1760  206.3330  145.3050 C   0  0  0  0  0  1  0  0  0  0  0  0
  162.1210  205.7050  144.0970 O   0  0  0  0  0  1  0  0  0  0  0  0
  160.8460  205.2690  144.4620 C   0  0  1  0  0  3  0  0  0  0  0  0
  162.3050  207.5730  149.4940 C   0  0  0  0  0  2  0  0  0  0  0  0
  161.6490  208.9300  149.3360 C   0  0  0  0  0  2  0  0  0  0  0  0
  162.6430  210.0060  149.7240 C   0  0  0  0  0  2  0  0  0  0  0  0
  163.0140  211.7670  147.9070 C   0  0  0  0  0  0  0  0  0  0  0  0
  162.3940  212.9480  147.5450 C   0  0  0  0  0  0  0  0  0  0  0  0
  161.3490  213.1300  148.4350 C   0  0  0  0  0  0  0  0  0  0  0  0
  164.0560  211.1760  147.2740 F   0  0  0  0  0  0  0  0  0  0  0  0
  161.3150  212.1080  149.3170 N   0  0  0  0  0  0  0  0  0  0  0  0
  160.3450  211.9180  150.3860 C   0  0  0  0  0  1  0  0  0  0  0  0
  162.3330  211.2780  149.0050 C   0  0  0  0  0  0  0  0  0  0  0  0
  162.7170  213.7850  146.3560 C   0  0  0  0  0  2  0  0  0  0  0  0
  162.3450  213.1120  145.1940 O   0  0  0  0  0  1  0  0  0  0  0  0
  160.3440  214.2370  148.3850 C   0  0  0  0  0  2  0  0  0  0  0  0
  159.0990  213.7240  148.0190 O   0  0  0  0  0  1  0  0  0  0  0  0
  160.7610  207.7830  154.1990 C   0  0  2  0  0  3  0  0  0  0  0  0
  161.9360  209.8310  153.8760 O   0  0  0  0  0  0  0  0  0  0  0  0
  159.6170  209.9860  153.6620 N   0  0  0  0  0  2  0  0  0  0  0  0
  160.8190  209.2490  153.9000 C   0  0  0  0  0  0  0  0  0  0  0  0
  159.6350  211.4140  153.3840 C   0  0  0  0  0  2  0  0  0  0  0  0
  158.2140  211.9260  153.2070 C   0  0  0  0  0  2  0  0  0  0  0  0
  158.2260  213.3480  152.8860 N   0  0  0  0  0  2  0  0  0  0  0  0
  157.9380  212.9580  156.1390 C   0  0  1  0  0  3  0  0  0  0  0  0
  156.8100  213.2380  156.9390 O   0  0  0  0  0  0  0  0  0  0  0  0
  157.4400  214.0560  153.8930 C   0  0  2  0  0  3  0  0  0  0  0  0
  155.4110  213.7930  155.2060 O   0  0  0  0  0  0  0  0  0  0  0  0
  155.6580  212.9390  156.2570 N   0  0  0  0  0  0  0  0  0  0  0  0
  158.2200  214.1570  155.2160 C   0  0  2  0  0  3  0  0  0  0  0  0
  159.5850  214.3360  154.9710 O   0  0  0  0  0  1  0  0  0  0  0  0
  156.0940  213.3470  154.0600 C   0  0  0  0  0  2  0  0  0  0  0  0
  155.0220  210.9500  154.3440 O   0  0  0  0  0  0  0  0  0  0  0  0
  155.3830  211.2020  155.9760 P   0  0  0  0  0  0  0  0  0  0  0  0
  156.7550  210.2980  156.3880 O   0  0  0  0  0  1  0  0  0  0  0  0
  154.2140  210.7420  156.8180 O   0  0  0  0  0  1  0  0  0  0  0  0
  159.3730  212.5210  157.2570 P   0  0  0  0  0  2  0  0  0  0  0  0
  160.0180  211.3040  156.1980 O   0  0  0  0  0  1  0  0  0  0  0  0
  161.7430  207.3730  155.2890 C   0  0  0  0  0  2  0  0  0  0  0  0
  162.1010  208.4870  156.0510 O   0  0  0  0  0  1  0  0  0  0  0  0
  1  6  1  0  0  0  0
  2  3  1  0  0  0  0
  2  1  2  0  0  0  0
  3  4  2  0  0  0  0
  4  5  1  0  0  0  0
  5 31  1  0  0  0  0
  6  5  2  0  0  0  0
  7 11  1  0  0  0  0
  8 10  1  0  0  0  0
  8  9  1  0  0  0  0
  9 11  2  0  0  0  0
 10  7  2  0  0  0  0
 11  2  1  0  0  0  0
 12  8  1  0  0  0  0
 13 12  1  0  0  0  0
 15 16  1  0  0  0  0
 16 13  1  0  0  0  0
 16 14  1  1  0  0  0
 17  3  1  0  0  0  0
 18 17  1  0  0  0  0
 18 19  1  0  0  0  0
 20 26  2  0  0  0  0
 21 20  1  0  0  0  0
 21 22  2  0  0  0  0
 22 24  1  0  0  0  0
 23 20  1  0  0  0  0
 24 25  1  0  0  0  0
 26 24  1  0  0  0  0
 26 19  1  0  0  0  0
 27 21  1  0  0  0  0
 28 27  1  0  0  0  0
 29 22  1  0  0  0  0
 30 29  1  0  0  0  0
 31 52  1  1  0  0  0
 32 34  2  0  0  0  0
 33 34  1  0  0  0  0
 34 31  1  0  0  0  0
 35 33  1  0  0  0  0
 36 35  1  0  0  0  0
 37 36  1  0  0  0  0
 38 39  1  0  0  0  0
 38 50  1  1  0  0  0
 40 37  1  6  0  0  0
 40 45  1  0  0  0  0
 40 43  1  0  0  0  0
 41 42  1  0  0  0  0
 42 39  1  0  0  0  0
 43 44  1  6  0  0  0
 43 38  1  0  0  0  0
 45 41  1  0  0  0  0
 46 47  2  0  0  0  0
 47 42  1  0  0  0  0
 47 48  1  0  0  0  0
 47 49  1  0  0  0  0
 51 50  1  0  0  0  0
 52 53  1  0  0  0  0
M  END
>  <MODEL>
6

>  <REMARK>
 VINA RESULT:      -3.5      5.514     12.166
  Name = 
  19 active torsions:
  status: ('A' for Active; 'I' for Inactive)
    1  A    between atoms: C_2  and  C_3
    2  A    between atoms: C_4  and  N_35
    3  A    between atoms: C_4  and  N_45
    4  A    between atoms: C_5  and  C_19
    5  A    between atoms: N_6  and  C_12
    6  A    between atoms: N_6  and  C_25
    7  A    between atoms: C_10  and  P_15
    8  A    between atoms: C_12  and  C_21
    9  A    between atoms: C_13  and  C_18
   10  A    between atoms: C_13  and  C_48
   11  A    between atoms: C_18  and  C_33
   12  A    between atoms: C_21  and  N_30
   13  A    between atoms: C_22  and  C_34
   14  A    between atoms: P_23  and  N_29
   15  A    between atoms: C_24  and  C_51
   16  A    between atoms: C_34  and  C_42
   17  A    between atoms: C_34  and  C_50
   18  A    between atoms: C_41  and  C_48
   19  A    between atoms: N_45  and  C_52
                            x       y       z     vdW  Elec       q    Type
                         _______ _______ _______ _____ _____    ______ ____

>  <TORSDO>
F 19

$$$$
=
 OpenBabel11052410393D

 53 56  0  0  1  0  0  0  0  0999 V2000
  159.8010  210.7260  155.8400 C   0  0  0  0  0  3  0  0  0  0  0  0
  159.3030  211.8530  155.1670 C   0  0  0  0  0  0  0  0  0  0  0  0
  159.5950  212.0020  153.7850 C   0  0  0  0  0  0  0  0  0  0  0  0
  160.3510  211.0260  153.1250 C   0  0  0  0  0  3  0  0  0  0  0  0
  160.8320  209.9090  153.8070 C   0  0  0  0  0  0  0  0  0  0  0  0
  160.5580  209.7640  155.1720 C   0  0  0  0  0  3  0  0  0  0  0  0
  158.9330  213.8030  156.8130 C   0  0  0  0  0  3  0  0  0  0  0  0
  156.7960  213.8770  156.6770 N   0  0  0  0  0  0  0  0  0  0  0  0
  157.1440  212.8850  155.8780 N   0  0  0  0  0  0  0  0  0  0  0  0
  157.8370  214.4520  157.2550 N   0  0  0  0  0  0  0  0  0  0  0  0
  158.4880  212.8170  155.9470 C   0  0  0  0  0  0  0  0  0  0  0  0
  155.4230  214.3010  156.8810 C   0  0  0  0  0  2  0  0  0  0  0  0
  154.5670  213.6990  155.8710 N   0  0  0  0  0  2  0  0  0  0  0  0
  155.6200  212.2060  154.2810 C   0  0  0  0  0  1  0  0  0  0  0  0
  154.5990  214.2390  153.6030 O   0  0  0  0  0  1  0  0  0  0  0  0
  155.3290  213.6490  154.6360 C   0  0  1  0  0  3  0  0  0  0  0  0
  159.1220  213.1620  152.9710 C   0  0  0  0  0  2  0  0  0  0  0  0
  159.7500  213.1260  151.5920 C   0  0  0  0  0  2  0  0  0  0  0  0
  158.9200  213.9740  150.6490 C   0  0  0  0  0  2  0  0  0  0  0  0
  160.2660  213.0930  148.6620 C   0  0  0  0  0  0  0  0  0  0  0  0
  159.9690  212.7050  147.3700 C   0  0  0  0  0  0  0  0  0  0  0  0
  158.6030  212.8750  147.2160 C   0  0  0  0  0  0  0  0  0  0  0  0
  161.4830  213.0410  149.2600 F   0  0  0  0  0  0  0  0  0  0  0  0
  158.0690  213.3490  148.3620 N   0  0  0  0  0  0  0  0  0  0  0  0
  156.6610  213.6260  148.6110 C   0  0  0  0  0  1  0  0  0  0  0  0
  159.0790  213.4910  149.2450 C   0  0  0  0  0  0  0  0  0  0  0  0
  160.9150  212.1060  146.3880 C   0  0  0  0  0  2  0  0  0  0  0  0
  161.1590  213.0150  145.3600 O   0  0  0  0  0  1  0  0  0  0  0  0
  157.8100  212.5070  146.0020 C   0  0  0  0  0  2  0  0  0  0  0  0
  157.2460  213.6560  145.4440 O   0  0  0  0  0  1  0  0  0  0  0  0
  161.6290  208.8880  153.0560 C   0  0  2  0  0  3  0  0  0  0  0  0
  163.2350  210.0070  151.6980 O   0  0  0  0  0  0  0  0  0  0  0  0
  161.3150  209.3060  150.5710 N   0  0  0  0  0  2  0  0  0  0  0  0
  162.1170  209.4290  151.7470 C   0  0  0  0  0  0  0  0  0  0  0  0
  161.7520  209.8330  149.2870 C   0  0  0  0  0  2  0  0  0  0  0  0
  162.3340  208.7140  148.4370 C   0  0  0  0  0  2  0  0  0  0  0  0
  162.0810  207.4210  149.0610 N   0  0  0  0  0  2  0  0  0  0  0  0
  161.2430  204.3830  148.1240 C   0  0  1  0  0  3  0  0  0  0  0  0
  160.3300  204.0190  147.1120 O   0  0  0  0  0  0  0  0  0  0  0  0
  160.8490  206.8730  148.5030 C   0  0  2  0  0  3  0  0  0  0  0  0
  159.9170  206.1540  146.3750 O   0  0  0  0  0  0  0  0  0  0  0  0
  160.4040  204.9040  146.0660 N   0  0  0  0  0  0  0  0  0  0  0  0
  160.6030  205.4470  149.0320 C   0  0  2  0  0  3  0  0  0  0  0  0
  161.0170  205.3380  150.3630 O   0  0  0  0  0  1  0  0  0  0  0  0
  160.9300  206.9230  146.9760 C   0  0  0  0  0  2  0  0  0  0  0  0
  161.6090  205.3210  143.5370 O   0  0  0  0  0  0  0  0  0  0  0  0
  161.9140  204.8280  145.1260 P   0  0  0  0  0  0  0  0  0  0  0  0
  163.0990  205.8330  145.8020 O   0  0  0  0  0  1  0  0  0  0  0  0
  162.4200  203.4030  145.1130 O   0  0  0  0  0  1  0  0  0  0  0  0
  161.7680  202.8380  149.0400 P   0  0  0  0  0  2  0  0  0  0  0  0
  160.9560  201.7450  147.9610 O   0  0  0  0  0  1  0  0  0  0  0  0
  160.8500  207.5880  152.8910 C   0  0  0  0  0  2  0  0  0  0  0  0
  161.5130  206.5500  153.5490 O   0  0  0  0  0  1  0  0  0  0  0  0
  2  1  2  0  0  0  0
  2 11  1  0  0  0  0
  3  2  1  0  0  0  0
  4  3  2  0  0  0  0
  4  5  1  0  0  0  0
  5  6  2  0  0  0  0
  6  1  1  0  0  0  0
  7 10  2  0  0  0  0
  8 12  1  0  0  0  0
  8 10  1  0  0  0  0
  9 11  2  0  0  0  0
  9  8  1  0  0  0  0
 11  7  1  0  0  0  0
 13 12  1  0  0  0  0
 15 16  1  0  0  0  0
 16 14  1  6  0  0  0
 16 13  1  0  0  0  0
 17  3  1  0  0  0  0
 18 17  1  0  0  0  0
 19 18  1  0  0  0  0
 20 26  2  0  0  0  0
 20 23  1  0  0  0  0
 21 20  1  0  0  0  0
 22 21  2  0  0  0  0
 22 24  1  0  0  0  0
 24 25  1  0  0  0  0
 24 26  1  0  0  0  0
 26 19  1  0  0  0  0
 27 21  1  0  0  0  0
 28 27  1  0  0  0  0
 29 22  1  0  0  0  0
 30 29  1  0  0  0  0
 31 52  1  6  0  0  0
 31  5  1  0  0  0  0
 32 34  2  0  0  0  0
 33 34  1  0  0  0  0
 34 31  1  0  0  0  0
 35 33  1  0  0  0  0
 36 37  1  0  0  0  0
 36 35  1  0  0  0  0
 38 43  1  0  0  0  0
 38 50  1  1  0  0  0
 39 38  1  0  0  0  0
 40 43  1  0  0  0  0
 40 37  1  1  0  0  0
 41 45  1  0  0  0  0
 42 41  1  0  0  0  0
 42 39  1  0  0  0  0
 43 44  1  1  0  0  0
 45 40  1  0  0  0  0
 46 47  2  0  0  0  0
 47 48  1  0  0  0  0
 47 42  1  0  0  0  0
 49 47  1  0  0  0  0
 51 50  1  0  0  0  0
 52 53  1  0  0  0  0
M  END
>  <MODEL>
7

>  <REMARK>
 VINA RESULT:      -3.1      4.287      7.640
  Name = 
  19 active torsions:
  status: ('A' for Active; 'I' for Inactive)
    1  A    between atoms: C_2  and  C_3
    2  A    between atoms: C_4  and  N_35
    3  A    between atoms: C_4  and  N_45
    4  A    between atoms: C_5  and  C_19
    5  A    between atoms: N_6  and  C_12
    6  A    between atoms: N_6  and  C_25
    7  A    between atoms: C_10  and  P_15
    8  A    between atoms: C_12  and  C_21
    9  A    between atoms: C_13  and  C_18
   10  A    between atoms: C_13  and  C_48
   11  A    between atoms: C_18  and  C_33
   12  A    between atoms: C_21  and  N_30
   13  A    between atoms: C_22  and  C_34
   14  A    between atoms: P_23  and  N_29
   15  A    between atoms: C_24  and  C_51
   16  A    between atoms: C_34  and  C_42
   17  A    between atoms: C_34  and  C_50
   18  A    between atoms: C_41  and  C_48
   19  A    between atoms: N_45  and  C_52
                            x       y       z     vdW  Elec       q    Type
                         _______ _______ _______ _____ _____    ______ ____

>  <TORSDO>
F 19

$$$$
=
 OpenBabel11052410393D

 53 56  0  0  1  0  0  0  0  0999 V2000
  157.1790  214.0380  150.3690 C   0  0  0  0  0  3  0  0  0  0  0  0
  158.3360  213.6570  151.0660 C   0  0  0  0  0  0  0  0  0  0  0  0
  159.4480  213.1760  150.3250 C   0  0  0  0  0  0  0  0  0  0  0  0
  159.3750  213.1080  148.9290 C   0  0  0  0  0  3  0  0  0  0  0  0
  158.2200  213.4980  148.2510 C   0  0  0  0  0  0  0  0  0  0  0  0
  157.1170  213.9600  148.9780 C   0  0  0  0  0  3  0  0  0  0  0  0
  159.2450  214.4530  153.3450 C   0  0  0  0  0  3  0  0  0  0  0  0
  157.6750  213.6520  154.5630 N   0  0  0  0  0  0  0  0  0  0  0  0
  157.3500  213.3000  153.3320 N   0  0  0  0  0  0  0  0  0  0  0  0
  158.8010  214.3420  154.6130 N   0  0  0  0  0  0  0  0  0  0  0  0
  158.3260  213.7920  152.5450 C   0  0  0  0  0  0  0  0  0  0  0  0
  156.8710  213.3310  155.7290 C   0  0  0  0  0  2  0  0  0  0  0  0
  155.7850  212.4420  155.3490 N   0  0  0  0  0  2  0  0  0  0  0  0
  154.7790  210.4210  156.2270 C   0  0  0  0  0  1  0  0  0  0  0  0
  156.8230  210.3790  155.0200 O   0  0  0  0  0  1  0  0  0  0  0  0
  156.0760  211.1400  155.9230 C   0  0  1  0  0  3  0  0  0  0  0  0
  160.7260  212.7380  150.9610 C   0  0  0  0  0  2  0  0  0  0  0  0
  160.4910  211.5120  151.8210 C   0  0  0  0  0  2  0  0  0  0  0  0
  160.6610  210.2710  150.9680 C   0  0  0  0  0  2  0  0  0  0  0  0
  160.6120  209.0210  153.1990 C   0  0  0  0  0  0  0  0  0  0  0  0
  160.8740  207.7270  153.6030 C   0  0  0  0  0  0  0  0  0  0  0  0
  161.2450  207.0290  152.4660 C   0  0  0  0  0  0  0  0  0  0  0  0
  160.1660  210.0360  153.9800 F   0  0  0  0  0  0  0  0  0  0  0  0
  161.2160  207.8510  151.3950 N   0  0  0  0  0  0  0  0  0  0  0  0
  161.5070  207.4870  150.0160 C   0  0  0  0  0  1  0  0  0  0  0  0
  160.8380  209.0690  151.8370 C   0  0  0  0  0  0  0  0  0  0  0  0
  160.6740  207.1720  154.9720 C   0  0  0  0  0  2  0  0  0  0  0  0
  161.5330  207.8090  155.8650 O   0  0  0  0  0  1  0  0  0  0  0  0
  161.5450  205.5650  152.4010 C   0  0  0  0  0  2  0  0  0  0  0  0
  160.5300  204.9090  151.7020 O   0  0  0  0  0  1  0  0  0  0  0  0
  158.1940  213.4150  146.7560 C   0  0  2  0  0  3  0  0  0  0  0  0
  160.5040  213.9770  146.9170 O   0  0  0  0  0  0  0  0  0  0  0  0
  159.7930  213.3510  144.7840 N   0  0  0  0  0  2  0  0  0  0  0  0
  159.5620  213.5950  146.1740 C   0  0  0  0  0  0  0  0  0  0  0  0
  161.1050  213.5300  144.1820 C   0  0  0  0  0  2  0  0  0  0  0  0
  161.0210  213.3100  142.6790 C   0  0  0  0  0  2  0  0  0  0  0  0
  159.7240  213.7450  142.1760 N   0  0  0  0  0  2  0  0  0  0  0  0
  159.5010  212.0200  139.3850 C   0  0  1  0  0  3  0  0  0  0  0  0
  160.1870  212.2550  138.1750 O   0  0  0  0  0  0  0  0  0  0  0  0
  159.8760  214.1240  140.7740 C   0  0  2  0  0  3  0  0  0  0  0  0
  161.4890  213.9750  138.9610 O   0  0  0  0  0  0  0  0  0  0  0  0
  161.4580  212.7060  138.4300 N   0  0  0  0  0  0  0  0  0  0  0  0
  158.8900  213.3370  139.8910 C   0  0  2  0  0  3  0  0  0  0  0  0
  157.6760  213.1440  140.5590 O   0  0  0  0  0  1  0  0  0  0  0  0
  161.3320  213.9100  140.3570 C   0  0  0  0  0  2  0  0  0  0  0  0
  162.5020  210.0820  138.2230 O   0  0  0  0  0  0  0  0  0  0  0  0
  162.5530  211.4980  139.1450 P   0  0  0  0  0  0  0  0  0  0  0  0
  164.1450  212.0750  139.1900 O   0  0  0  0  0  1  0  0  0  0  0  0
  162.0970  211.1880  140.5530 O   0  0  0  0  0  1  0  0  0  0  0  0
  158.2390  210.6680  139.1050 P   0  0  0  0  0  2  0  0  0  0  0  0
  157.0700  211.7120  138.3560 O   0  0  0  0  0  1  0  0  0  0  0  0
  157.1790  214.3850  146.1650 C   0  0  0  0  0  2  0  0  0  0  0  0
  156.5490  213.8030  145.0630 O   0  0  0  0  0  1  0  0  0  0  0  0
  1  2  1  0  0  0  0
  2 11  1  0  0  0  0
  3 17  1  0  0  0  0
  3  2  2  0  0  0  0
  4  3  1  0  0  0  0
  5  4  2  0  0  0  0
  5  6  1  0  0  0  0
  6  1  2  0  0  0  0
  7 10  2  0  0  0  0
  8 10  1  0  0  0  0
  8 12  1  0  0  0  0
  9  8  1  0  0  0  0
 11  9  2  0  0  0  0
 11  7  1  0  0  0  0
 13 12  1  0  0  0  0
 13 16  1  0  0  0  0
 15 16  1  0  0  0  0
 16 14  1  6  0  0  0
 17 18  1  0  0  0  0
 19 18  1  0  0  0  0
 19 26  1  0  0  0  0
 20 21  1  0  0  0  0
 20 23  1  0  0  0  0
 21 27  1  0  0  0  0
 22 21  2  0  0  0  0
 24 26  1  0  0  0  0
 24 22  1  0  0  0  0
 25 24  1  0  0  0  0
 26 20  2  0  0  0  0
 27 28  1  0  0  0  0
 29 22  1  0  0  0  0
 30 29  1  0  0  0  0
 31 52  1  6  0  0  0
 31  5  1  0  0  0  0
 33 34  1  0  0  0  0
 34 31  1  0  0  0  0
 34 32  2  0  0  0  0
 35 33  1  0  0  0  0
 36 35  1  0  0  0  0
 37 36  1  0  0  0  0
 38 50  1  6  0  0  0
 38 43  1  0  0  0  0
 39 42  1  0  0  0  0
 39 38  1  0  0  0  0
 40 37  1  1  0  0  0
 41 45  1  0  0  0  0
 42 41  1  0  0  0  0
 42 47  1  0  0  0  0
 43 44  1  1  0  0  0
 43 40  1  0  0  0  0
 45 40  1  0  0  0  0
 46 47  2  0  0  0  0
 47 48  1  0  0  0  0
 47 49  1  0  0  0  0
 51 50  1  0  0  0  0
 53 52  1  0  0  0  0
M  END
>  <MODEL>
8

>  <REMARK>
 VINA RESULT:      -3.0      1.819      2.559
  Name = 
  19 active torsions:
  status: ('A' for Active; 'I' for Inactive)
    1  A    between atoms: C_2  and  C_3
    2  A    between atoms: C_4  and  N_35
    3  A    between atoms: C_4  and  N_45
    4  A    between atoms: C_5  and  C_19
    5  A    between atoms: N_6  and  C_12
    6  A    between atoms: N_6  and  C_25
    7  A    between atoms: C_10  and  P_15
    8  A    between atoms: C_12  and  C_21
    9  A    between atoms: C_13  and  C_18
   10  A    between atoms: C_13  and  C_48
   11  A    between atoms: C_18  and  C_33
   12  A    between atoms: C_21  and  N_30
   13  A    between atoms: C_22  and  C_34
   14  A    between atoms: P_23  and  N_29
   15  A    between atoms: C_24  and  C_51
   16  A    between atoms: C_34  and  C_42
   17  A    between atoms: C_34  and  C_50
   18  A    between atoms: C_41  and  C_48
   19  A    between atoms: N_45  and  C_52
                            x       y       z     vdW  Elec       q    Type
                         _______ _______ _______ _____ _____    ______ ____

>  <TORSDO>
F 19

$$$$
=
 OpenBabel11052410393D

 53 56  0  0  1  0  0  0  0  0999 V2000
  160.6730  204.9090  149.8630 C   0  0  0  0  0  3  0  0  0  0  0  0
  161.3100  205.7130  148.9050 C   0  0  0  0  0  0  0  0  0  0  0  0
  161.6950  207.0300  149.2730 C   0  0  0  0  0  0  0  0  0  0  0  0
  161.4490  207.4890  150.5710 C   0  0  0  0  0  3  0  0  0  0  0  0
  160.8210  206.6740  151.5130 C   0  0  0  0  0  0  0  0  0  0  0  0
  160.4280  205.3810  151.1530 C   0  0  0  0  0  3  0  0  0  0  0  0
  162.4570  205.5450  146.6010 C   0  0  0  0  0  3  0  0  0  0  0  0
  161.4250  203.8020  145.9060 N   0  0  0  0  0  0  0  0  0  0  0  0
  160.9170  204.0300  147.1040 N   0  0  0  0  0  0  0  0  0  0  0  0
  162.3480  204.6850  145.5690 N   0  0  0  0  0  0  0  0  0  0  0  0
  161.5520  205.1260  147.5640 C   0  0  0  0  0  0  0  0  0  0  0  0
  161.0240  202.6900  145.0620 C   0  0  0  0  0  2  0  0  0  0  0  0
  160.3380  201.6870  145.8620 N   0  0  0  0  0  2  0  0  0  0  0  0
  161.5170  200.6460  147.7030 C   0  0  0  0  0  1  0  0  0  0  0  0
  160.8600  199.4160  145.7820 O   0  0  0  0  0  1  0  0  0  0  0  0
  161.3140  200.6680  146.2040 C   0  0  1  0  0  3  0  0  0  0  0  0
  162.3730  207.9740  148.3340 C   0  0  0  0  0  2  0  0  0  0  0  0
  161.4910  209.1780  148.0720 C   0  0  0  0  0  2  0  0  0  0  0  0
  162.3630  210.4110  147.9470 C   0  0  0  0  0  2  0  0  0  0  0  0
  160.9850  212.4010  147.1230 C   0  0  0  0  0  0  0  0  0  0  0  0
  160.2940  213.4330  147.7280 C   0  0  0  0  0  0  0  0  0  0  0  0
  160.4530  213.2630  149.0930 C   0  0  0  0  0  0  0  0  0  0  0  0
  161.0550  212.1480  145.7920 F   0  0  0  0  0  0  0  0  0  0  0  0
  161.2090  212.1700  149.3320 N   0  0  0  0  0  0  0  0  0  0  0  0
  161.5720  211.6380  150.6380 C   0  0  0  0  0  1  0  0  0  0  0  0
  161.5430  211.6450  148.1350 C   0  0  0  0  0  0  0  0  0  0  0  0
  159.4480  214.4500  147.0420 C   0  0  0  0  0  2  0  0  0  0  0  0
  158.1410  213.9800  146.9390 O   0  0  0  0  0  1  0  0  0  0  0  0
  159.8130  214.0980  150.1560 C   0  0  0  0  0  2  0  0  0  0  0  0
  158.5520  213.5830  150.4620 O   0  0  0  0  0  1  0  0  0  0  0  0
  160.5880  207.2080  152.8930 C   0  0  2  0  0  3  0  0  0  0  0  0
  162.3780  208.7780  152.7950 O   0  0  0  0  0  0  0  0  0  0  0  0
  160.3380  209.6590  153.5080 N   0  0  0  0  0  2  0  0  0  0  0  0
  161.1610  208.5830  153.0520 C   0  0  0  0  0  0  0  0  0  0  0  0
  160.8640  211.0040  153.6880 C   0  0  0  0  0  2  0  0  0  0  0  0
  159.8240  211.8820  154.3660 C   0  0  0  0  0  2  0  0  0  0  0  0
  160.3660  212.4500  155.5950 N   0  0  0  0  0  2  0  0  0  0  0  0
  157.3380  211.1770  155.7630 C   0  0  1  0  0  3  0  0  0  0  0  0
  156.1790  211.7900  156.2830 O   0  0  0  0  0  0  0  0  0  0  0  0
  159.2660  212.6560  156.5330 C   0  0  2  0  0  3  0  0  0  0  0  0
  157.1440  213.8310  156.6970 O   0  0  0  0  0  0  0  0  0  0  0  0
  156.1840  213.1330  156.0010 N   0  0  0  0  0  0  0  0  0  0  0  0
  158.4960  211.3430  156.7620 C   0  0  2  0  0  3  0  0  0  0  0  0
  159.3710  210.2510  156.7550 O   0  0  0  0  0  1  0  0  0  0  0  0
  158.3680  213.7760  156.0050 C   0  0  0  0  0  2  0  0  0  0  0  0
  155.8600  212.1100  153.3800 O   0  0  0  0  0  0  0  0  0  0  0  0
  155.9700  213.5370  154.2800 P   0  0  0  0  0  0  0  0  0  0  0  0
  154.5640  214.4530  154.0440 O   0  0  0  0  0  1  0  0  0  0  0  0
  157.1650  214.3320  153.8040 O   0  0  0  0  0  1  0  0  0  0  0  0
  156.9450  209.3930  155.3620 P   0  0  0  0  0  2  0  0  0  0  0  0
  155.2220  209.6080  155.4150 O   0  0  0  0  0  1  0  0  0  0  0  0
  161.0960  206.2410  153.9550 C   0  0  0  0  0  2  0  0  0  0  0  0
  160.8710  206.7690  155.2270 O   0  0  0  0  0  1  0  0  0  0  0  0
  1  6  1  0  0  0  0
  2  3  1  0  0  0  0
  2  1  2  0  0  0  0
  3  4  2  0  0  0  0
  4  5  1  0  0  0  0
  5 31  1  0  0  0  0
  6  5  2  0  0  0  0
  7 11  1  0  0  0  0
  8  9  1  0  0  0  0
  9 11  2  0  0  0  0
 10  8  1  0  0  0  0
 10  7  2  0  0  0  0
 11  2  1  0  0  0  0
 12 13  1  0  0  0  0
 12  8  1  0  0  0  0
 13 16  1  0  0  0  0
 15 16  1  0  0  0  0
 16 14  1  1  0  0  0
 17  3  1  0  0  0  0
 18 17  1  0  0  0  0
 19 18  1  0  0  0  0
 19 26  1  0  0  0  0
 20 21  1  0  0  0  0
 20 26  2  0  0  0  0
 21 22  2  0  0  0  0
 22 24  1  0  0  0  0
 22 29  1  0  0  0  0
 23 20  1  0  0  0  0
 24 25  1  0  0  0  0
 26 24  1  0  0  0  0
 27 21  1  0  0  0  0
 28 27  1  0  0  0  0
 29 30  1  0  0  0  0
 31 34  1  0  0  0  0
 31 52  1  1  0  0  0
 32 34  2  0  0  0  0
 33 35  1  0  0  0  0
 34 33  1  0  0  0  0
 35 36  1  0  0  0  0
 36 37  1  0  0  0  0
 38 50  1  1  0  0  0
 38 39  1  0  0  0  0
 38 43  1  0  0  0  0
 40 37  1  6  0  0  0
 40 43  1  0  0  0  0
 42 39  1  0  0  0  0
 42 41  1  0  0  0  0
 43 44  1  6  0  0  0
 45 40  1  0  0  0  0
 45 41  1  0  0  0  0
 46 47  2  0  0  0  0
 47 42  1  0  0  0  0
 48 47  1  0  0  0  0
 49 47  1  0  0  0  0
 50 51  1  0  0  0  0
 52 53  1  0  0  0  0
M  END
>  <MODEL>
9

>  <REMARK>
 VINA RESULT:      -2.9      5.816     12.384
  Name = 
  19 active torsions:
  status: ('A' for Active; 'I' for Inactive)
    1  A    between atoms: C_2  and  C_3
    2  A    between atoms: C_4  and  N_35
    3  A    between atoms: C_4  and  N_45
    4  A    between atoms: C_5  and  C_19
    5  A    between atoms: N_6  and  C_12
    6  A    between atoms: N_6  and  C_25
    7  A    between atoms: C_10  and  P_15
    8  A    between atoms: C_12  and  C_21
    9  A    between atoms: C_13  and  C_18
   10  A    between atoms: C_13  and  C_48
   11  A    between atoms: C_18  and  C_33
   12  A    between atoms: C_21  and  N_30
   13  A    between atoms: C_22  and  C_34
   14  A    between atoms: P_23  and  N_29
   15  A    between atoms: C_24  and  C_51
   16  A    between atoms: C_34  and  C_42
   17  A    between atoms: C_34  and  C_50
   18  A    between atoms: C_41  and  C_48
   19  A    between atoms: N_45  and  C_52
                            x       y       z     vdW  Elec       q    Type
                         _______ _______ _______ _____ _____    ______ ____

>  <TORSDO>
F 19

$$$$
