=
 OpenBabel11052412113D

 56 60  0  0  1  0  0  0  0  0999 V2000
  162.1490  210.1490  154.4970 O   0  0  0  0  0  0  0  0  0  0  0  0
  160.0920  211.5360  154.5270 C   0  0  1  0  0  3  0  0  0  0  0  0
  159.2460  210.4370  155.1830 C   0  0  2  0  0  3  0  0  0  0  0  0
  159.3640  211.9590  151.9070 C   0  0  1  0  0  3  0  0  0  0  0  0
  158.1530  211.0030  155.8390 O   0  0  0  0  0  1  0  0  0  0  0  0
  160.8620  210.2330  152.4910 C   0  0  1  0  0  3  0  0  0  0  0  0
  161.3100  211.0020  153.7410 C   0  0  2  0  0  3  0  0  0  0  0  0
  159.5860  210.5640  151.9650 O   0  0  0  0  0  0  0  0  0  0  0  0
  160.0180  209.5510  156.1900 C   0  0  2  0  0  3  0  0  0  0  0  0
  162.3320  210.6910  155.7800 C   0  0  0  0  0  2  0  0  0  0  0  0
  161.3510  210.0620  156.7810 C   0  0  0  0  0  2  0  0  0  0  0  0
  159.1040  212.7210  153.5460 S   0  0  0  0  0  0  0  0  0  0  0  0
  160.0550  213.5990  150.1190 C   0  0  0  0  0  0  0  0  0  0  0  0
  160.3870  212.6620  151.1450 N   0  0  0  0  0  2  0  0  0  0  0  0
  158.8640  213.7320  149.7300 O   0  0  0  0  0  0  0  0  0  0  0  0
  161.1250  214.4490  149.5210 C   0  0  0  0  0  2  0  0  0  0  0  0
  162.4000  213.7840  146.0180 C   0  0  0  0  0  3  0  0  0  0  0  0
  161.2390  213.9810  145.2550 C   0  0  0  0  0  0  0  0  0  0  0  0
  162.3600  213.9290  147.4080 C   0  0  0  0  0  3  0  0  0  0  0  0
  160.0370  214.3060  145.8960 C   0  0  0  0  0  3  0  0  0  0  0  0
  159.9980  214.4480  147.2860 C   0  0  0  0  0  3  0  0  0  0  0  0
  161.1590  214.2580  148.0440 C   0  0  0  0  0  0  0  0  0  0  0  0
  161.2470  213.8210  143.7660 C   0  0  2  0  0  3  0  0  0  0  0  0
  158.8210  214.1880  143.9160 N   0  0  0  0  0  0  0  0  0  0  0  0
  158.2760  214.4520  141.6300 C   0  0  0  0  0  3  0  0  0  0  0  0
  159.6560  214.2220  141.8470 O   0  0  0  0  0  0  0  0  0  0  0  0
  159.8810  214.0670  143.1950 C   0  0  0  0  0  0  0  0  0  0  0  0
  157.6850  214.4520  143.0430 C   0  0  0  0  0  3  0  0  0  0  0  0
  161.8190  212.4690  143.3570 C   0  0  0  0  0  2  0  0  0  0  0  0
  162.2670  212.4950  141.9060 C   0  0  0  0  0  2  0  0  0  0  0  0
  161.5200  211.4390  141.1080 C   0  0  0  0  0  2  0  0  0  0  0  0
  162.0870  210.2030  139.0750 N   0  0  0  0  0  1  0  0  0  0  0  0
  162.4780  210.4550  140.4490 C   0  0  0  0  0  2  0  0  0  0  0  0
  160.0460  207.1870  157.1640 C   0  0  0  0  0  1  0  0  0  0  0  0
  160.0050  208.0440  155.9040 C   0  0  2  0  0  3  0  0  0  0  0  0
  161.0830  207.6310  154.9010 C   0  0  1  0  0  3  0  0  0  0  0  0
  162.1600  207.0140  155.5570 O   0  0  0  0  0  1  0  0  0  0  0  0
  160.5100  206.7280  153.9050 N   0  0  0  0  0  2  0  0  0  0  0  0
  161.3270  206.7820  152.7010 C   0  0  0  0  0  2  0  0  0  0  0  0
  161.6880  205.3800  152.2320 C   0  0  0  0  0  2  0  0  0  0  0  0
  160.6120  204.7680  151.5700 O   0  0  0  0  0  0  0  0  0  0  0  0
  161.2530  203.4510  148.0790 C   0  0  0  0  0  0  0  0  0  0  0  0
  159.6140  202.8740  149.7200 O   0  0  0  0  0  1  0  0  0  0  0  0
  159.9670  205.8800  149.5180 C   0  0  0  0  0  2  0  0  0  0  0  0
  162.4310  204.2260  147.5320 C   0  0  0  0  0  2  0  0  0  0  0  0
  161.2230  206.5140  147.7210 C   0  0  1  0  0  3  0  0  0  0  0  0
  161.8940  202.5540  150.2740 C   0  0  0  0  0  1  0  0  0  0  0  0
  160.6080  202.7720  147.2940 O   0  0  0  0  0  0  0  0  0  0  0  0
  160.0520  205.8380  148.1140 O   0  0  0  0  0  0  0  0  0  0  0  0
  162.4980  205.6900  147.9830 C   0  0  0  0  0  2  0  0  0  0  0  0
  160.8850  203.4360  149.5570 C   0  0  1  0  0  0  0  0  0  0  0  0
  160.8950  204.8450  150.1970 C   0  0  2  0  0  3  0  0  0  0  0  0
  161.1440  206.8220  146.3640 O   0  0  0  0  0  1  0  0  0  0  0  0
  161.9490  210.1680  151.4220 C   0  0  0  0  0  2  0  0  0  0  0  0
  161.3790  209.6710  150.1040 C   0  0  0  0  0  2  0  0  0  0  0  0
  162.3980  209.1170  149.3260 O   0  0  0  0  0  1  0  0  0  0  0  0
  1 10  1  0  0  0  0
  2 12  1  6  0  0  0
  2  3  1  0  0  0  0
  3  5  1  1  0  0  0
  3  9  1  0  0  0  0
  4 14  1  1  0  0  0
  4  8  1  0  0  0  0
  4 12  1  0  0  0  0
  6 54  1  6  0  0  0
  6  7  1  0  0  0  0
  7  1  1  1  0  0  0
  7  2  1  0  0  0  0
  8  6  1  0  0  0  0
  9 35  1  6  0  0  0
  9 11  1  0  0  0  0
 10 11  1  0  0  0  0
 13 14  1  0  0  0  0
 15 13  2  0  0  0  0
 16 13  1  0  0  0  0
 17 19  1  0  0  0  0
 18 20  1  0  0  0  0
 18 17  2  0  0  0  0
 19 22  2  0  0  0  0
 20 21  2  0  0  0  0
 21 22  1  0  0  0  0
 22 16  1  0  0  0  0
 23 29  1  1  0  0  0
 23 18  1  0  0  0  0
 25 26  1  0  0  0  0
 25 28  2  0  0  0  0
 26 27  1  0  0  0  0
 27 23  1  0  0  0  0
 27 24  2  0  0  0  0
 28 24  1  0  0  0  0
 30 29  1  0  0  0  0
 31 30  1  0  0  0  0
 32 33  1  0  0  0  0
 33 31  1  0  0  0  0
 35 34  1  1  0  0  0
 36 37  1  1  0  0  0
 36 35  1  0  0  0  0
 38 36  1  0  0  0  0
 39 38  1  0  0  0  0
 40 39  1  0  0  0  0
 41 40  1  0  0  0  0
 42 51  1  0  0  0  0
 44 52  1  0  0  0  0
 45 50  1  0  0  0  0
 45 42  1  0  0  0  0
 46 53  1  6  0  0  0
 46 50  1  0  0  0  0
 46 49  1  0  0  0  0
 48 42  2  0  0  0  0
 49 44  1  0  0  0  0
 51 43  1  0  0  0  0
 51 52  1  0  0  0  0
 51 47  1  1  0  0  0
 52 41  1  1  0  0  0
 55 54  1  0  0  0  0
 56 55  1  0  0  0  0
M  END
>  <MODEL>
1

>  <REMARK>
 VINA RESULT:      -4.8      0.000      0.000
  Name = 
  18 active torsions:
  status: ('A' for Active; 'I' for Inactive)
    1  A    between atoms: C_5  and  C_31
    2  A    between atoms: N_7  and  C_29
    3  A    between atoms: C_11  and  C_27
    4  A    between atoms: C_12  and  C_33
    5  A    between atoms: C_12  and  N_50
    6  A    between atoms: C_16  and  N_50
    7  A    between atoms: C_16  and  C_53
    8  A    between atoms: C_19  and  C_22
    9  A    between atoms: C_19  and  C_38
   10  A    between atoms: C_22  and  C_37
   11  A    between atoms: C_25  and  C_37
   12  A    between atoms: C_27  and  C_41
   13  A    between atoms: C_31  and  C_52
   14  A    between atoms: C_32  and  C_37
   15  A    between atoms: C_33  and  C_46
   16  A    between atoms: C_38  and  C_42
   17  A    between atoms: C_47  and  O_56
   18  A    between atoms: C_53  and  O_56
                            x       y       z     vdW  Elec       q    Type
                         _______ _______ _______ _____ _____    ______ ____

>  <TORSDO>
F 18

$$$$
=
 OpenBabel11052412113D

 56 60  0  0  1  0  0  0  0  0999 V2000
  158.8360  213.4000  142.9310 O   0  0  0  0  0  0  0  0  0  0  0  0
  161.0640  214.0220  143.8280 C   0  0  1  0  0  3  0  0  0  0  0  0
  161.8170  213.1050  142.8550 C   0  0  2  0  0  3  0  0  0  0  0  0
  161.1850  213.0890  146.4140 C   0  0  1  0  0  3  0  0  0  0  0  0
  163.1280  213.5540  142.6930 O   0  0  0  0  0  1  0  0  0  0  0  0
  159.5730  212.2690  144.8980 C   0  0  1  0  0  3  0  0  0  0  0  0
  159.6090  213.5820  144.1020 C   0  0  2  0  0  3  0  0  0  0  0  0
  160.7180  211.9720  145.6830 O   0  0  0  0  0  0  0  0  0  0  0  0
  161.1630  212.9800  141.4580 C   0  0  2  0  0  3  0  0  0  0  0  0
  159.0870  214.4530  142.0370 C   0  0  0  0  0  2  0  0  0  0  0  0
  160.1450  214.0470  141.0000 C   0  0  0  0  0  2  0  0  0  0  0  0
  161.9870  214.3540  145.3700 S   0  0  0  0  0  0  0  0  0  0  0  0
  160.2690  213.6580  148.6950 C   0  0  0  0  0  0  0  0  0  0  0  0
  160.1600  213.6710  147.2700 N   0  0  0  0  0  2  0  0  0  0  0  0
  161.1820  213.0030  149.2640 O   0  0  0  0  0  0  0  0  0  0  0  0
  159.3120  214.4530  149.5160 C   0  0  0  0  0  2  0  0  0  0  0  0
  159.7230  212.1370  152.4830 C   0  0  0  0  0  3  0  0  0  0  0  0
  158.5630  212.4180  153.2210 C   0  0  0  0  0  0  0  0  0  0  0  0
  159.9710  212.8060  151.2810 C   0  0  0  0  0  3  0  0  0  0  0  0
  157.6640  213.3850  152.7550 C   0  0  0  0  0  3  0  0  0  0  0  0
  157.9130  214.0550  151.5540 C   0  0  0  0  0  3  0  0  0  0  0  0
  159.0670  213.7670  150.8160 C   0  0  0  0  0  0  0  0  0  0  0  0
  158.2770  211.7270  154.5190 C   0  0  2  0  0  3  0  0  0  0  0  0
  156.1950  212.3290  155.6790 N   0  0  0  0  0  0  0  0  0  0  0  0
  156.8750  214.2940  156.8050 C   0  0  0  0  0  3  0  0  0  0  0  0
  157.9100  213.7120  156.0350 O   0  0  0  0  0  0  0  0  0  0  0  0
  157.4260  212.5880  155.4060 C   0  0  0  0  0  0  0  0  0  0  0  0
  155.6910  213.3480  156.5910 C   0  0  0  0  0  3  0  0  0  0  0  0
  159.5630  211.2740  155.2000 C   0  0  0  0  0  2  0  0  0  0  0  0
  159.3920  209.8860  155.7950 C   0  0  0  0  0  2  0  0  0  0  0  0
  160.3610  208.9130  155.1430 C   0  0  0  0  0  2  0  0  0  0  0  0
  160.7100  207.0740  156.7180 N   0  0  0  0  0  1  0  0  0  0  0  0
  160.0270  207.4700  155.5000 C   0  0  0  0  0  2  0  0  0  0  0  0
  160.6900  210.5680  142.1620 C   0  0  0  0  0  1  0  0  0  0  0  0
  160.8120  211.5560  141.0080 C   0  0  2  0  0  3  0  0  0  0  0  0
  161.7520  211.0400  139.9160 C   0  0  1  0  0  3  0  0  0  0  0  0
  162.2070  209.7490  140.2250 O   0  0  0  0  0  1  0  0  0  0  0  0
  161.0610  211.0420  138.6300 N   0  0  0  0  0  2  0  0  0  0  0  0
  159.7370  211.6210  138.8110 C   0  0  0  0  0  2  0  0  0  0  0  0
  158.7240  210.9480  137.8960 C   0  0  0  0  0  2  0  0  0  0  0  0
  157.5460  211.7050  137.7940 O   0  0  0  0  0  0  0  0  0  0  0  0
  153.9810  210.7100  138.5950 C   0  0  0  0  0  0  0  0  0  0  0  0
  154.8830  212.2570  137.0110 O   0  0  0  0  0  1  0  0  0  0  0  0
  156.4640  209.6680  137.0540 C   0  0  0  0  0  2  0  0  0  0  0  0
  154.0560  209.6700  139.6900 C   0  0  0  0  0  2  0  0  0  0  0  0
  155.4420  208.0160  138.2520 C   0  0  1  0  0  3  0  0  0  0  0  0
  155.3020  212.6540  139.3080 C   0  0  0  0  0  1  0  0  0  0  0  0
  152.9080  210.8610  138.0290 O   0  0  0  0  0  0  0  0  0  0  0  0
  155.2990  208.8860  137.1540 O   0  0  0  0  0  0  0  0  0  0  0  0
  155.2680  208.7350  139.6030 C   0  0  0  0  0  2  0  0  0  0  0  0
  155.1550  211.6040  138.2190 C   0  0  1  0  0  0  0  0  0  0  0  0
  156.4870  210.8280  138.0780 C   0  0  2  0  0  3  0  0  0  0  0  0
  154.5050  206.9890  138.1510 O   0  0  0  0  0  1  0  0  0  0  0  0
  158.2640  212.0790  145.6560 C   0  0  0  0  0  2  0  0  0  0  0  0
  157.3500  213.2770  145.4620 C   0  0  0  0  0  2  0  0  0  0  0  0
  156.7360  213.6070  146.6720 O   0  0  0  0  0  1  0  0  0  0  0  0
  2  7  1  0  0  0  0
  2 12  1  1  0  0  0
  3  5  1  6  0  0  0
  3  2  1  0  0  0  0
  4 14  1  6  0  0  0
  6 54  1  1  0  0  0
  6  8  1  0  0  0  0
  7  1  1  6  0  0  0
  7  6  1  0  0  0  0
  8  4  1  0  0  0  0
  9 35  1  1  0  0  0
  9  3  1  0  0  0  0
 10  1  1  0  0  0  0
 11  9  1  0  0  0  0
 11 10  1  0  0  0  0
 12  4  1  0  0  0  0
 13 15  2  0  0  0  0
 13 16  1  0  0  0  0
 14 13  1  0  0  0  0
 16 22  1  0  0  0  0
 17 18  1  0  0  0  0
 18 23  1  0  0  0  0
 19 17  2  0  0  0  0
 20 18  2  0  0  0  0
 21 20  1  0  0  0  0
 22 19  1  0  0  0  0
 22 21  2  0  0  0  0
 23 29  1  1  0  0  0
 23 27  1  0  0  0  0
 24 28  1  0  0  0  0
 26 25  1  0  0  0  0
 27 24  2  0  0  0  0
 27 26  1  0  0  0  0
 28 25  2  0  0  0  0
 29 30  1  0  0  0  0
 31 33  1  0  0  0  0
 31 30  1  0  0  0  0
 33 32  1  0  0  0  0
 35 34  1  1  0  0  0
 36 37  1  1  0  0  0
 36 35  1  0  0  0  0
 38 39  1  0  0  0  0
 38 36  1  0  0  0  0
 40 39  1  0  0  0  0
 41 40  1  0  0  0  0
 42 45  1  0  0  0  0
 43 51  1  0  0  0  0
 44 49  1  0  0  0  0
 44 52  1  0  0  0  0
 46 53  1  6  0  0  0
 46 50  1  0  0  0  0
 48 42  2  0  0  0  0
 49 46  1  0  0  0  0
 50 45  1  0  0  0  0
 51 42  1  0  0  0  0
 51 47  1  1  0  0  0
 52 41  1  6  0  0  0
 52 51  1  0  0  0  0
 55 54  1  0  0  0  0
 55 56  1  0  0  0  0
M  END
>  <MODEL>
2

>  <REMARK>
 VINA RESULT:      -4.7      4.494     12.275
  Name = 
  18 active torsions:
  status: ('A' for Active; 'I' for Inactive)
    1  A    between atoms: C_5  and  C_31
    2  A    between atoms: N_7  and  C_29
    3  A    between atoms: C_11  and  C_27
    4  A    between atoms: C_12  and  C_33
    5  A    between atoms: C_12  and  N_50
    6  A    between atoms: C_16  and  N_50
    7  A    between atoms: C_16  and  C_53
    8  A    between atoms: C_19  and  C_22
    9  A    between atoms: C_19  and  C_38
   10  A    between atoms: C_22  and  C_37
   11  A    between atoms: C_25  and  C_37
   12  A    between atoms: C_27  and  C_41
   13  A    between atoms: C_31  and  C_52
   14  A    between atoms: C_32  and  C_37
   15  A    between atoms: C_33  and  C_46
   16  A    between atoms: C_38  and  C_42
   17  A    between atoms: C_47  and  O_56
   18  A    between atoms: C_53  and  O_56
                            x       y       z     vdW  Elec       q    Type
                         _______ _______ _______ _____ _____    ______ ____

>  <TORSDO>
F 18

$$$$
=
 OpenBabel11052412113D

 56 60  0  0  1  0  0  0  0  0999 V2000
  159.3970  212.9100  141.6140 O   0  0  0  0  0  0  0  0  0  0  0  0
  161.6340  213.8520  142.1240 C   0  0  1  0  0  3  0  0  0  0  0  0
  162.3580  212.9080  141.1540 C   0  0  2  0  0  3  0  0  0  0  0  0
  162.1900  213.2430  144.7490 C   0  0  1  0  0  3  0  0  0  0  0  0
  163.5770  213.4640  140.7660 O   0  0  0  0  0  1  0  0  0  0  0  0
  160.5040  212.0950  143.5640 C   0  0  1  0  0  3  0  0  0  0  0  0
  160.2870  213.3030  142.6420 C   0  0  2  0  0  3  0  0  0  0  0  0
  161.7660  212.0080  144.2080 O   0  0  0  0  0  0  0  0  0  0  0  0
  161.5500  212.5570  139.8820 C   0  0  2  0  0  3  0  0  0  0  0  0
  159.4090  213.8720  140.5920 C   0  0  0  0  0  2  0  0  0  0  0  0
  160.3660  213.4570  139.4640 C   0  0  0  0  0  2  0  0  0  0  0  0
  162.7030  214.4530  143.4810 S   0  0  0  0  0  0  0  0  0  0  0  0
  161.3040  213.5920  147.0860 C   0  0  0  0  0  0  0  0  0  0  0  0
  161.2230  213.8140  145.6770 N   0  0  0  0  0  2  0  0  0  0  0  0
  162.1260  212.7630  147.5600 O   0  0  0  0  0  0  0  0  0  0  0  0
  160.4290  214.3710  148.0080 C   0  0  0  0  0  2  0  0  0  0  0  0
  159.1210  213.3770  151.4200 C   0  0  0  0  0  3  0  0  0  0  0  0
  159.8180  212.1810  151.6500 C   0  0  0  0  0  0  0  0  0  0  0  0
  159.3140  214.0850  150.2300 C   0  0  0  0  0  3  0  0  0  0  0  0
  160.6950  211.6920  150.6730 C   0  0  0  0  0  3  0  0  0  0  0  0
  160.8860  212.4000  149.4830 C   0  0  0  0  0  3  0  0  0  0  0  0
  160.1940  213.5960  149.2600 C   0  0  0  0  0  0  0  0  0  0  0  0
  159.6230  211.3930  152.9090 C   0  0  2  0  0  3  0  0  0  0  0  0
  157.6900  211.5710  154.4170 N   0  0  0  0  0  0  0  0  0  0  0  0
  157.8980  213.8140  155.1340 C   0  0  0  0  0  3  0  0  0  0  0  0
  158.9140  213.4260  154.2290 O   0  0  0  0  0  0  0  0  0  0  0  0
  158.7090  212.1180  153.8550 C   0  0  0  0  0  0  0  0  0  0  0  0
  157.0540  212.5460  155.2930 C   0  0  0  0  0  3  0  0  0  0  0  0
  160.9580  211.0290  153.5470 C   0  0  0  0  0  2  0  0  0  0  0  0
  161.1390  209.5210  153.5840 C   0  0  0  0  0  2  0  0  0  0  0  0
  161.2800  208.9750  152.1730 C   0  0  0  0  0  2  0  0  0  0  0  0
  160.8950  206.5970  151.7490 N   0  0  0  0  0  1  0  0  0  0  0  0
  161.8800  207.5750  152.1740 C   0  0  0  0  0  2  0  0  0  0  0  0
  162.4070  210.1690  140.2020 C   0  0  0  0  0  1  0  0  0  0  0  0
  161.3110  211.0630  139.6320 C   0  0  2  0  0  3  0  0  0  0  0  0
  161.0340  210.7530  138.1600 C   0  0  1  0  0  3  0  0  0  0  0  0
  162.1460  210.1350  137.5670 O   0  0  0  0  0  1  0  0  0  0  0  0
  159.8560  209.8970  138.0490 N   0  0  0  0  0  2  0  0  0  0  0  0
  158.9800  210.1590  139.1810 C   0  0  0  0  0  2  0  0  0  0  0  0
  157.6670  209.4030  139.0330 C   0  0  0  0  0  2  0  0  0  0  0  0
  156.7260  209.8220  139.9870 O   0  0  0  0  0  0  0  0  0  0  0  0
  153.3640  210.3630  138.3330 C   0  0  0  0  0  0  0  0  0  0  0  0
  153.9660  209.3770  140.4260 O   0  0  0  0  0  1  0  0  0  0  0  0
  155.5290  211.9260  139.9110 C   0  0  0  0  0  2  0  0  0  0  0  0
  153.6340  211.0510  137.0140 C   0  0  0  0  0  2  0  0  0  0  0  0
  154.7390  213.1150  138.1310 C   0  0  1  0  0  3  0  0  0  0  0  0
  154.7910  208.3670  138.4490 C   0  0  0  0  0  1  0  0  0  0  0  0
  152.2060  210.3240  138.7250 O   0  0  0  0  0  0  0  0  0  0  0  0
  154.4010  212.5860  139.3910 O   0  0  0  0  0  0  0  0  0  0  0  0
  154.8110  212.0340  137.0360 C   0  0  0  0  0  2  0  0  0  0  0  0
  154.4510  209.6740  139.1470 C   0  0  1  0  0  0  0  0  0  0  0  0
  155.7350  210.5260  139.2850 C   0  0  2  0  0  3  0  0  0  0  0  0
  153.8000  214.0780  137.7680 O   0  0  0  0  0  1  0  0  0  0  0  0
  159.3320  211.8640  144.5130 C   0  0  0  0  0  2  0  0  0  0  0  0
  158.2670  212.9300  144.3240 C   0  0  0  0  0  2  0  0  0  0  0  0
  157.8760  213.4370  145.5650 O   0  0  0  0  0  1  0  0  0  0  0  0
  2  7  1  0  0  0  0
  2 12  1  1  0  0  0
  3  5  1  6  0  0  0
  3  2  1  0  0  0  0
  4 14  1  6  0  0  0
  6  8  1  0  0  0  0
  6 54  1  1  0  0  0
  7  1  1  6  0  0  0
  7  6  1  0  0  0  0
  8  4  1  0  0  0  0
  9 35  1  1  0  0  0
  9  3  1  0  0  0  0
 10  1  1  0  0  0  0
 11  9  1  0  0  0  0
 11 10  1  0  0  0  0
 12  4  1  0  0  0  0
 13 15  2  0  0  0  0
 13 16  1  0  0  0  0
 14 13  1  0  0  0  0
 16 22  1  0  0  0  0
 17 18  1  0  0  0  0
 18 23  1  0  0  0  0
 19 17  2  0  0  0  0
 20 18  2  0  0  0  0
 21 20  1  0  0  0  0
 22 21  2  0  0  0  0
 22 19  1  0  0  0  0
 23 29  1  1  0  0  0
 23 27  1  0  0  0  0
 24 28  1  0  0  0  0
 25 28  2  0  0  0  0
 26 25  1  0  0  0  0
 27 26  1  0  0  0  0
 27 24  2  0  0  0  0
 29 30  1  0  0  0  0
 31 33  1  0  0  0  0
 31 30  1  0  0  0  0
 32 33  1  0  0  0  0
 35 34  1  6  0  0  0
 36 37  1  1  0  0  0
 36 35  1  0  0  0  0
 38 36  1  0  0  0  0
 38 39  1  0  0  0  0
 40 39  1  0  0  0  0
 40 41  1  0  0  0  0
 42 48  2  0  0  0  0
 42 51  1  0  0  0  0
 45 50  1  0  0  0  0
 45 42  1  0  0  0  0
 46 53  1  6  0  0  0
 46 49  1  0  0  0  0
 49 44  1  0  0  0  0
 50 46  1  0  0  0  0
 51 47  1  6  0  0  0
 51 52  1  0  0  0  0
 51 43  1  0  0  0  0
 52 44  1  0  0  0  0
 52 41  1  1  0  0  0
 55 54  1  0  0  0  0
 55 56  1  0  0  0  0
M  END
>  <MODEL>
3

>  <REMARK>
 VINA RESULT:      -3.4      4.158     12.194
  Name = 
  18 active torsions:
  status: ('A' for Active; 'I' for Inactive)
    1  A    between atoms: C_5  and  C_31
    2  A    between atoms: N_7  and  C_29
    3  A    between atoms: C_11  and  C_27
    4  A    between atoms: C_12  and  C_33
    5  A    between atoms: C_12  and  N_50
    6  A    between atoms: C_16  and  N_50
    7  A    between atoms: C_16  and  C_53
    8  A    between atoms: C_19  and  C_22
    9  A    between atoms: C_19  and  C_38
   10  A    between atoms: C_22  and  C_37
   11  A    between atoms: C_25  and  C_37
   12  A    between atoms: C_27  and  C_41
   13  A    between atoms: C_31  and  C_52
   14  A    between atoms: C_32  and  C_37
   15  A    between atoms: C_33  and  C_46
   16  A    between atoms: C_38  and  C_42
   17  A    between atoms: C_47  and  O_56
   18  A    between atoms: C_53  and  O_56
                            x       y       z     vdW  Elec       q    Type
                         _______ _______ _______ _____ _____    ______ ____

>  <TORSDO>
F 18

$$$$
=
 OpenBabel11052412113D

 56 60  0  0  1  0  0  0  0  0999 V2000
  157.0710  211.0460  155.3880 O   0  0  0  0  0  0  0  0  0  0  0  0
  159.0400  211.8690  156.6530 C   0  0  1  0  0  3  0  0  0  0  0  0
  158.8690  213.3140  156.1630 C   0  0  2  0  0  3  0  0  0  0  0  0
  161.2630  210.6740  155.5580 C   0  0  1  0  0  3  0  0  0  0  0  0
  159.4780  214.1960  157.0570 O   0  0  0  0  0  1  0  0  0  0  0  0
  159.2150  210.7380  154.3890 C   0  0  1  0  0  3  0  0  0  0  0  0
  158.4300  210.8130  155.7060 C   0  0  2  0  0  3  0  0  0  0  0  0
  160.5670  211.1680  154.4310 O   0  0  0  0  0  0  0  0  0  0  0  0
  157.3990  213.7520  155.9640 C   0  0  2  0  0  3  0  0  0  0  0  0
  156.3770  211.4220  156.5500 C   0  0  0  0  0  2  0  0  0  0  0  0
  156.2700  212.9510  156.6490 C   0  0  0  0  0  2  0  0  0  0  0  0
  160.7590  211.4640  157.1260 S   0  0  0  0  0  0  0  0  0  0  0  0
  161.6750  208.3820  154.5870 C   0  0  0  0  0  0  0  0  0  0  0  0
  161.2250  209.2210  155.6530 N   0  0  0  0  0  2  0  0  0  0  0  0
  161.9740  208.8720  153.4660 O   0  0  0  0  0  0  0  0  0  0  0  0
  161.8200  206.9150  154.8130 C   0  0  0  0  0  2  0  0  0  0  0  0
  160.9570  204.2350  152.2810 C   0  0  0  0  0  3  0  0  0  0  0  0
  161.4900  204.7800  151.1030 C   0  0  0  0  0  0  0  0  0  0  0  0
  161.0570  204.9340  153.4870 C   0  0  0  0  0  3  0  0  0  0  0  0
  162.1070  206.0360  151.1400 C   0  0  0  0  0  3  0  0  0  0  0  0
  162.2060  206.7360  152.3460 C   0  0  0  0  0  3  0  0  0  0  0  0
  161.6790  206.1870  153.5200 C   0  0  0  0  0  0  0  0  0  0  0  0
  161.3860  204.0600  149.7940 C   0  0  2  0  0  3  0  0  0  0  0  0
  160.7750  206.1780  148.7060 N   0  0  0  0  0  0  0  0  0  0  0  0
  161.7970  205.8960  146.5930 C   0  0  0  0  0  3  0  0  0  0  0  0
  161.9950  204.7910  147.4550 O   0  0  0  0  0  0  0  0  0  0  0  0
  161.3590  205.0330  148.6510 C   0  0  0  0  0  0  0  0  0  0  0  0
  160.9760  206.8720  147.4410 C   0  0  0  0  0  3  0  0  0  0  0  0
  160.1990  203.1050  149.7790 C   0  0  0  0  0  2  0  0  0  0  0  0
  160.5460  201.8310  149.0260 C   0  0  0  0  0  2  0  0  0  0  0  0
  159.7650  201.7620  147.7250 C   0  0  0  0  0  2  0  0  0  0  0  0
  160.5750  202.3890  145.5050 N   0  0  0  0  0  1  0  0  0  0  0  0
  160.6640  201.3900  146.5530 C   0  0  0  0  0  2  0  0  0  0  0  0
  155.5390  214.2270  154.2740 C   0  0  0  0  0  1  0  0  0  0  0  0
  157.0360  214.2590  154.5620 C   0  0  2  0  0  3  0  0  0  0  0  0
  157.8410  213.5620  153.4630 C   0  0  1  0  0  3  0  0  0  0  0  0
  157.2420  212.3440  153.1080 O   0  0  0  0  0  1  0  0  0  0  0  0
  157.9430  214.4370  152.2970 N   0  0  0  0  0  2  0  0  0  0  0  0
  158.6500  213.7280  151.2410 C   0  0  0  0  0  2  0  0  0  0  0  0
  158.4970  214.4490  149.9100 C   0  0  0  0  0  2  0  0  0  0  0  0
  157.8680  213.6340  148.9560 O   0  0  0  0  0  0  0  0  0  0  0  0
  159.1510  212.8860  145.4730 C   0  0  0  0  0  0  0  0  0  0  0  0
  157.5290  214.4520  146.2680 O   0  0  0  0  0  1  0  0  0  0  0  0
  159.9820  214.3960  148.0520 C   0  0  0  0  0  2  0  0  0  0  0  0
  160.1860  211.7930  145.6160 C   0  0  0  0  0  2  0  0  0  0  0  0
  161.7170  213.2180  147.1510 C   0  0  1  0  0  3  0  0  0  0  0  0
  157.1090  212.1480  146.6230 C   0  0  0  0  0  1  0  0  0  0  0  0
  159.0850  213.4660  144.3990 O   0  0  0  0  0  0  0  0  0  0  0  0
  160.8560  214.3150  146.9530 O   0  0  0  0  0  0  0  0  0  0  0  0
  161.0200  211.8670  146.9010 C   0  0  0  0  0  2  0  0  0  0  0  0
  158.1630  213.2430  146.5760 C   0  0  1  0  0  0  0  0  0  0  0  0
  158.8290  213.3680  147.9670 C   0  0  2  0  0  3  0  0  0  0  0  0
  162.8150  213.3350  146.3020 O   0  0  0  0  0  1  0  0  0  0  0  0
  159.0360  209.4020  153.6750 C   0  0  0  0  0  2  0  0  0  0  0  0
  160.0030  209.2790  152.5100 C   0  0  0  0  0  2  0  0  0  0  0  0
  159.9570  210.4370  151.7310 O   0  0  0  0  0  1  0  0  0  0  0  0
  1 10  1  0  0  0  0
  2 12  1  6  0  0  0
  3  2  1  0  0  0  0
  3  5  1  1  0  0  0
  4 14  1  1  0  0  0
  4 12  1  0  0  0  0
  6 54  1  1  0  0  0
  6  8  1  0  0  0  0
  6  7  1  0  0  0  0
  7  1  1  6  0  0  0
  7  2  1  0  0  0  0
  8  4  1  0  0  0  0
  9 35  1  6  0  0  0
  9  3  1  0  0  0  0
  9 11  1  0  0  0  0
 10 11  1  0  0  0  0
 13 16  1  0  0  0  0
 13 14  1  0  0  0  0
 15 13  2  0  0  0  0
 17 19  1  0  0  0  0
 18 20  1  0  0  0  0
 18 17  2  0  0  0  0
 19 22  2  0  0  0  0
 20 21  2  0  0  0  0
 21 22  1  0  0  0  0
 22 16  1  0  0  0  0
 23 29  1  1  0  0  0
 23 18  1  0  0  0  0
 25 28  2  0  0  0  0
 25 26  1  0  0  0  0
 26 27  1  0  0  0  0
 27 24  2  0  0  0  0
 27 23  1  0  0  0  0
 28 24  1  0  0  0  0
 30 29  1  0  0  0  0
 31 30  1  0  0  0  0
 32 33  1  0  0  0  0
 33 31  1  0  0  0  0
 35 34  1  6  0  0  0
 36 37  1  6  0  0  0
 36 35  1  0  0  0  0
 38 36  1  0  0  0  0
 39 38  1  0  0  0  0
 40 39  1  0  0  0  0
 41 40  1  0  0  0  0
 42 45  1  0  0  0  0
 42 51  1  0  0  0  0
 43 51  1  0  0  0  0
 45 50  1  0  0  0  0
 46 53  1  6  0  0  0
 48 42  2  0  0  0  0
 49 46  1  0  0  0  0
 49 44  1  0  0  0  0
 50 46  1  0  0  0  0
 51 47  1  1  0  0  0
 51 52  1  0  0  0  0
 52 44  1  0  0  0  0
 52 41  1  1  0  0  0
 55 54  1  0  0  0  0
 56 55  1  0  0  0  0
M  END
>  <MODEL>
4

>  <REMARK>
 VINA RESULT:      -3.1      3.013      8.497
  Name = 
  18 active torsions:
  status: ('A' for Active; 'I' for Inactive)
    1  A    between atoms: C_5  and  C_31
    2  A    between atoms: N_7  and  C_29
    3  A    between atoms: C_11  and  C_27
    4  A    between atoms: C_12  and  C_33
    5  A    between atoms: C_12  and  N_50
    6  A    between atoms: C_16  and  N_50
    7  A    between atoms: C_16  and  C_53
    8  A    between atoms: C_19  and  C_22
    9  A    between atoms: C_19  and  C_38
   10  A    between atoms: C_22  and  C_37
   11  A    between atoms: C_25  and  C_37
   12  A    between atoms: C_27  and  C_41
   13  A    between atoms: C_31  and  C_52
   14  A    between atoms: C_32  and  C_37
   15  A    between atoms: C_33  and  C_46
   16  A    between atoms: C_38  and  C_42
   17  A    between atoms: C_47  and  O_56
   18  A    between atoms: C_53  and  O_56
                            x       y       z     vdW  Elec       q    Type
                         _______ _______ _______ _____ _____    ______ ____

>  <TORSDO>
F 18

$$$$
=
 OpenBabel11052412113D

 56 60  0  0  1  0  0  0  0  0999 V2000
  159.8330  205.3810  148.2120 O   0  0  0  0  0  0  0  0  0  0  0  0
  161.4630  207.0970  148.9550 C   0  0  1  0  0  3  0  0  0  0  0  0
  162.4630  206.7670  147.8390 C   0  0  2  0  0  3  0  0  0  0  0  0
  162.3930  206.3150  151.4240 C   0  0  1  0  0  3  0  0  0  0  0  0
  163.2910  207.8640  147.5990 O   0  0  0  0  0  1  0  0  0  0  0  0
  161.3040  204.7870  149.9930 C   0  0  1  0  0  3  0  0  0  0  0  0
  160.5250  205.9260  149.3200 C   0  0  2  0  0  3  0  0  0  0  0  0
  162.5160  205.1440  150.6400 O   0  0  0  0  0  0  0  0  0  0  0  0
  161.8110  206.3420  146.5010 C   0  0  2  0  0  3  0  0  0  0  0  0
  159.3600  206.4230  147.3990 C   0  0  0  0  0  2  0  0  0  0  0  0
  160.3290  206.6900  146.2370 C   0  0  0  0  0  2  0  0  0  0  0  0
  162.2460  207.8400  150.4310 S   0  0  0  0  0  0  0  0  0  0  0  0
  161.5750  206.4680  153.8060 C   0  0  0  0  0  0  0  0  0  0  0  0
  161.3340  206.2180  152.4190 N   0  0  0  0  0  2  0  0  0  0  0  0
  162.7480  206.6270  154.2360 O   0  0  0  0  0  0  0  0  0  0  0  0
  160.4240  206.5710  154.7480 C   0  0  0  0  0  2  0  0  0  0  0  0
  159.8590  210.2670  154.1430 C   0  0  0  0  0  3  0  0  0  0  0  0
  159.5250  210.7140  155.4300 C   0  0  0  0  0  0  0  0  0  0  0  0
  160.1440  208.9170  153.9190 C   0  0  0  0  0  3  0  0  0  0  0  0
  159.4610  209.7970  156.4860 C   0  0  0  0  0  3  0  0  0  0  0  0
  159.7440  208.4460  156.2620 C   0  0  0  0  0  3  0  0  0  0  0  0
  160.0840  208.0040  154.9780 C   0  0  0  0  0  0  0  0  0  0  0  0
  159.2030  212.1520  155.6980 C   0  0  2  0  0  3  0  0  0  0  0  0
  156.9100  211.3740  156.1190 N   0  0  0  0  0  0  0  0  0  0  0  0
  156.0080  213.2530  157.2350 C   0  0  0  0  0  3  0  0  0  0  0  0
  157.3630  213.4270  156.8650 O   0  0  0  0  0  0  0  0  0  0  0  0
  157.8000  212.2980  156.2120 C   0  0  0  0  0  0  0  0  0  0  0  0
  155.6810  211.8380  156.7490 C   0  0  0  0  0  3  0  0  0  0  0  0
  159.4710  213.0170  154.4710 C   0  0  0  0  0  2  0  0  0  0  0  0
  158.1810  213.2840  153.7140 C   0  0  0  0  0  2  0  0  0  0  0  0
  158.4900  213.7750  152.3100 C   0  0  0  0  0  2  0  0  0  0  0  0
  160.1570  213.6830  150.5220 N   0  0  0  0  0  1  0  0  0  0  0  0
  159.6320  212.9860  151.6820 C   0  0  0  0  0  2  0  0  0  0  0  0
  163.7140  204.6710  146.1490 C   0  0  0  0  0  1  0  0  0  0  0  0
  162.2310  204.9700  145.9580 C   0  0  2  0  0  3  0  0  0  0  0  0
  161.7910  204.7560  144.5090 C   0  0  1  0  0  3  0  0  0  0  0  0
  160.5490  204.1040  144.4600 O   0  0  0  0  0  1  0  0  0  0  0  0
  161.7160  206.0430  143.8210 N   0  0  0  0  0  2  0  0  0  0  0  0
  161.5640  205.8030  142.3940 C   0  0  0  0  0  2  0  0  0  0  0  0
  162.1660  206.9430  141.5870 C   0  0  0  0  0  2  0  0  0  0  0  0
  161.6740  206.9560  140.2720 O   0  0  0  0  0  0  0  0  0  0  0  0
  161.5990  209.7700  137.7410 C   0  0  0  0  0  0  0  0  0  0  0  0
  160.0350  208.0300  138.2310 O   0  0  0  0  0  1  0  0  0  0  0  0
  161.1470  209.2670  140.7680 C   0  0  0  0  0  2  0  0  0  0  0  0
  162.8800  210.5540  137.9240 C   0  0  0  0  0  2  0  0  0  0  0  0
  162.3430  211.1730  140.3850 C   0  0  1  0  0  3  0  0  0  0  0  0
  162.1930  207.4010  137.4860 C   0  0  0  0  0  1  0  0  0  0  0  0
  160.7240  210.2700  137.0490 O   0  0  0  0  0  0  0  0  0  0  0  0
  161.0800  210.5680  140.2380 O   0  0  0  0  0  0  0  0  0  0  0  0
  163.3750  210.6400  139.3720 C   0  0  0  0  0  2  0  0  0  0  0  0
  161.3870  208.3800  138.3240 C   0  0  1  0  0  0  0  0  0  0  0  0
  161.8310  208.2690  139.8020 C   0  0  2  0  0  3  0  0  0  0  0  0
  162.2140  212.5520  140.2310 O   0  0  0  0  0  1  0  0  0  0  0  0
  160.4130  203.8920  150.8470 C   0  0  0  0  0  2  0  0  0  0  0  0
  160.8510  202.4410  150.7460 C   0  0  0  0  0  2  0  0  0  0  0  0
  160.2440  201.8360  149.6440 O   0  0  0  0  0  1  0  0  0  0  0  0
  2  7  1  0  0  0  0
  2 12  1  1  0  0  0
  3  5  1  6  0  0  0
  3  2  1  0  0  0  0
  4 14  1  6  0  0  0
  6  8  1  0  0  0  0
  6 54  1  1  0  0  0
  7  1  1  6  0  0  0
  7  6  1  0  0  0  0
  8  4  1  0  0  0  0
  9 35  1  1  0  0  0
  9  3  1  0  0  0  0
 10  1  1  0  0  0  0
 11  9  1  0  0  0  0
 11 10  1  0  0  0  0
 12  4  1  0  0  0  0
 13 15  2  0  0  0  0
 13 16  1  0  0  0  0
 14 13  1  0  0  0  0
 16 22  1  0  0  0  0
 17 18  1  0  0  0  0
 18 23  1  0  0  0  0
 18 20  2  0  0  0  0
 19 17  2  0  0  0  0
 19 22  1  0  0  0  0
 21 20  1  0  0  0  0
 22 21  2  0  0  0  0
 23 29  1  6  0  0  0
 23 27  1  0  0  0  0
 24 27  2  0  0  0  0
 24 28  1  0  0  0  0
 26 25  1  0  0  0  0
 27 26  1  0  0  0  0
 28 25  2  0  0  0  0
 30 29  1  0  0  0  0
 31 30  1  0  0  0  0
 32 33  1  0  0  0  0
 33 31  1  0  0  0  0
 35 34  1  6  0  0  0
 36 37  1  1  0  0  0
 36 35  1  0  0  0  0
 38 36  1  0  0  0  0
 39 38  1  0  0  0  0
 40 39  1  0  0  0  0
 41 40  1  0  0  0  0
 42 45  1  0  0  0  0
 42 51  1  0  0  0  0
 43 51  1  0  0  0  0
 45 50  1  0  0  0  0
 46 53  1  6  0  0  0
 48 42  2  0  0  0  0
 49 46  1  0  0  0  0
 49 44  1  0  0  0  0
 50 46  1  0  0  0  0
 51 47  1  6  0  0  0
 51 52  1  0  0  0  0
 52 41  1  1  0  0  0
 52 44  1  0  0  0  0
 55 54  1  0  0  0  0
 56 55  1  0  0  0  0
M  END
>  <MODEL>
5

>  <REMARK>
 VINA RESULT:      -3.1      3.413     10.535
  Name = 
  18 active torsions:
  status: ('A' for Active; 'I' for Inactive)
    1  A    between atoms: C_5  and  C_31
    2  A    between atoms: N_7  and  C_29
    3  A    between atoms: C_11  and  C_27
    4  A    between atoms: C_12  and  C_33
    5  A    between atoms: C_12  and  N_50
    6  A    between atoms: C_16  and  N_50
    7  A    between atoms: C_16  and  C_53
    8  A    between atoms: C_19  and  C_22
    9  A    between atoms: C_19  and  C_38
   10  A    between atoms: C_22  and  C_37
   11  A    between atoms: C_25  and  C_37
   12  A    between atoms: C_27  and  C_41
   13  A    between atoms: C_31  and  C_52
   14  A    between atoms: C_32  and  C_37
   15  A    between atoms: C_33  and  C_46
   16  A    between atoms: C_38  and  C_42
   17  A    between atoms: C_47  and  O_56
   18  A    between atoms: C_53  and  O_56
                            x       y       z     vdW  Elec       q    Type
                         _______ _______ _______ _____ _____    ______ ____

>  <TORSDO>
F 18

$$$$
=
 OpenBabel11052412113D

 56 60  0  0  1  0  0  0  0  0999 V2000
  160.5960  210.4980  147.5150 O   0  0  0  0  0  0  0  0  0  0  0  0
  161.9630  212.5540  147.2800 C   0  0  1  0  0  3  0  0  0  0  0  0
  161.9910  212.8220  148.7910 C   0  0  2  0  0  3  0  0  0  0  0  0
  160.4240  214.4010  145.9420 C   0  0  1  0  0  3  0  0  0  0  0  0
  163.0950  213.6100  149.1170 O   0  0  0  0  0  1  0  0  0  0  0  0
  159.4460  212.5140  146.9660 C   0  0  1  0  0  3  0  0  0  0  0  0
  160.7500  211.7190  146.8160 C   0  0  2  0  0  3  0  0  0  0  0  0
  159.5610  213.9280  146.9580 O   0  0  0  0  0  0  0  0  0  0  0  0
  162.0220  211.5470  149.6670 C   0  0  2  0  0  3  0  0  0  0  0  0
  161.8490  209.8820  147.6620 C   0  0  0  0  0  2  0  0  0  0  0  0
  162.4570  210.2060  149.0360 C   0  0  0  0  0  2  0  0  0  0  0  0
  162.1880  214.0640  146.2740 S   0  0  0  0  0  0  0  0  0  0  0  0
  158.6910  214.0780  144.1380 C   0  0  0  0  0  0  0  0  0  0  0  0
  160.0320  213.9500  144.6140 N   0  0  0  0  0  2  0  0  0  0  0  0
  157.7660  214.4430  144.9110 O   0  0  0  0  0  0  0  0  0  0  0  0
  158.3870  213.8060  142.7030 C   0  0  0  0  0  2  0  0  0  0  0  0
  161.1880  211.4480  141.7370 C   0  0  0  0  0  3  0  0  0  0  0  0
  161.9060  212.2270  140.8170 C   0  0  0  0  0  0  0  0  0  0  0  0
  160.0380  211.9590  142.3440 C   0  0  0  0  0  3  0  0  0  0  0  0
  161.4540  213.5140  140.4980 C   0  0  0  0  0  3  0  0  0  0  0  0
  160.3020  214.0240  141.1050 C   0  0  0  0  0  3  0  0  0  0  0  0
  159.5920  213.2460  142.0270 C   0  0  0  0  0  0  0  0  0  0  0  0
  163.1350  211.7020  140.1400 C   0  0  2  0  0  3  0  0  0  0  0  0
  164.7690  213.3690  139.3690 N   0  0  0  0  0  0  0  0  0  0  0  0
  163.8380  213.9590  137.2760 C   0  0  0  0  0  3  0  0  0  0  0  0
  163.0790  212.9810  137.9640 O   0  0  0  0  0  0  0  0  0  0  0  0
  163.6820  212.7090  139.1710 C   0  0  0  0  0  0  0  0  0  0  0  0
  165.0170  214.2260  138.2170 C   0  0  0  0  0  3  0  0  0  0  0  0
  162.8750  210.3470  139.4930 C   0  0  0  0  0  2  0  0  0  0  0  0
  161.5300  210.3420  138.7860 C   0  0  0  0  0  2  0  0  0  0  0  0
  161.0020  208.9210  138.6750 C   0  0  0  0  0  2  0  0  0  0  0  0
  162.2790  207.4380  140.1420 N   0  0  0  0  0  1  0  0  0  0  0  0
  162.1260  207.8980  138.7740 C   0  0  0  0  0  2  0  0  0  0  0  0
  160.2390  212.7400  151.0590 C   0  0  0  0  0  1  0  0  0  0  0  0
  160.8880  211.4100  150.6910 C   0  0  2  0  0  3  0  0  0  0  0  0
  161.3140  210.6240  151.9320 C   0  0  1  0  0  3  0  0  0  0  0  0
  161.1780  211.4100  153.0870 O   0  0  0  0  0  1  0  0  0  0  0  0
  160.5090  209.4100  152.0470 N   0  0  0  0  0  2  0  0  0  0  0  0
  161.3400  208.3490  152.5960 C   0  0  0  0  0  2  0  0  0  0  0  0
  162.0580  207.5950  151.4860 C   0  0  0  0  0  2  0  0  0  0  0  0
  161.9050  206.2070  151.6280 O   0  0  0  0  0  0  0  0  0  0  0  0
  160.8800  203.6250  149.0560 C   0  0  0  0  0  0  0  0  0  0  0  0
  159.9530  204.2080  151.1810 O   0  0  0  0  0  1  0  0  0  0  0  0
  160.6970  206.6760  149.5820 C   0  0  0  0  0  2  0  0  0  0  0  0
  161.8570  203.7440  147.9070 C   0  0  0  0  0  2  0  0  0  0  0  0
  161.2260  206.2100  147.4110 C   0  0  1  0  0  3  0  0  0  0  0  0
  162.1770  203.3960  151.1290 C   0  0  0  0  0  1  0  0  0  0  0  0
  159.8730  202.9570  148.8760 O   0  0  0  0  0  0  0  0  0  0  0  0
  160.2110  206.1230  148.3840 O   0  0  0  0  0  0  0  0  0  0  0  0
  162.3420  205.1710  147.6270 C   0  0  0  0  0  2  0  0  0  0  0  0
  161.1300  204.2430  150.4250 C   0  0  1  0  0  0  0  0  0  0  0  0
  161.6300  205.7060  150.3460 C   0  0  2  0  0  3  0  0  0  0  0  0
  160.6690  206.0340  146.1460 O   0  0  0  0  0  1  0  0  0  0  0  0
  158.3380  212.0010  146.0510 C   0  0  0  0  0  2  0  0  0  0  0  0
  156.9860  212.0990  146.7350 C   0  0  0  0  0  2  0  0  0  0  0  0
  157.0680  212.9630  147.8290 O   0  0  0  0  0  1  0  0  0  0  0  0
  1 10  1  0  0  0  0
  2 12  1  6  0  0  0
  2  3  1  0  0  0  0
  3  5  1  6  0  0  0
  3  9  1  0  0  0  0
  4 14  1  6  0  0  0
  4 12  1  0  0  0  0
  4  8  1  0  0  0  0
  6 54  1  6  0  0  0
  7  6  1  0  0  0  0
  7  2  1  0  0  0  0
  7  1  1  1  0  0  0
  8  6  1  0  0  0  0
  9 35  1  6  0  0  0
 10 11  1  0  0  0  0
 11  9  1  0  0  0  0
 13 14  1  0  0  0  0
 13 15  2  0  0  0  0
 16 13  1  0  0  0  0
 17 19  1  0  0  0  0
 18 17  2  0  0  0  0
 20 18  1  0  0  0  0
 20 21  2  0  0  0  0
 21 22  1  0  0  0  0
 22 19  2  0  0  0  0
 22 16  1  0  0  0  0
 23 29  1  6  0  0  0
 23 18  1  0  0  0  0
 25 26  1  0  0  0  0
 25 28  2  0  0  0  0
 26 27  1  0  0  0  0
 27 24  2  0  0  0  0
 27 23  1  0  0  0  0
 28 24  1  0  0  0  0
 30 29  1  0  0  0  0
 31 33  1  0  0  0  0
 31 30  1  0  0  0  0
 33 32  1  0  0  0  0
 35 34  1  1  0  0  0
 35 36  1  0  0  0  0
 36 38  1  0  0  0  0
 36 37  1  1  0  0  0
 38 39  1  0  0  0  0
 40 41  1  0  0  0  0
 40 39  1  0  0  0  0
 42 51  1  0  0  0  0
 44 52  1  0  0  0  0
 45 42  1  0  0  0  0
 46 53  1  6  0  0  0
 46 50  1  0  0  0  0
 46 49  1  0  0  0  0
 48 42  2  0  0  0  0
 49 44  1  0  0  0  0
 50 45  1  0  0  0  0
 51 47  1  1  0  0  0
 51 43  1  0  0  0  0
 52 51  1  0  0  0  0
 52 41  1  1  0  0  0
 54 55  1  0  0  0  0
 55 56  1  0  0  0  0
M  END
>  <MODEL>
6

>  <REMARK>
 VINA RESULT:      -2.8      2.560      5.431
  Name = 
  18 active torsions:
  status: ('A' for Active; 'I' for Inactive)
    1  A    between atoms: C_5  and  C_31
    2  A    between atoms: N_7  and  C_29
    3  A    between atoms: C_11  and  C_27
    4  A    between atoms: C_12  and  C_33
    5  A    between atoms: C_12  and  N_50
    6  A    between atoms: C_16  and  N_50
    7  A    between atoms: C_16  and  C_53
    8  A    between atoms: C_19  and  C_22
    9  A    between atoms: C_19  and  C_38
   10  A    between atoms: C_22  and  C_37
   11  A    between atoms: C_25  and  C_37
   12  A    between atoms: C_27  and  C_41
   13  A    between atoms: C_31  and  C_52
   14  A    between atoms: C_32  and  C_37
   15  A    between atoms: C_33  and  C_46
   16  A    between atoms: C_38  and  C_42
   17  A    between atoms: C_47  and  O_56
   18  A    between atoms: C_53  and  O_56
                            x       y       z     vdW  Elec       q    Type
                         _______ _______ _______ _____ _____    ______ ____

>  <TORSDO>
F 18

$$$$
=
 OpenBabel11052412113D

 56 60  0  0  1  0  0  0  0  0999 V2000
  160.3790  210.9510  147.0970 O   0  0  0  0  0  0  0  0  0  0  0  0
  160.5960  212.1450  149.2610 C   0  0  1  0  0  3  0  0  0  0  0  0
  161.5010  213.2370  148.6760 C   0  0  2  0  0  3  0  0  0  0  0  0
  161.9720  210.4820  150.9680 C   0  0  1  0  0  3  0  0  0  0  0  0
  161.4280  214.3890  149.4590 O   0  0  0  0  0  1  0  0  0  0  0  0
  162.0070  210.1310  148.6350 C   0  0  1  0  0  3  0  0  0  0  0  0
  160.6400  210.8130  148.4810 C   0  0  2  0  0  3  0  0  0  0  0  0
  162.7570  210.4690  149.7920 O   0  0  0  0  0  0  0  0  0  0  0  0
  161.1800  213.6180  147.2100 C   0  0  2  0  0  3  0  0  0  0  0  0
  159.3000  211.8310  146.9110 C   0  0  0  0  0  2  0  0  0  0  0  0
  159.8010  213.2530  146.6190 C   0  0  0  0  0  2  0  0  0  0  0  0
  160.8250  211.9010  151.0580 S   0  0  0  0  0  0  0  0  0  0  0  0
  161.4700  208.4670  152.4000 C   0  0  0  0  0  0  0  0  0  0  0  0
  161.2830  209.2200  151.2010 N   0  0  0  0  0  2  0  0  0  0  0  0
  162.3590  208.7920  153.2310 O   0  0  0  0  0  0  0  0  0  0  0  0
  160.5840  207.3020  152.6870 C   0  0  0  0  0  2  0  0  0  0  0  0
  160.8300  205.4410  149.3980 C   0  0  0  0  0  3  0  0  0  0  0  0
  161.2150  204.1620  149.8280 C   0  0  0  0  0  0  0  0  0  0  0  0
  160.6330  206.4650  150.3280 C   0  0  0  0  0  3  0  0  0  0  0  0
  161.4160  203.9220  151.1930 C   0  0  0  0  0  3  0  0  0  0  0  0
  161.2210  204.9480  152.1220 C   0  0  0  0  0  3  0  0  0  0  0  0
  160.8300  206.2210  151.6910 C   0  0  0  0  0  0  0  0  0  0  0  0
  161.4450  203.0480  148.8540 C   0  0  2  0  0  3  0  0  0  0  0  0
  162.7440  204.0170  147.0050 N   0  0  0  0  0  0  0  0  0  0  0  0
  161.0800  204.1620  145.3310 C   0  0  0  0  0  3  0  0  0  0  0  0
  160.5970  203.6180  146.5450 O   0  0  0  0  0  0  0  0  0  0  0  0
  161.6220  203.5840  147.4630 C   0  0  0  0  0  0  0  0  0  0  0  0
  162.5610  204.4260  145.6180 C   0  0  0  0  0  3  0  0  0  0  0  0
  160.3440  201.9980  148.9420 C   0  0  0  0  0  2  0  0  0  0  0  0
  160.9340  200.5990  148.8840 C   0  0  0  0  0  2  0  0  0  0  0  0
  161.8860  200.4800  147.7060 C   0  0  0  0  0  2  0  0  0  0  0  0
  160.3840  200.7840  145.7990 N   0  0  0  0  0  1  0  0  0  0  0  0
  161.2120  199.8250  146.5070 C   0  0  0  0  0  2  0  0  0  0  0  0
  163.7130  213.5470  146.8680 C   0  0  0  0  0  1  0  0  0  0  0  0
  162.3380  213.4790  146.2140 C   0  0  2  0  0  3  0  0  0  0  0  0
  162.2190  214.4530  145.0410 C   0  0  1  0  0  3  0  0  0  0  0  0
  163.3940  214.4510  144.2740 O   0  0  0  0  0  1  0  0  0  0  0  0
  161.0720  214.0900  144.2130 N   0  0  0  0  0  2  0  0  0  0  0  0
  161.3820  214.3950  142.8240 C   0  0  0  0  0  2  0  0  0  0  0  0
  160.9610  213.2520  141.9120 C   0  0  0  0  0  2  0  0  0  0  0  0
  161.6490  213.2930  140.6890 O   0  0  0  0  0  0  0  0  0  0  0  0
  159.9580  210.9630  138.2290 C   0  0  0  0  0  0  0  0  0  0  0  0
  160.8430  213.1700  137.9790 O   0  0  0  0  0  1  0  0  0  0  0  0
  162.7060  211.4070  139.5990 C   0  0  0  0  0  2  0  0  0  0  0  0
  159.6330  209.6950  138.9860 C   0  0  0  0  0  2  0  0  0  0  0  0
  162.1160  209.2020  139.5530 C   0  0  1  0  0  3  0  0  0  0  0  0
  159.0680  212.8570  139.5150 C   0  0  0  0  0  1  0  0  0  0  0  0
  159.8600  210.9380  137.0110 O   0  0  0  0  0  0  0  0  0  0  0  0
  162.4920  210.3000  138.7570 O   0  0  0  0  0  0  0  0  0  0  0  0
  160.6620  209.3060  140.0540 C   0  0  0  0  0  2  0  0  0  0  0  0
  160.3360  212.2670  138.9200 C   0  0  1  0  0  0  0  0  0  0  0  0
  161.3830  212.0750  140.0430 C   0  0  2  0  0  3  0  0  0  0  0  0
  162.2700  208.0270  138.8210 O   0  0  0  0  0  1  0  0  0  0  0  0
  161.9440  208.6290  148.3820 C   0  0  0  0  0  2  0  0  0  0  0  0
  163.1270  208.1730  147.5450 C   0  0  0  0  0  2  0  0  0  0  0  0
  163.4920  206.8740  147.9040 O   0  0  0  0  0  1  0  0  0  0  0  0
  2 12  1  1  0  0  0
  3  2  1  0  0  0  0
  3  5  1  1  0  0  0
  4 12  1  0  0  0  0
  4 14  1  6  0  0  0
  6 54  1  1  0  0  0
  6  8  1  0  0  0  0
  7  1  1  6  0  0  0
  7  6  1  0  0  0  0
  7  2  1  0  0  0  0
  8  4  1  0  0  0  0
  9 35  1  6  0  0  0
  9  3  1  0  0  0  0
 10  1  1  0  0  0  0
 11 10  1  0  0  0  0
 11  9  1  0  0  0  0
 13 16  1  0  0  0  0
 13 15  2  0  0  0  0
 14 13  1  0  0  0  0
 17 18  2  0  0  0  0
 17 19  1  0  0  0  0
 18 20  1  0  0  0  0
 19 22  2  0  0  0  0
 20 21  2  0  0  0  0
 22 21  1  0  0  0  0
 22 16  1  0  0  0  0
 23 29  1  6  0  0  0
 23 18  1  0  0  0  0
 24 27  2  0  0  0  0
 25 28  2  0  0  0  0
 25 26  1  0  0  0  0
 26 27  1  0  0  0  0
 27 23  1  0  0  0  0
 28 24  1  0  0  0  0
 30 29  1  0  0  0  0
 31 30  1  0  0  0  0
 32 33  1  0  0  0  0
 33 31  1  0  0  0  0
 35 34  1  1  0  0  0
 36 37  1  6  0  0  0
 36 35  1  0  0  0  0
 38 36  1  0  0  0  0
 39 38  1  0  0  0  0
 40 39  1  0  0  0  0
 41 40  1  0  0  0  0
 42 51  1  0  0  0  0
 42 45  1  0  0  0  0
 43 51  1  0  0  0  0
 44 52  1  0  0  0  0
 45 50  1  0  0  0  0
 46 53  1  6  0  0  0
 46 50  1  0  0  0  0
 48 42  2  0  0  0  0
 49 46  1  0  0  0  0
 49 44  1  0  0  0  0
 51 47  1  1  0  0  0
 51 52  1  0  0  0  0
 52 41  1  6  0  0  0
 55 56  1  0  0  0  0
 55 54  1  0  0  0  0
M  END
>  <MODEL>
7

>  <REMARK>
 VINA RESULT:      -1.9      3.083     10.320
  Name = 
  18 active torsions:
  status: ('A' for Active; 'I' for Inactive)
    1  A    between atoms: C_5  and  C_31
    2  A    between atoms: N_7  and  C_29
    3  A    between atoms: C_11  and  C_27
    4  A    between atoms: C_12  and  C_33
    5  A    between atoms: C_12  and  N_50
    6  A    between atoms: C_16  and  N_50
    7  A    between atoms: C_16  and  C_53
    8  A    between atoms: C_19  and  C_22
    9  A    between atoms: C_19  and  C_38
   10  A    between atoms: C_22  and  C_37
   11  A    between atoms: C_25  and  C_37
   12  A    between atoms: C_27  and  C_41
   13  A    between atoms: C_31  and  C_52
   14  A    between atoms: C_32  and  C_37
   15  A    between atoms: C_33  and  C_46
   16  A    between atoms: C_38  and  C_42
   17  A    between atoms: C_47  and  O_56
   18  A    between atoms: C_53  and  O_56
                            x       y       z     vdW  Elec       q    Type
                         _______ _______ _______ _____ _____    ______ ____

>  <TORSDO>
F 18

$$$$
=
 OpenBabel11052412113D

 56 60  0  0  1  0  0  0  0  0999 V2000
  160.7510  210.4750  147.3420 O   0  0  0  0  0  0  0  0  0  0  0  0
  160.6370  212.1350  149.1820 C   0  0  1  0  0  3  0  0  0  0  0  0
  161.5040  213.1600  148.4380 C   0  0  2  0  0  3  0  0  0  0  0  0
  161.9600  211.0490  151.3360 C   0  0  1  0  0  3  0  0  0  0  0  0
  161.2510  214.4430  148.9240 O   0  0  0  0  0  1  0  0  0  0  0  0
  162.2710  210.1940  149.1590 C   0  0  1  0  0  3  0  0  0  0  0  0
  160.8750  210.6750  148.7380 C   0  0  2  0  0  3  0  0  0  0  0  0
  162.8630  210.8580  150.2650 O   0  0  0  0  0  0  0  0  0  0  0  0
  161.3080  213.1690  146.9030 C   0  0  2  0  0  3  0  0  0  0  0  0
  159.6270  211.1710  146.8690 C   0  0  0  0  0  2  0  0  0  0  0  0
  160.0340  212.5380  146.2980 C   0  0  0  0  0  2  0  0  0  0  0  0
  160.6950  212.3230  151.0000 S   0  0  0  0  0  0  0  0  0  0  0  0
  161.4560  209.3750  153.1560 C   0  0  0  0  0  0  0  0  0  0  0  0
  161.3590  209.8040  151.7960 N   0  0  0  0  0  2  0  0  0  0  0  0
  162.2010  209.9830  153.9700 O   0  0  0  0  0  0  0  0  0  0  0  0
  160.6450  208.2150  153.6230 C   0  0  0  0  0  2  0  0  0  0  0  0
  161.0140  206.0370  150.5470 C   0  0  0  0  0  3  0  0  0  0  0  0
  161.3050  204.7890  151.1210 C   0  0  0  0  0  0  0  0  0  0  0  0
  160.8080  207.1530  151.3620 C   0  0  0  0  0  3  0  0  0  0  0  0
  161.4040  204.6730  152.5120 C   0  0  0  0  0  3  0  0  0  0  0  0
  161.1990  205.7910  153.3270 C   0  0  0  0  0  3  0  0  0  0  0  0
  160.9030  207.0320  152.7530 C   0  0  0  0  0  0  0  0  0  0  0  0
  161.5430  203.5770  150.2730 C   0  0  2  0  0  3  0  0  0  0  0  0
  160.6140  204.7560  148.3260 N   0  0  0  0  0  0  0  0  0  0  0  0
  162.0110  203.9290  146.6060 C   0  0  0  0  0  3  0  0  0  0  0  0
  162.3310  203.4030  147.8800 O   0  0  0  0  0  0  0  0  0  0  0  0
  161.4650  203.9240  148.8140 C   0  0  0  0  0  0  0  0  0  0  0  0
  160.8430  204.8790  146.8920 C   0  0  0  0  0  3  0  0  0  0  0  0
  160.6040  202.4400  150.6560 C   0  0  0  0  0  2  0  0  0  0  0  0
  159.9180  201.8750  149.4240 C   0  0  0  0  0  2  0  0  0  0  0  0
  160.6060  200.5950  148.9810 C   0  0  0  0  0  2  0  0  0  0  0  0
  161.8930  199.8880  147.0240 N   0  0  0  0  0  1  0  0  0  0  0  0
  160.6400  200.4770  147.4630 C   0  0  0  0  0  2  0  0  0  0  0  0
  163.8580  212.9840  146.8830 C   0  0  0  0  0  1  0  0  0  0  0  0
  162.5720  212.9360  146.0660 C   0  0  2  0  0  3  0  0  0  0  0  0
  162.6410  213.8530  144.8440 C   0  0  1  0  0  3  0  0  0  0  0  0
  163.9710  214.0310  144.4330 O   0  0  0  0  0  1  0  0  0  0  0  0
  161.8450  213.2870  143.7570 N   0  0  0  0  0  2  0  0  0  0  0  0
  162.6690  213.2190  142.5600 C   0  0  0  0  0  2  0  0  0  0  0  0
  161.8030  213.1120  141.3130 C   0  0  0  0  0  2  0  0  0  0  0  0
  162.3660  212.2350  140.3730 O   0  0  0  0  0  0  0  0  0  0  0  0
  160.6290  209.7890  138.0640 C   0  0  0  0  0  0  0  0  0  0  0  0
  162.1730  209.4600  139.8580 O   0  0  0  0  0  1  0  0  0  0  0  0
  160.0630  211.5160  140.5770 C   0  0  0  0  0  2  0  0  0  0  0  0
  159.7590  210.6080  137.1370 C   0  0  0  0  0  2  0  0  0  0  0  0
  158.3470  211.6010  139.0740 C   0  0  1  0  0  3  0  0  0  0  0  0
  162.8990  210.7250  137.9930 C   0  0  0  0  0  1  0  0  0  0  0  0
  160.4560  208.5790  138.0810 O   0  0  0  0  0  0  0  0  0  0  0  0
  159.0370  210.7660  139.9740 O   0  0  0  0  0  0  0  0  0  0  0  0
  159.1410  211.8560  137.7780 C   0  0  0  0  0  2  0  0  0  0  0  0
  161.7360  210.3960  138.9150 C   0  0  1  0  0  0  0  0  0  0  0  0
  161.2940  211.6820  139.6550 C   0  0  2  0  0  3  0  0  0  0  0  0
  157.1200  211.0220  138.7570 O   0  0  0  0  0  1  0  0  0  0  0  0
  162.3620  208.6750  149.2560 C   0  0  0  0  0  2  0  0  0  0  0  0
  162.8850  208.0820  147.9590 C   0  0  0  0  0  2  0  0  0  0  0  0
  161.8600  207.3980  147.3020 O   0  0  0  0  0  1  0  0  0  0  0  0
  2 12  1  1  0  0  0
  3  5  1  1  0  0  0
  3  2  1  0  0  0  0
  4 14  1  6  0  0  0
  6 54  1  1  0  0  0
  6  8  1  0  0  0  0
  7  1  1  6  0  0  0
  7  6  1  0  0  0  0
  7  2  1  0  0  0  0
  8  4  1  0  0  0  0
  9 35  1  6  0  0  0
  9  3  1  0  0  0  0
 10  1  1  0  0  0  0
 11 10  1  0  0  0  0
 11  9  1  0  0  0  0
 12  4  1  0  0  0  0
 13 16  1  0  0  0  0
 13 15  2  0  0  0  0
 14 13  1  0  0  0  0
 17 18  2  0  0  0  0
 17 19  1  0  0  0  0
 18 20  1  0  0  0  0
 19 22  2  0  0  0  0
 20 21  2  0  0  0  0
 22 21  1  0  0  0  0
 22 16  1  0  0  0  0
 23 29  1  1  0  0  0
 23 18  1  0  0  0  0
 24 27  2  0  0  0  0
 25 28  2  0  0  0  0
 25 26  1  0  0  0  0
 26 27  1  0  0  0  0
 27 23  1  0  0  0  0
 28 24  1  0  0  0  0
 30 29  1  0  0  0  0
 31 30  1  0  0  0  0
 32 33  1  0  0  0  0
 33 31  1  0  0  0  0
 35 34  1  1  0  0  0
 36 37  1  6  0  0  0
 36 35  1  0  0  0  0
 38 36  1  0  0  0  0
 39 38  1  0  0  0  0
 40 39  1  0  0  0  0
 41 40  1  0  0  0  0
 42 48  2  0  0  0  0
 42 51  1  0  0  0  0
 45 50  1  0  0  0  0
 45 42  1  0  0  0  0
 46 53  1  6  0  0  0
 46 49  1  0  0  0  0
 49 44  1  0  0  0  0
 50 46  1  0  0  0  0
 51 47  1  6  0  0  0
 51 52  1  0  0  0  0
 51 43  1  0  0  0  0
 52 41  1  1  0  0  0
 52 44  1  0  0  0  0
 55 54  1  0  0  0  0
 56 55  1  0  0  0  0
M  END
>  <MODEL>
8

>  <REMARK>
 VINA RESULT:      -1.8      2.988     10.271
  Name = 
  18 active torsions:
  status: ('A' for Active; 'I' for Inactive)
    1  A    between atoms: C_5  and  C_31
    2  A    between atoms: N_7  and  C_29
    3  A    between atoms: C_11  and  C_27
    4  A    between atoms: C_12  and  C_33
    5  A    between atoms: C_12  and  N_50
    6  A    between atoms: C_16  and  N_50
    7  A    between atoms: C_16  and  C_53
    8  A    between atoms: C_19  and  C_22
    9  A    between atoms: C_19  and  C_38
   10  A    between atoms: C_22  and  C_37
   11  A    between atoms: C_25  and  C_37
   12  A    between atoms: C_27  and  C_41
   13  A    between atoms: C_31  and  C_52
   14  A    between atoms: C_32  and  C_37
   15  A    between atoms: C_33  and  C_46
   16  A    between atoms: C_38  and  C_42
   17  A    between atoms: C_47  and  O_56
   18  A    between atoms: C_53  and  O_56
                            x       y       z     vdW  Elec       q    Type
                         _______ _______ _______ _____ _____    ______ ____

>  <TORSDO>
F 18

$$$$
=
 OpenBabel11052412113D

 56 60  0  0  1  0  0  0  0  0999 V2000
  159.3920  212.8910  141.6280 O   0  0  0  0  0  0  0  0  0  0  0  0
  161.6250  213.8160  142.1860 C   0  0  1  0  0  3  0  0  0  0  0  0
  162.3640  212.8460  141.2540 C   0  0  2  0  0  3  0  0  0  0  0  0
  162.0980  213.2460  144.8360 C   0  0  1  0  0  3  0  0  0  0  0  0
  163.6010  213.3810  140.8920 O   0  0  0  0  0  1  0  0  0  0  0  0
  160.4320  212.0980  143.6220 C   0  0  1  0  0  3  0  0  0  0  0  0
  160.2570  213.2920  142.6740 C   0  0  2  0  0  3  0  0  0  0  0  0
  161.6730  212.0060  144.3040 O   0  0  0  0  0  0  0  0  0  0  0  0
  161.5890  212.4830  139.9650 C   0  0  2  0  0  3  0  0  0  0  0  0
  159.4450  213.8360  140.5900 C   0  0  0  0  0  2  0  0  0  0  0  0
  160.4290  213.3890  139.4980 C   0  0  0  0  0  2  0  0  0  0  0  0
  162.6620  214.4270  143.5630 S   0  0  0  0  0  0  0  0  0  0  0  0
  161.1490  213.6460  147.1400 C   0  0  0  0  0  0  0  0  0  0  0  0
  161.1120  213.8450  145.7250 N   0  0  0  0  0  2  0  0  0  0  0  0
  161.9460  212.8150  147.6510 O   0  0  0  0  0  0  0  0  0  0  0  0
  160.2570  214.4510  148.0230 C   0  0  0  0  0  2  0  0  0  0  0  0
  158.6050  213.3280  151.2400 C   0  0  0  0  0  3  0  0  0  0  0  0
  159.5080  212.3550  151.6940 C   0  0  0  0  0  0  0  0  0  0  0  0
  158.8450  214.0050  150.0410 C   0  0  0  0  0  3  0  0  0  0  0  0
  160.6420  212.0520  150.9300 C   0  0  0  0  0  3  0  0  0  0  0  0
  160.8800  212.7280  149.7290 C   0  0  0  0  0  3  0  0  0  0  0  0
  159.9820  213.7030  149.2820 C   0  0  0  0  0  0  0  0  0  0  0  0
  159.2710  211.6050  152.9680 C   0  0  2  0  0  3  0  0  0  0  0  0
  160.5920  209.8160  151.9210 N   0  0  0  0  0  0  0  0  0  0  0  0
  160.8870  208.3560  153.7580 C   0  0  0  0  0  3  0  0  0  0  0  0
  160.1380  209.5120  154.0840 O   0  0  0  0  0  0  0  0  0  0  0  0
  160.0030  210.2940  152.9600 C   0  0  0  0  0  0  0  0  0  0  0  0
  161.2270  208.5540  152.2780 C   0  0  0  0  0  3  0  0  0  0  0  0
  157.7810  211.4420  153.2470 C   0  0  0  0  0  2  0  0  0  0  0  0
  157.5600  210.6190  154.5050 C   0  0  0  0  0  2  0  0  0  0  0  0
  157.7020  211.4970  155.7370 C   0  0  0  0  0  2  0  0  0  0  0  0
  155.6230  211.8920  156.9640 N   0  0  0  0  0  1  0  0  0  0  0  0
  156.7870  211.0310  156.8630 C   0  0  0  0  0  2  0  0  0  0  0  0
  162.4280  210.0930  140.3140 C   0  0  0  0  0  1  0  0  0  0  0  0
  161.3390  210.9870  139.7340 C   0  0  2  0  0  3  0  0  0  0  0  0
  161.0590  210.6620  138.2650 C   0  0  1  0  0  3  0  0  0  0  0  0
  162.1670  210.0300  137.6790 O   0  0  0  0  0  1  0  0  0  0  0  0
  159.8770  209.8100  138.1660 N   0  0  0  0  0  2  0  0  0  0  0  0
  159.0070  210.0830  139.3010 C   0  0  0  0  0  2  0  0  0  0  0  0
  157.6720  209.3690  139.1430 C   0  0  0  0  0  2  0  0  0  0  0  0
  156.7320  209.8290  140.0790 O   0  0  0  0  0  0  0  0  0  0  0  0
  153.4250  210.4810  138.3550 C   0  0  0  0  0  0  0  0  0  0  0  0
  153.9510  209.4770  140.4600 O   0  0  0  0  0  1  0  0  0  0  0  0
  155.6080  211.9710  139.9790 C   0  0  0  0  0  2  0  0  0  0  0  0
  153.7450  211.1600  137.0420 C   0  0  0  0  0  2  0  0  0  0  0  0
  154.8950  213.1860  138.1820 C   0  0  1  0  0  3  0  0  0  0  0  0
  154.7820  208.4390  138.5000 C   0  0  0  0  0  1  0  0  0  0  0  0
  152.2590  210.4800  138.7230 O   0  0  0  0  0  0  0  0  0  0  0  0
  154.5140  212.6690  139.4350 O   0  0  0  0  0  0  0  0  0  0  0  0
  154.9530  212.1030  137.0890 C   0  0  0  0  0  2  0  0  0  0  0  0
  154.4710  209.7560  139.1920 C   0  0  1  0  0  0  0  0  0  0  0  0
  155.7800  210.5650  139.3560 C   0  0  2  0  0  3  0  0  0  0  0  0
  153.9960  214.1800  137.8010 O   0  0  0  0  0  1  0  0  0  0  0  0
  159.2310  211.8980  144.5410 C   0  0  0  0  0  2  0  0  0  0  0  0
  158.1790  212.9650  144.2920 C   0  0  0  0  0  2  0  0  0  0  0  0
  157.3260  213.0570  145.3950 O   0  0  0  0  0  1  0  0  0  0  0  0
  2  7  1  0  0  0  0
  2 12  1  1  0  0  0
  3  5  1  6  0  0  0
  3  2  1  0  0  0  0
  4 14  1  6  0  0  0
  6  8  1  0  0  0  0
  6 54  1  1  0  0  0
  7  1  1  6  0  0  0
  7  6  1  0  0  0  0
  8  4  1  0  0  0  0
  9 35  1  1  0  0  0
  9  3  1  0  0  0  0
 10  1  1  0  0  0  0
 11  9  1  0  0  0  0
 11 10  1  0  0  0  0
 12  4  1  0  0  0  0
 13 15  2  0  0  0  0
 13 16  1  0  0  0  0
 14 13  1  0  0  0  0
 16 22  1  0  0  0  0
 17 18  1  0  0  0  0
 18 23  1  0  0  0  0
 19 17  2  0  0  0  0
 20 18  2  0  0  0  0
 21 20  1  0  0  0  0
 22 21  2  0  0  0  0
 22 19  1  0  0  0  0
 23 29  1  6  0  0  0
 24 28  1  0  0  0  0
 24 27  2  0  0  0  0
 25 26  1  0  0  0  0
 27 23  1  0  0  0  0
 27 26  1  0  0  0  0
 28 25  2  0  0  0  0
 29 30  1  0  0  0  0
 30 31  1  0  0  0  0
 31 33  1  0  0  0  0
 33 32  1  0  0  0  0
 35 34  1  6  0  0  0
 36 37  1  1  0  0  0
 36 35  1  0  0  0  0
 38 36  1  0  0  0  0
 38 39  1  0  0  0  0
 40 39  1  0  0  0  0
 40 41  1  0  0  0  0
 42 48  2  0  0  0  0
 42 51  1  0  0  0  0
 45 50  1  0  0  0  0
 45 42  1  0  0  0  0
 46 53  1  6  0  0  0
 46 49  1  0  0  0  0
 49 44  1  0  0  0  0
 50 46  1  0  0  0  0
 51 47  1  6  0  0  0
 51 52  1  0  0  0  0
 51 43  1  0  0  0  0
 52 44  1  0  0  0  0
 52 41  1  1  0  0  0
 55 54  1  0  0  0  0
 55 56  1  0  0  0  0
M  END
>  <MODEL>
9

>  <REMARK>
 VINA RESULT:      -1.8      4.185     12.486
  Name = 
  18 active torsions:
  status: ('A' for Active; 'I' for Inactive)
    1  A    between atoms: C_5  and  C_31
    2  A    between atoms: N_7  and  C_29
    3  A    between atoms: C_11  and  C_27
    4  A    between atoms: C_12  and  C_33
    5  A    between atoms: C_12  and  N_50
    6  A    between atoms: C_16  and  N_50
    7  A    between atoms: C_16  and  C_53
    8  A    between atoms: C_19  and  C_22
    9  A    between atoms: C_19  and  C_38
   10  A    between atoms: C_22  and  C_37
   11  A    between atoms: C_25  and  C_37
   12  A    between atoms: C_27  and  C_41
   13  A    between atoms: C_31  and  C_52
   14  A    between atoms: C_32  and  C_37
   15  A    between atoms: C_33  and  C_46
   16  A    between atoms: C_38  and  C_42
   17  A    between atoms: C_47  and  O_56
   18  A    between atoms: C_53  and  O_56
                            x       y       z     vdW  Elec       q    Type
                         _______ _______ _______ _____ _____    ______ ____

>  <TORSDO>
F 18

$$$$
