=
 OpenBabel11042421193D

 39 41  0  0  0  0  0  0  0  0999 V2000
  161.7780  208.5500  150.8060 C   0  0  0  0  0  0  0  0  0  0  0  0
  161.0450  207.9790  151.8840 C   0  0  0  0  0  0  0  0  0  0  0  0
  161.9670  207.8200  149.6280 C   0  0  0  0  0  3  0  0  0  0  0  0
  160.5620  206.6670  151.7250 C   0  0  0  0  0  3  0  0  0  0  0  0
  160.7630  205.9520  150.5450 C   0  0  0  0  0  3  0  0  0  0  0  0
  161.4550  206.5240  149.4720 C   0  0  0  0  0  0  0  0  0  0  0  0
  160.0740  209.9060  153.2280 C   0  0  0  0  0  3  0  0  0  0  0  0
  160.1640  209.9140  155.6490 C   0  0  0  0  0  0  0  0  0  0  0  0
  159.7790  210.5240  154.4470 C   0  0  0  0  0  0  0  0  0  0  0  0
  161.1240  208.0780  154.3970 C   0  0  0  0  0  3  0  0  0  0  0  0
  160.8330  208.6900  155.6200 C   0  0  0  0  0  3  0  0  0  0  0  0
  160.7520  208.6790  153.1770 C   0  0  0  0  0  0  0  0  0  0  0  0
  159.8830  210.5170  156.8700 O   0  0  0  0  0  1  0  0  0  0  0  0
  159.0580  211.8280  154.4430 C   0  0  0  0  0  1  0  0  0  0  0  0
  162.2410  205.9140  145.8230 C   0  0  0  0  0  3  0  0  0  0  0  0
  162.0540  206.5290  147.0610 C   0  0  0  0  0  3  0  0  0  0  0  0
  162.0640  204.5400  145.6920 C   0  0  0  0  0  3  0  0  0  0  0  0
  161.6890  205.7840  148.1980 C   0  0  0  0  0  0  0  0  0  0  0  0
  161.5110  204.3780  148.0510 C   0  0  0  0  0  0  0  0  0  0  0  0
  161.7000  203.7780  146.8010 C   0  0  0  0  0  3  0  0  0  0  0  0
  161.1030  203.4860  149.1770 C   0  0  0  0  0  2  0  0  0  0  0  0
  160.4350  202.3070  148.6490 N   0  0  0  0  0  1  0  0  0  0  0  0
  162.3960  209.8820  150.8490 C   0  0  0  0  0  0  0  0  0  0  0  0
  162.2730  210.7940  149.7560 N   0  0  0  0  0  2  0  0  0  0  0  0
  163.0800  210.2100  151.8540 O   0  0  0  0  0  0  0  0  0  0  0  0
  161.3890  210.5500  148.6250 C   0  0  0  0  0  2  0  0  0  0  0  0
  161.5240  211.6710  147.6070 C   0  0  0  0  0  2  0  0  0  0  0  0
  159.0980  214.1920  148.6640 O   0  0  0  0  0  0  0  0  0  0  0  0
  160.3400  212.5220  147.5930 N   0  0  0  0  0  0  0  0  0  0  0  0
  160.2000  213.5980  148.5350 C   0  0  0  0  0  0  0  0  0  0  0  0
  161.2780  213.9900  149.3200 O   0  0  0  0  0  1  0  0  0  0  0  0
  159.2280  212.1470  146.7290 C   0  0  0  0  0  2  0  0  0  0  0  0
  159.2420  212.9900  145.4660 C   0  0  0  0  0  2  0  0  0  0  0  0
  159.6720  212.1270  144.2980 C   0  0  0  0  0  2  0  0  0  0  0  0
  162.6180  212.6940  142.1270 N   0  0  0  0  0  2  0  0  0  0  0  0
  160.9760  212.5570  143.8090 N   0  0  0  0  0  2  0  0  0  0  0  0
  161.4600  212.2510  142.4960 C   0  0  0  0  0  0  0  0  0  0  0  0
  160.6030  211.5370  141.5020 C   0  0  0  0  0  2  0  0  0  0  0  0
  161.3370  210.5150  140.9000 O   0  0  0  0  0  1  0  0  0  0  0  0
  1 23  1  0  0  0  0
  1  2  1  0  0  0  0
  2 12  1  0  0  0  0
  3  1  2  0  0  0  0
  4  2  2  0  0  0  0
  5  4  1  0  0  0  0
  6  3  1  0  0  0  0
  6  5  2  0  0  0  0
  7  9  1  0  0  0  0
  8 13  1  0  0  0  0
  9  8  2  0  0  0  0
 10 11  2  0  0  0  0
 11  8  1  0  0  0  0
 12  7  2  0  0  0  0
 12 10  1  0  0  0  0
 14  9  1  0  0  0  0
 15 16  1  0  0  0  0
 16 18  2  0  0  0  0
 17 15  2  0  0  0  0
 17 20  1  0  0  0  0
 18  6  1  0  0  0  0
 19 18  1  0  0  0  0
 19 21  1  0  0  0  0
 20 19  2  0  0  0  0
 22 21  1  0  0  0  0
 23 25  2  0  0  0  0
 24 23  1  0  0  0  0
 26 24  1  0  0  0  0
 27 26  1  0  0  0  0
 29 27  1  0  0  0  0
 29 30  1  0  0  0  0
 30 28  2  0  0  0  0
 30 31  1  0  0  0  0
 32 29  1  0  0  0  0
 33 32  1  0  0  0  0
 34 33  1  0  0  0  0
 35 37  2  0  0  0  0
 36 34  1  0  0  0  0
 37 36  1  0  0  0  0
 38 37  1  0  0  0  0
 39 38  1  0  0  0  0
M  END
>  <MODEL>
1

>  <REMARK>
 VINA RESULT:      -7.4      0.000      0.000
  Name = 
  12 active torsions:
  status: ('A' for Active; 'I' for Inactive)
    1  A    between atoms: C_1  and  C_14
    2  A    between atoms: C_2  and  C_21
    3  A    between atoms: N_8  and  C_33
    4  A    between atoms: C_9  and  C_32
    5  A    between atoms: C_13  and  C_25
    6  A    between atoms: C_13  and  C_33
    7  A    between atoms: C_18  and  N_20
    8  A    between atoms: C_18  and  C_23
    9  A    between atoms: C_19  and  C_30
   10  A    between atoms: N_22  and  C_23
   11  A    between atoms: N_22  and  C_25
   12  A    between atoms: C_27  and  C_34
                            x       y       z     vdW  Elec       q    Type
                         _______ _______ _______ _____ _____    ______ ____

>  <TORSDO>
F 12

$$$$
=
 OpenBabel11042421193D

 39 41  0  0  0  0  0  0  0  0999 V2000
  160.8850  206.5200  150.7600 C   0  0  0  0  0  0  0  0  0  0  0  0
  161.0520  205.1710  151.1820 C   0  0  0  0  0  0  0  0  0  0  0  0
  160.9180  207.5540  151.7010 C   0  0  0  0  0  3  0  0  0  0  0  0
  161.2150  204.9310  152.5580 C   0  0  0  0  0  3  0  0  0  0  0  0
  161.2410  205.9740  153.4840 C   0  0  0  0  0  3  0  0  0  0  0  0
  161.1100  207.3030  153.0670 C   0  0  0  0  0  0  0  0  0  0  0  0
  161.3020  204.1150  148.8830 C   0  0  0  0  0  3  0  0  0  0  0  0
  161.1600  201.7150  148.5860 C   0  0  0  0  0  0  0  0  0  0  0  0
  161.3490  202.9950  148.0480 C   0  0  0  0  0  0  0  0  0  0  0  0
  160.8890  202.6920  150.7840 C   0  0  0  0  0  3  0  0  0  0  0  0
  160.9330  201.5670  149.9550 C   0  0  0  0  0  3  0  0  0  0  0  0
  161.0690  203.9890  150.2610 C   0  0  0  0  0  0  0  0  0  0  0  0
  161.1980  200.5900  147.7700 O   0  0  0  0  0  1  0  0  0  0  0  0
  161.5980  203.1860  146.5910 C   0  0  0  0  0  1  0  0  0  0  0  0
  161.9950  210.6600  154.5670 C   0  0  0  0  0  3  0  0  0  0  0  0
  161.8850  209.5780  153.6940 C   0  0  0  0  0  3  0  0  0  0  0  0
  161.3540  210.6280  155.8020 C   0  0  0  0  0  3  0  0  0  0  0  0
  161.1310  208.4400  154.0330 C   0  0  0  0  0  0  0  0  0  0  0  0
  160.4800  208.4180  155.3000 C   0  0  0  0  0  0  0  0  0  0  0  0
  160.6020  209.5120  156.1650 C   0  0  0  0  0  3  0  0  0  0  0  0
  159.6710  207.2600  155.7820 C   0  0  0  0  0  2  0  0  0  0  0  0
  160.1050  206.8810  157.1170 N   0  0  0  0  0  1  0  0  0  0  0  0
  160.6430  206.9190  149.3670 C   0  0  0  0  0  0  0  0  0  0  0  0
  161.1620  208.1430  148.8440 N   0  0  0  0  0  2  0  0  0  0  0  0
  159.9310  206.1860  148.6320 O   0  0  0  0  0  0  0  0  0  0  0  0
  162.1060  208.9740  149.5790 C   0  0  0  0  0  2  0  0  0  0  0  0
  162.4930  210.1860  148.7460 C   0  0  0  0  0  2  0  0  0  0  0  0
  161.5380  213.7030  149.0150 O   0  0  0  0  0  1  0  0  0  0  0  0
  161.9110  211.4100  149.2860 N   0  0  0  0  0  0  0  0  0  0  0  0
  161.8400  212.6010  148.4880 C   0  0  0  0  0  0  0  0  0  0  0  0
  162.1110  212.5530  147.1250 O   0  0  0  0  0  0  0  0  0  0  0  0
  161.5720  211.4470  150.7030 C   0  0  0  0  0  2  0  0  0  0  0  0
  160.1180  211.8510  150.8800 C   0  0  0  0  0  2  0  0  0  0  0  0
  159.9200  212.3900  152.2820 C   0  0  0  0  0  2  0  0  0  0  0  0
  157.4200  211.2930  154.7830 N   0  0  0  0  0  2  0  0  0  0  0  0
  158.8810  211.6330  152.9680 N   0  0  0  0  0  2  0  0  0  0  0  0
  158.3630  212.0010  154.2520 C   0  0  0  0  0  0  0  0  0  0  0  0
  158.8020  213.2560  154.9330 C   0  0  0  0  0  2  0  0  0  0  0  0
  157.6910  214.0480  155.2190 O   0  0  0  0  0  1  0  0  0  0  0  0
  1  2  2  0  0  0  0
  1  3  1  0  0  0  0
  2  4  1  0  0  0  0
  3  6  2  0  0  0  0
  4  5  2  0  0  0  0
  6  5  1  0  0  0  0
  6 18  1  0  0  0  0
  7 12  1  0  0  0  0
  8 11  2  0  0  0  0
  9  8  1  0  0  0  0
  9  7  2  0  0  0  0
 11 10  1  0  0  0  0
 12 10  2  0  0  0  0
 12  2  1  0  0  0  0
 13  8  1  0  0  0  0
 14  9  1  0  0  0  0
 15 17  1  0  0  0  0
 16 18  1  0  0  0  0
 16 15  2  0  0  0  0
 17 20  2  0  0  0  0
 18 19  2  0  0  0  0
 19 21  1  0  0  0  0
 19 20  1  0  0  0  0
 21 22  1  0  0  0  0
 23  1  1  0  0  0  0
 24 23  1  0  0  0  0
 24 26  1  0  0  0  0
 25 23  2  0  0  0  0
 27 29  1  0  0  0  0
 27 26  1  0  0  0  0
 29 32  1  0  0  0  0
 30 28  1  0  0  0  0
 30 29  1  0  0  0  0
 31 30  2  0  0  0  0
 32 33  1  0  0  0  0
 33 34  1  0  0  0  0
 34 36  1  0  0  0  0
 36 37  1  0  0  0  0
 37 35  2  0  0  0  0
 37 38  1  0  0  0  0
 38 39  1  0  0  0  0
M  END
>  <MODEL>
2

>  <REMARK>
 VINA RESULT:      -7.4      3.225      8.054
  Name = 
  12 active torsions:
  status: ('A' for Active; 'I' for Inactive)
    1  A    between atoms: C_1  and  C_14
    2  A    between atoms: C_2  and  C_21
    3  A    between atoms: N_8  and  C_33
    4  A    between atoms: C_9  and  C_32
    5  A    between atoms: C_13  and  C_25
    6  A    between atoms: C_13  and  C_33
    7  A    between atoms: C_18  and  N_20
    8  A    between atoms: C_18  and  C_23
    9  A    between atoms: C_19  and  C_30
   10  A    between atoms: N_22  and  C_23
   11  A    between atoms: N_22  and  C_25
   12  A    between atoms: C_27  and  C_34
                            x       y       z     vdW  Elec       q    Type
                         _______ _______ _______ _____ _____    ______ ____

>  <TORSDO>
F 12

$$$$
=
 OpenBabel11042421193D

 39 41  0  0  0  0  0  0  0  0999 V2000
  160.4990  213.1680  148.3530 C   0  0  0  0  0  0  0  0  0  0  0  0
  159.7460  213.1330  147.1460 C   0  0  0  0  0  0  0  0  0  0  0  0
  159.8430  213.3100  149.5800 C   0  0  0  0  0  3  0  0  0  0  0  0
  158.3500  213.2770  147.2410 C   0  0  0  0  0  3  0  0  0  0  0  0
  157.7130  213.4210  148.4730 C   0  0  0  0  0  3  0  0  0  0  0  0
  158.4490  213.4230  149.6630 C   0  0  0  0  0  0  0  0  0  0  0  0
  161.5830  213.4900  145.4250 C   0  0  0  0  0  3  0  0  0  0  0  0
  161.4330  212.5140  143.2130 C   0  0  0  0  0  0  0  0  0  0  0  0
  162.1320  213.2780  144.1570 C   0  0  0  0  0  0  0  0  0  0  0  0
  159.6530  212.1800  144.8190 C   0  0  0  0  0  3  0  0  0  0  0  0
  160.1950  211.9640  143.5480 C   0  0  0  0  0  3  0  0  0  0  0  0
  160.3370  212.9510  145.7800 C   0  0  0  0  0  0  0  0  0  0  0  0
  161.9610  212.2980  141.9450 O   0  0  0  0  0  1  0  0  0  0  0  0
  163.4580  213.8740  143.8320 C   0  0  0  0  0  1  0  0  0  0  0  0
  155.8980  214.4530  152.2580 C   0  0  0  0  0  3  0  0  0  0  0  0
  156.5470  214.2250  151.0450 C   0  0  0  0  0  3  0  0  0  0  0  0
  156.4850  214.0430  153.4520 C   0  0  0  0  0  3  0  0  0  0  0  0
  157.7960  213.5790  150.9960 C   0  0  0  0  0  0  0  0  0  0  0  0
  158.3870  213.1640  152.2230 C   0  0  0  0  0  0  0  0  0  0  0  0
  157.7230  213.4030  153.4320 C   0  0  0  0  0  3  0  0  0  0  0  0
  159.7170  212.4900  152.3010 C   0  0  0  0  0  2  0  0  0  0  0  0
  159.5330  211.0480  152.3420 N   0  0  0  0  0  1  0  0  0  0  0  0
  161.9650  213.0930  148.4060 C   0  0  0  0  0  0  0  0  0  0  0  0
  162.6380  211.8530  148.6310 N   0  0  0  0  0  2  0  0  0  0  0  0
  162.6400  214.1500  148.2920 O   0  0  0  0  0  0  0  0  0  0  0  0
  161.9450  210.5720  148.6330 C   0  0  0  0  0  2  0  0  0  0  0  0
  162.0150  209.9430  150.0150 C   0  0  0  0  0  2  0  0  0  0  0  0
  162.3350  206.4600  151.0730 O   0  0  0  0  0  0  0  0  0  0  0  0
  162.1060  208.4890  149.9330 N   0  0  0  0  0  0  0  0  0  0  0  0
  162.0460  207.6830  151.1200 C   0  0  0  0  0  0  0  0  0  0  0  0
  161.6750  208.2470  152.3350 O   0  0  0  0  0  1  0  0  0  0  0  0
  162.4390  207.8890  148.6470 C   0  0  0  0  0  2  0  0  0  0  0  0
  161.2940  207.0140  148.1690 C   0  0  0  0  0  2  0  0  0  0  0  0
  161.8560  205.7220  147.6110 C   0  0  0  0  0  2  0  0  0  0  0  0
  160.7500  202.3290  148.5970 N   0  0  0  0  0  2  0  0  0  0  0  0
  161.3790  204.5880  148.3930 N   0  0  0  0  0  2  0  0  0  0  0  0
  161.1470  203.2920  147.8300 C   0  0  0  0  0  0  0  0  0  0  0  0
  161.4720  202.9980  146.4020 C   0  0  0  0  0  2  0  0  0  0  0  0
  160.7240  201.9040  145.9660 O   0  0  0  0  0  1  0  0  0  0  0  0
  1 23  1  0  0  0  0
  1  3  1  0  0  0  0
  2  4  1  0  0  0  0
  2  1  2  0  0  0  0
  3  6  2  0  0  0  0
  4  5  2  0  0  0  0
  5  6  1  0  0  0  0
  6 18  1  0  0  0  0
  7 12  1  0  0  0  0
  8 11  2  0  0  0  0
  8  9  1  0  0  0  0
  9  7  2  0  0  0  0
 10 12  2  0  0  0  0
 11 10  1  0  0  0  0
 12  2  1  0  0  0  0
 13  8  1  0  0  0  0
 14  9  1  0  0  0  0
 15 17  1  0  0  0  0
 16 15  2  0  0  0  0
 18 16  1  0  0  0  0
 18 19  2  0  0  0  0
 19 21  1  0  0  0  0
 19 20  1  0  0  0  0
 20 17  2  0  0  0  0
 21 22  1  0  0  0  0
 23 24  1  0  0  0  0
 24 26  1  0  0  0  0
 25 23  2  0  0  0  0
 26 27  1  0  0  0  0
 28 30  2  0  0  0  0
 29 27  1  0  0  0  0
 29 30  1  0  0  0  0
 30 31  1  0  0  0  0
 32 29  1  0  0  0  0
 33 32  1  0  0  0  0
 34 33  1  0  0  0  0
 34 36  1  0  0  0  0
 37 36  1  0  0  0  0
 37 35  2  0  0  0  0
 38 37  1  0  0  0  0
 39 38  1  0  0  0  0
M  END
>  <MODEL>
3

>  <REMARK>
 VINA RESULT:      -7.3      2.723      9.150
  Name = 
  12 active torsions:
  status: ('A' for Active; 'I' for Inactive)
    1  A    between atoms: C_1  and  C_14
    2  A    between atoms: C_2  and  C_21
    3  A    between atoms: N_8  and  C_33
    4  A    between atoms: C_9  and  C_32
    5  A    between atoms: C_13  and  C_25
    6  A    between atoms: C_13  and  C_33
    7  A    between atoms: C_18  and  N_20
    8  A    between atoms: C_18  and  C_23
    9  A    between atoms: C_19  and  C_30
   10  A    between atoms: N_22  and  C_23
   11  A    between atoms: N_22  and  C_25
   12  A    between atoms: C_27  and  C_34
                            x       y       z     vdW  Elec       q    Type
                         _______ _______ _______ _____ _____    ______ ____

>  <TORSDO>
F 12

$$$$
=
 OpenBabel11042421193D

 39 41  0  0  0  0  0  0  0  0999 V2000
  160.9880  206.7540  150.7900 C   0  0  0  0  0  0  0  0  0  0  0  0
  161.0800  205.3790  151.1450 C   0  0  0  0  0  0  0  0  0  0  0  0
  161.0310  207.7360  151.7860 C   0  0  0  0  0  3  0  0  0  0  0  0
  161.1800  205.0610  152.5120 C   0  0  0  0  0  3  0  0  0  0  0  0
  161.2170  206.0530  153.4920 C   0  0  0  0  0  3  0  0  0  0  0  0
  161.1600  207.4070  153.1420 C   0  0  0  0  0  0  0  0  0  0  0  0
  161.4080  204.4250  148.8120 C   0  0  0  0  0  3  0  0  0  0  0  0
  161.1310  202.0590  148.3760 C   0  0  0  0  0  0  0  0  0  0  0  0
  161.4370  203.3490  147.9210 C   0  0  0  0  0  0  0  0  0  0  0  0
  160.7830  202.9400  150.6030 C   0  0  0  0  0  3  0  0  0  0  0  0
  160.8080  201.8570  149.7190 C   0  0  0  0  0  3  0  0  0  0  0  0
  161.0790  204.2460  150.1640 C   0  0  0  0  0  0  0  0  0  0  0  0
  161.1490  200.9760  147.5040 O   0  0  0  0  0  1  0  0  0  0  0  0
  161.7910  203.5950  146.4950 C   0  0  0  0  0  1  0  0  0  0  0  0
  162.0530  210.6860  154.8000 C   0  0  0  0  0  3  0  0  0  0  0  0
  161.9320  209.6510  153.8730 C   0  0  0  0  0  3  0  0  0  0  0  0
  161.4410  210.5820  156.0460 C   0  0  0  0  0  3  0  0  0  0  0  0
  161.1940  208.4900  154.1670 C   0  0  0  0  0  0  0  0  0  0  0  0
  160.5730  208.3940  155.4450 C   0  0  0  0  0  0  0  0  0  0  0  0
  160.7060  209.4410  156.3660 C   0  0  0  0  0  3  0  0  0  0  0  0
  159.7840  207.2040  155.8820 C   0  0  0  0  0  2  0  0  0  0  0  0
  160.1150  206.8770  157.2600 N   0  0  0  0  0  1  0  0  0  0  0  0
  160.8170  207.2350  149.4130 C   0  0  0  0  0  0  0  0  0  0  0  0
  161.4700  208.4190  148.9530 N   0  0  0  0  0  2  0  0  0  0  0  0
  160.0470  206.6130  148.6350 O   0  0  0  0  0  0  0  0  0  0  0  0
  162.4800  209.1150  149.7370 C   0  0  0  0  0  2  0  0  0  0  0  0
  161.8470  210.2680  150.5000 C   0  0  0  0  0  2  0  0  0  0  0  0
  160.3370  213.3300  149.1950 O   0  0  0  0  0  0  0  0  0  0  0  0
  161.6050  211.4120  149.6270 N   0  0  0  0  0  0  0  0  0  0  0  0
  160.7070  212.4600  150.0250 C   0  0  0  0  0  0  0  0  0  0  0  0
  160.2310  212.5210  151.3300 O   0  0  0  0  0  1  0  0  0  0  0  0
  162.1500  211.3780  148.2760 C   0  0  0  0  0  2  0  0  0  0  0  0
  163.0590  212.5740  148.0510 C   0  0  0  0  0  2  0  0  0  0  0  0
  162.6800  213.2490  146.7490 C   0  0  0  0  0  2  0  0  0  0  0  0
  159.8400  212.4280  144.5190 N   0  0  0  0  0  2  0  0  0  0  0  0
  161.4920  212.6190  146.1850 N   0  0  0  0  0  2  0  0  0  0  0  0
  160.8760  213.0580  144.9680 C   0  0  0  0  0  0  0  0  0  0  0  0
  161.4790  214.1480  144.1450 C   0  0  0  0  0  2  0  0  0  0  0  0
  162.3920  213.6040  143.2430 O   0  0  0  0  0  1  0  0  0  0  0  0
  1  2  2  0  0  0  0
  1  3  1  0  0  0  0
  2  4  1  0  0  0  0
  3  6  2  0  0  0  0
  4  5  2  0  0  0  0
  6  5  1  0  0  0  0
  6 18  1  0  0  0  0
  7 12  1  0  0  0  0
  8 11  2  0  0  0  0
  9  8  1  0  0  0  0
  9  7  2  0  0  0  0
 11 10  1  0  0  0  0
 12 10  2  0  0  0  0
 12  2  1  0  0  0  0
 13  8  1  0  0  0  0
 14  9  1  0  0  0  0
 15 17  1  0  0  0  0
 16 18  1  0  0  0  0
 16 15  2  0  0  0  0
 17 20  2  0  0  0  0
 18 19  2  0  0  0  0
 19 21  1  0  0  0  0
 19 20  1  0  0  0  0
 21 22  1  0  0  0  0
 23  1  1  0  0  0  0
 24 23  1  0  0  0  0
 24 26  1  0  0  0  0
 25 23  2  0  0  0  0
 26 27  1  0  0  0  0
 28 30  2  0  0  0  0
 29 30  1  0  0  0  0
 29 27  1  0  0  0  0
 30 31  1  0  0  0  0
 32 29  1  0  0  0  0
 33 32  1  0  0  0  0
 34 33  1  0  0  0  0
 35 37  2  0  0  0  0
 36 34  1  0  0  0  0
 37 36  1  0  0  0  0
 38 37  1  0  0  0  0
 39 38  1  0  0  0  0
M  END
>  <MODEL>
4

>  <REMARK>
 VINA RESULT:      -7.2      2.849      6.542
  Name = 
  12 active torsions:
  status: ('A' for Active; 'I' for Inactive)
    1  A    between atoms: C_1  and  C_14
    2  A    between atoms: C_2  and  C_21
    3  A    between atoms: N_8  and  C_33
    4  A    between atoms: C_9  and  C_32
    5  A    between atoms: C_13  and  C_25
    6  A    between atoms: C_13  and  C_33
    7  A    between atoms: C_18  and  N_20
    8  A    between atoms: C_18  and  C_23
    9  A    between atoms: C_19  and  C_30
   10  A    between atoms: N_22  and  C_23
   11  A    between atoms: N_22  and  C_25
   12  A    between atoms: C_27  and  C_34
                            x       y       z     vdW  Elec       q    Type
                         _______ _______ _______ _____ _____    ______ ____

>  <TORSDO>
F 12

$$$$
=
 OpenBabel11042421193D

 39 41  0  0  0  0  0  0  0  0999 V2000
  161.8100  207.3630  150.0150 C   0  0  0  0  0  0  0  0  0  0  0  0
  161.1820  206.0910  149.9060 C   0  0  0  0  0  0  0  0  0  0  0  0
  161.7890  208.0500  151.2340 C   0  0  0  0  0  3  0  0  0  0  0  0
  160.5270  205.5850  151.0430 C   0  0  0  0  0  3  0  0  0  0  0  0
  160.5120  206.2840  152.2490 C   0  0  0  0  0  3  0  0  0  0  0  0
  161.1570  207.5210  152.3680 C   0  0  0  0  0  0  0  0  0  0  0  0
  160.9860  205.8050  147.3870 C   0  0  0  0  0  3  0  0  0  0  0  0
  161.2330  203.6300  146.3520 C   0  0  0  0  0  0  0  0  0  0  0  0
  161.0160  205.0100  146.2390 C   0  0  0  0  0  0  0  0  0  0  0  0
  161.3960  203.8640  148.7550 C   0  0  0  0  0  3  0  0  0  0  0  0
  161.4260  203.0610  147.6110 C   0  0  0  0  0  3  0  0  0  0  0  0
  161.1710  205.2530  148.6640 C   0  0  0  0  0  0  0  0  0  0  0  0
  161.2600  202.8220  145.2200 O   0  0  0  0  0  1  0  0  0  0  0  0
  160.8120  205.6490  144.9080 C   0  0  0  0  0  1  0  0  0  0  0  0
  161.5460  208.2730  156.0530 C   0  0  0  0  0  3  0  0  0  0  0  0
  161.5670  207.6320  154.8150 C   0  0  0  0  0  3  0  0  0  0  0  0
  161.1090  209.5900  156.1500 C   0  0  0  0  0  3  0  0  0  0  0  0
  161.1560  208.2940  153.6440 C   0  0  0  0  0  0  0  0  0  0  0  0
  160.7100  209.6420  153.7550 C   0  0  0  0  0  0  0  0  0  0  0  0
  160.6930  210.2700  155.0060 C   0  0  0  0  0  3  0  0  0  0  0  0
  160.2280  210.4410  152.5890 C   0  0  0  0  0  2  0  0  0  0  0  0
  158.9600  211.0720  152.9190 N   0  0  0  0  0  1  0  0  0  0  0  0
  162.4780  208.0460  148.8990 C   0  0  0  0  0  0  0  0  0  0  0  0
  162.2310  209.4240  148.6160 N   0  0  0  0  0  2  0  0  0  0  0  0
  163.2520  207.3920  148.1520 O   0  0  0  0  0  0  0  0  0  0  0  0
  161.4650  210.2850  149.5080 C   0  0  0  0  0  2  0  0  0  0  0  0
  162.0310  211.6960  149.4840 C   0  0  0  0  0  2  0  0  0  0  0  0
  159.2950  213.9740  148.6600 O   0  0  0  0  0  0  0  0  0  0  0  0
  161.1830  212.5950  148.7080 N   0  0  0  0  0  0  0  0  0  0  0  0
  160.1560  213.3680  149.3470 C   0  0  0  0  0  0  0  0  0  0  0  0
  160.0970  213.4490  150.7340 O   0  0  0  0  0  1  0  0  0  0  0  0
  161.2820  212.5540  147.2540 C   0  0  0  0  0  2  0  0  0  0  0  0
  162.5740  213.2110  146.8010 C   0  0  0  0  0  2  0  0  0  0  0  0
  162.5440  213.3810  145.2960 C   0  0  0  0  0  2  0  0  0  0  0  0
  159.9680  212.0760  142.9780 N   0  0  0  0  0  2  0  0  0  0  0  0
  161.2900  212.8670  144.7580 N   0  0  0  0  0  2  0  0  0  0  0  0
  161.1020  212.5550  143.3730 C   0  0  0  0  0  0  0  0  0  0  0  0
  162.2290  212.6550  142.3970 C   0  0  0  0  0  2  0  0  0  0  0  0
  162.2250  211.5390  141.5600 O   0  0  0  0  0  1  0  0  0  0  0  0
  1  3  1  0  0  0  0
  2  1  2  0  0  0  0
  2  4  1  0  0  0  0
  3  6  2  0  0  0  0
  4  5  2  0  0  0  0
  5  6  1  0  0  0  0
  6 18  1  0  0  0  0
  7 12  1  0  0  0  0
  8 11  2  0  0  0  0
  9  8  1  0  0  0  0
  9  7  2  0  0  0  0
 11 10  1  0  0  0  0
 12 10  2  0  0  0  0
 12  2  1  0  0  0  0
 13  8  1  0  0  0  0
 14  9  1  0  0  0  0
 15 17  1  0  0  0  0
 16 15  2  0  0  0  0
 18 19  2  0  0  0  0
 18 16  1  0  0  0  0
 19 20  1  0  0  0  0
 20 17  2  0  0  0  0
 21 22  1  0  0  0  0
 21 19  1  0  0  0  0
 23  1  1  0  0  0  0
 24 23  1  0  0  0  0
 24 26  1  0  0  0  0
 25 23  2  0  0  0  0
 27 26  1  0  0  0  0
 28 30  2  0  0  0  0
 29 30  1  0  0  0  0
 29 27  1  0  0  0  0
 30 31  1  0  0  0  0
 32 29  1  0  0  0  0
 33 32  1  0  0  0  0
 34 33  1  0  0  0  0
 35 37  2  0  0  0  0
 36 34  1  0  0  0  0
 37 36  1  0  0  0  0
 38 37  1  0  0  0  0
 39 38  1  0  0  0  0
M  END
>  <MODEL>
5

>  <REMARK>
 VINA RESULT:      -7.2      2.198      6.353
  Name = 
  12 active torsions:
  status: ('A' for Active; 'I' for Inactive)
    1  A    between atoms: C_1  and  C_14
    2  A    between atoms: C_2  and  C_21
    3  A    between atoms: N_8  and  C_33
    4  A    between atoms: C_9  and  C_32
    5  A    between atoms: C_13  and  C_25
    6  A    between atoms: C_13  and  C_33
    7  A    between atoms: C_18  and  N_20
    8  A    between atoms: C_18  and  C_23
    9  A    between atoms: C_19  and  C_30
   10  A    between atoms: N_22  and  C_23
   11  A    between atoms: N_22  and  C_25
   12  A    between atoms: C_27  and  C_34
                            x       y       z     vdW  Elec       q    Type
                         _______ _______ _______ _____ _____    ______ ____

>  <TORSDO>
F 12

$$$$
=
 OpenBabel11042421193D

 39 41  0  0  0  0  0  0  0  0999 V2000
  161.7920  207.4460  150.1440 C   0  0  0  0  0  0  0  0  0  0  0  0
  161.2580  206.1300  150.2260 C   0  0  0  0  0  0  0  0  0  0  0  0
  161.7650  208.2800  151.2670 C   0  0  0  0  0  3  0  0  0  0  0  0
  160.6880  205.7290  151.4480 C   0  0  0  0  0  3  0  0  0  0  0  0
  160.6660  206.5740  152.5560 C   0  0  0  0  0  3  0  0  0  0  0  0
  161.2200  207.8580  152.4870 C   0  0  0  0  0  0  0  0  0  0  0  0
  161.2380  203.7540  149.3200 C   0  0  0  0  0  3  0  0  0  0  0  0
  161.2010  203.3240  146.9360 C   0  0  0  0  0  0  0  0  0  0  0  0
  161.2070  202.8490  148.2550 C   0  0  0  0  0  0  0  0  0  0  0  0
  161.2490  205.5970  147.7660 C   0  0  0  0  0  3  0  0  0  0  0  0
  161.2190  204.6980  146.6950 C   0  0  0  0  0  3  0  0  0  0  0  0
  161.2630  205.1400  149.1000 C   0  0  0  0  0  0  0  0  0  0  0  0
  161.1750  202.4380  145.8650 O   0  0  0  0  0  1  0  0  0  0  0  0
  161.1830  201.3880  148.5450 C   0  0  0  0  0  1  0  0  0  0  0  0
  161.5790  211.0570  154.4710 C   0  0  0  0  0  3  0  0  0  0  0  0
  161.5200  210.1390  153.4230 C   0  0  0  0  0  3  0  0  0  0  0  0
  161.3320  210.6440  155.7760 C   0  0  0  0  0  3  0  0  0  0  0  0
  161.2090  208.7870  153.6550 C   0  0  0  0  0  0  0  0  0  0  0  0
  160.9590  208.3750  154.9950 C   0  0  0  0  0  0  0  0  0  0  0  0
  161.0250  209.3090  156.0360 C   0  0  0  0  0  3  0  0  0  0  0  0
  160.6420  206.9650  155.3700 C   0  0  0  0  0  2  0  0  0  0  0  0
  159.7080  206.9530  156.4850 N   0  0  0  0  0  1  0  0  0  0  0  0
  162.3620  208.0260  148.9200 C   0  0  0  0  0  0  0  0  0  0  0  0
  162.1710  209.4020  148.5910 N   0  0  0  0  0  2  0  0  0  0  0  0
  162.9970  207.2830  148.1260 O   0  0  0  0  0  0  0  0  0  0  0  0
  161.5740  210.3560  149.5160 C   0  0  0  0  0  2  0  0  0  0  0  0
  162.1310  211.7480  149.2610 C   0  0  0  0  0  2  0  0  0  0  0  0
  159.1770  213.8020  148.6170 O   0  0  0  0  0  0  0  0  0  0  0  0
  161.1710  212.5810  148.5440 N   0  0  0  0  0  0  0  0  0  0  0  0
  160.1220  213.2630  149.2480 C   0  0  0  0  0  0  0  0  0  0  0  0
  160.1350  213.3290  150.6370 O   0  0  0  0  0  1  0  0  0  0  0  0
  161.1900  212.5590  147.0860 C   0  0  0  0  0  2  0  0  0  0  0  0
  162.5650  212.9560  146.5780 C   0  0  0  0  0  2  0  0  0  0  0  0
  162.4060  213.9180  145.4180 C   0  0  0  0  0  2  0  0  0  0  0  0
  162.6110  212.2150  142.1370 N   0  0  0  0  0  2  0  0  0  0  0  0
  162.9200  213.3170  144.1940 N   0  0  0  0  0  2  0  0  0  0  0  0
  162.0800  212.7000  143.2110 C   0  0  0  0  0  0  0  0  0  0  0  0
  160.5920  212.7180  143.3440 C   0  0  0  0  0  2  0  0  0  0  0  0
  160.0810  211.4520  143.0600 O   0  0  0  0  0  1  0  0  0  0  0  0
  1  2  2  0  0  0  0
  1  3  1  0  0  0  0
  2  4  1  0  0  0  0
  3  6  2  0  0  0  0
  4  5  2  0  0  0  0
  6  5  1  0  0  0  0
  6 18  1  0  0  0  0
  8  9  1  0  0  0  0
  9 14  1  0  0  0  0
  9  7  2  0  0  0  0
 10 12  2  0  0  0  0
 11  8  2  0  0  0  0
 11 10  1  0  0  0  0
 12  7  1  0  0  0  0
 12  2  1  0  0  0  0
 13  8  1  0  0  0  0
 15 17  1  0  0  0  0
 16 18  1  0  0  0  0
 16 15  2  0  0  0  0
 17 20  2  0  0  0  0
 18 19  2  0  0  0  0
 19 21  1  0  0  0  0
 19 20  1  0  0  0  0
 21 22  1  0  0  0  0
 23  1  1  0  0  0  0
 24 23  1  0  0  0  0
 24 26  1  0  0  0  0
 25 23  2  0  0  0  0
 27 26  1  0  0  0  0
 28 30  2  0  0  0  0
 29 30  1  0  0  0  0
 29 27  1  0  0  0  0
 30 31  1  0  0  0  0
 32 29  1  0  0  0  0
 33 32  1  0  0  0  0
 34 33  1  0  0  0  0
 35 37  2  0  0  0  0
 36 34  1  0  0  0  0
 37 38  1  0  0  0  0
 37 36  1  0  0  0  0
 39 38  1  0  0  0  0
M  END
>  <MODEL>
6

>  <REMARK>
 VINA RESULT:      -7.1      2.514      6.306
  Name = 
  12 active torsions:
  status: ('A' for Active; 'I' for Inactive)
    1  A    between atoms: C_1  and  C_14
    2  A    between atoms: C_2  and  C_21
    3  A    between atoms: N_8  and  C_33
    4  A    between atoms: C_9  and  C_32
    5  A    between atoms: C_13  and  C_25
    6  A    between atoms: C_13  and  C_33
    7  A    between atoms: C_18  and  N_20
    8  A    between atoms: C_18  and  C_23
    9  A    between atoms: C_19  and  C_30
   10  A    between atoms: N_22  and  C_23
   11  A    between atoms: N_22  and  C_25
   12  A    between atoms: C_27  and  C_34
                            x       y       z     vdW  Elec       q    Type
                         _______ _______ _______ _____ _____    ______ ____

>  <TORSDO>
F 12

$$$$
=
 OpenBabel11042421193D

 39 41  0  0  0  0  0  0  0  0999 V2000
  159.4270  212.5730  152.3240 C   0  0  0  0  0  0  0  0  0  0  0  0
  158.0910  213.0530  152.4220 C   0  0  0  0  0  0  0  0  0  0  0  0
  160.1370  212.7260  151.1280 C   0  0  0  0  0  3  0  0  0  0  0  0
  157.5220  213.6440  151.2800 C   0  0  0  0  0  3  0  0  0  0  0  0
  158.2420  213.7850  150.0950 C   0  0  0  0  0  3  0  0  0  0  0  0
  159.5670  213.3430  150.0060 C   0  0  0  0  0  0  0  0  0  0  0  0
  156.7120  211.7640  154.1260 C   0  0  0  0  0  3  0  0  0  0  0  0
  155.7290  212.8770  156.0390 C   0  0  0  0  0  0  0  0  0  0  0  0
  155.9600  211.7070  155.3020 C   0  0  0  0  0  0  0  0  0  0  0  0
  157.0110  214.1370  154.4200 C   0  0  0  0  0  3  0  0  0  0  0  0
  156.2580  214.0900  155.5970 C   0  0  0  0  0  3  0  0  0  0  0  0
  157.2490  212.9740  153.6600 C   0  0  0  0  0  0  0  0  0  0  0  0
  154.9770  212.8400  157.2090 O   0  0  0  0  0  1  0  0  0  0  0  0
  155.4120  210.3960  155.7510 C   0  0  0  0  0  1  0  0  0  0  0  0
  162.4660  214.1690  147.7220 C   0  0  0  0  0  3  0  0  0  0  0  0
  161.6780  213.9680  148.8550 C   0  0  0  0  0  3  0  0  0  0  0  0
  161.9570  213.8870  146.4580 C   0  0  0  0  0  3  0  0  0  0  0  0
  160.3630  213.4780  148.7510 C   0  0  0  0  0  0  0  0  0  0  0  0
  159.8520  213.1930  147.4520 C   0  0  0  0  0  0  0  0  0  0  0  0
  160.6570  213.4030  146.3250 C   0  0  0  0  0  3  0  0  0  0  0  0
  158.4670  212.6910  147.2120 C   0  0  0  0  0  2  0  0  0  0  0  0
  158.2280  212.5800  145.7810 N   0  0  0  0  0  1  0  0  0  0  0  0
  160.1300  211.8790  153.4110 C   0  0  0  0  0  0  0  0  0  0  0  0
  160.6650  210.5670  153.2310 N   0  0  0  0  0  2  0  0  0  0  0  0
  160.2280  212.4370  154.5350 O   0  0  0  0  0  0  0  0  0  0  0  0
  160.7190  209.9110  151.9320 C   0  0  0  0  0  2  0  0  0  0  0  0
  162.1600  209.5810  151.5730 C   0  0  0  0  0  2  0  0  0  0  0  0
  161.8640  207.9770  148.3030 O   0  0  0  0  0  0  0  0  0  0  0  0
  162.2280  208.5530  150.5410 N   0  0  0  0  0  0  0  0  0  0  0  0
  162.0150  208.8850  149.1610 C   0  0  0  0  0  0  0  0  0  0  0  0
  161.9680  210.2140  148.7560 O   0  0  0  0  0  1  0  0  0  0  0  0
  162.3350  207.1600  150.9590 C   0  0  0  0  0  2  0  0  0  0  0  0
  160.9750  206.4890  150.8880 C   0  0  0  0  0  2  0  0  0  0  0  0
  161.1640  205.0140  150.5960 C   0  0  0  0  0  2  0  0  0  0  0  0
  161.4020  203.4490  147.2490 N   0  0  0  0  0  2  0  0  0  0  0  0
  161.3880  204.8090  149.1710 N   0  0  0  0  0  2  0  0  0  0  0  0
  161.2100  203.5430  148.5240 C   0  0  0  0  0  0  0  0  0  0  0  0
  160.6860  202.3600  149.2710 C   0  0  0  0  0  2  0  0  0  0  0  0
  161.6570  201.3590  149.3020 O   0  0  0  0  0  1  0  0  0  0  0  0
  1  2  1  0  0  0  0
  1 23  1  0  0  0  0
  2 12  1  0  0  0  0
  3  1  2  0  0  0  0
  4  2  2  0  0  0  0
  5  4  1  0  0  0  0
  6  5  2  0  0  0  0
  6  3  1  0  0  0  0
  7  9  1  0  0  0  0
  8 13  1  0  0  0  0
  9 14  1  0  0  0  0
  9  8  2  0  0  0  0
 10 11  2  0  0  0  0
 11  8  1  0  0  0  0
 12  7  2  0  0  0  0
 12 10  1  0  0  0  0
 15 16  1  0  0  0  0
 17 15  2  0  0  0  0
 18 16  2  0  0  0  0
 18  6  1  0  0  0  0
 19 18  1  0  0  0  0
 20 17  1  0  0  0  0
 20 19  2  0  0  0  0
 21 19  1  0  0  0  0
 22 21  1  0  0  0  0
 23 25  2  0  0  0  0
 24 23  1  0  0  0  0
 26 24  1  0  0  0  0
 27 26  1  0  0  0  0
 28 30  2  0  0  0  0
 29 32  1  0  0  0  0
 29 27  1  0  0  0  0
 30 29  1  0  0  0  0
 31 30  1  0  0  0  0
 33 32  1  0  0  0  0
 34 33  1  0  0  0  0
 35 37  2  0  0  0  0
 36 34  1  0  0  0  0
 37 36  1  0  0  0  0
 37 38  1  0  0  0  0
 38 39  1  0  0  0  0
M  END
>  <MODEL>
7

>  <REMARK>
 VINA RESULT:      -6.8      2.985      7.523
  Name = 
  12 active torsions:
  status: ('A' for Active; 'I' for Inactive)
    1  A    between atoms: C_1  and  C_14
    2  A    between atoms: C_2  and  C_21
    3  A    between atoms: N_8  and  C_33
    4  A    between atoms: C_9  and  C_32
    5  A    between atoms: C_13  and  C_25
    6  A    between atoms: C_13  and  C_33
    7  A    between atoms: C_18  and  N_20
    8  A    between atoms: C_18  and  C_23
    9  A    between atoms: C_19  and  C_30
   10  A    between atoms: N_22  and  C_23
   11  A    between atoms: N_22  and  C_25
   12  A    between atoms: C_27  and  C_34
                            x       y       z     vdW  Elec       q    Type
                         _______ _______ _______ _____ _____    ______ ____

>  <TORSDO>
F 12

$$$$
=
 OpenBabel11042421193D

 39 41  0  0  0  0  0  0  0  0999 V2000
  161.8380  207.4380  151.7190 C   0  0  0  0  0  0  0  0  0  0  0  0
  161.1440  206.2070  151.8830 C   0  0  0  0  0  0  0  0  0  0  0  0
  161.8460  208.3780  152.7550 C   0  0  0  0  0  3  0  0  0  0  0  0
  160.4560  206.0000  153.0930 C   0  0  0  0  0  3  0  0  0  0  0  0
  160.4700  206.9490  154.1130 C   0  0  0  0  0  3  0  0  0  0  0  0
  161.1800  208.1470  153.9660 C   0  0  0  0  0  0  0  0  0  0  0  0
  161.1840  203.7580  151.2020 C   0  0  0  0  0  3  0  0  0  0  0  0
  160.9270  203.0990  148.8860 C   0  0  0  0  0  0  0  0  0  0  0  0
  161.1010  202.7540  150.2330 C   0  0  0  0  0  0  0  0  0  0  0  0
  160.9140  205.4400  149.4980 C   0  0  0  0  0  3  0  0  0  0  0  0
  160.8310  204.4420  148.5220 C   0  0  0  0  0  3  0  0  0  0  0  0
  161.0960  205.1150  150.8570 C   0  0  0  0  0  0  0  0  0  0  0  0
  160.8480  202.1140  147.9070 O   0  0  0  0  0  1  0  0  0  0  0  0
  161.2010  201.3290  150.6550 C   0  0  0  0  0  1  0  0  0  0  0  0
  162.0070  209.8100  157.2610 C   0  0  0  0  0  3  0  0  0  0  0  0
  161.9680  208.9120  156.1940 C   0  0  0  0  0  3  0  0  0  0  0  0
  161.2860  210.9980  157.1990 C   0  0  0  0  0  3  0  0  0  0  0  0
  161.2120  209.1830  155.0390 C   0  0  0  0  0  0  0  0  0  0  0  0
  160.4770  210.4030  154.9880 C   0  0  0  0  0  0  0  0  0  0  0  0
  160.5250  211.2910  156.0690 C   0  0  0  0  0  3  0  0  0  0  0  0
  159.6210  210.7910  153.8280 C   0  0  0  0  0  2  0  0  0  0  0  0
  158.9160  212.0270  154.1320 N   0  0  0  0  0  1  0  0  0  0  0  0
  162.5470  207.8220  150.4910 C   0  0  0  0  0  0  0  0  0  0  0  0
  162.2110  209.0140  149.7800 N   0  0  0  0  0  2  0  0  0  0  0  0
  163.4430  207.0620  150.0360 O   0  0  0  0  0  0  0  0  0  0  0  0
  161.2920  210.0120  150.3090 C   0  0  0  0  0  2  0  0  0  0  0  0
  161.9420  211.3860  150.2810 C   0  0  0  0  0  2  0  0  0  0  0  0
  159.6360  213.7930  148.7820 O   0  0  0  0  0  0  0  0  0  0  0  0
  161.3200  212.2480  149.2820 N   0  0  0  0  0  0  0  0  0  0  0  0
  160.3190  213.2050  149.6600 C   0  0  0  0  0  0  0  0  0  0  0  0
  160.0880  213.4880  151.0020 O   0  0  0  0  0  1  0  0  0  0  0  0
  161.6040  211.9910  147.8750 C   0  0  0  0  0  2  0  0  0  0  0  0
  162.7750  212.8430  147.4170 C   0  0  0  0  0  2  0  0  0  0  0  0
  162.3250  213.7330  146.2760 C   0  0  0  0  0  2  0  0  0  0  0  0
  160.2110  212.2140  143.6430 N   0  0  0  0  0  2  0  0  0  0  0  0
  161.2020  213.1220  145.5760 N   0  0  0  0  0  2  0  0  0  0  0  0
  161.2400  212.7800  144.1850 C   0  0  0  0  0  0  0  0  0  0  0  0
  162.4860  212.9500  143.3790 C   0  0  0  0  0  2  0  0  0  0  0  0
  162.3760  214.0880  142.5800 O   0  0  0  0  0  1  0  0  0  0  0  0
  1  2  2  0  0  0  0
  1  3  1  0  0  0  0
  2  4  1  0  0  0  0
  3  6  2  0  0  0  0
  4  5  2  0  0  0  0
  6  5  1  0  0  0  0
  6 18  1  0  0  0  0
  8  9  1  0  0  0  0
  9 14  1  0  0  0  0
  9  7  2  0  0  0  0
 10 12  2  0  0  0  0
 11  8  2  0  0  0  0
 11 10  1  0  0  0  0
 12  7  1  0  0  0  0
 12  2  1  0  0  0  0
 13  8  1  0  0  0  0
 16 15  2  0  0  0  0
 17 15  1  0  0  0  0
 18 16  1  0  0  0  0
 19 18  2  0  0  0  0
 19 20  1  0  0  0  0
 20 17  2  0  0  0  0
 21 22  1  0  0  0  0
 21 19  1  0  0  0  0
 23  1  1  0  0  0  0
 24 26  1  0  0  0  0
 24 23  1  0  0  0  0
 25 23  2  0  0  0  0
 27 26  1  0  0  0  0
 28 30  2  0  0  0  0
 29 30  1  0  0  0  0
 29 27  1  0  0  0  0
 30 31  1  0  0  0  0
 32 29  1  0  0  0  0
 33 32  1  0  0  0  0
 34 33  1  0  0  0  0
 35 37  2  0  0  0  0
 36 34  1  0  0  0  0
 37 36  1  0  0  0  0
 38 37  1  0  0  0  0
 39 38  1  0  0  0  0
M  END
>  <MODEL>
8

>  <REMARK>
 VINA RESULT:      -6.6      2.401      6.582
  Name = 
  12 active torsions:
  status: ('A' for Active; 'I' for Inactive)
    1  A    between atoms: C_1  and  C_14
    2  A    between atoms: C_2  and  C_21
    3  A    between atoms: N_8  and  C_33
    4  A    between atoms: C_9  and  C_32
    5  A    between atoms: C_13  and  C_25
    6  A    between atoms: C_13  and  C_33
    7  A    between atoms: C_18  and  N_20
    8  A    between atoms: C_18  and  C_23
    9  A    between atoms: C_19  and  C_30
   10  A    between atoms: N_22  and  C_23
   11  A    between atoms: N_22  and  C_25
   12  A    between atoms: C_27  and  C_34
                            x       y       z     vdW  Elec       q    Type
                         _______ _______ _______ _____ _____    ______ ____

>  <TORSDO>
F 12

$$$$
=
 OpenBabel11042421193D

 39 41  0  0  0  0  0  0  0  0999 V2000
  161.9840  209.0030  150.8490 C   0  0  0  0  0  0  0  0  0  0  0  0
  161.9150  209.3110  149.4620 C   0  0  0  0  0  0  0  0  0  0  0  0
  161.7450  207.6960  151.2870 C   0  0  0  0  0  3  0  0  0  0  0  0
  161.5710  208.2720  148.5770 C   0  0  0  0  0  3  0  0  0  0  0  0
  161.3310  206.9760  149.0310 C   0  0  0  0  0  3  0  0  0  0  0  0
  161.4310  206.6640  150.3920 C   0  0  0  0  0  0  0  0  0  0  0  0
  161.4470  211.8000  149.2430 C   0  0  0  0  0  3  0  0  0  0  0  0
  162.7880  213.2030  147.7940 C   0  0  0  0  0  0  0  0  0  0  0  0
  161.7390  213.0600  148.7130 C   0  0  0  0  0  0  0  0  0  0  0  0
  163.2400  210.8310  147.9580 C   0  0  0  0  0  3  0  0  0  0  0  0
  163.5390  212.0870  147.4210 C   0  0  0  0  0  3  0  0  0  0  0  0
  162.1850  210.6640  148.8770 C   0  0  0  0  0  0  0  0  0  0  0  0
  163.0900  214.4470  147.2510 O   0  0  0  0  0  1  0  0  0  0  0  0
  160.9230  214.2320  149.1350 C   0  0  0  0  0  1  0  0  0  0  0  0
  160.9850  203.8340  152.8600 C   0  0  0  0  0  3  0  0  0  0  0  0
  161.1650  205.0990  152.3020 C   0  0  0  0  0  3  0  0  0  0  0  0
  160.8170  202.7260  152.0350 C   0  0  0  0  0  3  0  0  0  0  0  0
  161.1780  205.2870  150.9080 C   0  0  0  0  0  0  0  0  0  0  0  0
  161.0050  204.1460  150.0740 C   0  0  0  0  0  0  0  0  0  0  0  0
  160.8280  202.8820  150.6500 C   0  0  0  0  0  3  0  0  0  0  0  0
  161.0220  204.2140  148.5830 C   0  0  0  0  0  2  0  0  0  0  0  0
  161.2720  202.8900  148.0350 N   0  0  0  0  0  1  0  0  0  0  0  0
  162.2700  209.9950  151.8950 C   0  0  0  0  0  0  0  0  0  0  0  0
  161.2190  210.6870  152.5700 N   0  0  0  0  0  2  0  0  0  0  0  0
  163.4670  210.2680  152.1730 O   0  0  0  0  0  0  0  0  0  0  0  0
  159.8150  210.3320  152.4110 C   0  0  0  0  0  2  0  0  0  0  0  0
  158.9830  211.5840  152.1840 C   0  0  0  0  0  2  0  0  0  0  0  0
  156.8140  213.4520  154.4570 O   0  0  0  0  0  1  0  0  0  0  0  0
  158.1550  211.8890  153.3460 N   0  0  0  0  0  0  0  0  0  0  0  0
  157.3560  213.0820  153.3830 C   0  0  0  0  0  0  0  0  0  0  0  0
  157.1790  213.8460  152.2360 O   0  0  0  0  0  0  0  0  0  0  0  0
  158.2960  211.0560  154.5330 C   0  0  0  0  0  2  0  0  0  0  0  0
  159.2960  211.6790  155.4910 C   0  0  0  0  0  2  0  0  0  0  0  0
  159.2750  210.9130  156.7980 C   0  0  0  0  0  2  0  0  0  0  0  0
  162.3550  208.8650  156.9790 N   0  0  0  0  0  2  0  0  0  0  0  0
  160.6160  210.4450  157.1270 N   0  0  0  0  0  2  0  0  0  0  0  0
  161.1450  209.1960  156.6660 C   0  0  0  0  0  0  0  0  0  0  0  0
  160.3710  208.3260  155.7310 C   0  0  0  0  0  2  0  0  0  0  0  0
  159.7950  207.2710  156.4390 O   0  0  0  0  0  1  0  0  0  0  0  0
  1  3  1  0  0  0  0
  1 23  1  0  0  0  0
  2  1  2  0  0  0  0
  4  5  2  0  0  0  0
  4  2  1  0  0  0  0
  5  6  1  0  0  0  0
  6 18  1  0  0  0  0
  6  3  2  0  0  0  0
  8  9  1  0  0  0  0
  9 14  1  0  0  0  0
  9  7  2  0  0  0  0
 10 12  2  0  0  0  0
 11  8  2  0  0  0  0
 11 10  1  0  0  0  0
 12  7  1  0  0  0  0
 12  2  1  0  0  0  0
 13  8  1  0  0  0  0
 16 15  1  0  0  0  0
 17 15  2  0  0  0  0
 18 16  2  0  0  0  0
 19 20  2  0  0  0  0
 19 18  1  0  0  0  0
 20 17  1  0  0  0  0
 21 19  1  0  0  0  0
 22 21  1  0  0  0  0
 23 25  2  0  0  0  0
 23 24  1  0  0  0  0
 26 24  1  0  0  0  0
 27 26  1  0  0  0  0
 27 29  1  0  0  0  0
 29 30  1  0  0  0  0
 29 32  1  0  0  0  0
 30 28  1  0  0  0  0
 31 30  2  0  0  0  0
 32 33  1  0  0  0  0
 33 34  1  0  0  0  0
 34 36  1  0  0  0  0
 37 35  2  0  0  0  0
 37 36  1  0  0  0  0
 38 39  1  0  0  0  0
 38 37  1  0  0  0  0
M  END
>  <MODEL>
9

>  <REMARK>
 VINA RESULT:      -6.6      3.624      7.616
  Name = 
  12 active torsions:
  status: ('A' for Active; 'I' for Inactive)
    1  A    between atoms: C_1  and  C_14
    2  A    between atoms: C_2  and  C_21
    3  A    between atoms: N_8  and  C_33
    4  A    between atoms: C_9  and  C_32
    5  A    between atoms: C_13  and  C_25
    6  A    between atoms: C_13  and  C_33
    7  A    between atoms: C_18  and  N_20
    8  A    between atoms: C_18  and  C_23
    9  A    between atoms: C_19  and  C_30
   10  A    between atoms: N_22  and  C_23
   11  A    between atoms: N_22  and  C_25
   12  A    between atoms: C_27  and  C_34
                            x       y       z     vdW  Elec       q    Type
                         _______ _______ _______ _____ _____    ______ ____

>  <TORSDO>
F 12

$$$$
