=
 OpenBabel11052411273D

 43 48  0  0  1  0  0  0  0  0999 V2000
  160.3260  211.9150  152.9020 N   0  0  0  0  0  2  0  0  0  0  0  0
  160.7210  209.2560  153.6050 C   0  0  0  0  0  0  0  0  0  0  0  0
  160.2640  210.2200  154.6240 C   0  0  0  0  0  0  0  0  0  0  0  0
  161.4790  207.5400  152.4330 C   0  0  0  0  0  0  0  0  0  0  0  0
  161.0180  207.0720  154.9210 C   0  0  0  0  0  1  0  0  0  0  0  0
  160.9420  209.6300  152.3070 C   0  0  0  0  0  0  0  0  0  0  0  0
  161.3920  208.5860  151.5590 N   0  0  0  0  0  0  0  0  0  0  0  0
  161.0640  207.9260  153.7000 C   0  0  0  0  0  0  0  0  0  0  0  0
  160.7700  211.0080  151.9160 N   0  0  0  0  0  0  0  0  0  0  0  0
  160.0870  211.4960  154.2590 C   0  0  0  0  0  3  0  0  0  0  0  0
  160.9650  211.5030  150.5920 C   0  0  0  0  0  0  0  0  0  0  0  0
  160.2950  212.9640  148.7810 C   0  0  0  0  0  3  0  0  0  0  0  0
  161.4290  212.5940  148.0450 C   0  0  0  0  0  0  0  0  0  0  0  0
  162.3340  211.6730  148.6010 C   0  0  0  0  0  3  0  0  0  0  0  0
  162.1060  211.1340  149.8690 C   0  0  0  0  0  3  0  0  0  0  0  0
  160.0680  212.4330  150.0520 C   0  0  0  0  0  0  0  0  0  0  0  0
  158.9630  212.8030  150.7440 F   0  0  0  0  0  0  0  0  0  0  0  0
  161.6640  213.1510  146.7450 N   0  0  0  0  0  0  0  0  0  0  0  0
  162.6380  214.2110  144.9500 C   0  0  2  0  0  3  0  0  0  0  0  0
  160.6370  213.6880  145.8810 C   0  0  0  0  0  2  0  0  0  0  0  0
  162.9560  213.3880  146.1760 C   0  0  0  0  0  2  0  0  0  0  0  0
  161.2490  214.1370  144.6940 O   0  0  0  0  0  0  0  0  0  0  0  0
  162.9570  214.4320  142.5100 C   0  0  0  0  0  2  0  0  0  0  0  0
  162.4530  213.0340  142.7870 C   0  0  0  0  0  2  0  0  0  0  0  0
  163.4120  213.6970  143.7530 C   0  0  0  0  0  3  0  0  0  0  0  0
  162.0220  206.2030  152.1320 C   0  0  0  0  0  0  0  0  0  0  0  0
  163.2690  206.0160  152.0990 O   0  0  0  0  0  0  0  0  0  0  0  0
  161.1290  205.1340  151.7930 N   0  0  0  0  0  2  0  0  0  0  0  0
  161.6080  203.8490  151.5030 N   0  0  0  0  0  2  0  0  0  0  0  0
  160.5230  203.1080  151.0130 N   0  0  0  0  0  2  0  0  0  0  0  0
  159.4400  202.0470  149.2590 O   0  0  0  0  0  0  0  0  0  0  0  0
  160.4490  202.6880  149.6500 C   0  0  0  0  0  0  0  0  0  0  0  0
  161.5460  202.9820  148.6760 C   0  0  2  0  0  3  0  0  0  0  0  0
  161.9560  204.2940  148.8030 F   0  0  0  0  0  0  0  0  0  0  0  0
  161.0990  202.7190  147.2440 C   0  0  0  0  0  2  0  0  0  0  0  0
  160.9600  205.0170  146.6180 O   0  0  0  0  0  1  0  0  0  0  0  0
  161.5890  203.8090  146.3060 C   0  0  0  0  0  3  0  0  0  0  0  0
  161.2840  203.4560  144.9950 O   0  0  0  0  0  1  0  0  0  0  0  0
  162.4760  207.3350  149.6920 C   0  0  0  0  0  2  0  0  0  0  0  0
  161.9360  208.6670  150.1950 C   0  0  0  0  0  3  0  0  0  0  0  0
  161.1090  207.7890  149.2640 C   0  0  0  0  0  2  0  0  0  0  0  0
  161.2510  209.9450  156.7580 O   0  0  0  0  0  1  0  0  0  0  0  0
  160.0530  209.8230  156.0470 C   0  0  0  0  0  2  0  0  0  0  0  0
  1 10  1  0  0  0  0
  2  8  1  0  0  0  0
  2  3  1  0  0  0  0
  3 43  1  0  0  0  0
  4  8  2  0  0  0  0
  6  2  2  0  0  0  0
  7  6  1  0  0  0  0
  7  4  1  0  0  0  0
  8  5  1  0  0  0  0
  9  6  1  0  0  0  0
  9  1  1  0  0  0  0
 10  3  2  0  0  0  0
 11  9  1  0  0  0  0
 12 16  2  0  0  0  0
 13 14  2  0  0  0  0
 13 12  1  0  0  0  0
 14 15  1  0  0  0  0
 15 11  2  0  0  0  0
 16 11  1  0  0  0  0
 16 17  1  0  0  0  0
 18 13  1  0  0  0  0
 19 25  1  6  0  0  0
 19 21  1  0  0  0  0
 20 18  1  0  0  0  0
 21 18  1  0  0  0  0
 22 19  1  0  0  0  0
 22 20  1  0  0  0  0
 23 24  1  0  0  0  0
 23 25  1  0  0  0  0
 24 25  1  0  0  0  0
 26  4  1  0  0  0  0
 27 26  2  0  0  0  0
 28 26  1  0  0  0  0
 29 28  1  0  0  0  0
 30 29  1  0  0  0  0
 31 32  2  0  0  0  0
 32 30  1  0  0  0  0
 33 34  1  6  0  0  0
 33 32  1  0  0  0  0
 35 33  1  0  0  0  0
 37 36  1  0  0  0  0
 37 35  1  0  0  0  0
 38 37  1  0  0  0  0
 39 40  1  0  0  0  0
 40  7  1  0  0  0  0
 41 39  1  0  0  0  0
 41 40  1  0  0  0  0
 43 42  1  0  0  0  0
M  END
>  <MODEL>
1

>  <REMARK>
 VINA RESULT:      -7.1      0.000      0.000
  Name = 
  11 active torsions:
  status: ('A' for Active; 'I' for Inactive)
    1  A    between atoms: C_3  and  C_15
    2  A    between atoms: C_3  and  C_37
    3  A    between atoms: C_5  and  C_22
    4  A    between atoms: N_6  and  N_13
    5  A    between atoms: N_6  and  N_33
    6  A    between atoms: C_8  and  C_12
    7  A    between atoms: N_9  and  C_23
    8  A    between atoms: C_14  and  N_38
    9  A    between atoms: C_15  and  C_24
   10  A    between atoms: C_16  and  C_41
   11  A    between atoms: C_26  and  N_35
                            x       y       z     vdW  Elec       q    Type
                         _______ _______ _______ _____ _____    ______ ____

>  <TORSDO>
F 11

$$$$
=
 OpenBabel11052411273D

 43 48  0  0  1  0  0  0  0  0999 V2000
  158.7370  214.3810  150.3130 N   0  0  0  0  0  2  0  0  0  0  0  0
  159.3270  212.5160  152.2870 C   0  0  0  0  0  0  0  0  0  0  0  0
  158.3230  213.5640  152.5500 C   0  0  0  0  0  0  0  0  0  0  0  0
  160.8090  210.8750  152.3400 C   0  0  0  0  0  0  0  0  0  0  0  0
  159.4930  211.2550  154.5170 C   0  0  0  0  0  1  0  0  0  0  0  0
  159.9720  212.4220  151.0830 C   0  0  0  0  0  0  0  0  0  0  0  0
  160.8770  211.4060  151.0830 N   0  0  0  0  0  0  0  0  0  0  0  0
  159.8560  211.5380  153.1000 C   0  0  0  0  0  0  0  0  0  0  0  0
  159.7050  213.3900  150.0470 N   0  0  0  0  0  0  0  0  0  0  0  0
  158.0610  214.4530  151.5830 C   0  0  0  0  0  3  0  0  0  0  0  0
  160.3140  213.3790  148.7560 C   0  0  0  0  0  0  0  0  0  0  0  0
  160.1520  213.0220  146.3660 C   0  0  0  0  0  3  0  0  0  0  0  0
  161.4580  213.5010  146.1940 C   0  0  0  0  0  0  0  0  0  0  0  0
  162.1860  213.9240  147.3190 C   0  0  0  0  0  3  0  0  0  0  0  0
  161.6150  213.8680  148.5920 C   0  0  0  0  0  3  0  0  0  0  0  0
  159.5770  212.9720  147.6370 C   0  0  0  0  0  0  0  0  0  0  0  0
  158.3130  212.5020  147.7800 F   0  0  0  0  0  0  0  0  0  0  0  0
  162.0410  213.5620  144.8850 N   0  0  0  0  0  0  0  0  0  0  0  0
  162.7080  213.0300  142.7480 C   0  0  2  0  0  3  0  0  0  0  0  0
  163.2330  214.3060  144.5480 C   0  0  0  0  0  2  0  0  0  0  0  0
  161.6150  212.7850  143.7610 C   0  0  0  0  0  2  0  0  0  0  0  0
  163.4920  214.1280  143.1740 O   0  0  0  0  0  0  0  0  0  0  0  0
  162.0930  212.0490  140.5650 C   0  0  0  0  0  2  0  0  0  0  0  0
  163.1610  213.0900  140.3200 C   0  0  0  0  0  2  0  0  0  0  0  0
  162.1110  213.3210  141.3860 C   0  0  0  0  0  3  0  0  0  0  0  0
  161.6760  209.8110  152.8790 C   0  0  0  0  0  0  0  0  0  0  0  0
  162.8570  210.0750  153.2350 O   0  0  0  0  0  0  0  0  0  0  0  0
  161.2010  208.4600  152.9160 N   0  0  0  0  0  2  0  0  0  0  0  0
  161.9960  207.4220  153.4240 N   0  0  0  0  0  2  0  0  0  0  0  0
  161.2030  206.2650  153.4310 N   0  0  0  0  0  2  0  0  0  0  0  0
  160.3640  204.3950  152.3470 O   0  0  0  0  0  0  0  0  0  0  0  0
  161.1100  205.4070  152.2930 C   0  0  0  0  0  0  0  0  0  0  0  0
  161.8850  205.6740  151.0410 C   0  0  2  0  0  3  0  0  0  0  0  0
  162.9330  206.5310  151.3050 F   0  0  0  0  0  0  0  0  0  0  0  0
  160.9950  206.2670  149.9560 C   0  0  0  0  0  2  0  0  0  0  0  0
  160.7680  206.5950  147.6050 O   0  0  0  0  0  1  0  0  0  0  0  0
  161.4930  205.8930  148.5710 C   0  0  0  0  0  3  0  0  0  0  0  0
  161.3180  204.5260  148.3760 O   0  0  0  0  0  1  0  0  0  0  0  0
  162.3810  209.7080  150.0430 C   0  0  0  0  0  2  0  0  0  0  0  0
  161.8940  211.1510  150.0510 C   0  0  0  0  0  3  0  0  0  0  0  0
  161.3520  210.1490  149.0390 C   0  0  0  0  0  2  0  0  0  0  0  0
  156.2910  213.3540  153.7450 O   0  0  0  0  0  1  0  0  0  0  0  0
  157.6420  213.6900  153.8720 C   0  0  0  0  0  2  0  0  0  0  0  0
  1 10  1  0  0  0  0
  2  3  1  0  0  0  0
  2  8  1  0  0  0  0
  3 43  1  0  0  0  0
  4 26  1  0  0  0  0
  4  8  2  0  0  0  0
  6  2  2  0  0  0  0
  7  6  1  0  0  0  0
  7  4  1  0  0  0  0
  8  5  1  0  0  0  0
  9  1  1  0  0  0  0
  9  6  1  0  0  0  0
 10  3  2  0  0  0  0
 11  9  1  0  0  0  0
 12 16  1  0  0  0  0
 13 12  2  0  0  0  0
 13 14  1  0  0  0  0
 14 15  2  0  0  0  0
 15 11  1  0  0  0  0
 16 17  1  0  0  0  0
 16 11  2  0  0  0  0
 18 13  1  0  0  0  0
 19 25  1  6  0  0  0
 19 22  1  0  0  0  0
 19 21  1  0  0  0  0
 20 18  1  0  0  0  0
 21 18  1  0  0  0  0
 22 20  1  0  0  0  0
 23 25  1  0  0  0  0
 24 23  1  0  0  0  0
 24 25  1  0  0  0  0
 26 28  1  0  0  0  0
 26 27  2  0  0  0  0
 28 29  1  0  0  0  0
 29 30  1  0  0  0  0
 32 31  2  0  0  0  0
 32 30  1  0  0  0  0
 33 34  1  1  0  0  0
 33 32  1  0  0  0  0
 35 33  1  0  0  0  0
 36 37  1  0  0  0  0
 37 35  1  0  0  0  0
 38 37  1  0  0  0  0
 39 40  1  0  0  0  0
 40  7  1  0  0  0  0
 41 39  1  0  0  0  0
 41 40  1  0  0  0  0
 42 43  1  0  0  0  0
M  END
>  <MODEL>
2

>  <REMARK>
 VINA RESULT:      -7.1      2.311      3.473
  Name = 
  11 active torsions:
  status: ('A' for Active; 'I' for Inactive)
    1  A    between atoms: C_3  and  C_15
    2  A    between atoms: C_3  and  C_37
    3  A    between atoms: C_5  and  C_22
    4  A    between atoms: N_6  and  N_13
    5  A    between atoms: N_6  and  N_33
    6  A    between atoms: C_8  and  C_12
    7  A    between atoms: N_9  and  C_23
    8  A    between atoms: C_14  and  N_38
    9  A    between atoms: C_15  and  C_24
   10  A    between atoms: C_16  and  C_41
   11  A    between atoms: C_26  and  N_35
                            x       y       z     vdW  Elec       q    Type
                         _______ _______ _______ _____ _____    ______ ____

>  <TORSDO>
F 11

$$$$
=
 OpenBabel11052411273D

 43 48  0  0  1  0  0  0  0  0999 V2000
  160.2540  212.9130  151.0710 N   0  0  0  0  0  2  0  0  0  0  0  0
  160.7100  210.4040  152.1770 C   0  0  0  0  0  0  0  0  0  0  0  0
  160.1220  211.4720  153.0080 C   0  0  0  0  0  0  0  0  0  0  0  0
  161.6470  208.5890  151.3280 C   0  0  0  0  0  0  0  0  0  0  0  0
  160.9940  208.4450  153.8120 C   0  0  0  0  0  1  0  0  0  0  0  0
  161.0260  210.6070  150.8610 C   0  0  0  0  0  0  0  0  0  0  0  0
  161.5870  209.4970  150.3080 N   0  0  0  0  0  0  0  0  0  0  0  0
  161.1050  209.1230  152.4890 C   0  0  0  0  0  0  0  0  0  0  0  0
  160.8230  211.9050  150.2630 N   0  0  0  0  0  0  0  0  0  0  0  0
  159.9170  212.6730  152.4500 C   0  0  0  0  0  3  0  0  0  0  0  0
  161.1100  212.2210  148.9020 C   0  0  0  0  0  0  0  0  0  0  0  0
  162.7180  212.5680  147.1250 C   0  0  0  0  0  3  0  0  0  0  0  0
  161.6790  212.6940  146.1920 C   0  0  0  0  0  0  0  0  0  0  0  0
  160.3490  212.5760  146.6300 C   0  0  0  0  0  3  0  0  0  0  0  0
  160.0660  212.3360  147.9770 C   0  0  0  0  0  3  0  0  0  0  0  0
  162.4380  212.3210  148.4700 C   0  0  0  0  0  0  0  0  0  0  0  0
  163.4590  212.2060  149.3550 F   0  0  0  0  0  0  0  0  0  0  0  0
  161.9720  212.9360  144.8090 N   0  0  0  0  0  0  0  0  0  0  0  0
  161.9720  212.8320  142.5110 C   0  0  2  0  0  3  0  0  0  0  0  0
  163.2540  213.3710  144.3020 C   0  0  0  0  0  2  0  0  0  0  0  0
  161.0880  212.6460  143.7210 C   0  0  0  0  0  2  0  0  0  0  0  0
  163.1530  213.5030  142.9030 O   0  0  0  0  0  0  0  0  0  0  0  0
  161.1130  212.8010  140.1940 C   0  0  0  0  0  2  0  0  0  0  0  0
  162.1810  213.8670  140.2780 C   0  0  0  0  0  2  0  0  0  0  0  0
  161.2500  213.6370  141.4490 C   0  0  0  0  0  3  0  0  0  0  0  0
  162.2750  207.2570  151.2650 C   0  0  0  0  0  0  0  0  0  0  0  0
  163.5080  207.1480  151.0250 O   0  0  0  0  0  0  0  0  0  0  0  0
  161.4640  206.0830  151.3940 N   0  0  0  0  0  2  0  0  0  0  0  0
  162.0260  204.8000  151.3430 N   0  0  0  0  0  2  0  0  0  0  0  0
  160.9890  203.9100  151.0290 N   0  0  0  0  0  2  0  0  0  0  0  0
  159.6950  202.8050  149.4530 O   0  0  0  0  0  0  0  0  0  0  0  0
  160.6520  203.5910  149.6780 C   0  0  0  0  0  0  0  0  0  0  0  0
  161.4130  204.1590  148.5210 C   0  0  2  0  0  3  0  0  0  0  0  0
  160.8140  205.3230  148.0850 F   0  0  0  0  0  0  0  0  0  0  0  0
  161.4990  203.1620  147.3730 C   0  0  0  0  0  2  0  0  0  0  0  0
  160.8190  203.0150  145.0910 O   0  0  0  0  0  1  0  0  0  0  0  0
  161.4120  203.8640  146.0290 C   0  0  0  0  0  3  0  0  0  0  0  0
  162.6950  204.1970  145.6030 O   0  0  0  0  0  1  0  0  0  0  0  0
  162.5630  207.9910  148.5740 C   0  0  0  0  0  2  0  0  0  0  0  0
  162.2420  209.4200  148.9940 C   0  0  0  0  0  3  0  0  0  0  0  0
  161.3420  208.6710  148.0190 C   0  0  0  0  0  2  0  0  0  0  0  0
  160.8660  211.7240  155.2400 O   0  0  0  0  0  1  0  0  0  0  0  0
  159.8070  211.2650  154.4520 C   0  0  0  0  0  2  0  0  0  0  0  0
  1 10  1  0  0  0  0
  2  8  1  0  0  0  0
  2  3  1  0  0  0  0
  3 43  1  0  0  0  0
  4  8  2  0  0  0  0
  6  2  2  0  0  0  0
  7  6  1  0  0  0  0
  7  4  1  0  0  0  0
  8  5  1  0  0  0  0
  9  6  1  0  0  0  0
  9  1  1  0  0  0  0
 10  3  2  0  0  0  0
 11  9  1  0  0  0  0
 12 16  2  0  0  0  0
 13 14  2  0  0  0  0
 13 12  1  0  0  0  0
 14 15  1  0  0  0  0
 15 11  2  0  0  0  0
 16 11  1  0  0  0  0
 16 17  1  0  0  0  0
 18 13  1  0  0  0  0
 19 25  1  6  0  0  0
 19 22  1  0  0  0  0
 19 21  1  0  0  0  0
 20 18  1  0  0  0  0
 21 18  1  0  0  0  0
 22 20  1  0  0  0  0
 23 24  1  0  0  0  0
 23 25  1  0  0  0  0
 24 25  1  0  0  0  0
 26  4  1  0  0  0  0
 26 28  1  0  0  0  0
 27 26  2  0  0  0  0
 29 28  1  0  0  0  0
 30 29  1  0  0  0  0
 31 32  2  0  0  0  0
 32 30  1  0  0  0  0
 33 34  1  6  0  0  0
 33 32  1  0  0  0  0
 35 33  1  0  0  0  0
 36 37  1  0  0  0  0
 37 35  1  0  0  0  0
 38 37  1  0  0  0  0
 39 40  1  0  0  0  0
 40  7  1  0  0  0  0
 41 39  1  0  0  0  0
 41 40  1  0  0  0  0
 43 42  1  0  0  0  0
M  END
>  <MODEL>
3

>  <REMARK>
 VINA RESULT:      -7.1      1.618      2.184
  Name = 
  11 active torsions:
  status: ('A' for Active; 'I' for Inactive)
    1  A    between atoms: C_3  and  C_15
    2  A    between atoms: C_3  and  C_37
    3  A    between atoms: C_5  and  C_22
    4  A    between atoms: N_6  and  N_13
    5  A    between atoms: N_6  and  N_33
    6  A    between atoms: C_8  and  C_12
    7  A    between atoms: N_9  and  C_23
    8  A    between atoms: C_14  and  N_38
    9  A    between atoms: C_15  and  C_24
   10  A    between atoms: C_16  and  C_41
   11  A    between atoms: C_26  and  N_35
                            x       y       z     vdW  Elec       q    Type
                         _______ _______ _______ _____ _____    ______ ____

>  <TORSDO>
F 11

$$$$
=
 OpenBabel11052411273D

 43 48  0  0  1  0  0  0  0  0999 V2000
  160.9560  206.2930  154.3410 N   0  0  0  0  0  2  0  0  0  0  0  0
  161.1960  208.9890  153.7100 C   0  0  0  0  0  0  0  0  0  0  0  0
  161.0750  208.5780  155.1220 C   0  0  0  0  0  0  0  0  0  0  0  0
  161.2990  210.0210  151.7560 C   0  0  0  0  0  0  0  0  0  0  0  0
  161.2310  211.5530  153.8210 C   0  0  0  0  0  1  0  0  0  0  0  0
  161.2110  208.0740  152.6920 C   0  0  0  0  0  0  0  0  0  0  0  0
  161.2930  208.6830  151.4780 N   0  0  0  0  0  0  0  0  0  0  0  0
  161.2470  210.2350  153.1270 C   0  0  0  0  0  0  0  0  0  0  0  0
  161.0640  206.6680  152.9850 N   0  0  0  0  0  0  0  0  0  0  0  0
  160.9560  207.2730  155.3970 C   0  0  0  0  0  3  0  0  0  0  0  0
  161.0740  205.6330  152.0040 C   0  0  0  0  0  0  0  0  0  0  0  0
  162.2590  203.8960  150.8010 C   0  0  0  0  0  3  0  0  0  0  0  0
  161.0670  203.4940  150.1830 C   0  0  0  0  0  0  0  0  0  0  0  0
  159.8750  204.1710  150.4900 C   0  0  0  0  0  3  0  0  0  0  0  0
  159.8770  205.2320  151.3980 C   0  0  0  0  0  3  0  0  0  0  0  0
  162.2630  204.9510  151.7160 C   0  0  0  0  0  0  0  0  0  0  0  0
  163.4280  205.3260  152.2990 F   0  0  0  0  0  0  0  0  0  0  0  0
  161.0660  202.4010  149.2540 N   0  0  0  0  0  0  0  0  0  0  0  0
  160.5750  201.0300  147.4730 C   0  0  2  0  0  3  0  0  0  0  0  0
  161.3850  201.0330  149.5910 C   0  0  0  0  0  2  0  0  0  0  0  0
  160.6120  202.4790  147.8990 C   0  0  0  0  0  2  0  0  0  0  0  0
  161.2800  200.2540  148.4210 O   0  0  0  0  0  0  0  0  0  0  0  0
  160.1880  200.2540  145.1590 C   0  0  0  0  0  2  0  0  0  0  0  0
  161.2740  199.3930  145.7610 C   0  0  0  0  0  2  0  0  0  0  0  0
  161.2010  200.8660  146.1030 C   0  0  0  0  0  3  0  0  0  0  0  0
  161.2680  211.1110  150.7650 C   0  0  0  0  0  0  0  0  0  0  0  0
  160.3860  212.0090  150.8360 O   0  0  0  0  0  0  0  0  0  0  0  0
  162.1930  211.1010  149.6700 N   0  0  0  0  0  2  0  0  0  0  0  0
  162.1960  212.1220  148.7090 N   0  0  0  0  0  2  0  0  0  0  0  0
  161.0280  211.9720  147.9480 N   0  0  0  0  0  2  0  0  0  0  0  0
  159.8000  212.4340  146.0360 O   0  0  0  0  0  0  0  0  0  0  0  0
  160.8800  212.5810  146.6640 C   0  0  0  0  0  0  0  0  0  0  0  0
  161.9800  213.3840  146.0430 C   0  0  2  0  0  3  0  0  0  0  0  0
  162.3080  214.4490  146.8570 F   0  0  0  0  0  0  0  0  0  0  0  0
  161.5800  213.8940  144.6640 C   0  0  0  0  0  2  0  0  0  0  0  0
  162.1900  212.3180  142.9810 O   0  0  0  0  0  1  0  0  0  0  0  0
  162.6000  213.4940  143.6130 C   0  0  0  0  0  3  0  0  0  0  0  0
  163.8310  213.2810  144.2280 O   0  0  0  0  0  1  0  0  0  0  0  0
  161.9720  208.6610  149.0770 C   0  0  0  0  0  2  0  0  0  0  0  0
  161.1140  208.0360  150.1690 C   0  0  0  0  0  3  0  0  0  0  0  0
  162.4250  207.3890  149.7370 C   0  0  0  0  0  2  0  0  0  0  0  0
  162.3150  209.8050  156.7210 O   0  0  0  0  0  1  0  0  0  0  0  0
  161.0260  209.5740  156.2320 C   0  0  0  0  0  2  0  0  0  0  0  0
  1 10  1  0  0  0  0
  2  3  1  0  0  0  0
  3 10  2  0  0  0  0
  3 43  1  0  0  0  0
  4  8  2  0  0  0  0
  6  9  1  0  0  0  0
  6  2  2  0  0  0  0
  7  4  1  0  0  0  0
  7  6  1  0  0  0  0
  8  2  1  0  0  0  0
  8  5  1  0  0  0  0
  9  1  1  0  0  0  0
 11  9  1  0  0  0  0
 12 16  2  0  0  0  0
 13 14  2  0  0  0  0
 13 12  1  0  0  0  0
 14 15  1  0  0  0  0
 15 11  2  0  0  0  0
 16 11  1  0  0  0  0
 16 17  1  0  0  0  0
 18 20  1  0  0  0  0
 18 13  1  0  0  0  0
 19 25  1  6  0  0  0
 19 21  1  0  0  0  0
 19 22  1  0  0  0  0
 21 18  1  0  0  0  0
 22 20  1  0  0  0  0
 23 24  1  0  0  0  0
 23 25  1  0  0  0  0
 24 25  1  0  0  0  0
 26 27  2  0  0  0  0
 26  4  1  0  0  0  0
 28 26  1  0  0  0  0
 29 28  1  0  0  0  0
 30 29  1  0  0  0  0
 31 32  2  0  0  0  0
 32 30  1  0  0  0  0
 33 32  1  0  0  0  0
 33 34  1  1  0  0  0
 35 33  1  0  0  0  0
 36 37  1  0  0  0  0
 37 38  1  0  0  0  0
 37 35  1  0  0  0  0
 39 41  1  0  0  0  0
 39 40  1  0  0  0  0
 40  7  1  0  0  0  0
 41 40  1  0  0  0  0
 43 42  1  0  0  0  0
M  END
>  <MODEL>
4

>  <REMARK>
 VINA RESULT:      -5.6      2.310      8.518
  Name = 
  11 active torsions:
  status: ('A' for Active; 'I' for Inactive)
    1  A    between atoms: C_3  and  C_15
    2  A    between atoms: C_3  and  C_37
    3  A    between atoms: C_5  and  C_22
    4  A    between atoms: N_6  and  N_13
    5  A    between atoms: N_6  and  N_33
    6  A    between atoms: C_8  and  C_12
    7  A    between atoms: N_9  and  C_23
    8  A    between atoms: C_14  and  N_38
    9  A    between atoms: C_15  and  C_24
   10  A    between atoms: C_16  and  C_41
   11  A    between atoms: C_26  and  N_35
                            x       y       z     vdW  Elec       q    Type
                         _______ _______ _______ _____ _____    ______ ____

>  <TORSDO>
F 11

$$$$
=
 OpenBabel11052411273D

 43 48  0  0  1  0  0  0  0  0999 V2000
  160.9530  202.3110  146.9220 N   0  0  0  0  0  2  0  0  0  0  0  0
  161.2230  203.4860  149.4260 C   0  0  0  0  0  0  0  0  0  0  0  0
  160.9220  202.0450  149.3250 C   0  0  0  0  0  0  0  0  0  0  0  0
  161.5680  205.5900  150.0150 C   0  0  0  0  0  0  0  0  0  0  0  0
  161.1940  203.9390  151.9530 C   0  0  0  0  0  1  0  0  0  0  0  0
  161.3920  204.2660  148.3140 C   0  0  0  0  0  0  0  0  0  0  0  0
  161.6250  205.5640  148.6500 N   0  0  0  0  0  0  0  0  0  0  0  0
  161.3280  204.3180  150.5170 C   0  0  0  0  0  0  0  0  0  0  0  0
  161.2340  203.6920  147.0000 N   0  0  0  0  0  0  0  0  0  0  0  0
  160.7920  201.5060  148.1050 C   0  0  0  0  0  3  0  0  0  0  0  0
  161.3950  204.4110  145.7790 C   0  0  0  0  0  0  0  0  0  0  0  0
  162.8360  205.4750  144.1480 C   0  0  0  0  0  3  0  0  0  0  0  0
  161.7380  205.6950  143.3040 C   0  0  0  0  0  0  0  0  0  0  0  0
  160.4650  205.2610  143.7100 C   0  0  0  0  0  3  0  0  0  0  0  0
  160.2950  204.6190  144.9390 C   0  0  0  0  0  3  0  0  0  0  0  0
  162.6700  204.8260  145.3730 C   0  0  0  0  0  0  0  0  0  0  0  0
  163.7450  204.6260  146.1740 F   0  0  0  0  0  0  0  0  0  0  0  0
  161.9160  206.3510  142.0410 N   0  0  0  0  0  0  0  0  0  0  0  0
  161.5700  207.6300  140.1600 C   0  0  2  0  0  3  0  0  0  0  0  0
  162.7090  205.8350  140.9490 C   0  0  0  0  0  2  0  0  0  0  0  0
  161.2220  207.5320  141.6270 C   0  0  0  0  0  2  0  0  0  0  0  0
  162.6460  206.7550  139.8840 O   0  0  0  0  0  0  0  0  0  0  0  0
  160.7900  209.7290  139.1140 C   0  0  0  0  0  2  0  0  0  0  0  0
  161.9500  209.2070  138.2970 C   0  0  0  0  0  2  0  0  0  0  0  0
  161.9570  209.0510  139.8030 C   0  0  0  0  0  3  0  0  0  0  0  0
  161.6500  206.7930  150.8630 C   0  0  0  0  0  0  0  0  0  0  0  0
  162.7720  207.2300  151.2370 O   0  0  0  0  0  0  0  0  0  0  0  0
  160.4460  207.4130  151.3330 N   0  0  0  0  0  2  0  0  0  0  0  0
  160.4840  208.5600  152.1380 N   0  0  0  0  0  2  0  0  0  0  0  0
  160.6520  208.1260  153.4610 N   0  0  0  0  0  2  0  0  0  0  0  0
  161.3480  208.5260  155.6360 O   0  0  0  0  0  0  0  0  0  0  0  0
  161.1950  208.9770  154.4710 C   0  0  0  0  0  0  0  0  0  0  0  0
  161.5800  210.3940  154.1840 C   0  0  2  0  0  3  0  0  0  0  0  0
  162.7640  210.7040  154.8210 F   0  0  0  0  0  0  0  0  0  0  0  0
  160.4900  211.3630  154.6240 C   0  0  0  0  0  2  0  0  0  0  0  0
  160.4280  211.9950  152.3250 O   0  0  0  0  0  1  0  0  0  0  0  0
  159.6260  211.7880  153.4500 C   0  0  0  0  0  3  0  0  0  0  0  0
  158.9680  212.9730  153.7710 O   0  0  0  0  0  1  0  0  0  0  0  0
  161.6390  208.0520  148.4490 C   0  0  0  0  0  2  0  0  0  0  0  0
  161.6360  206.7100  147.7280 C   0  0  0  0  0  3  0  0  0  0  0  0
  162.9280  207.4980  147.9090 C   0  0  0  0  0  2  0  0  0  0  0  0
  159.4220  200.6420  150.5010 O   0  0  0  0  0  1  0  0  0  0  0  0
  160.7050  201.1970  150.5330 C   0  0  0  0  0  2  0  0  0  0  0  0
  1  9  1  0  0  0  0
  1 10  1  0  0  0  0
  2  8  1  0  0  0  0
  3  2  1  0  0  0  0
  3 43  1  0  0  0  0
  4  8  2  0  0  0  0
  4 26  1  0  0  0  0
  6  7  1  0  0  0  0
  6  2  2  0  0  0  0
  7  4  1  0  0  0  0
  8  5  1  0  0  0  0
  9  6  1  0  0  0  0
 10  3  2  0  0  0  0
 11  9  1  0  0  0  0
 12 16  2  0  0  0  0
 13 14  2  0  0  0  0
 13 12  1  0  0  0  0
 14 15  1  0  0  0  0
 15 11  2  0  0  0  0
 16 11  1  0  0  0  0
 16 17  1  0  0  0  0
 18 13  1  0  0  0  0
 19 25  1  1  0  0  0
 19 21  1  0  0  0  0
 20 18  1  0  0  0  0
 21 18  1  0  0  0  0
 22 19  1  0  0  0  0
 22 20  1  0  0  0  0
 23 25  1  0  0  0  0
 24 23  1  0  0  0  0
 24 25  1  0  0  0  0
 26 27  2  0  0  0  0
 26 28  1  0  0  0  0
 28 29  1  0  0  0  0
 29 30  1  0  0  0  0
 30 32  1  0  0  0  0
 32 31  2  0  0  0  0
 33 32  1  0  0  0  0
 33 35  1  0  0  0  0
 33 34  1  1  0  0  0
 36 37  1  0  0  0  0
 37 38  1  0  0  0  0
 37 35  1  0  0  0  0
 40 41  1  0  0  0  0
 40 39  1  0  0  0  0
 40  7  1  0  0  0  0
 41 39  1  0  0  0  0
 42 43  1  0  0  0  0
M  END
>  <MODEL>
5

>  <REMARK>
 VINA RESULT:      -5.5      3.861      8.038
  Name = 
  11 active torsions:
  status: ('A' for Active; 'I' for Inactive)
    1  A    between atoms: C_3  and  C_15
    2  A    between atoms: C_3  and  C_37
    3  A    between atoms: C_5  and  C_22
    4  A    between atoms: N_6  and  N_13
    5  A    between atoms: N_6  and  N_33
    6  A    between atoms: C_8  and  C_12
    7  A    between atoms: N_9  and  C_23
    8  A    between atoms: C_14  and  N_38
    9  A    between atoms: C_15  and  C_24
   10  A    between atoms: C_16  and  C_41
   11  A    between atoms: C_26  and  N_35
                            x       y       z     vdW  Elec       q    Type
                         _______ _______ _______ _____ _____    ______ ____

>  <TORSDO>
F 11

$$$$
=
 OpenBabel11052411273D

 43 48  0  0  1  0  0  0  0  0999 V2000
  161.1630  202.1010  146.7330 N   0  0  0  0  0  2  0  0  0  0  0  0
  161.1810  203.2410  149.2680 C   0  0  0  0  0  0  0  0  0  0  0  0
  161.0380  201.7790  149.1260 C   0  0  0  0  0  0  0  0  0  0  0  0
  161.2730  205.3550  149.9100 C   0  0  0  0  0  0  0  0  0  0  0  0
  160.9750  203.6310  151.7970 C   0  0  0  0  0  1  0  0  0  0  0  0
  161.3240  204.0590  148.1800 C   0  0  0  0  0  0  0  0  0  0  0  0
  161.4020  205.3670  148.5500 N   0  0  0  0  0  0  0  0  0  0  0  0
  161.1420  204.0550  150.3770 C   0  0  0  0  0  0  0  0  0  0  0  0
  161.2940  203.5010  146.8500 N   0  0  0  0  0  0  0  0  0  0  0  0
  161.0270  201.2570  147.8920 C   0  0  0  0  0  3  0  0  0  0  0  0
  161.4410  204.2610  145.6520 C   0  0  0  0  0  0  0  0  0  0  0  0
  162.8520  205.4660  144.0940 C   0  0  0  0  0  3  0  0  0  0  0  0
  161.7690  205.6280  143.2190 C   0  0  0  0  0  0  0  0  0  0  0  0
  160.5180  205.0940  143.5730 C   0  0  0  0  0  3  0  0  0  0  0  0
  160.3560  204.4100  144.7800 C   0  0  0  0  0  3  0  0  0  0  0  0
  162.6950  204.7760  145.2980 C   0  0  0  0  0  0  0  0  0  0  0  0
  163.7560  204.6340  146.1300 F   0  0  0  0  0  0  0  0  0  0  0  0
  161.9380  206.3270  141.9780 N   0  0  0  0  0  0  0  0  0  0  0  0
  161.5850  207.6790  140.1500 C   0  0  2  0  0  3  0  0  0  0  0  0
  162.7050  205.8370  140.8550 C   0  0  0  0  0  2  0  0  0  0  0  0
  161.2580  207.5340  141.6180 C   0  0  0  0  0  2  0  0  0  0  0  0
  162.6410  206.7970  139.8250 O   0  0  0  0  0  0  0  0  0  0  0  0
  160.8600  209.7990  139.1070 C   0  0  0  0  0  2  0  0  0  0  0  0
  162.0570  209.2890  138.3370 C   0  0  0  0  0  2  0  0  0  0  0  0
  161.9910  209.1060  139.8390 C   0  0  0  0  0  3  0  0  0  0  0  0
  161.1850  206.5410  150.7820 C   0  0  0  0  0  0  0  0  0  0  0  0
  160.0840  207.1360  150.9350 O   0  0  0  0  0  0  0  0  0  0  0  0
  162.3740  207.0660  151.3880 N   0  0  0  0  0  2  0  0  0  0  0  0
  162.3290  208.1890  152.2250 N   0  0  0  0  0  2  0  0  0  0  0  0
  162.2440  209.3160  151.3940 N   0  0  0  0  0  2  0  0  0  0  0  0
  161.2370  211.3270  150.8280 O   0  0  0  0  0  0  0  0  0  0  0  0
  161.2860  210.3510  151.6210 C   0  0  0  0  0  0  0  0  0  0  0  0
  160.3430  210.3100  152.7830 C   0  0  2  0  0  3  0  0  0  0  0  0
  159.0860  210.7190  152.3880 F   0  0  0  0  0  0  0  0  0  0  0  0
  160.8360  211.1880  153.9250 C   0  0  0  0  0  2  0  0  0  0  0  0
  161.1180  211.3260  156.2900 O   0  0  0  0  0  1  0  0  0  0  0  0
  160.7110  210.4740  155.2600 C   0  0  0  0  0  3  0  0  0  0  0  0
  161.5220  209.3430  155.2510 O   0  0  0  0  0  1  0  0  0  0  0  0
  161.5230  207.8530  148.3780 C   0  0  0  0  0  2  0  0  0  0  0  0
  161.3400  206.5280  147.6500 C   0  0  0  0  0  3  0  0  0  0  0  0
  162.6860  207.2430  147.6460 C   0  0  0  0  0  2  0  0  0  0  0  0
  159.4920  200.5940  150.4700 O   0  0  0  0  0  1  0  0  0  0  0  0
  160.8490  200.8860  150.3060 C   0  0  0  0  0  2  0  0  0  0  0  0
  1  9  1  0  0  0  0
  1 10  1  0  0  0  0
  2  8  1  0  0  0  0
  3  2  1  0  0  0  0
  3 43  1  0  0  0  0
  4  8  2  0  0  0  0
  4 26  1  0  0  0  0
  6  7  1  0  0  0  0
  6  2  2  0  0  0  0
  7  4  1  0  0  0  0
  8  5  1  0  0  0  0
  9  6  1  0  0  0  0
 10  3  2  0  0  0  0
 11  9  1  0  0  0  0
 12 16  2  0  0  0  0
 13 14  2  0  0  0  0
 13 12  1  0  0  0  0
 14 15  1  0  0  0  0
 15 11  2  0  0  0  0
 16 11  1  0  0  0  0
 16 17  1  0  0  0  0
 18 13  1  0  0  0  0
 19 25  1  1  0  0  0
 19 21  1  0  0  0  0
 20 18  1  0  0  0  0
 21 18  1  0  0  0  0
 22 19  1  0  0  0  0
 22 20  1  0  0  0  0
 23 25  1  0  0  0  0
 24 23  1  0  0  0  0
 24 25  1  0  0  0  0
 26 27  2  0  0  0  0
 26 28  1  0  0  0  0
 28 29  1  0  0  0  0
 30 32  1  0  0  0  0
 30 29  1  0  0  0  0
 31 32  2  0  0  0  0
 32 33  1  0  0  0  0
 33 34  1  6  0  0  0
 33 35  1  0  0  0  0
 35 37  1  0  0  0  0
 37 36  1  0  0  0  0
 38 37  1  0  0  0  0
 40 39  1  0  0  0  0
 40  7  1  0  0  0  0
 41 40  1  0  0  0  0
 41 39  1  0  0  0  0
 43 42  1  0  0  0  0
M  END
>  <MODEL>
6

>  <REMARK>
 VINA RESULT:      -5.2      3.624      8.143
  Name = 
  11 active torsions:
  status: ('A' for Active; 'I' for Inactive)
    1  A    between atoms: C_3  and  C_15
    2  A    between atoms: C_3  and  C_37
    3  A    between atoms: C_5  and  C_22
    4  A    between atoms: N_6  and  N_13
    5  A    between atoms: N_6  and  N_33
    6  A    between atoms: C_8  and  C_12
    7  A    between atoms: N_9  and  C_23
    8  A    between atoms: C_14  and  N_38
    9  A    between atoms: C_15  and  C_24
   10  A    between atoms: C_16  and  C_41
   11  A    between atoms: C_26  and  N_35
                            x       y       z     vdW  Elec       q    Type
                         _______ _______ _______ _____ _____    ______ ____

>  <TORSDO>
F 11

$$$$
=
 OpenBabel11052411273D

 43 48  0  0  1  0  0  0  0  0999 V2000
  160.7960  206.1840  154.4400 N   0  0  0  0  0  2  0  0  0  0  0  0
  161.1240  208.8920  153.9080 C   0  0  0  0  0  0  0  0  0  0  0  0
  160.9220  208.4410  155.2980 C   0  0  0  0  0  0  0  0  0  0  0  0
  161.3480  209.9810  151.9950 C   0  0  0  0  0  0  0  0  0  0  0  0
  161.2060  211.4500  154.1020 C   0  0  0  0  0  1  0  0  0  0  0  0
  161.1720  208.0090  152.8630 C   0  0  0  0  0  0  0  0  0  0  0  0
  161.3290  208.6530  151.6750 N   0  0  0  0  0  0  0  0  0  0  0  0
  161.2300  210.1540  153.3680 C   0  0  0  0  0  0  0  0  0  0  0  0
  160.9810  206.5990  153.1040 N   0  0  0  0  0  0  0  0  0  0  0  0
  160.7620  207.1310  155.5250 C   0  0  0  0  0  3  0  0  0  0  0  0
  161.0190  205.5940  152.0910 C   0  0  0  0  0  0  0  0  0  0  0  0
  162.2510  203.9220  150.8440 C   0  0  0  0  0  3  0  0  0  0  0  0
  161.0720  203.5110  150.2070 C   0  0  0  0  0  0  0  0  0  0  0  0
  159.8620  204.1520  150.5270 C   0  0  0  0  0  3  0  0  0  0  0  0
  159.8360  205.1840  151.4670 C   0  0  0  0  0  3  0  0  0  0  0  0
  162.2260  204.9490  151.7900 C   0  0  0  0  0  0  0  0  0  0  0  0
  163.3790  205.3320  152.3910 F   0  0  0  0  0  0  0  0  0  0  0  0
  161.1000  202.4480  149.2450 N   0  0  0  0  0  0  0  0  0  0  0  0
  160.6140  201.0930  147.4500 C   0  0  2  0  0  3  0  0  0  0  0  0
  161.5390  201.0990  149.5210 C   0  0  0  0  0  2  0  0  0  0  0  0
  160.5680  202.5280  147.9190 C   0  0  0  0  0  2  0  0  0  0  0  0
  161.4270  200.3470  148.3350 O   0  0  0  0  0  0  0  0  0  0  0  0
  160.0750  201.3210  145.0490 C   0  0  0  0  0  2  0  0  0  0  0  0
  160.4920  199.8890  145.2970 C   0  0  0  0  0  2  0  0  0  0  0  0
  161.1750  201.0150  146.0440 C   0  0  0  0  0  3  0  0  0  0  0  0
  161.3920  211.1020  151.0390 C   0  0  0  0  0  0  0  0  0  0  0  0
  162.4210  211.2990  150.3380 O   0  0  0  0  0  0  0  0  0  0  0  0
  160.2920  212.0200  150.9710 N   0  0  0  0  0  2  0  0  0  0  0  0
  160.2960  213.0960  150.0730 N   0  0  0  0  0  2  0  0  0  0  0  0
  161.1670  212.7540  149.0280 N   0  0  0  0  0  2  0  0  0  0  0  0
  161.6570  212.6700  146.7640 O   0  0  0  0  0  0  0  0  0  0  0  0
  160.8490  213.0210  147.6620 C   0  0  0  0  0  0  0  0  0  0  0  0
  159.5830  213.7170  147.2700 C   0  0  2  0  0  3  0  0  0  0  0  0
  158.5000  212.8920  147.4920 F   0  0  0  0  0  0  0  0  0  0  0  0
  159.6160  214.1420  145.8080 C   0  0  0  0  0  2  0  0  0  0  0  0
  159.3510  212.2090  144.4360 O   0  0  0  0  0  1  0  0  0  0  0  0
  158.6670  213.3030  144.9710 C   0  0  0  0  0  3  0  0  0  0  0  0
  158.1620  214.0820  143.9330 O   0  0  0  0  0  1  0  0  0  0  0  0
  161.9550  208.8280  149.2660 C   0  0  0  0  0  2  0  0  0  0  0  0
  161.2040  208.0510  150.3390 C   0  0  0  0  0  3  0  0  0  0  0  0
  162.5750  207.5930  149.8560 C   0  0  0  0  0  2  0  0  0  0  0  0
  159.5150  209.8310  156.5980 O   0  0  0  0  0  1  0  0  0  0  0  0
  160.8360  209.4030  156.4350 C   0  0  0  0  0  2  0  0  0  0  0  0
  1 10  1  0  0  0  0
  2  3  1  0  0  0  0
  3 10  2  0  0  0  0
  3 43  1  0  0  0  0
  4  8  2  0  0  0  0
  6  9  1  0  0  0  0
  6  2  2  0  0  0  0
  7  4  1  0  0  0  0
  7  6  1  0  0  0  0
  8  2  1  0  0  0  0
  8  5  1  0  0  0  0
  9  1  1  0  0  0  0
 11  9  1  0  0  0  0
 12 16  2  0  0  0  0
 13 14  2  0  0  0  0
 13 12  1  0  0  0  0
 14 15  1  0  0  0  0
 15 11  2  0  0  0  0
 16 11  1  0  0  0  0
 16 17  1  0  0  0  0
 18 20  1  0  0  0  0
 18 13  1  0  0  0  0
 19 25  1  6  0  0  0
 19 21  1  0  0  0  0
 19 22  1  0  0  0  0
 21 18  1  0  0  0  0
 22 20  1  0  0  0  0
 23 24  1  0  0  0  0
 23 25  1  0  0  0  0
 24 25  1  0  0  0  0
 26  4  1  0  0  0  0
 27 26  2  0  0  0  0
 28 26  1  0  0  0  0
 29 28  1  0  0  0  0
 30 29  1  0  0  0  0
 31 32  2  0  0  0  0
 32 30  1  0  0  0  0
 33 34  1  6  0  0  0
 33 32  1  0  0  0  0
 35 33  1  0  0  0  0
 36 37  1  0  0  0  0
 37 35  1  0  0  0  0
 38 37  1  0  0  0  0
 39 41  1  0  0  0  0
 39 40  1  0  0  0  0
 40  7  1  0  0  0  0
 41 40  1  0  0  0  0
 43 42  1  0  0  0  0
M  END
>  <MODEL>
7

>  <REMARK>
 VINA RESULT:      -5.1      2.457      8.481
  Name = 
  11 active torsions:
  status: ('A' for Active; 'I' for Inactive)
    1  A    between atoms: C_3  and  C_15
    2  A    between atoms: C_3  and  C_37
    3  A    between atoms: C_5  and  C_22
    4  A    between atoms: N_6  and  N_13
    5  A    between atoms: N_6  and  N_33
    6  A    between atoms: C_8  and  C_12
    7  A    between atoms: N_9  and  C_23
    8  A    between atoms: C_14  and  N_38
    9  A    between atoms: C_15  and  C_24
   10  A    between atoms: C_16  and  C_41
   11  A    between atoms: C_26  and  N_35
                            x       y       z     vdW  Elec       q    Type
                         _______ _______ _______ _____ _____    ______ ____

>  <TORSDO>
F 11

$$$$
=
 OpenBabel11052411273D

 43 48  0  0  1  0  0  0  0  0999 V2000
  160.7710  202.4920  150.3860 N   0  0  0  0  0  2  0  0  0  0  0  0
  161.0230  202.8410  147.6400 C   0  0  0  0  0  0  0  0  0  0  0  0
  160.7680  201.4940  148.1840 C   0  0  0  0  0  0  0  0  0  0  0  0
  161.4970  204.6380  146.4420 C   0  0  0  0  0  0  0  0  0  0  0  0
  161.2880  202.4420  145.1190 C   0  0  0  0  0  1  0  0  0  0  0  0
  161.1240  203.9380  148.4530 C   0  0  0  0  0  0  0  0  0  0  0  0
  161.3970  205.0630  147.7370 N   0  0  0  0  0  0  0  0  0  0  0  0
  161.2640  203.2730  146.3560 C   0  0  0  0  0  0  0  0  0  0  0  0
  161.0220  203.7860  149.8840 N   0  0  0  0  0  0  0  0  0  0  0  0
  160.6550  201.3530  149.5110 C   0  0  0  0  0  3  0  0  0  0  0  0
  161.1050  204.8610  150.8190 C   0  0  0  0  0  0  0  0  0  0  0  0
  162.1110  205.8570  152.7840 C   0  0  0  0  0  3  0  0  0  0  0  0
  161.3810  207.0360  152.5750 C   0  0  0  0  0  0  0  0  0  0  0  0
  160.5130  207.1170  151.4730 C   0  0  0  0  0  3  0  0  0  0  0  0
  160.3790  206.0370  150.5970 C   0  0  0  0  0  3  0  0  0  0  0  0
  161.9850  204.7790  151.9060 C   0  0  0  0  0  0  0  0  0  0  0  0
  162.6980  203.6480  152.1290 F   0  0  0  0  0  0  0  0  0  0  0  0
  161.5230  208.1450  153.4740 N   0  0  0  0  0  0  0  0  0  0  0  0
  161.2770  209.5720  155.2620 C   0  0  2  0  0  3  0  0  0  0  0  0
  161.8670  209.4900  153.0730 C   0  0  0  0  0  2  0  0  0  0  0  0
  161.2070  208.1150  154.8690 C   0  0  0  0  0  2  0  0  0  0  0  0
  161.9160  210.2960  154.2280 O   0  0  0  0  0  0  0  0  0  0  0  0
  161.7250  211.0820  157.1660 C   0  0  0  0  0  2  0  0  0  0  0  0
  163.0230  210.8820  156.4170 C   0  0  0  0  0  2  0  0  0  0  0  0
  162.0470  209.7330  156.5570 C   0  0  0  0  0  3  0  0  0  0  0  0
  161.8890  205.4670  145.2870 C   0  0  0  0  0  0  0  0  0  0  0  0
  163.0880  205.8350  145.1480 O   0  0  0  0  0  0  0  0  0  0  0  0
  160.8880  205.9230  144.3680 N   0  0  0  0  0  2  0  0  0  0  0  0
  161.2230  206.7100  143.2570 N   0  0  0  0  0  2  0  0  0  0  0  0
  161.9050  205.8780  142.3570 N   0  0  0  0  0  2  0  0  0  0  0  0
  162.7000  205.4490  140.2220 O   0  0  0  0  0  0  0  0  0  0  0  0
  162.1030  206.2460  140.9920 C   0  0  0  0  0  0  0  0  0  0  0  0
  161.6270  207.5580  140.4530 C   0  0  2  0  0  3  0  0  0  0  0  0
  161.0780  207.3860  139.1990 F   0  0  0  0  0  0  0  0  0  0  0  0
  162.7620  208.5720  140.3820 C   0  0  0  0  0  2  0  0  0  0  0  0
  163.3390  210.8050  139.7780 O   0  0  0  0  0  1  0  0  0  0  0  0
  162.2950  209.8780  139.7640 C   0  0  0  0  0  3  0  0  0  0  0  0
  161.2260  210.3770  140.5020 O   0  0  0  0  0  1  0  0  0  0  0  0
  162.1950  207.3690  147.2140 C   0  0  0  0  0  2  0  0  0  0  0  0
  161.7850  206.3700  148.2890 C   0  0  0  0  0  3  0  0  0  0  0  0
  160.8130  207.4370  147.8020 C   0  0  0  0  0  2  0  0  0  0  0  0
  161.9560  199.7140  147.1730 O   0  0  0  0  0  1  0  0  0  0  0  0
  160.6890  200.2900  147.3050 C   0  0  0  0  0  2  0  0  0  0  0  0
  2  3  1  0  0  0  0
  2  6  2  0  0  0  0
  3 10  2  0  0  0  0
  4  7  1  0  0  0  0
  5  8  1  0  0  0  0
  6  9  1  0  0  0  0
  7 40  1  0  0  0  0
  7  6  1  0  0  0  0
  8  4  2  0  0  0  0
  8  2  1  0  0  0  0
  9  1  1  0  0  0  0
  9 11  1  0  0  0  0
 10  1  1  0  0  0  0
 11 16  1  0  0  0  0
 13 12  1  0  0  0  0
 13 18  1  0  0  0  0
 14 13  2  0  0  0  0
 15 11  2  0  0  0  0
 15 14  1  0  0  0  0
 16 17  1  0  0  0  0
 16 12  2  0  0  0  0
 18 21  1  0  0  0  0
 19 25  1  1  0  0  0
 20 18  1  0  0  0  0
 20 22  1  0  0  0  0
 21 19  1  0  0  0  0
 22 19  1  0  0  0  0
 24 25  1  0  0  0  0
 24 23  1  0  0  0  0
 25 23  1  0  0  0  0
 26  4  1  0  0  0  0
 27 26  2  0  0  0  0
 28 26  1  0  0  0  0
 29 28  1  0  0  0  0
 30 29  1  0  0  0  0
 31 32  2  0  0  0  0
 32 30  1  0  0  0  0
 33 34  1  6  0  0  0
 33 32  1  0  0  0  0
 35 33  1  0  0  0  0
 37 36  1  0  0  0  0
 37 35  1  0  0  0  0
 37 38  1  0  0  0  0
 39 41  1  0  0  0  0
 39 40  1  0  0  0  0
 41 40  1  0  0  0  0
 42 43  1  0  0  0  0
 43  3  1  0  0  0  0
M  END
>  <MODEL>
8

>  <REMARK>
 VINA RESULT:      -4.7      3.930      9.224
  Name = 
  11 active torsions:
  status: ('A' for Active; 'I' for Inactive)
    1  A    between atoms: C_3  and  C_15
    2  A    between atoms: C_3  and  C_37
    3  A    between atoms: C_5  and  C_22
    4  A    between atoms: N_6  and  N_13
    5  A    between atoms: N_6  and  N_33
    6  A    between atoms: C_8  and  C_12
    7  A    between atoms: N_9  and  C_23
    8  A    between atoms: C_14  and  N_38
    9  A    between atoms: C_15  and  C_24
   10  A    between atoms: C_16  and  C_41
   11  A    between atoms: C_26  and  N_35
                            x       y       z     vdW  Elec       q    Type
                         _______ _______ _______ _____ _____    ______ ____

>  <TORSDO>
F 11

$$$$
=
 OpenBabel11052411273D

 43 48  0  0  1  0  0  0  0  0999 V2000
  161.8000  208.5740  148.2110 N   0  0  0  0  0  2  0  0  0  0  0  0
  161.4490  209.3570  150.8550 C   0  0  0  0  0  0  0  0  0  0  0  0
  161.7460  210.3720  149.8270 C   0  0  0  0  0  0  0  0  0  0  0  0
  161.0940  208.1700  152.6870 C   0  0  0  0  0  0  0  0  0  0  0  0
  161.3930  210.7010  153.0410 C   0  0  0  0  0  1  0  0  0  0  0  0
  161.3220  208.0310  150.5420 C   0  0  0  0  0  0  0  0  0  0  0  0
  161.0840  207.2790  151.6510 N   0  0  0  0  0  0  0  0  0  0  0  0
  161.3100  209.4590  152.2210 C   0  0  0  0  0  0  0  0  0  0  0  0
  161.5220  207.5890  149.1830 N   0  0  0  0  0  0  0  0  0  0  0  0
  161.9160  209.9660  148.5610 C   0  0  0  0  0  3  0  0  0  0  0  0
  161.4070  206.2350  148.7480 C   0  0  0  0  0  0  0  0  0  0  0  0
  161.9970  204.4760  147.1910 C   0  0  0  0  0  3  0  0  0  0  0  0
  161.3060  203.5380  147.9700 C   0  0  0  0  0  0  0  0  0  0  0  0
  160.6680  203.9630  149.1470 C   0  0  0  0  0  3  0  0  0  0  0  0
  160.7220  205.3030  149.5360 C   0  0  0  0  0  3  0  0  0  0  0  0
  162.0590  205.8150  147.5820 C   0  0  0  0  0  0  0  0  0  0  0  0
  162.7310  206.7060  146.8110 F   0  0  0  0  0  0  0  0  0  0  0  0
  161.2550  202.1610  147.5700 N   0  0  0  0  0  0  0  0  0  0  0  0
  160.6730  200.1940  146.5290 C   0  0  2  0  0  3  0  0  0  0  0  0
  161.5810  201.0430  148.4260 C   0  0  0  0  0  2  0  0  0  0  0  0
  160.7400  201.6880  146.3220 C   0  0  0  0  0  2  0  0  0  0  0  0
  161.4170  199.8570  147.6840 O   0  0  0  0  0  0  0  0  0  0  0  0
  160.5390  198.1310  145.1740 C   0  0  0  0  0  2  0  0  0  0  0  0
  161.9220  198.1990  145.7800 C   0  0  0  0  0  2  0  0  0  0  0  0
  161.2350  199.4680  145.3230 C   0  0  0  0  0  3  0  0  0  0  0  0
  160.9890  207.8350  154.1190 C   0  0  0  0  0  0  0  0  0  0  0  0
  161.9590  207.2940  154.7170 O   0  0  0  0  0  0  0  0  0  0  0  0
  159.7500  208.0470  154.8080 N   0  0  0  0  0  2  0  0  0  0  0  0
  159.6130  207.7430  156.1700 N   0  0  0  0  0  2  0  0  0  0  0  0
  160.1350  208.8290  156.8870 N   0  0  0  0  0  2  0  0  0  0  0  0
  160.2730  211.1130  157.2610 O   0  0  0  0  0  0  0  0  0  0  0  0
  159.7530  210.1760  156.6020 C   0  0  0  0  0  0  0  0  0  0  0  0
  158.7430  210.5010  155.5470 C   0  0  2  0  0  3  0  0  0  0  0  0
  159.2080  211.5210  154.7430 F   0  0  0  0  0  0  0  0  0  0  0  0
  157.4080  210.8990  156.1630 C   0  0  0  0  0  2  0  0  0  0  0  0
  156.1900  212.8250  155.4600 O   0  0  0  0  0  1  0  0  0  0  0  0
  156.4800  211.5010  155.1230 C   0  0  0  0  0  3  0  0  0  0  0  0
  155.2990  210.7660  155.0840 O   0  0  0  0  0  1  0  0  0  0  0  0
  162.4800  205.2610  152.1040 C   0  0  0  0  0  2  0  0  0  0  0  0
  161.1100  205.8110  151.7260 C   0  0  0  0  0  3  0  0  0  0  0  0
  161.4130  205.3790  153.1560 C   0  0  0  0  0  2  0  0  0  0  0  0
  160.7020  212.4880  150.0140 O   0  0  0  0  0  1  0  0  0  0  0  0
  161.9180  211.8150  150.1680 C   0  0  0  0  0  2  0  0  0  0  0  0
  1 10  1  0  0  0  0
  1  9  1  0  0  0  0
  2  8  1  0  0  0  0
  3 43  1  0  0  0  0
  3  2  1  0  0  0  0
  4 26  1  0  0  0  0
  6  2  2  0  0  0  0
  6  7  1  0  0  0  0
  7 40  1  0  0  0  0
  7  4  1  0  0  0  0
  8  4  2  0  0  0  0
  8  5  1  0  0  0  0
  9  6  1  0  0  0  0
 10  3  2  0  0  0  0
 11  9  1  0  0  0  0
 11 15  1  0  0  0  0
 12 16  1  0  0  0  0
 12 13  2  0  0  0  0
 13 14  1  0  0  0  0
 14 15  2  0  0  0  0
 16 11  2  0  0  0  0
 17 16  1  0  0  0  0
 18 13  1  0  0  0  0
 18 20  1  0  0  0  0
 19 25  1  6  0  0  0
 19 22  1  0  0  0  0
 21 19  1  0  0  0  0
 21 18  1  0  0  0  0
 22 20  1  0  0  0  0
 23 25  1  0  0  0  0
 23 24  1  0  0  0  0
 25 24  1  0  0  0  0
 26 27  2  0  0  0  0
 26 28  1  0  0  0  0
 28 29  1  0  0  0  0
 29 30  1  0  0  0  0
 32 30  1  0  0  0  0
 32 31  2  0  0  0  0
 33 34  1  1  0  0  0
 33 35  1  0  0  0  0
 33 32  1  0  0  0  0
 37 36  1  0  0  0  0
 37 35  1  0  0  0  0
 38 37  1  0  0  0  0
 39 41  1  0  0  0  0
 40 39  1  0  0  0  0
 40 41  1  0  0  0  0
 42 43  1  0  0  0  0
M  END
>  <MODEL>
9

>  <REMARK>
 VINA RESULT:      -4.6      3.325      9.083
  Name = 
  11 active torsions:
  status: ('A' for Active; 'I' for Inactive)
    1  A    between atoms: C_3  and  C_15
    2  A    between atoms: C_3  and  C_37
    3  A    between atoms: C_5  and  C_22
    4  A    between atoms: N_6  and  N_13
    5  A    between atoms: N_6  and  N_33
    6  A    between atoms: C_8  and  C_12
    7  A    between atoms: N_9  and  C_23
    8  A    between atoms: C_14  and  N_38
    9  A    between atoms: C_15  and  C_24
   10  A    between atoms: C_16  and  C_41
   11  A    between atoms: C_26  and  N_35
                            x       y       z     vdW  Elec       q    Type
                         _______ _______ _______ _____ _____    ______ ____

>  <TORSDO>
F 11

$$$$
