=
 OpenBabel11042420263D

 31 34  0  0  1  0  0  0  0  0999 V2000
  160.1570  212.1570  151.9010 C   0  0  0  0  0  2  0  0  0  0  0  0
  160.0850  212.2430  150.3780 C   0  0  2  0  0  3  0  0  0  0  0  0
  160.4230  210.7430  152.3910 C   0  0  0  0  0  2  0  0  0  0  0  0
  161.9210  209.8150  150.7040 N   0  0  0  0  0  0  0  0  0  0  0  0
  161.8480  210.3310  152.0700 C   0  0  0  0  0  2  0  0  0  0  0  0
  161.5060  212.1800  149.7750 C   0  0  1  0  0  3  0  0  0  0  0  0
  162.4500  210.3730  148.4960 O   0  0  0  0  0  0  0  0  0  0  0  0
  161.9690  210.7460  149.6040 C   0  0  0  0  0  0  0  0  0  0  0  0
  162.3370  214.4530  146.9230 C   0  0  0  0  0  3  0  0  0  0  0  0
  162.5280  214.0310  148.2620 C   0  0  0  0  0  3  0  0  0  0  0  0
  160.6370  213.3500  145.3250 C   0  0  0  0  0  0  0  0  0  0  0  0
  161.3550  213.6010  146.4600 C   0  0  0  0  0  0  0  0  0  0  0  0
  159.7980  212.2740  145.6570 C   0  0  0  0  0  3  0  0  0  0  0  0
  160.0340  211.9250  146.9550 N   0  0  0  0  0  2  0  0  0  0  0  0
  161.6470  212.9680  148.4980 C   0  0  0  0  0  0  0  0  0  0  0  0
  160.7290  214.0190  144.0730 N   0  0  0  0  0  1  0  0  0  0  0  0
  160.9720  212.7560  147.3690 N   0  0  0  0  0  0  0  0  0  0  0  0
  161.5730  207.9090  149.2730 C   0  0  0  0  0  3  0  0  0  0  0  0
  162.3060  207.4680  151.5970 C   0  0  0  0  0  1  0  0  0  0  0  0
  161.9000  208.3860  150.4870 C   0  0  0  0  0  0  0  0  0  0  0  0
  161.9030  206.1250  147.5980 N   0  0  0  0  0  0  0  0  0  0  0  0
  161.4870  206.5030  148.8270 C   0  0  0  0  0  0  0  0  0  0  0  0
  160.8530  205.1900  149.6750 S   0  0  0  0  0  0  0  0  0  0  0  0
  161.7190  204.7970  147.3630 C   0  0  0  0  0  3  0  0  0  0  0  0
  161.1410  204.1070  148.4210 C   0  0  0  0  0  0  0  0  0  0  0  0
  160.8230  202.6750  148.4390 C   0  0  0  0  0  0  0  0  0  0  0  0
  160.5000  202.0250  149.6650 N   0  0  0  0  0  1  0  0  0  0  0  0
  160.8370  202.0100  147.3700 O   0  0  0  0  0  0  0  0  0  0  0  0
  159.4040  213.4810  150.0140 N   0  0  0  0  0  2  0  0  0  0  0  0
  156.9160  213.4940  149.4190 N   0  0  0  0  0  0  0  0  0  0  0  0
  158.0420  213.4870  149.6870 C   0  0  0  0  0  0  0  0  0  0  0  0
  1  3  1  0  0  0  0
  2 29  1  1  0  0  0
  2  1  1  0  0  0  0
  4  5  1  0  0  0  0
  5  3  1  0  0  0  0
  6 15  1  6  0  0  0
  6  2  1  0  0  0  0
  7  8  2  0  0  0  0
  8  6  1  0  0  0  0
  8  4  1  0  0  0  0
  9 10  1  0  0  0  0
 10 15  2  0  0  0  0
 11 13  2  0  0  0  0
 11 12  1  0  0  0  0
 12  9  2  0  0  0  0
 12 17  1  0  0  0  0
 13 14  1  0  0  0  0
 14 17  1  0  0  0  0
 16 11  1  0  0  0  0
 17 15  1  0  0  0  0
 18 20  2  0  0  0  0
 20  4  1  0  0  0  0
 20 19  1  0  0  0  0
 21 22  2  0  0  0  0
 22 18  1  0  0  0  0
 22 23  1  0  0  0  0
 24 21  1  0  0  0  0
 24 25  2  0  0  0  0
 25 26  1  0  0  0  0
 25 23  1  0  0  0  0
 26 27  1  0  0  0  0
 28 26  2  0  0  0  0
 30 31  3  0  0  0  0
 31 29  1  0  0  0  0
M  END
>  <MODEL>
1

>  <REMARK>
 VINA RESULT:      -6.5      0.000      0.000
  Name = 
  6 active torsions:
  status: ('A' for Active; 'I' for Inactive)
    1  A    between atoms: C_3  and  C_29
    2  A    between atoms: N_5  and  C_14
    3  A    between atoms: N_5  and  C_19
    4  A    between atoms: C_11  and  C_21
    5  A    between atoms: N_18  and  C_28
    6  A    between atoms: C_20  and  C_23
                            x       y       z     vdW  Elec       q    Type
                         _______ _______ _______ _____ _____    ______ ____

>  <TORSDO>
F 6

$$$$
=
 OpenBabel11042420263D

 31 34  0  0  1  0  0  0  0  0999 V2000
  161.3660  210.9940  156.5770 C   0  0  0  0  0  2  0  0  0  0  0  0
  159.9710  211.1900  155.9890 C   0  0  2  0  0  3  0  0  0  0  0  0
  161.9740  209.6530  156.1980 C   0  0  0  0  0  2  0  0  0  0  0  0
  161.1700  209.2730  153.9250 N   0  0  0  0  0  0  0  0  0  0  0  0
  162.3390  209.6360  154.7250 C   0  0  0  0  0  2  0  0  0  0  0  0
  160.0700  211.5330  154.4870 C   0  0  1  0  0  3  0  0  0  0  0  0
  159.4150  210.1330  152.6420 O   0  0  0  0  0  0  0  0  0  0  0  0
  160.1760  210.2780  153.6410 C   0  0  0  0  0  0  0  0  0  0  0  0
  157.8100  214.1160  153.0020 C   0  0  0  0  0  3  0  0  0  0  0  0
  159.1080  213.6020  153.2420 C   0  0  0  0  0  3  0  0  0  0  0  0
  155.6610  212.9850  153.8770 C   0  0  0  0  0  0  0  0  0  0  0  0
  156.9880  213.2110  153.6420 C   0  0  0  0  0  0  0  0  0  0  0  0
  155.6220  211.8040  154.6350 C   0  0  0  0  0  3  0  0  0  0  0  0
  156.9020  211.3710  154.8280 N   0  0  0  0  0  2  0  0  0  0  0  0
  158.9650  212.4380  154.0070 C   0  0  0  0  0  0  0  0  0  0  0  0
  154.5570  213.7660  153.4370 N   0  0  0  0  0  1  0  0  0  0  0  0
  157.6610  212.2560  154.2090 N   0  0  0  0  0  0  0  0  0  0  0  0
  161.4180  207.5720  152.2390 C   0  0  0  0  0  3  0  0  0  0  0  0
  160.4750  206.8800  154.4210 C   0  0  0  0  0  1  0  0  0  0  0  0
  161.0160  207.9070  153.4770 C   0  0  0  0  0  0  0  0  0  0  0  0
  161.8350  205.1390  152.1750 N   0  0  0  0  0  0  0  0  0  0  0  0
  161.3600  206.2530  151.5760 C   0  0  0  0  0  0  0  0  0  0  0  0
  160.7820  205.9010  150.0300 S   0  0  0  0  0  0  0  0  0  0  0  0
  161.7180  204.0280  151.3970 C   0  0  0  0  0  3  0  0  0  0  0  0
  161.1440  204.2630  150.1540 C   0  0  0  0  0  0  0  0  0  0  0  0
  160.9050  203.2540  149.1160 C   0  0  0  0  0  0  0  0  0  0  0  0
  160.2150  202.0480  149.4310 N   0  0  0  0  0  1  0  0  0  0  0  0
  161.3100  203.4470  147.9400 O   0  0  0  0  0  0  0  0  0  0  0  0
  159.2970  212.2470  156.7360 N   0  0  0  0  0  2  0  0  0  0  0  0
  160.4820  214.4530  157.2600 N   0  0  0  0  0  0  0  0  0  0  0  0
  159.9440  213.4550  157.0230 C   0  0  0  0  0  0  0  0  0  0  0  0
  2  1  1  0  0  0  0
  2 29  1  1  0  0  0
  3  1  1  0  0  0  0
  4  5  1  0  0  0  0
  5  3  1  0  0  0  0
  6 15  1  6  0  0  0
  6  2  1  0  0  0  0
  7  8  2  0  0  0  0
  8  4  1  0  0  0  0
  8  6  1  0  0  0  0
  9 10  1  0  0  0  0
  9 12  2  0  0  0  0
 10 15  2  0  0  0  0
 11 13  2  0  0  0  0
 12 11  1  0  0  0  0
 12 17  1  0  0  0  0
 13 14  1  0  0  0  0
 15 17  1  0  0  0  0
 16 11  1  0  0  0  0
 17 14  1  0  0  0  0
 18 20  2  0  0  0  0
 20  4  1  0  0  0  0
 20 19  1  0  0  0  0
 22 21  2  0  0  0  0
 22 18  1  0  0  0  0
 23 25  1  0  0  0  0
 23 22  1  0  0  0  0
 24 21  1  0  0  0  0
 25 24  2  0  0  0  0
 26 27  1  0  0  0  0
 26 25  1  0  0  0  0
 28 26  2  0  0  0  0
 29 31  1  0  0  0  0
 31 30  3  0  0  0  0
M  END
>  <MODEL>
2

>  <REMARK>
 VINA RESULT:      -6.1      4.844      5.913
  Name = 
  6 active torsions:
  status: ('A' for Active; 'I' for Inactive)
    1  A    between atoms: C_3  and  C_29
    2  A    between atoms: N_5  and  C_14
    3  A    between atoms: N_5  and  C_19
    4  A    between atoms: C_11  and  C_21
    5  A    between atoms: N_18  and  C_28
    6  A    between atoms: C_20  and  C_23
                            x       y       z     vdW  Elec       q    Type
                         _______ _______ _______ _____ _____    ______ ____

>  <TORSDO>
F 6

$$$$
=
 OpenBabel11042420263D

 31 34  0  0  1  0  0  0  0  0999 V2000
  161.2090  206.3530  154.1510 C   0  0  0  0  0  2  0  0  0  0  0  0
  160.3290  207.5480  153.7920 C   0  0  2  0  0  3  0  0  0  0  0  0
  161.7360  205.6280  152.9230 C   0  0  0  0  0  2  0  0  0  0  0  0
  162.1190  207.4200  151.3120 N   0  0  0  0  0  0  0  0  0  0  0  0
  162.7760  206.4770  152.2150 C   0  0  0  0  0  2  0  0  0  0  0  0
  161.2040  208.7330  153.3290 C   0  0  1  0  0  3  0  0  0  0  0  0
  161.3640  209.6220  151.0980 O   0  0  0  0  0  0  0  0  0  0  0  0
  161.5430  208.6250  151.8550 C   0  0  0  0  0  0  0  0  0  0  0  0
  159.4270  212.0120  153.6030 C   0  0  0  0  0  3  0  0  0  0  0  0
  159.7400  210.8340  152.8820 C   0  0  0  0  0  3  0  0  0  0  0  0
  160.3770  212.5240  155.9480 C   0  0  0  0  0  0  0  0  0  0  0  0
  160.1420  211.8650  154.7750 C   0  0  0  0  0  0  0  0  0  0  0  0
  161.2500  211.6910  156.6640 C   0  0  0  0  0  3  0  0  0  0  0  0
  161.5070  210.5830  155.9110 N   0  0  0  0  0  2  0  0  0  0  0  0
  160.6160  210.0780  153.6700 C   0  0  0  0  0  0  0  0  0  0  0  0
  159.8400  213.7750  156.3630 N   0  0  0  0  0  1  0  0  0  0  0  0
  160.8140  210.7540  154.8010 N   0  0  0  0  0  0  0  0  0  0  0  0
  161.5900  205.8850  149.5320 C   0  0  0  0  0  3  0  0  0  0  0  0
  162.3470  208.1540  148.8890 C   0  0  0  0  0  1  0  0  0  0  0  0
  162.0240  207.1020  149.9040 C   0  0  0  0  0  0  0  0  0  0  0  0
  161.8050  204.0940  147.8470 N   0  0  0  0  0  0  0  0  0  0  0  0
  161.4140  205.3460  148.1680 C   0  0  0  0  0  0  0  0  0  0  0  0
  160.7840  206.1410  146.8200 S   0  0  0  0  0  0  0  0  0  0  0  0
  161.5850  203.7890  146.5390 C   0  0  0  0  0  3  0  0  0  0  0  0
  161.0130  204.8200  145.8040 C   0  0  0  0  0  0  0  0  0  0  0  0
  160.6750  204.7700  144.3770 C   0  0  0  0  0  0  0  0  0  0  0  0
  161.3640  205.6000  143.4460 N   0  0  0  0  0  1  0  0  0  0  0  0
  159.7720  203.9950  143.9670 O   0  0  0  0  0  0  0  0  0  0  0  0
  159.5240  207.9000  154.9570 N   0  0  0  0  0  2  0  0  0  0  0  0
  160.0350  206.9110  157.2610 N   0  0  0  0  0  0  0  0  0  0  0  0
  159.8020  207.3580  156.2180 C   0  0  0  0  0  0  0  0  0  0  0  0
  2  1  1  0  0  0  0
  2 29  1  1  0  0  0
  3  1  1  0  0  0  0
  4  8  1  0  0  0  0
  4  5  1  0  0  0  0
  5  3  1  0  0  0  0
  6 15  1  6  0  0  0
  6  2  1  0  0  0  0
  7  8  2  0  0  0  0
  8  6  1  0  0  0  0
  9 12  2  0  0  0  0
 10  9  1  0  0  0  0
 10 15  2  0  0  0  0
 11 16  1  0  0  0  0
 11 13  2  0  0  0  0
 12 17  1  0  0  0  0
 12 11  1  0  0  0  0
 14 13  1  0  0  0  0
 15 17  1  0  0  0  0
 17 14  1  0  0  0  0
 18 20  2  0  0  0  0
 19 20  1  0  0  0  0
 20  4  1  0  0  0  0
 21 22  2  0  0  0  0
 22 18  1  0  0  0  0
 23 22  1  0  0  0  0
 24 21  1  0  0  0  0
 25 24  2  0  0  0  0
 25 23  1  0  0  0  0
 26 25  1  0  0  0  0
 27 26  1  0  0  0  0
 28 26  2  0  0  0  0
 29 31  1  0  0  0  0
 31 30  3  0  0  0  0
M  END
>  <MODEL>
3

>  <REMARK>
 VINA RESULT:      -6.1      4.340      6.447
  Name = 
  6 active torsions:
  status: ('A' for Active; 'I' for Inactive)
    1  A    between atoms: C_3  and  C_29
    2  A    between atoms: N_5  and  C_14
    3  A    between atoms: N_5  and  C_19
    4  A    between atoms: C_11  and  C_21
    5  A    between atoms: N_18  and  C_28
    6  A    between atoms: C_20  and  C_23
                            x       y       z     vdW  Elec       q    Type
                         _______ _______ _______ _____ _____    ______ ____

>  <TORSDO>
F 6

$$$$
=
 OpenBabel11042420263D

 31 34  0  0  1  0  0  0  0  0999 V2000
  161.6980  208.2210  148.6640 C   0  0  0  0  0  2  0  0  0  0  0  0
  160.8360  207.2120  149.4200 C   0  0  2  0  0  3  0  0  0  0  0  0
  161.7740  209.5650  149.3710 C   0  0  0  0  0  2  0  0  0  0  0  0
  161.7720  208.9780  151.7390 N   0  0  0  0  0  0  0  0  0  0  0  0
  162.6060  209.4520  150.6350 C   0  0  0  0  0  2  0  0  0  0  0  0
  161.6090  206.6570  150.6360 C   0  0  1  0  0  3  0  0  0  0  0  0
  161.1430  207.0850  152.9580 O   0  0  0  0  0  0  0  0  0  0  0  0
  161.4740  207.5710  151.8390 C   0  0  0  0  0  0  0  0  0  0  0  0
  160.5830  203.3600  152.0710 C   0  0  0  0  0  3  0  0  0  0  0  0
  160.8430  204.7440  152.2210 C   0  0  0  0  0  3  0  0  0  0  0  0
  160.8460  202.1090  149.8290 C   0  0  0  0  0  0  0  0  0  0  0  0
  160.8500  203.1290  150.7370 C   0  0  0  0  0  0  0  0  0  0  0  0
  161.2530  202.6960  148.6210 C   0  0  0  0  0  3  0  0  0  0  0  0
  161.4870  204.0230  148.8410 N   0  0  0  0  0  2  0  0  0  0  0  0
  161.2480  205.2340  150.9730 C   0  0  0  0  0  0  0  0  0  0  0  0
  160.4890  200.7500  150.0530 N   0  0  0  0  0  1  0  0  0  0  0  0
  161.2260  204.2090  150.1210 N   0  0  0  0  0  0  0  0  0  0  0  0
  159.9900  210.4150  152.4870 C   0  0  0  0  0  3  0  0  0  0  0  0
  162.0360  210.3250  153.8780 C   0  0  0  0  0  1  0  0  0  0  0  0
  161.2310  209.9360  152.6770 C   0  0  0  0  0  0  0  0  0  0  0  0
  159.1950  212.7000  152.9830 N   0  0  0  0  0  0  0  0  0  0  0  0
  159.2410  211.3890  153.3070 C   0  0  0  0  0  0  0  0  0  0  0  0
  158.3960  211.0970  154.7380 S   0  0  0  0  0  0  0  0  0  0  0  0
  158.4810  213.4410  153.8730 C   0  0  0  0  0  3  0  0  0  0  0  0
  157.9510  212.7080  154.9280 C   0  0  0  0  0  0  0  0  0  0  0  0
  157.1490  213.2490  156.0300 C   0  0  0  0  0  0  0  0  0  0  0  0
  155.8280  212.7680  156.2610 N   0  0  0  0  0  1  0  0  0  0  0  0
  157.6220  214.1440  156.7780 O   0  0  0  0  0  0  0  0  0  0  0  0
  160.4510  206.1480  148.4980 N   0  0  0  0  0  2  0  0  0  0  0  0
  160.5860  206.4780  145.9650 N   0  0  0  0  0  0  0  0  0  0  0  0
  160.5260  206.3300  147.1120 C   0  0  0  0  0  0  0  0  0  0  0  0
  1  3  1  0  0  0  0
  1  2  1  0  0  0  0
  2 29  1  6  0  0  0
  2  6  1  0  0  0  0
  3  5  1  0  0  0  0
  4  8  1  0  0  0  0
  4 20  1  0  0  0  0
  5  4  1  0  0  0  0
  6 15  1  1  0  0  0
  6  8  1  0  0  0  0
  8  7  2  0  0  0  0
  9 10  1  0  0  0  0
 11 16  1  0  0  0  0
 11 12  1  0  0  0  0
 12  9  2  0  0  0  0
 13 14  1  0  0  0  0
 13 11  2  0  0  0  0
 14 17  1  0  0  0  0
 15 10  2  0  0  0  0
 17 12  1  0  0  0  0
 17 15  1  0  0  0  0
 18 20  2  0  0  0  0
 18 22  1  0  0  0  0
 20 19  1  0  0  0  0
 21 22  2  0  0  0  0
 21 24  1  0  0  0  0
 22 23  1  0  0  0  0
 23 25  1  0  0  0  0
 24 25  2  0  0  0  0
 25 26  1  0  0  0  0
 26 27  1  0  0  0  0
 26 28  2  0  0  0  0
 30 31  3  0  0  0  0
 31 29  1  0  0  0  0
M  END
>  <MODEL>
4

>  <REMARK>
 VINA RESULT:      -5.8      4.061      8.995
  Name = 
  6 active torsions:
  status: ('A' for Active; 'I' for Inactive)
    1  A    between atoms: C_3  and  C_29
    2  A    between atoms: N_5  and  C_14
    3  A    between atoms: N_5  and  C_19
    4  A    between atoms: C_11  and  C_21
    5  A    between atoms: N_18  and  C_28
    6  A    between atoms: C_20  and  C_23
                            x       y       z     vdW  Elec       q    Type
                         _______ _______ _______ _____ _____    ______ ____

>  <TORSDO>
F 6

$$$$
=
 OpenBabel11042420263D

 31 34  0  0  1  0  0  0  0  0999 V2000
  161.1370  206.2180  153.9840 C   0  0  0  0  0  2  0  0  0  0  0  0
  160.4460  207.5740  153.8650 C   0  0  2  0  0  3  0  0  0  0  0  0
  161.5280  205.6440  152.6320 C   0  0  0  0  0  2  0  0  0  0  0  0
  162.1580  207.6070  151.3280 N   0  0  0  0  0  0  0  0  0  0  0  0
  162.6760  206.4360  152.0330 C   0  0  0  0  0  2  0  0  0  0  0  0
  161.4860  208.6770  153.5710 C   0  0  1  0  0  3  0  0  0  0  0  0
  161.7470  209.9010  151.5150 O   0  0  0  0  0  0  0  0  0  0  0  0
  161.7820  208.7740  152.0870 C   0  0  0  0  0  0  0  0  0  0  0  0
  161.1100  211.9250  155.3870 C   0  0  0  0  0  3  0  0  0  0  0  0
  161.7870  210.6980  155.1780 C   0  0  0  0  0  3  0  0  0  0  0  0
  159.0300  212.6360  154.0340 C   0  0  0  0  0  0  0  0  0  0  0  0
  160.0850  211.8820  154.4640 C   0  0  0  0  0  0  0  0  0  0  0  0
  158.4340  211.8790  153.0140 C   0  0  0  0  0  3  0  0  0  0  0  0
  159.1350  210.7170  152.8710 N   0  0  0  0  0  2  0  0  0  0  0  0
  161.1170  210.0160  154.1550 C   0  0  0  0  0  0  0  0  0  0  0  0
  158.6320  213.9190  154.5050 N   0  0  0  0  0  1  0  0  0  0  0  0
  160.1020  210.7870  153.7650 N   0  0  0  0  0  0  0  0  0  0  0  0
  161.4590  206.4530  149.3320 C   0  0  0  0  0  3  0  0  0  0  0  0
  162.3620  208.7430  149.0640 C   0  0  0  0  0  1  0  0  0  0  0  0
  161.9940  207.5520  149.8920 C   0  0  0  0  0  0  0  0  0  0  0  0
  160.4650  207.0210  147.1450 N   0  0  0  0  0  0  0  0  0  0  0  0
  161.1990  206.1790  147.9050 C   0  0  0  0  0  0  0  0  0  0  0  0
  161.6840  204.8340  147.0090 S   0  0  0  0  0  0  0  0  0  0  0  0
  160.3130  206.5830  145.8650 C   0  0  0  0  0  3  0  0  0  0  0  0
  160.9350  205.3690  145.6020 C   0  0  0  0  0  0  0  0  0  0  0  0
  160.9290  204.6640  144.3150 C   0  0  0  0  0  0  0  0  0  0  0  0
  161.3850  205.3180  143.1350 N   0  0  0  0  0  1  0  0  0  0  0  0
  160.5190  203.4760  144.2460 O   0  0  0  0  0  0  0  0  0  0  0  0
  159.7230  207.8380  155.1050 N   0  0  0  0  0  2  0  0  0  0  0  0
  160.2900  206.5750  157.2570 N   0  0  0  0  0  0  0  0  0  0  0  0
  160.0320  207.1470  156.2830 C   0  0  0  0  0  0  0  0  0  0  0  0
  2  1  1  0  0  0  0
  2 29  1  1  0  0  0
  3  1  1  0  0  0  0
  4  5  1  0  0  0  0
  4  8  1  0  0  0  0
  5  3  1  0  0  0  0
  6  2  1  0  0  0  0
  6 15  1  6  0  0  0
  7  8  2  0  0  0  0
  8  6  1  0  0  0  0
 10  9  1  0  0  0  0
 11 12  1  0  0  0  0
 11 16  1  0  0  0  0
 12  9  2  0  0  0  0
 13 11  2  0  0  0  0
 14 13  1  0  0  0  0
 14 17  1  0  0  0  0
 15 10  2  0  0  0  0
 17 15  1  0  0  0  0
 17 12  1  0  0  0  0
 18 20  2  0  0  0  0
 19 20  1  0  0  0  0
 20  4  1  0  0  0  0
 21 22  2  0  0  0  0
 22 18  1  0  0  0  0
 23 22  1  0  0  0  0
 24 21  1  0  0  0  0
 25 24  2  0  0  0  0
 25 23  1  0  0  0  0
 26 25  1  0  0  0  0
 27 26  1  0  0  0  0
 28 26  2  0  0  0  0
 29 31  1  0  0  0  0
 31 30  3  0  0  0  0
M  END
>  <MODEL>
5

>  <REMARK>
 VINA RESULT:      -5.4      3.958      6.073
  Name = 
  6 active torsions:
  status: ('A' for Active; 'I' for Inactive)
    1  A    between atoms: C_3  and  C_29
    2  A    between atoms: N_5  and  C_14
    3  A    between atoms: N_5  and  C_19
    4  A    between atoms: C_11  and  C_21
    5  A    between atoms: N_18  and  C_28
    6  A    between atoms: C_20  and  C_23
                            x       y       z     vdW  Elec       q    Type
                         _______ _______ _______ _____ _____    ______ ____

>  <TORSDO>
F 6

$$$$
=
 OpenBabel11042420263D

 31 34  0  0  1  0  0  0  0  0999 V2000
  161.4790  210.2250  152.0780 C   0  0  0  0  0  2  0  0  0  0  0  0
  161.0810  210.7970  150.7190 C   0  0  2  0  0  3  0  0  0  0  0  0
  161.2910  208.7190  152.1530 C   0  0  0  0  0  2  0  0  0  0  0  0
  161.8620  207.9490  149.9090 N   0  0  0  0  0  0  0  0  0  0  0  0
  162.3240  208.0130  151.2950 C   0  0  0  0  0  2  0  0  0  0  0  0
  162.1770  210.4940  149.6740 C   0  0  1  0  0  3  0  0  0  0  0  0
  162.0150  208.9750  147.8140 O   0  0  0  0  0  0  0  0  0  0  0  0
  161.9970  209.1140  149.0700 C   0  0  0  0  0  0  0  0  0  0  0  0
  163.1170  213.1260  147.1900 C   0  0  0  0  0  3  0  0  0  0  0  0
  163.4610  212.2430  148.2420 C   0  0  0  0  0  3  0  0  0  0  0  0
  160.7290  213.3130  146.2280 C   0  0  0  0  0  0  0  0  0  0  0  0
  161.7680  212.8940  147.0080 C   0  0  0  0  0  0  0  0  0  0  0  0
  159.6230  212.5680  146.6650 C   0  0  0  0  0  3  0  0  0  0  0  0
  160.0270  211.7440  147.6760 N   0  0  0  0  0  2  0  0  0  0  0  0
  162.2980  211.5560  148.6120 C   0  0  0  0  0  0  0  0  0  0  0  0
  160.7620  214.2820  145.1860 N   0  0  0  0  0  1  0  0  0  0  0  0
  161.3140  211.9920  147.8260 N   0  0  0  0  0  0  0  0  0  0  0  0
  162.0140  205.7380  148.9670 C   0  0  0  0  0  3  0  0  0  0  0  0
  159.7530  206.5880  149.5120 C   0  0  0  0  0  1  0  0  0  0  0  0
  161.2400  206.7360  149.4270 C   0  0  0  0  0  0  0  0  0  0  0  0
  161.2070  203.4210  149.2470 N   0  0  0  0  0  0  0  0  0  0  0  0
  161.6040  204.4240  148.4320 C   0  0  0  0  0  0  0  0  0  0  0  0
  161.5950  203.9240  146.8210 S   0  0  0  0  0  0  0  0  0  0  0  0
  160.8950  202.2820  148.5720 C   0  0  0  0  0  3  0  0  0  0  0  0
  161.0500  202.3770  147.1940 C   0  0  0  0  0  0  0  0  0  0  0  0
  160.7930  201.3040  146.2270 C   0  0  0  0  0  0  0  0  0  0  0  0
  160.0180  201.5600  145.0590 N   0  0  0  0  0  1  0  0  0  0  0  0
  161.2550  200.1500  146.4240 O   0  0  0  0  0  0  0  0  0  0  0  0
  160.8620  212.2320  150.8640 N   0  0  0  0  0  2  0  0  0  0  0  0
  158.9680  213.1350  152.3270 N   0  0  0  0  0  0  0  0  0  0  0  0
  159.8250  212.7280  151.6650 C   0  0  0  0  0  0  0  0  0  0  0  0
  1  3  1  0  0  0  0
  2 29  1  1  0  0  0
  2  1  1  0  0  0  0
  4  5  1  0  0  0  0
  5  3  1  0  0  0  0
  6 15  1  6  0  0  0
  6  2  1  0  0  0  0
  7  8  2  0  0  0  0
  8  6  1  0  0  0  0
  8  4  1  0  0  0  0
  9 10  1  0  0  0  0
 10 15  2  0  0  0  0
 11 13  2  0  0  0  0
 11 12  1  0  0  0  0
 12  9  2  0  0  0  0
 12 17  1  0  0  0  0
 13 14  1  0  0  0  0
 14 17  1  0  0  0  0
 16 11  1  0  0  0  0
 17 15  1  0  0  0  0
 18 20  2  0  0  0  0
 20 19  1  0  0  0  0
 20  4  1  0  0  0  0
 22 18  1  0  0  0  0
 22 21  2  0  0  0  0
 23 25  1  0  0  0  0
 23 22  1  0  0  0  0
 24 21  1  0  0  0  0
 25 24  2  0  0  0  0
 26 28  2  0  0  0  0
 26 25  1  0  0  0  0
 27 26  1  0  0  0  0
 29 31  1  0  0  0  0
 31 30  3  0  0  0  0
M  END
>  <MODEL>
6

>  <REMARK>
 VINA RESULT:      -5.2      1.712      2.303
  Name = 
  6 active torsions:
  status: ('A' for Active; 'I' for Inactive)
    1  A    between atoms: C_3  and  C_29
    2  A    between atoms: N_5  and  C_14
    3  A    between atoms: N_5  and  C_19
    4  A    between atoms: C_11  and  C_21
    5  A    between atoms: N_18  and  C_28
    6  A    between atoms: C_20  and  C_23
                            x       y       z     vdW  Elec       q    Type
                         _______ _______ _______ _____ _____    ______ ____

>  <TORSDO>
F 6

$$$$
=
 OpenBabel11042420263D

 31 34  0  0  1  0  0  0  0  0999 V2000
  161.5900  208.4710  153.1810 C   0  0  0  0  0  2  0  0  0  0  0  0
  160.8200  209.3230  152.1750 C   0  0  2  0  0  3  0  0  0  0  0  0
  161.6870  207.0140  152.7560 C   0  0  0  0  0  2  0  0  0  0  0  0
  161.8930  207.1310  150.3270 N   0  0  0  0  0  0  0  0  0  0  0  0
  162.6220  206.8720  151.5680 C   0  0  0  0  0  2  0  0  0  0  0  0
  161.7040  209.6230  150.9450 C   0  0  1  0  0  3  0  0  0  0  0  0
  161.4170  208.7580  148.7180 O   0  0  0  0  0  0  0  0  0  0  0  0
  161.6420  208.4950  149.9330 C   0  0  0  0  0  0  0  0  0  0  0  0
  160.5170  212.9930  149.8400 C   0  0  0  0  0  3  0  0  0  0  0  0
  160.4140  211.8670  150.6920 C   0  0  0  0  0  3  0  0  0  0  0  0
  162.2850  213.1920  147.9700 C   0  0  0  0  0  0  0  0  0  0  0  0
  161.5750  212.6710  149.0140 C   0  0  0  0  0  0  0  0  0  0  0  0
  163.2540  212.2210  147.6700 C   0  0  0  0  0  3  0  0  0  0  0  0
  163.0940  211.1700  148.5250 N   0  0  0  0  0  2  0  0  0  0  0  0
  161.4100  210.9580  150.3110 C   0  0  0  0  0  0  0  0  0  0  0  0
  162.0970  214.4510  147.3350 N   0  0  0  0  0  1  0  0  0  0  0  0
  162.0770  211.5070  149.2960 N   0  0  0  0  0  0  0  0  0  0  0  0
  161.9580  205.7560  148.3510 C   0  0  0  0  0  3  0  0  0  0  0  0
  160.3390  205.1320  150.1180 C   0  0  0  0  0  1  0  0  0  0  0  0
  161.4050  206.0150  149.5480 C   0  0  0  0  0  0  0  0  0  0  0  0
  161.5780  204.9070  146.0630 N   0  0  0  0  0  0  0  0  0  0  0  0
  161.6240  204.6810  147.3950 C   0  0  0  0  0  0  0  0  0  0  0  0
  161.2120  203.0820  147.7440 S   0  0  0  0  0  0  0  0  0  0  0  0
  161.2270  203.8030  145.3500 C   0  0  0  0  0  3  0  0  0  0  0  0
  160.9850  202.6770  146.1270 C   0  0  0  0  0  0  0  0  0  0  0  0
  160.5850  201.3580  145.6240 C   0  0  0  0  0  0  0  0  0  0  0  0
  161.1840  200.1770  146.1500 N   0  0  0  0  0  1  0  0  0  0  0  0
  159.7110  201.2620  144.7230 O   0  0  0  0  0  0  0  0  0  0  0  0
  160.3900  210.5500  152.8380 N   0  0  0  0  0  2  0  0  0  0  0  0
  159.6770  210.5430  155.2950 N   0  0  0  0  0  0  0  0  0  0  0  0
  160.0010  210.5470  154.1840 C   0  0  0  0  0  0  0  0  0  0  0  0
  2 29  1  1  0  0  0
  2  1  1  0  0  0  0
  3  1  1  0  0  0  0
  4  5  1  0  0  0  0
  5  3  1  0  0  0  0
  6 15  1  6  0  0  0
  6  2  1  0  0  0  0
  7  8  2  0  0  0  0
  8  4  1  0  0  0  0
  8  6  1  0  0  0  0
  9 10  1  0  0  0  0
 11 12  1  0  0  0  0
 12 17  1  0  0  0  0
 12  9  2  0  0  0  0
 13 11  2  0  0  0  0
 13 14  1  0  0  0  0
 14 17  1  0  0  0  0
 15 10  2  0  0  0  0
 16 11  1  0  0  0  0
 17 15  1  0  0  0  0
 18 20  2  0  0  0  0
 20 19  1  0  0  0  0
 20  4  1  0  0  0  0
 21 22  2  0  0  0  0
 22 23  1  0  0  0  0
 22 18  1  0  0  0  0
 24 21  1  0  0  0  0
 24 25  2  0  0  0  0
 25 23  1  0  0  0  0
 26 25  1  0  0  0  0
 26 27  1  0  0  0  0
 28 26  2  0  0  0  0
 29 31  1  0  0  0  0
 31 30  3  0  0  0  0
M  END
>  <MODEL>
7

>  <REMARK>
 VINA RESULT:      -5.2      2.325      3.471
  Name = 
  6 active torsions:
  status: ('A' for Active; 'I' for Inactive)
    1  A    between atoms: C_3  and  C_29
    2  A    between atoms: N_5  and  C_14
    3  A    between atoms: N_5  and  C_19
    4  A    between atoms: C_11  and  C_21
    5  A    between atoms: N_18  and  C_28
    6  A    between atoms: C_20  and  C_23
                            x       y       z     vdW  Elec       q    Type
                         _______ _______ _______ _____ _____    ______ ____

>  <TORSDO>
F 6

$$$$
=
 OpenBabel11042420263D

 31 34  0  0  1  0  0  0  0  0999 V2000
  160.4320  211.4270  155.7290 C   0  0  0  0  0  2  0  0  0  0  0  0
  159.4480  211.5400  154.5660 C   0  0  2  0  0  3  0  0  0  0  0  0
  160.9570  210.0120  155.9110 C   0  0  0  0  0  2  0  0  0  0  0  0
  161.1310  209.1600  153.6310 N   0  0  0  0  0  0  0  0  0  0  0  0
  161.8970  209.6480  154.7760 C   0  0  0  0  0  2  0  0  0  0  0  0
  160.2090  211.5290  153.2230 C   0  0  1  0  0  3  0  0  0  0  0  0
  160.2020  209.7740  151.5760 O   0  0  0  0  0  0  0  0  0  0  0  0
  160.4890  210.1120  152.7600 C   0  0  0  0  0  0  0  0  0  0  0  0
  158.0580  213.6310  151.0000 C   0  0  0  0  0  3  0  0  0  0  0  0
  158.2750  212.9490  152.2220 C   0  0  0  0  0  3  0  0  0  0  0  0
  159.7830  213.6690  149.0810 C   0  0  0  0  0  0  0  0  0  0  0  0
  159.2150  213.3840  150.2900 C   0  0  0  0  0  0  0  0  0  0  0  0
  161.0340  213.0330  149.1080 C   0  0  0  0  0  3  0  0  0  0  0  0
  161.1720  212.3970  150.3080 N   0  0  0  0  0  2  0  0  0  0  0  0
  159.5360  212.3440  152.1490 C   0  0  0  0  0  0  0  0  0  0  0  0
  159.2350  214.4530  148.0280 N   0  0  0  0  0  1  0  0  0  0  0  0
  160.0520  212.6500  150.9600 N   0  0  0  0  0  0  0  0  0  0  0  0
  161.1750  207.2280  152.1930 C   0  0  0  0  0  3  0  0  0  0  0  0
  160.7320  206.8440  154.5990 C   0  0  0  0  0  1  0  0  0  0  0  0
  160.9980  207.7350  153.4260 C   0  0  0  0  0  0  0  0  0  0  0  0
  161.2450  204.7970  152.6240 N   0  0  0  0  0  0  0  0  0  0  0  0
  161.0910  205.8200  151.7540 C   0  0  0  0  0  0  0  0  0  0  0  0
  160.8540  205.2420  150.1870 S   0  0  0  0  0  0  0  0  0  0  0  0
  161.1610  203.5770  152.0260 C   0  0  0  0  0  3  0  0  0  0  0  0
  160.9400  203.6290  150.6560 C   0  0  0  0  0  0  0  0  0  0  0  0
  160.8150  202.4720  149.7630 C   0  0  0  0  0  0  0  0  0  0  0  0
  160.7090  202.6580  148.3550 N   0  0  0  0  0  1  0  0  0  0  0  0
  160.7980  201.3060  150.2370 O   0  0  0  0  0  0  0  0  0  0  0  0
  158.6710  212.7640  154.7320 N   0  0  0  0  0  2  0  0  0  0  0  0
  157.2700  213.1630  156.8350 N   0  0  0  0  0  0  0  0  0  0  0  0
  157.9030  212.9830  155.8820 C   0  0  0  0  0  0  0  0  0  0  0  0
  1  3  1  0  0  0  0
  2 29  1  1  0  0  0
  2  1  1  0  0  0  0
  4  5  1  0  0  0  0
  5  3  1  0  0  0  0
  6 15  1  6  0  0  0
  6  2  1  0  0  0  0
  7  8  2  0  0  0  0
  8  6  1  0  0  0  0
  8  4  1  0  0  0  0
  9 10  1  0  0  0  0
 11 13  2  0  0  0  0
 11 12  1  0  0  0  0
 12 17  1  0  0  0  0
 12  9  2  0  0  0  0
 13 14  1  0  0  0  0
 14 17  1  0  0  0  0
 15 10  2  0  0  0  0
 16 11  1  0  0  0  0
 17 15  1  0  0  0  0
 18 20  2  0  0  0  0
 20  4  1  0  0  0  0
 20 19  1  0  0  0  0
 22 18  1  0  0  0  0
 22 21  2  0  0  0  0
 23 25  1  0  0  0  0
 23 22  1  0  0  0  0
 24 21  1  0  0  0  0
 25 24  2  0  0  0  0
 26 28  2  0  0  0  0
 26 25  1  0  0  0  0
 27 26  1  0  0  0  0
 29 31  1  0  0  0  0
 31 30  3  0  0  0  0
M  END
>  <MODEL>
8

>  <REMARK>
 VINA RESULT:      -4.9      2.877      4.071
  Name = 
  6 active torsions:
  status: ('A' for Active; 'I' for Inactive)
    1  A    between atoms: C_3  and  C_29
    2  A    between atoms: N_5  and  C_14
    3  A    between atoms: N_5  and  C_19
    4  A    between atoms: C_11  and  C_21
    5  A    between atoms: N_18  and  C_28
    6  A    between atoms: C_20  and  C_23
                            x       y       z     vdW  Elec       q    Type
                         _______ _______ _______ _____ _____    ______ ____

>  <TORSDO>
F 6

$$$$
=
 OpenBabel11042420263D

 31 34  0  0  1  0  0  0  0  0999 V2000
  161.7250  208.1650  148.8680 C   0  0  0  0  0  2  0  0  0  0  0  0
  162.1390  207.8450  150.3020 C   0  0  2  0  0  3  0  0  0  0  0  0
  161.5650  206.9160  148.0160 C   0  0  0  0  0  2  0  0  0  0  0  0
  160.6610  205.2660  149.5700 N   0  0  0  0  0  0  0  0  0  0  0  0
  160.3330  206.1390  148.4440 C   0  0  0  0  0  2  0  0  0  0  0  0
  160.9270  207.3190  151.1000 C   0  0  1  0  0  3  0  0  0  0  0  0
  160.5890  205.0730  151.8980 O   0  0  0  0  0  0  0  0  0  0  0  0
  160.7350  205.8290  150.8950 C   0  0  0  0  0  0  0  0  0  0  0  0
  161.3720  207.6480  154.7990 C   0  0  0  0  0  3  0  0  0  0  0  0
  161.5260  206.9140  153.5980 C   0  0  0  0  0  3  0  0  0  0  0  0
  160.2570  209.9730  154.8990 C   0  0  0  0  0  0  0  0  0  0  0  0
  160.7390  208.8030  154.3860 C   0  0  0  0  0  0  0  0  0  0  0  0
  159.7370  210.6670  153.7940 C   0  0  0  0  0  3  0  0  0  0  0  0
  159.9180  209.9020  152.6780 N   0  0  0  0  0  2  0  0  0  0  0  0
  160.9740  207.6790  152.5630 C   0  0  0  0  0  0  0  0  0  0  0  0
  160.2890  210.4060  156.2540 N   0  0  0  0  0  1  0  0  0  0  0  0
  160.5200  208.8090  153.1060 N   0  0  0  0  0  0  0  0  0  0  0  0
  160.7510  203.3670  148.0900 C   0  0  0  0  0  3  0  0  0  0  0  0
  161.5130  203.0290  150.4220 C   0  0  0  0  0  1  0  0  0  0  0  0
  160.9460  203.8700  149.3220 C   0  0  0  0  0  0  0  0  0  0  0  0
  161.4420  201.0220  148.4310 N   0  0  0  0  0  0  0  0  0  0  0  0
  160.9730  201.9880  147.6120 C   0  0  0  0  0  0  0  0  0  0  0  0
  160.7510  201.3910  146.0490 S   0  0  0  0  0  0  0  0  0  0  0  0
  161.6050  199.8260  147.8020 C   0  0  0  0  0  3  0  0  0  0  0  0
  161.2630  199.8410  146.4550 C   0  0  0  0  0  0  0  0  0  0  0  0
  161.3470  198.7000  145.5370 C   0  0  0  0  0  0  0  0  0  0  0  0
  160.1600  198.0560  145.0820 N   0  0  0  0  0  1  0  0  0  0  0  0
  162.4680  198.2820  145.1460 O   0  0  0  0  0  0  0  0  0  0  0  0
  162.6950  209.0520  150.9060 N   0  0  0  0  0  2  0  0  0  0  0  0
  162.0460  211.3740  150.0520 N   0  0  0  0  0  0  0  0  0  0  0  0
  162.3390  210.3230  150.4400 C   0  0  0  0  0  0  0  0  0  0  0  0
  1  2  1  0  0  0  0
  2 29  1  1  0  0  0
  2  6  1  0  0  0  0
  3  5  1  0  0  0  0
  3  1  1  0  0  0  0
  4  8  1  0  0  0  0
  5  4  1  0  0  0  0
  6 15  1  1  0  0  0
  8  6  1  0  0  0  0
  8  7  2  0  0  0  0
 10  9  1  0  0  0  0
 11 16  1  0  0  0  0
 12  9  2  0  0  0  0
 12 11  1  0  0  0  0
 13 11  2  0  0  0  0
 14 17  1  0  0  0  0
 14 13  1  0  0  0  0
 15 17  1  0  0  0  0
 15 10  2  0  0  0  0
 17 12  1  0  0  0  0
 18 20  2  0  0  0  0
 20  4  1  0  0  0  0
 20 19  1  0  0  0  0
 22 18  1  0  0  0  0
 22 21  2  0  0  0  0
 23 25  1  0  0  0  0
 23 22  1  0  0  0  0
 24 21  1  0  0  0  0
 25 24  2  0  0  0  0
 26 25  1  0  0  0  0
 27 26  1  0  0  0  0
 28 26  2  0  0  0  0
 30 31  3  0  0  0  0
 31 29  1  0  0  0  0
M  END
>  <MODEL>
9

>  <REMARK>
 VINA RESULT:      -4.7      3.732      6.584
  Name = 
  6 active torsions:
  status: ('A' for Active; 'I' for Inactive)
    1  A    between atoms: C_3  and  C_29
    2  A    between atoms: N_5  and  C_14
    3  A    between atoms: N_5  and  C_19
    4  A    between atoms: C_11  and  C_21
    5  A    between atoms: N_18  and  C_28
    6  A    between atoms: C_20  and  C_23
                            x       y       z     vdW  Elec       q    Type
                         _______ _______ _______ _____ _____    ______ ____

>  <TORSDO>
F 6

$$$$
