=
 OpenBabel11042421173D

 39 44  0  0  1  0  0  0  0  0999 V2000
  161.2990  204.8750  152.5160 C   0  0  0  0  0  3  0  0  0  0  0  0
  161.5140  206.7260  149.4320 C   0  0  0  0  0  3  0  0  0  0  0  0
  161.5640  206.9220  151.8380 C   0  0  0  0  0  0  0  0  0  0  0  0
  161.2730  204.8480  151.1200 C   0  0  0  0  0  0  0  0  0  0  0  0
  161.8280  208.9010  150.5110 C   0  0  0  0  0  0  0  0  0  0  0  0
  161.4450  206.1600  150.7060 C   0  0  0  0  0  0  0  0  0  0  0  0
  161.4700  206.1500  152.9340 N   0  0  0  0  0  0  0  0  0  0  0  0
  161.7090  208.1150  149.3440 C   0  0  0  0  0  3  0  0  0  0  0  0
  161.7600  208.3020  151.7810 C   0  0  0  0  0  3  0  0  0  0  0  0
  160.7920  201.3630  148.7150 C   0  0  0  0  0  3  0  0  0  0  0  0
  161.0000  202.5970  148.0970 C   0  0  0  0  0  3  0  0  0  0  0  0
  160.7440  201.2810  150.0720 N   0  0  0  0  0  0  0  0  0  0  0  0
  161.1570  203.7370  148.8860 C   0  0  0  0  0  3  0  0  0  0  0  0
  161.1060  203.6400  150.2830 C   0  0  0  0  0  0  0  0  0  0  0  0
  160.8960  202.3800  150.8580 C   0  0  0  0  0  3  0  0  0  0  0  0
  162.0820  210.6640  150.3710 S   0  0  0  0  0  0  0  0  0  0  0  0
  162.0350  210.6080  148.5550 C   0  0  0  0  0  2  0  0  0  0  0  0
  162.2520  211.9420  148.0120 N   0  0  0  0  0  2  0  0  0  0  0  0
  161.9220  213.1180  145.8690 C   0  0  0  0  0  3  0  0  0  0  0  0
  158.8430  214.3150  144.0650 C   0  0  0  0  0  1  0  0  0  0  0  0
  159.6850  213.6830  145.1220 C   0  0  0  0  0  0  0  0  0  0  0  0
  160.0180  212.5300  147.2310 C   0  0  0  0  0  3  0  0  0  0  0  0
  161.3990  212.5390  147.0300 C   0  0  0  0  0  0  0  0  0  0  0  0
  161.0690  213.6860  144.9240 C   0  0  0  0  0  3  0  0  0  0  0  0
  159.1400  213.0960  146.2920 C   0  0  0  0  0  0  0  0  0  0  0  0
  157.0450  214.0660  147.2740 O   0  0  0  0  0  1  0  0  0  0  0  0
  156.9990  212.0650  146.1840 O   0  0  0  0  0  0  0  0  0  0  0  0
  157.6850  213.0460  146.5790 C   0  0  0  0  0  0  0  0  0  0  0  0
  161.5920  206.5770  154.3200 C   0  0  0  0  0  2  0  0  0  0  0  0
  160.2500  208.2880  155.6690 C   0  0  2  0  0  3  0  0  0  0  0  0
  160.2380  207.0040  156.2500 O   0  0  0  0  0  0  0  0  0  0  0  0
  160.2350  207.0420  154.8420 C   0  0  2  0  0  3  0  0  0  0  0  0
  161.6190  208.9230  155.8850 C   0  0  0  0  0  2  0  0  0  0  0  0
  161.5210  210.4200  155.6690 C   0  0  0  0  0  2  0  0  0  0  0  0
  160.3070  210.7340  154.9320 N   0  0  0  0  0  0  0  0  0  0  0  0
  159.2330  212.8070  154.6330 N   0  0  0  0  0  2  0  0  0  0  0  0
  160.7020  211.2330  153.6820 N   0  0  0  0  0  2  0  0  0  0  0  0
  159.7950  212.3290  153.3850 C   0  0  0  0  0  2  0  0  0  0  0  0
  159.6710  211.8420  155.6210 C   0  0  0  0  0  2  0  0  0  0  0  0
  1  7  1  0  0  0  0
  2  6  1  0  0  0  0
  3  7  1  0  0  0  0
  4  1  2  0  0  0  0
  5  9  2  0  0  0  0
  6  4  1  0  0  0  0
  6  3  2  0  0  0  0
  7 29  1  0  0  0  0
  8  2  2  0  0  0  0
  8  5  1  0  0  0  0
  9  3  1  0  0  0  0
 10 12  1  0  0  0  0
 11 10  2  0  0  0  0
 11 13  1  0  0  0  0
 12 15  2  0  0  0  0
 13 14  2  0  0  0  0
 14 15  1  0  0  0  0
 14  4  1  0  0  0  0
 16  5  1  0  0  0  0
 17 16  1  0  0  0  0
 18 17  1  0  0  0  0
 19 23  1  0  0  0  0
 20 21  1  0  0  0  0
 21 25  2  0  0  0  0
 23 22  2  0  0  0  0
 23 18  1  0  0  0  0
 24 21  1  0  0  0  0
 24 19  2  0  0  0  0
 25 28  1  0  0  0  0
 25 22  1  0  0  0  0
 27 28  2  0  0  0  0
 28 26  1  0  0  0  0
 30 33  1  6  0  0  0
 30 31  1  0  0  0  0
 32 29  1  6  0  0  0
 32 30  1  0  0  0  0
 32 31  1  0  0  0  0
 34 33  1  0  0  0  0
 35 39  1  0  0  0  0
 35 34  1  0  0  0  0
 36 39  1  0  0  0  0
 37 35  1  0  0  0  0
 38 37  1  0  0  0  0
 38 36  1  0  0  0  0
M  END
>  <MODEL>
1

>  <REMARK>
 VINA RESULT:      -8.3      0.000      0.000
  Name = 
  11 active torsions:
  status: ('A' for Active; 'I' for Inactive)
    1  A    between atoms: N_1  and  C_11
    2  A    between atoms: N_2  and  C_6
    3  A    between atoms: N_2  and  C_26
    4  A    between atoms: C_6  and  S_16
    5  A    between atoms: C_9  and  C_33
    6  A    between atoms: C_11  and  C_28
    7  A    between atoms: C_12  and  S_16
    8  A    between atoms: C_15  and  C_28
    9  A    between atoms: C_18  and  N_19
   10  A    between atoms: C_18  and  C_39
   11  A    between atoms: C_31  and  C_34
                            x       y       z     vdW  Elec       q    Type
                         _______ _______ _______ _____ _____    ______ ____

>  <TORSDO>
F 11

$$$$
=
 OpenBabel11042421173D

 39 44  0  0  1  0  0  0  0  0999 V2000
  161.4760  207.7480  149.5040 C   0  0  0  0  0  3  0  0  0  0  0  0
  161.1150  205.7150  152.4570 C   0  0  0  0  0  3  0  0  0  0  0  0
  161.3590  207.9820  151.6610 C   0  0  0  0  0  0  0  0  0  0  0  0
  161.3410  206.4680  150.0450 C   0  0  0  0  0  0  0  0  0  0  0  0
  161.1610  207.5990  154.0190 C   0  0  0  0  0  0  0  0  0  0  0  0
  161.2660  206.6360  151.4200 C   0  0  0  0  0  0  0  0  0  0  0  0
  161.4920  208.6560  150.5060 N   0  0  0  0  0  0  0  0  0  0  0  0
  161.0630  206.2130  153.7710 C   0  0  0  0  0  3  0  0  0  0  0  0
  161.3080  208.5050  152.9540 C   0  0  0  0  0  3  0  0  0  0  0  0
  161.1700  202.8390  147.8180 C   0  0  0  0  0  3  0  0  0  0  0  0
  160.8180  202.8290  149.1690 C   0  0  0  0  0  3  0  0  0  0  0  0
  161.5630  203.9980  147.2260 N   0  0  0  0  0  0  0  0  0  0  0  0
  160.8750  204.0180  149.8960 C   0  0  0  0  0  3  0  0  0  0  0  0
  161.2810  205.2070  149.2750 C   0  0  0  0  0  0  0  0  0  0  0  0
  161.6240  205.1670  147.9170 C   0  0  0  0  0  3  0  0  0  0  0  0
  161.0860  208.2070  155.6980 S   0  0  0  0  0  0  0  0  0  0  0  0
  161.5150  209.8980  155.1900 C   0  0  0  0  0  2  0  0  0  0  0  0
  160.7210  210.8600  155.9420 N   0  0  0  0  0  2  0  0  0  0  0  0
  159.6570  212.6020  154.5590 C   0  0  0  0  0  3  0  0  0  0  0  0
  156.0590  213.4190  153.8110 C   0  0  0  0  0  1  0  0  0  0  0  0
  157.2390  212.7160  154.3920 C   0  0  0  0  0  0  0  0  0  0  0  0
  158.2950  211.0060  155.7540 C   0  0  0  0  0  3  0  0  0  0  0  0
  159.5560  211.5010  155.4150 C   0  0  0  0  0  0  0  0  0  0  0  0
  158.5050  213.2050  154.0540 C   0  0  0  0  0  3  0  0  0  0  0  0
  157.1220  211.5960  155.2550 C   0  0  0  0  0  0  0  0  0  0  0  0
  155.1630  210.0770  154.8710 O   0  0  0  0  0  0  0  0  0  0  0  0
  155.2870  211.3600  156.7510 O   0  0  0  0  0  1  0  0  0  0  0  0
  155.8190  211.0120  155.6610 C   0  0  0  0  0  0  0  0  0  0  0  0
  161.5740  210.0990  150.3390 C   0  0  0  0  0  2  0  0  0  0  0  0
  162.1230  211.8090  148.5160 C   0  0  2  0  0  3  0  0  0  0  0  0
  161.4190  210.6930  148.0230 O   0  0  0  0  0  0  0  0  0  0  0  0
  162.3360  210.4320  149.0590 C   0  0  2  0  0  3  0  0  0  0  0  0
  161.1680  212.6930  149.3100 C   0  0  0  0  0  2  0  0  0  0  0  0
  160.5850  213.7530  148.3960 C   0  0  0  0  0  2  0  0  0  0  0  0
  159.3270  214.2370  148.9410 N   0  0  0  0  0  0  0  0  0  0  0  0
  157.2440  213.1490  149.0890 N   0  0  0  0  0  2  0  0  0  0  0  0
  159.2150  213.7210  150.2410 N   0  0  0  0  0  2  0  0  0  0  0  0
  157.8200  213.3470  150.4040 C   0  0  0  0  0  2  0  0  0  0  0  0
  158.2660  213.6110  148.1710 C   0  0  0  0  0  2  0  0  0  0  0  0
  1  4  2  0  0  0  0
  1  7  1  0  0  0  0
  2  8  1  0  0  0  0
  3  9  2  0  0  0  0
  4  6  1  0  0  0  0
  5 16  1  0  0  0  0
  6  3  1  0  0  0  0
  6  2  2  0  0  0  0
  7  3  1  0  0  0  0
  8  5  2  0  0  0  0
  9  5  1  0  0  0  0
 10 11  1  0  0  0  0
 11 13  2  0  0  0  0
 12 10  2  0  0  0  0
 12 15  1  0  0  0  0
 14 13  1  0  0  0  0
 14  4  1  0  0  0  0
 15 14  2  0  0  0  0
 17 16  1  0  0  0  0
 17 18  1  0  0  0  0
 19 23  1  0  0  0  0
 20 21  1  0  0  0  0
 21 25  2  0  0  0  0
 23 22  2  0  0  0  0
 23 18  1  0  0  0  0
 24 21  1  0  0  0  0
 24 19  2  0  0  0  0
 25 28  1  0  0  0  0
 25 22  1  0  0  0  0
 26 28  2  0  0  0  0
 28 27  1  0  0  0  0
 29  7  1  0  0  0  0
 30 32  1  0  0  0  0
 30 33  1  1  0  0  0
 31 30  1  0  0  0  0
 31 32  1  0  0  0  0
 32 29  1  1  0  0  0
 34 35  1  0  0  0  0
 34 33  1  0  0  0  0
 35 37  1  0  0  0  0
 36 38  1  0  0  0  0
 37 38  1  0  0  0  0
 39 35  1  0  0  0  0
 39 36  1  0  0  0  0
M  END
>  <MODEL>
2

>  <REMARK>
 VINA RESULT:      -8.2      2.886      6.586
  Name = 
  11 active torsions:
  status: ('A' for Active; 'I' for Inactive)
    1  A    between atoms: N_1  and  C_11
    2  A    between atoms: N_2  and  C_6
    3  A    between atoms: N_2  and  C_26
    4  A    between atoms: C_6  and  S_16
    5  A    between atoms: C_9  and  C_33
    6  A    between atoms: C_11  and  C_28
    7  A    between atoms: C_12  and  S_16
    8  A    between atoms: C_15  and  C_28
    9  A    between atoms: C_18  and  N_19
   10  A    between atoms: C_18  and  C_39
   11  A    between atoms: C_31  and  C_34
                            x       y       z     vdW  Elec       q    Type
                         _______ _______ _______ _____ _____    ______ ____

>  <TORSDO>
F 11

$$$$
=
 OpenBabel11042421173D

 39 44  0  0  1  0  0  0  0  0999 V2000
  161.8090  208.5130  148.2580 C   0  0  0  0  0  3  0  0  0  0  0  0
  161.1430  205.5920  150.2610 C   0  0  0  0  0  3  0  0  0  0  0  0
  161.5270  207.9740  150.3450 C   0  0  0  0  0  0  0  0  0  0  0  0
  161.5870  207.1340  148.2970 C   0  0  0  0  0  0  0  0  0  0  0  0
  161.1270  206.7940  152.3920 C   0  0  0  0  0  0  0  0  0  0  0  0
  161.4080  206.8100  149.6330 C   0  0  0  0  0  0  0  0  0  0  0  0
  161.7760  209.0040  149.5180 N   0  0  0  0  0  0  0  0  0  0  0  0
  161.0010  205.5950  151.6590 C   0  0  0  0  0  3  0  0  0  0  0  0
  161.3890  208.0080  151.7330 C   0  0  0  0  0  3  0  0  0  0  0  0
  161.4640  204.5430  144.9160 C   0  0  0  0  0  3  0  0  0  0  0  0
  162.4850  204.3920  145.8560 C   0  0  0  0  0  3  0  0  0  0  0  0
  160.5220  205.5100  145.0840 N   0  0  0  0  0  0  0  0  0  0  0  0
  162.5230  205.2420  146.9620 C   0  0  0  0  0  3  0  0  0  0  0  0
  161.5470  206.2340  147.1240 C   0  0  0  0  0  0  0  0  0  0  0  0
  160.5420  206.3470  146.1550 C   0  0  0  0  0  3  0  0  0  0  0  0
  160.9370  206.7720  154.1700 S   0  0  0  0  0  0  0  0  0  0  0  0
  161.5020  208.4920  154.3320 C   0  0  0  0  0  2  0  0  0  0  0  0
  160.5330  209.2620  155.0980 N   0  0  0  0  0  2  0  0  0  0  0  0
  160.3200  211.1580  153.5340 C   0  0  0  0  0  3  0  0  0  0  0  0
  157.5630  213.6400  152.8980 C   0  0  0  0  0  1  0  0  0  0  0  0
  158.2920  212.4890  153.5040 C   0  0  0  0  0  0  0  0  0  0  0  0
  158.5120  210.6250  155.0420 C   0  0  0  0  0  3  0  0  0  0  0  0
  159.7920  210.3590  154.5530 C   0  0  0  0  0  0  0  0  0  0  0  0
  159.5740  212.2160  153.0160 C   0  0  0  0  0  3  0  0  0  0  0  0
  157.7420  211.6840  154.5340 C   0  0  0  0  0  0  0  0  0  0  0  0
  156.1640  212.8520  156.0950 O   0  0  0  0  0  1  0  0  0  0  0  0
  155.4140  211.2210  154.6900 O   0  0  0  0  0  0  0  0  0  0  0  0
  156.3900  211.9030  155.1060 C   0  0  0  0  0  0  0  0  0  0  0  0
  161.9190  210.4060  149.8840 C   0  0  0  0  0  2  0  0  0  0  0  0
  161.8600  212.5730  148.5240 C   0  0  2  0  0  3  0  0  0  0  0  0
  161.3750  211.4640  147.8040 O   0  0  0  0  0  0  0  0  0  0  0  0
  162.4380  211.2040  148.6900 C   0  0  2  0  0  3  0  0  0  0  0  0
  160.8260  212.9860  149.5650 C   0  0  0  0  0  2  0  0  0  0  0  0
  160.4030  214.4200  149.3150 C   0  0  0  0  0  2  0  0  0  0  0  0
  159.0440  214.4510  148.7970 N   0  0  0  0  0  0  0  0  0  0  0  0
  158.1660  213.4720  146.8440 N   0  0  0  0  0  2  0  0  0  0  0  0
  158.4330  213.2450  149.1710 N   0  0  0  0  0  2  0  0  0  0  0  0
  157.6350  212.8310  148.0310 C   0  0  0  0  0  2  0  0  0  0  0  0
  159.1460  214.4140  147.3490 C   0  0  0  0  0  2  0  0  0  0  0  0
  1  4  2  0  0  0  0
  1  7  1  0  0  0  0
  2  8  1  0  0  0  0
  3  9  2  0  0  0  0
  4  6  1  0  0  0  0
  5 16  1  0  0  0  0
  6  2  2  0  0  0  0
  6  3  1  0  0  0  0
  7 29  1  0  0  0  0
  7  3  1  0  0  0  0
  8  5  2  0  0  0  0
  9  5  1  0  0  0  0
 10 12  2  0  0  0  0
 10 11  1  0  0  0  0
 11 13  2  0  0  0  0
 12 15  1  0  0  0  0
 13 14  1  0  0  0  0
 14  4  1  0  0  0  0
 15 14  2  0  0  0  0
 16 17  1  0  0  0  0
 17 18  1  0  0  0  0
 19 23  1  0  0  0  0
 20 21  1  0  0  0  0
 21 25  2  0  0  0  0
 23 22  2  0  0  0  0
 23 18  1  0  0  0  0
 24 21  1  0  0  0  0
 24 19  2  0  0  0  0
 25 22  1  0  0  0  0
 25 28  1  0  0  0  0
 27 28  2  0  0  0  0
 28 26  1  0  0  0  0
 30 32  1  0  0  0  0
 30 33  1  1  0  0  0
 31 30  1  0  0  0  0
 31 32  1  0  0  0  0
 32 29  1  1  0  0  0
 34 33  1  0  0  0  0
 35 37  1  0  0  0  0
 35 34  1  0  0  0  0
 36 39  1  0  0  0  0
 36 38  1  0  0  0  0
 38 37  1  0  0  0  0
 39 35  1  0  0  0  0
M  END
>  <MODEL>
3

>  <REMARK>
 VINA RESULT:      -8.1      3.101      6.628
  Name = 
  11 active torsions:
  status: ('A' for Active; 'I' for Inactive)
    1  A    between atoms: N_1  and  C_11
    2  A    between atoms: N_2  and  C_6
    3  A    between atoms: N_2  and  C_26
    4  A    between atoms: C_6  and  S_16
    5  A    between atoms: C_9  and  C_33
    6  A    between atoms: C_11  and  C_28
    7  A    between atoms: C_12  and  S_16
    8  A    between atoms: C_15  and  C_28
    9  A    between atoms: C_18  and  N_19
   10  A    between atoms: C_18  and  C_39
   11  A    between atoms: C_31  and  C_34
                            x       y       z     vdW  Elec       q    Type
                         _______ _______ _______ _____ _____    ______ ____

>  <TORSDO>
F 11

$$$$
=
 OpenBabel11042421173D

 39 44  0  0  1  0  0  0  0  0999 V2000
  161.0610  206.5820  152.1590 C   0  0  0  0  0  3  0  0  0  0  0  0
  161.7350  207.6330  148.7780 C   0  0  0  0  0  3  0  0  0  0  0  0
  161.5050  208.4010  151.0560 C   0  0  0  0  0  0  0  0  0  0  0  0
  161.2020  206.2200  150.8170 C   0  0  0  0  0  0  0  0  0  0  0  0
  162.0220  209.9970  149.3440 C   0  0  0  0  0  0  0  0  0  0  0  0
  161.4860  207.3910  150.1300 C   0  0  0  0  0  0  0  0  0  0  0  0
  161.2420  207.9160  152.2820 N   0  0  0  0  0  0  0  0  0  0  0  0
  162.0060  208.9560  148.3900 C   0  0  0  0  0  3  0  0  0  0  0  0
  161.7730  209.7230  150.7000 C   0  0  0  0  0  3  0  0  0  0  0  0
  160.8440  202.2750  149.2460 C   0  0  0  0  0  3  0  0  0  0  0  0
  160.7970  202.4680  150.6280 C   0  0  0  0  0  3  0  0  0  0  0  0
  161.0040  203.3400  148.4160 N   0  0  0  0  0  0  0  0  0  0  0  0
  160.9140  203.7600  151.1400 C   0  0  0  0  0  3  0  0  0  0  0  0
  161.0780  204.8500  150.2740 C   0  0  0  0  0  0  0  0  0  0  0  0
  161.1200  204.6070  148.8950 C   0  0  0  0  0  3  0  0  0  0  0  0
  162.3760  211.6700  148.8250 S   0  0  0  0  0  0  0  0  0  0  0  0
  160.9870  211.6860  147.6530 C   0  0  0  0  0  2  0  0  0  0  0  0
  160.9970  212.9240  146.8870 N   0  0  0  0  0  2  0  0  0  0  0  0
  162.7610  213.3680  145.2210 C   0  0  0  0  0  3  0  0  0  0  0  0
  162.8050  213.2340  141.4590 C   0  0  0  0  0  1  0  0  0  0  0  0
  162.2840  213.1360  142.8530 C   0  0  0  0  0  0  0  0  0  0  0  0
  160.5540  212.7050  144.5000 C   0  0  0  0  0  3  0  0  0  0  0  0
  161.4460  213.0060  145.5310 C   0  0  0  0  0  0  0  0  0  0  0  0
  163.1740  213.4330  143.8900 C   0  0  0  0  0  3  0  0  0  0  0  0
  160.9490  212.7630  143.1530 C   0  0  0  0  0  0  0  0  0  0  0  0
  160.0930  211.3250  141.2850 O   0  0  0  0  0  0  0  0  0  0  0  0
  158.9180  213.1520  141.9770 O   0  0  0  0  0  1  0  0  0  0  0  0
  159.9420  212.4290  142.1150 C   0  0  0  0  0  0  0  0  0  0  0  0
  161.2180  208.6620  153.5310 C   0  0  0  0  0  2  0  0  0  0  0  0
  160.1600  208.4790  155.8550 C   0  0  2  0  0  3  0  0  0  0  0  0
  161.4830  207.9930  155.8170 O   0  0  0  0  0  0  0  0  0  0  0  0
  160.7120  207.7680  154.6600 C   0  0  2  0  0  3  0  0  0  0  0  0
  160.1840  210.0010  155.7880 C   0  0  0  0  0  2  0  0  0  0  0  0
  158.7670  210.5220  155.6430 C   0  0  0  0  0  2  0  0  0  0  0  0
  158.7620  211.7150  154.8110 N   0  0  0  0  0  0  0  0  0  0  0  0
  160.0980  212.2430  152.9460 N   0  0  0  0  0  2  0  0  0  0  0  0
  158.0150  211.4140  153.6620 N   0  0  0  0  0  2  0  0  0  0  0  0
  158.7170  212.0380  152.5540 C   0  0  0  0  0  2  0  0  0  0  0  0
  160.1270  211.9170  154.3580 C   0  0  0  0  0  2  0  0  0  0  0  0
  1  7  1  0  0  0  0
  2  6  1  0  0  0  0
  3  7  1  0  0  0  0
  4  1  2  0  0  0  0
  5  9  2  0  0  0  0
  6  4  1  0  0  0  0
  6  3  2  0  0  0  0
  7 29  1  0  0  0  0
  8  2  2  0  0  0  0
  8  5  1  0  0  0  0
  9  3  1  0  0  0  0
 10 11  1  0  0  0  0
 11 13  2  0  0  0  0
 12 15  1  0  0  0  0
 12 10  2  0  0  0  0
 14  4  1  0  0  0  0
 14 13  1  0  0  0  0
 15 14  2  0  0  0  0
 16  5  1  0  0  0  0
 17 16  1  0  0  0  0
 18 17  1  0  0  0  0
 19 23  1  0  0  0  0
 20 21  1  0  0  0  0
 21 25  2  0  0  0  0
 21 24  1  0  0  0  0
 22 23  2  0  0  0  0
 23 18  1  0  0  0  0
 24 19  2  0  0  0  0
 25 22  1  0  0  0  0
 26 28  2  0  0  0  0
 27 28  1  0  0  0  0
 28 25  1  0  0  0  0
 30 33  1  6  0  0  0
 31 30  1  0  0  0  0
 32 29  1  6  0  0  0
 32 31  1  0  0  0  0
 32 30  1  0  0  0  0
 34 33  1  0  0  0  0
 35 34  1  0  0  0  0
 36 39  1  0  0  0  0
 37 35  1  0  0  0  0
 38 36  1  0  0  0  0
 38 37  1  0  0  0  0
 39 35  1  0  0  0  0
M  END
>  <MODEL>
4

>  <REMARK>
 VINA RESULT:      -8.0      1.963      2.617
  Name = 
  11 active torsions:
  status: ('A' for Active; 'I' for Inactive)
    1  A    between atoms: N_1  and  C_11
    2  A    between atoms: N_2  and  C_6
    3  A    between atoms: N_2  and  C_26
    4  A    between atoms: C_6  and  S_16
    5  A    between atoms: C_9  and  C_33
    6  A    between atoms: C_11  and  C_28
    7  A    between atoms: C_12  and  S_16
    8  A    between atoms: C_15  and  C_28
    9  A    between atoms: C_18  and  N_19
   10  A    between atoms: C_18  and  C_39
   11  A    between atoms: C_31  and  C_34
                            x       y       z     vdW  Elec       q    Type
                         _______ _______ _______ _____ _____    ______ ____

>  <TORSDO>
F 11

$$$$
=
 OpenBabel11042421173D

 39 44  0  0  1  0  0  0  0  0999 V2000
  160.0120  212.2650  152.3100 C   0  0  0  0  0  3  0  0  0  0  0  0
  160.3390  209.1250  154.0470 C   0  0  0  0  0  3  0  0  0  0  0  0
  160.8600  210.2890  151.9970 C   0  0  0  0  0  0  0  0  0  0  0  0
  159.7430  211.5200  153.4610 C   0  0  0  0  0  0  0  0  0  0  0  0
  161.5730  208.0140  152.2490 C   0  0  0  0  0  0  0  0  0  0  0  0
  160.2920  210.2650  153.2440 C   0  0  0  0  0  0  0  0  0  0  0  0
  160.6870  211.4940  151.4280 N   0  0  0  0  0  0  0  0  0  0  0  0
  160.9910  207.9900  153.5340 C   0  0  0  0  0  3  0  0  0  0  0  0
  161.5150  209.1790  151.4630 C   0  0  0  0  0  3  0  0  0  0  0  0
  157.6790  212.9320  156.9110 C   0  0  0  0  0  3  0  0  0  0  0  0
  157.1310  211.8850  156.1670 C   0  0  0  0  0  3  0  0  0  0  0  0
  158.8600  213.4900  156.5320 N   0  0  0  0  0  0  0  0  0  0  0  0
  157.8090  211.4250  155.0380 C   0  0  0  0  0  3  0  0  0  0  0  0
  159.0250  212.0080  154.6570 C   0  0  0  0  0  0  0  0  0  0  0  0
  159.5350  213.0550  155.4360 C   0  0  0  0  0  3  0  0  0  0  0  0
  162.4010  206.5600  151.6220 S   0  0  0  0  0  0  0  0  0  0  0  0
  160.8300  205.7530  151.1920 C   0  0  0  0  0  2  0  0  0  0  0  0
  161.0340  204.3190  151.0430 N   0  0  0  0  0  2  0  0  0  0  0  0
  160.5540  202.3190  149.6800 C   0  0  0  0  0  3  0  0  0  0  0  0
  160.8320  201.6210  145.9920 C   0  0  0  0  0  1  0  0  0  0  0  0
  160.9020  202.3700  147.2800 C   0  0  0  0  0  0  0  0  0  0  0  0
  161.3750  204.3310  148.6290 C   0  0  0  0  0  3  0  0  0  0  0  0
  160.9890  203.6450  149.7810 C   0  0  0  0  0  0  0  0  0  0  0  0
  160.5130  201.6880  148.4380 C   0  0  0  0  0  3  0  0  0  0  0  0
  161.3410  203.7150  147.3670 C   0  0  0  0  0  0  0  0  0  0  0  0
  160.8510  205.2070  145.4100 O   0  0  0  0  0  0  0  0  0  0  0  0
  162.9890  204.5730  145.8810 O   0  0  0  0  0  1  0  0  0  0  0  0
  161.7680  204.5120  146.1890 C   0  0  0  0  0  0  0  0  0  0  0  0
  161.1840  211.9290  150.1310 C   0  0  0  0  0  2  0  0  0  0  0  0
  160.4830  213.5440  148.2720 C   0  0  2  0  0  3  0  0  0  0  0  0
  161.4760  214.0800  149.1160 O   0  0  0  0  0  0  0  0  0  0  0  0
  160.5250  213.2490  149.7380 C   0  0  2  0  0  3  0  0  0  0  0  0
  161.1110  212.4900  147.3680 C   0  0  0  0  0  2  0  0  0  0  0  0
  162.3300  213.0750  146.6820 C   0  0  0  0  0  2  0  0  0  0  0  0
  161.9610  213.5860  145.3710 N   0  0  0  0  0  0  0  0  0  0  0  0
  162.5740  212.8060  143.2360 N   0  0  0  0  0  2  0  0  0  0  0  0
  160.9080  212.7880  144.8980 N   0  0  0  0  0  2  0  0  0  0  0  0
  161.1620  212.5900  143.4820 C   0  0  0  0  0  2  0  0  0  0  0  0
  163.0840  213.3280  144.4880 C   0  0  0  0  0  2  0  0  0  0  0  0
  1  4  2  0  0  0  0
  3  6  1  0  0  0  0
  4 14  1  0  0  0  0
  5  8  2  0  0  0  0
  6  4  1  0  0  0  0
  6  2  2  0  0  0  0
  7  3  1  0  0  0  0
  7  1  1  0  0  0  0
  8  2  1  0  0  0  0
  9  3  2  0  0  0  0
  9  5  1  0  0  0  0
 11 10  2  0  0  0  0
 12 10  1  0  0  0  0
 13 11  1  0  0  0  0
 14 13  2  0  0  0  0
 14 15  1  0  0  0  0
 15 12  2  0  0  0  0
 16  5  1  0  0  0  0
 17 16  1  0  0  0  0
 18 17  1  0  0  0  0
 19 23  1  0  0  0  0
 20 21  1  0  0  0  0
 21 25  2  0  0  0  0
 21 24  1  0  0  0  0
 22 23  2  0  0  0  0
 23 18  1  0  0  0  0
 24 19  2  0  0  0  0
 25 22  1  0  0  0  0
 26 28  2  0  0  0  0
 27 28  1  0  0  0  0
 28 25  1  0  0  0  0
 29  7  1  0  0  0  0
 30 33  1  6  0  0  0
 30 31  1  0  0  0  0
 30 32  1  0  0  0  0
 31 32  1  0  0  0  0
 32 29  1  6  0  0  0
 34 33  1  0  0  0  0
 35 34  1  0  0  0  0
 36 38  1  0  0  0  0
 36 39  1  0  0  0  0
 37 35  1  0  0  0  0
 38 37  1  0  0  0  0
 39 35  1  0  0  0  0
M  END
>  <MODEL>
5

>  <REMARK>
 VINA RESULT:      -7.8      2.947      9.351
  Name = 
  11 active torsions:
  status: ('A' for Active; 'I' for Inactive)
    1  A    between atoms: N_1  and  C_11
    2  A    between atoms: N_2  and  C_6
    3  A    between atoms: N_2  and  C_26
    4  A    between atoms: C_6  and  S_16
    5  A    between atoms: C_9  and  C_33
    6  A    between atoms: C_11  and  C_28
    7  A    between atoms: C_12  and  S_16
    8  A    between atoms: C_15  and  C_28
    9  A    between atoms: C_18  and  N_19
   10  A    between atoms: C_18  and  C_39
   11  A    between atoms: C_31  and  C_34
                            x       y       z     vdW  Elec       q    Type
                         _______ _______ _______ _____ _____    ______ ____

>  <TORSDO>
F 11

$$$$
=
 OpenBabel11042421173D

 39 44  0  0  1  0  0  0  0  0999 V2000
  160.8350  211.0330  151.6470 C   0  0  0  0  0  3  0  0  0  0  0  0
  160.7050  208.2290  153.9060 C   0  0  0  0  0  3  0  0  0  0  0  0
  161.3820  208.9310  151.6970 C   0  0  0  0  0  0  0  0  0  0  0  0
  160.4650  210.5460  152.9030 C   0  0  0  0  0  0  0  0  0  0  0  0
  161.7540  206.6550  152.3520 C   0  0  0  0  0  0  0  0  0  0  0  0
  160.8220  209.2060  152.9180 C   0  0  0  0  0  0  0  0  0  0  0  0
  161.3850  210.0310  150.9250 N   0  0  0  0  0  0  0  0  0  0  0  0
  161.1810  206.9400  153.6100 C   0  0  0  0  0  3  0  0  0  0  0  0
  161.8640  207.6620  151.3760 C   0  0  0  0  0  3  0  0  0  0  0  0
  158.6330  212.8180  156.0080 C   0  0  0  0  0  3  0  0  0  0  0  0
  159.9870  212.4940  156.1060 C   0  0  0  0  0  3  0  0  0  0  0  0
  157.9120  212.4090  154.9300 N   0  0  0  0  0  0  0  0  0  0  0  0
  160.5850  211.7500  155.0880 C   0  0  0  0  0  3  0  0  0  0  0  0
  159.8320  211.3340  153.9830 C   0  0  0  0  0  0  0  0  0  0  0  0
  158.4760  211.6840  153.9280 C   0  0  0  0  0  3  0  0  0  0  0  0
  162.3570  205.0090  152.0030 S   0  0  0  0  0  0  0  0  0  0  0  0
  160.6740  204.3450  151.8220 C   0  0  0  0  0  2  0  0  0  0  0  0
  160.6860  203.2020  150.9200 N   0  0  0  0  0  2  0  0  0  0  0  0
  161.0070  202.1810  148.6980 C   0  0  0  0  0  3  0  0  0  0  0  0
  161.5360  203.6470  145.2710 C   0  0  0  0  0  1  0  0  0  0  0  0
  161.3130  203.5870  146.7450 C   0  0  0  0  0  0  0  0  0  0  0  0
  161.0010  204.5830  148.9360 C   0  0  0  0  0  3  0  0  0  0  0  0
  160.9040  203.3150  149.5100 C   0  0  0  0  0  0  0  0  0  0  0  0
  161.2120  202.3190  147.3250 C   0  0  0  0  0  3  0  0  0  0  0  0
  161.2060  204.7460  147.5560 C   0  0  0  0  0  0  0  0  0  0  0  0
  160.4550  206.5760  146.0130 O   0  0  0  0  0  0  0  0  0  0  0  0
  162.1550  206.9260  147.4900 O   0  0  0  0  0  1  0  0  0  0  0  0
  161.2990  206.1280  147.0220 C   0  0  0  0  0  0  0  0  0  0  0  0
  161.9340  210.1570  149.5830 C   0  0  0  0  0  2  0  0  0  0  0  0
  162.0280  212.3980  148.3500 C   0  0  2  0  0  3  0  0  0  0  0  0
  163.1770  211.6100  148.1390 O   0  0  0  0  0  0  0  0  0  0  0  0
  162.5980  211.5220  149.4200 C   0  0  2  0  0  3  0  0  0  0  0  0
  160.8650  211.8080  147.5620 C   0  0  0  0  0  2  0  0  0  0  0  0
  160.6560  212.6110  146.2930 C   0  0  0  0  0  2  0  0  0  0  0  0
  159.3700  213.2880  146.3430 N   0  0  0  0  0  0  0  0  0  0  0  0
  157.2080  212.4140  146.0180 N   0  0  0  0  0  2  0  0  0  0  0  0
  158.8230  213.0410  147.6110 N   0  0  0  0  0  2  0  0  0  0  0  0
  157.4040  212.8160  147.3970 C   0  0  0  0  0  2  0  0  0  0  0  0
  158.5020  212.6110  145.3960 C   0  0  0  0  0  2  0  0  0  0  0  0
  1  4  2  0  0  0  0
  3  6  1  0  0  0  0
  4  6  1  0  0  0  0
  4 14  1  0  0  0  0
  5  8  2  0  0  0  0
  6  2  2  0  0  0  0
  7  1  1  0  0  0  0
  7  3  1  0  0  0  0
  8  2  1  0  0  0  0
  9  3  2  0  0  0  0
  9  5  1  0  0  0  0
 10 11  1  0  0  0  0
 12 10  2  0  0  0  0
 13 11  2  0  0  0  0
 14 13  1  0  0  0  0
 15 14  2  0  0  0  0
 15 12  1  0  0  0  0
 16  5  1  0  0  0  0
 17 16  1  0  0  0  0
 18 17  1  0  0  0  0
 19 23  1  0  0  0  0
 20 21  1  0  0  0  0
 21 24  1  0  0  0  0
 21 25  2  0  0  0  0
 22 23  2  0  0  0  0
 23 18  1  0  0  0  0
 24 19  2  0  0  0  0
 25 22  1  0  0  0  0
 26 28  2  0  0  0  0
 28 27  1  0  0  0  0
 28 25  1  0  0  0  0
 29  7  1  0  0  0  0
 30 33  1  6  0  0  0
 30 32  1  0  0  0  0
 31 30  1  0  0  0  0
 31 32  1  0  0  0  0
 32 29  1  6  0  0  0
 34 35  1  0  0  0  0
 34 33  1  0  0  0  0
 35 37  1  0  0  0  0
 36 38  1  0  0  0  0
 38 37  1  0  0  0  0
 39 36  1  0  0  0  0
 39 35  1  0  0  0  0
M  END
>  <MODEL>
6

>  <REMARK>
 VINA RESULT:      -7.8      2.818      8.505
  Name = 
  11 active torsions:
  status: ('A' for Active; 'I' for Inactive)
    1  A    between atoms: N_1  and  C_11
    2  A    between atoms: N_2  and  C_6
    3  A    between atoms: N_2  and  C_26
    4  A    between atoms: C_6  and  S_16
    5  A    between atoms: C_9  and  C_33
    6  A    between atoms: C_11  and  C_28
    7  A    between atoms: C_12  and  S_16
    8  A    between atoms: C_15  and  C_28
    9  A    between atoms: C_18  and  N_19
   10  A    between atoms: C_18  and  C_39
   11  A    between atoms: C_31  and  C_34
                            x       y       z     vdW  Elec       q    Type
                         _______ _______ _______ _____ _____    ______ ____

>  <TORSDO>
F 11

$$$$
=
 OpenBabel11042421173D

 39 44  0  0  1  0  0  0  0  0999 V2000
  160.4790  211.8740  151.9160 C   0  0  0  0  0  3  0  0  0  0  0  0
  161.9590  208.9130  150.4910 C   0  0  0  0  0  3  0  0  0  0  0  0
  160.8150  209.7890  152.4280 C   0  0  0  0  0  0  0  0  0  0  0  0
  161.1500  211.2920  150.8370 C   0  0  0  0  0  0  0  0  0  0  0  0
  161.4460  207.4770  152.4050 C   0  0  0  0  0  0  0  0  0  0  0  0
  161.3550  209.9640  151.1810 C   0  0  0  0  0  0  0  0  0  0  0  0
  160.2910  210.9420  152.8770 N   0  0  0  0  0  0  0  0  0  0  0  0
  162.0000  207.6570  151.1190 C   0  0  0  0  0  3  0  0  0  0  0  0
  160.8390  208.5530  153.0750 C   0  0  0  0  0  3  0  0  0  0  0  0
  162.2790  213.2780  147.2400 C   0  0  0  0  0  3  0  0  0  0  0  0
  161.1980  213.7630  147.9780 C   0  0  0  0  0  3  0  0  0  0  0  0
  162.9610  212.1830  147.6700 N   0  0  0  0  0  0  0  0  0  0  0  0
  160.8310  213.1110  149.1560 C   0  0  0  0  0  3  0  0  0  0  0  0
  161.5400  211.9830  149.5890 C   0  0  0  0  0  0  0  0  0  0  0  0
  162.6180  211.5340  148.8150 C   0  0  0  0  0  3  0  0  0  0  0  0
  161.5060  205.8670  153.1800 S   0  0  0  0  0  0  0  0  0  0  0  0
  162.0230  205.0560  151.6380 C   0  0  0  0  0  2  0  0  0  0  0  0
  160.9980  204.1180  151.2030 N   0  0  0  0  0  2  0  0  0  0  0  0
  160.5500  202.2210  149.6910 C   0  0  0  0  0  3  0  0  0  0  0  0
  160.8390  201.8100  145.9600 C   0  0  0  0  0  1  0  0  0  0  0  0
  160.8970  202.4590  147.3020 C   0  0  0  0  0  0  0  0  0  0  0  0
  161.3390  204.3200  148.7970 C   0  0  0  0  0  3  0  0  0  0  0  0
  160.9640  203.5410  149.8930 C   0  0  0  0  0  0  0  0  0  0  0  0
  160.5200  201.6850  148.4040 C   0  0  0  0  0  3  0  0  0  0  0  0
  161.3140  203.8020  147.4920 C   0  0  0  0  0  0  0  0  0  0  0  0
  162.9840  204.5910  145.7940 O   0  0  0  0  0  0  0  0  0  0  0  0
  160.9270  205.5630  145.9390 O   0  0  0  0  0  1  0  0  0  0  0  0
  161.7280  204.6930  146.3790 C   0  0  0  0  0  0  0  0  0  0  0  0
  159.5880  211.1540  154.1340 C   0  0  0  0  0  2  0  0  0  0  0  0
  160.0100  211.7830  156.5790 C   0  0  2  0  0  3  0  0  0  0  0  0
  160.0830  212.8900  155.7100 O   0  0  0  0  0  0  0  0  0  0  0  0
  160.5600  211.6700  155.1930 C   0  0  2  0  0  3  0  0  0  0  0  0
  158.5520  211.3750  156.7480 C   0  0  0  0  0  2  0  0  0  0  0  0
  157.7400  212.5760  157.1930 C   0  0  0  0  0  2  0  0  0  0  0  0
  156.4350  212.5540  156.5520 N   0  0  0  0  0  0  0  0  0  0  0  0
  155.8950  212.3690  154.2670 N   0  0  0  0  0  2  0  0  0  0  0  0
  156.1190  211.2100  156.3030 N   0  0  0  0  0  2  0  0  0  0  0  0
  155.4890  211.1830  154.9940 C   0  0  0  0  0  2  0  0  0  0  0  0
  156.5980  213.1730  155.2480 C   0  0  0  0  0  2  0  0  0  0  0  0
  1  7  1  0  0  0  0
  2  8  2  0  0  0  0
  2  6  1  0  0  0  0
  3  7  1  0  0  0  0
  3  9  1  0  0  0  0
  4  6  1  0  0  0  0
  4  1  2  0  0  0  0
  5  9  2  0  0  0  0
  5 16  1  0  0  0  0
  6  3  2  0  0  0  0
  7 29  1  0  0  0  0
  8  5  1  0  0  0  0
 10 12  2  0  0  0  0
 10 11  1  0  0  0  0
 11 13  2  0  0  0  0
 12 15  1  0  0  0  0
 13 14  1  0  0  0  0
 14  4  1  0  0  0  0
 15 14  2  0  0  0  0
 17 16  1  0  0  0  0
 18 17  1  0  0  0  0
 19 23  1  0  0  0  0
 20 21  1  0  0  0  0
 21 25  2  0  0  0  0
 21 24  1  0  0  0  0
 22 23  2  0  0  0  0
 23 18  1  0  0  0  0
 24 19  2  0  0  0  0
 25 22  1  0  0  0  0
 26 28  2  0  0  0  0
 27 28  1  0  0  0  0
 28 25  1  0  0  0  0
 30 33  1  6  0  0  0
 31 30  1  0  0  0  0
 32 29  1  6  0  0  0
 32 31  1  0  0  0  0
 32 30  1  0  0  0  0
 33 34  1  0  0  0  0
 35 34  1  0  0  0  0
 36 38  1  0  0  0  0
 36 39  1  0  0  0  0
 37 35  1  0  0  0  0
 38 37  1  0  0  0  0
 39 35  1  0  0  0  0
M  END
>  <MODEL>
7

>  <REMARK>
 VINA RESULT:      -7.7      3.022      7.664
  Name = 
  11 active torsions:
  status: ('A' for Active; 'I' for Inactive)
    1  A    between atoms: N_1  and  C_11
    2  A    between atoms: N_2  and  C_6
    3  A    between atoms: N_2  and  C_26
    4  A    between atoms: C_6  and  S_16
    5  A    between atoms: C_9  and  C_33
    6  A    between atoms: C_11  and  C_28
    7  A    between atoms: C_12  and  S_16
    8  A    between atoms: C_15  and  C_28
    9  A    between atoms: C_18  and  N_19
   10  A    between atoms: C_18  and  C_39
   11  A    between atoms: C_31  and  C_34
                            x       y       z     vdW  Elec       q    Type
                         _______ _______ _______ _____ _____    ______ ____

>  <TORSDO>
F 11

$$$$
=
 OpenBabel11042421173D

 39 44  0  0  1  0  0  0  0  0999 V2000
  161.3340  207.3420  149.2520 C   0  0  0  0  0  3  0  0  0  0  0  0
  161.2040  205.2600  152.1910 C   0  0  0  0  0  3  0  0  0  0  0  0
  161.3050  207.5440  151.4160 C   0  0  0  0  0  0  0  0  0  0  0  0
  161.2840  206.0500  149.7820 C   0  0  0  0  0  0  0  0  0  0  0  0
  161.2330  207.1260  153.7750 C   0  0  0  0  0  0  0  0  0  0  0  0
  161.2640  206.1990  151.1610 C   0  0  0  0  0  0  0  0  0  0  0  0
  161.3540  208.2370  150.2650 N   0  0  0  0  0  0  0  0  0  0  0  0
  161.1880  205.7400  153.5120 C   0  0  0  0  0  3  0  0  0  0  0  0
  161.2880  208.0490  152.7160 C   0  0  0  0  0  3  0  0  0  0  0  0
  161.1820  202.4430  147.5160 C   0  0  0  0  0  3  0  0  0  0  0  0
  160.7960  202.4180  148.8570 C   0  0  0  0  0  3  0  0  0  0  0  0
  161.5850  203.6090  146.9440 N   0  0  0  0  0  0  0  0  0  0  0  0
  160.8310  203.6010  149.5970 C   0  0  0  0  0  3  0  0  0  0  0  0
  161.2480  204.7960  148.9980 C   0  0  0  0  0  0  0  0  0  0  0  0
  161.6240  204.7710  147.6490 C   0  0  0  0  0  3  0  0  0  0  0  0
  161.2060  207.7100  155.4640 S   0  0  0  0  0  0  0  0  0  0  0  0
  161.3600  209.4470  154.9490 C   0  0  0  0  0  2  0  0  0  0  0  0
  160.5290  210.2910  155.7960 N   0  0  0  0  0  2  0  0  0  0  0  0
  158.2500  211.2000  156.0540 C   0  0  0  0  0  3  0  0  0  0  0  0
  156.1000  213.3540  153.8390 C   0  0  0  0  0  1  0  0  0  0  0  0
  157.2810  212.5690  154.3020 C   0  0  0  0  0  0  0  0  0  0  0  0
  159.5210  211.6680  154.0550 C   0  0  0  0  0  3  0  0  0  0  0  0
  159.4220  211.0520  155.3040 C   0  0  0  0  0  0  0  0  0  0  0  0
  157.1890  211.9520  155.5530 C   0  0  0  0  0  3  0  0  0  0  0  0
  158.4650  212.4320  153.5330 C   0  0  0  0  0  0  0  0  0  0  0  0
  159.4770  214.1550  152.0170 O   0  0  0  0  0  1  0  0  0  0  0  0
  158.0470  212.5820  151.1950 O   0  0  0  0  0  0  0  0  0  0  0  0
  158.6480  213.0560  152.1980 C   0  0  0  0  0  0  0  0  0  0  0  0
  161.3600  209.6850  150.1150 C   0  0  0  0  0  2  0  0  0  0  0  0
  162.3000  211.5290  148.6090 C   0  0  2  0  0  3  0  0  0  0  0  0
  161.6050  210.5370  147.8880 O   0  0  0  0  0  0  0  0  0  0  0  0
  162.3320  210.0880  149.0080 C   0  0  2  0  0  3  0  0  0  0  0  0
  161.2980  212.4010  149.3560 C   0  0  0  0  0  2  0  0  0  0  0  0
  161.4390  213.8390  148.8960 C   0  0  0  0  0  2  0  0  0  0  0  0
  160.3270  214.1900  148.0270 N   0  0  0  0  0  0  0  0  0  0  0  0
  159.7930  213.3800  145.8820 N   0  0  0  0  0  2  0  0  0  0  0  0
  159.3490  213.1960  148.1850 N   0  0  0  0  0  2  0  0  0  0  0  0
  158.8130  212.9480  146.8590 C   0  0  0  0  0  2  0  0  0  0  0  0
  160.8050  214.0650  146.6620 C   0  0  0  0  0  2  0  0  0  0  0  0
  1  4  2  0  0  0  0
  1  7  1  0  0  0  0
  2  8  1  0  0  0  0
  3  9  2  0  0  0  0
  4  6  1  0  0  0  0
  5 16  1  0  0  0  0
  6  3  1  0  0  0  0
  6  2  2  0  0  0  0
  7  3  1  0  0  0  0
  8  5  2  0  0  0  0
  9  5  1  0  0  0  0
 10 11  1  0  0  0  0
 11 13  2  0  0  0  0
 12 10  2  0  0  0  0
 12 15  1  0  0  0  0
 14 13  1  0  0  0  0
 14  4  1  0  0  0  0
 15 14  2  0  0  0  0
 17 16  1  0  0  0  0
 17 18  1  0  0  0  0
 20 21  1  0  0  0  0
 21 24  2  0  0  0  0
 22 23  1  0  0  0  0
 23 18  1  0  0  0  0
 23 19  2  0  0  0  0
 24 19  1  0  0  0  0
 25 22  2  0  0  0  0
 25 21  1  0  0  0  0
 26 28  1  0  0  0  0
 27 28  2  0  0  0  0
 28 25  1  0  0  0  0
 29  7  1  0  0  0  0
 30 32  1  0  0  0  0
 30 33  1  1  0  0  0
 31 30  1  0  0  0  0
 31 32  1  0  0  0  0
 32 29  1  1  0  0  0
 34 33  1  0  0  0  0
 35 37  1  0  0  0  0
 35 34  1  0  0  0  0
 36 39  1  0  0  0  0
 36 38  1  0  0  0  0
 38 37  1  0  0  0  0
 39 35  1  0  0  0  0
M  END
>  <MODEL>
8

>  <REMARK>
 VINA RESULT:      -7.7      2.491      6.434
  Name = 
  11 active torsions:
  status: ('A' for Active; 'I' for Inactive)
    1  A    between atoms: N_1  and  C_11
    2  A    between atoms: N_2  and  C_6
    3  A    between atoms: N_2  and  C_26
    4  A    between atoms: C_6  and  S_16
    5  A    between atoms: C_9  and  C_33
    6  A    between atoms: C_11  and  C_28
    7  A    between atoms: C_12  and  S_16
    8  A    between atoms: C_15  and  C_28
    9  A    between atoms: C_18  and  N_19
   10  A    between atoms: C_18  and  C_39
   11  A    between atoms: C_31  and  C_34
                            x       y       z     vdW  Elec       q    Type
                         _______ _______ _______ _____ _____    ______ ____

>  <TORSDO>
F 11

$$$$
=
 OpenBabel11042421173D

 39 44  0  0  1  0  0  0  0  0999 V2000
  160.6170  212.5390  151.0160 C   0  0  0  0  0  3  0  0  0  0  0  0
  161.9560  209.3640  149.9590 C   0  0  0  0  0  3  0  0  0  0  0  0
  160.9340  210.5390  151.8040 C   0  0  0  0  0  0  0  0  0  0  0  0
  161.2190  211.7910  150.0010 C   0  0  0  0  0  0  0  0  0  0  0  0
  161.5130  208.2290  152.0810 C   0  0  0  0  0  0  0  0  0  0  0  0
  161.4120  210.5200  150.5200 C   0  0  0  0  0  0  0  0  0  0  0  0
  160.4590  211.7580  152.1090 N   0  0  0  0  0  0  0  0  0  0  0  0
  162.0030  208.2090  150.7570 C   0  0  0  0  0  3  0  0  0  0  0  0
  160.9650  209.4070  152.6200 C   0  0  0  0  0  3  0  0  0  0  0  0
  162.2030  213.2200  146.1080 C   0  0  0  0  0  3  0  0  0  0  0  0
  160.8620  213.0330  146.4500 C   0  0  0  0  0  3  0  0  0  0  0  0
  163.1800  212.9460  147.0140 N   0  0  0  0  0  0  0  0  0  0  0  0
  160.5430  212.5650  147.7240 C   0  0  0  0  0  3  0  0  0  0  0  0
  161.5570  212.2860  148.6490 C   0  0  0  0  0  0  0  0  0  0  0  0
  162.8880  212.4900  148.2610 C   0  0  0  0  0  3  0  0  0  0  0  0
  161.5790  206.7440  153.0740 S   0  0  0  0  0  0  0  0  0  0  0  0
  162.1570  205.7380  151.6760 C   0  0  0  0  0  2  0  0  0  0  0  0
  161.0850  204.8660  151.2160 N   0  0  0  0  0  2  0  0  0  0  0  0
  160.8470  202.8710  149.7840 C   0  0  0  0  0  3  0  0  0  0  0  0
  161.0250  202.3710  146.0580 C   0  0  0  0  0  1  0  0  0  0  0  0
  161.0500  203.0700  147.3750 C   0  0  0  0  0  0  0  0  0  0  0  0
  161.2870  205.0270  148.7920 C   0  0  0  0  0  3  0  0  0  0  0  0
  161.0760  204.2430  149.9270 C   0  0  0  0  0  0  0  0  0  0  0  0
  160.8350  202.2910  148.5160 C   0  0  0  0  0  3  0  0  0  0  0  0
  161.2790  204.4640  147.5050 C   0  0  0  0  0  0  0  0  0  0  0  0
  162.7050  205.3400  145.6360 O   0  0  0  0  0  0  0  0  0  0  0  0
  160.6110  206.1690  145.9860 O   0  0  0  0  0  1  0  0  0  0  0  0
  161.5120  205.3630  146.3470 C   0  0  0  0  0  0  0  0  0  0  0  0
  159.8280  212.1660  153.3550 C   0  0  0  0  0  2  0  0  0  0  0  0
  157.5340  212.7020  154.3550 C   0  0  2  0  0  3  0  0  0  0  0  0
  157.5990  211.4070  153.8030 O   0  0  0  0  0  0  0  0  0  0  0  0
  158.3360  212.4010  153.1300 C   0  0  2  0  0  3  0  0  0  0  0  0
  158.3110  212.7270  155.6660 C   0  0  0  0  0  2  0  0  0  0  0  0
  158.0240  211.4600  156.4470 C   0  0  0  0  0  2  0  0  0  0  0  0
  159.2440  210.9820  157.0780 N   0  0  0  0  0  0  0  0  0  0  0  0
  161.1370  209.9770  156.1020 N   0  0  0  0  0  2  0  0  0  0  0  0
  160.2130  211.9830  156.9140 N   0  0  0  0  0  2  0  0  0  0  0  0
  161.4570  211.2920  156.6210 C   0  0  0  0  0  2  0  0  0  0  0  0
  159.7060  209.8490  156.2950 C   0  0  0  0  0  2  0  0  0  0  0  0
  1  7  1  0  0  0  0
  2  6  2  0  0  0  0
  2  8  1  0  0  0  0
  3  7  1  0  0  0  0
  3  9  2  0  0  0  0
  4  6  1  0  0  0  0
  4  1  2  0  0  0  0
  5  9  1  0  0  0  0
  5 16  1  0  0  0  0
  6  3  1  0  0  0  0
  7 29  1  0  0  0  0
  8  5  2  0  0  0  0
 10 11  2  0  0  0  0
 10 12  1  0  0  0  0
 11 13  1  0  0  0  0
 12 15  2  0  0  0  0
 13 14  2  0  0  0  0
 14  4  1  0  0  0  0
 15 14  1  0  0  0  0
 17 16  1  0  0  0  0
 18 17  1  0  0  0  0
 19 23  1  0  0  0  0
 20 21  1  0  0  0  0
 21 25  2  0  0  0  0
 21 24  1  0  0  0  0
 22 23  2  0  0  0  0
 23 18  1  0  0  0  0
 24 19  2  0  0  0  0
 25 22  1  0  0  0  0
 26 28  2  0  0  0  0
 27 28  1  0  0  0  0
 28 25  1  0  0  0  0
 30 33  1  1  0  0  0
 31 30  1  0  0  0  0
 32 29  1  1  0  0  0
 32 31  1  0  0  0  0
 32 30  1  0  0  0  0
 33 34  1  0  0  0  0
 34 35  1  0  0  0  0
 36 39  1  0  0  0  0
 36 38  1  0  0  0  0
 37 35  1  0  0  0  0
 38 37  1  0  0  0  0
 39 35  1  0  0  0  0
M  END
>  <MODEL>
9

>  <REMARK>
 VINA RESULT:      -7.6      2.664      7.508
  Name = 
  11 active torsions:
  status: ('A' for Active; 'I' for Inactive)
    1  A    between atoms: N_1  and  C_11
    2  A    between atoms: N_2  and  C_6
    3  A    between atoms: N_2  and  C_26
    4  A    between atoms: C_6  and  S_16
    5  A    between atoms: C_9  and  C_33
    6  A    between atoms: C_11  and  C_28
    7  A    between atoms: C_12  and  S_16
    8  A    between atoms: C_15  and  C_28
    9  A    between atoms: C_18  and  N_19
   10  A    between atoms: C_18  and  C_39
   11  A    between atoms: C_31  and  C_34
                            x       y       z     vdW  Elec       q    Type
                         _______ _______ _______ _____ _____    ______ ____

>  <TORSDO>
F 11

$$$$
