=
 OpenBabel11042420573D

 46 51  0  0  1  0  0  0  0  0999 V2000
  161.7320  207.4750  150.7030 N   0  0  0  0  0  2  0  0  0  0  0  0
  162.1790  209.2390  149.1310 C   0  0  1  0  0  3  0  0  0  0  0  0
  162.9380  209.8690  150.6480 S   0  0  0  0  0  0  0  0  0  0  0  0
  161.2130  208.1440  149.5190 C   0  0  1  0  0  3  0  0  0  0  0  0
  162.2090  208.5080  151.6150 C   0  0  1  0  0  3  0  0  0  0  0  0
  161.3340  210.4470  152.9360 C   0  0  2  0  0  3  0  0  0  0  0  0
  160.5560  211.3410  152.1930 O   0  0  0  0  0  1  0  0  0  0  0  0
  161.2120  209.0550  154.8640 C   0  0  0  0  0  2  0  0  0  0  0  0
  161.0730  209.0140  152.5070 C   0  0  2  0  0  3  0  0  0  0  0  0
  160.9660  208.1890  153.7120 N   0  0  0  0  0  2  0  0  0  0  0  0
  161.0220  210.4890  154.4200 C   0  0  2  0  0  3  0  0  0  0  0  0
  158.6520  210.9650  153.8370 C   0  0  0  0  0  3  0  0  0  0  0  0
  157.2530  211.4320  154.1230 C   0  0  0  0  0  2  0  0  0  0  0  0
  159.6330  210.9950  154.7630 C   0  0  0  0  0  0  0  0  0  0  0  0
  159.3450  211.3850  156.2060 C   0  0  2  0  0  3  0  0  0  0  0  0
  157.9450  211.9690  156.4310 C   0  0  0  0  0  2  0  0  0  0  0  0
  156.9080  211.2370  155.5930 C   0  0  1  0  0  3  0  0  0  0  0  0
  155.5370  211.8180  155.8640 C   0  0  0  0  0  1  0  0  0  0  0  0
  160.3750  212.3340  156.7320 C   0  0  0  0  0  0  0  0  0  0  0  0
  161.4340  211.8870  157.2420 O   0  0  0  0  0  1  0  0  0  0  0  0
  160.1710  213.7060  156.6550 O   0  0  0  0  0  0  0  0  0  0  0  0
  161.4400  210.3600  148.4190 C   0  0  0  0  0  2  0  0  0  0  0  0
  162.0910  211.6980  148.7120 C   0  0  0  0  0  2  0  0  0  0  0  0
  162.4220  212.4140  147.4060 C   0  0  1  0  0  3  0  0  0  0  0  0
  160.4410  213.9860  148.0880 C   0  0  0  0  0  1  0  0  0  0  0  0
  161.5480  213.5810  147.1180 C   0  0  1  0  0  0  0  0  0  0  0  0
  162.8240  213.7380  147.6860 O   0  0  0  0  0  0  0  0  0  0  0  0
  160.4600  214.3060  143.2180 S   0  0  0  0  0  0  0  0  0  0  0  0
  162.0350  213.3990  143.1120 C   0  0  2  0  0  3  0  0  0  0  0  0
  162.9370  213.4300  144.6970 S   0  0  0  0  0  0  0  0  0  0  0  0
  161.5130  214.0340  145.6580 C   0  0  1  0  0  3  0  0  0  0  0  0
  160.2010  213.7850  144.9290 C   0  0  2  0  0  3  0  0  0  0  0  0
  162.8980  213.9950  142.0180 C   0  0  0  0  0  1  0  0  0  0  0  0
  159.7630  212.3270  144.9590 C   0  0  0  0  0  1  0  0  0  0  0  0
  161.0890  207.1490  148.3740 C   0  0  0  0  0  2  0  0  0  0  0  0
  161.2780  204.6040  148.0390 C   0  0  0  0  0  0  0  0  0  0  0  0
  160.5290  204.2940  150.7570 C   0  0  0  0  0  3  0  0  0  0  0  0
  160.6660  205.5640  150.2140 C   0  0  0  0  0  3  0  0  0  0  0  0
  161.0180  205.7360  148.8730 C   0  0  0  0  0  0  0  0  0  0  0  0
  160.7280  203.1760  149.9560 C   0  0  0  0  0  3  0  0  0  0  0  0
  161.0830  203.3100  148.6140 C   0  0  0  0  0  0  0  0  0  0  0  0
  161.1910  202.0330  147.8480 C   0  0  0  0  0  1  0  0  0  0  0  0
  161.1210  203.7080  145.6800 C   0  0  0  0  0  1  0  0  0  0  0  0
  161.2460  206.0110  146.0440 O   0  0  0  0  0  1  0  0  0  0  0  0
  161.6950  204.8010  146.5690 C   0  0  0  0  0  0  0  0  0  0  0  0
  163.2080  204.7810  146.4630 C   0  0  0  0  0  1  0  0  0  0  0  0
  1  5  1  0  0  0  0
  2 22  1  1  0  0  0
  2  4  1  0  0  0  0
  2  3  1  0  0  0  0
  4 35  1  6  0  0  0
  4  1  1  0  0  0  0
  5  3  1  6  0  0  0
  5  9  1  0  0  0  0
  6  7  1  6  0  0  0
  6 11  1  0  0  0  0
  9  6  1  0  0  0  0
  9 10  1  1  0  0  0
 10  8  1  0  0  0  0
 11 14  1  6  0  0  0
 11  8  1  0  0  0  0
 12 13  1  0  0  0  0
 12 14  2  0  0  0  0
 13 17  1  0  0  0  0
 14 15  1  0  0  0  0
 15 16  1  0  0  0  0
 15 19  1  6  0  0  0
 17 18  1  6  0  0  0
 17 16  1  0  0  0  0
 19 20  1  0  0  0  0
 21 19  2  0  0  0  0
 22 23  1  0  0  0  0
 24 27  1  0  0  0  0
 24 23  1  1  0  0  0
 26 24  1  0  0  0  0
 26 27  1  0  0  0  0
 26 25  1  1  0  0  0
 28 32  1  0  0  0  0
 29 33  1  6  0  0  0
 29 28  1  0  0  0  0
 29 30  1  0  0  0  0
 31 30  1  6  0  0  0
 31 26  1  0  0  0  0
 32 34  1  6  0  0  0
 32 31  1  0  0  0  0
 35 39  1  0  0  0  0
 36 41  2  0  0  0  0
 36 39  1  0  0  0  0
 38 37  1  0  0  0  0
 39 38  2  0  0  0  0
 40 37  2  0  0  0  0
 41 40  1  0  0  0  0
 42 41  1  0  0  0  0
 43 45  1  0  0  0  0
 44 45  1  0  0  0  0
 45 36  1  0  0  0  0
 46 45  1  0  0  0  0
M  END
>  <MODEL>
1

>  <REMARK>
 VINA RESULT:      -8.6      0.000      0.000
  Name = 
  10 active torsions:
  status: ('A' for Active; 'I' for Inactive)
    1  A    between atoms: C_8  and  C_10
    2  A    between atoms: C_9  and  C_23
    3  A    between atoms: C_10  and  C_12
    4  A    between atoms: C_12  and  C_16
    5  A    between atoms: C_15  and  C_26
    6  A    between atoms: C_18  and  C_43
    7  A    between atoms: C_19  and  C_45
    8  A    between atoms: C_22  and  C_42
    9  A    between atoms: C_25  and  C_29
   10  A    between atoms: C_29  and  C_41
                            x       y       z     vdW  Elec       q    Type
                         _______ _______ _______ _____ _____    ______ ____

>  <TORSDO>
F 10

$$$$
=
 OpenBabel11042420573D

 46 51  0  0  1  0  0  0  0  0999 V2000
  161.7680  207.7440  151.0860 N   0  0  0  0  0  2  0  0  0  0  0  0
  162.1670  209.4500  149.4400 C   0  0  1  0  0  3  0  0  0  0  0  0
  162.9170  210.1620  150.9250 S   0  0  0  0  0  0  0  0  0  0  0  0
  161.2290  208.3500  149.8780 C   0  0  1  0  0  3  0  0  0  0  0  0
  162.2240  208.8250  151.9520 C   0  0  1  0  0  3  0  0  0  0  0  0
  160.7790  210.7940  152.5050 C   0  0  2  0  0  3  0  0  0  0  0  0
  159.6320  210.9020  151.7120 O   0  0  0  0  0  1  0  0  0  0  0  0
  161.4360  210.6120  154.7860 C   0  0  0  0  0  2  0  0  0  0  0  0
  161.0800  209.3420  152.8280 C   0  0  2  0  0  3  0  0  0  0  0  0
  161.4450  209.2550  154.2440 N   0  0  0  0  0  2  0  0  0  0  0  0
  160.6340  211.4860  153.8460 C   0  0  2  0  0  3  0  0  0  0  0  0
  158.5820  210.6290  154.9590 C   0  0  0  0  0  3  0  0  0  0  0  0
  157.1750  210.7340  155.4760 C   0  0  0  0  0  2  0  0  0  0  0  0
  159.2040  211.6470  154.3270 C   0  0  0  0  0  0  0  0  0  0  0  0
  158.5570  213.0200  154.2160 C   0  0  2  0  0  3  0  0  0  0  0  0
  157.0840  213.0560  154.6420 C   0  0  0  0  0  2  0  0  0  0  0  0
  156.8450  212.1710  155.8560 C   0  0  1  0  0  3  0  0  0  0  0  0
  155.3910  212.2570  156.2670 C   0  0  0  0  0  1  0  0  0  0  0  0
  158.6930  213.5790  152.8350 C   0  0  0  0  0  0  0  0  0  0  0  0
  159.6680  214.3210  152.5550 O   0  0  0  0  0  1  0  0  0  0  0  0
  157.7520  213.2770  151.8580 O   0  0  0  0  0  0  0  0  0  0  0  0
  161.3980  210.5230  148.6860 C   0  0  0  0  0  2  0  0  0  0  0  0
  162.0470  211.8810  148.8800 C   0  0  0  0  0  2  0  0  0  0  0  0
  162.3590  212.5070  147.5250 C   0  0  1  0  0  3  0  0  0  0  0  0
  160.3650  214.1000  148.1130 C   0  0  0  0  0  1  0  0  0  0  0  0
  161.4690  213.6420  147.1640 C   0  0  1  0  0  0  0  0  0  0  0  0
  162.7480  213.8530  147.7100 O   0  0  0  0  0  0  0  0  0  0  0  0
  160.3430  214.0830  143.2330 S   0  0  0  0  0  0  0  0  0  0  0  0
  161.9270  213.1880  143.1760 C   0  0  2  0  0  3  0  0  0  0  0  0
  162.8410  213.3380  144.7480 S   0  0  0  0  0  0  0  0  0  0  0  0
  161.4180  213.9920  145.6770 C   0  0  1  0  0  3  0  0  0  0  0  0
  160.1030  213.6790  144.9770 C   0  0  2  0  0  3  0  0  0  0  0  0
  162.7750  213.7160  142.0370 C   0  0  0  0  0  1  0  0  0  0  0  0
  159.6820  212.2220  145.1130 C   0  0  0  0  0  1  0  0  0  0  0  0
  161.1220  207.3060  148.7760 C   0  0  0  0  0  2  0  0  0  0  0  0
  161.1850  204.7440  148.5340 C   0  0  0  0  0  0  0  0  0  0  0  0
  160.6130  204.5710  151.3070 C   0  0  0  0  0  3  0  0  0  0  0  0
  160.7640  205.8120  150.7040 C   0  0  0  0  0  3  0  0  0  0  0  0
  161.0290  205.9170  149.3360 C   0  0  0  0  0  0  0  0  0  0  0  0
  160.7110  203.4160  150.5410 C   0  0  0  0  0  3  0  0  0  0  0  0
  160.9780  203.4820  149.1730 C   0  0  0  0  0  0  0  0  0  0  0  0
  160.9810  202.1740  148.4550 C   0  0  0  0  0  1  0  0  0  0  0  0
  162.9970  205.0810  146.8020 C   0  0  0  0  0  1  0  0  0  0  0  0
  161.1590  203.7250  146.3150 O   0  0  0  0  0  1  0  0  0  0  0  0
  161.5080  204.8670  147.0320 C   0  0  0  0  0  0  0  0  0  0  0  0
  160.7440  206.0370  146.4430 C   0  0  0  0  0  1  0  0  0  0  0  0
  1  5  1  0  0  0  0
  2 22  1  1  0  0  0
  2  4  1  0  0  0  0
  2  3  1  0  0  0  0
  4 35  1  6  0  0  0
  4  1  1  0  0  0  0
  5  3  1  6  0  0  0
  5  9  1  0  0  0  0
  6  7  1  6  0  0  0
  6  9  1  0  0  0  0
  6 11  1  0  0  0  0
  9 10  1  1  0  0  0
 10  8  1  0  0  0  0
 11 14  1  1  0  0  0
 11  8  1  0  0  0  0
 12 13  1  0  0  0  0
 13 17  1  0  0  0  0
 14 12  2  0  0  0  0
 15 19  1  6  0  0  0
 15 14  1  0  0  0  0
 15 16  1  0  0  0  0
 16 17  1  0  0  0  0
 17 18  1  6  0  0  0
 20 19  1  0  0  0  0
 21 19  2  0  0  0  0
 22 23  1  0  0  0  0
 24 27  1  0  0  0  0
 24 23  1  1  0  0  0
 26 24  1  0  0  0  0
 26 27  1  0  0  0  0
 26 25  1  1  0  0  0
 28 32  1  0  0  0  0
 29 33  1  6  0  0  0
 29 28  1  0  0  0  0
 29 30  1  0  0  0  0
 31 30  1  6  0  0  0
 31 26  1  0  0  0  0
 32 34  1  6  0  0  0
 32 31  1  0  0  0  0
 35 39  1  0  0  0  0
 36 41  2  0  0  0  0
 36 39  1  0  0  0  0
 38 37  1  0  0  0  0
 39 38  2  0  0  0  0
 40 37  2  0  0  0  0
 41 40  1  0  0  0  0
 42 41  1  0  0  0  0
 43 45  1  0  0  0  0
 44 45  1  0  0  0  0
 45 36  1  0  0  0  0
 46 45  1  0  0  0  0
M  END
>  <MODEL>
2

>  <REMARK>
 VINA RESULT:      -8.1      1.359      1.678
  Name = 
  10 active torsions:
  status: ('A' for Active; 'I' for Inactive)
    1  A    between atoms: C_8  and  C_10
    2  A    between atoms: C_9  and  C_23
    3  A    between atoms: C_10  and  C_12
    4  A    between atoms: C_12  and  C_16
    5  A    between atoms: C_15  and  C_26
    6  A    between atoms: C_18  and  C_43
    7  A    between atoms: C_19  and  C_45
    8  A    between atoms: C_22  and  C_42
    9  A    between atoms: C_25  and  C_29
   10  A    between atoms: C_29  and  C_41
                            x       y       z     vdW  Elec       q    Type
                         _______ _______ _______ _____ _____    ______ ____

>  <TORSDO>
F 10

$$$$
=
 OpenBabel11042420573D

 46 51  0  0  1  0  0  0  0  0999 V2000
  160.8690  208.5070  153.4360 N   0  0  0  0  0  2  0  0  0  0  0  0
  162.2600  208.9870  151.5340 C   0  0  1  0  0  3  0  0  0  0  0  0
  162.3320  210.5360  152.4670 S   0  0  0  0  0  0  0  0  0  0  0  0
  161.0630  208.2070  152.0250 C   0  0  1  0  0  3  0  0  0  0  0  0
  161.0340  209.9460  153.6040 C   0  0  1  0  0  3  0  0  0  0  0  0
  159.8250  212.1310  153.7870 C   0  0  2  0  0  3  0  0  0  0  0  0
  159.9860  212.9690  152.6800 O   0  0  0  0  0  1  0  0  0  0  0  0
  158.1210  211.0590  155.0580 C   0  0  0  0  0  2  0  0  0  0  0  0
  159.7130  210.6790  153.3580 C   0  0  2  0  0  3  0  0  0  0  0  0
  158.6350  210.0570  154.1280 N   0  0  0  0  0  2  0  0  0  0  0  0
  158.5550  212.4220  154.5650 C   0  0  2  0  0  3  0  0  0  0  0  0
  157.7430  213.6730  152.5760 C   0  0  0  0  0  3  0  0  0  0  0  0
  156.6970  214.3360  151.7250 C   0  0  0  0  0  2  0  0  0  0  0  0
  157.4580  213.0940  153.7610 C   0  0  0  0  0  0  0  0  0  0  0  0
  156.0230  212.9630  154.2510 C   0  0  2  0  0  3  0  0  0  0  0  0
  155.0020  213.7540  153.4230 C   0  0  0  0  0  2  0  0  0  0  0  0
  155.3360  213.6900  151.9400 C   0  0  1  0  0  3  0  0  0  0  0  0
  154.2920  214.4520  151.1530 C   0  0  0  0  0  1  0  0  0  0  0  0
  155.8990  213.3410  155.6920 C   0  0  0  0  0  0  0  0  0  0  0  0
  156.3380  214.4520  156.0870 O   0  0  0  0  0  0  0  0  0  0  0  0
  155.2970  212.4760  156.5980 O   0  0  0  0  0  1  0  0  0  0  0  0
  162.1160  209.2850  150.0500 C   0  0  0  0  0  2  0  0  0  0  0  0
  162.6480  210.6700  149.7300 C   0  0  0  0  0  2  0  0  0  0  0  0
  162.2030  211.0900  148.3340 C   0  0  1  0  0  3  0  0  0  0  0  0
  160.7920  212.8800  149.6240 C   0  0  0  0  0  1  0  0  0  0  0  0
  161.2440  212.2260  148.3210 C   0  0  1  0  0  0  0  0  0  0  0  0
  162.6170  212.4180  148.0890 O   0  0  0  0  0  0  0  0  0  0  0  0
  159.9570  213.1290  144.5200 S   0  0  0  0  0  0  0  0  0  0  0  0
  158.7580  213.9300  145.6310 C   0  0  2  0  0  3  0  0  0  0  0  0
  158.8410  213.2420  147.3190 S   0  0  0  0  0  0  0  0  0  0  0  0
  160.4210  212.3800  147.0420 C   0  0  1  0  0  3  0  0  0  0  0  0
  161.1690  212.9540  145.8490 C   0  0  2  0  0  3  0  0  0  0  0  0
  157.3570  213.7660  145.0780 C   0  0  0  0  0  1  0  0  0  0  0  0
  161.8120  214.3040  146.1360 C   0  0  0  0  0  1  0  0  0  0  0  0
  161.3180  206.7180  151.8410 C   0  0  0  0  0  2  0  0  0  0  0  0
  161.0590  204.9150  150.0230 C   0  0  0  0  0  0  0  0  0  0  0  0
  160.7230  207.0080  148.1390 C   0  0  0  0  0  3  0  0  0  0  0  0
  160.9000  207.3040  149.4830 C   0  0  0  0  0  3  0  0  0  0  0  0
  161.0840  206.2870  150.4230 C   0  0  0  0  0  0  0  0  0  0  0  0
  160.7430  205.6850  147.7160 C   0  0  0  0  0  3  0  0  0  0  0  0
  160.9220  204.6430  148.6260 C   0  0  0  0  0  0  0  0  0  0  0  0
  161.0020  203.2760  148.0310 C   0  0  0  0  0  1  0  0  0  0  0  0
  161.0360  202.4220  150.4480 C   0  0  0  0  0  1  0  0  0  0  0  0
  162.5040  203.7920  151.6400 O   0  0  0  0  0  1  0  0  0  0  0  0
  161.2330  203.7970  151.0690 C   0  0  0  0  0  0  0  0  0  0  0  0
  160.2230  203.9840  152.1850 C   0  0  0  0  0  1  0  0  0  0  0  0
  1  5  1  0  0  0  0
  2 22  1  6  0  0  0
  2  4  1  0  0  0  0
  2  3  1  0  0  0  0
  4 35  1  1  0  0  0
  4  1  1  0  0  0  0
  5  3  1  6  0  0  0
  6  7  1  6  0  0  0
  6 11  1  0  0  0  0
  9  5  1  0  0  0  0
  9  6  1  0  0  0  0
  9 10  1  1  0  0  0
 10  8  1  0  0  0  0
 11 14  1  6  0  0  0
 11  8  1  0  0  0  0
 12 14  2  0  0  0  0
 13 17  1  0  0  0  0
 13 12  1  0  0  0  0
 14 15  1  0  0  0  0
 15 19  1  1  0  0  0
 16 15  1  0  0  0  0
 17 18  1  6  0  0  0
 17 16  1  0  0  0  0
 19 20  2  0  0  0  0
 19 21  1  0  0  0  0
 23 22  1  0  0  0  0
 24 23  1  1  0  0  0
 26 24  1  0  0  0  0
 26 25  1  1  0  0  0
 27 26  1  0  0  0  0
 27 24  1  0  0  0  0
 28 29  1  0  0  0  0
 28 32  1  0  0  0  0
 29 33  1  6  0  0  0
 29 30  1  0  0  0  0
 31 30  1  1  0  0  0
 31 26  1  0  0  0  0
 32 34  1  1  0  0  0
 32 31  1  0  0  0  0
 36 39  1  0  0  0  0
 36 45  1  0  0  0  0
 37 38  1  0  0  0  0
 38 39  2  0  0  0  0
 39 35  1  0  0  0  0
 40 37  2  0  0  0  0
 40 41  1  0  0  0  0
 41 36  2  0  0  0  0
 42 41  1  0  0  0  0
 43 45  1  0  0  0  0
 45 44  1  0  0  0  0
 45 46  1  0  0  0  0
M  END
>  <MODEL>
3

>  <REMARK>
 VINA RESULT:      -6.1      2.327      3.565
  Name = 
  10 active torsions:
  status: ('A' for Active; 'I' for Inactive)
    1  A    between atoms: C_8  and  C_10
    2  A    between atoms: C_9  and  C_23
    3  A    between atoms: C_10  and  C_12
    4  A    between atoms: C_12  and  C_16
    5  A    between atoms: C_15  and  C_26
    6  A    between atoms: C_18  and  C_43
    7  A    between atoms: C_19  and  C_45
    8  A    between atoms: C_22  and  C_42
    9  A    between atoms: C_25  and  C_29
   10  A    between atoms: C_29  and  C_41
                            x       y       z     vdW  Elec       q    Type
                         _______ _______ _______ _____ _____    ______ ____

>  <TORSDO>
F 10

$$$$
=
 OpenBabel11042420573D

 46 51  0  0  1  0  0  0  0  0999 V2000
  160.6970  211.3150  152.6620 N   0  0  0  0  0  2  0  0  0  0  0  0
  161.1840  208.9950  152.2550 C   0  0  1  0  0  3  0  0  0  0  0  0
  162.3440  209.8350  151.1490 S   0  0  0  0  0  0  0  0  0  0  0  0
  160.1060  209.9850  152.6300 C   0  0  1  0  0  3  0  0  0  0  0  0
  161.5530  211.4410  151.4870 C   0  0  1  0  0  3  0  0  0  0  0  0
  161.6800  212.2950  149.1370 C   0  0  2  0  0  3  0  0  0  0  0  0
  161.7040  211.2910  148.1640 O   0  0  0  0  0  1  0  0  0  0  0  0
  160.4200  214.2090  149.7840 C   0  0  0  0  0  2  0  0  0  0  0  0
  160.7490  211.9240  150.2770 C   0  0  2  0  0  3  0  0  0  0  0  0
  159.9620  213.1080  150.6280 N   0  0  0  0  0  2  0  0  0  0  0  0
  161.1610  213.6170  148.6050 C   0  0  2  0  0  3  0  0  0  0  0  0
  159.0490  212.9210  147.4920 C   0  0  0  0  0  3  0  0  0  0  0  0
  158.1060  212.7970  146.3290 C   0  0  0  0  0  2  0  0  0  0  0  0
  160.2620  213.5040  147.3870 C   0  0  0  0  0  0  0  0  0  0  0  0
  160.6980  214.1940  146.1030 C   0  0  2  0  0  3  0  0  0  0  0  0
  159.7700  213.9420  144.9090 C   0  0  0  0  0  2  0  0  0  0  0  0
  158.3120  213.9390  145.3430 C   0  0  1  0  0  3  0  0  0  0  0  0
  157.4250  213.7210  144.1360 C   0  0  0  0  0  1  0  0  0  0  0  0
  162.1000  213.8270  145.7340 C   0  0  0  0  0  0  0  0  0  0  0  0
  162.3060  212.9570  144.8490 O   0  0  0  0  0  0  0  0  0  0  0  0
  163.1770  214.4460  146.3570 O   0  0  0  0  0  1  0  0  0  0  0  0
  160.5700  207.7990  151.5460 C   0  0  0  0  0  2  0  0  0  0  0  0
  160.7730  207.9060  150.0460 C   0  0  0  0  0  2  0  0  0  0  0  0
  161.0010  206.5210  149.4510 C   0  0  1  0  0  3  0  0  0  0  0  0
  162.9350  207.7050  148.1410 C   0  0  0  0  0  1  0  0  0  0  0  0
  162.1180  206.4590  148.4720 C   0  0  1  0  0  0  0  0  0  0  0  0
  162.2880  206.0630  149.8100 O   0  0  0  0  0  0  0  0  0  0  0  0
  161.6200  203.9930  145.2180 S   0  0  0  0  0  0  0  0  0  0  0  0
  160.6880  203.1980  146.5640 C   0  0  2  0  0  3  0  0  0  0  0  0
  161.1880  203.8380  148.1980 S   0  0  0  0  0  0  0  0  0  0  0  0
  162.0940  205.2640  147.5190 C   0  0  1  0  0  3  0  0  0  0  0  0
  161.6630  205.5730  146.0940 C   0  0  2  0  0  3  0  0  0  0  0  0
  160.8930  201.6980  146.5160 C   0  0  0  0  0  1  0  0  0  0  0  0
  160.2980  206.2420  146.0100 C   0  0  0  0  0  1  0  0  0  0  0  0
  159.5490  209.6320  154.0020 C   0  0  0  0  0  2  0  0  0  0  0  0
  159.7210  211.5750  155.6810 C   0  0  0  0  0  0  0  0  0  0  0  0
  162.2270  210.5210  156.4890 C   0  0  0  0  0  3  0  0  0  0  0  0
  161.4800  209.8700  155.5170 C   0  0  0  0  0  3  0  0  0  0  0  0
  160.2510  210.3840  155.0940 C   0  0  0  0  0  0  0  0  0  0  0  0
  161.7580  211.7060  157.0410 C   0  0  0  0  0  3  0  0  0  0  0  0
  160.5340  212.2470  156.6460 C   0  0  0  0  0  0  0  0  0  0  0  0
  160.1850  213.5620  157.2600 C   0  0  0  0  0  1  0  0  0  0  0  0
  158.4980  213.4390  154.4870 C   0  0  0  0  0  1  0  0  0  0  0  0
  157.6880  211.2510  154.3670 O   0  0  0  0  0  1  0  0  0  0  0  0
  158.3510  212.1200  155.2320 C   0  0  0  0  0  0  0  0  0  0  0  0
  157.4670  212.3330  156.4450 C   0  0  0  0  0  1  0  0  0  0  0  0
  2 22  1  6  0  0  0
  2  4  1  0  0  0  0
  3  2  1  0  0  0  0
  4  1  1  0  0  0  0
  4 35  1  1  0  0  0
  5  3  1  6  0  0  0
  5  1  1  0  0  0  0
  6  7  1  6  0  0  0
  6  9  1  0  0  0  0
  8 10  1  0  0  0  0
  9 10  1  1  0  0  0
  9  5  1  0  0  0  0
 11 14  1  6  0  0  0
 11  6  1  0  0  0  0
 11  8  1  0  0  0  0
 13 12  1  0  0  0  0
 14 12  2  0  0  0  0
 15 19  1  6  0  0  0
 15 14  1  0  0  0  0
 16 17  1  0  0  0  0
 16 15  1  0  0  0  0
 17 18  1  6  0  0  0
 17 13  1  0  0  0  0
 19 21  1  0  0  0  0
 20 19  2  0  0  0  0
 23 22  1  0  0  0  0
 24 27  1  0  0  0  0
 24 23  1  1  0  0  0
 26 25  1  6  0  0  0
 26 24  1  0  0  0  0
 26 27  1  0  0  0  0
 28 32  1  0  0  0  0
 28 29  1  0  0  0  0
 29 33  1  1  0  0  0
 29 30  1  0  0  0  0
 31 30  1  1  0  0  0
 31 26  1  0  0  0  0
 32 34  1  1  0  0  0
 32 31  1  0  0  0  0
 35 39  1  0  0  0  0
 36 41  1  0  0  0  0
 37 40  1  0  0  0  0
 38 37  2  0  0  0  0
 39 38  1  0  0  0  0
 39 36  2  0  0  0  0
 41 40  2  0  0  0  0
 41 42  1  0  0  0  0
 43 45  1  0  0  0  0
 44 45  1  0  0  0  0
 45 36  1  0  0  0  0
 45 46  1  0  0  0  0
M  END
>  <MODEL>
4

>  <REMARK>
 VINA RESULT:      -6.1      2.711      8.961
  Name = 
  10 active torsions:
  status: ('A' for Active; 'I' for Inactive)
    1  A    between atoms: C_8  and  C_10
    2  A    between atoms: C_9  and  C_23
    3  A    between atoms: C_10  and  C_12
    4  A    between atoms: C_12  and  C_16
    5  A    between atoms: C_15  and  C_26
    6  A    between atoms: C_18  and  C_43
    7  A    between atoms: C_19  and  C_45
    8  A    between atoms: C_22  and  C_42
    9  A    between atoms: C_25  and  C_29
   10  A    between atoms: C_29  and  C_41
                            x       y       z     vdW  Elec       q    Type
                         _______ _______ _______ _____ _____    ______ ____

>  <TORSDO>
F 10

$$$$
