=
 OpenBabel11052409403D

 38 42  0  0  1  0  0  0  0  0999 V2000
  161.7500  210.2880  150.9220 C   0  0  0  0  0  0  0  0  0  0  0  0
  161.9270  208.8820  151.0260 N   0  0  0  0  0  0  0  0  0  0  0  0
  160.5180  209.0960  155.5530 C   0  0  0  0  0  3  0  0  0  0  0  0
  159.8950  210.6400  153.7950 C   0  0  0  0  0  0  0  0  0  0  0  0
  159.7870  209.8570  156.4630 C   0  0  0  0  0  3  0  0  0  0  0  0
  160.5860  209.4560  154.2020 C   0  0  0  0  0  0  0  0  0  0  0  0
  159.9490  211.2460  152.4710 C   0  0  0  0  0  3  0  0  0  0  0  0
  159.1640  211.3600  154.7480 C   0  0  0  0  0  3  0  0  0  0  0  0
  161.6500  208.0820  152.0230 C   0  0  0  0  0  0  0  0  0  0  0  0
  159.1220  210.9610  156.0450 N   0  0  0  0  0  0  0  0  0  0  0  0
  160.8440  210.8440  151.6450 C   0  0  0  0  0  0  0  0  0  0  0  0
  161.2700  208.4940  153.3600 N   0  0  0  0  0  2  0  0  0  0  0  0
  162.5200  206.0050  153.1500 C   0  0  0  0  0  1  0  0  0  0  0  0
  161.9770  206.6300  151.8600 C   0  0  1  0  0  3  0  0  0  0  0  0
  160.8580  205.8930  151.2500 N   0  0  0  0  0  0  0  0  0  0  0  0
  160.5710  204.8220  149.1300 C   0  0  2  0  0  3  0  0  0  0  0  0
  160.8680  206.1360  149.8110 C   0  0  0  0  0  2  0  0  0  0  0  0
  160.9810  204.4440  151.4520 C   0  0  0  0  0  2  0  0  0  0  0  0
  161.0540  203.7720  150.0960 C   0  0  0  0  0  2  0  0  0  0  0  0
  162.5670  204.5790  145.3290 C   0  0  0  0  0  3  0  0  0  0  0  0
  161.8410  205.8630  147.2510 C   0  0  0  0  0  3  0  0  0  0  0  0
  161.3220  203.5010  147.1040 C   0  0  0  0  0  3  0  0  0  0  0  0
  161.2500  204.7190  147.8000 C   0  0  0  0  0  0  0  0  0  0  0  0
  162.4980  205.7940  146.0180 C   0  0  0  0  0  3  0  0  0  0  0  0
  161.9800  203.4330  145.8720 C   0  0  0  0  0  3  0  0  0  0  0  0
  162.3030  211.0120  149.7450 C   0  0  0  0  0  2  0  0  0  0  0  0
  161.4470  212.1400  149.4120 N   0  0  0  0  0  2  0  0  0  0  0  0
  160.0420  213.4320  147.8340 N   0  0  0  0  0  0  0  0  0  0  0  0
  161.0040  211.3830  147.2510 O   0  0  0  0  0  0  0  0  0  0  0  0
  159.9190  214.4520  148.7910 N   0  0  0  0  0  1  0  0  0  0  0  0
  160.8380  212.2770  148.1260 C   0  0  0  0  0  0  0  0  0  0  0  0
  159.4290  213.5920  146.5190 C   0  0  1  0  0  3  0  0  0  0  0  0
  158.1430  214.3960  146.6320 C   0  0  0  0  0  1  0  0  0  0  0  0
  160.4090  214.2600  145.5620 C   0  0  0  0  0  2  0  0  0  0  0  0
  160.8270  213.3170  144.4430 C   0  0  0  0  0  0  0  0  0  0  0  0
  162.1670  213.0230  144.4380 O   0  0  0  0  0  0  0  0  0  0  0  0
  161.6720  213.8590  143.5070 O   0  0  0  0  0  0  0  0  0  0  0  0
  159.9470  212.1910  143.9360 C   0  0  0  0  0  1  0  0  0  0  0  0
  1  2  1  0  0  0  0
  1 11  2  0  0  0  0
  2  9  2  0  0  0  0
  3  5  1  0  0  0  0
  4  6  1  0  0  0  0
  4  8  2  0  0  0  0
  6  3  2  0  0  0  0
  7  4  1  0  0  0  0
  8 10  1  0  0  0  0
  9 12  1  0  0  0  0
 10  5  2  0  0  0  0
 11  7  2  0  0  0  0
 12  6  1  0  0  0  0
 14  9  1  0  0  0  0
 14 13  1  1  0  0  0
 15 18  1  0  0  0  0
 15 14  1  0  0  0  0
 16 23  1  6  0  0  0
 16 17  1  0  0  0  0
 16 19  1  0  0  0  0
 17 15  1  0  0  0  0
 19 18  1  0  0  0  0
 20 25  2  0  0  0  0
 20 24  1  0  0  0  0
 21 23  1  0  0  0  0
 22 23  2  0  0  0  0
 24 21  2  0  0  0  0
 25 22  1  0  0  0  0
 26  1  1  0  0  0  0
 27 26  1  0  0  0  0
 28 31  1  0  0  0  0
 28 30  1  0  0  0  0
 29 31  2  0  0  0  0
 31 27  1  0  0  0  0
 32 33  1  1  0  0  0
 32 28  1  0  0  0  0
 34 32  1  0  0  0  0
 35 34  1  0  0  0  0
 36 35  1  0  0  0  0
 37 36  1  0  0  0  0
 37 35  1  0  0  0  0
 38 35  1  0  0  0  0
M  END
>  <MODEL>
1

>  <REMARK>
 VINA RESULT:      -7.8      0.000      0.000
  Name = 
  8 active torsions:
  status: ('A' for Active; 'I' for Inactive)
    1  A    between atoms: N_1  and  C_9
    2  A    between atoms: C_3  and  C_19
    3  A    between atoms: N_4  and  C_19
    4  A    between atoms: N_5  and  C_10
    5  A    between atoms: C_7  and  C_33
    6  A    between atoms: C_9  and  C_29
    7  A    between atoms: C_10  and  C_33
    8  A    between atoms: C_12  and  C_28
                            x       y       z     vdW  Elec       q    Type
                         _______ _______ _______ _____ _____    ______ ____

>  <TORSDO>
F 8

$$$$
=
 OpenBabel11052409403D

 38 42  0  0  1  0  0  0  0  0999 V2000
  161.7070  208.5460  149.1270 C   0  0  0  0  0  0  0  0  0  0  0  0
  162.1630  209.8020  148.6430 N   0  0  0  0  0  0  0  0  0  0  0  0
  160.3240  211.8890  152.4880 C   0  0  0  0  0  3  0  0  0  0  0  0
  161.0800  209.5940  152.3410 C   0  0  0  0  0  0  0  0  0  0  0  0
  159.9260  211.6600  153.8040 C   0  0  0  0  0  3  0  0  0  0  0  0
  160.9150  210.8740  151.7270 C   0  0  0  0  0  0  0  0  0  0  0  0
  161.5550  208.3860  151.6780 C   0  0  0  0  0  3  0  0  0  0  0  0
  160.6770  209.4220  153.6700 C   0  0  0  0  0  3  0  0  0  0  0  0
  162.1200  210.9770  149.2150 C   0  0  0  0  0  0  0  0  0  0  0  0
  160.1180  210.4430  154.3690 N   0  0  0  0  0  0  0  0  0  0  0  0
  161.6300  208.3730  150.3980 C   0  0  0  0  0  0  0  0  0  0  0  0
  161.3940  211.3040  150.4270 N   0  0  0  0  0  2  0  0  0  0  0  0
  163.7670  211.7420  147.4710 C   0  0  0  0  0  1  0  0  0  0  0  0
  162.6560  212.1440  148.4470 C   0  0  1  0  0  3  0  0  0  0  0  0
  161.5700  212.9330  147.8410 N   0  0  0  0  0  0  0  0  0  0  0  0
  160.7150  213.0940  145.6120 C   0  0  2  0  0  3  0  0  0  0  0  0
  161.9450  213.2680  146.4710 C   0  0  0  0  0  2  0  0  0  0  0  0
  160.3110  212.1790  147.7810 C   0  0  0  0  0  2  0  0  0  0  0  0
  159.8890  212.0590  146.3310 C   0  0  0  0  0  2  0  0  0  0  0  0
  161.6530  211.8800  141.5950 C   0  0  0  0  0  3  0  0  0  0  0  0
  160.0910  212.0340  143.4410 C   0  0  0  0  0  3  0  0  0  0  0  0
  162.3380  212.9070  143.6770 C   0  0  0  0  0  3  0  0  0  0  0  0
  161.0650  212.6680  144.2200 C   0  0  0  0  0  0  0  0  0  0  0  0
  160.3840  211.6390  142.1310 C   0  0  0  0  0  3  0  0  0  0  0  0
  162.6290  212.5140  142.3680 C   0  0  0  0  0  3  0  0  0  0  0  0
  161.7080  207.3660  148.2190 C   0  0  0  0  0  2  0  0  0  0  0  0
  161.3010  206.1780  148.9530 N   0  0  0  0  0  2  0  0  0  0  0  0
  161.0160  203.7280  149.1700 N   0  0  0  0  0  0  0  0  0  0  0  0
  162.0370  204.7010  147.3060 O   0  0  0  0  0  0  0  0  0  0  0  0
  160.3350  203.9210  150.3810 N   0  0  0  0  0  1  0  0  0  0  0  0
  161.4780  204.8620  148.4250 C   0  0  0  0  0  0  0  0  0  0  0  0
  161.1740  202.3790  148.6330 C   0  0  1  0  0  3  0  0  0  0  0  0
  161.1500  201.3590  149.7590 C   0  0  0  0  0  1  0  0  0  0  0  0
  160.0830  202.0910  147.6090 C   0  0  0  0  0  2  0  0  0  0  0  0
  160.6390  201.3750  146.3870 C   0  0  0  0  0  0  0  0  0  0  0  0
  161.1600  202.2200  145.4390 O   0  0  0  0  0  0  0  0  0  0  0  0
  159.9750  201.6230  145.2110 O   0  0  0  0  0  0  0  0  0  0  0  0
  161.3310  200.0270  146.4600 C   0  0  0  0  0  1  0  0  0  0  0  0
  1 11  2  0  0  0  0
  2  1  1  0  0  0  0
  2  9  2  0  0  0  0
  3  5  1  0  0  0  0
  4  8  2  0  0  0  0
  5 10  2  0  0  0  0
  6  4  1  0  0  0  0
  6  3  2  0  0  0  0
  7  4  1  0  0  0  0
  8 10  1  0  0  0  0
  9 12  1  0  0  0  0
 11  7  2  0  0  0  0
 12  6  1  0  0  0  0
 14 13  1  6  0  0  0
 14  9  1  0  0  0  0
 15 14  1  0  0  0  0
 16 23  1  6  0  0  0
 16 19  1  0  0  0  0
 16 17  1  0  0  0  0
 17 15  1  0  0  0  0
 18 15  1  0  0  0  0
 19 18  1  0  0  0  0
 20 24  2  0  0  0  0
 20 25  1  0  0  0  0
 21 23  2  0  0  0  0
 22 23  1  0  0  0  0
 24 21  1  0  0  0  0
 25 22  2  0  0  0  0
 26 27  1  0  0  0  0
 26  1  1  0  0  0  0
 28 30  1  0  0  0  0
 29 31  2  0  0  0  0
 31 27  1  0  0  0  0
 31 28  1  0  0  0  0
 32 28  1  0  0  0  0
 32 33  1  1  0  0  0
 34 32  1  0  0  0  0
 35 38  1  0  0  0  0
 35 34  1  0  0  0  0
 36 35  1  0  0  0  0
 37 36  1  0  0  0  0
 37 35  1  0  0  0  0
M  END
>  <MODEL>
2

>  <REMARK>
 VINA RESULT:      -7.5      3.079      8.037
  Name = 
  8 active torsions:
  status: ('A' for Active; 'I' for Inactive)
    1  A    between atoms: N_1  and  C_9
    2  A    between atoms: C_3  and  C_19
    3  A    between atoms: N_4  and  C_19
    4  A    between atoms: N_5  and  C_10
    5  A    between atoms: C_7  and  C_33
    6  A    between atoms: C_9  and  C_29
    7  A    between atoms: C_10  and  C_33
    8  A    between atoms: C_12  and  C_28
                            x       y       z     vdW  Elec       q    Type
                         _______ _______ _______ _____ _____    ______ ____

>  <TORSDO>
F 8

$$$$
=
 OpenBabel11052409403D

 38 42  0  0  1  0  0  0  0  0999 V2000
  161.8260  210.4820  150.7130 C   0  0  0  0  0  0  0  0  0  0  0  0
  162.0000  209.0780  150.5870 N   0  0  0  0  0  0  0  0  0  0  0  0
  160.8050  208.5790  155.1530 C   0  0  0  0  0  3  0  0  0  0  0  0
  160.1110  210.3780  153.6900 C   0  0  0  0  0  0  0  0  0  0  0  0
  160.1230  209.1870  156.2050 C   0  0  0  0  0  3  0  0  0  0  0  0
  160.8120  209.1460  153.8730 C   0  0  0  0  0  0  0  0  0  0  0  0
  160.1060  211.1840  152.4760 C   0  0  0  0  0  3  0  0  0  0  0  0
  159.4290  210.9400  154.7770 C   0  0  0  0  0  3  0  0  0  0  0  0
  161.7650  208.1310  151.4590 C   0  0  0  0  0  0  0  0  0  0  0  0
  159.4450  210.3420  155.9960 N   0  0  0  0  0  0  0  0  0  0  0  0
  160.9590  210.9180  151.5550 C   0  0  0  0  0  0  0  0  0  0  0  0
  161.4500  208.3280  152.8600 N   0  0  0  0  0  2  0  0  0  0  0  0
  163.3870  206.2150  151.6650 C   0  0  0  0  0  1  0  0  0  0  0  0
  162.0750  206.7230  151.0560 C   0  0  1  0  0  3  0  0  0  0  0  0
  160.9200  205.8360  151.2720 N   0  0  0  0  0  0  0  0  0  0  0  0
  160.2970  203.7130  150.3600 C   0  0  2  0  0  3  0  0  0  0  0  0
  160.6180  205.1490  150.0200 C   0  0  0  0  0  2  0  0  0  0  0  0
  161.2000  204.8070  152.2820 C   0  0  0  0  0  2  0  0  0  0  0  0
  161.0510  203.4440  151.6370 C   0  0  0  0  0  2  0  0  0  0  0  0
  161.4170  200.9780  147.2370 C   0  0  0  0  0  3  0  0  0  0  0  0
  160.8810  201.4240  149.5570 C   0  0  0  0  0  3  0  0  0  0  0  0
  160.8780  203.2300  147.9430 C   0  0  0  0  0  3  0  0  0  0  0  0
  160.6990  202.7790  149.2620 C   0  0  0  0  0  0  0  0  0  0  0  0
  161.2410  200.5250  148.5480 C   0  0  0  0  0  3  0  0  0  0  0  0
  161.2360  202.3300  146.9350 C   0  0  0  0  0  3  0  0  0  0  0  0
  162.3290  211.3820  149.6380 C   0  0  0  0  0  2  0  0  0  0  0  0
  161.2790  212.3060  149.2370 N   0  0  0  0  0  2  0  0  0  0  0  0
  159.6640  213.2040  147.5890 N   0  0  0  0  0  0  0  0  0  0  0  0
  160.9940  211.3360  147.1360 O   0  0  0  0  0  0  0  0  0  0  0  0
  159.3490  214.2450  148.4750 N   0  0  0  0  0  1  0  0  0  0  0  0
  160.6610  212.2400  147.9500 C   0  0  0  0  0  0  0  0  0  0  0  0
  159.0380  213.1580  146.2710 C   0  0  1  0  0  3  0  0  0  0  0  0
  157.5240  213.1380  146.4080 C   0  0  0  0  0  1  0  0  0  0  0  0
  159.4960  214.3460  145.4320 C   0  0  0  0  0  2  0  0  0  0  0  0
  160.8500  214.0870  144.7890 C   0  0  0  0  0  0  0  0  0  0  0  0
  160.8520  214.2330  143.4240 O   0  0  0  0  0  0  0  0  0  0  0  0
  160.9030  212.9960  143.9550 O   0  0  0  0  0  0  0  0  0  0  0  0
  162.1650  214.4520  145.4500 C   0  0  0  0  0  1  0  0  0  0  0  0
  1 11  2  0  0  0  0
  2  1  1  0  0  0  0
  2  9  2  0  0  0  0
  3  5  1  0  0  0  0
  4  6  1  0  0  0  0
  4  8  2  0  0  0  0
  6  3  2  0  0  0  0
  7  4  1  0  0  0  0
  8 10  1  0  0  0  0
  9 12  1  0  0  0  0
 10  5  2  0  0  0  0
 11  7  2  0  0  0  0
 12  6  1  0  0  0  0
 14 15  1  0  0  0  0
 14  9  1  0  0  0  0
 14 13  1  1  0  0  0
 15 18  1  0  0  0  0
 16 23  1  6  0  0  0
 16 19  1  0  0  0  0
 17 16  1  0  0  0  0
 17 15  1  0  0  0  0
 19 18  1  0  0  0  0
 20 24  1  0  0  0  0
 22 23  2  0  0  0  0
 23 21  1  0  0  0  0
 24 21  2  0  0  0  0
 25 20  2  0  0  0  0
 25 22  1  0  0  0  0
 26  1  1  0  0  0  0
 27 26  1  0  0  0  0
 28 31  1  0  0  0  0
 28 30  1  0  0  0  0
 29 31  2  0  0  0  0
 31 27  1  0  0  0  0
 32 33  1  1  0  0  0
 32 28  1  0  0  0  0
 34 32  1  0  0  0  0
 35 34  1  0  0  0  0
 35 38  1  0  0  0  0
 36 37  1  0  0  0  0
 36 35  1  0  0  0  0
 37 35  1  0  0  0  0
M  END
>  <MODEL>
3

>  <REMARK>
 VINA RESULT:      -7.4      1.258      1.828
  Name = 
  8 active torsions:
  status: ('A' for Active; 'I' for Inactive)
    1  A    between atoms: N_1  and  C_9
    2  A    between atoms: C_3  and  C_19
    3  A    between atoms: N_4  and  C_19
    4  A    between atoms: N_5  and  C_10
    5  A    between atoms: C_7  and  C_33
    6  A    between atoms: C_9  and  C_29
    7  A    between atoms: C_10  and  C_33
    8  A    between atoms: C_12  and  C_28
                            x       y       z     vdW  Elec       q    Type
                         _______ _______ _______ _____ _____    ______ ____

>  <TORSDO>
F 8

$$$$
=
 OpenBabel11052409403D

 38 42  0  0  1  0  0  0  0  0999 V2000
  161.5710  210.7180  150.8060 C   0  0  0  0  0  0  0  0  0  0  0  0
  161.8220  211.6070  149.7260 N   0  0  0  0  0  0  0  0  0  0  0  0
  157.8150  213.9220  150.7770 C   0  0  0  0  0  3  0  0  0  0  0  0
  159.1710  212.6510  152.3280 C   0  0  0  0  0  0  0  0  0  0  0  0
  156.9060  214.1800  151.8010 C   0  0  0  0  0  3  0  0  0  0  0  0
  158.9690  213.1650  151.0090 C   0  0  0  0  0  0  0  0  0  0  0  0
  160.2360  211.7430  152.7350 C   0  0  0  0  0  3  0  0  0  0  0  0
  158.2340  212.9510  153.3240 C   0  0  0  0  0  3  0  0  0  0  0  0
  161.1660  212.6790  149.3640 C   0  0  0  0  0  0  0  0  0  0  0  0
  157.1370  213.7010  153.0480 N   0  0  0  0  0  0  0  0  0  0  0  0
  160.9320  211.1630  151.8280 C   0  0  0  0  0  0  0  0  0  0  0  0
  159.8790  213.0990  149.8820 N   0  0  0  0  0  2  0  0  0  0  0  0
  162.8250  212.7070  147.4700 C   0  0  0  0  0  1  0  0  0  0  0  0
  161.6470  213.4120  148.1510 C   0  0  1  0  0  3  0  0  0  0  0  0
  160.5340  213.7480  147.2490 N   0  0  0  0  0  0  0  0  0  0  0  0
  160.1140  213.3010  144.9350 C   0  0  2  0  0  3  0  0  0  0  0  0
  161.0680  213.9560  145.9070 C   0  0  0  0  0  2  0  0  0  0  0  0
  159.5480  212.6630  147.1660 C   0  0  0  0  0  2  0  0  0  0  0  0
  159.4600  212.1990  145.7270 C   0  0  0  0  0  2  0  0  0  0  0  0
  162.0940  211.8050  141.4240 C   0  0  0  0  0  3  0  0  0  0  0  0
  160.1310  211.9510  142.8370 C   0  0  0  0  0  3  0  0  0  0  0  0
  162.1610  213.1210  143.4550 C   0  0  0  0  0  3  0  0  0  0  0  0
  160.8250  212.7810  143.7250 C   0  0  0  0  0  0  0  0  0  0  0  0
  160.7640  211.4620  141.6890 C   0  0  0  0  0  3  0  0  0  0  0  0
  162.7910  212.6330  142.3060 C   0  0  0  0  0  3  0  0  0  0  0  0
  162.3600  209.4600  150.9180 C   0  0  0  0  0  2  0  0  0  0  0  0
  161.5530  208.3300  150.4820 N   0  0  0  0  0  2  0  0  0  0  0  0
  161.1410  206.3610  149.0390 N   0  0  0  0  0  0  0  0  0  0  0  0
  163.1340  207.5780  148.9420 O   0  0  0  0  0  0  0  0  0  0  0  0
  159.8510  206.2460  149.5780 N   0  0  0  0  0  1  0  0  0  0  0  0
  161.9960  207.4300  149.4640 C   0  0  0  0  0  0  0  0  0  0  0  0
  161.5740  205.4450  147.9870 C   0  0  1  0  0  3  0  0  0  0  0  0
  161.2530  204.0110  148.3740 C   0  0  0  0  0  1  0  0  0  0  0  0
  160.9140  205.8160  146.6650 C   0  0  0  0  0  2  0  0  0  0  0  0
  161.6480  205.2020  145.4820 C   0  0  0  0  0  0  0  0  0  0  0  0
  161.2580  205.7050  144.2660 O   0  0  0  0  0  0  0  0  0  0  0  0
  160.8660  204.4670  144.6260 O   0  0  0  0  0  0  0  0  0  0  0  0
  163.1060  204.7850  145.5380 C   0  0  0  0  0  1  0  0  0  0  0  0
  1 26  1  0  0  0  0
  1 11  2  0  0  0  0
  2  1  1  0  0  0  0
  3  6  2  0  0  0  0
  3  5  1  0  0  0  0
  4  7  1  0  0  0  0
  4  8  2  0  0  0  0
  5 10  2  0  0  0  0
  6  4  1  0  0  0  0
  9  2  2  0  0  0  0
  9 12  1  0  0  0  0
 10  8  1  0  0  0  0
 11  7  2  0  0  0  0
 12  6  1  0  0  0  0
 14 13  1  6  0  0  0
 14  9  1  0  0  0  0
 15 14  1  0  0  0  0
 16 23  1  6  0  0  0
 16 19  1  0  0  0  0
 16 17  1  0  0  0  0
 17 15  1  0  0  0  0
 18 15  1  0  0  0  0
 19 18  1  0  0  0  0
 20 24  2  0  0  0  0
 20 25  1  0  0  0  0
 21 23  2  0  0  0  0
 22 23  1  0  0  0  0
 24 21  1  0  0  0  0
 25 22  2  0  0  0  0
 27 26  1  0  0  0  0
 28 31  1  0  0  0  0
 28 30  1  0  0  0  0
 29 31  2  0  0  0  0
 31 27  1  0  0  0  0
 32 33  1  1  0  0  0
 32 28  1  0  0  0  0
 34 32  1  0  0  0  0
 35 38  1  0  0  0  0
 35 34  1  0  0  0  0
 36 37  1  0  0  0  0
 36 35  1  0  0  0  0
 37 35  1  0  0  0  0
M  END
>  <MODEL>
4

>  <REMARK>
 VINA RESULT:      -7.0      2.767      7.252
  Name = 
  8 active torsions:
  status: ('A' for Active; 'I' for Inactive)
    1  A    between atoms: N_1  and  C_9
    2  A    between atoms: C_3  and  C_19
    3  A    between atoms: N_4  and  C_19
    4  A    between atoms: N_5  and  C_10
    5  A    between atoms: C_7  and  C_33
    6  A    between atoms: C_9  and  C_29
    7  A    between atoms: C_10  and  C_33
    8  A    between atoms: C_12  and  C_28
                            x       y       z     vdW  Elec       q    Type
                         _______ _______ _______ _____ _____    ______ ____

>  <TORSDO>
F 8

$$$$
=
 OpenBabel11052409403D

 38 42  0  0  1  0  0  0  0  0999 V2000
  161.5850  210.5930  151.0320 C   0  0  0  0  0  0  0  0  0  0  0  0
  161.8580  211.4440  149.9270 N   0  0  0  0  0  0  0  0  0  0  0  0
  157.9750  213.9620  150.9770 C   0  0  0  0  0  3  0  0  0  0  0  0
  159.2970  212.6690  152.5400 C   0  0  0  0  0  0  0  0  0  0  0  0
  157.0950  214.2850  152.0080 C   0  0  0  0  0  3  0  0  0  0  0  0
  159.0980  213.1590  151.2110 C   0  0  0  0  0  0  0  0  0  0  0  0
  160.3260  211.7240  152.9540 C   0  0  0  0  0  3  0  0  0  0  0  0
  158.3900  213.0350  153.5410 C   0  0  0  0  0  3  0  0  0  0  0  0
  161.2450  212.5340  149.5470 C   0  0  0  0  0  0  0  0  0  0  0  0
  157.3230  213.8260  153.2630 N   0  0  0  0  0  0  0  0  0  0  0  0
  160.9820  211.0910  152.0520 C   0  0  0  0  0  0  0  0  0  0  0  0
  159.9860  213.0250  150.0730 N   0  0  0  0  0  2  0  0  0  0  0  0
  162.8250  212.4070  147.5910 C   0  0  0  0  0  1  0  0  0  0  0  0
  161.7400  213.2160  148.3100 C   0  0  1  0  0  3  0  0  0  0  0  0
  160.6250  213.6400  147.4480 N   0  0  0  0  0  0  0  0  0  0  0  0
  160.1300  213.3000  145.1310 C   0  0  2  0  0  3  0  0  0  0  0  0
  161.1380  213.8700  146.1010 C   0  0  0  0  0  2  0  0  0  0  0  0
  159.5830  212.6100  147.3510 C   0  0  0  0  0  2  0  0  0  0  0  0
  159.4380  212.2040  145.8990 C   0  0  0  0  0  2  0  0  0  0  0  0
  161.9490  211.8350  141.5210 C   0  0  0  0  0  3  0  0  0  0  0  0
  160.0370  212.0070  142.9990 C   0  0  0  0  0  3  0  0  0  0  0  0
  162.1230  213.0930  143.5820 C   0  0  0  0  0  3  0  0  0  0  0  0
  160.7850  212.7900  143.8860 C   0  0  0  0  0  0  0  0  0  0  0  0
  160.6180  211.5290  141.8200 C   0  0  0  0  0  3  0  0  0  0  0  0
  162.7010  212.6160  142.4020 C   0  0  0  0  0  3  0  0  0  0  0  0
  162.3190  209.3040  151.1640 C   0  0  0  0  0  2  0  0  0  0  0  0
  161.5620  208.2380  150.5270 N   0  0  0  0  0  2  0  0  0  0  0  0
  161.0790  205.8460  150.1030 N   0  0  0  0  0  0  0  0  0  0  0  0
  162.7070  206.5340  151.6340 O   0  0  0  0  0  0  0  0  0  0  0  0
  160.1460  206.2160  149.1230 N   0  0  0  0  0  1  0  0  0  0  0  0
  161.8230  206.8580  150.7940 C   0  0  0  0  0  0  0  0  0  0  0  0
  161.3490  204.4330  150.3540 C   0  0  1  0  0  3  0  0  0  0  0  0
  161.2060  204.1260  151.8360 C   0  0  0  0  0  1  0  0  0  0  0  0
  160.4110  203.5660  149.5220 C   0  0  0  0  0  2  0  0  0  0  0  0
  161.1480  202.8870  148.3770 C   0  0  0  0  0  0  0  0  0  0  0  0
  160.4990  201.7860  147.8760 O   0  0  0  0  0  0  0  0  0  0  0  0
  161.5940  201.6150  148.6410 O   0  0  0  0  0  0  0  0  0  0  0  0
  161.9580  203.6480  147.3450 C   0  0  0  0  0  1  0  0  0  0  0  0
  1 26  1  0  0  0  0
  1 11  2  0  0  0  0
  2  1  1  0  0  0  0
  3  6  2  0  0  0  0
  3  5  1  0  0  0  0
  4  7  1  0  0  0  0
  4  8  2  0  0  0  0
  5 10  2  0  0  0  0
  6  4  1  0  0  0  0
  9  2  2  0  0  0  0
  9 12  1  0  0  0  0
 10  8  1  0  0  0  0
 11  7  2  0  0  0  0
 12  6  1  0  0  0  0
 14 13  1  6  0  0  0
 14  9  1  0  0  0  0
 15 14  1  0  0  0  0
 16 23  1  6  0  0  0
 16 19  1  0  0  0  0
 16 17  1  0  0  0  0
 17 15  1  0  0  0  0
 18 15  1  0  0  0  0
 19 18  1  0  0  0  0
 20 24  2  0  0  0  0
 20 25  1  0  0  0  0
 21 23  2  0  0  0  0
 22 23  1  0  0  0  0
 24 21  1  0  0  0  0
 25 22  2  0  0  0  0
 27 31  1  0  0  0  0
 27 26  1  0  0  0  0
 28 32  1  0  0  0  0
 28 31  1  0  0  0  0
 30 28  1  0  0  0  0
 31 29  2  0  0  0  0
 32 33  1  1  0  0  0
 34 32  1  0  0  0  0
 35 37  1  0  0  0  0
 35 34  1  0  0  0  0
 36 35  1  0  0  0  0
 36 37  1  0  0  0  0
 38 35  1  0  0  0  0
M  END
>  <MODEL>
5

>  <REMARK>
 VINA RESULT:      -7.0      3.204      7.890
  Name = 
  8 active torsions:
  status: ('A' for Active; 'I' for Inactive)
    1  A    between atoms: N_1  and  C_9
    2  A    between atoms: C_3  and  C_19
    3  A    between atoms: N_4  and  C_19
    4  A    between atoms: N_5  and  C_10
    5  A    between atoms: C_7  and  C_33
    6  A    between atoms: C_9  and  C_29
    7  A    between atoms: C_10  and  C_33
    8  A    between atoms: C_12  and  C_28
                            x       y       z     vdW  Elec       q    Type
                         _______ _______ _______ _____ _____    ______ ____

>  <TORSDO>
F 8

$$$$
=
 OpenBabel11052409403D

 38 42  0  0  1  0  0  0  0  0999 V2000
  161.8220  210.2380  149.4500 C   0  0  0  0  0  0  0  0  0  0  0  0
  161.8590  211.5380  148.8760 N   0  0  0  0  0  0  0  0  0  0  0  0
  159.0490  213.0960  152.3680 C   0  0  0  0  0  3  0  0  0  0  0  0
  160.5660  211.2140  152.4970 C   0  0  0  0  0  0  0  0  0  0  0  0
  158.6310  212.8330  153.6720 C   0  0  0  0  0  3  0  0  0  0  0  0
  160.0260  212.3070  151.7510 C   0  0  0  0  0  0  0  0  0  0  0  0
  161.4910  210.2090  151.9890 C   0  0  0  0  0  3  0  0  0  0  0  0
  160.1210  211.0020  153.8080 C   0  0  0  0  0  3  0  0  0  0  0  0
  161.3560  212.6580  149.3260 C   0  0  0  0  0  0  0  0  0  0  0  0
  159.1780  211.8040  154.3640 N   0  0  0  0  0  0  0  0  0  0  0  0
  161.6890  210.1360  150.7240 C   0  0  0  0  0  0  0  0  0  0  0  0
  160.4490  212.7880  150.4500 N   0  0  0  0  0  2  0  0  0  0  0  0
  162.8800  213.9220  147.7700 C   0  0  0  0  0  1  0  0  0  0  0  0
  161.5240  213.8830  148.4840 C   0  0  1  0  0  3  0  0  0  0  0  0
  160.3650  214.0910  147.5990 N   0  0  0  0  0  0  0  0  0  0  0  0
  159.9360  213.5360  145.3120 C   0  0  2  0  0  3  0  0  0  0  0  0
  160.8490  214.3030  146.2390 C   0  0  0  0  0  2  0  0  0  0  0  0
  159.4780  212.9220  147.5730 C   0  0  0  0  0  2  0  0  0  0  0  0
  159.3990  212.4060  146.1520 C   0  0  0  0  0  2  0  0  0  0  0  0
  162.0840  212.1170  141.8680 C   0  0  0  0  0  3  0  0  0  0  0  0
  161.9980  213.4140  143.9130 C   0  0  0  0  0  3  0  0  0  0  0  0
  160.0390  212.2020  143.1610 C   0  0  0  0  0  3  0  0  0  0  0  0
  160.6620  213.0420  144.1000 C   0  0  0  0  0  0  0  0  0  0  0  0
  162.7080  212.9540  142.7980 C   0  0  0  0  0  3  0  0  0  0  0  0
  160.7500  211.7420  142.0490 C   0  0  0  0  0  3  0  0  0  0  0  0
  162.3210  209.0750  148.6640 C   0  0  0  0  0  2  0  0  0  0  0  0
  162.0130  207.8380  149.3650 N   0  0  0  0  0  2  0  0  0  0  0  0
  161.3730  205.4460  149.4070 N   0  0  0  0  0  0  0  0  0  0  0  0
  161.7540  206.5960  147.4080 O   0  0  0  0  0  0  0  0  0  0  0  0
  161.2690  205.5070  150.8050 N   0  0  0  0  0  1  0  0  0  0  0  0
  161.7160  206.6260  148.6680 C   0  0  0  0  0  0  0  0  0  0  0  0
  161.0510  204.2060  148.7070 C   0  0  1  0  0  3  0  0  0  0  0  0
  161.9450  204.0420  147.4890 C   0  0  0  0  0  1  0  0  0  0  0  0
  161.1900  203.0190  149.6530 C   0  0  0  0  0  2  0  0  0  0  0  0
  160.6760  201.7360  149.0180 C   0  0  0  0  0  0  0  0  0  0  0  0
  159.6180  201.9260  148.1650 O   0  0  0  0  0  0  0  0  0  0  0  0
  159.4000  201.3780  149.3750 O   0  0  0  0  0  0  0  0  0  0  0  0
  161.5810  200.5820  148.6310 C   0  0  0  0  0  1  0  0  0  0  0  0
  1 11  2  0  0  0  0
  2  9  2  0  0  0  0
  2  1  1  0  0  0  0
  3  5  1  0  0  0  0
  4  8  2  0  0  0  0
  5 10  2  0  0  0  0
  6  3  2  0  0  0  0
  6  4  1  0  0  0  0
  7  4  1  0  0  0  0
  8 10  1  0  0  0  0
  9 12  1  0  0  0  0
 11  7  2  0  0  0  0
 12  6  1  0  0  0  0
 14 13  1  6  0  0  0
 14  9  1  0  0  0  0
 15 14  1  0  0  0  0
 16 23  1  6  0  0  0
 16 19  1  0  0  0  0
 16 17  1  0  0  0  0
 17 15  1  0  0  0  0
 18 15  1  0  0  0  0
 19 18  1  0  0  0  0
 20 25  2  0  0  0  0
 20 24  1  0  0  0  0
 21 23  1  0  0  0  0
 22 23  2  0  0  0  0
 24 21  2  0  0  0  0
 25 22  1  0  0  0  0
 26 27  1  0  0  0  0
 26  1  1  0  0  0  0
 28 30  1  0  0  0  0
 29 31  2  0  0  0  0
 31 27  1  0  0  0  0
 31 28  1  0  0  0  0
 32 33  1  6  0  0  0
 32 28  1  0  0  0  0
 32 34  1  0  0  0  0
 35 37  1  0  0  0  0
 35 34  1  0  0  0  0
 36 35  1  0  0  0  0
 36 37  1  0  0  0  0
 38 35  1  0  0  0  0
M  END
>  <MODEL>
6

>  <REMARK>
 VINA RESULT:      -6.8      2.880      8.018
  Name = 
  8 active torsions:
  status: ('A' for Active; 'I' for Inactive)
    1  A    between atoms: N_1  and  C_9
    2  A    between atoms: C_3  and  C_19
    3  A    between atoms: N_4  and  C_19
    4  A    between atoms: N_5  and  C_10
    5  A    between atoms: C_7  and  C_33
    6  A    between atoms: C_9  and  C_29
    7  A    between atoms: C_10  and  C_33
    8  A    between atoms: C_12  and  C_28
                            x       y       z     vdW  Elec       q    Type
                         _______ _______ _______ _____ _____    ______ ____

>  <TORSDO>
F 8

$$$$
=
 OpenBabel11052409403D

 38 42  0  0  1  0  0  0  0  0999 V2000
  161.8910  211.5840  149.3280 C   0  0  0  0  0  0  0  0  0  0  0  0
  161.8620  210.1750  149.1440 N   0  0  0  0  0  0  0  0  0  0  0  0
  161.0340  209.6460  153.7870 C   0  0  0  0  0  3  0  0  0  0  0  0
  160.4560  211.5810  152.4510 C   0  0  0  0  0  0  0  0  0  0  0  0
  160.5380  210.2940  154.9170 C   0  0  0  0  0  3  0  0  0  0  0  0
  161.0000  210.2610  152.5300 C   0  0  0  0  0  0  0  0  0  0  0  0
  160.4490  212.4300  151.2670 C   0  0  0  0  0  3  0  0  0  0  0  0
  159.9590  212.1810  153.6150 C   0  0  0  0  0  3  0  0  0  0  0  0
  161.5820  209.2320  150.0060 C   0  0  0  0  0  0  0  0  0  0  0  0
  160.0060  211.5360  154.8080 N   0  0  0  0  0  0  0  0  0  0  0  0
  161.1710  212.0930  150.2620 C   0  0  0  0  0  0  0  0  0  0  0  0
  161.4260  209.4100  151.4360 N   0  0  0  0  0  2  0  0  0  0  0  0
  163.0810  207.4160  149.1130 C   0  0  0  0  0  1  0  0  0  0  0  0
  161.6620  207.8140  149.5340 C   0  0  1  0  0  3  0  0  0  0  0  0
  161.0310  206.8920  150.4930 N   0  0  0  0  0  0  0  0  0  0  0  0
  160.7320  204.5180  150.5240 C   0  0  2  0  0  3  0  0  0  0  0  0
  160.4370  205.7830  149.7530 C   0  0  0  0  0  2  0  0  0  0  0  0
  162.0060  206.3230  151.4320 C   0  0  0  0  0  2  0  0  0  0  0  0
  162.0030  204.8160  151.2760 C   0  0  0  0  0  2  0  0  0  0  0  0
  161.1990  201.1600  147.8790 C   0  0  0  0  0  3  0  0  0  0  0  0
  161.1850  203.5510  148.2680 C   0  0  0  0  0  3  0  0  0  0  0  0
  160.7330  202.0230  150.0930 C   0  0  0  0  0  3  0  0  0  0  0  0
  160.8790  203.3370  149.6170 C   0  0  0  0  0  0  0  0  0  0  0  0
  161.3440  202.4660  147.4010 C   0  0  0  0  0  3  0  0  0  0  0  0
  160.8940  200.9390  149.2240 C   0  0  0  0  0  3  0  0  0  0  0  0
  162.4090  212.4550  148.2360 C   0  0  0  0  0  2  0  0  0  0  0  0
  161.5420  212.3560  147.0720 N   0  0  0  0  0  2  0  0  0  0  0  0
  160.9720  212.8650  144.7170 N   0  0  0  0  0  0  0  0  0  0  0  0
  162.9840  213.5550  145.6860 O   0  0  0  0  0  0  0  0  0  0  0  0
  159.7220  212.2510  144.8950 N   0  0  0  0  0  1  0  0  0  0  0  0
  161.8840  212.9530  145.8190 C   0  0  0  0  0  0  0  0  0  0  0  0
  161.3010  213.4860  143.4370 C   0  0  1  0  0  3  0  0  0  0  0  0
  162.2200  212.5790  142.6340 C   0  0  0  0  0  1  0  0  0  0  0  0
  160.0250  213.7970  142.6620 C   0  0  0  0  0  2  0  0  0  0  0  0
  160.2070  213.5600  141.1700 C   0  0  0  0  0  0  0  0  0  0  0  0
  159.0260  213.4070  140.4870 O   0  0  0  0  0  0  0  0  0  0  0  0
  159.7990  212.3280  140.7200 O   0  0  0  0  0  0  0  0  0  0  0  0
  161.3110  214.2070  140.3560 C   0  0  0  0  0  1  0  0  0  0  0  0
  1 11  2  0  0  0  0
  2  1  1  0  0  0  0
  2  9  2  0  0  0  0
  3  5  1  0  0  0  0
  4  6  1  0  0  0  0
  4  8  2  0  0  0  0
  6  3  2  0  0  0  0
  7  4  1  0  0  0  0
  8 10  1  0  0  0  0
  9 12  1  0  0  0  0
 10  5  2  0  0  0  0
 11  7  2  0  0  0  0
 12  6  1  0  0  0  0
 14 13  1  1  0  0  0
 14  9  1  0  0  0  0
 14 15  1  0  0  0  0
 15 18  1  0  0  0  0
 16 23  1  6  0  0  0
 16 19  1  0  0  0  0
 17 15  1  0  0  0  0
 17 16  1  0  0  0  0
 19 18  1  0  0  0  0
 20 25  1  0  0  0  0
 21 23  2  0  0  0  0
 23 22  1  0  0  0  0
 24 20  2  0  0  0  0
 24 21  1  0  0  0  0
 25 22  2  0  0  0  0
 26  1  1  0  0  0  0
 27 26  1  0  0  0  0
 28 30  1  0  0  0  0
 28 31  1  0  0  0  0
 29 31  2  0  0  0  0
 31 27  1  0  0  0  0
 32 33  1  6  0  0  0
 32 28  1  0  0  0  0
 34 32  1  0  0  0  0
 35 34  1  0  0  0  0
 36 37  1  0  0  0  0
 36 35  1  0  0  0  0
 37 35  1  0  0  0  0
 38 35  1  0  0  0  0
M  END
>  <MODEL>
7

>  <REMARK>
 VINA RESULT:      -6.8      2.041      3.011
  Name = 
  8 active torsions:
  status: ('A' for Active; 'I' for Inactive)
    1  A    between atoms: N_1  and  C_9
    2  A    between atoms: C_3  and  C_19
    3  A    between atoms: N_4  and  C_19
    4  A    between atoms: N_5  and  C_10
    5  A    between atoms: C_7  and  C_33
    6  A    between atoms: C_9  and  C_29
    7  A    between atoms: C_10  and  C_33
    8  A    between atoms: C_12  and  C_28
                            x       y       z     vdW  Elec       q    Type
                         _______ _______ _______ _____ _____    ______ ____

>  <TORSDO>
F 8

$$$$
=
 OpenBabel11052409403D

 38 42  0  0  1  0  0  0  0  0999 V2000
  160.9670  208.7950  151.9760 C   0  0  0  0  0  0  0  0  0  0  0  0
  161.4840  209.6140  150.9360 N   0  0  0  0  0  0  0  0  0  0  0  0
  159.2520  213.3440  152.8410 C   0  0  0  0  0  3  0  0  0  0  0  0
  160.0010  211.3750  154.0330 C   0  0  0  0  0  0  0  0  0  0  0  0
  158.7110  213.8400  154.0250 C   0  0  0  0  0  3  0  0  0  0  0  0
  159.9150  212.1110  152.8110 C   0  0  0  0  0  0  0  0  0  0  0  0
  160.5350  210.0270  154.1790 C   0  0  0  0  0  3  0  0  0  0  0  0
  159.4530  211.9250  155.1980 C   0  0  0  0  0  3  0  0  0  0  0  0
  161.3880  210.9080  150.7730 C   0  0  0  0  0  0  0  0  0  0  0  0
  158.8290  213.1310  155.1750 N   0  0  0  0  0  0  0  0  0  0  0  0
  160.7500  209.3300  153.1240 C   0  0  0  0  0  0  0  0  0  0  0  0
  160.5370  211.7980  151.5390 N   0  0  0  0  0  2  0  0  0  0  0  0
  162.1000  210.5040  148.3910 C   0  0  0  0  0  1  0  0  0  0  0  0
  162.0140  211.5030  149.5510 C   0  0  1  0  0  3  0  0  0  0  0  0
  161.3900  212.7900  149.2000 N   0  0  0  0  0  0  0  0  0  0  0  0
  161.1160  213.9640  147.1330 C   0  0  2  0  0  3  0  0  0  0  0  0
  162.1300  213.3790  148.0880 C   0  0  0  0  0  2  0  0  0  0  0  0
  159.9980  212.6250  148.7640 C   0  0  0  0  0  2  0  0  0  0  0  0
  159.8710  213.1420  147.3460 C   0  0  0  0  0  2  0  0  0  0  0  0
  162.4500  213.8600  143.0460 C   0  0  0  0  0  3  0  0  0  0  0  0
  160.7890  214.4520  144.7080 C   0  0  0  0  0  3  0  0  0  0  0  0
  162.8320  213.3370  145.3790 C   0  0  0  0  0  3  0  0  0  0  0  0
  161.5930  213.9070  145.7150 C   0  0  0  0  0  0  0  0  0  0  0  0
  161.2150  214.4280  143.3760 C   0  0  0  0  0  3  0  0  0  0  0  0
  163.2580  213.3150  144.0470 C   0  0  0  0  0  3  0  0  0  0  0  0
  161.0580  207.3140  151.8560 C   0  0  0  0  0  2  0  0  0  0  0  0
  161.3380  206.9460  150.4770 N   0  0  0  0  0  2  0  0  0  0  0  0
  161.3570  205.3280  148.6020 N   0  0  0  0  0  0  0  0  0  0  0  0
  160.4380  204.8050  150.6870 O   0  0  0  0  0  0  0  0  0  0  0  0
  162.0610  206.2560  147.8190 N   0  0  0  0  0  1  0  0  0  0  0  0
  161.0170  205.6540  149.9560 C   0  0  0  0  0  0  0  0  0  0  0  0
  161.0510  204.0070  148.0630 C   0  0  1  0  0  3  0  0  0  0  0  0
  161.4820  203.9190  146.6080 C   0  0  0  0  0  1  0  0  0  0  0  0
  161.7300  202.9290  148.9010 C   0  0  0  0  0  2  0  0  0  0  0  0
  160.9680  201.6130  148.8420 C   0  0  0  0  0  0  0  0  0  0  0  0
  159.6130  201.7510  149.0100 O   0  0  0  0  0  0  0  0  0  0  0  0
  160.3540  201.2410  150.0120 O   0  0  0  0  0  0  0  0  0  0  0  0
  161.3640  200.4660  147.9330 C   0  0  0  0  0  1  0  0  0  0  0  0
  1 11  2  0  0  0  0
  2  1  1  0  0  0  0
  3  5  1  0  0  0  0
  4  7  1  0  0  0  0
  4  8  2  0  0  0  0
  5 10  2  0  0  0  0
  6  3  2  0  0  0  0
  6  4  1  0  0  0  0
  9  2  2  0  0  0  0
  9 12  1  0  0  0  0
 10  8  1  0  0  0  0
 11  7  2  0  0  0  0
 12  6  1  0  0  0  0
 14 13  1  6  0  0  0
 14  9  1  0  0  0  0
 15 14  1  0  0  0  0
 16 23  1  6  0  0  0
 16 19  1  0  0  0  0
 16 17  1  0  0  0  0
 17 15  1  0  0  0  0
 18 15  1  0  0  0  0
 19 18  1  0  0  0  0
 20 24  2  0  0  0  0
 20 25  1  0  0  0  0
 21 23  2  0  0  0  0
 22 23  1  0  0  0  0
 24 21  1  0  0  0  0
 25 22  2  0  0  0  0
 26  1  1  0  0  0  0
 27 26  1  0  0  0  0
 28 31  1  0  0  0  0
 30 28  1  0  0  0  0
 31 27  1  0  0  0  0
 31 29  2  0  0  0  0
 32 33  1  6  0  0  0
 32 28  1  0  0  0  0
 32 34  1  0  0  0  0
 35 34  1  0  0  0  0
 35 36  1  0  0  0  0
 35 37  1  0  0  0  0
 36 37  1  0  0  0  0
 38 35  1  0  0  0  0
M  END
>  <MODEL>
8

>  <REMARK>
 VINA RESULT:      -6.7      3.181      7.971
  Name = 
  8 active torsions:
  status: ('A' for Active; 'I' for Inactive)
    1  A    between atoms: N_1  and  C_9
    2  A    between atoms: C_3  and  C_19
    3  A    between atoms: N_4  and  C_19
    4  A    between atoms: N_5  and  C_10
    5  A    between atoms: C_7  and  C_33
    6  A    between atoms: C_9  and  C_29
    7  A    between atoms: C_10  and  C_33
    8  A    between atoms: C_12  and  C_28
                            x       y       z     vdW  Elec       q    Type
                         _______ _______ _______ _____ _____    ______ ____

>  <TORSDO>
F 8

$$$$
=
 OpenBabel11052409403D

 38 42  0  0  1  0  0  0  0  0999 V2000
  161.9870  209.8610  150.9840 C   0  0  0  0  0  0  0  0  0  0  0  0
  161.9310  208.5500  150.4400 N   0  0  0  0  0  0  0  0  0  0  0  0
  160.8480  206.8720  154.7450 C   0  0  0  0  0  3  0  0  0  0  0  0
  160.3920  209.1070  153.9340 C   0  0  0  0  0  0  0  0  0  0  0  0
  160.3120  207.2240  155.9820 C   0  0  0  0  0  3  0  0  0  0  0  0
  160.8960  207.7910  153.6910 C   0  0  0  0  0  0  0  0  0  0  0  0
  160.4690  210.2330  153.0130 C   0  0  0  0  0  3  0  0  0  0  0  0
  159.8520  209.4040  155.1910 C   0  0  0  0  0  3  0  0  0  0  0  0
  161.5810  207.4280  151.0140 C   0  0  0  0  0  0  0  0  0  0  0  0
  159.8190  208.4720  156.1770 N   0  0  0  0  0  0  0  0  0  0  0  0
  161.2330  210.1390  151.9860 C   0  0  0  0  0  0  0  0  0  0  0  0
  161.3570  207.2360  152.4330 N   0  0  0  0  0  2  0  0  0  0  0  0
  160.3730  205.3340  150.3070 C   0  0  0  0  0  1  0  0  0  0  0  0
  161.6480  206.1770  150.1930 C   0  0  1  0  0  3  0  0  0  0  0  0
  162.0670  206.4630  148.8110 N   0  0  0  0  0  0  0  0  0  0  0  0
  161.7200  205.3320  146.7310 C   0  0  2  0  0  3  0  0  0  0  0  0
  162.2950  205.1970  148.1210 C   0  0  0  0  0  2  0  0  0  0  0  0
  161.0350  207.1920  148.0640 C   0  0  0  0  0  2  0  0  0  0  0  0
  160.6250  206.3580  146.8680 C   0  0  0  0  0  2  0  0  0  0  0  0
  160.2320  201.5570  145.3100 C   0  0  0  0  0  3  0  0  0  0  0  0
  161.3390  202.8820  147.0100 C   0  0  0  0  0  3  0  0  0  0  0  0
  160.5810  203.9260  144.9590 C   0  0  0  0  0  3  0  0  0  0  0  0
  161.2070  204.0250  146.2130 C   0  0  0  0  0  0  0  0  0  0  0  0
  160.8540  201.6500  146.5590 C   0  0  0  0  0  3  0  0  0  0  0  0
  160.0960  202.6940  144.5110 C   0  0  0  0  0  3  0  0  0  0  0  0
  162.5840  210.9640  150.1800 C   0  0  0  0  0  2  0  0  0  0  0  0
  161.5280  211.7610  149.5760 N   0  0  0  0  0  2  0  0  0  0  0  0
  160.5510  213.0320  147.6880 N   0  0  0  0  0  0  0  0  0  0  0  0
  162.5750  211.8780  147.4950 O   0  0  0  0  0  0  0  0  0  0  0  0
  159.5010  213.4480  148.5210 N   0  0  0  0  0  1  0  0  0  0  0  0
  161.5960  212.2080  148.2200 C   0  0  0  0  0  0  0  0  0  0  0  0
  160.6170  213.5090  146.3100 C   0  0  1  0  0  3  0  0  0  0  0  0
  161.9800  214.1220  146.0310 C   0  0  0  0  0  1  0  0  0  0  0  0
  160.3240  212.3660  145.3450 C   0  0  0  0  0  2  0  0  0  0  0  0
  160.4250  212.8190  143.8960 C   0  0  0  0  0  0  0  0  0  0  0  0
  159.6160  213.8840  143.5910 O   0  0  0  0  0  0  0  0  0  0  0  0
  159.2840  212.6550  143.1510 O   0  0  0  0  0  0  0  0  0  0  0  0
  161.7190  212.7800  143.1040 C   0  0  0  0  0  1  0  0  0  0  0  0
  1 11  2  0  0  0  0
  2  1  1  0  0  0  0
  2  9  2  0  0  0  0
  3  5  1  0  0  0  0
  4  8  2  0  0  0  0
  5 10  2  0  0  0  0
  6  4  1  0  0  0  0
  6  3  2  0  0  0  0
  7  4  1  0  0  0  0
  8 10  1  0  0  0  0
  9 12  1  0  0  0  0
 11  7  2  0  0  0  0
 12  6  1  0  0  0  0
 14 13  1  6  0  0  0
 14  9  1  0  0  0  0
 15 14  1  0  0  0  0
 16 23  1  1  0  0  0
 16 19  1  0  0  0  0
 16 17  1  0  0  0  0
 17 15  1  0  0  0  0
 18 15  1  0  0  0  0
 19 18  1  0  0  0  0
 20 24  1  0  0  0  0
 22 23  2  0  0  0  0
 23 21  1  0  0  0  0
 24 21  2  0  0  0  0
 25 22  1  0  0  0  0
 25 20  2  0  0  0  0
 26  1  1  0  0  0  0
 27 26  1  0  0  0  0
 28 31  1  0  0  0  0
 28 30  1  0  0  0  0
 29 31  2  0  0  0  0
 31 27  1  0  0  0  0
 32 33  1  6  0  0  0
 32 28  1  0  0  0  0
 34 32  1  0  0  0  0
 35 34  1  0  0  0  0
 36 35  1  0  0  0  0
 37 36  1  0  0  0  0
 37 35  1  0  0  0  0
 38 35  1  0  0  0  0
M  END
>  <MODEL>
9

>  <REMARK>
 VINA RESULT:      -6.6      1.542      2.376
  Name = 
  8 active torsions:
  status: ('A' for Active; 'I' for Inactive)
    1  A    between atoms: N_1  and  C_9
    2  A    between atoms: C_3  and  C_19
    3  A    between atoms: N_4  and  C_19
    4  A    between atoms: N_5  and  C_10
    5  A    between atoms: C_7  and  C_33
    6  A    between atoms: C_9  and  C_29
    7  A    between atoms: C_10  and  C_33
    8  A    between atoms: C_12  and  C_28
                            x       y       z     vdW  Elec       q    Type
                         _______ _______ _______ _____ _____    ______ ____

>  <TORSDO>
F 8

$$$$
