=
 OpenBabel11042422093D

 50 55  0  0  1  0  0  0  0  0999 V2000
  160.8100  208.9540  152.1580 N   0  0  0  0  0  0  0  0  0  0  0  0
  160.8100  207.2120  153.7360 N   0  0  0  0  0  2  0  0  0  0  0  0
  160.8600  208.6080  153.4150 C   0  0  0  0  0  0  0  0  0  0  0  0
  159.7750  211.1710  156.0140 C   0  0  0  0  0  0  0  0  0  0  0  0
  160.9450  209.5710  154.5480 C   0  0  0  0  0  0  0  0  0  0  0  0
  162.2520  209.7630  155.3590 C   0  0  2  0  0  3  0  0  0  0  0  0
  161.9370  210.9640  155.8750 C   0  0  0  0  0  0  0  0  0  0  0  0
  163.0610  210.8240  155.0530 N   0  0  0  0  0  0  0  0  0  0  0  0
  160.8940  211.6750  156.4780 N   0  0  0  0  0  0  0  0  0  0  0  0
  159.8160  210.1630  154.9380 N   0  0  0  0  0  0  0  0  0  0  0  0
  155.8280  213.1220  155.5390 C   0  0  0  0  0  1  0  0  0  0  0  0
  157.3760  211.2400  155.6170 N   0  0  0  0  0  2  0  0  0  0  0  0
  158.2840  213.1720  155.9120 C   0  0  0  0  0  2  0  0  0  0  0  0
  157.1690  212.5800  155.0770 C   0  0  2  0  0  3  0  0  0  0  0  0
  158.4620  211.7620  156.4430 C   0  0  2  0  0  3  0  0  0  0  0  0
  160.7780  203.6770  152.2810 C   0  0  0  0  0  2  0  0  0  0  0  0
  161.3840  206.5160  151.4340 C   0  0  1  0  0  3  0  0  0  0  0  0
  160.5900  204.1500  150.8360 C   0  0  0  0  0  2  0  0  0  0  0  0
  160.6300  206.1710  152.7300 C   0  0  1  0  0  3  0  0  0  0  0  0
  161.0750  204.8110  153.2730 C   0  0  0  0  0  2  0  0  0  0  0  0
  162.6500  207.0350  151.7170 O   0  0  0  0  0  1  0  0  0  0  0  0
  161.5400  205.3050  150.5010 C   0  0  1  0  0  3  0  0  0  0  0  0
  161.4680  205.7020  149.0290 C   0  0  0  0  0  2  0  0  0  0  0  0
  161.7630  204.5460  148.0670 C   0  0  2  0  0  3  0  0  0  0  0  0
  162.1610  206.6820  146.3970 O   0  0  0  0  0  1  0  0  0  0  0  0
  162.1690  205.1710  146.4020 P   0  0  0  0  0  0  0  0  0  0  0  0
  161.0320  204.6020  145.2870 O   0  0  0  0  0  0  0  0  0  0  0  0
  163.7070  204.6190  145.9650 O   0  0  0  0  0  1  0  0  0  0  0  0
  160.6990  203.5360  148.0250 N   0  0  0  0  0  2  0  0  0  0  0  0
  161.1650  202.2990  147.4020 C   0  0  0  0  0  2  0  0  0  0  0  0
  161.4560  199.9780  147.8220 O   0  0  0  0  0  1  0  0  0  0  0  0
  161.3380  201.2140  148.4530 C   0  0  2  0  0  3  0  0  0  0  0  0
  160.1410  201.1880  149.3870 C   0  0  0  0  0  1  0  0  0  0  0  0
  160.8120  210.2960  151.5940 C   0  0  1  0  0  3  0  0  0  0  0  0
  160.6550  211.2360  152.6170 O   0  0  0  0  0  0  0  0  0  0  0  0
  159.7720  212.1860  152.1040 C   0  0  0  0  0  1  0  0  0  0  0  0
  162.1140  210.5430  150.8320 C   0  0  0  0  0  2  0  0  0  0  0  0
  161.9300  210.5430  149.3150 C   0  0  0  0  0  2  0  0  0  0  0  0
  162.5660  213.3780  145.4220 C   0  0  0  0  0  2  0  0  0  0  0  0
  161.4780  213.3770  144.3640 C   0  0  0  0  0  2  0  0  0  0  0  0
  159.7340  213.2760  146.0470 O   0  0  0  0  0  0  0  0  0  0  0  0
  160.6740  213.2510  147.1070 C   0  0  2  0  0  3  0  0  0  0  0  0
  162.0130  213.9310  146.7340 C   0  0  1  0  0  3  0  0  0  0  0  0
  161.7860  211.9010  148.8240 N   0  0  0  0  0  0  0  0  0  0  0  0
  163.0410  213.7700  147.8560 C   0  0  0  0  0  2  0  0  0  0  0  0
  163.1000  212.3150  148.3300 C   0  0  0  0  0  2  0  0  0  0  0  0
  160.8740  211.8430  147.6840 C   0  0  0  0  0  2  0  0  0  0  0  0
  160.2710  212.6180  144.9150 C   0  0  1  0  0  3  0  0  0  0  0  0
  159.5730  213.1350  142.6790 O   0  0  0  0  0  1  0  0  0  0  0  0
  159.2020  212.4640  143.8440 C   0  0  0  0  0  2  0  0  0  0  0  0
  1  3  2  0  0  0  0
  3  2  1  0  0  0  0
  3  5  1  0  0  0  0
  4  9  2  0  0  0  0
  5 10  2  0  0  0  0
  6  5  1  6  0  0  0
  6  7  1  0  0  0  0
  7  9  1  0  0  0  0
  8  6  1  0  0  0  0
  8  7  2  0  0  0  0
 10  4  1  0  0  0  0
 12 15  1  0  0  0  0
 13 15  1  0  0  0  0
 14 11  1  1  0  0  0
 14 12  1  0  0  0  0
 14 13  1  0  0  0  0
 15  4  1  6  0  0  0
 16 20  1  0  0  0  0
 17 21  1  1  0  0  0
 17 19  1  0  0  0  0
 18 16  1  0  0  0  0
 19 20  1  0  0  0  0
 19  2  1  1  0  0  0
 22 23  1  6  0  0  0
 22 18  1  0  0  0  0
 22 17  1  0  0  0  0
 24 23  1  1  0  0  0
 25 26  1  0  0  0  0
 26 24  1  0  0  0  0
 27 26  2  0  0  0  0
 28 26  1  0  0  0  0
 29 24  1  0  0  0  0
 30 29  1  0  0  0  0
 30 32  1  0  0  0  0
 31 32  1  0  0  0  0
 32 33  1  1  0  0  0
 34 37  1  1  0  0  0
 34  1  1  0  0  0  0
 34 35  1  0  0  0  0
 36 35  1  0  0  0  0
 38 37  1  0  0  0  0
 40 48  1  0  0  0  0
 40 39  1  0  0  0  0
 41 42  1  0  0  0  0
 42 47  1  6  0  0  0
 43 39  1  6  0  0  0
 43 42  1  0  0  0  0
 43 45  1  0  0  0  0
 44 38  1  0  0  0  0
 45 46  1  0  0  0  0
 46 44  1  0  0  0  0
 47 44  1  0  0  0  0
 48 50  1  6  0  0  0
 48 41  1  0  0  0  0
 49 50  1  0  0  0  0
M  END
>  <MODEL>
1

>  <REMARK>
 VINA RESULT:      -7.7      0.000      0.000
  Name = 
  15 active torsions:
  status: ('A' for Active; 'I' for Inactive)
    1  A    between atoms: C_1  and  C_49
    2  A    between atoms: N_4  and  C_33
    3  A    between atoms: C_6  and  C_35
    4  A    between atoms: C_7  and  N_24
    5  A    between atoms: C_7  and  C_42
    6  A    between atoms: C_10  and  C_16
    7  A    between atoms: C_10  and  C_44
    8  A    between atoms: O_15  and  C_33
    9  A    between atoms: C_16  and  P_23
   10  A    between atoms: C_16  and  N_50
   11  A    between atoms: C_21  and  N_27
   12  A    between atoms: C_33  and  C_42
   13  A    between atoms: C_34  and  C_48
   14  A    between atoms: C_36  and  C_38
   15  A    between atoms: C_38  and  N_50
                            x       y       z     vdW  Elec       q    Type
                         _______ _______ _______ _____ _____    ______ ____

>  <TORSDO>
F 15

$$$$
=
 OpenBabel11042422093D

 50 55  0  0  1  0  0  0  0  0999 V2000
  160.3890  212.2130  149.2670 N   0  0  0  0  0  0  0  0  0  0  0  0
  161.9270  210.6350  148.4480 N   0  0  0  0  0  2  0  0  0  0  0  0
  161.3420  211.9430  148.4170 C   0  0  0  0  0  0  0  0  0  0  0  0
  161.9960  213.6320  145.0680 C   0  0  0  0  0  0  0  0  0  0  0  0
  161.8810  212.9120  147.4230 C   0  0  0  0  0  0  0  0  0  0  0  0
  162.7220  214.1410  147.8530 C   0  0  2  0  0  3  0  0  0  0  0  0
  163.2910  214.3650  146.6570 C   0  0  0  0  0  0  0  0  0  0  0  0
  164.0850  214.0630  147.7680 N   0  0  0  0  0  0  0  0  0  0  0  0
  163.0080  214.4380  145.2880 N   0  0  0  0  0  0  0  0  0  0  0  0
  161.4960  212.7690  146.1540 N   0  0  0  0  0  0  0  0  0  0  0  0
  159.0380  212.7900  141.8820 C   0  0  0  0  0  1  0  0  0  0  0  0
  160.2290  214.1830  143.4890 N   0  0  0  0  0  2  0  0  0  0  0  0
  160.8090  212.1080  143.4850 C   0  0  0  0  0  2  0  0  0  0  0  0
  159.5380  212.9100  143.3110 C   0  0  2  0  0  3  0  0  0  0  0  0
  161.4830  213.4540  143.6680 C   0  0  2  0  0  3  0  0  0  0  0  0
  162.1520  208.6200  151.6890 C   0  0  0  0  0  2  0  0  0  0  0  0
  161.4180  208.2380  148.7800 C   0  0  1  0  0  3  0  0  0  0  0  0
  161.1310  207.5680  151.2420 C   0  0  0  0  0  2  0  0  0  0  0  0
  161.5610  209.6240  149.4340 C   0  0  1  0  0  3  0  0  0  0  0  0
  162.5800  209.5860  150.5750 C   0  0  0  0  0  2  0  0  0  0  0  0
  162.4480  208.0120  147.8630 O   0  0  0  0  0  1  0  0  0  0  0  0
  161.4100  207.0970  149.8110 C   0  0  1  0  0  3  0  0  0  0  0  0
  160.4920  205.9520  149.3910 C   0  0  0  0  0  2  0  0  0  0  0  0
  161.2430  204.6690  149.0210 C   0  0  2  0  0  3  0  0  0  0  0  0
  160.7140  205.6150  146.5040 O   0  0  0  0  0  0  0  0  0  0  0  0
  161.5650  204.5970  147.2270 P   0  0  0  0  0  0  0  0  0  0  0  0
  161.2030  203.0510  146.6440 O   0  0  0  0  0  1  0  0  0  0  0  0
  163.1990  204.9320  146.9450 O   0  0  0  0  0  1  0  0  0  0  0  0
  160.5880  203.4490  149.5050 N   0  0  0  0  0  2  0  0  0  0  0  0
  161.5670  202.4550  149.9390 C   0  0  0  0  0  2  0  0  0  0  0  0
  161.6820  200.4840  148.6140 O   0  0  0  0  0  1  0  0  0  0  0  0
  161.0300  201.0520  149.7070 C   0  0  2  0  0  3  0  0  0  0  0  0
  159.5370  201.0970  149.4310 C   0  0  0  0  0  1  0  0  0  0  0  0
  159.6740  213.4680  149.4450 C   0  0  1  0  0  3  0  0  0  0  0  0
  158.3300  213.2970  149.0990 O   0  0  0  0  0  0  0  0  0  0  0  0
  158.3010  213.3830  147.7070 C   0  0  0  0  0  1  0  0  0  0  0  0
  159.8000  213.9420  150.8940 C   0  0  0  0  0  2  0  0  0  0  0  0
  158.8180  213.2490  151.8370 C   0  0  0  0  0  2  0  0  0  0  0  0
  158.5860  210.8850  156.0750 C   0  0  0  0  0  2  0  0  0  0  0  0
  159.4020  209.6130  156.2190 C   0  0  0  0  0  2  0  0  0  0  0  0
  161.2540  210.5700  154.9780 O   0  0  0  0  0  0  0  0  0  0  0  0
  160.5650  211.7900  154.7720 C   0  0  2  0  0  3  0  0  0  0  0  0
  159.5180  212.0790  155.8740 C   0  0  1  0  0  3  0  0  0  0  0  0
  159.3530  213.2140  153.1870 N   0  0  0  0  0  0  0  0  0  0  0  0
  158.7090  213.3360  155.5470 C   0  0  0  0  0  2  0  0  0  0  0  0
  158.2120  213.2990  154.0990 C   0  0  0  0  0  2  0  0  0  0  0  0
  159.9740  211.9030  153.3600 C   0  0  0  0  0  2  0  0  0  0  0  0
  160.3310  209.4990  155.0100 C   0  0  1  0  0  3  0  0  0  0  0  0
  160.3360  207.2060  155.7180 O   0  0  0  0  0  1  0  0  0  0  0  0
  161.0720  208.1710  155.0300 C   0  0  0  0  0  2  0  0  0  0  0  0
  1 34  1  0  0  0  0
  3  2  1  0  0  0  0
  3  1  2  0  0  0  0
  4  9  2  0  0  0  0
  4 10  1  0  0  0  0
  5  6  1  0  0  0  0
  5  3  1  0  0  0  0
  6  7  1  6  0  0  0
  7  8  2  0  0  0  0
  8  6  1  0  0  0  0
  9  7  1  0  0  0  0
 10  5  2  0  0  0  0
 12 15  1  0  0  0  0
 13 15  1  0  0  0  0
 14 11  1  6  0  0  0
 14 13  1  0  0  0  0
 14 12  1  0  0  0  0
 15  4  1  1  0  0  0
 17 21  1  6  0  0  0
 17 19  1  0  0  0  0
 17 22  1  0  0  0  0
 18 16  1  0  0  0  0
 19  2  1  6  0  0  0
 19 20  1  0  0  0  0
 20 16  1  0  0  0  0
 22 23  1  6  0  0  0
 22 18  1  0  0  0  0
 24 23  1  6  0  0  0
 24 29  1  0  0  0  0
 25 26  2  0  0  0  0
 26 24  1  0  0  0  0
 27 26  1  0  0  0  0
 28 26  1  0  0  0  0
 29 30  1  0  0  0  0
 31 32  1  0  0  0  0
 32 33  1  6  0  0  0
 32 30  1  0  0  0  0
 34 37  1  1  0  0  0
 35 34  1  0  0  0  0
 36 35  1  0  0  0  0
 37 38  1  0  0  0  0
 38 44  1  0  0  0  0
 39 40  1  0  0  0  0
 41 48  1  0  0  0  0
 42 47  1  6  0  0  0
 42 41  1  0  0  0  0
 42 43  1  0  0  0  0
 43 45  1  6  0  0  0
 43 39  1  0  0  0  0
 44 47  1  0  0  0  0
 44 46  1  0  0  0  0
 46 45  1  0  0  0  0
 48 50  1  1  0  0  0
 48 40  1  0  0  0  0
 50 49  1  0  0  0  0
M  END
>  <MODEL>
2

>  <REMARK>
 VINA RESULT:      -7.5      2.410      7.802
  Name = 
  15 active torsions:
  status: ('A' for Active; 'I' for Inactive)
    1  A    between atoms: C_1  and  C_49
    2  A    between atoms: N_4  and  C_33
    3  A    between atoms: C_6  and  C_35
    4  A    between atoms: C_7  and  N_24
    5  A    between atoms: C_7  and  C_42
    6  A    between atoms: C_10  and  C_16
    7  A    between atoms: C_10  and  C_44
    8  A    between atoms: O_15  and  C_33
    9  A    between atoms: C_16  and  P_23
   10  A    between atoms: C_16  and  N_50
   11  A    between atoms: C_21  and  N_27
   12  A    between atoms: C_33  and  C_42
   13  A    between atoms: C_34  and  C_48
   14  A    between atoms: C_36  and  C_38
   15  A    between atoms: C_38  and  N_50
                            x       y       z     vdW  Elec       q    Type
                         _______ _______ _______ _____ _____    ______ ____

>  <TORSDO>
F 15

$$$$
=
 OpenBabel11042422093D

 50 55  0  0  1  0  0  0  0  0999 V2000
  160.3690  212.3560  149.7180 N   0  0  0  0  0  0  0  0  0  0  0  0
  161.7540  210.6710  148.8400 N   0  0  0  0  0  2  0  0  0  0  0  0
  161.2350  212.0070  148.8060 C   0  0  0  0  0  0  0  0  0  0  0  0
  162.0020  213.3390  145.3230 C   0  0  0  0  0  0  0  0  0  0  0  0
  161.7390  212.9120  147.7360 C   0  0  0  0  0  0  0  0  0  0  0  0
  162.3550  214.2970  148.0620 C   0  0  2  0  0  3  0  0  0  0  0  0
  163.0120  214.4500  146.8990 C   0  0  0  0  0  0  0  0  0  0  0  0
  163.7180  214.4110  148.1060 N   0  0  0  0  0  0  0  0  0  0  0  0
  162.8670  214.3070  145.5150 N   0  0  0  0  0  0  0  0  0  0  0  0
  161.5120  212.5550  146.4720 N   0  0  0  0  0  0  0  0  0  0  0  0
  161.9560  213.5320  140.8990 C   0  0  0  0  0  1  0  0  0  0  0  0
  162.8640  212.9410  143.0830 N   0  0  0  0  0  2  0  0  0  0  0  0
  161.0050  214.0290  143.1390 C   0  0  0  0  0  2  0  0  0  0  0  0
  162.2660  214.0200  142.3030 C   0  0  2  0  0  3  0  0  0  0  0  0
  161.6680  212.9120  143.9220 C   0  0  2  0  0  3  0  0  0  0  0  0
  162.1040  208.8020  152.1560 C   0  0  0  0  0  2  0  0  0  0  0  0
  161.2150  208.3040  149.3090 C   0  0  1  0  0  3  0  0  0  0  0  0
  161.0410  207.7540  151.8100 C   0  0  0  0  0  2  0  0  0  0  0  0
  161.4180  209.7150  149.8890 C   0  0  1  0  0  3  0  0  0  0  0  0
  162.4940  209.7060  150.9770 C   0  0  0  0  0  2  0  0  0  0  0  0
  162.1910  208.0130  148.3520 O   0  0  0  0  0  1  0  0  0  0  0  0
  161.2370  207.2120  150.3900 C   0  0  1  0  0  3  0  0  0  0  0  0
  160.2760  206.0700  150.0710 C   0  0  0  0  0  2  0  0  0  0  0  0
  160.9540  204.6970  150.0100 C   0  0  2  0  0  3  0  0  0  0  0  0
  160.6610  204.5510  152.7310 O   0  0  0  0  0  1  0  0  0  0  0  0
  161.6520  204.2420  151.6330 P   0  0  0  0  0  0  0  0  0  0  0  0
  163.0760  205.1130  151.9050 O   0  0  0  0  0  1  0  0  0  0  0  0
  161.9970  202.5870  151.6410 O   0  0  0  0  0  0  0  0  0  0  0  0
  161.9510  204.5860  148.9390 N   0  0  0  0  0  2  0  0  0  0  0  0
  161.3250  204.2480  147.6620 C   0  0  0  0  0  2  0  0  0  0  0  0
  160.6200  205.9960  146.2140 O   0  0  0  0  0  1  0  0  0  0  0  0
  161.7330  205.2510  146.5950 C   0  0  2  0  0  3  0  0  0  0  0  0
  162.2920  204.5310  145.3810 C   0  0  0  0  0  1  0  0  0  0  0  0
  159.7350  213.6530  149.9060 C   0  0  1  0  0  3  0  0  0  0  0  0
  158.4610  213.6410  149.3290 O   0  0  0  0  0  0  0  0  0  0  0  0
  158.6660  213.9910  147.9940 C   0  0  0  0  0  1  0  0  0  0  0  0
  159.6470  213.9820  151.3970 C   0  0  0  0  0  2  0  0  0  0  0  0
  158.2480  213.7730  151.9740 C   0  0  0  0  0  2  0  0  0  0  0  0
  158.1100  210.7960  155.8100 C   0  0  0  0  0  2  0  0  0  0  0  0
  159.3980  210.0990  156.2090 C   0  0  0  0  0  2  0  0  0  0  0  0
  160.7100  212.0790  155.7220 O   0  0  0  0  0  0  0  0  0  0  0  0
  159.5690  212.8090  155.3080 C   0  0  2  0  0  3  0  0  0  0  0  0
  158.2650  212.3060  155.9750 C   0  0  1  0  0  3  0  0  0  0  0  0
  158.3020  213.7330  153.4250 N   0  0  0  0  0  0  0  0  0  0  0  0
  157.0430  213.0320  155.4070 C   0  0  0  0  0  2  0  0  0  0  0  0
  157.0880  213.0510  153.8770 C   0  0  0  0  0  2  0  0  0  0  0  0
  159.4470  212.8990  153.7810 C   0  0  0  0  0  2  0  0  0  0  0  0
  160.5440  210.7100  155.4050 C   0  0  1  0  0  3  0  0  0  0  0  0
  161.5990  208.5840  155.7580 O   0  0  0  0  0  1  0  0  0  0  0  0
  161.8390  209.9550  155.6600 C   0  0  0  0  0  2  0  0  0  0  0  0
  1 34  1  0  0  0  0
  3  2  1  0  0  0  0
  3  1  2  0  0  0  0
  4  9  2  0  0  0  0
  4 10  1  0  0  0  0
  5  6  1  0  0  0  0
  5  3  1  0  0  0  0
  6  7  1  6  0  0  0
  6  8  1  0  0  0  0
  7  8  2  0  0  0  0
  9  7  1  0  0  0  0
 10  5  2  0  0  0  0
 12 15  1  0  0  0  0
 13 15  1  0  0  0  0
 14 11  1  6  0  0  0
 14 12  1  0  0  0  0
 14 13  1  0  0  0  0
 15  4  1  1  0  0  0
 17 21  1  6  0  0  0
 17 19  1  0  0  0  0
 17 22  1  0  0  0  0
 18 16  1  0  0  0  0
 19  2  1  6  0  0  0
 19 20  1  0  0  0  0
 20 16  1  0  0  0  0
 22 23  1  6  0  0  0
 22 18  1  0  0  0  0
 24 23  1  1  0  0  0
 24 26  1  0  0  0  0
 26 28  2  0  0  0  0
 26 27  1  0  0  0  0
 26 25  1  0  0  0  0
 29 24  1  0  0  0  0
 30 29  1  0  0  0  0
 31 32  1  0  0  0  0
 32 33  1  6  0  0  0
 32 30  1  0  0  0  0
 34 37  1  1  0  0  0
 35 34  1  0  0  0  0
 36 35  1  0  0  0  0
 37 38  1  0  0  0  0
 38 44  1  0  0  0  0
 39 43  1  0  0  0  0
 39 40  1  0  0  0  0
 42 47  1  6  0  0  0
 42 41  1  0  0  0  0
 42 43  1  0  0  0  0
 43 45  1  6  0  0  0
 44 47  1  0  0  0  0
 44 46  1  0  0  0  0
 46 45  1  0  0  0  0
 48 50  1  1  0  0  0
 48 41  1  0  0  0  0
 48 40  1  0  0  0  0
 50 49  1  0  0  0  0
M  END
>  <MODEL>
3

>  <REMARK>
 VINA RESULT:      -7.0      2.706      8.288
  Name = 
  15 active torsions:
  status: ('A' for Active; 'I' for Inactive)
    1  A    between atoms: C_1  and  C_49
    2  A    between atoms: N_4  and  C_33
    3  A    between atoms: C_6  and  C_35
    4  A    between atoms: C_7  and  N_24
    5  A    between atoms: C_7  and  C_42
    6  A    between atoms: C_10  and  C_16
    7  A    between atoms: C_10  and  C_44
    8  A    between atoms: O_15  and  C_33
    9  A    between atoms: C_16  and  P_23
   10  A    between atoms: C_16  and  N_50
   11  A    between atoms: C_21  and  N_27
   12  A    between atoms: C_33  and  C_42
   13  A    between atoms: C_34  and  C_48
   14  A    between atoms: C_36  and  C_38
   15  A    between atoms: C_38  and  N_50
                            x       y       z     vdW  Elec       q    Type
                         _______ _______ _______ _____ _____    ______ ____

>  <TORSDO>
F 15

$$$$
=
 OpenBabel11042422093D

 50 55  0  0  1  0  0  0  0  0999 V2000
  161.4010  208.1840  150.8270 N   0  0  0  0  0  0  0  0  0  0  0  0
  160.7180  207.5110  152.9730 N   0  0  0  0  0  2  0  0  0  0  0  0
  161.1310  207.1980  151.6370 C   0  0  0  0  0  0  0  0  0  0  0  0
  160.8960  204.0080  149.5700 C   0  0  0  0  0  0  0  0  0  0  0  0
  161.2410  205.7570  151.2720 C   0  0  0  0  0  0  0  0  0  0  0  0
  161.9000  204.7230  152.2200 C   0  0  2  0  0  3  0  0  0  0  0  0
  161.3460  203.6310  151.6660 C   0  0  0  0  0  0  0  0  0  0  0  0
  161.0910  203.9460  153.0050 N   0  0  0  0  0  0  0  0  0  0  0  0
  161.0630  203.0340  150.4320 N   0  0  0  0  0  0  0  0  0  0  0  0
  160.8800  205.4070  150.0370 N   0  0  0  0  0  0  0  0  0  0  0  0
  160.9020  201.7340  145.7700 C   0  0  0  0  0  1  0  0  0  0  0  0
  160.1600  202.2760  148.0280 N   0  0  0  0  0  2  0  0  0  0  0  0
  161.7590  203.5120  147.2790 C   0  0  0  0  0  2  0  0  0  0  0  0
  161.3350  202.0620  147.1880 C   0  0  2  0  0  3  0  0  0  0  0  0
  160.5290  203.6850  148.1500 C   0  0  2  0  0  3  0  0  0  0  0  0
  162.0460  210.8230  154.3440 C   0  0  0  0  0  2  0  0  0  0  0  0
  159.6630  208.9870  154.6530 C   0  0  1  0  0  3  0  0  0  0  0  0
  160.6610  211.3510  154.7310 C   0  0  0  0  0  2  0  0  0  0  0  0
  160.6630  208.8740  153.4880 C   0  0  1  0  0  3  0  0  0  0  0  0
  162.0530  209.3480  153.9170 C   0  0  0  0  0  2  0  0  0  0  0  0
  159.7770  207.8940  155.5150 O   0  0  0  0  0  1  0  0  0  0  0  0
  159.8430  210.2810  155.4620 C   0  0  1  0  0  3  0  0  0  0  0  0
  158.5130  210.8240  155.9780 C   0  0  0  0  0  2  0  0  0  0  0  0
  157.9920  212.0260  155.1830 C   0  0  2  0  0  3  0  0  0  0  0  0
  156.0110  213.9120  155.3580 O   0  0  0  0  0  0  0  0  0  0  0  0
  156.9360  213.0880  156.2240 P   0  0  0  0  0  0  0  0  0  0  0  0
  157.9020  214.1220  157.1490 O   0  0  0  0  0  1  0  0  0  0  0  0
  156.0150  212.1120  157.2540 O   0  0  0  0  0  1  0  0  0  0  0  0
  157.3220  211.6530  153.9320 N   0  0  0  0  0  2  0  0  0  0  0  0
  158.1720  211.9170  152.7740 C   0  0  0  0  0  2  0  0  0  0  0  0
  158.1860  213.2100  150.7790 O   0  0  0  0  0  1  0  0  0  0  0  0
  157.7590  213.2180  152.1050 C   0  0  2  0  0  3  0  0  0  0  0  0
  158.3820  214.4030  152.8230 C   0  0  0  0  0  1  0  0  0  0  0  0
  161.8660  208.1140  149.4490 C   0  0  1  0  0  3  0  0  0  0  0  0
  160.9200  207.4450  148.6670 O   0  0  0  0  0  0  0  0  0  0  0  0
  161.5560  207.2150  147.4470 C   0  0  0  0  0  1  0  0  0  0  0  0
  162.1110  209.5230  148.9070 C   0  0  0  0  0  2  0  0  0  0  0  0
  161.9540  210.6090  149.9700 C   0  0  0  0  0  2  0  0  0  0  0  0
  161.4930  213.0410  145.7910 C   0  0  0  0  0  2  0  0  0  0  0  0
  160.0990  213.4790  145.3800 C   0  0  0  0  0  2  0  0  0  0  0  0
  159.5140  214.0320  147.6670 O   0  0  0  0  0  0  0  0  0  0  0  0
  160.7820  213.6280  148.1540 C   0  0  2  0  0  3  0  0  0  0  0  0
  161.8960  213.7440  147.0850 C   0  0  1  0  0  3  0  0  0  0  0  0
  162.0610  211.9250  149.3670 N   0  0  0  0  0  0  0  0  0  0  0  0
  163.2190  213.1790  147.6080 C   0  0  0  0  0  2  0  0  0  0  0  0
  163.0030  211.8070  148.2530 C   0  0  0  0  0  2  0  0  0  0  0  0
  160.7460  212.2430  148.8140 C   0  0  0  0  0  2  0  0  0  0  0  0
  159.1530  213.2370  146.5550 C   0  0  1  0  0  3  0  0  0  0  0  0
  157.6580  214.0090  144.8440 O   0  0  0  0  0  1  0  0  0  0  0  0
  157.7150  213.5260  146.1510 C   0  0  0  0  0  2  0  0  0  0  0  0
  1  3  2  0  0  0  0
  3  2  1  0  0  0  0
  4 10  1  0  0  0  0
  4  9  2  0  0  0  0
  5  3  1  0  0  0  0
  6  5  1  6  0  0  0
  6  8  1  0  0  0  0
  7  6  1  0  0  0  0
  7  8  2  0  0  0  0
  9  7  1  0  0  0  0
 10  5  2  0  0  0  0
 12 15  1  0  0  0  0
 13 15  1  0  0  0  0
 14 11  1  6  0  0  0
 14 13  1  0  0  0  0
 14 12  1  0  0  0  0
 15  4  1  1  0  0  0
 16 18  1  0  0  0  0
 17 22  1  0  0  0  0
 17 21  1  1  0  0  0
 18 22  1  0  0  0  0
 19  2  1  1  0  0  0
 19 20  1  0  0  0  0
 19 17  1  0  0  0  0
 20 16  1  0  0  0  0
 22 23  1  6  0  0  0
 24 23  1  1  0  0  0
 24 26  1  0  0  0  0
 25 26  2  0  0  0  0
 26 27  1  0  0  0  0
 26 28  1  0  0  0  0
 29 24  1  0  0  0  0
 30 29  1  0  0  0  0
 31 32  1  0  0  0  0
 32 30  1  0  0  0  0
 32 33  1  1  0  0  0
 34 37  1  6  0  0  0
 34  1  1  0  0  0  0
 35 34  1  0  0  0  0
 36 35  1  0  0  0  0
 37 38  1  0  0  0  0
 40 39  1  0  0  0  0
 40 48  1  0  0  0  0
 41 42  1  0  0  0  0
 42 47  1  6  0  0  0
 43 39  1  6  0  0  0
 43 45  1  0  0  0  0
 43 42  1  0  0  0  0
 44 38  1  0  0  0  0
 45 46  1  0  0  0  0
 46 44  1  0  0  0  0
 47 44  1  0  0  0  0
 48 50  1  6  0  0  0
 48 41  1  0  0  0  0
 49 50  1  0  0  0  0
M  END
>  <MODEL>
4

>  <REMARK>
 VINA RESULT:      -6.8      3.022      8.455
  Name = 
  15 active torsions:
  status: ('A' for Active; 'I' for Inactive)
    1  A    between atoms: C_1  and  C_49
    2  A    between atoms: N_4  and  C_33
    3  A    between atoms: C_6  and  C_35
    4  A    between atoms: C_7  and  N_24
    5  A    between atoms: C_7  and  C_42
    6  A    between atoms: C_10  and  C_16
    7  A    between atoms: C_10  and  C_44
    8  A    between atoms: O_15  and  C_33
    9  A    between atoms: C_16  and  P_23
   10  A    between atoms: C_16  and  N_50
   11  A    between atoms: C_21  and  N_27
   12  A    between atoms: C_33  and  C_42
   13  A    between atoms: C_34  and  C_48
   14  A    between atoms: C_36  and  C_38
   15  A    between atoms: C_38  and  N_50
                            x       y       z     vdW  Elec       q    Type
                         _______ _______ _______ _____ _____    ______ ____

>  <TORSDO>
F 15

$$$$
=
 OpenBabel11042422093D

 50 55  0  0  1  0  0  0  0  0999 V2000
  161.1720  209.6280  151.9880 N   0  0  0  0  0  0  0  0  0  0  0  0
  160.6570  211.9120  151.7720 N   0  0  0  0  0  2  0  0  0  0  0  0
  160.9340  210.7640  152.5840 C   0  0  0  0  0  0  0  0  0  0  0  0
  159.9410  212.0470  156.0290 C   0  0  0  0  0  0  0  0  0  0  0  0
  160.9480  210.9560  154.0620 C   0  0  0  0  0  0  0  0  0  0  0  0
  161.9090  210.1580  154.9800 C   0  0  2  0  0  3  0  0  0  0  0  0
  161.8440  210.9910  156.0320 C   0  0  0  0  0  0  0  0  0  0  0  0
  163.0670  210.7580  155.3940 N   0  0  0  0  0  0  0  0  0  0  0  0
  160.9460  211.7300  156.8100 N   0  0  0  0  0  0  0  0  0  0  0  0
  160.0050  211.7380  154.5890 N   0  0  0  0  0  0  0  0  0  0  0  0
  155.7540  213.2410  156.8390 C   0  0  0  0  0  1  0  0  0  0  0  0
  157.8420  212.0560  157.2600 N   0  0  0  0  0  2  0  0  0  0  0  0
  157.8350  213.2740  155.4820 C   0  0  0  0  0  2  0  0  0  0  0  0
  156.8600  212.3950  156.2350 C   0  0  2  0  0  3  0  0  0  0  0  0
  158.8220  212.8910  156.5690 C   0  0  2  0  0  3  0  0  0  0  0  0
  162.1940  211.4590  148.3010 C   0  0  0  0  0  2  0  0  0  0  0  0
  160.1550  213.1880  149.7150 C   0  0  1  0  0  3  0  0  0  0  0  0
  160.9950  212.0660  147.5640 C   0  0  0  0  0  2  0  0  0  0  0  0
  160.7070  211.8830  150.3140 C   0  0  1  0  0  3  0  0  0  0  0  0
  162.1340  211.6210  149.8270 C   0  0  0  0  0  2  0  0  0  0  0  0
  160.6120  214.2980  150.4310 O   0  0  0  0  0  1  0  0  0  0  0  0
  160.5300  213.3630  148.2340 C   0  0  1  0  0  3  0  0  0  0  0  0
  159.4260  214.0580  147.4420 C   0  0  0  0  0  2  0  0  0  0  0  0
  159.8310  214.4130  146.0070 C   0  0  2  0  0  3  0  0  0  0  0  0
  158.6730  214.4060  143.5240 O   0  0  0  0  0  0  0  0  0  0  0  0
  158.7330  213.5990  144.7990 P   0  0  0  0  0  0  0  0  0  0  0  0
  157.1770  213.4610  145.4460 O   0  0  0  0  0  1  0  0  0  0  0  0
  159.3360  212.0560  144.4570 O   0  0  0  0  0  1  0  0  0  0  0  0
  161.2460  214.1500  145.7190 N   0  0  0  0  0  2  0  0  0  0  0  0
  161.5490  214.3640  144.3050 C   0  0  0  0  0  2  0  0  0  0  0  0
  163.3960  213.0240  144.9710 O   0  0  0  0  0  1  0  0  0  0  0  0
  162.6600  213.4280  143.8590 C   0  0  2  0  0  3  0  0  0  0  0  0
  163.5820  214.1330  142.8790 C   0  0  0  0  0  1  0  0  0  0  0  0
  161.5070  208.3470  152.5940 C   0  0  1  0  0  3  0  0  0  0  0  0
  160.3580  207.7730  153.1460 O   0  0  0  0  0  0  0  0  0  0  0  0
  160.8170  206.9960  154.2090 C   0  0  0  0  0  1  0  0  0  0  0  0
  162.1250  207.4180  151.5490 C   0  0  0  0  0  2  0  0  0  0  0  0
  161.0960  206.5140  150.8700 C   0  0  0  0  0  2  0  0  0  0  0  0
  163.1190  205.5890  146.5520 C   0  0  0  0  0  2  0  0  0  0  0  0
  162.6920  204.3250  145.8290 C   0  0  0  0  0  2  0  0  0  0  0  0
  160.3880  204.6120  146.5280 O   0  0  0  0  0  0  0  0  0  0  0  0
  160.6890  205.7920  147.2500 C   0  0  2  0  0  3  0  0  0  0  0  0
  161.9270  206.5340  146.6910 C   0  0  1  0  0  3  0  0  0  0  0  0
  161.0140  206.8180  149.4530 N   0  0  0  0  0  0  0  0  0  0  0  0
  162.2960  207.7300  147.5740 C   0  0  0  0  0  2  0  0  0  0  0  0
  162.3280  207.3220  149.0500 C   0  0  0  0  0  2  0  0  0  0  0  0
  160.7870  205.5500  148.7630 C   0  0  0  0  0  2  0  0  0  0  0  0
  161.4940  203.7310  146.5670 C   0  0  1  0  0  3  0  0  0  0  0  0
  160.7640  201.4810  146.9730 O   0  0  0  0  0  1  0  0  0  0  0  0
  161.1110  202.3860  145.9690 C   0  0  0  0  0  2  0  0  0  0  0  0
  1  3  2  0  0  0  0
  1 34  1  0  0  0  0
  2  3  1  0  0  0  0
  3  5  1  0  0  0  0
  4  9  2  0  0  0  0
  5 10  2  0  0  0  0
  6  5  1  6  0  0  0
  6  8  1  0  0  0  0
  6  7  1  0  0  0  0
  7  9  1  0  0  0  0
  8  7  2  0  0  0  0
 10  4  1  0  0  0  0
 13 14  1  0  0  0  0
 13 15  1  0  0  0  0
 14 11  1  1  0  0  0
 14 12  1  0  0  0  0
 15  4  1  6  0  0  0
 15 12  1  0  0  0  0
 16 20  1  0  0  0  0
 17 19  1  0  0  0  0
 17 21  1  1  0  0  0
 18 22  1  0  0  0  0
 18 16  1  0  0  0  0
 19  2  1  1  0  0  0
 20 19  1  0  0  0  0
 22 23  1  6  0  0  0
 22 17  1  0  0  0  0
 24 23  1  1  0  0  0
 25 26  2  0  0  0  0
 26 27  1  0  0  0  0
 26 24  1  0  0  0  0
 28 26  1  0  0  0  0
 29 24  1  0  0  0  0
 30 29  1  0  0  0  0
 32 33  1  6  0  0  0
 32 30  1  0  0  0  0
 32 31  1  0  0  0  0
 34 37  1  6  0  0  0
 34 35  1  0  0  0  0
 35 36  1  0  0  0  0
 38 37  1  0  0  0  0
 40 39  1  0  0  0  0
 40 48  1  0  0  0  0
 41 48  1  0  0  0  0
 41 42  1  0  0  0  0
 42 47  1  1  0  0  0
 43 39  1  1  0  0  0
 43 42  1  0  0  0  0
 43 45  1  0  0  0  0
 44 38  1  0  0  0  0
 45 46  1  0  0  0  0
 46 44  1  0  0  0  0
 47 44  1  0  0  0  0
 48 50  1  6  0  0  0
 50 49  1  0  0  0  0
M  END
>  <MODEL>
5

>  <REMARK>
 VINA RESULT:      -6.7      2.356      7.396
  Name = 
  15 active torsions:
  status: ('A' for Active; 'I' for Inactive)
    1  A    between atoms: C_1  and  C_49
    2  A    between atoms: N_4  and  C_33
    3  A    between atoms: C_6  and  C_35
    4  A    between atoms: C_7  and  N_24
    5  A    between atoms: C_7  and  C_42
    6  A    between atoms: C_10  and  C_16
    7  A    between atoms: C_10  and  C_44
    8  A    between atoms: O_15  and  C_33
    9  A    between atoms: C_16  and  P_23
   10  A    between atoms: C_16  and  N_50
   11  A    between atoms: C_21  and  N_27
   12  A    between atoms: C_33  and  C_42
   13  A    between atoms: C_34  and  C_48
   14  A    between atoms: C_36  and  C_38
   15  A    between atoms: C_38  and  N_50
                            x       y       z     vdW  Elec       q    Type
                         _______ _______ _______ _____ _____    ______ ____

>  <TORSDO>
F 15

$$$$
=
 OpenBabel11042422093D

 50 55  0  0  1  0  0  0  0  0999 V2000
  161.8250  208.4770  148.2830 N   0  0  0  0  0  0  0  0  0  0  0  0
  161.9820  210.5130  149.4470 N   0  0  0  0  0  2  0  0  0  0  0  0
  161.7920  209.0920  149.4330 C   0  0  0  0  0  0  0  0  0  0  0  0
  160.9540  208.6180  153.1170 C   0  0  0  0  0  0  0  0  0  0  0  0
  161.5870  208.4140  150.7430 C   0  0  0  0  0  0  0  0  0  0  0  0
  161.7140  206.8770  150.8950 C   0  0  2  0  0  3  0  0  0  0  0  0
  161.8940  206.8680  152.2270 C   0  0  0  0  0  0  0  0  0  0  0  0
  162.8860  206.3620  151.3800 N   0  0  0  0  0  0  0  0  0  0  0  0
  161.4140  207.4270  153.4170 N   0  0  0  0  0  0  0  0  0  0  0  0
  161.1490  209.1590  151.7590 N   0  0  0  0  0  0  0  0  0  0  0  0
  161.0550  211.5590  156.4260 C   0  0  0  0  0  1  0  0  0  0  0  0
  160.9590  210.8440  154.0970 N   0  0  0  0  0  2  0  0  0  0  0  0
  161.0990  209.2420  155.5310 C   0  0  0  0  0  2  0  0  0  0  0  0
  161.6460  210.6430  155.3690 C   0  0  2  0  0  3  0  0  0  0  0  0
  160.4060  209.4960  154.2060 C   0  0  2  0  0  3  0  0  0  0  0  0
  163.5790  213.2730  147.3380 C   0  0  0  0  0  2  0  0  0  0  0  0
  161.0010  211.7010  147.5130 C   0  0  1  0  0  3  0  0  0  0  0  0
  162.7180  212.9850  146.1030 C   0  0  0  0  0  2  0  0  0  0  0  0
  162.2880  211.2850  148.2480 C   0  0  1  0  0  3  0  0  0  0  0  0
  163.1360  212.5110  148.5960 C   0  0  0  0  0  2  0  0  0  0  0  0
  160.0260  212.1280  148.4190 O   0  0  0  0  0  1  0  0  0  0  0  0
  161.2430  212.8130  146.4810 C   0  0  1  0  0  3  0  0  0  0  0  0
  160.3470  212.6620  145.2550 C   0  0  0  0  0  2  0  0  0  0  0  0
  159.4840  213.8960  144.9710 C   0  0  2  0  0  3  0  0  0  0  0  0
  156.8000  214.4480  144.9490 O   0  0  0  0  0  0  0  0  0  0  0  0
  157.8540  213.7500  145.7770 P   0  0  0  0  0  0  0  0  0  0  0  0
  157.9120  214.4520  147.3140 O   0  0  0  0  0  1  0  0  0  0  0  0
  157.4550  212.1130  145.9240 O   0  0  0  0  0  1  0  0  0  0  0  0
  159.3580  214.2050  143.5420 N   0  0  0  0  0  2  0  0  0  0  0  0
  159.0770  213.0020  142.7610 C   0  0  0  0  0  2  0  0  0  0  0  0
  160.3760  213.9850  141.0300 O   0  0  0  0  0  1  0  0  0  0  0  0
  160.1590  212.7910  141.7140 C   0  0  2  0  0  3  0  0  0  0  0  0
  159.7350  211.7180  140.7260 C   0  0  0  0  0  1  0  0  0  0  0  0
  161.6920  207.0500  148.0230 C   0  0  1  0  0  3  0  0  0  0  0  0
  160.3380  206.7070  147.9670 O   0  0  0  0  0  0  0  0  0  0  0  0
  159.9950  206.8060  146.6180 C   0  0  0  0  0  1  0  0  0  0  0  0
  162.3930  206.6890  146.7130 C   0  0  0  0  0  2  0  0  0  0  0  0
  162.8610  205.2350  146.6660 C   0  0  0  0  0  2  0  0  0  0  0  0
  161.5610  200.9690  148.5930 C   0  0  0  0  0  2  0  0  0  0  0  0
  161.2550  200.9310  150.0780 C   0  0  0  0  0  2  0  0  0  0  0  0
  160.1500  203.0880  149.9850 O   0  0  0  0  0  0  0  0  0  0  0  0
  160.4070  203.2280  148.5990 C   0  0  2  0  0  3  0  0  0  0  0  0
  160.5520  201.8660  147.8780 C   0  0  1  0  0  3  0  0  0  0  0  0
  161.7370  204.3370  146.8650 N   0  0  0  0  0  0  0  0  0  0  0  0
  160.9540  202.0600  146.4140 C   0  0  0  0  0  2  0  0  0  0  0  0
  162.1220  203.0430  146.3000 C   0  0  0  0  0  2  0  0  0  0  0  0
  161.5820  204.1710  148.3090 C   0  0  0  0  0  2  0  0  0  0  0  0
  161.2030  202.3670  150.5960 C   0  0  1  0  0  3  0  0  0  0  0  0
  160.7560  203.6740  152.5590 O   0  0  0  0  0  1  0  0  0  0  0  0
  161.0390  202.3850  152.1080 C   0  0  0  0  0  2  0  0  0  0  0  0
  1  3  2  0  0  0  0
  3  2  1  0  0  0  0
  3  5  1  0  0  0  0
  4  9  2  0  0  0  0
  5 10  2  0  0  0  0
  6  5  1  6  0  0  0
  6  8  1  0  0  0  0
  6  7  1  0  0  0  0
  7  9  1  0  0  0  0
  8  7  2  0  0  0  0
 10  4  1  0  0  0  0
 12 15  1  0  0  0  0
 12 14  1  0  0  0  0
 14 13  1  0  0  0  0
 14 11  1  1  0  0  0
 15  4  1  6  0  0  0
 15 13  1  0  0  0  0
 16 20  1  0  0  0  0
 17 19  1  0  0  0  0
 17 21  1  1  0  0  0
 18 22  1  0  0  0  0
 18 16  1  0  0  0  0
 19 20  1  0  0  0  0
 19  2  1  1  0  0  0
 22 23  1  6  0  0  0
 22 17  1  0  0  0  0
 24 23  1  6  0  0  0
 24 26  1  0  0  0  0
 25 26  2  0  0  0  0
 26 28  1  0  0  0  0
 26 27  1  0  0  0  0
 29 24  1  0  0  0  0
 30 29  1  0  0  0  0
 31 32  1  0  0  0  0
 32 33  1  6  0  0  0
 32 30  1  0  0  0  0
 34 37  1  6  0  0  0
 34  1  1  0  0  0  0
 35 34  1  0  0  0  0
 36 35  1  0  0  0  0
 38 37  1  0  0  0  0
 38 44  1  0  0  0  0
 39 40  1  0  0  0  0
 40 48  1  0  0  0  0
 41 48  1  0  0  0  0
 42 47  1  1  0  0  0
 42 41  1  0  0  0  0
 43 45  1  6  0  0  0
 43 39  1  0  0  0  0
 43 42  1  0  0  0  0
 44 47  1  0  0  0  0
 46 45  1  0  0  0  0
 46 44  1  0  0  0  0
 48 50  1  1  0  0  0
 50 49  1  0  0  0  0
M  END
>  <MODEL>
6

>  <REMARK>
 VINA RESULT:      -6.3      2.649      9.027
  Name = 
  15 active torsions:
  status: ('A' for Active; 'I' for Inactive)
    1  A    between atoms: C_1  and  C_49
    2  A    between atoms: N_4  and  C_33
    3  A    between atoms: C_6  and  C_35
    4  A    between atoms: C_7  and  N_24
    5  A    between atoms: C_7  and  C_42
    6  A    between atoms: C_10  and  C_16
    7  A    between atoms: C_10  and  C_44
    8  A    between atoms: O_15  and  C_33
    9  A    between atoms: C_16  and  P_23
   10  A    between atoms: C_16  and  N_50
   11  A    between atoms: C_21  and  N_27
   12  A    between atoms: C_33  and  C_42
   13  A    between atoms: C_34  and  C_48
   14  A    between atoms: C_36  and  C_38
   15  A    between atoms: C_38  and  N_50
                            x       y       z     vdW  Elec       q    Type
                         _______ _______ _______ _____ _____    ______ ____

>  <TORSDO>
F 15

$$$$
=
 OpenBabel11042422093D

 50 55  0  0  1  0  0  0  0  0999 V2000
  160.8500  210.3600  151.9840 N   0  0  0  0  0  0  0  0  0  0  0  0
  161.7030  208.3120  152.7640 N   0  0  0  0  0  2  0  0  0  0  0  0
  161.1090  209.5940  153.0080 C   0  0  0  0  0  0  0  0  0  0  0  0
  159.1340  210.6740  156.0790 C   0  0  0  0  0  0  0  0  0  0  0  0
  160.8110  209.9530  154.4230 C   0  0  0  0  0  0  0  0  0  0  0  0
  161.8780  209.8250  155.5400 C   0  0  2  0  0  3  0  0  0  0  0  0
  161.2840  210.6530  156.4160 C   0  0  0  0  0  0  0  0  0  0  0  0
  162.5600  210.9480  155.9240 N   0  0  0  0  0  0  0  0  0  0  0  0
  160.0420  210.9700  156.9780 N   0  0  0  0  0  0  0  0  0  0  0  0
  159.5480  210.2550  154.7280 N   0  0  0  0  0  0  0  0  0  0  0  0
  155.3050  212.8960  155.9990 C   0  0  0  0  0  1  0  0  0  0  0  0
  156.9890  211.3510  155.1520 N   0  0  0  0  0  2  0  0  0  0  0  0
  157.4930  212.3080  157.0160 C   0  0  0  0  0  2  0  0  0  0  0  0
  156.7830  212.6750  155.7320 C   0  0  2  0  0  3  0  0  0  0  0  0
  157.6860  210.9480  156.3720 C   0  0  2  0  0  3  0  0  0  0  0  0
  161.5770  208.1990  148.9440 C   0  0  0  0  0  2  0  0  0  0  0  0
  161.5580  206.3160  151.3110 C   0  0  1  0  0  3  0  0  0  0  0  0
  162.1380  206.7750  148.8530 C   0  0  0  0  0  2  0  0  0  0  0  0
  161.9570  207.7980  151.4220 C   0  0  1  0  0  3  0  0  0  0  0  0
  161.2260  208.6390  150.3730 C   0  0  0  0  0  2  0  0  0  0  0  0
  160.3420  206.0780  151.9570 O   0  0  0  0  0  1  0  0  0  0  0  0
  161.4490  205.8410  149.8530 C   0  0  1  0  0  3  0  0  0  0  0  0
  161.8930  204.3910  149.6880 C   0  0  0  0  0  2  0  0  0  0  0  0
  161.0380  203.5970  148.6940 C   0  0  2  0  0  3  0  0  0  0  0  0
  159.2480  201.6030  149.2660 O   0  0  0  0  0  1  0  0  0  0  0  0
  160.7280  201.9070  149.3050 P   0  0  0  0  0  0  0  0  0  0  0  0
  161.2850  201.7640  150.8950 O   0  0  0  0  0  1  0  0  0  0  0  0
  161.5510  200.8050  148.3210 O   0  0  0  0  0  0  0  0  0  0  0  0
  161.5810  203.5920  147.3310 N   0  0  0  0  0  2  0  0  0  0  0  0
  160.9110  204.5790  146.4870 C   0  0  0  0  0  2  0  0  0  0  0  0
  161.5710  204.9310  144.2310 O   0  0  0  0  0  1  0  0  0  0  0  0
  161.9110  205.2330  145.5480 C   0  0  2  0  0  3  0  0  0  0  0  0
  163.3130  204.7230  145.8310 C   0  0  0  0  0  1  0  0  0  0  0  0
  160.2250  211.6750  151.9810 C   0  0  1  0  0  3  0  0  0  0  0  0
  160.3750  212.2700  153.2380 O   0  0  0  0  0  0  0  0  0  0  0  0
  159.3510  213.2130  153.3160 C   0  0  0  0  0  1  0  0  0  0  0  0
  160.8500  212.5490  150.8940 C   0  0  0  0  0  2  0  0  0  0  0  0
  159.8610  213.5370  150.2780 C   0  0  0  0  0  2  0  0  0  0  0  0
  158.0670  214.4530  145.8570 C   0  0  0  0  0  2  0  0  0  0  0  0
  159.0350  214.4490  144.6890 C   0  0  0  0  0  2  0  0  0  0  0  0
  160.2490  212.5580  145.6020 O   0  0  0  0  0  0  0  0  0  0  0  0
  159.4120  212.4930  146.7420 C   0  0  2  0  0  3  0  0  0  0  0  0
  157.9960  213.0590  146.4770 C   0  0  1  0  0  3  0  0  0  0  0  0
  159.1850  212.9330  149.1430 N   0  0  0  0  0  0  0  0  0  0  0  0
  157.1660  213.0890  147.7630 C   0  0  0  0  0  2  0  0  0  0  0  0
  157.9690  213.7120  148.9090 C   0  0  0  0  0  2  0  0  0  0  0  0
  160.0630  213.1090  147.9880 C   0  0  0  0  0  2  0  0  0  0  0  0
  160.3760  213.9020  145.1770 C   0  0  1  0  0  3  0  0  0  0  0  0
  162.7090  214.0030  144.6280 O   0  0  0  0  0  1  0  0  0  0  0  0
  161.4260  214.0060  144.0810 C   0  0  0  0  0  2  0  0  0  0  0  0
  1  3  2  0  0  0  0
  2  3  1  0  0  0  0
  3  5  1  0  0  0  0
  4  9  2  0  0  0  0
  5 10  2  0  0  0  0
  6  5  1  6  0  0  0
  6  8  1  0  0  0  0
  6  7  1  0  0  0  0
  7  9  1  0  0  0  0
  8  7  2  0  0  0  0
 10  4  1  0  0  0  0
 12 14  1  0  0  0  0
 12 15  1  0  0  0  0
 14 11  1  1  0  0  0
 14 13  1  0  0  0  0
 15  4  1  6  0  0  0
 15 13  1  0  0  0  0
 16 20  1  0  0  0  0
 17 19  1  0  0  0  0
 17 21  1  6  0  0  0
 18 16  1  0  0  0  0
 18 22  1  0  0  0  0
 19  2  1  1  0  0  0
 20 19  1  0  0  0  0
 22 23  1  1  0  0  0
 22 17  1  0  0  0  0
 24 26  1  0  0  0  0
 24 23  1  1  0  0  0
 25 26  1  0  0  0  0
 26 27  1  0  0  0  0
 28 26  2  0  0  0  0
 29 24  1  0  0  0  0
 30 29  1  0  0  0  0
 31 32  1  0  0  0  0
 32 33  1  1  0  0  0
 32 30  1  0  0  0  0
 34 37  1  6  0  0  0
 34  1  1  0  0  0  0
 34 35  1  0  0  0  0
 35 36  1  0  0  0  0
 38 37  1  0  0  0  0
 40 48  1  0  0  0  0
 40 39  1  0  0  0  0
 41 42  1  0  0  0  0
 42 47  1  1  0  0  0
 43 39  1  1  0  0  0
 43 42  1  0  0  0  0
 43 45  1  0  0  0  0
 44 38  1  0  0  0  0
 45 46  1  0  0  0  0
 46 44  1  0  0  0  0
 47 44  1  0  0  0  0
 48 50  1  6  0  0  0
 48 41  1  0  0  0  0
 50 49  1  0  0  0  0
M  END
>  <MODEL>
7

>  <REMARK>
 VINA RESULT:      -6.2      1.929      3.186
  Name = 
  15 active torsions:
  status: ('A' for Active; 'I' for Inactive)
    1  A    between atoms: C_1  and  C_49
    2  A    between atoms: N_4  and  C_33
    3  A    between atoms: C_6  and  C_35
    4  A    between atoms: C_7  and  N_24
    5  A    between atoms: C_7  and  C_42
    6  A    between atoms: C_10  and  C_16
    7  A    between atoms: C_10  and  C_44
    8  A    between atoms: O_15  and  C_33
    9  A    between atoms: C_16  and  P_23
   10  A    between atoms: C_16  and  N_50
   11  A    between atoms: C_21  and  N_27
   12  A    between atoms: C_33  and  C_42
   13  A    between atoms: C_34  and  C_48
   14  A    between atoms: C_36  and  C_38
   15  A    between atoms: C_38  and  N_50
                            x       y       z     vdW  Elec       q    Type
                         _______ _______ _______ _____ _____    ______ ____

>  <TORSDO>
F 15

$$$$
=
 OpenBabel11042422093D

 50 55  0  0  1  0  0  0  0  0999 V2000
  161.1830  207.1830  149.8650 N   0  0  0  0  0  0  0  0  0  0  0  0
  160.8610  206.6260  152.1260 N   0  0  0  0  0  2  0  0  0  0  0  0
  161.0970  206.2420  150.7650 C   0  0  0  0  0  0  0  0  0  0  0  0
  161.2710  202.9900  148.7920 C   0  0  0  0  0  0  0  0  0  0  0  0
  161.2450  204.7880  150.4780 C   0  0  0  0  0  0  0  0  0  0  0  0
  161.6170  203.7710  151.5870 C   0  0  2  0  0  3  0  0  0  0  0  0
  161.1810  202.6750  150.9440 C   0  0  0  0  0  0  0  0  0  0  0  0
  160.6150  203.0420  152.1690 N   0  0  0  0  0  0  0  0  0  0  0  0
  161.1900  202.0430  149.6950 N   0  0  0  0  0  0  0  0  0  0  0  0
  161.1880  204.4040  149.2030 N   0  0  0  0  0  0  0  0  0  0  0  0
  160.0910  200.7530  145.1570 C   0  0  0  0  0  1  0  0  0  0  0  0
  159.8780  202.4810  146.8630 N   0  0  0  0  0  2  0  0  0  0  0  0
  161.5590  201.1570  147.1200 C   0  0  0  0  0  2  0  0  0  0  0  0
  160.1260  201.0600  146.6440 C   0  0  2  0  0  3  0  0  0  0  0  0
  161.2540  202.6270  147.3340 C   0  0  2  0  0  3  0  0  0  0  0  0
  161.9620  210.2700  152.4830 C   0  0  0  0  0  2  0  0  0  0  0  0
  160.5570  208.1170  154.0750 C   0  0  1  0  0  3  0  0  0  0  0  0
  160.9110  210.6040  153.5470 C   0  0  0  0  0  2  0  0  0  0  0  0
  160.7920  208.0180  152.5580 C   0  0  1  0  0  3  0  0  0  0  0  0
  162.0610  208.7730  152.1530 C   0  0  0  0  0  2  0  0  0  0  0  0
  161.3390  207.1850  154.7630 O   0  0  0  0  0  1  0  0  0  0  0  0
  160.8520  209.5200  154.6290 C   0  0  1  0  0  3  0  0  0  0  0  0
  159.9110  209.8960  155.7700 C   0  0  0  0  0  2  0  0  0  0  0  0
  158.9440  211.0310  155.4190 C   0  0  2  0  0  3  0  0  0  0  0  0
  160.8170  212.4180  156.8600 O   0  0  0  0  0  1  0  0  0  0  0  0
  159.4980  212.6080  156.1490 P   0  0  0  0  0  0  0  0  0  0  0  0
  158.3430  213.1620  157.2540 O   0  0  0  0  0  1  0  0  0  0  0  0
  159.6870  213.7510  154.9170 O   0  0  0  0  0  0  0  0  0  0  0  0
  157.5480  210.7350  155.7600 N   0  0  0  0  0  2  0  0  0  0  0  0
  156.6470  211.0780  154.6620 C   0  0  0  0  0  2  0  0  0  0  0  0
  155.9540  213.3410  154.8800 O   0  0  0  0  0  1  0  0  0  0  0  0
  155.5660  212.0300  155.1470 C   0  0  2  0  0  3  0  0  0  0  0  0
  155.3500  211.8660  156.6410 C   0  0  0  0  0  1  0  0  0  0  0  0
  161.4480  207.0410  148.4400 C   0  0  1  0  0  3  0  0  0  0  0  0
  160.3810  206.3790  147.8270 O   0  0  0  0  0  0  0  0  0  0  0  0
  160.7590  206.2430  146.4910 C   0  0  0  0  0  1  0  0  0  0  0  0
  161.6630  208.4170  147.8080 C   0  0  0  0  0  2  0  0  0  0  0  0
  162.1210  209.4720  148.8130 C   0  0  0  0  0  2  0  0  0  0  0  0
  162.2130  214.0610  147.2210 C   0  0  0  0  0  2  0  0  0  0  0  0
  161.9780  214.2980  145.7410 C   0  0  0  0  0  2  0  0  0  0  0  0
  160.2780  212.5710  145.6540 O   0  0  0  0  0  0  0  0  0  0  0  0
  160.4380  212.2590  147.0270 C   0  0  2  0  0  3  0  0  0  0  0  0
  160.9610  213.4580  147.8540 C   0  0  1  0  0  3  0  0  0  0  0  0
  161.3230  210.6780  148.6770 N   0  0  0  0  0  0  0  0  0  0  0  0
  161.2410  213.0460  149.3010 C   0  0  0  0  0  2  0  0  0  0  0  0
  162.0590  211.7520  149.3460 C   0  0  0  0  0  2  0  0  0  0  0  0
  161.2690  210.9880  147.2500 C   0  0  0  0  0  2  0  0  0  0  0  0
  161.5170  212.9850  145.1100 C   0  0  1  0  0  3  0  0  0  0  0  0
  161.0920  211.9030  143.0110 O   0  0  0  0  0  1  0  0  0  0  0  0
  161.4010  213.1290  143.6000 C   0  0  0  0  0  2  0  0  0  0  0  0
  1  3  2  0  0  0  0
  3  2  1  0  0  0  0
  4 10  1  0  0  0  0
  4  9  2  0  0  0  0
  5  3  1  0  0  0  0
  6  5  1  6  0  0  0
  6  8  1  0  0  0  0
  7  6  1  0  0  0  0
  7  8  2  0  0  0  0
  9  7  1  0  0  0  0
 10  5  2  0  0  0  0
 12 15  1  0  0  0  0
 13 15  1  0  0  0  0
 14 11  1  6  0  0  0
 14 12  1  0  0  0  0
 14 13  1  0  0  0  0
 15  4  1  1  0  0  0
 16 18  1  0  0  0  0
 17 22  1  0  0  0  0
 17 21  1  1  0  0  0
 18 22  1  0  0  0  0
 19  2  1  1  0  0  0
 19 17  1  0  0  0  0
 20 16  1  0  0  0  0
 20 19  1  0  0  0  0
 22 23  1  1  0  0  0
 24 29  1  0  0  0  0
 24 23  1  1  0  0  0
 24 26  1  0  0  0  0
 26 25  1  0  0  0  0
 26 27  1  0  0  0  0
 28 26  2  0  0  0  0
 30 32  1  0  0  0  0
 30 29  1  0  0  0  0
 31 32  1  0  0  0  0
 32 33  1  1  0  0  0
 34 37  1  6  0  0  0
 34  1  1  0  0  0  0
 35 34  1  0  0  0  0
 36 35  1  0  0  0  0
 37 38  1  0  0  0  0
 40 39  1  0  0  0  0
 41 42  1  0  0  0  0
 42 47  1  6  0  0  0
 42 43  1  0  0  0  0
 43 39  1  6  0  0  0
 43 45  1  0  0  0  0
 44 38  1  0  0  0  0
 44 46  1  0  0  0  0
 45 46  1  0  0  0  0
 47 44  1  0  0  0  0
 48 50  1  6  0  0  0
 48 41  1  0  0  0  0
 48 40  1  0  0  0  0
 49 50  1  0  0  0  0
M  END
>  <MODEL>
8

>  <REMARK>
 VINA RESULT:      -6.1      2.805      8.734
  Name = 
  15 active torsions:
  status: ('A' for Active; 'I' for Inactive)
    1  A    between atoms: C_1  and  C_49
    2  A    between atoms: N_4  and  C_33
    3  A    between atoms: C_6  and  C_35
    4  A    between atoms: C_7  and  N_24
    5  A    between atoms: C_7  and  C_42
    6  A    between atoms: C_10  and  C_16
    7  A    between atoms: C_10  and  C_44
    8  A    between atoms: O_15  and  C_33
    9  A    between atoms: C_16  and  P_23
   10  A    between atoms: C_16  and  N_50
   11  A    between atoms: C_21  and  N_27
   12  A    between atoms: C_33  and  C_42
   13  A    between atoms: C_34  and  C_48
   14  A    between atoms: C_36  and  C_38
   15  A    between atoms: C_38  and  N_50
                            x       y       z     vdW  Elec       q    Type
                         _______ _______ _______ _____ _____    ______ ____

>  <TORSDO>
F 15

$$$$
=
 OpenBabel11042422093D

 50 55  0  0  1  0  0  0  0  0999 V2000
  161.1410  209.6290  151.8450 N   0  0  0  0  0  0  0  0  0  0  0  0
  160.4770  211.8780  151.6890 N   0  0  0  0  0  2  0  0  0  0  0  0
  160.8030  210.7220  152.4710 C   0  0  0  0  0  0  0  0  0  0  0  0
  159.6020  211.8100  155.9170 C   0  0  0  0  0  0  0  0  0  0  0  0
  160.7510  210.8600  153.9530 C   0  0  0  0  0  0  0  0  0  0  0  0
  161.7280  210.0920  154.8790 C   0  0  2  0  0  3  0  0  0  0  0  0
  161.5700  210.8800  155.9570 C   0  0  0  0  0  0  0  0  0  0  0  0
  162.8280  210.7500  155.3590 N   0  0  0  0  0  0  0  0  0  0  0  0
  160.5980  211.5300  156.7250 N   0  0  0  0  0  0  0  0  0  0  0  0
  159.7400  211.5590  154.4710 N   0  0  0  0  0  0  0  0  0  0  0  0
  155.3270  212.6140  156.7440 C   0  0  0  0  0  1  0  0  0  0  0  0
  157.5270  211.6570  157.1770 N   0  0  0  0  0  2  0  0  0  0  0  0
  157.3800  212.8010  155.3570 C   0  0  0  0  0  2  0  0  0  0  0  0
  156.5050  211.8590  156.1540 C   0  0  2  0  0  3  0  0  0  0  0  0
  158.4110  212.5590  156.4420 C   0  0  2  0  0  3  0  0  0  0  0  0
  162.0130  211.2440  148.2460 C   0  0  0  0  0  2  0  0  0  0  0  0
  160.3710  213.3320  149.6910 C   0  0  1  0  0  3  0  0  0  0  0  0
  161.0190  212.1470  147.5080 C   0  0  0  0  0  2  0  0  0  0  0  0
  160.5800  211.9070  150.2340 C   0  0  1  0  0  3  0  0  0  0  0  0
  161.9280  211.3430  149.7760 C   0  0  0  0  0  2  0  0  0  0  0  0
  161.0410  214.2700  150.4820 O   0  0  0  0  0  1  0  0  0  0  0  0
  160.8390  213.4840  148.2350 C   0  0  1  0  0  3  0  0  0  0  0  0
  159.9600  214.4530  147.4490 C   0  0  0  0  0  2  0  0  0  0  0  0
  158.8670  213.7620  146.6280 C   0  0  2  0  0  3  0  0  0  0  0  0
  160.7420  214.1920  144.6770 O   0  0  0  0  0  1  0  0  0  0  0  0
  159.3740  213.5850  144.8850 P   0  0  0  0  0  0  0  0  0  0  0  0
  158.2580  214.3680  143.8840 O   0  0  0  0  0  0  0  0  0  0  0  0
  159.4260  211.9420  144.4880 O   0  0  0  0  0  1  0  0  0  0  0  0
  157.5520  214.4020  146.7490 N   0  0  0  0  0  2  0  0  0  0  0  0
  156.6930  213.6800  147.6850 C   0  0  0  0  0  2  0  0  0  0  0  0
  157.5900  214.0370  149.8570 O   0  0  0  0  0  1  0  0  0  0  0  0
  156.5780  214.4480  148.9920 C   0  0  2  0  0  3  0  0  0  0  0  0
  155.2300  214.1880  149.6410 C   0  0  0  0  0  1  0  0  0  0  0  0
  161.5410  208.3520  152.4190 C   0  0  1  0  0  3  0  0  0  0  0  0
  160.4280  207.7180  152.9800 O   0  0  0  0  0  0  0  0  0  0  0  0
  160.9560  206.7390  153.8220 C   0  0  0  0  0  1  0  0  0  0  0  0
  162.1770  207.4700  151.3430 C   0  0  0  0  0  2  0  0  0  0  0  0
  161.1520  206.6670  150.5450 C   0  0  0  0  0  2  0  0  0  0  0  0
  160.2890  202.7160  147.8530 C   0  0  0  0  0  2  0  0  0  0  0  0
  160.3500  202.8640  146.3440 C   0  0  0  0  0  2  0  0  0  0  0  0
  162.2540  204.3600  146.4910 O   0  0  0  0  0  0  0  0  0  0  0  0
  162.2660  204.3040  147.9070 C   0  0  2  0  0  3  0  0  0  0  0  0
  161.6650  202.9880  148.4570 C   0  0  1  0  0  3  0  0  0  0  0  0
  161.7620  205.4650  150.0050 N   0  0  0  0  0  0  0  0  0  0  0  0
  161.5790  203.0220  149.9850 C   0  0  0  0  0  2  0  0  0  0  0  0
  160.9530  204.3350  150.4630 C   0  0  0  0  0  2  0  0  0  0  0  0
  161.6400  205.5480  148.5520 C   0  0  0  0  0  2  0  0  0  0  0  0
  160.9260  204.2420  146.0190 C   0  0  1  0  0  3  0  0  0  0  0  0
  161.1970  205.8290  144.2400 O   0  0  0  0  0  1  0  0  0  0  0  0
  160.8790  204.5000  144.5210 C   0  0  0  0  0  2  0  0  0  0  0  0
  1 34  1  0  0  0  0
  1  3  2  0  0  0  0
  2  3  1  0  0  0  0
  3  5  1  0  0  0  0
  4  9  2  0  0  0  0
  5 10  2  0  0  0  0
  6  5  1  6  0  0  0
  6  8  1  0  0  0  0
  6  7  1  0  0  0  0
  7  9  1  0  0  0  0
  8  7  2  0  0  0  0
 10  4  1  0  0  0  0
 13 14  1  0  0  0  0
 13 15  1  0  0  0  0
 14 11  1  1  0  0  0
 14 12  1  0  0  0  0
 15  4  1  6  0  0  0
 15 12  1  0  0  0  0
 16 20  1  0  0  0  0
 17 19  1  0  0  0  0
 17 21  1  1  0  0  0
 18 22  1  0  0  0  0
 18 16  1  0  0  0  0
 19  2  1  1  0  0  0
 20 19  1  0  0  0  0
 22 23  1  6  0  0  0
 22 17  1  0  0  0  0
 24 29  1  0  0  0  0
 24 23  1  1  0  0  0
 25 26  1  0  0  0  0
 26 24  1  0  0  0  0
 27 26  2  0  0  0  0
 28 26  1  0  0  0  0
 29 30  1  0  0  0  0
 30 32  1  0  0  0  0
 32 33  1  1  0  0  0
 32 31  1  0  0  0  0
 34 37  1  6  0  0  0
 34 35  1  0  0  0  0
 35 36  1  0  0  0  0
 38 37  1  0  0  0  0
 40 39  1  0  0  0  0
 41 42  1  0  0  0  0
 42 43  1  0  0  0  0
 42 47  1  1  0  0  0
 43 39  1  6  0  0  0
 43 45  1  0  0  0  0
 44 46  1  0  0  0  0
 44 38  1  0  0  0  0
 45 46  1  0  0  0  0
 47 44  1  0  0  0  0
 48 50  1  6  0  0  0
 48 40  1  0  0  0  0
 48 41  1  0  0  0  0
 49 50  1  0  0  0  0
M  END
>  <MODEL>
9

>  <REMARK>
 VINA RESULT:      -6.1      2.540      7.672
  Name = 
  15 active torsions:
  status: ('A' for Active; 'I' for Inactive)
    1  A    between atoms: C_1  and  C_49
    2  A    between atoms: N_4  and  C_33
    3  A    between atoms: C_6  and  C_35
    4  A    between atoms: C_7  and  N_24
    5  A    between atoms: C_7  and  C_42
    6  A    between atoms: C_10  and  C_16
    7  A    between atoms: C_10  and  C_44
    8  A    between atoms: O_15  and  C_33
    9  A    between atoms: C_16  and  P_23
   10  A    between atoms: C_16  and  N_50
   11  A    between atoms: C_21  and  N_27
   12  A    between atoms: C_33  and  C_42
   13  A    between atoms: C_34  and  C_48
   14  A    between atoms: C_36  and  C_38
   15  A    between atoms: C_38  and  N_50
                            x       y       z     vdW  Elec       q    Type
                         _______ _______ _______ _____ _____    ______ ____

>  <TORSDO>
F 15

$$$$
