=
 OpenBabel11052410123D

 48 53  0  0  1  0  0  0  0  0999 V2000
  162.2270  210.0650  148.8280 C   0  0  0  0  0  3  0  0  0  0  0  0
  161.4110  210.4000  151.4690 C   0  0  0  0  0  0  0  0  0  0  0  0
  160.1200  208.2330  157.0470 O   0  0  0  0  0  0  0  0  0  0  0  0
  160.9950  210.5830  152.8020 C   0  0  0  0  0  0  0  0  0  0  0  0
  161.4310  206.9120  153.8630 N   0  0  0  0  0  0  0  0  0  0  0  0
  160.5020  209.6690  155.0830 N   0  0  0  0  0  0  0  0  0  0  0  0
  161.8530  211.2890  149.2880 N   0  0  0  0  0  0  0  0  0  0  0  0
  160.1810  207.4110  155.8860 C   0  0  2  0  0  0  0  0  0  0  0  0
  160.9400  209.4820  153.7050 C   0  0  0  0  0  0  0  0  0  0  0  0
  161.8000  209.1260  151.0080 C   0  0  0  0  0  0  0  0  0  0  0  0
  160.6600  211.8690  153.2200 O   0  0  0  0  0  1  0  0  0  0  0  0
  161.8740  205.9020  152.9070 C   0  0  2  0  0  3  0  0  0  0  0  0
  161.4510  211.4760  150.5740 C   0  0  0  0  0  3  0  0  0  0  0  0
  161.2670  206.5580  155.2840 C   0  0  0  0  0  2  0  0  0  0  0  0
  161.3760  208.2000  153.2070 C   0  0  0  0  0  0  0  0  0  0  0  0
  162.4070  208.7920  156.5280 C   0  0  0  0  0  1  0  0  0  0  0  0
  161.7720  208.0540  151.8970 C   0  0  0  0  0  0  0  0  0  0  0  0
  162.2080  208.9600  149.6800 C   0  0  0  0  0  3  0  0  0  0  0  0
  162.1320  206.6420  151.5880 C   0  0  0  0  0  2  0  0  0  0  0  0
  160.9590  208.6880  156.0400 C   0  0  2  0  0  0  0  0  0  0  0  0
  159.0260  207.5300  155.1030 O   0  0  0  0  0  1  0  0  0  0  0  0
  160.7820  204.8550  152.7130 C   0  0  0  0  0  2  0  0  0  0  0  0
  160.6100  204.5030  151.2410 C   0  0  0  0  0  2  0  0  0  0  0  0
  161.2200  203.1480  150.9090 C   0  0  0  0  0  2  0  0  0  0  0  0
  160.5820  202.5440  149.6610 C   0  0  2  0  0  3  0  0  0  0  0  0
  160.3220  201.0650  149.9090 C   0  0  0  0  0  1  0  0  0  0  0  0
  161.4910  202.7290  148.4410 C   0  0  1  0  0  3  0  0  0  0  0  0
  161.1800  201.7810  147.4650 O   0  0  0  0  0  1  0  0  0  0  0  0
  161.3200  204.1170  147.8330 C   0  0  0  0  0  2  0  0  0  0  0  0
  161.2830  204.0560  146.3120 C   0  0  0  0  0  2  0  0  0  0  0  0
  160.4060  206.0350  145.0130 N   0  0  0  0  0  1  0  0  0  0  0  0
  161.4720  205.4110  145.7220 C   0  0  0  0  0  0  0  0  0  0  0  0
  162.5640  206.0170  145.8740 O   0  0  0  0  0  0  0  0  0  0  0  0
  159.8330  210.8670  155.5870 C   0  0  0  0  0  2  0  0  0  0  0  0
  160.4710  211.3410  156.8850 C   0  0  0  0  0  2  0  0  0  0  0  0
  160.5980  212.8580  156.9170 C   0  0  0  0  0  2  0  0  0  0  0  0
  159.5390  213.5230  156.0530 C   0  0  0  0  0  2  0  0  0  0  0  0
  158.1660  213.3590  156.6810 C   0  0  0  0  0  2  0  0  0  0  0  0
  156.9840  212.3660  153.7540 C   0  0  0  0  0  2  0  0  0  0  0  0
  157.1370  213.7430  155.7240 N   0  0  0  0  0  0  0  0  0  0  0  0
  155.3190  212.0140  156.9860 O   0  0  0  0  0  0  0  0  0  0  0  0
  156.6390  212.5670  155.1430 N   0  0  0  0  0  0  0  0  0  0  0  0
  157.8090  214.4520  154.6360 C   0  0  0  0  0  2  0  0  0  0  0  0
  157.3240  214.2170  152.3130 O   0  0  0  0  0  1  0  0  0  0  0  0
  155.6900  211.7300  155.8140 C   0  0  0  0  0  0  0  0  0  0  0  0
  157.8560  213.5460  153.4120 C   0  0  2  0  0  3  0  0  0  0  0  0
  154.5300  209.5600  155.8760 C   0  0  0  0  0  1  0  0  0  0  0  0
  155.1790  210.6030  155.1650 O   0  0  0  0  0  0  0  0  0  0  0  0
  1  7  2  0  0  0  0
  1 18  1  0  0  0  0
  2  4  1  0  0  0  0
  4 11  1  0  0  0  0
  4  9  2  0  0  0  0
  5 14  1  0  0  0  0
  6 34  1  0  0  0  0
  6 20  1  0  0  0  0
  7 13  1  0  0  0  0
  8 21  1  6  0  0  0
  8 20  1  0  0  0  0
  8  3  1  0  0  0  0
  9  6  1  0  0  0  0
 10  2  1  0  0  0  0
 10 17  1  0  0  0  0
 12 22  1  6  0  0  0
 12  5  1  0  0  0  0
 13  2  2  0  0  0  0
 14  8  1  0  0  0  0
 15  9  1  0  0  0  0
 15  5  1  0  0  0  0
 17 15  2  0  0  0  0
 18 10  2  0  0  0  0
 19 17  1  0  0  0  0
 19 12  1  0  0  0  0
 20 16  1  1  0  0  0
 20  3  1  0  0  0  0
 23 22  1  0  0  0  0
 24 23  1  0  0  0  0
 25 26  1  1  0  0  0
 25 24  1  0  0  0  0
 27 28  1  6  0  0  0
 27 25  1  0  0  0  0
 29 27  1  0  0  0  0
 30 29  1  0  0  0  0
 31 32  1  0  0  0  0
 32 33  2  0  0  0  0
 32 30  1  0  0  0  0
 34 35  1  0  0  0  0
 35 36  1  0  0  0  0
 37 38  1  0  0  0  0
 37 36  1  0  0  0  0
 39 42  1  0  0  0  0
 40 38  1  0  0  0  0
 42 40  1  0  0  0  0
 42 45  1  0  0  0  0
 43 40  1  0  0  0  0
 45 41  2  0  0  0  0
 46 44  1  6  0  0  0
 46 39  1  0  0  0  0
 46 43  1  0  0  0  0
 48 45  1  0  0  0  0
 48 47  1  0  0  0  0
M  END
>  <MODEL>
1

>  <REMARK>
 VINA RESULT:      -6.4      0.000      0.000
  Name = 
  15 active torsions:
  status: ('A' for Active; 'I' for Inactive)
    1  A    between atoms: C_3  and  C_5
    2  A    between atoms: C_3  and  C_29
    3  A    between atoms: C_4  and  C_9
    4  A    between atoms: C_4  and  N_13
    5  A    between atoms: C_5  and  C_45
    6  A    between atoms: C_6  and  C_20
    7  A    between atoms: C_6  and  C_31
    8  A    between atoms: C_9  and  C_23
    9  A    between atoms: O_14  and  C_43
   10  A    between atoms: N_16  and  C_32
   11  A    between atoms: C_17  and  C_38
   12  A    between atoms: C_20  and  C_29
   13  A    between atoms: C_23  and  C_46
   14  A    between atoms: C_32  and  C_46
   15  A    between atoms: C_38  and  C_45
                            x       y       z     vdW  Elec       q    Type
                         _______ _______ _______ _____ _____    ______ ____

>  <TORSDO>
F 15

$$$$
=
 OpenBabel11052410123D

 48 53  0  0  1  0  0  0  0  0999 V2000
  162.2990  209.8390  148.8820 C   0  0  0  0  0  3  0  0  0  0  0  0
  161.5150  210.1660  151.5340 C   0  0  0  0  0  0  0  0  0  0  0  0
  160.1190  207.9640  157.0720 O   0  0  0  0  0  0  0  0  0  0  0  0
  161.1170  210.3460  152.8730 C   0  0  0  0  0  0  0  0  0  0  0  0
  161.3360  206.6340  153.8550 N   0  0  0  0  0  0  0  0  0  0  0  0
  160.5780  209.4160  155.1370 N   0  0  0  0  0  0  0  0  0  0  0  0
  162.0010  211.0730  149.3690 N   0  0  0  0  0  0  0  0  0  0  0  0
  160.1260  207.1650  155.8940 C   0  0  2  0  0  0  0  0  0  0  0  0
  161.0000  209.2310  153.7540 C   0  0  0  0  0  0  0  0  0  0  0  0
  161.8250  208.8810  151.0450 C   0  0  0  0  0  0  0  0  0  0  0  0
  160.8610  211.6400  153.3190 O   0  0  0  0  0  1  0  0  0  0  0  0
  161.7130  205.6190  152.8760 C   0  0  2  0  0  3  0  0  0  0  0  0
  161.6160  211.2570  150.6610 C   0  0  0  0  0  3  0  0  0  0  0  0
  161.1570  206.2610  155.2690 C   0  0  0  0  0  2  0  0  0  0  0  0
  161.3560  207.9370  153.2260 C   0  0  0  0  0  0  0  0  0  0  0  0
  162.4330  208.3960  156.5540 C   0  0  0  0  0  1  0  0  0  0  0  0
  161.7360  207.7940  151.9110 C   0  0  0  0  0  0  0  0  0  0  0  0
  162.2170  208.7190  149.7110 C   0  0  0  0  0  3  0  0  0  0  0  0
  162.0090  206.3700  151.5720 C   0  0  0  0  0  2  0  0  0  0  0  0
  160.9800  208.3890  156.0710 C   0  0  2  0  0  0  0  0  0  0  0  0
  158.9770  207.3690  155.1210 O   0  0  0  0  0  1  0  0  0  0  0  0
  160.5600  204.6440  152.6670 C   0  0  0  0  0  2  0  0  0  0  0  0
  160.9610  203.5060  151.7370 C   0  0  0  0  0  2  0  0  0  0  0  0
  160.8660  203.9110  150.2720 C   0  0  0  0  0  2  0  0  0  0  0  0
  160.5850  202.7060  149.3810 C   0  0  2  0  0  3  0  0  0  0  0  0
  160.8140  201.4350  150.1870 C   0  0  0  0  0  1  0  0  0  0  0  0
  161.4870  202.7220  148.1420 C   0  0  1  0  0  3  0  0  0  0  0  0
  160.8280  202.1310  147.0630 O   0  0  0  0  0  1  0  0  0  0  0  0
  161.8610  204.1480  147.7520 C   0  0  0  0  0  2  0  0  0  0  0  0
  161.4930  204.4430  146.3050 C   0  0  0  0  0  2  0  0  0  0  0  0
  160.9360  206.7220  147.2370 N   0  0  0  0  0  1  0  0  0  0  0  0
  160.8180  205.7670  146.1880 C   0  0  0  0  0  0  0  0  0  0  0  0
  160.1670  206.0520  145.1490 O   0  0  0  0  0  0  0  0  0  0  0  0
  159.9840  210.6400  155.6690 C   0  0  0  0  0  2  0  0  0  0  0  0
  158.4770  210.6510  155.4560 C   0  0  0  0  0  2  0  0  0  0  0  0
  157.8870  212.0250  155.7410 C   0  0  0  0  0  2  0  0  0  0  0  0
  158.7650  213.1340  155.1820 C   0  0  0  0  0  2  0  0  0  0  0  0
  157.9540  214.0420  154.2750 C   0  0  0  0  0  2  0  0  0  0  0  0
  155.7350  214.4530  151.8550 C   0  0  0  0  0  2  0  0  0  0  0  0
  156.9820  213.2520  153.5280 N   0  0  0  0  0  0  0  0  0  0  0  0
  158.9290  212.7030  151.5800 O   0  0  0  0  0  0  0  0  0  0  0  0
  156.9460  213.7550  152.2190 N   0  0  0  0  0  0  0  0  0  0  0  0
  155.6660  213.5540  154.0900 C   0  0  0  0  0  2  0  0  0  0  0  0
  153.6590  213.8690  152.8400 O   0  0  0  0  0  1  0  0  0  0  0  0
  157.9470  213.4240  151.2490 C   0  0  0  0  0  0  0  0  0  0  0  0
  154.9030  214.4370  153.1100 C   0  0  2  0  0  3  0  0  0  0  0  0
  156.8500  213.3970  149.0460 C   0  0  0  0  0  1  0  0  0  0  0  0
  157.8300  213.9000  149.9410 O   0  0  0  0  0  0  0  0  0  0  0  0
  1  7  2  0  0  0  0
  1 18  1  0  0  0  0
  2  4  1  0  0  0  0
  4 11  1  0  0  0  0
  4  9  2  0  0  0  0
  5 14  1  0  0  0  0
  6 34  1  0  0  0  0
  6 20  1  0  0  0  0
  7 13  1  0  0  0  0
  8 21  1  6  0  0  0
  8 20  1  0  0  0  0
  8  3  1  0  0  0  0
  9  6  1  0  0  0  0
 10  2  1  0  0  0  0
 10 17  1  0  0  0  0
 12 22  1  6  0  0  0
 12  5  1  0  0  0  0
 13  2  2  0  0  0  0
 14  8  1  0  0  0  0
 15  9  1  0  0  0  0
 15  5  1  0  0  0  0
 17 15  2  0  0  0  0
 18 10  2  0  0  0  0
 19 17  1  0  0  0  0
 19 12  1  0  0  0  0
 20 16  1  1  0  0  0
 20  3  1  0  0  0  0
 23 22  1  0  0  0  0
 24 23  1  0  0  0  0
 25 26  1  1  0  0  0
 25 24  1  0  0  0  0
 27 28  1  6  0  0  0
 27 25  1  0  0  0  0
 29 27  1  0  0  0  0
 30 29  1  0  0  0  0
 32 30  1  0  0  0  0
 32 31  1  0  0  0  0
 33 32  2  0  0  0  0
 35 34  1  0  0  0  0
 35 36  1  0  0  0  0
 37 36  1  0  0  0  0
 38 37  1  0  0  0  0
 39 42  1  0  0  0  0
 39 46  1  0  0  0  0
 40 43  1  0  0  0  0
 40 38  1  0  0  0  0
 42 40  1  0  0  0  0
 45 41  2  0  0  0  0
 45 42  1  0  0  0  0
 46 44  1  6  0  0  0
 46 43  1  0  0  0  0
 47 48  1  0  0  0  0
 48 45  1  0  0  0  0
M  END
>  <MODEL>
2

>  <REMARK>
 VINA RESULT:      -6.4      1.535      2.414
  Name = 
  15 active torsions:
  status: ('A' for Active; 'I' for Inactive)
    1  A    between atoms: C_3  and  C_5
    2  A    between atoms: C_3  and  C_29
    3  A    between atoms: C_4  and  C_9
    4  A    between atoms: C_4  and  N_13
    5  A    between atoms: C_5  and  C_45
    6  A    between atoms: C_6  and  C_20
    7  A    between atoms: C_6  and  C_31
    8  A    between atoms: C_9  and  C_23
    9  A    between atoms: O_14  and  C_43
   10  A    between atoms: N_16  and  C_32
   11  A    between atoms: C_17  and  C_38
   12  A    between atoms: C_20  and  C_29
   13  A    between atoms: C_23  and  C_46
   14  A    between atoms: C_32  and  C_46
   15  A    between atoms: C_38  and  C_45
                            x       y       z     vdW  Elec       q    Type
                         _______ _______ _______ _____ _____    ______ ____

>  <TORSDO>
F 15

$$$$
=
 OpenBabel11052410123D

 48 53  0  0  1  0  0  0  0  0999 V2000
  160.4000  210.4070  156.7080 C   0  0  0  0  0  3  0  0  0  0  0  0
  160.6110  208.1660  155.0700 C   0  0  0  0  0  0  0  0  0  0  0  0
  161.8290  205.4850  149.7030 O   0  0  0  0  0  0  0  0  0  0  0  0
  160.7120  207.0240  154.2520 C   0  0  0  0  0  0  0  0  0  0  0  0
  161.9960  208.8790  151.1360 N   0  0  0  0  0  0  0  0  0  0  0  0
  161.2460  205.9540  152.0490 N   0  0  0  0  0  0  0  0  0  0  0  0
  160.0720  209.1730  157.1760 N   0  0  0  0  0  0  0  0  0  0  0  0
  161.5520  206.8760  149.8350 C   0  0  2  0  0  0  0  0  0  0  0  0
  161.1490  207.1340  152.8990 C   0  0  0  0  0  0  0  0  0  0  0  0
  160.9590  209.4370  154.5710 C   0  0  0  0  0  0  0  0  0  0  0  0
  160.3950  205.7850  154.8020 O   0  0  0  0  0  1  0  0  0  0  0  0
  162.1700  210.3280  151.1440 C   0  0  2  0  0  3  0  0  0  0  0  0
  160.1670  208.0640  156.3940 C   0  0  0  0  0  3  0  0  0  0  0  0
  162.4310  208.0930  149.9690 C   0  0  0  0  0  2  0  0  0  0  0  0
  161.5270  208.4470  152.4350 C   0  0  0  0  0  0  0  0  0  0  0  0
  163.6540  205.9070  151.2210 C   0  0  0  0  0  1  0  0  0  0  0  0
  161.4110  209.5430  153.2580 C   0  0  0  0  0  0  0  0  0  0  0  0
  160.8510  210.5630  155.3970 C   0  0  0  0  0  3  0  0  0  0  0  0
  161.8090  210.7970  152.5600 C   0  0  0  0  0  2  0  0  0  0  0  0
  162.1560  206.0430  150.9310 C   0  0  2  0  0  0  0  0  0  0  0  0
  160.1820  207.1210  149.9850 O   0  0  0  0  0  1  0  0  0  0  0  0
  161.2340  210.9710  150.1270 C   0  0  0  0  0  2  0  0  0  0  0  0
  162.0090  211.7980  149.1090 C   0  0  0  0  0  2  0  0  0  0  0  0
  161.2980  211.8490  147.7630 C   0  0  0  0  0  2  0  0  0  0  0  0
  161.4780  213.2070  147.0920 C   0  0  2  0  0  3  0  0  0  0  0  0
  160.8890  214.2830  147.9940 C   0  0  0  0  0  1  0  0  0  0  0  0
  160.7990  213.2310  145.7180 C   0  0  1  0  0  3  0  0  0  0  0  0
  160.1500  214.4520  145.5270 O   0  0  0  0  0  1  0  0  0  0  0  0
  161.8170  213.0490  144.5980 C   0  0  0  0  0  2  0  0  0  0  0  0
  161.3660  213.7420  143.3200 C   0  0  0  0  0  2  0  0  0  0  0  0
  162.7110  213.1320  141.2720 N   0  0  0  0  0  1  0  0  0  0  0  0
  161.6060  212.8740  142.1320 C   0  0  0  0  0  0  0  0  0  0  0  0
  160.8470  211.8960  141.9050 O   0  0  0  0  0  0  0  0  0  0  0  0
  160.6670  204.6500  152.3680 C   0  0  0  0  0  2  0  0  0  0  0  0
  161.3540  203.5430  151.5790 C   0  0  0  0  0  2  0  0  0  0  0  0
  160.3820  202.4220  151.2400 C   0  0  0  0  0  2  0  0  0  0  0  0
  160.8170  201.6660  149.9940 C   0  0  0  0  0  2  0  0  0  0  0  0
  160.8410  202.5970  148.7940 C   0  0  0  0  0  2  0  0  0  0  0  0
  160.6230  201.5080  145.6780 C   0  0  0  0  0  2  0  0  0  0  0  0
  161.7060  202.0450  147.7600 N   0  0  0  0  0  0  0  0  0  0  0  0
  162.1690  204.6320  146.7700 O   0  0  0  0  0  0  0  0  0  0  0  0
  161.2340  202.5080  146.5230 N   0  0  0  0  0  0  0  0  0  0  0  0
  161.4790  200.6000  147.7390 C   0  0  0  0  0  2  0  0  0  0  0  0
  161.3200  199.2450  145.7830 O   0  0  0  0  0  1  0  0  0  0  0  0
  161.5190  203.8280  146.0460 C   0  0  0  0  0  0  0  0  0  0  0  0
  160.6670  200.2470  146.4990 C   0  0  2  0  0  3  0  0  0  0  0  0
  160.9220  205.5850  144.4280 C   0  0  0  0  0  1  0  0  0  0  0  0
  161.0790  204.2180  144.7780 O   0  0  0  0  0  0  0  0  0  0  0  0
  1  7  1  0  0  0  0
  2 13  1  0  0  0  0
  3  8  1  0  0  0  0
  3 20  1  0  0  0  0
  4 11  1  0  0  0  0
  4  2  2  0  0  0  0
  5 12  1  0  0  0  0
  5 15  1  0  0  0  0
  6 34  1  0  0  0  0
  6  9  1  0  0  0  0
  8 14  1  0  0  0  0
  8 21  1  1  0  0  0
  8 20  1  0  0  0  0
  9  4  1  0  0  0  0
 10  2  1  0  0  0  0
 10 18  1  0  0  0  0
 12 22  1  6  0  0  0
 12 19  1  0  0  0  0
 13  7  2  0  0  0  0
 14  5  1  0  0  0  0
 15  9  2  0  0  0  0
 15 17  1  0  0  0  0
 17 10  2  0  0  0  0
 18  1  2  0  0  0  0
 19 17  1  0  0  0  0
 20 16  1  1  0  0  0
 20  6  1  0  0  0  0
 23 22  1  0  0  0  0
 24 23  1  0  0  0  0
 25 24  1  0  0  0  0
 25 26  1  1  0  0  0
 27 28  1  6  0  0  0
 27 25  1  0  0  0  0
 29 27  1  0  0  0  0
 30 29  1  0  0  0  0
 31 32  1  0  0  0  0
 32 30  1  0  0  0  0
 33 32  2  0  0  0  0
 35 34  1  0  0  0  0
 36 35  1  0  0  0  0
 37 36  1  0  0  0  0
 38 37  1  0  0  0  0
 39 46  1  0  0  0  0
 39 42  1  0  0  0  0
 40 38  1  0  0  0  0
 42 40  1  0  0  0  0
 43 40  1  0  0  0  0
 45 42  1  0  0  0  0
 45 41  2  0  0  0  0
 46 44  1  6  0  0  0
 46 43  1  0  0  0  0
 47 48  1  0  0  0  0
 48 45  1  0  0  0  0
M  END
>  <MODEL>
3

>  <REMARK>
 VINA RESULT:      -5.1      3.314      9.771
  Name = 
  15 active torsions:
  status: ('A' for Active; 'I' for Inactive)
    1  A    between atoms: C_3  and  C_5
    2  A    between atoms: C_3  and  C_29
    3  A    between atoms: C_4  and  C_9
    4  A    between atoms: C_4  and  N_13
    5  A    between atoms: C_5  and  C_45
    6  A    between atoms: C_6  and  C_20
    7  A    between atoms: C_6  and  C_31
    8  A    between atoms: C_9  and  C_23
    9  A    between atoms: O_14  and  C_43
   10  A    between atoms: N_16  and  C_32
   11  A    between atoms: C_17  and  C_38
   12  A    between atoms: C_20  and  C_29
   13  A    between atoms: C_23  and  C_46
   14  A    between atoms: C_32  and  C_46
   15  A    between atoms: C_38  and  C_45
                            x       y       z     vdW  Elec       q    Type
                         _______ _______ _______ _____ _____    ______ ____

>  <TORSDO>
F 15

$$$$
=
 OpenBabel11052410123D

 48 53  0  0  1  0  0  0  0  0999 V2000
  160.9680  203.0220  149.5710 C   0  0  0  0  0  3  0  0  0  0  0  0
  161.1480  205.7930  149.3610 C   0  0  0  0  0  0  0  0  0  0  0  0
  161.4240  211.3960  151.8100 O   0  0  0  0  0  0  0  0  0  0  0  0
  161.2370  207.1930  149.2390 C   0  0  0  0  0  0  0  0  0  0  0  0
  161.3510  207.9120  153.0170 N   0  0  0  0  0  0  0  0  0  0  0  0
  161.3770  209.4720  150.2740 N   0  0  0  0  0  0  0  0  0  0  0  0
  160.9890  203.6250  148.3520 N   0  0  0  0  0  0  0  0  0  0  0  0
  160.9510  210.2570  152.5210 C   0  0  2  0  0  0  0  0  0  0  0  0
  161.2940  208.0220  150.3980 C   0  0  0  0  0  0  0  0  0  0  0  0
  161.1320  205.1830  150.6310 C   0  0  0  0  0  0  0  0  0  0  0  0
  161.2900  207.7460  147.9620 O   0  0  0  0  0  1  0  0  0  0  0  0
  161.2670  206.8280  153.9900 C   0  0  2  0  0  3  0  0  0  0  0  0
  161.0760  204.9760  148.2240 C   0  0  0  0  0  3  0  0  0  0  0  0
  161.6090  209.2890  153.4710 C   0  0  0  0  0  2  0  0  0  0  0  0
  161.3070  207.3590  151.6800 C   0  0  0  0  0  0  0  0  0  0  0  0
  163.4690  210.1450  151.5620 C   0  0  0  0  0  1  0  0  0  0  0  0
  161.2140  205.9890  151.7640 C   0  0  0  0  0  0  0  0  0  0  0  0
  161.0400  203.7900  150.7340 C   0  0  0  0  0  3  0  0  0  0  0  0
  161.1970  205.5270  153.1790 C   0  0  0  0  0  2  0  0  0  0  0  0
  161.9470  210.1790  151.3980 C   0  0  2  0  0  0  0  0  0  0  0  0
  159.6420  209.9230  152.1550 O   0  0  0  0  0  1  0  0  0  0  0  0
  160.0080  206.9840  154.8350 C   0  0  0  0  0  2  0  0  0  0  0  0
  160.3510  207.2000  156.3030 C   0  0  0  0  0  2  0  0  0  0  0  0
  159.8670  208.5550  156.8040 C   0  0  0  0  0  2  0  0  0  0  0  0
  160.9180  209.6360  156.5780 C   0  0  2  0  0  3  0  0  0  0  0  0
  162.2250  209.1930  157.2180 C   0  0  0  0  0  1  0  0  0  0  0  0
  160.4590  210.9730  157.1710 C   0  0  1  0  0  3  0  0  0  0  0  0
  161.0690  212.0310  156.4930 O   0  0  0  0  0  1  0  0  0  0  0  0
  158.9480  211.1380  157.0550 C   0  0  0  0  0  2  0  0  0  0  0  0
  158.5490  212.6070  157.0410 C   0  0  0  0  0  2  0  0  0  0  0  0
  156.4640  214.0220  157.1920 N   0  0  0  0  0  1  0  0  0  0  0  0
  157.0680  212.7530  156.9650 C   0  0  0  0  0  0  0  0  0  0  0  0
  156.3510  211.7610  156.6720 O   0  0  0  0  0  0  0  0  0  0  0  0
  161.1340  210.2160  149.0400 C   0  0  0  0  0  2  0  0  0  0  0  0
  162.4440  210.6870  148.4220 C   0  0  0  0  0  2  0  0  0  0  0  0
  162.5950  212.1970  148.5300 C   0  0  0  0  0  2  0  0  0  0  0  0
  161.2870  212.9110  148.2280 C   0  0  0  0  0  2  0  0  0  0  0  0
  160.9960  213.9530  149.2930 C   0  0  0  0  0  2  0  0  0  0  0  0
  157.9220  212.7680  148.9890 C   0  0  0  0  0  2  0  0  0  0  0  0
  159.6360  214.4530  149.1360 N   0  0  0  0  0  0  0  0  0  0  0  0
  159.3110  214.4390  151.9250 O   0  0  0  0  0  0  0  0  0  0  0  0
  158.7820  213.5760  149.8220 N   0  0  0  0  0  0  0  0  0  0  0  0
  159.2860  214.3000  147.7240 C   0  0  0  0  0  2  0  0  0  0  0  0
  157.1780  213.5670  146.8850 O   0  0  0  0  0  1  0  0  0  0  0  0
  158.6270  213.6250  151.2450 C   0  0  0  0  0  0  0  0  0  0  0  0
  158.3070  213.1410  147.5810 C   0  0  2  0  0  3  0  0  0  0  0  0
  157.4430  212.8590  153.2630 C   0  0  0  0  0  1  0  0  0  0  0  0
  157.7160  212.7720  151.8730 O   0  0  0  0  0  0  0  0  0  0  0  0
  1 18  1  0  0  0  0
  2 10  1  0  0  0  0
  3  8  1  0  0  0  0
  4  2  1  0  0  0  0
  4  9  2  0  0  0  0
  5 14  1  0  0  0  0
  5 12  1  0  0  0  0
  6  9  1  0  0  0  0
  6 20  1  0  0  0  0
  7  1  2  0  0  0  0
  8 21  1  6  0  0  0
  8 14  1  0  0  0  0
  9 15  1  0  0  0  0
 10 18  2  0  0  0  0
 10 17  1  0  0  0  0
 11  4  1  0  0  0  0
 12 22  1  6  0  0  0
 13  7  1  0  0  0  0
 13  2  2  0  0  0  0
 15 17  2  0  0  0  0
 15  5  1  0  0  0  0
 17 19  1  0  0  0  0
 19 12  1  0  0  0  0
 20 16  1  1  0  0  0
 20  3  1  0  0  0  0
 20  8  1  0  0  0  0
 22 23  1  0  0  0  0
 23 24  1  0  0  0  0
 25 24  1  0  0  0  0
 25 27  1  0  0  0  0
 25 26  1  1  0  0  0
 27 28  1  6  0  0  0
 29 27  1  0  0  0  0
 30 29  1  0  0  0  0
 32 30  1  0  0  0  0
 32 31  1  0  0  0  0
 33 32  2  0  0  0  0
 34  6  1  0  0  0  0
 35 36  1  0  0  0  0
 35 34  1  0  0  0  0
 37 36  1  0  0  0  0
 37 38  1  0  0  0  0
 39 42  1  0  0  0  0
 40 38  1  0  0  0  0
 40 42  1  0  0  0  0
 42 45  1  0  0  0  0
 43 40  1  0  0  0  0
 45 48  1  0  0  0  0
 45 41  2  0  0  0  0
 46 44  1  6  0  0  0
 46 43  1  0  0  0  0
 46 39  1  0  0  0  0
 48 47  1  0  0  0  0
M  END
>  <MODEL>
4

>  <REMARK>
 VINA RESULT:      -4.9      2.254      7.607
  Name = 
  15 active torsions:
  status: ('A' for Active; 'I' for Inactive)
    1  A    between atoms: C_3  and  C_5
    2  A    between atoms: C_3  and  C_29
    3  A    between atoms: C_4  and  C_9
    4  A    between atoms: C_4  and  N_13
    5  A    between atoms: C_5  and  C_45
    6  A    between atoms: C_6  and  C_20
    7  A    between atoms: C_6  and  C_31
    8  A    between atoms: C_9  and  C_23
    9  A    between atoms: O_14  and  C_43
   10  A    between atoms: N_16  and  C_32
   11  A    between atoms: C_17  and  C_38
   12  A    between atoms: C_20  and  C_29
   13  A    between atoms: C_23  and  C_46
   14  A    between atoms: C_32  and  C_46
   15  A    between atoms: C_38  and  C_45
                            x       y       z     vdW  Elec       q    Type
                         _______ _______ _______ _____ _____    ______ ____

>  <TORSDO>
F 15

$$$$
=
 OpenBabel11052410123D

 48 53  0  0  1  0  0  0  0  0999 V2000
  160.8680  203.0690  150.7170 C   0  0  0  0  0  3  0  0  0  0  0  0
  161.1600  205.7640  150.0810 C   0  0  0  0  0  0  0  0  0  0  0  0
  161.5150  211.6770  151.6250 O   0  0  0  0  0  0  0  0  0  0  0  0
  161.3080  207.1240  149.7450 C   0  0  0  0  0  0  0  0  0  0  0  0
  161.2500  208.4350  153.3610 N   0  0  0  0  0  0  0  0  0  0  0  0
  161.4780  209.5340  150.4130 N   0  0  0  0  0  0  0  0  0  0  0  0
  160.9740  203.4680  149.4210 N   0  0  0  0  0  0  0  0  0  0  0  0
  160.9640  210.6800  152.4780 C   0  0  2  0  0  0  0  0  0  0  0  0
  161.3340  208.1260  150.7600 C   0  0  0  0  0  0  0  0  0  0  0  0
  161.0550  205.3660  151.4290 C   0  0  0  0  0  0  0  0  0  0  0  0
  161.4480  207.4630  148.4020 O   0  0  0  0  0  1  0  0  0  0  0  0
  161.0750  207.5230  154.4880 C   0  0  2  0  0  3  0  0  0  0  0  0
  161.1180  204.7780  149.0870 C   0  0  0  0  0  3  0  0  0  0  0  0
  161.5350  209.8590  153.6050 C   0  0  0  0  0  2  0  0  0  0  0  0
  161.2560  207.6770  152.1290 C   0  0  0  0  0  0  0  0  0  0  0  0
  163.5230  210.3450  151.6960 C   0  0  0  0  0  1  0  0  0  0  0  0
  161.1070  206.3410  152.4230 C   0  0  0  0  0  0  0  0  0  0  0  0
  160.9070  204.0110  151.7460 C   0  0  0  0  0  3  0  0  0  0  0  0
  161.0000  206.1120  153.8900 C   0  0  0  0  0  2  0  0  0  0  0  0
  162.0140  210.3950  151.4410 C   0  0  2  0  0  0  0  0  0  0  0  0
  159.6640  210.3290  152.0950 O   0  0  0  0  0  1  0  0  0  0  0  0
  159.7800  207.8480  155.2230 C   0  0  0  0  0  2  0  0  0  0  0  0
  159.8970  209.1560  155.9960 C   0  0  0  0  0  2  0  0  0  0  0  0
  158.6280  209.9920  155.8870 C   0  0  0  0  0  2  0  0  0  0  0  0
  158.6820  211.2030  156.8120 C   0  0  2  0  0  3  0  0  0  0  0  0
  157.2670  211.5460  157.2570 C   0  0  0  0  0  1  0  0  0  0  0  0
  159.3240  212.4020  156.1040 C   0  0  1  0  0  3  0  0  0  0  0  0
  160.7140  212.3300  156.2100 O   0  0  0  0  0  1  0  0  0  0  0  0
  158.9560  212.4290  154.6250 C   0  0  0  0  0  2  0  0  0  0  0  0
  158.4660  213.8060  154.1990 C   0  0  0  0  0  2  0  0  0  0  0  0
  155.9500  213.6860  154.3700 N   0  0  0  0  0  1  0  0  0  0  0  0
  157.1220  213.7170  153.5620 C   0  0  0  0  0  0  0  0  0  0  0  0
  157.0210  213.6980  152.3070 O   0  0  0  0  0  0  0  0  0  0  0  0
  161.3270  210.0770  149.0640 C   0  0  0  0  0  2  0  0  0  0  0  0
  162.5850  210.8200  148.6330 C   0  0  0  0  0  2  0  0  0  0  0  0
  162.3260  212.3130  148.4940 C   0  0  0  0  0  2  0  0  0  0  0  0
  161.5720  212.6300  147.2130 C   0  0  0  0  0  2  0  0  0  0  0  0
  160.2260  213.2570  147.5340 C   0  0  0  0  0  2  0  0  0  0  0  0
  158.9000  213.3380  144.5040 C   0  0  0  0  0  2  0  0  0  0  0  0
  159.8820  214.2360  146.5100 N   0  0  0  0  0  0  0  0  0  0  0  0
  157.2990  214.4530  147.5910 O   0  0  0  0  0  0  0  0  0  0  0  0
  158.7210  213.7830  145.8660 N   0  0  0  0  0  0  0  0  0  0  0  0
  160.9310  214.1770  145.4930 C   0  0  0  0  0  2  0  0  0  0  0  0
  160.5900  214.2820  143.1350 O   0  0  0  0  0  1  0  0  0  0  0  0
  157.4200  213.9410  146.4440 C   0  0  0  0  0  0  0  0  0  0  0  0
  160.3790  213.4810  144.2550 C   0  0  2  0  0  3  0  0  0  0  0  0
  155.4600  214.4530  145.0450 C   0  0  0  0  0  1  0  0  0  0  0  0
  156.2900  213.5290  145.7320 O   0  0  0  0  0  0  0  0  0  0  0  0
  1 18  1  0  0  0  0
  2 10  1  0  0  0  0
  3  8  1  0  0  0  0
  4  2  1  0  0  0  0
  4  9  2  0  0  0  0
  5 14  1  0  0  0  0
  5 12  1  0  0  0  0
  6  9  1  0  0  0  0
  6 20  1  0  0  0  0
  7  1  2  0  0  0  0
  8 21  1  6  0  0  0
  8 14  1  0  0  0  0
  9 15  1  0  0  0  0
 10 18  2  0  0  0  0
 10 17  1  0  0  0  0
 11  4  1  0  0  0  0
 12 22  1  6  0  0  0
 13  7  1  0  0  0  0
 13  2  2  0  0  0  0
 15 17  2  0  0  0  0
 15  5  1  0  0  0  0
 17 19  1  0  0  0  0
 19 12  1  0  0  0  0
 20  3  1  0  0  0  0
 20 16  1  1  0  0  0
 20  8  1  0  0  0  0
 22 23  1  0  0  0  0
 24 23  1  0  0  0  0
 24 25  1  0  0  0  0
 25 26  1  6  0  0  0
 27 28  1  6  0  0  0
 27 25  1  0  0  0  0
 29 27  1  0  0  0  0
 30 29  1  0  0  0  0
 32 30  1  0  0  0  0
 32 31  1  0  0  0  0
 33 32  2  0  0  0  0
 34  6  1  0  0  0  0
 35 34  1  0  0  0  0
 36 35  1  0  0  0  0
 37 38  1  0  0  0  0
 37 36  1  0  0  0  0
 39 42  1  0  0  0  0
 40 38  1  0  0  0  0
 42 45  1  0  0  0  0
 42 40  1  0  0  0  0
 43 40  1  0  0  0  0
 45 41  2  0  0  0  0
 46 44  1  6  0  0  0
 46 39  1  0  0  0  0
 46 43  1  0  0  0  0
 47 48  1  0  0  0  0
 48 45  1  0  0  0  0
M  END
>  <MODEL>
5

>  <REMARK>
 VINA RESULT:      -4.6      3.386      8.381
  Name = 
  15 active torsions:
  status: ('A' for Active; 'I' for Inactive)
    1  A    between atoms: C_3  and  C_5
    2  A    between atoms: C_3  and  C_29
    3  A    between atoms: C_4  and  C_9
    4  A    between atoms: C_4  and  N_13
    5  A    between atoms: C_5  and  C_45
    6  A    between atoms: C_6  and  C_20
    7  A    between atoms: C_6  and  C_31
    8  A    between atoms: C_9  and  C_23
    9  A    between atoms: O_14  and  C_43
   10  A    between atoms: N_16  and  C_32
   11  A    between atoms: C_17  and  C_38
   12  A    between atoms: C_20  and  C_29
   13  A    between atoms: C_23  and  C_46
   14  A    between atoms: C_32  and  C_46
   15  A    between atoms: C_38  and  C_45
                            x       y       z     vdW  Elec       q    Type
                         _______ _______ _______ _____ _____    ______ ____

>  <TORSDO>
F 15

$$$$
=
 OpenBabel11052410123D

 48 53  0  0  1  0  0  0  0  0999 V2000
  161.1080  203.5810  148.8580 C   0  0  0  0  0  3  0  0  0  0  0  0
  161.0620  205.2560  151.0820 C   0  0  0  0  0  0  0  0  0  0  0  0
  161.4390  210.7750  153.7050 O   0  0  0  0  0  0  0  0  0  0  0  0
  161.0370  206.0920  152.2150 C   0  0  0  0  0  0  0  0  0  0  0  0
  161.4730  209.3910  150.2860 N   0  0  0  0  0  0  0  0  0  0  0  0
  161.1690  208.3680  153.2560 N   0  0  0  0  0  0  0  0  0  0  0  0
  160.9580  203.0690  150.1090 N   0  0  0  0  0  0  0  0  0  0  0  0
  161.9370  210.4960  152.4000 C   0  0  2  0  0  0  0  0  0  0  0  0
  161.1850  207.5040  152.0820 C   0  0  0  0  0  0  0  0  0  0  0  0
  161.2130  205.8030  149.7920 C   0  0  0  0  0  0  0  0  0  0  0  0
  160.8450  205.5070  153.4650 O   0  0  0  0  0  1  0  0  0  0  0  0
  161.6250  209.3980  148.8350 C   0  0  2  0  0  3  0  0  0  0  0  0
  160.9330  203.8670  151.2100 C   0  0  0  0  0  3  0  0  0  0  0  0
  161.3580  210.6630  151.0190 C   0  0  0  0  0  2  0  0  0  0  0  0
  161.3050  208.0290  150.7440 C   0  0  0  0  0  0  0  0  0  0  0  0
  159.3100  210.0580  152.8300 C   0  0  0  0  0  1  0  0  0  0  0  0
  161.3300  207.1840  149.6580 C   0  0  0  0  0  0  0  0  0  0  0  0
  161.2370  204.9590  148.6760 C   0  0  0  0  0  3  0  0  0  0  0  0
  161.5100  207.9360  148.3850 C   0  0  0  0  0  2  0  0  0  0  0  0
  160.7960  209.7460  153.0310 C   0  0  2  0  0  0  0  0  0  0  0  0
  163.1640  209.8230  152.4450 O   0  0  0  0  0  1  0  0  0  0  0  0
  162.9930  209.9540  148.4570 C   0  0  0  0  0  2  0  0  0  0  0  0
  162.9400  211.4640  148.2590 C   0  0  0  0  0  2  0  0  0  0  0  0
  161.5530  211.9300  147.8350 C   0  0  0  0  0  2  0  0  0  0  0  0
  161.4650  213.4530  147.8070 C   0  0  2  0  0  3  0  0  0  0  0  0
  160.5550  213.9130  148.9360 C   0  0  0  0  0  1  0  0  0  0  0  0
  160.9310  213.9420  146.4560 C   0  0  1  0  0  3  0  0  0  0  0  0
  161.9850  214.0940  145.5520 O   0  0  0  0  0  1  0  0  0  0  0  0
  159.9330  212.9530  145.8670 C   0  0  0  0  0  2  0  0  0  0  0  0
  160.3380  212.5230  144.4640 C   0  0  0  0  0  2  0  0  0  0  0  0
  158.3870  213.9810  143.7990 N   0  0  0  0  0  1  0  0  0  0  0  0
  159.3310  212.9700  143.4600 C   0  0  0  0  0  0  0  0  0  0  0  0
  159.3320  212.4740  142.3030 O   0  0  0  0  0  0  0  0  0  0  0  0
  161.2860  207.9000  154.6350 C   0  0  0  0  0  2  0  0  0  0  0  0
  161.3390  209.0730  155.6050 C   0  0  0  0  0  2  0  0  0  0  0  0
  160.0170  209.2440  156.3390 C   0  0  0  0  0  2  0  0  0  0  0  0
  160.0270  210.4820  157.2220 C   0  0  0  0  0  2  0  0  0  0  0  0
  158.7480  211.2780  157.0290 C   0  0  0  0  0  2  0  0  0  0  0  0
  156.2610  212.3150  155.1100 C   0  0  0  0  0  2  0  0  0  0  0  0
  158.2040  211.0230  155.7010 N   0  0  0  0  0  0  0  0  0  0  0  0
  159.8030  213.0810  154.6540 O   0  0  0  0  0  0  0  0  0  0  0  0
  157.7000  212.2360  155.2110 N   0  0  0  0  0  0  0  0  0  0  0  0
  157.0330  210.1650  155.8780 C   0  0  0  0  0  2  0  0  0  0  0  0
  154.9690  210.3700  154.7000 O   0  0  0  0  0  1  0  0  0  0  0  0
  158.5520  213.2470  154.6590 C   0  0  0  0  0  0  0  0  0  0  0  0
  155.7760  210.9950  155.6490 C   0  0  2  0  0  3  0  0  0  0  0  0
  157.4610  214.4530  152.8120 C   0  0  0  0  0  1  0  0  0  0  0  0
  157.9930  214.4110  154.1270 O   0  0  0  0  0  0  0  0  0  0  0  0
  1  7  1  0  0  0  0
  2 13  1  0  0  0  0
  2  4  1  0  0  0  0
  4 11  1  0  0  0  0
  5 15  1  0  0  0  0
  5 14  1  0  0  0  0
  6 34  1  0  0  0  0
  7 13  2  0  0  0  0
  8 21  1  1  0  0  0
  8 20  1  0  0  0  0
  8  3  1  0  0  0  0
  9  4  2  0  0  0  0
  9  6  1  0  0  0  0
 10  2  2  0  0  0  0
 12 22  1  1  0  0  0
 12  5  1  0  0  0  0
 14  8  1  0  0  0  0
 15  9  1  0  0  0  0
 17 10  1  0  0  0  0
 17 15  2  0  0  0  0
 18  1  2  0  0  0  0
 18 10  1  0  0  0  0
 19 12  1  0  0  0  0
 19 17  1  0  0  0  0
 20 16  1  6  0  0  0
 20  6  1  0  0  0  0
 20  3  1  0  0  0  0
 23 22  1  0  0  0  0
 24 23  1  0  0  0  0
 25 24  1  0  0  0  0
 25 26  1  1  0  0  0
 27 28  1  6  0  0  0
 27 25  1  0  0  0  0
 29 27  1  0  0  0  0
 30 29  1  0  0  0  0
 32 31  1  0  0  0  0
 32 30  1  0  0  0  0
 33 32  2  0  0  0  0
 34 35  1  0  0  0  0
 35 36  1  0  0  0  0
 36 37  1  0  0  0  0
 38 37  1  0  0  0  0
 39 42  1  0  0  0  0
 39 46  1  0  0  0  0
 40 43  1  0  0  0  0
 40 38  1  0  0  0  0
 41 45  2  0  0  0  0
 42 40  1  0  0  0  0
 45 42  1  0  0  0  0
 46 44  1  6  0  0  0
 46 43  1  0  0  0  0
 47 48  1  0  0  0  0
 48 45  1  0  0  0  0
M  END
>  <MODEL>
6

>  <REMARK>
 VINA RESULT:      -4.5      3.042      6.256
  Name = 
  15 active torsions:
  status: ('A' for Active; 'I' for Inactive)
    1  A    between atoms: C_3  and  C_5
    2  A    between atoms: C_3  and  C_29
    3  A    between atoms: C_4  and  C_9
    4  A    between atoms: C_4  and  N_13
    5  A    between atoms: C_5  and  C_45
    6  A    between atoms: C_6  and  C_20
    7  A    between atoms: C_6  and  C_31
    8  A    between atoms: C_9  and  C_23
    9  A    between atoms: O_14  and  C_43
   10  A    between atoms: N_16  and  C_32
   11  A    between atoms: C_17  and  C_38
   12  A    between atoms: C_20  and  C_29
   13  A    between atoms: C_23  and  C_46
   14  A    between atoms: C_32  and  C_46
   15  A    between atoms: C_38  and  C_45
                            x       y       z     vdW  Elec       q    Type
                         _______ _______ _______ _____ _____    ______ ____

>  <TORSDO>
F 15

$$$$
=
 OpenBabel11052410123D

 48 53  0  0  1  0  0  0  0  0999 V2000
  161.6950  211.4050  149.0290 C   0  0  0  0  0  3  0  0  0  0  0  0
  161.8610  209.3680  150.9200 C   0  0  0  0  0  0  0  0  0  0  0  0
  160.8520  207.0790  156.5070 O   0  0  0  0  0  0  0  0  0  0  0  0
  161.9530  208.3300  151.8670 C   0  0  0  0  0  0  0  0  0  0  0  0
  160.0470  210.1670  154.6570 N   0  0  0  0  0  0  0  0  0  0  0  0
  161.5000  207.4120  154.1550 N   0  0  0  0  0  0  0  0  0  0  0  0
  162.3260  210.2370  148.7350 N   0  0  0  0  0  0  0  0  0  0  0  0
  160.8220  208.4730  156.2180 C   0  0  2  0  0  0  0  0  0  0  0  0
  161.3970  208.4820  153.1710 C   0  0  0  0  0  0  0  0  0  0  0  0
  161.2000  210.5710  151.2380 C   0  0  0  0  0  0  0  0  0  0  0  0
  162.5810  207.1450  151.4910 O   0  0  0  0  0  1  0  0  0  0  0  0
  159.5540  211.5260  154.4610 C   0  0  2  0  0  3  0  0  0  0  0  0
  162.4190  209.2280  149.6430 C   0  0  0  0  0  3  0  0  0  0  0  0
  159.7070  209.4320  155.8880 C   0  0  0  0  0  2  0  0  0  0  0  0
  160.7010  209.7150  153.4480 C   0  0  0  0  0  0  0  0  0  0  0  0
  159.1050  206.9010  154.8560 C   0  0  0  0  0  1  0  0  0  0  0  0
  160.6330  210.7120  152.5020 C   0  0  0  0  0  0  0  0  0  0  0  0
  161.1190  211.5950  150.2860 C   0  0  0  0  0  3  0  0  0  0  0  0
  159.9120  211.9080  153.0190 C   0  0  0  0  0  2  0  0  0  0  0  0
  160.5070  207.4090  155.2040 C   0  0  2  0  0  0  0  0  0  0  0  0
  162.1100  209.0100  156.1100 O   0  0  0  0  0  1  0  0  0  0  0  0
  160.2400  212.4750  155.4380 C   0  0  0  0  0  2  0  0  0  0  0  0
  159.2950  213.5810  155.8900 C   0  0  0  0  0  2  0  0  0  0  0  0
  157.8770  213.0630  156.0980 C   0  0  0  0  0  2  0  0  0  0  0  0
  156.8490  213.9940  155.4650 C   0  0  2  0  0  3  0  0  0  0  0  0
  155.6220  214.0550  156.3630 C   0  0  0  0  0  1  0  0  0  0  0  0
  156.4630  213.5060  154.0640 C   0  0  1  0  0  3  0  0  0  0  0  0
  155.0730  213.4330  153.9510 O   0  0  0  0  0  1  0  0  0  0  0  0
  156.9820  214.4530  152.9890 C   0  0  0  0  0  2  0  0  0  0  0  0
  157.6100  213.6890  151.8310 C   0  0  0  0  0  2  0  0  0  0  0  0
  155.4390  214.1780  150.6380 N   0  0  0  0  0  1  0  0  0  0  0  0
  156.8330  213.8950  150.5760 C   0  0  0  0  0  0  0  0  0  0  0  0
  157.4150  213.8480  149.4610 O   0  0  0  0  0  0  0  0  0  0  0  0
  162.3780  206.2500  154.0300 C   0  0  0  0  0  2  0  0  0  0  0  0
  162.1000  205.4930  152.7380 C   0  0  0  0  0  2  0  0  0  0  0  0
  160.9960  204.4630  152.9270 C   0  0  0  0  0  2  0  0  0  0  0  0
  160.3200  204.1230  151.6090 C   0  0  0  0  0  2  0  0  0  0  0  0
  161.2320  204.4660  150.4440 C   0  0  0  0  0  2  0  0  0  0  0  0
  161.6750  204.2970  147.1700 C   0  0  0  0  0  2  0  0  0  0  0  0
  160.4470  204.5830  149.2220 N   0  0  0  0  0  0  0  0  0  0  0  0
  159.9930  201.8110  149.2520 O   0  0  0  0  0  0  0  0  0  0  0  0
  160.9880  203.6890  148.2860 N   0  0  0  0  0  0  0  0  0  0  0  0
  160.7070  205.9130  148.6730 C   0  0  0  0  0  2  0  0  0  0  0  0
  161.0220  206.4300  146.3660 O   0  0  0  0  0  1  0  0  0  0  0  0
  160.7060  202.2850  148.3240 C   0  0  0  0  0  0  0  0  0  0  0  0
  161.6050  205.7760  147.4500 C   0  0  2  0  0  3  0  0  0  0  0  0
  161.6130  200.1110  147.6080 C   0  0  0  0  0  1  0  0  0  0  0  0
  161.2190  201.4470  147.3310 O   0  0  0  0  0  0  0  0  0  0  0  0
  1 18  1  0  0  0  0
  2 10  1  0  0  0  0
  2  4  1  0  0  0  0
  4  9  2  0  0  0  0
  5 14  1  0  0  0  0
  6 20  1  0  0  0  0
  7  1  2  0  0  0  0
  7 13  1  0  0  0  0
  8 21  1  6  0  0  0
  8  3  1  0  0  0  0
  9 15  1  0  0  0  0
  9  6  1  0  0  0  0
 10 17  1  0  0  0  0
 11  4  1  0  0  0  0
 12  5  1  0  0  0  0
 12 22  1  1  0  0  0
 13  2  2  0  0  0  0
 14  8  1  0  0  0  0
 15  5  1  0  0  0  0
 17 19  1  0  0  0  0
 17 15  2  0  0  0  0
 18 10  2  0  0  0  0
 19 12  1  0  0  0  0
 20 16  1  6  0  0  0
 20  8  1  0  0  0  0
 20  3  1  0  0  0  0
 22 23  1  0  0  0  0
 23 24  1  0  0  0  0
 25 24  1  0  0  0  0
 25 26  1  1  0  0  0
 27 28  1  1  0  0  0
 27 25  1  0  0  0  0
 29 27  1  0  0  0  0
 30 29  1  0  0  0  0
 32 31  1  0  0  0  0
 32 30  1  0  0  0  0
 33 32  2  0  0  0  0
 34  6  1  0  0  0  0
 35 36  1  0  0  0  0
 35 34  1  0  0  0  0
 37 36  1  0  0  0  0
 38 37  1  0  0  0  0
 39 46  1  0  0  0  0
 39 42  1  0  0  0  0
 40 38  1  0  0  0  0
 42 45  1  0  0  0  0
 42 40  1  0  0  0  0
 43 40  1  0  0  0  0
 45 41  2  0  0  0  0
 46 44  1  6  0  0  0
 46 43  1  0  0  0  0
 48 47  1  0  0  0  0
 48 45  1  0  0  0  0
M  END
>  <MODEL>
7

>  <REMARK>
 VINA RESULT:      -4.4      1.950      8.958
  Name = 
  15 active torsions:
  status: ('A' for Active; 'I' for Inactive)
    1  A    between atoms: C_3  and  C_5
    2  A    between atoms: C_3  and  C_29
    3  A    between atoms: C_4  and  C_9
    4  A    between atoms: C_4  and  N_13
    5  A    between atoms: C_5  and  C_45
    6  A    between atoms: C_6  and  C_20
    7  A    between atoms: C_6  and  C_31
    8  A    between atoms: C_9  and  C_23
    9  A    between atoms: O_14  and  C_43
   10  A    between atoms: N_16  and  C_32
   11  A    between atoms: C_17  and  C_38
   12  A    between atoms: C_20  and  C_29
   13  A    between atoms: C_23  and  C_46
   14  A    between atoms: C_32  and  C_46
   15  A    between atoms: C_38  and  C_45
                            x       y       z     vdW  Elec       q    Type
                         _______ _______ _______ _____ _____    ______ ____

>  <TORSDO>
F 15

$$$$
=
 OpenBabel11052410123D

 48 53  0  0  1  0  0  0  0  0999 V2000
  160.7770  202.8200  151.0720 C   0  0  0  0  0  3  0  0  0  0  0  0
  160.9660  205.1680  152.5570 C   0  0  0  0  0  0  0  0  0  0  0  0
  161.5590  211.2430  153.0180 O   0  0  0  0  0  0  0  0  0  0  0  0
  161.0610  206.3480  153.3210 C   0  0  0  0  0  0  0  0  0  0  0  0
  161.2130  208.7510  150.3220 N   0  0  0  0  0  0  0  0  0  0  0  0
  161.2770  208.8400  153.4750 N   0  0  0  0  0  0  0  0  0  0  0  0
  160.7840  202.7820  152.4310 N   0  0  0  0  0  0  0  0  0  0  0  0
  161.9040  210.5130  151.8460 C   0  0  2  0  0  0  0  0  0  0  0  0
  161.1690  207.6190  152.6850 C   0  0  0  0  0  0  0  0  0  0  0  0
  160.9550  205.2250  151.1490 C   0  0  0  0  0  0  0  0  0  0  0  0
  161.0270  206.2420  154.7090 O   0  0  0  0  0  1  0  0  0  0  0  0
  161.1930  208.2460  148.9530 C   0  0  2  0  0  3  0  0  0  0  0  0
  160.8760  203.9150  153.1780 C   0  0  0  0  0  3  0  0  0  0  0  0
  161.1640  210.2020  150.5710 C   0  0  0  0  0  2  0  0  0  0  0  0
  161.1220  207.6400  151.2440 C   0  0  0  0  0  0  0  0  0  0  0  0
  159.3540  210.3210  152.7030 C   0  0  0  0  0  1  0  0  0  0  0  0
  161.0330  206.4680  150.5270 C   0  0  0  0  0  0  0  0  0  0  0  0
  160.8620  204.0430  150.4050 C   0  0  0  0  0  3  0  0  0  0  0  0
  161.0490  206.7220  149.0600 C   0  0  0  0  0  2  0  0  0  0  0  0
  160.8580  210.0610  152.8270 C   0  0  2  0  0  0  0  0  0  0  0  0
  163.1390  209.8670  151.9810 O   0  0  0  0  0  1  0  0  0  0  0  0
  162.4970  208.5990  148.2480 C   0  0  0  0  0  2  0  0  0  0  0  0
  163.1130  207.3760  147.5800 C   0  0  0  0  0  2  0  0  0  0  0  0
  162.0910  206.6120  146.7480 C   0  0  0  0  0  2  0  0  0  0  0  0
  162.4330  205.1270  146.6790 C   0  0  2  0  0  3  0  0  0  0  0  0
  163.5630  204.9290  145.6790 C   0  0  0  0  0  1  0  0  0  0  0  0
  161.2060  204.3040  146.2700 C   0  0  1  0  0  3  0  0  0  0  0  0
  160.8310  204.6230  144.9640 O   0  0  0  0  0  1  0  0  0  0  0  0
  161.5000  202.8090  146.3330 C   0  0  0  0  0  2  0  0  0  0  0  0
  160.8590  202.1680  147.5550 C   0  0  0  0  0  2  0  0  0  0  0  0
  161.2150  199.9300  146.4430 N   0  0  0  0  0  1  0  0  0  0  0  0
  161.1910  200.7170  147.6290 C   0  0  0  0  0  0  0  0  0  0  0  0
  161.4770  200.1920  148.7370 O   0  0  0  0  0  0  0  0  0  0  0  0
  161.5630  208.8810  154.9070 C   0  0  0  0  0  2  0  0  0  0  0  0
  161.8420  210.3060  155.3660 C   0  0  0  0  0  2  0  0  0  0  0  0
  160.7920  210.7820  156.3590 C   0  0  0  0  0  2  0  0  0  0  0  0
  160.4140  212.2350  156.1170 C   0  0  0  0  0  2  0  0  0  0  0  0
  158.9130  212.4180  156.2450 C   0  0  0  0  0  2  0  0  0  0  0  0
  155.9440  212.3500  154.7850 C   0  0  0  0  0  2  0  0  0  0  0  0
  158.2370  211.7170  155.1610 N   0  0  0  0  0  0  0  0  0  0  0  0
  159.0120  213.7380  153.3720 O   0  0  0  0  0  0  0  0  0  0  0  0
  157.3450  212.6210  154.5640 N   0  0  0  0  0  0  0  0  0  0  0  0
  157.3900  210.6960  155.7760 C   0  0  0  0  0  2  0  0  0  0  0  0
  155.1760  210.1280  155.0940 O   0  0  0  0  0  1  0  0  0  0  0  0
  157.7830  213.6180  153.6340 C   0  0  0  0  0  0  0  0  0  0  0  0
  155.9350  211.1390  155.6810 C   0  0  2  0  0  3  0  0  0  0  0  0
  156.6530  214.4530  151.6130 C   0  0  0  0  0  1  0  0  0  0  0  0
  156.8470  214.4530  153.0190 O   0  0  0  0  0  0  0  0  0  0  0  0
  1  7  1  0  0  0  0
  2 13  1  0  0  0  0
  2  4  1  0  0  0  0
  4 11  1  0  0  0  0
  5 14  1  0  0  0  0
  5 15  1  0  0  0  0
  6 34  1  0  0  0  0
  7 13  2  0  0  0  0
  8 21  1  1  0  0  0
  8 20  1  0  0  0  0
  8  3  1  0  0  0  0
  9  4  2  0  0  0  0
  9  6  1  0  0  0  0
 10  2  2  0  0  0  0
 12 22  1  1  0  0  0
 12 19  1  0  0  0  0
 12  5  1  0  0  0  0
 14  8  1  0  0  0  0
 15  9  1  0  0  0  0
 17 10  1  0  0  0  0
 17 15  2  0  0  0  0
 18  1  2  0  0  0  0
 18 10  1  0  0  0  0
 19 17  1  0  0  0  0
 20 16  1  6  0  0  0
 20  3  1  0  0  0  0
 20  6  1  0  0  0  0
 23 22  1  0  0  0  0
 24 23  1  0  0  0  0
 25 26  1  6  0  0  0
 25 24  1  0  0  0  0
 27 28  1  6  0  0  0
 27 29  1  0  0  0  0
 27 25  1  0  0  0  0
 29 30  1  0  0  0  0
 30 32  1  0  0  0  0
 31 32  1  0  0  0  0
 32 33  2  0  0  0  0
 34 35  1  0  0  0  0
 35 36  1  0  0  0  0
 37 38  1  0  0  0  0
 37 36  1  0  0  0  0
 39 46  1  0  0  0  0
 40 43  1  0  0  0  0
 40 38  1  0  0  0  0
 41 45  2  0  0  0  0
 42 39  1  0  0  0  0
 42 40  1  0  0  0  0
 45 42  1  0  0  0  0
 46 44  1  6  0  0  0
 46 43  1  0  0  0  0
 47 48  1  0  0  0  0
 48 45  1  0  0  0  0
M  END
>  <MODEL>
8

>  <REMARK>
 VINA RESULT:      -4.3      1.929      4.685
  Name = 
  15 active torsions:
  status: ('A' for Active; 'I' for Inactive)
    1  A    between atoms: C_3  and  C_5
    2  A    between atoms: C_3  and  C_29
    3  A    between atoms: C_4  and  C_9
    4  A    between atoms: C_4  and  N_13
    5  A    between atoms: C_5  and  C_45
    6  A    between atoms: C_6  and  C_20
    7  A    between atoms: C_6  and  C_31
    8  A    between atoms: C_9  and  C_23
    9  A    between atoms: O_14  and  C_43
   10  A    between atoms: N_16  and  C_32
   11  A    between atoms: C_17  and  C_38
   12  A    between atoms: C_20  and  C_29
   13  A    between atoms: C_23  and  C_46
   14  A    between atoms: C_32  and  C_46
   15  A    between atoms: C_38  and  C_45
                            x       y       z     vdW  Elec       q    Type
                         _______ _______ _______ _____ _____    ______ ____

>  <TORSDO>
F 15

$$$$
=
 OpenBabel11052410123D

 48 53  0  0  1  0  0  0  0  0999 V2000
  162.0230  211.1650  148.6390 C   0  0  0  0  0  3  0  0  0  0  0  0
  161.2190  211.0230  151.3000 C   0  0  0  0  0  0  0  0  0  0  0  0
  160.2570  207.9430  156.5030 O   0  0  0  0  0  0  0  0  0  0  0  0
  160.8070  210.9650  152.6460 C   0  0  0  0  0  0  0  0  0  0  0  0
  161.6510  207.2480  153.1600 N   0  0  0  0  0  0  0  0  0  0  0  0
  160.4510  209.6820  154.7690 N   0  0  0  0  0  0  0  0  0  0  0  0
  161.5280  212.2620  149.2720 N   0  0  0  0  0  0  0  0  0  0  0  0
  160.3870  207.3100  155.2340 C   0  0  2  0  0  0  0  0  0  0  0  0
  160.8850  209.7450  153.3790 C   0  0  0  0  0  0  0  0  0  0  0  0
  161.7340  209.8790  150.6590 C   0  0  0  0  0  0  0  0  0  0  0  0
  160.3430  212.1320  153.2470 O   0  0  0  0  0  1  0  0  0  0  0  0
  162.1840  206.4410  152.0670 C   0  0  2  0  0  3  0  0  0  0  0  0
  161.1290  212.2160  150.5720 C   0  0  0  0  0  3  0  0  0  0  0  0
  161.5490  206.6760  154.5140 C   0  0  0  0  0  2  0  0  0  0  0  0
  161.4480  208.6040  152.6990 C   0  0  0  0  0  0  0  0  0  0  0  0
  162.4620  208.8160  156.0710 C   0  0  0  0  0  1  0  0  0  0  0  0
  161.8360  208.6930  151.3810 C   0  0  0  0  0  0  0  0  0  0  0  0
  162.1360  209.9530  149.3200 C   0  0  0  0  0  3  0  0  0  0  0  0
  162.3390  207.3880  150.8700 C   0  0  0  0  0  2  0  0  0  0  0  0
  161.0270  208.6280  155.5730 C   0  0  2  0  0  0  0  0  0  0  0  0
  159.2140  207.4160  154.4780 O   0  0  0  0  0  1  0  0  0  0  0  0
  161.2070  205.3220  151.7230 C   0  0  0  0  0  2  0  0  0  0  0  0
  160.5890  205.5320  150.3460 C   0  0  0  0  0  2  0  0  0  0  0  0
  161.2430  204.6490  149.2910 C   0  0  0  0  0  2  0  0  0  0  0  0
  161.5000  205.4240  148.0030 C   0  0  2  0  0  3  0  0  0  0  0  0
  160.2460  206.2070  147.6420 C   0  0  0  0  0  1  0  0  0  0  0  0
  161.8830  204.4740  146.8630 C   0  0  1  0  0  3  0  0  0  0  0  0
  163.0820  204.8870  146.2800 O   0  0  0  0  0  1  0  0  0  0  0  0
  162.0640  203.0480  147.3720 C   0  0  0  0  0  2  0  0  0  0  0  0
  160.7420  202.2940  147.3930 C   0  0  0  0  0  2  0  0  0  0  0  0
  160.0280  201.0370  149.4630 N   0  0  0  0  0  1  0  0  0  0  0  0
  160.8240  201.1030  148.2850 C   0  0  0  0  0  0  0  0  0  0  0  0
  161.5780  200.1410  147.9820 O   0  0  0  0  0  0  0  0  0  0  0  0
  159.6660  210.7140  155.4430 C   0  0  0  0  0  2  0  0  0  0  0  0
  160.5720  211.7050  156.1610 C   0  0  0  0  0  2  0  0  0  0  0  0
  159.8100  212.4800  157.2270 C   0  0  0  0  0  2  0  0  0  0  0  0
  158.4060  212.8310  156.7610 C   0  0  0  0  0  2  0  0  0  0  0  0
  158.3750  214.2390  156.1920 C   0  0  0  0  0  2  0  0  0  0  0  0
  156.6860  212.3490  154.0660 C   0  0  0  0  0  2  0  0  0  0  0  0
  157.2750  214.3640  155.2450 N   0  0  0  0  0  0  0  0  0  0  0  0
  155.4600  213.6310  157.2590 O   0  0  0  0  0  0  0  0  0  0  0  0
  156.5650  213.1540  155.2590 N   0  0  0  0  0  0  0  0  0  0  0  0
  157.8680  214.4430  153.9100 C   0  0  0  0  0  2  0  0  0  0  0  0
  157.0370  213.3640  151.9530 O   0  0  0  0  0  1  0  0  0  0  0  0
  155.6270  212.8350  156.2940 C   0  0  0  0  0  0  0  0  0  0  0  0
  157.6350  213.1220  153.1880 C   0  0  2  0  0  3  0  0  0  0  0  0
  155.2590  210.5030  156.9930 C   0  0  0  0  0  1  0  0  0  0  0  0
  154.9000  211.6440  156.2280 O   0  0  0  0  0  0  0  0  0  0  0  0
  1  7  2  0  0  0  0
  1 18  1  0  0  0  0
  2  4  1  0  0  0  0
  4 11  1  0  0  0  0
  4  9  2  0  0  0  0
  5 14  1  0  0  0  0
  6 34  1  0  0  0  0
  6 20  1  0  0  0  0
  7 13  1  0  0  0  0
  8 21  1  6  0  0  0
  8 20  1  0  0  0  0
  8  3  1  0  0  0  0
  9  6  1  0  0  0  0
 10  2  1  0  0  0  0
 10 17  1  0  0  0  0
 12 22  1  6  0  0  0
 12  5  1  0  0  0  0
 13  2  2  0  0  0  0
 14  8  1  0  0  0  0
 15  5  1  0  0  0  0
 15  9  1  0  0  0  0
 17 15  2  0  0  0  0
 18 10  2  0  0  0  0
 19 17  1  0  0  0  0
 19 12  1  0  0  0  0
 20 16  1  1  0  0  0
 20  3  1  0  0  0  0
 23 22  1  0  0  0  0
 24 23  1  0  0  0  0
 25 26  1  6  0  0  0
 25 24  1  0  0  0  0
 27 28  1  1  0  0  0
 27 29  1  0  0  0  0
 27 25  1  0  0  0  0
 29 30  1  0  0  0  0
 30 32  1  0  0  0  0
 32 31  1  0  0  0  0
 33 32  2  0  0  0  0
 34 35  1  0  0  0  0
 35 36  1  0  0  0  0
 37 36  1  0  0  0  0
 38 37  1  0  0  0  0
 39 42  1  0  0  0  0
 40 42  1  0  0  0  0
 40 38  1  0  0  0  0
 42 45  1  0  0  0  0
 43 40  1  0  0  0  0
 45 41  2  0  0  0  0
 46 44  1  6  0  0  0
 46 43  1  0  0  0  0
 46 39  1  0  0  0  0
 48 45  1  0  0  0  0
 48 47  1  0  0  0  0
M  END
>  <MODEL>
9

>  <REMARK>
 VINA RESULT:      -4.2      1.403      2.132
  Name = 
  15 active torsions:
  status: ('A' for Active; 'I' for Inactive)
    1  A    between atoms: C_3  and  C_5
    2  A    between atoms: C_3  and  C_29
    3  A    between atoms: C_4  and  C_9
    4  A    between atoms: C_4  and  N_13
    5  A    between atoms: C_5  and  C_45
    6  A    between atoms: C_6  and  C_20
    7  A    between atoms: C_6  and  C_31
    8  A    between atoms: C_9  and  C_23
    9  A    between atoms: O_14  and  C_43
   10  A    between atoms: N_16  and  C_32
   11  A    between atoms: C_17  and  C_38
   12  A    between atoms: C_20  and  C_29
   13  A    between atoms: C_23  and  C_46
   14  A    between atoms: C_32  and  C_46
   15  A    between atoms: C_38  and  C_45
                            x       y       z     vdW  Elec       q    Type
                         _______ _______ _______ _____ _____    ______ ____

>  <TORSDO>
F 15

$$$$
