=
 OpenBabel11042421363D

 45 49  0  0  1  0  0  0  0  0999 V2000
  160.9750  205.8590  152.9150 C   0  0  0  0  0  0  0  0  0  0  0  0
  161.2740  208.4950  150.3640 C   0  0  0  0  0  0  0  0  0  0  0  0
  160.7620  204.5040  153.1720 C   0  0  0  0  0  3  0  0  0  0  0  0
  161.1940  209.0990  149.0410 C   0  0  2  0  0  3  0  0  0  0  0  0
  161.0580  203.9130  150.8760 C   0  0  0  0  0  0  0  0  0  0  0  0
  161.2320  206.2380  151.5800 C   0  0  0  0  0  0  0  0  0  0  0  0
  160.8060  203.5860  152.1740 N   0  0  0  0  0  0  0  0  0  0  0  0
  160.7120  206.6070  148.3830 C   0  0  0  0  0  2  0  0  0  0  0  0
  161.2850  205.2710  150.5390 C   0  0  0  0  0  0  0  0  0  0  0  0
  161.2860  207.5990  151.1490 C   0  0  0  0  0  0  0  0  0  0  0  0
  161.3730  207.9610  148.0020 C   0  0  0  0  0  2  0  0  0  0  0  0
  161.7010  205.6790  149.1220 C   0  0  0  0  0  2  0  0  0  0  0  0
  160.9100  206.8160  154.0520 C   0  0  0  0  0  0  0  0  0  0  0  0
  161.2400  208.0270  156.8410 C   0  0  0  0  0  2  0  0  0  0  0  0
  161.1130  209.2960  154.6070 C   0  0  0  0  0  2  0  0  0  0  0  0
  159.9680  207.3370  156.3710 C   0  0  0  0  0  2  0  0  0  0  0  0
  161.4770  209.3450  156.0930 C   0  0  1  0  0  3  0  0  0  0  0  0
  161.7380  208.0790  153.9400 C   0  0  0  0  0  2  0  0  0  0  0  0
  160.1920  206.4960  155.1460 C   0  0  0  0  0  3  0  0  0  0  0  0
  160.8410  210.5420  156.8040 C   0  0  0  0  0  2  0  0  0  0  0  0
  160.1580  212.8580  156.1670 C   0  0  0  0  0  2  0  0  0  0  0  0
  158.5130  211.1540  156.2770 C   0  0  0  0  0  2  0  0  0  0  0  0
  159.9450  211.3830  155.9000 C   0  0  2  0  0  3  0  0  0  0  0  0
  159.1050  213.3300  156.9640 O   0  0  0  0  0  0  0  0  0  0  0  0
  158.0040  212.5320  156.6240 C   0  0  0  0  0  2  0  0  0  0  0  0
  161.1180  201.5080  150.2560 N   0  0  0  0  0  0  0  0  0  0  0  0
  161.0150  202.9080  148.5090 C   0  0  0  0  0  3  0  0  0  0  0  0
  161.0320  201.5880  148.1070 C   0  0  0  0  0  0  0  0  0  0  0  0
  161.0720  202.8050  149.8910 C   0  0  1  0  0  3  0  0  0  0  0  0
  161.1000  200.7640  149.1650 N   0  0  0  0  0  0  0  0  0  0  0  0
  161.0270  201.1210  146.6940 C   0  0  0  0  0  2  0  0  0  0  0  0
  160.8350  202.3010  145.7600 C   0  0  0  0  0  1  0  0  0  0  0  0
  162.8770  210.5470  150.0260 O   0  0  0  0  0  1  0  0  0  0  0  0
  162.2490  210.1850  148.8280 C   0  0  2  0  0  3  0  0  0  0  0  0
  161.6940  211.3830  148.0390 C   0  0  0  0  0  2  0  0  0  0  0  0
  162.3530  212.7510  148.2760 C   0  0  1  0  0  3  0  0  0  0  0  0
  163.1280  213.2360  147.0660 C   0  0  0  0  0  1  0  0  0  0  0  0
  161.3770  213.7510  148.6850 N   0  0  0  0  0  2  0  0  0  0  0  0
  160.5460  213.1520  149.7200 C   0  0  0  0  0  2  0  0  0  0  0  0
  158.4250  213.4030  148.6280 O   0  0  0  0  0  1  0  0  0  0  0  0
  159.1660  213.8010  149.7440 C   0  0  1  0  0  3  0  0  0  0  0  0
  157.2470  213.7380  151.1140 O   0  0  0  0  0  0  0  0  0  0  0  0
  158.4410  213.4980  151.0270 C   0  0  0  0  0  0  0  0  0  0  0  0
  158.6850  211.5820  152.3950 O   0  0  0  0  0  1  0  0  0  0  0  0
  159.1490  212.8810  152.1930 C   0  0  0  0  0  2  0  0  0  0  0  0
  1  3  1  0  0  0  0
  1 13  1  0  0  0  0
  2 10  3  0  0  0  0
  4 34  1  1  0  0  0
  4  2  1  0  0  0  0
  5  7  1  0  0  0  0
  6  1  2  0  0  0  0
  7  3  2  0  0  0  0
  8 12  1  0  0  0  0
  9  5  2  0  0  0  0
  9  6  1  0  0  0  0
 10  6  1  0  0  0  0
 11  8  1  0  0  0  0
 11  4  1  0  0  0  0
 12  9  1  0  0  0  0
 13 19  2  0  0  0  0
 15 17  1  0  0  0  0
 16 14  1  0  0  0  0
 17 20  1  1  0  0  0
 17 14  1  0  0  0  0
 18 13  1  0  0  0  0
 18 15  1  0  0  0  0
 19 16  1  0  0  0  0
 21 24  1  0  0  0  0
 22 25  1  0  0  0  0
 23 21  1  0  0  0  0
 23 22  1  0  0  0  0
 23 20  1  1  0  0  0
 25 24  1  0  0  0  0
 27 29  1  0  0  0  0
 28 27  2  0  0  0  0
 28 30  1  0  0  0  0
 29 26  1  0  0  0  0
 29  5  1  1  0  0  0
 30 26  2  0  0  0  0
 31 28  1  0  0  0  0
 32 31  1  0  0  0  0
 34 33  1  1  0  0  0
 35 36  1  0  0  0  0
 35 34  1  0  0  0  0
 36 37  1  6  0  0  0
 36 38  1  0  0  0  0
 38 39  1  0  0  0  0
 39 41  1  0  0  0  0
 41 40  1  6  0  0  0
 41 43  1  0  0  0  0
 43 42  2  0  0  0  0
 43 45  1  0  0  0  0
 45 44  1  0  0  0  0
M  END
>  <MODEL>
1

>  <REMARK>
 VINA RESULT:      -7.1      0.000      0.000
  Name = 
  13 active torsions:
  status: ('A' for Active; 'I' for Inactive)
    1  A    between atoms: C_1  and  C_14
    2  A    between atoms: C_4  and  C_21
    3  A    between atoms: C_4  and  N_33
    4  A    between atoms: C_8  and  C_28
    5  A    between atoms: C_8  and  C_45
    6  A    between atoms: C_9  and  C_18
    7  A    between atoms: C_12  and  C_38
    8  A    between atoms: C_13  and  C_26
    9  A    between atoms: C_17  and  C_34
   10  A    between atoms: C_17  and  C_35
   11  A    between atoms: C_21  and  C_38
   12  A    between atoms: C_28  and  C_41
   13  A    between atoms: N_33  and  C_41
                            x       y       z     vdW  Elec       q    Type
                         _______ _______ _______ _____ _____    ______ ____

>  <TORSDO>
F 13

$$$$
=
 OpenBabel11042421363D

 45 49  0  0  1  0  0  0  0  0999 V2000
  160.9530  205.7810  152.9940 C   0  0  0  0  0  0  0  0  0  0  0  0
  161.2840  208.4260  150.4560 C   0  0  0  0  0  0  0  0  0  0  0  0
  160.7290  204.4260  153.2440 C   0  0  0  0  0  3  0  0  0  0  0  0
  161.2160  209.0360  149.1360 C   0  0  2  0  0  3  0  0  0  0  0  0
  161.0320  203.8440  150.9470 C   0  0  0  0  0  0  0  0  0  0  0  0
  161.2200  206.1640  151.6620 C   0  0  0  0  0  0  0  0  0  0  0  0
  160.7710  203.5120  152.2420 N   0  0  0  0  0  0  0  0  0  0  0  0
  160.7180  206.5510  148.4640 C   0  0  0  0  0  2  0  0  0  0  0  0
  161.2700  205.2010  150.6170 C   0  0  0  0  0  0  0  0  0  0  0  0
  161.2860  207.5260  151.2380 C   0  0  0  0  0  0  0  0  0  0  0  0
  161.3920  207.9020  148.0930 C   0  0  0  0  0  2  0  0  0  0  0  0
  161.6960  205.6120  149.2040 C   0  0  0  0  0  2  0  0  0  0  0  0
  160.8900  206.7330  154.1350 C   0  0  0  0  0  0  0  0  0  0  0  0
  161.1520  207.9050  156.9480 C   0  0  0  0  0  2  0  0  0  0  0  0
  161.2150  209.1920  154.7220 C   0  0  0  0  0  2  0  0  0  0  0  0
  159.8660  207.2970  156.4090 C   0  0  0  0  0  2  0  0  0  0  0  0
  161.5070  209.2110  156.2250 C   0  0  1  0  0  3  0  0  0  0  0  0
  161.7970  207.9430  154.0750 C   0  0  0  0  0  2  0  0  0  0  0  0
  160.0990  206.4510  155.1890 C   0  0  0  0  0  3  0  0  0  0  0  0
  160.9100  210.4390  156.9140 C   0  0  0  0  0  2  0  0  0  0  0  0
  160.2040  212.7480  156.2740 C   0  0  0  0  0  2  0  0  0  0  0  0
  158.5780  211.0250  156.3750 C   0  0  0  0  0  2  0  0  0  0  0  0
  160.0090  211.2710  156.0060 C   0  0  2  0  0  3  0  0  0  0  0  0
  159.1410  213.2080  157.0660 O   0  0  0  0  0  0  0  0  0  0  0  0
  158.0520  212.3970  156.7200 C   0  0  0  0  0  2  0  0  0  0  0  0
  161.0510  201.4410  150.3170 N   0  0  0  0  0  0  0  0  0  0  0  0
  161.0180  202.8500  148.5750 C   0  0  0  0  0  3  0  0  0  0  0  0
  161.0140  201.5320  148.1670 C   0  0  0  0  0  0  0  0  0  0  0  0
  161.0420  202.7390  149.9560 C   0  0  1  0  0  3  0  0  0  0  0  0
  161.0410  200.7010  149.2220 N   0  0  0  0  0  0  0  0  0  0  0  0
  161.0300  201.0710  146.7510 C   0  0  0  0  0  2  0  0  0  0  0  0
  160.7340  202.2360  145.8250 C   0  0  0  0  0  1  0  0  0  0  0  0
  162.8030  210.5710  150.1490 O   0  0  0  0  0  1  0  0  0  0  0  0
  162.2800  210.1150  148.9330 C   0  0  2  0  0  3  0  0  0  0  0  0
  161.7880  211.2460  148.0140 C   0  0  0  0  0  2  0  0  0  0  0  0
  162.3180  212.6620  148.2910 C   0  0  1  0  0  3  0  0  0  0  0  0
  163.7160  212.8740  147.7420 C   0  0  0  0  0  1  0  0  0  0  0  0
  161.4140  213.6820  147.7790 N   0  0  0  0  0  2  0  0  0  0  0  0
  160.0610  213.2900  148.1470 C   0  0  0  0  0  2  0  0  0  0  0  0
  159.4800  212.8560  145.8610 O   0  0  0  0  0  1  0  0  0  0  0  0
  159.0910  213.5640  147.0020 C   0  0  1  0  0  3  0  0  0  0  0  0
  157.1550  212.2180  146.9870 O   0  0  0  0  0  0  0  0  0  0  0  0
  157.6750  213.2440  147.3960 C   0  0  0  0  0  0  0  0  0  0  0  0
  156.3290  213.4010  149.3370 O   0  0  0  0  0  1  0  0  0  0  0  0
  156.8980  214.1460  148.3040 C   0  0  0  0  0  2  0  0  0  0  0  0
  1  3  1  0  0  0  0
  1 13  1  0  0  0  0
  2 10  3  0  0  0  0
  4 34  1  1  0  0  0
  4  2  1  0  0  0  0
  5  7  1  0  0  0  0
  6  1  2  0  0  0  0
  7  3  2  0  0  0  0
  8 12  1  0  0  0  0
  9  5  2  0  0  0  0
  9  6  1  0  0  0  0
 10  6  1  0  0  0  0
 11  8  1  0  0  0  0
 11  4  1  0  0  0  0
 12  9  1  0  0  0  0
 13 19  2  0  0  0  0
 15 17  1  0  0  0  0
 16 14  1  0  0  0  0
 17 20  1  1  0  0  0
 17 14  1  0  0  0  0
 18 13  1  0  0  0  0
 18 15  1  0  0  0  0
 19 16  1  0  0  0  0
 21 24  1  0  0  0  0
 22 25  1  0  0  0  0
 23 21  1  0  0  0  0
 23 22  1  0  0  0  0
 23 20  1  1  0  0  0
 25 24  1  0  0  0  0
 27 29  1  0  0  0  0
 28 27  2  0  0  0  0
 28 30  1  0  0  0  0
 29 26  1  0  0  0  0
 29  5  1  1  0  0  0
 30 26  2  0  0  0  0
 31 28  1  0  0  0  0
 32 31  1  0  0  0  0
 34 33  1  1  0  0  0
 35 36  1  0  0  0  0
 35 34  1  0  0  0  0
 36 37  1  6  0  0  0
 38 39  1  0  0  0  0
 38 36  1  0  0  0  0
 41 40  1  6  0  0  0
 41 43  1  0  0  0  0
 41 39  1  0  0  0  0
 42 43  2  0  0  0  0
 43 45  1  0  0  0  0
 45 44  1  0  0  0  0
M  END
>  <MODEL>
2

>  <REMARK>
 VINA RESULT:      -6.9      1.188      1.453
  Name = 
  13 active torsions:
  status: ('A' for Active; 'I' for Inactive)
    1  A    between atoms: C_1  and  C_14
    2  A    between atoms: C_4  and  C_21
    3  A    between atoms: C_4  and  N_33
    4  A    between atoms: C_8  and  C_28
    5  A    between atoms: C_8  and  C_45
    6  A    between atoms: C_9  and  C_18
    7  A    between atoms: C_12  and  C_38
    8  A    between atoms: C_13  and  C_26
    9  A    between atoms: C_17  and  C_34
   10  A    between atoms: C_17  and  C_35
   11  A    between atoms: C_21  and  C_38
   12  A    between atoms: C_28  and  C_41
   13  A    between atoms: N_33  and  C_41
                            x       y       z     vdW  Elec       q    Type
                         _______ _______ _______ _____ _____    ______ ____

>  <TORSDO>
F 13

$$$$
=
 OpenBabel11042421363D

 45 49  0  0  1  0  0  0  0  0999 V2000
  160.9810  206.0790  153.0540 C   0  0  0  0  0  0  0  0  0  0  0  0
  161.3770  208.7180  150.5190 C   0  0  0  0  0  0  0  0  0  0  0  0
  160.7370  204.7270  153.3020 C   0  0  0  0  0  3  0  0  0  0  0  0
  161.3310  209.3280  149.1970 C   0  0  2  0  0  3  0  0  0  0  0  0
  161.0570  204.1400  151.0090 C   0  0  0  0  0  0  0  0  0  0  0  0
  161.2680  206.4570  151.7250 C   0  0  0  0  0  0  0  0  0  0  0  0
  160.7770  203.8130  152.3000 N   0  0  0  0  0  0  0  0  0  0  0  0
  160.8090  206.8500  148.5210 C   0  0  0  0  0  2  0  0  0  0  0  0
  161.3180  205.4940  150.6810 C   0  0  0  0  0  0  0  0  0  0  0  0
  161.3570  207.8190  151.3010 C   0  0  0  0  0  0  0  0  0  0  0  0
  161.5040  208.1910  148.1570 C   0  0  0  0  0  2  0  0  0  0  0  0
  161.7660  205.8980  149.2730 C   0  0  0  0  0  2  0  0  0  0  0  0
  160.9170  207.0330  154.1940 C   0  0  0  0  0  0  0  0  0  0  0  0
  161.4210  208.3280  156.9180 C   0  0  0  0  0  2  0  0  0  0  0  0
  160.7920  209.5220  154.7280 C   0  0  0  0  0  2  0  0  0  0  0  0
  160.2250  207.4360  156.6210 C   0  0  0  0  0  2  0  0  0  0  0  0
  161.3410  209.6550  156.1510 C   0  0  1  0  0  3  0  0  0  0  0  0
  161.5090  208.4090  153.9760 C   0  0  0  0  0  2  0  0  0  0  0  0
  160.4140  206.6210  155.3730 C   0  0  0  0  0  3  0  0  0  0  0  0
  160.6230  210.7460  156.9480 C   0  0  0  0  0  2  0  0  0  0  0  0
  160.0030  212.9830  156.0260 C   0  0  0  0  0  2  0  0  0  0  0  0
  158.3000  211.5650  156.8700 C   0  0  0  0  0  2  0  0  0  0  0  0
  159.6000  211.5270  156.1270 C   0  0  2  0  0  3  0  0  0  0  0  0
  159.2370  213.7280  156.9350 O   0  0  0  0  0  0  0  0  0  0  0  0
  158.0200  213.0390  157.0360 C   0  0  0  0  0  2  0  0  0  0  0  0
  161.1100  201.7370  150.3790 N   0  0  0  0  0  0  0  0  0  0  0  0
  161.0020  203.1430  148.6380 C   0  0  0  0  0  3  0  0  0  0  0  0
  161.0140  201.8250  148.2310 C   0  0  0  0  0  0  0  0  0  0  0  0
  161.0650  203.0350  150.0190 C   0  0  1  0  0  3  0  0  0  0  0  0
  161.0860  200.9970  149.2860 N   0  0  0  0  0  0  0  0  0  0  0  0
  161.0030  201.3640  146.8160 C   0  0  0  0  0  2  0  0  0  0  0  0
  161.0750  202.5570  145.8820 C   0  0  0  0  0  1  0  0  0  0  0  0
  162.8020  210.9680  150.2220 O   0  0  0  0  0  1  0  0  0  0  0  0
  162.4120  210.3930  149.0070 C   0  0  2  0  0  3  0  0  0  0  0  0
  162.0220  211.4260  147.9360 C   0  0  0  0  0  2  0  0  0  0  0  0
  161.2300  212.6590  148.3990 C   0  0  1  0  0  3  0  0  0  0  0  0
  162.0870  213.9100  148.4530 C   0  0  0  0  0  1  0  0  0  0  0  0
  160.0570  212.8850  147.5670 N   0  0  0  0  0  2  0  0  0  0  0  0
  160.2880  212.2120  146.2960 C   0  0  0  0  0  2  0  0  0  0  0  0
  162.0120  213.1970  144.9500 O   0  0  0  0  0  1  0  0  0  0  0  0
  160.6390  213.2230  145.2090 C   0  0  1  0  0  3  0  0  0  0  0  0
  158.6170  213.0520  144.0060 O   0  0  0  0  0  0  0  0  0  0  0  0
  159.8350  212.9840  143.9590 C   0  0  0  0  0  0  0  0  0  0  0  0
  160.4000  211.3290  142.3640 O   0  0  0  0  0  1  0  0  0  0  0  0
  160.5010  212.6900  142.6520 C   0  0  0  0  0  2  0  0  0  0  0  0
  1  3  1  0  0  0  0
  1 13  1  0  0  0  0
  2 10  3  0  0  0  0
  4 34  1  1  0  0  0
  4  2  1  0  0  0  0
  5  7  1  0  0  0  0
  6  1  2  0  0  0  0
  7  3  2  0  0  0  0
  8 12  1  0  0  0  0
  9  5  2  0  0  0  0
  9  6  1  0  0  0  0
 10  6  1  0  0  0  0
 11  8  1  0  0  0  0
 11  4  1  0  0  0  0
 12  9  1  0  0  0  0
 13 19  2  0  0  0  0
 15 17  1  0  0  0  0
 16 14  1  0  0  0  0
 17 14  1  0  0  0  0
 17 20  1  1  0  0  0
 18 13  1  0  0  0  0
 18 15  1  0  0  0  0
 19 16  1  0  0  0  0
 21 23  1  0  0  0  0
 21 24  1  0  0  0  0
 22 25  1  0  0  0  0
 23 22  1  0  0  0  0
 23 20  1  1  0  0  0
 24 25  1  0  0  0  0
 27 29  1  0  0  0  0
 28 27  2  0  0  0  0
 28 30  1  0  0  0  0
 29 26  1  0  0  0  0
 29  5  1  1  0  0  0
 30 26  2  0  0  0  0
 31 28  1  0  0  0  0
 32 31  1  0  0  0  0
 34 33  1  1  0  0  0
 35 36  1  0  0  0  0
 35 34  1  0  0  0  0
 36 37  1  6  0  0  0
 38 36  1  0  0  0  0
 39 38  1  0  0  0  0
 41 40  1  6  0  0  0
 41 39  1  0  0  0  0
 43 42  2  0  0  0  0
 43 41  1  0  0  0  0
 44 45  1  0  0  0  0
 45 43  1  0  0  0  0
M  END
>  <MODEL>
3

>  <REMARK>
 VINA RESULT:      -6.9      1.937      2.893
  Name = 
  13 active torsions:
  status: ('A' for Active; 'I' for Inactive)
    1  A    between atoms: C_1  and  C_14
    2  A    between atoms: C_4  and  C_21
    3  A    between atoms: C_4  and  N_33
    4  A    between atoms: C_8  and  C_28
    5  A    between atoms: C_8  and  C_45
    6  A    between atoms: C_9  and  C_18
    7  A    between atoms: C_12  and  C_38
    8  A    between atoms: C_13  and  C_26
    9  A    between atoms: C_17  and  C_34
   10  A    between atoms: C_17  and  C_35
   11  A    between atoms: C_21  and  C_38
   12  A    between atoms: C_28  and  C_41
   13  A    between atoms: N_33  and  C_41
                            x       y       z     vdW  Elec       q    Type
                         _______ _______ _______ _____ _____    ______ ____

>  <TORSDO>
F 13

$$$$
=
 OpenBabel11042421363D

 45 49  0  0  1  0  0  0  0  0999 V2000
  161.1000  206.2150  150.4980 C   0  0  0  0  0  0  0  0  0  0  0  0
  161.8970  209.5490  149.1590 C   0  0  0  0  0  0  0  0  0  0  0  0
  160.9240  205.4260  151.6360 C   0  0  0  0  0  3  0  0  0  0  0  0
  162.3460  210.9340  149.1850 C   0  0  2  0  0  3  0  0  0  0  0  0
  160.8860  207.3300  153.0780 C   0  0  0  0  0  0  0  0  0  0  0  0
  161.1740  207.6130  150.6770 C   0  0  0  0  0  0  0  0  0  0  0  0
  160.8250  205.9860  152.8680 N   0  0  0  0  0  0  0  0  0  0  0  0
  162.3020  210.4710  151.7650 C   0  0  0  0  0  2  0  0  0  0  0  0
  161.0610  208.1940  151.9690 C   0  0  0  0  0  0  0  0  0  0  0  0
  161.5310  208.5170  149.6310 C   0  0  0  0  0  0  0  0  0  0  0  0
  162.0700  211.4830  150.6090 C   0  0  0  0  0  2  0  0  0  0  0  0
  161.0050  209.7170  152.1310 C   0  0  0  0  0  2  0  0  0  0  0  0
  161.2050  205.5400  149.1760 C   0  0  0  0  0  0  0  0  0  0  0  0
  162.1610  204.8100  146.3640 C   0  0  0  0  0  2  0  0  0  0  0  0
  161.0280  203.2510  148.0680 C   0  0  0  0  0  2  0  0  0  0  0  0
  160.9900  205.7430  146.6370 C   0  0  0  0  0  2  0  0  0  0  0  0
  161.8420  203.3670  146.7760 C   0  0  1  0  0  3  0  0  0  0  0  0
  161.6500  204.0930  149.1730 C   0  0  0  0  0  2  0  0  0  0  0  0
  160.9770  206.2470  148.0520 C   0  0  0  0  0  3  0  0  0  0  0  0
  161.2290  202.5560  145.6330 C   0  0  0  0  0  2  0  0  0  0  0  0
  161.2560  200.3360  146.7780 C   0  0  0  0  0  2  0  0  0  0  0  0
  159.8280  200.6610  144.9130 C   0  0  0  0  0  2  0  0  0  0  0  0
  160.3840  201.3770  146.1060 C   0  0  2  0  0  3  0  0  0  0  0  0
  161.4840  199.2860  145.8770 O   0  0  0  0  0  0  0  0  0  0  0  0
  160.3420  199.2500  145.0640 C   0  0  0  0  0  2  0  0  0  0  0  0
  160.9320  206.9820  155.5370 N   0  0  0  0  0  0  0  0  0  0  0  0
  160.5050  209.0910  154.9140 C   0  0  0  0  0  3  0  0  0  0  0  0
  160.5320  208.9590  156.2870 C   0  0  0  0  0  0  0  0  0  0  0  0
  160.7650  207.8000  154.4800 C   0  0  0  0  0  0  0  0  0  0  0  0
  160.7820  207.6890  156.6430 N   0  0  0  0  0  2  0  0  0  0  0  0
  160.2710  210.0550  157.2600 C   0  0  0  0  0  2  0  0  0  0  0  0
  159.4640  211.1550  156.5960 C   0  0  0  0  0  1  0  0  0  0  0  0
  162.5520  212.4100  147.2670 O   0  0  0  0  0  1  0  0  0  0  0  0
  161.6430  211.7970  148.1370 C   0  0  2  0  0  3  0  0  0  0  0  0
  160.6440  212.7800  148.7730 C   0  0  0  0  0  2  0  0  0  0  0  0
  159.4740  213.2610  147.9000 C   0  0  1  0  0  3  0  0  0  0  0  0
  158.2140  213.5070  148.7080 C   0  0  0  0  0  1  0  0  0  0  0  0
  159.8280  214.4510  147.1400 N   0  0  0  0  0  2  0  0  0  0  0  0
  159.3520  214.2560  145.7780 C   0  0  0  0  0  2  0  0  0  0  0  0
  158.1460  212.2730  145.1760 O   0  0  0  0  0  1  0  0  0  0  0  0
  159.4290  212.7850  145.3870 C   0  0  1  0  0  3  0  0  0  0  0  0
  160.0550  211.6870  143.3950 O   0  0  0  0  0  0  0  0  0  0  0  0
  160.3100  212.5840  144.1840 C   0  0  0  0  0  0  0  0  0  0  0  0
  162.6390  212.7160  143.7800 O   0  0  0  0  0  1  0  0  0  0  0  0
  161.4790  213.4790  143.9190 C   0  0  0  0  0  2  0  0  0  0  0  0
  1  6  2  0  0  0  0
  1  3  1  0  0  0  0
  2  4  1  0  0  0  0
  2 10  3  0  0  0  0
  3  7  2  0  0  0  0
  4 34  1  6  0  0  0
  4 11  1  0  0  0  0
  5 29  1  0  0  0  0
  6  9  1  0  0  0  0
  7  5  1  0  0  0  0
  8 12  1  0  0  0  0
  9 12  1  0  0  0  0
  9  5  2  0  0  0  0
 10  6  1  0  0  0  0
 11  8  1  0  0  0  0
 13  1  1  0  0  0  0
 14 16  1  0  0  0  0
 14 17  1  0  0  0  0
 15 18  1  0  0  0  0
 16 19  1  0  0  0  0
 17 20  1  6  0  0  0
 17 15  1  0  0  0  0
 18 13  1  0  0  0  0
 19 13  2  0  0  0  0
 22 25  1  0  0  0  0
 22 23  1  0  0  0  0
 23 20  1  6  0  0  0
 23 21  1  0  0  0  0
 24 21  1  0  0  0  0
 25 24  1  0  0  0  0
 26 30  1  0  0  0  0
 27 28  2  0  0  0  0
 28 30  1  0  0  0  0
 28 31  1  0  0  0  0
 29 27  1  0  0  0  0
 29 26  2  0  0  0  0
 32 31  1  0  0  0  0
 34 33  1  1  0  0  0
 34 35  1  0  0  0  0
 36 37  1  1  0  0  0
 36 35  1  0  0  0  0
 38 36  1  0  0  0  0
 39 38  1  0  0  0  0
 41 40  1  6  0  0  0
 41 39  1  0  0  0  0
 42 43  2  0  0  0  0
 43 41  1  0  0  0  0
 44 45  1  0  0  0  0
 45 43  1  0  0  0  0
M  END
>  <MODEL>
4

>  <REMARK>
 VINA RESULT:      -6.6      3.131      8.664
  Name = 
  13 active torsions:
  status: ('A' for Active; 'I' for Inactive)
    1  A    between atoms: C_1  and  C_14
    2  A    between atoms: C_4  and  C_21
    3  A    between atoms: C_4  and  N_33
    4  A    between atoms: C_8  and  C_28
    5  A    between atoms: C_8  and  C_45
    6  A    between atoms: C_9  and  C_18
    7  A    between atoms: C_12  and  C_38
    8  A    between atoms: C_13  and  C_26
    9  A    between atoms: C_17  and  C_34
   10  A    between atoms: C_17  and  C_35
   11  A    between atoms: C_21  and  C_38
   12  A    between atoms: C_28  and  C_41
   13  A    between atoms: N_33  and  C_41
                            x       y       z     vdW  Elec       q    Type
                         _______ _______ _______ _____ _____    ______ ____

>  <TORSDO>
F 13

$$$$
=
 OpenBabel11042421363D

 45 49  0  0  1  0  0  0  0  0999 V2000
  161.6510  207.6640  149.7720 C   0  0  0  0  0  0  0  0  0  0  0  0
  160.6660  208.9450  153.0780 C   0  0  0  0  0  0  0  0  0  0  0  0
  161.9130  207.9650  148.4340 C   0  0  0  0  0  3  0  0  0  0  0  0
  160.1680  209.9070  154.0520 C   0  0  2  0  0  3  0  0  0  0  0  0
  161.9550  210.3150  148.8630 C   0  0  0  0  0  0  0  0  0  0  0  0
  161.5360  208.7430  150.6740 C   0  0  0  0  0  0  0  0  0  0  0  0
  162.0530  209.2500  148.0210 N   0  0  0  0  0  0  0  0  0  0  0  0
  160.3590  211.4920  151.9720 C   0  0  0  0  0  2  0  0  0  0  0  0
  161.6920  210.0860  150.2370 C   0  0  0  0  0  0  0  0  0  0  0  0
  161.0920  208.5900  152.0240 C   0  0  0  0  0  0  0  0  0  0  0  0
  160.4950  211.3240  153.5110 C   0  0  0  0  0  2  0  0  0  0  0  0
  161.7000  211.2350  151.2500 C   0  0  0  0  0  2  0  0  0  0  0  0
  161.5040  206.2350  150.1610 C   0  0  0  0  0  0  0  0  0  0  0  0
  160.6380  203.7170  151.6660 C   0  0  0  0  0  2  0  0  0  0  0  0
  161.2550  203.8980  149.1750 C   0  0  0  0  0  2  0  0  0  0  0  0
  161.9610  204.4280  151.9100 C   0  0  0  0  0  2  0  0  0  0  0  0
  160.5930  203.0660  150.2770 C   0  0  1  0  0  3  0  0  0  0  0  0
  160.7500  205.3340  149.2070 C   0  0  0  0  0  2  0  0  0  0  0  0
  161.9730  205.8240  151.3550 C   0  0  0  0  0  3  0  0  0  0  0  0
  161.1000  201.6230  150.2940 C   0  0  0  0  0  2  0  0  0  0  0  0
  161.6190  200.2170  148.2950 C   0  0  0  0  0  2  0  0  0  0  0  0
  159.7100  201.6230  148.2590 C   0  0  0  0  0  2  0  0  0  0  0  0
  160.5160  200.7590  149.1800 C   0  0  2  0  0  3  0  0  0  0  0  0
  161.6710  200.9810  147.1190 O   0  0  0  0  0  0  0  0  0  0  0  0
  160.3560  201.4190  146.9110 C   0  0  0  0  0  2  0  0  0  0  0  0
  162.9700  212.5810  148.7850 N   0  0  0  0  0  0  0  0  0  0  0  0
  161.5100  212.1690  147.1360 C   0  0  0  0  0  3  0  0  0  0  0  0
  162.0520  213.4330  147.0350 C   0  0  0  0  0  0  0  0  0  0  0  0
  162.1280  211.6640  148.2700 C   0  0  1  0  0  3  0  0  0  0  0  0
  162.9190  213.6660  148.0340 N   0  0  0  0  0  0  0  0  0  0  0  0
  161.6980  214.4390  145.9960 C   0  0  0  0  0  2  0  0  0  0  0  0
  162.2910  214.0310  144.6600 C   0  0  0  0  0  1  0  0  0  0  0  0
  161.5840  208.5640  155.4970 O   0  0  0  0  0  1  0  0  0  0  0  0
  160.7850  209.7110  155.4370 C   0  0  2  0  0  3  0  0  0  0  0  0
  159.7300  209.7840  156.5550 C   0  0  0  0  0  2  0  0  0  0  0  0
  159.5430  211.1360  157.2610 C   0  0  1  0  0  3  0  0  0  0  0  0
  160.5820  212.1580  156.8380 C   0  0  0  0  0  1  0  0  0  0  0  0
  158.2020  211.6650  157.0570 N   0  0  0  0  0  2  0  0  0  0  0  0
  158.1740  212.2910  155.7430 C   0  0  0  0  0  2  0  0  0  0  0  0
  156.4380  210.6530  155.5110 O   0  0  0  0  0  1  0  0  0  0  0  0
  156.9600  211.8220  154.9500 C   0  0  1  0  0  3  0  0  0  0  0  0
  155.2020  212.9600  153.8660 O   0  0  0  0  0  0  0  0  0  0  0  0
  155.9180  212.9030  154.8530 C   0  0  0  0  0  0  0  0  0  0  0  0
  155.0260  213.3030  157.0090 O   0  0  0  0  0  1  0  0  0  0  0  0
  155.7230  213.8960  155.9560 C   0  0  0  0  0  2  0  0  0  0  0  0
  1 13  1  0  0  0  0
  1  6  1  0  0  0  0
  2  4  1  0  0  0  0
  3  1  2  0  0  0  0
  4 34  1  1  0  0  0
  5  9  1  0  0  0  0
  6 10  1  0  0  0  0
  7  3  1  0  0  0  0
  7  5  2  0  0  0  0
  8 11  1  0  0  0  0
  9  6  2  0  0  0  0
  9 12  1  0  0  0  0
 10  2  3  0  0  0  0
 11  4  1  0  0  0  0
 12  8  1  0  0  0  0
 13 19  2  0  0  0  0
 14 16  1  0  0  0  0
 15 18  1  0  0  0  0
 15 17  1  0  0  0  0
 17 20  1  1  0  0  0
 17 14  1  0  0  0  0
 18 13  1  0  0  0  0
 19 16  1  0  0  0  0
 21 23  1  0  0  0  0
 22 23  1  0  0  0  0
 23 20  1  1  0  0  0
 24 21  1  0  0  0  0
 25 24  1  0  0  0  0
 25 22  1  0  0  0  0
 27 29  1  0  0  0  0
 28 27  2  0  0  0  0
 28 30  1  0  0  0  0
 29 26  1  0  0  0  0
 29  5  1  6  0  0  0
 30 26  2  0  0  0  0
 31 28  1  0  0  0  0
 32 31  1  0  0  0  0
 34 33  1  6  0  0  0
 34 35  1  0  0  0  0
 35 36  1  0  0  0  0
 36 37  1  6  0  0  0
 38 36  1  0  0  0  0
 39 38  1  0  0  0  0
 41 40  1  1  0  0  0
 41 39  1  0  0  0  0
 42 43  2  0  0  0  0
 43 41  1  0  0  0  0
 43 45  1  0  0  0  0
 45 44  1  0  0  0  0
M  END
>  <MODEL>
5

>  <REMARK>
 VINA RESULT:      -6.5      3.010      8.628
  Name = 
  13 active torsions:
  status: ('A' for Active; 'I' for Inactive)
    1  A    between atoms: C_1  and  C_14
    2  A    between atoms: C_4  and  C_21
    3  A    between atoms: C_4  and  N_33
    4  A    between atoms: C_8  and  C_28
    5  A    between atoms: C_8  and  C_45
    6  A    between atoms: C_9  and  C_18
    7  A    between atoms: C_12  and  C_38
    8  A    between atoms: C_13  and  C_26
    9  A    between atoms: C_17  and  C_34
   10  A    between atoms: C_17  and  C_35
   11  A    between atoms: C_21  and  C_38
   12  A    between atoms: C_28  and  C_41
   13  A    between atoms: N_33  and  C_41
                            x       y       z     vdW  Elec       q    Type
                         _______ _______ _______ _____ _____    ______ ____

>  <TORSDO>
F 13

$$$$
=
 OpenBabel11042421363D

 45 49  0  0  1  0  0  0  0  0999 V2000
  161.5500  211.3100  149.4140 C   0  0  0  0  0  0  0  0  0  0  0  0
  161.6600  207.9670  147.8790 C   0  0  0  0  0  0  0  0  0  0  0  0
  161.3580  212.0520  150.5810 C   0  0  0  0  0  3  0  0  0  0  0  0
  161.4830  206.5240  147.7890 C   0  0  2  0  0  3  0  0  0  0  0  0
  161.4860  210.1080  151.9640 C   0  0  0  0  0  0  0  0  0  0  0  0
  161.7090  209.9140  149.5470 C   0  0  0  0  0  0  0  0  0  0  0  0
  161.3300  211.4500  151.7970 N   0  0  0  0  0  0  0  0  0  0  0  0
  160.9560  206.8420  150.3370 C   0  0  0  0  0  2  0  0  0  0  0  0
  161.6860  209.2900  150.8240 C   0  0  0  0  0  0  0  0  0  0  0  0
  161.7300  209.0190  148.4330 C   0  0  0  0  0  0  0  0  0  0  0  0
  161.5870  205.9550  149.2280 C   0  0  0  0  0  2  0  0  0  0  0  0
  161.9970  207.7960  150.9630 C   0  0  0  0  0  2  0  0  0  0  0  0
  161.5680  212.0280  148.1110 C   0  0  0  0  0  0  0  0  0  0  0  0
  162.4370  212.9700  145.3350 C   0  0  0  0  0  2  0  0  0  0  0  0
  160.0350  212.8480  146.2470 C   0  0  0  0  0  2  0  0  0  0  0  0
  162.7440  213.7330  146.6150 C   0  0  0  0  0  2  0  0  0  0  0  0
  160.9360  212.9800  145.0160 C   0  0  1  0  0  3  0  0  0  0  0  0
  160.4800  211.6810  147.1170 C   0  0  0  0  0  2  0  0  0  0  0  0
  162.5710  212.8860  147.8430 C   0  0  0  0  0  3  0  0  0  0  0  0
  160.5360  214.1640  144.1320 C   0  0  0  0  0  2  0  0  0  0  0  0
  160.2290  212.2910  142.5080 C   0  0  0  0  0  2  0  0  0  0  0  0
  161.6010  214.1300  141.9100 C   0  0  0  0  0  2  0  0  0  0  0  0
  160.3510  213.7920  142.6640 C   0  0  2  0  0  3  0  0  0  0  0  0
  161.4560  211.7810  142.0600 O   0  0  0  0  0  0  0  0  0  0  0  0
  162.0250  212.8150  141.3040 C   0  0  0  0  0  2  0  0  0  0  0  0
  161.9600  210.2530  154.3980 N   0  0  0  0  0  0  0  0  0  0  0  0
  160.8300  208.4160  153.7870 C   0  0  0  0  0  3  0  0  0  0  0  0
  161.0530  208.4510  155.1480 C   0  0  0  0  0  0  0  0  0  0  0  0
  161.4290  209.5890  153.3530 C   0  0  0  0  0  0  0  0  0  0  0  0
  161.7360  209.5540  155.4960 N   0  0  0  0  0  2  0  0  0  0  0  0
  160.6440  207.3930  156.1120 C   0  0  0  0  0  2  0  0  0  0  0  0
  159.2220  206.9520  155.8230 C   0  0  0  0  0  1  0  0  0  0  0  0
  162.2860  206.1460  145.5280 O   0  0  0  0  0  1  0  0  0  0  0  0
  162.5190  205.8630  146.8790 C   0  0  2  0  0  3  0  0  0  0  0  0
  162.6730  204.3610  147.1740 C   0  0  0  0  0  2  0  0  0  0  0  0
  161.4170  203.4840  147.0460 C   0  0  1  0  0  3  0  0  0  0  0  0
  161.2030  202.9860  145.6290 C   0  0  0  0  0  1  0  0  0  0  0  0
  161.4490  202.3650  147.9760 N   0  0  0  0  0  2  0  0  0  0  0  0
  160.2770  202.4760  148.8330 C   0  0  0  0  0  2  0  0  0  0  0  0
  161.2100  200.5130  149.8480 O   0  0  0  0  0  1  0  0  0  0  0  0
  160.4680  201.6680  150.1120 C   0  0  1  0  0  3  0  0  0  0  0  0
  162.1910  202.1750  151.6400 O   0  0  0  0  0  0  0  0  0  0  0  0
  161.1020  202.4990  151.1940 C   0  0  0  0  0  0  0  0  0  0  0  0
  161.1970  204.2800  152.7500 O   0  0  0  0  0  1  0  0  0  0  0  0
  160.4360  203.7330  151.7170 C   0  0  0  0  0  2  0  0  0  0  0  0
  1  6  2  0  0  0  0
  1  3  1  0  0  0  0
  2 10  3  0  0  0  0
  3  7  2  0  0  0  0
  4 34  1  6  0  0  0
  4  2  1  0  0  0  0
  4 11  1  0  0  0  0
  5 29  1  0  0  0  0
  6  9  1  0  0  0  0
  7  5  1  0  0  0  0
  8 12  1  0  0  0  0
  9 12  1  0  0  0  0
  9  5  2  0  0  0  0
 10  6  1  0  0  0  0
 11  8  1  0  0  0  0
 13  1  1  0  0  0  0
 14 16  1  0  0  0  0
 15 18  1  0  0  0  0
 16 19  1  0  0  0  0
 17 20  1  1  0  0  0
 17 14  1  0  0  0  0
 17 15  1  0  0  0  0
 18 13  1  0  0  0  0
 19 13  2  0  0  0  0
 21 23  1  0  0  0  0
 22 23  1  0  0  0  0
 23 20  1  1  0  0  0
 24 21  1  0  0  0  0
 25 22  1  0  0  0  0
 25 24  1  0  0  0  0
 26 30  1  0  0  0  0
 27 28  2  0  0  0  0
 28 30  1  0  0  0  0
 28 31  1  0  0  0  0
 29 27  1  0  0  0  0
 29 26  2  0  0  0  0
 32 31  1  0  0  0  0
 34 33  1  6  0  0  0
 34 35  1  0  0  0  0
 36 37  1  6  0  0  0
 36 35  1  0  0  0  0
 36 38  1  0  0  0  0
 38 39  1  0  0  0  0
 39 41  1  0  0  0  0
 41 40  1  6  0  0  0
 41 43  1  0  0  0  0
 43 42  2  0  0  0  0
 43 45  1  0  0  0  0
 45 44  1  0  0  0  0
M  END
>  <MODEL>
6

>  <REMARK>
 VINA RESULT:      -6.4      3.762      9.742
  Name = 
  13 active torsions:
  status: ('A' for Active; 'I' for Inactive)
    1  A    between atoms: C_1  and  C_14
    2  A    between atoms: C_4  and  C_21
    3  A    between atoms: C_4  and  N_33
    4  A    between atoms: C_8  and  C_28
    5  A    between atoms: C_8  and  C_45
    6  A    between atoms: C_9  and  C_18
    7  A    between atoms: C_12  and  C_38
    8  A    between atoms: C_13  and  C_26
    9  A    between atoms: C_17  and  C_34
   10  A    between atoms: C_17  and  C_35
   11  A    between atoms: C_21  and  C_38
   12  A    between atoms: C_28  and  C_41
   13  A    between atoms: N_33  and  C_41
                            x       y       z     vdW  Elec       q    Type
                         _______ _______ _______ _____ _____    ______ ____

>  <TORSDO>
F 13

$$$$
=
 OpenBabel11042421363D

 45 49  0  0  1  0  0  0  0  0999 V2000
  161.0230  207.7190  153.7300 C   0  0  0  0  0  0  0  0  0  0  0  0
  161.5570  209.7670  150.7190 C   0  0  0  0  0  0  0  0  0  0  0  0
  160.7580  206.4490  154.2450 C   0  0  0  0  0  3  0  0  0  0  0  0
  161.5790  210.0860  149.2990 C   0  0  2  0  0  3  0  0  0  0  0  0
  161.1820  205.3930  152.1450 C   0  0  0  0  0  0  0  0  0  0  0  0
  161.3760  207.8100  152.3670 C   0  0  0  0  0  0  0  0  0  0  0  0
  160.8390  205.3440  153.4610 N   0  0  0  0  0  0  0  0  0  0  0  0
  161.0700  207.5190  149.1340 C   0  0  0  0  0  2  0  0  0  0  0  0
  161.4680  206.6490  151.5530 C   0  0  0  0  0  0  0  0  0  0  0  0
  161.4940  209.0520  151.6710 C   0  0  0  0  0  0  0  0  0  0  0  0
  161.7920  208.7560  148.5300 C   0  0  0  0  0  2  0  0  0  0  0  0
  161.9840  206.7500  150.1140 C   0  0  0  0  0  2  0  0  0  0  0  0
  160.9130  208.8910  154.6400 C   0  0  0  0  0  0  0  0  0  0  0  0
  161.6050  211.4540  156.1600 C   0  0  0  0  0  2  0  0  0  0  0  0
  159.2630  210.6530  155.4580 C   0  0  0  0  0  2  0  0  0  0  0  0
  161.7600  210.0590  156.7500 C   0  0  0  0  0  2  0  0  0  0  0  0
  160.1290  211.8160  155.9490 C   0  0  1  0  0  3  0  0  0  0  0  0
  159.9120  209.9630  154.2670 C   0  0  0  0  0  2  0  0  0  0  0  0
  161.7420  208.9870  155.6980 C   0  0  0  0  0  3  0  0  0  0  0  0
  159.5210  212.5150  157.1670 C   0  0  0  0  0  2  0  0  0  0  0  0
  157.2740  213.5850  156.9520 C   0  0  0  0  0  2  0  0  0  0  0  0
  158.9590  214.1020  155.3670 C   0  0  0  0  0  2  0  0  0  0  0  0
  158.7670  213.7960  156.8210 C   0  0  2  0  0  3  0  0  0  0  0  0
  156.7280  213.4030  155.6730 O   0  0  0  0  0  0  0  0  0  0  0  0
  157.5550  214.1430  154.8160 C   0  0  0  0  0  2  0  0  0  0  0  0
  161.6700  202.9630  151.9740 N   0  0  0  0  0  0  0  0  0  0  0  0
  160.8220  203.8660  150.1060 C   0  0  0  0  0  3  0  0  0  0  0  0
  161.0590  202.5150  149.9590 C   0  0  0  0  0  0  0  0  0  0  0  0
  161.2280  204.1050  151.4100 C   0  0  1  0  0  3  0  0  0  0  0  0
  161.5730  201.9920  151.0840 N   0  0  0  0  0  0  0  0  0  0  0  0
  160.8320  201.7340  148.7120 C   0  0  0  0  0  2  0  0  0  0  0  0
  161.2070  202.5710  147.5030 C   0  0  0  0  0  1  0  0  0  0  0  0
  163.5800  211.2760  149.9920 O   0  0  0  0  0  1  0  0  0  0  0  0
  162.6750  211.0900  148.9400 C   0  0  2  0  0  3  0  0  0  0  0  0
  162.0970  212.4040  148.3880 C   0  0  0  0  0  2  0  0  0  0  0  0
  161.3530  212.3390  147.0450 C   0  0  1  0  0  3  0  0  0  0  0  0
  159.8620  212.5710  147.1980 C   0  0  0  0  0  1  0  0  0  0  0  0
  161.9140  213.2710  146.0770 N   0  0  0  0  0  2  0  0  0  0  0  0
  161.0670  213.2320  144.8930 C   0  0  0  0  0  2  0  0  0  0  0  0
  163.2530  212.9580  143.9460 O   0  0  0  0  0  1  0  0  0  0  0  0
  161.9150  213.2060  143.6260 C   0  0  1  0  0  3  0  0  0  0  0  0
  160.4690  211.4680  142.9570 O   0  0  0  0  0  0  0  0  0  0  0  0
  161.3880  212.2050  142.6350 C   0  0  0  0  0  0  0  0  0  0  0  0
  161.6500  210.8660  140.7010 O   0  0  0  0  0  1  0  0  0  0  0  0
  161.9480  212.1130  141.2500 C   0  0  0  0  0  2  0  0  0  0  0  0
  1  3  1  0  0  0  0
  1 13  1  0  0  0  0
  2 10  3  0  0  0  0
  4 34  1  1  0  0  0
  4  2  1  0  0  0  0
  5  7  1  0  0  0  0
  6  1  2  0  0  0  0
  7  3  2  0  0  0  0
  8 12  1  0  0  0  0
  9  5  2  0  0  0  0
  9  6  1  0  0  0  0
 10  6  1  0  0  0  0
 11  8  1  0  0  0  0
 11  4  1  0  0  0  0
 12  9  1  0  0  0  0
 13 19  2  0  0  0  0
 14 16  1  0  0  0  0
 15 17  1  0  0  0  0
 17 14  1  0  0  0  0
 17 20  1  1  0  0  0
 18 13  1  0  0  0  0
 18 15  1  0  0  0  0
 19 16  1  0  0  0  0
 22 23  1  0  0  0  0
 23 21  1  0  0  0  0
 23 20  1  6  0  0  0
 24 21  1  0  0  0  0
 25 22  1  0  0  0  0
 25 24  1  0  0  0  0
 27 29  1  0  0  0  0
 28 27  2  0  0  0  0
 28 30  1  0  0  0  0
 29 26  1  0  0  0  0
 29  5  1  1  0  0  0
 30 26  2  0  0  0  0
 31 28  1  0  0  0  0
 32 31  1  0  0  0  0
 34 33  1  1  0  0  0
 35 34  1  0  0  0  0
 36 37  1  1  0  0  0
 36 35  1  0  0  0  0
 38 36  1  0  0  0  0
 39 38  1  0  0  0  0
 41 40  1  1  0  0  0
 41 39  1  0  0  0  0
 43 42  2  0  0  0  0
 43 41  1  0  0  0  0
 44 45  1  0  0  0  0
 45 43  1  0  0  0  0
M  END
>  <MODEL>
7

>  <REMARK>
 VINA RESULT:      -6.2      2.641      4.067
  Name = 
  13 active torsions:
  status: ('A' for Active; 'I' for Inactive)
    1  A    between atoms: C_1  and  C_14
    2  A    between atoms: C_4  and  C_21
    3  A    between atoms: C_4  and  N_33
    4  A    between atoms: C_8  and  C_28
    5  A    between atoms: C_8  and  C_45
    6  A    between atoms: C_9  and  C_18
    7  A    between atoms: C_12  and  C_38
    8  A    between atoms: C_13  and  C_26
    9  A    between atoms: C_17  and  C_34
   10  A    between atoms: C_17  and  C_35
   11  A    between atoms: C_21  and  C_38
   12  A    between atoms: C_28  and  C_41
   13  A    between atoms: N_33  and  C_41
                            x       y       z     vdW  Elec       q    Type
                         _______ _______ _______ _____ _____    ______ ____

>  <TORSDO>
F 13

$$$$
=
 OpenBabel11042421363D

 45 49  0  0  1  0  0  0  0  0999 V2000
  161.2160  206.6730  150.4780 C   0  0  0  0  0  0  0  0  0  0  0  0
  161.7550  209.9620  148.9170 C   0  0  0  0  0  0  0  0  0  0  0  0
  161.1130  205.9480  151.6680 C   0  0  0  0  0  3  0  0  0  0  0  0
  162.1060  211.3730  148.8470 C   0  0  2  0  0  3  0  0  0  0  0  0
  160.9620  207.9340  152.9870 C   0  0  0  0  0  0  0  0  0  0  0  0
  161.1930  208.0810  150.5670 C   0  0  0  0  0  0  0  0  0  0  0  0
  160.9940  206.5790  152.8630 N   0  0  0  0  0  0  0  0  0  0  0  0
  162.1340  211.0750  151.4510 C   0  0  0  0  0  2  0  0  0  0  0  0
  161.0590  208.7350  151.8220 C   0  0  0  0  0  0  0  0  0  0  0  0
  161.4700  208.9390  149.4600 C   0  0  0  0  0  0  0  0  0  0  0  0
  161.8130  211.9920  150.2380 C   0  0  0  0  0  2  0  0  0  0  0  0
  160.8980  210.2580  151.8890 C   0  0  0  0  0  2  0  0  0  0  0  0
  161.3490  205.9230  149.2000 C   0  0  0  0  0  0  0  0  0  0  0  0
  162.4780  204.8870  146.5530 C   0  0  0  0  0  2  0  0  0  0  0  0
  160.8760  203.6520  148.1440 C   0  0  0  0  0  2  0  0  0  0  0  0
  161.4800  206.0320  146.6500 C   0  0  0  0  0  2  0  0  0  0  0  0
  161.8450  203.5500  146.9620 C   0  0  1  0  0  3  0  0  0  0  0  0
  161.5090  204.4210  149.2950 C   0  0  0  0  0  2  0  0  0  0  0  0
  161.3930  206.6020  148.0370 C   0  0  0  0  0  3  0  0  0  0  0  0
  161.2310  202.8080  145.7740 C   0  0  0  0  0  2  0  0  0  0  0  0
  161.1630  200.6540  147.0360 C   0  0  0  0  0  2  0  0  0  0  0  0
  160.0340  200.8150  144.9570 C   0  0  0  0  0  2  0  0  0  0  0  0
  160.3690  201.6160  146.1780 C   0  0  2  0  0  3  0  0  0  0  0  0
  161.5700  199.5710  146.2430 O   0  0  0  0  0  0  0  0  0  0  0  0
  160.5720  199.4390  145.2670 C   0  0  0  0  0  2  0  0  0  0  0  0
  161.5970  208.0660  155.3850 N   0  0  0  0  0  0  0  0  0  0  0  0
  159.9670  209.4820  154.7840 C   0  0  0  0  0  3  0  0  0  0  0  0
  160.2870  209.6080  156.1200 C   0  0  0  0  0  0  0  0  0  0  0  0
  160.8300  208.4840  154.3590 C   0  0  0  0  0  0  0  0  0  0  0  0
  161.2600  208.7490  156.4650 N   0  0  0  0  0  2  0  0  0  0  0  0
  159.6210  210.5310  157.0790 C   0  0  0  0  0  2  0  0  0  0  0  0
  160.4530  211.7880  157.2500 C   0  0  0  0  0  1  0  0  0  0  0  0
  160.4130  211.2820  147.1070 O   0  0  0  0  0  1  0  0  0  0  0  0
  161.3270  212.1160  147.7600 C   0  0  2  0  0  3  0  0  0  0  0  0
  162.2590  212.8770  146.8000 C   0  0  0  0  0  2  0  0  0  0  0  0
  161.7110  213.2160  145.4050 C   0  0  1  0  0  3  0  0  0  0  0  0
  160.7970  214.4270  145.4230 C   0  0  0  0  0  1  0  0  0  0  0  0
  162.7840  213.4070  144.4400 N   0  0  0  0  0  2  0  0  0  0  0  0
  162.1680  213.6120  143.1370 C   0  0  0  0  0  2  0  0  0  0  0  0
  160.7700  211.7670  142.5090 O   0  0  0  0  0  1  0  0  0  0  0  0
  162.0590  212.2930  142.3800 C   0  0  1  0  0  3  0  0  0  0  0  0
  163.3150  213.2620  140.6360 O   0  0  0  0  0  0  0  0  0  0  0  0
  162.4490  212.4560  140.9360 C   0  0  0  0  0  0  0  0  0  0  0  0
  161.6110  212.4090  138.7230 O   0  0  0  0  0  1  0  0  0  0  0  0
  161.8150  211.6300  139.8620 C   0  0  0  0  0  2  0  0  0  0  0  0
  1  6  2  0  0  0  0
  1  3  1  0  0  0  0
  2 10  3  0  0  0  0
  3  7  2  0  0  0  0
  4 34  1  6  0  0  0
  4  2  1  0  0  0  0
  4 11  1  0  0  0  0
  5 29  1  0  0  0  0
  6  9  1  0  0  0  0
  7  5  1  0  0  0  0
  8 12  1  0  0  0  0
  9 12  1  0  0  0  0
  9  5  2  0  0  0  0
 10  6  1  0  0  0  0
 11  8  1  0  0  0  0
 13 18  1  0  0  0  0
 13  1  1  0  0  0  0
 14 16  1  0  0  0  0
 14 17  1  0  0  0  0
 15 18  1  0  0  0  0
 16 19  1  0  0  0  0
 17 20  1  6  0  0  0
 17 15  1  0  0  0  0
 19 13  2  0  0  0  0
 22 25  1  0  0  0  0
 22 23  1  0  0  0  0
 23 20  1  6  0  0  0
 23 21  1  0  0  0  0
 24 21  1  0  0  0  0
 25 24  1  0  0  0  0
 26 30  1  0  0  0  0
 27 28  2  0  0  0  0
 28 30  1  0  0  0  0
 28 31  1  0  0  0  0
 29 27  1  0  0  0  0
 29 26  2  0  0  0  0
 31 32  1  0  0  0  0
 34 33  1  6  0  0  0
 35 34  1  0  0  0  0
 36 37  1  1  0  0  0
 36 35  1  0  0  0  0
 38 36  1  0  0  0  0
 39 38  1  0  0  0  0
 41 40  1  6  0  0  0
 41 39  1  0  0  0  0
 42 43  2  0  0  0  0
 43 41  1  0  0  0  0
 44 45  1  0  0  0  0
 45 43  1  0  0  0  0
M  END
>  <MODEL>
8

>  <REMARK>
 VINA RESULT:      -5.9      3.960      9.249
  Name = 
  13 active torsions:
  status: ('A' for Active; 'I' for Inactive)
    1  A    between atoms: C_1  and  C_14
    2  A    between atoms: C_4  and  C_21
    3  A    between atoms: C_4  and  N_33
    4  A    between atoms: C_8  and  C_28
    5  A    between atoms: C_8  and  C_45
    6  A    between atoms: C_9  and  C_18
    7  A    between atoms: C_12  and  C_38
    8  A    between atoms: C_13  and  C_26
    9  A    between atoms: C_17  and  C_34
   10  A    between atoms: C_17  and  C_35
   11  A    between atoms: C_21  and  C_38
   12  A    between atoms: C_28  and  C_41
   13  A    between atoms: N_33  and  C_41
                            x       y       z     vdW  Elec       q    Type
                         _______ _______ _______ _____ _____    ______ ____

>  <TORSDO>
F 13

$$$$
=
 OpenBabel11042421363D

 45 49  0  0  1  0  0  0  0  0999 V2000
  160.2450  213.3600  150.4760 C   0  0  0  0  0  0  0  0  0  0  0  0
  161.1540  209.8090  150.8060 C   0  0  0  0  0  0  0  0  0  0  0  0
  159.5780  214.4510  151.0370 C   0  0  0  0  0  3  0  0  0  0  0  0
  161.1240  208.4600  151.3550 C   0  0  2  0  0  3  0  0  0  0  0  0
  159.3090  213.3400  153.1350 C   0  0  0  0  0  0  0  0  0  0  0  0
  160.4380  212.2230  151.2900 C   0  0  0  0  0  0  0  0  0  0  0  0
  159.1350  214.4160  152.3190 N   0  0  0  0  0  0  0  0  0  0  0  0
  159.6560  209.6690  153.1600 C   0  0  0  0  0  2  0  0  0  0  0  0
  159.9790  212.1960  152.6350 C   0  0  0  0  0  0  0  0  0  0  0  0
  160.9380  210.9810  150.7930 C   0  0  0  0  0  0  0  0  0  0  0  0
  160.7170  208.5780  152.8470 C   0  0  0  0  0  2  0  0  0  0  0  0
  160.3170  211.0110  153.5460 C   0  0  0  0  0  2  0  0  0  0  0  0
  160.7030  213.4580  149.0640 C   0  0  0  0  0  0  0  0  0  0  0  0
  162.1320  212.8370  146.4320 C   0  0  0  0  0  2  0  0  0  0  0  0
  159.8910  214.0660  146.7260 C   0  0  0  0  0  2  0  0  0  0  0  0
  162.6590  213.8270  147.4610 C   0  0  0  0  0  2  0  0  0  0  0  0
  160.8430  213.3430  145.7700 C   0  0  1  0  0  3  0  0  0  0  0  0
  159.6630  213.2430  147.9850 C   0  0  0  0  0  2  0  0  0  0  0  0
  162.0100  213.6570  148.8050 C   0  0  0  0  0  3  0  0  0  0  0  0
  161.1200  214.1560  144.5030 C   0  0  0  0  0  2  0  0  0  0  0  0
  159.4530  212.5100  143.6360 C   0  0  0  0  0  2  0  0  0  0  0  0
  161.0890  213.3900  142.1620 C   0  0  0  0  0  2  0  0  0  0  0  0
  160.2280  213.7740  143.3260 C   0  0  2  0  0  3  0  0  0  0  0  0
  160.0740  211.4300  142.9910 O   0  0  0  0  0  0  0  0  0  0  0  0
  160.6580  211.9790  141.8410 C   0  0  0  0  0  2  0  0  0  0  0  0
  159.5460  213.7250  155.5780 N   0  0  0  0  0  0  0  0  0  0  0  0
  157.4480  213.3050  154.9110 C   0  0  0  0  0  3  0  0  0  0  0  0
  157.5180  213.5240  156.2710 C   0  0  0  0  0  0  0  0  0  0  0  0
  158.7690  213.4440  154.5130 C   0  0  0  0  0  0  0  0  0  0  0  0
  158.7820  213.7670  156.6550 N   0  0  0  0  0  2  0  0  0  0  0  0
  156.3670  213.4530  157.2120 C   0  0  0  0  0  2  0  0  0  0  0  0
  155.3540  212.4390  156.7150 C   0  0  0  0  0  1  0  0  0  0  0  0
  162.9260  207.7240  149.9020 O   0  0  0  0  0  1  0  0  0  0  0  0
  162.4690  207.7450  151.2250 C   0  0  2  0  0  3  0  0  0  0  0  0
  162.4520  206.3580  151.8910 C   0  0  0  0  0  2  0  0  0  0  0  0
  161.9510  205.1750  151.0460 C   0  0  1  0  0  3  0  0  0  0  0  0
  161.3790  204.0580  151.8990 C   0  0  0  0  0  1  0  0  0  0  0  0
  160.9770  205.6020  150.0520 N   0  0  0  0  0  2  0  0  0  0  0  0
  161.0690  204.6820  148.9280 C   0  0  0  0  0  2  0  0  0  0  0  0
  161.0760  206.7700  147.7480 O   0  0  0  0  0  1  0  0  0  0  0  0
  160.7940  205.4070  147.6150 C   0  0  1  0  0  3  0  0  0  0  0  0
  161.7070  203.5790  146.4380 O   0  0  0  0  0  0  0  0  0  0  0  0
  161.5620  204.7910  146.4780 C   0  0  0  0  0  0  0  0  0  0  0  0
  161.2230  205.7050  144.3210 O   0  0  0  0  0  1  0  0  0  0  0  0
  162.1300  205.6320  145.3780 C   0  0  0  0  0  2  0  0  0  0  0  0
  1  3  2  0  0  0  0
  1  6  1  0  0  0  0
  2  4  1  0  0  0  0
  3  7  1  0  0  0  0
  4 34  1  1  0  0  0
  4 11  1  0  0  0  0
  5 29  1  0  0  0  0
  6  9  2  0  0  0  0
  7  5  2  0  0  0  0
  8 12  1  0  0  0  0
  9  5  1  0  0  0  0
  9 12  1  0  0  0  0
 10  2  3  0  0  0  0
 10  6  1  0  0  0  0
 11  8  1  0  0  0  0
 13  1  1  0  0  0  0
 14 16  1  0  0  0  0
 15 18  1  0  0  0  0
 16 19  1  0  0  0  0
 17 20  1  6  0  0  0
 17 14  1  0  0  0  0
 17 15  1  0  0  0  0
 18 13  1  0  0  0  0
 19 13  2  0  0  0  0
 22 23  1  0  0  0  0
 23 21  1  0  0  0  0
 23 20  1  1  0  0  0
 24 21  1  0  0  0  0
 25 22  1  0  0  0  0
 25 24  1  0  0  0  0
 26 30  1  0  0  0  0
 27 28  2  0  0  0  0
 28 30  1  0  0  0  0
 28 31  1  0  0  0  0
 29 27  1  0  0  0  0
 29 26  2  0  0  0  0
 32 31  1  0  0  0  0
 34 33  1  6  0  0  0
 34 35  1  0  0  0  0
 36 35  1  0  0  0  0
 36 37  1  1  0  0  0
 38 36  1  0  0  0  0
 39 38  1  0  0  0  0
 41 40  1  1  0  0  0
 41 39  1  0  0  0  0
 42 43  2  0  0  0  0
 43 41  1  0  0  0  0
 44 45  1  0  0  0  0
 45 43  1  0  0  0  0
M  END
>  <MODEL>
9

>  <REMARK>
 VINA RESULT:      -5.8      3.539     10.401
  Name = 
  13 active torsions:
  status: ('A' for Active; 'I' for Inactive)
    1  A    between atoms: C_1  and  C_14
    2  A    between atoms: C_4  and  C_21
    3  A    between atoms: C_4  and  N_33
    4  A    between atoms: C_8  and  C_28
    5  A    between atoms: C_8  and  C_45
    6  A    between atoms: C_9  and  C_18
    7  A    between atoms: C_12  and  C_38
    8  A    between atoms: C_13  and  C_26
    9  A    between atoms: C_17  and  C_34
   10  A    between atoms: C_17  and  C_35
   11  A    between atoms: C_21  and  C_38
   12  A    between atoms: C_28  and  C_41
   13  A    between atoms: N_33  and  C_41
                            x       y       z     vdW  Elec       q    Type
                         _______ _______ _______ _____ _____    ______ ____

>  <TORSDO>
F 13

$$$$
