=
 OpenBabel11042422193D

 52 60  0  0  1  0  0  0  0  0999 V2000
  161.5650  209.7350  150.1320 C   0  0  0  0  0  0  0  0  0  0  0  0
  159.9140  211.6440  152.8410 O   0  0  0  0  0  0  0  0  0  0  0  0
  160.8960  210.0170  151.3540 C   0  0  0  0  0  0  0  0  0  0  0  0
  162.2720  208.4490  149.9440 C   0  0  0  0  0  0  0  0  0  0  0  0
  160.7350  212.8510  148.1970 C   0  0  0  0  0  0  0  0  0  0  0  0
  159.7490  214.4530  149.7340 C   0  0  0  0  0  3  0  0  0  0  0  0
  159.3170  213.9650  152.1160 C   0  0  0  0  0  3  0  0  0  0  0  0
  160.8910  209.0700  152.5360 C   0  0  0  0  0  2  0  0  0  0  0  0
  159.5550  212.9470  153.1770 C   0  0  0  0  0  0  0  0  0  0  0  0
  159.4150  213.2920  154.4170 N   0  0  0  0  0  2  0  0  0  0  0  0
  162.7510  206.3920  150.2000 C   0  0  0  0  0  0  0  0  0  0  0  0
  161.5200  210.6670  149.0770 C   0  0  0  0  0  0  0  0  0  0  0  0
  160.3420  207.7410  152.2550 N   0  0  0  0  0  2  0  0  0  0  0  0
  160.8870  211.9220  149.2550 C   0  0  0  0  0  0  0  0  0  0  0  0
  162.1040  210.3340  147.8570 O   0  0  0  0  0  1  0  0  0  0  0  0
  160.3870  212.2560  150.5420 C   0  0  0  0  0  0  0  0  0  0  0  0
  160.1750  214.1060  148.4590 C   0  0  0  0  0  3  0  0  0  0  0  0
  159.8580  213.5410  150.7810 C   0  0  0  0  0  0  0  0  0  0  0  0
  163.8100  206.8420  149.5020 N   0  0  0  0  0  0  0  0  0  0  0  0
  162.6120  205.2720  150.9340 N   0  0  0  0  0  0  0  0  0  0  0  0
  161.8600  207.3040  150.4480 N   0  0  0  0  0  0  0  0  0  0  0  0
  161.0320  206.8600  151.3710 C   0  0  1  0  0  3  0  0  0  0  0  0
  160.3880  211.3040  151.5720 C   0  0  0  0  0  0  0  0  0  0  0  0
  161.4870  205.5690  151.6620 C   0  0  0  0  0  0  0  0  0  0  0  0
  163.4930  208.1660  149.3140 C   0  0  0  0  0  3  0  0  0  0  0  0
  161.4070  211.3420  156.6070 C   0  0  2  0  0  3  0  0  0  0  0  0
  160.3710  210.3880  157.2590 C   0  0  0  0  0  2  0  0  0  0  0  0
  159.7190  212.3860  155.5200 C   0  0  2  0  0  3  0  0  0  0  0  0
  160.9920  211.8140  155.3350 O   0  0  0  0  0  0  0  0  0  0  0  0
  158.6750  211.2640  155.5870 C   0  0  0  0  0  2  0  0  0  0  0  0
  159.2460  210.0200  156.2870 C   0  0  0  0  0  2  0  0  0  0  0  0
  163.8510  211.5960  157.1630 C   0  0  0  0  0  1  0  0  0  0  0  0
  162.8320  209.3350  157.1630 C   0  0  0  0  0  1  0  0  0  0  0  0
  163.1840  210.5530  155.0420 C   0  0  0  0  0  1  0  0  0  0  0  0
  162.8070  210.7070  156.5020 C   0  0  0  0  0  0  0  0  0  0  0  0
  160.3030  212.9280  145.6890 C   0  0  0  0  0  0  0  0  0  0  0  0
  160.6060  212.3690  144.4090 N   0  0  0  0  0  2  0  0  0  0  0  0
  161.0310  212.4800  146.8410 N   0  0  0  0  0  2  0  0  0  0  0  0
  159.3710  213.7720  145.7980 O   0  0  0  0  0  0  0  0  0  0  0  0
  159.7980  212.6750  143.2380 C   0  0  0  0  0  2  0  0  0  0  0  0
  160.6340  213.3180  142.1160 C   0  0  1  0  0  3  0  0  0  0  0  0
  162.2760  214.0440  139.9100 C   0  0  0  0  0  2  0  0  0  0  0  0
  162.9180  214.0080  141.3010 C   0  0  0  0  0  2  0  0  0  0  0  0
  162.1470  213.1280  142.2920 C   0  0  0  0  0  2  0  0  0  0  0  0
  161.2240  212.9490  139.7500 C   0  0  0  0  0  2  0  0  0  0  0  0
  160.1320  213.1370  140.7180 N   0  0  1  0  0  0  0  0  0  0  0  0
  159.2160  212.0020  140.5720 C   0  0  0  0  0  3  0  0  0  0  0  0
  158.1500  212.3440  139.5430 C   0  0  0  0  0  2  0  0  0  0  0  0
  159.2960  211.4410  139.1630 C   0  0  0  0  0  2  0  0  0  0  0  0
  160.9370  204.6770  152.6890 C   0  0  0  0  0  0  0  0  0  0  0  0
  160.4330  203.3950  152.3320 N   0  0  0  0  0  1  0  0  0  0  0  0
  160.8610  205.0640  153.8800 O   0  0  0  0  0  0  0  0  0  0  0  0
  1  3  1  0  0  0  0
  2  9  1  0  0  0  0
  3 23  2  0  0  0  0
  3  8  1  0  0  0  0
  4  1  1  0  0  0  0
  4 21  1  0  0  0  0
  5 17  2  0  0  0  0
  5 14  1  0  0  0  0
  6 18  2  0  0  0  0
  7  9  2  0  0  0  0
  9 10  1  0  0  0  0
 11 21  1  0  0  0  0
 11 20  1  0  0  0  0
 12 14  1  0  0  0  0
 12  1  2  0  0  0  0
 13  8  1  0  0  0  0
 14 16  2  0  0  0  0
 15 12  1  0  0  0  0
 16 18  1  0  0  0  0
 16 23  1  0  0  0  0
 17  6  1  0  0  0  0
 18  7  1  0  0  0  0
 19 11  2  0  0  0  0
 20 24  2  0  0  0  0
 21 22  1  0  0  0  0
 22 24  1  1  0  0  0
 22 13  1  0  0  0  0
 23  2  1  0  0  0  0
 24 50  1  0  0  0  0
 25 19  1  0  0  0  0
 25  4  2  0  0  0  0
 26 35  1  6  0  0  0
 26 27  1  0  0  0  0
 28 10  1  6  0  0  0
 28 30  1  0  0  0  0
 29 28  1  0  0  0  0
 29 26  1  0  0  0  0
 30 31  1  0  0  0  0
 31 27  1  0  0  0  0
 34 35  1  0  0  0  0
 35 33  1  0  0  0  0
 35 32  1  0  0  0  0
 36 39  2  0  0  0  0
 36 38  1  0  0  0  0
 37 36  1  0  0  0  0
 38  5  1  0  0  0  0
 40 37  1  0  0  0  0
 41 44  1  0  0  0  0
 41 40  1  1  0  0  0
 42 43  1  0  0  0  0
 43 44  1  0  0  0  0
 45 42  1  0  0  0  0
 45 46  1  0  0  0  0
 46 47  1  1  0  0  0
 46 41  1  0  0  0  0
 48 47  1  0  0  0  0
 49 48  1  0  0  0  0
 49 47  1  0  0  0  0
 50 52  2  0  0  0  0
 51 50  1  0  0  0  0
M  END
>  <MODEL>
1

>  <REMARK>
 VINA RESULT:      -0.3      0.000      0.000
  Name = 
  7 active torsions:
  status: ('A' for Active; 'I' for Inactive)
    1  A    between atoms: C_5  and  C_29
    2  A    between atoms: C_6  and  N_45
    3  A    between atoms: C_9  and  C_28
    4  A    between atoms: N_10  and  C_28
    5  A    between atoms: C_12  and  N_23
    6  A    between atoms: C_13  and  C_51
    7  A    between atoms: C_14  and  N_24
                            x       y       z     vdW  Elec       q    Type
                         _______ _______ _______ _____ _____    ______ ____

>  <TORSDO>
F 7

$$$$
=
 OpenBabel11042422193D

 52 60  0  0  1  0  0  0  0  0999 V2000
  161.4930  208.5280  148.8660 C   0  0  0  0  0  0  0  0  0  0  0  0
  161.1270  210.1280  152.1850 O   0  0  0  0  0  0  0  0  0  0  0  0
  161.2920  208.6760  150.2650 C   0  0  0  0  0  0  0  0  0  0  0  0
  161.8570  207.2120  148.2960 C   0  0  0  0  0  0  0  0  0  0  0  0
  160.7110  212.0220  147.7200 C   0  0  0  0  0  0  0  0  0  0  0  0
  160.5530  213.4430  149.6840 C   0  0  0  0  0  3  0  0  0  0  0  0
  160.7810  212.6010  151.9940 C   0  0  0  0  0  3  0  0  0  0  0  0
  161.4690  207.5420  151.2540 C   0  0  0  0  0  2  0  0  0  0  0  0
  161.1360  211.3870  152.7810 C   0  0  0  0  0  0  0  0  0  0  0  0
  161.4450  211.5210  154.0310 N   0  0  0  0  0  2  0  0  0  0  0  0
  162.0000  205.0970  148.1190 C   0  0  0  0  0  0  0  0  0  0  0  0
  161.3050  209.6310  148.0100 C   0  0  0  0  0  0  0  0  0  0  0  0
  160.6230  206.3720  151.0040 N   0  0  0  0  0  2  0  0  0  0  0  0
  161.0010  210.9070  148.5430 C   0  0  0  0  0  0  0  0  0  0  0  0
  161.4190  209.4440  146.6350 O   0  0  0  0  0  1  0  0  0  0  0  0
  160.9860  211.0720  149.9540 C   0  0  0  0  0  0  0  0  0  0  0  0
  160.5000  213.2760  148.3060 C   0  0  0  0  0  3  0  0  0  0  0  0
  160.8030  212.3530  150.5130 C   0  0  0  0  0  0  0  0  0  0  0  0
  162.8620  205.5160  147.1740 N   0  0  0  0  0  0  0  0  0  0  0  0
  161.8850  203.8930  148.7120 N   0  0  0  0  0  0  0  0  0  0  0  0
  161.4130  206.0620  148.7600 N   0  0  0  0  0  0  0  0  0  0  0  0
  160.8360  205.5780  149.8400 C   0  0  1  0  0  3  0  0  0  0  0  0
  161.1220  209.9590  150.7980 C   0  0  0  0  0  0  0  0  0  0  0  0
  161.1100  204.2050  149.8000 C   0  0  0  0  0  0  0  0  0  0  0  0
  162.7550  206.8830  147.2690 C   0  0  0  0  0  3  0  0  0  0  0  0
  161.3680  208.3000  155.5120 C   0  0  2  0  0  3  0  0  0  0  0  0
  162.4030  208.4240  156.6610 C   0  0  0  0  0  2  0  0  0  0  0  0
  161.8950  210.3990  154.8500 C   0  0  2  0  0  3  0  0  0  0  0  0
  160.8100  209.5510  155.1410 O   0  0  0  0  0  0  0  0  0  0  0  0
  162.4930  210.9120  156.1670 C   0  0  0  0  0  2  0  0  0  0  0  0
  162.4220  209.8340  157.2610 C   0  0  0  0  0  2  0  0  0  0  0  0
  158.8890  207.9890  155.8320 C   0  0  0  0  0  1  0  0  0  0  0  0
  160.2260  206.1580  154.8270 C   0  0  0  0  0  1  0  0  0  0  0  0
  160.4680  206.7200  157.2200 C   0  0  0  0  0  1  0  0  0  0  0  0
  160.2440  207.2970  155.8370 C   0  0  0  0  0  0  0  0  0  0  0  0
  160.8010  212.8580  145.3160 C   0  0  0  0  0  0  0  0  0  0  0  0
  160.4140  212.6310  143.9590 N   0  0  0  0  0  2  0  0  0  0  0  0
  160.5070  211.8640  146.3060 N   0  0  0  0  0  2  0  0  0  0  0  0
  161.3540  213.9470  145.6350 O   0  0  0  0  0  0  0  0  0  0  0  0
  160.5510  213.6690  142.9480 C   0  0  0  0  0  2  0  0  0  0  0  0
  161.0300  213.0980  141.6010 C   0  0  1  0  0  3  0  0  0  0  0  0
  161.5980  211.6780  139.2020 C   0  0  0  0  0  2  0  0  0  0  0  0
  162.5250  211.4590  140.4030 C   0  0  0  0  0  2  0  0  0  0  0  0
  161.8670  211.8190  141.7400 C   0  0  0  0  0  2  0  0  0  0  0  0
  160.1500  211.8820  139.6440 C   0  0  0  0  0  2  0  0  0  0  0  0
  160.0320  213.0830  140.4860 N   0  0  1  0  0  0  0  0  0  0  0  0
  158.6430  213.1590  140.9480 C   0  0  0  0  0  3  0  0  0  0  0  0
  157.8540  214.0760  140.0270 C   0  0  0  0  0  2  0  0  0  0  0  0
  157.7080  212.5790  139.9010 C   0  0  0  0  0  2  0  0  0  0  0  0
  160.7410  203.2270  150.8300 C   0  0  0  0  0  0  0  0  0  0  0  0
  160.4840  201.8740  150.4760 N   0  0  0  0  0  1  0  0  0  0  0  0
  160.5990  203.5950  152.0210 O   0  0  0  0  0  0  0  0  0  0  0  0
  1  3  1  0  0  0  0
  2  9  1  0  0  0  0
  3 23  2  0  0  0  0
  3  8  1  0  0  0  0
  4 21  1  0  0  0  0
  4  1  1  0  0  0  0
  5 17  2  0  0  0  0
  5 14  1  0  0  0  0
  6 18  2  0  0  0  0
  7  9  2  0  0  0  0
  9 10  1  0  0  0  0
 11 20  1  0  0  0  0
 11 21  1  0  0  0  0
 12 14  1  0  0  0  0
 12  1  2  0  0  0  0
 13  8  1  0  0  0  0
 14 16  2  0  0  0  0
 15 12  1  0  0  0  0
 16 18  1  0  0  0  0
 16 23  1  0  0  0  0
 17  6  1  0  0  0  0
 18  7  1  0  0  0  0
 19 25  1  0  0  0  0
 19 11  2  0  0  0  0
 20 24  2  0  0  0  0
 21 22  1  0  0  0  0
 22 24  1  1  0  0  0
 22 13  1  0  0  0  0
 23  2  1  0  0  0  0
 24 50  1  0  0  0  0
 25  4  2  0  0  0  0
 26 35  1  1  0  0  0
 26 27  1  0  0  0  0
 27 31  1  0  0  0  0
 28 10  1  6  0  0  0
 28 29  1  0  0  0  0
 28 30  1  0  0  0  0
 29 26  1  0  0  0  0
 30 31  1  0  0  0  0
 32 35  1  0  0  0  0
 33 35  1  0  0  0  0
 35 34  1  0  0  0  0
 36 39  2  0  0  0  0
 36 38  1  0  0  0  0
 37 36  1  0  0  0  0
 38  5  1  0  0  0  0
 40 37  1  0  0  0  0
 41 44  1  0  0  0  0
 41 40  1  1  0  0  0
 42 45  1  0  0  0  0
 42 43  1  0  0  0  0
 43 44  1  0  0  0  0
 45 46  1  0  0  0  0
 46 47  1  1  0  0  0
 46 41  1  0  0  0  0
 48 47  1  0  0  0  0
 49 48  1  0  0  0  0
 49 47  1  0  0  0  0
 50 52  2  0  0  0  0
 51 50  1  0  0  0  0
M  END
>  <MODEL>
2

>  <REMARK>
 VINA RESULT:       0.5      1.784      2.474
  Name = 
  7 active torsions:
  status: ('A' for Active; 'I' for Inactive)
    1  A    between atoms: C_5  and  C_29
    2  A    between atoms: C_6  and  N_45
    3  A    between atoms: C_9  and  C_28
    4  A    between atoms: N_10  and  C_28
    5  A    between atoms: C_12  and  N_23
    6  A    between atoms: C_13  and  C_51
    7  A    between atoms: C_14  and  N_24
                            x       y       z     vdW  Elec       q    Type
                         _______ _______ _______ _____ _____    ______ ____

>  <TORSDO>
F 7

$$$$
=
 OpenBabel11042422193D

 52 60  0  0  1  0  0  0  0  0999 V2000
  161.8310  210.3490  149.8710 C   0  0  0  0  0  0  0  0  0  0  0  0
  161.0020  206.7940  149.2510 O   0  0  0  0  0  0  0  0  0  0  0  0
  161.3880  209.1750  149.2030 C   0  0  0  0  0  0  0  0  0  0  0  0
  162.1760  211.5650  149.1020 C   0  0  0  0  0  0  0  0  0  0  0  0
  161.5880  209.1990  153.4430 C   0  0  0  0  0  0  0  0  0  0  0  0
  161.1970  206.8010  153.4390 C   0  0  0  0  0  3  0  0  0  0  0  0
  160.9180  205.4720  151.3770 C   0  0  0  0  0  3  0  0  0  0  0  0
  161.2780  209.0690  147.6960 C   0  0  0  0  0  2  0  0  0  0  0  0
  161.0120  205.5570  149.8920 C   0  0  0  0  0  0  0  0  0  0  0  0
  161.0950  204.4620  149.2070 N   0  0  0  0  0  2  0  0  0  0  0  0
  162.1600  212.9770  147.5120 C   0  0  0  0  0  0  0  0  0  0  0  0
  161.9030  210.3690  151.2780 C   0  0  0  0  0  0  0  0  0  0  0  0
  160.3920  210.0570  147.0740 N   0  0  0  0  0  2  0  0  0  0  0  0
  161.6200  209.2010  152.0270 C   0  0  0  0  0  0  0  0  0  0  0  0
  162.2520  211.5560  151.9180 O   0  0  0  0  0  1  0  0  0  0  0  0
  161.3600  207.9910  151.3310 C   0  0  0  0  0  0  0  0  0  0  0  0
  161.3850  207.9940  154.1250 C   0  0  0  0  0  3  0  0  0  0  0  0
  161.1920  206.7880  152.0460 C   0  0  0  0  0  0  0  0  0  0  0  0
  163.2160  213.3860  148.2400 N   0  0  0  0  0  0  0  0  0  0  0  0
  161.8310  213.2530  146.2350 N   0  0  0  0  0  0  0  0  0  0  0  0
  161.5540  211.9400  148.0040 N   0  0  0  0  0  0  0  0  0  0  0  0
  160.7460  211.4380  147.0930 C   0  0  1  0  0  3  0  0  0  0  0  0
  161.2380  207.9900  149.9330 C   0  0  0  0  0  0  0  0  0  0  0  0
  160.8990  212.2790  145.9840 C   0  0  0  0  0  0  0  0  0  0  0  0
  163.2150  212.4890  149.2820 C   0  0  0  0  0  3  0  0  0  0  0  0
  160.5750  203.5040  145.8340 C   0  0  2  0  0  3  0  0  0  0  0  0
  161.8420  204.0480  145.1210 C   0  0  0  0  0  2  0  0  0  0  0  0
  161.2850  204.4570  147.7600 C   0  0  2  0  0  3  0  0  0  0  0  0
  160.7870  203.2580  147.2150 O   0  0  0  0  0  0  0  0  0  0  0  0
  162.7760  204.5750  147.4210 C   0  0  0  0  0  2  0  0  0  0  0  0
  163.0740  203.9930  146.0300 C   0  0  0  0  0  2  0  0  0  0  0  0
  159.6330  202.5330  143.7090 C   0  0  0  0  0  1  0  0  0  0  0  0
  161.0330  201.1100  145.1810 C   0  0  0  0  0  1  0  0  0  0  0  0
  158.7630  201.7880  145.8810 C   0  0  0  0  0  1  0  0  0  0  0  0
  160.0130  202.2410  145.1530 C   0  0  0  0  0  0  0  0  0  0  0  0
  160.5900  210.9160  155.0380 C   0  0  0  0  0  0  0  0  0  0  0  0
  160.7000  212.2230  155.6020 N   0  0  0  0  0  2  0  0  0  0  0  0
  161.6350  210.4280  154.1850 N   0  0  0  0  0  2  0  0  0  0  0  0
  159.5570  210.2240  155.2570 O   0  0  0  0  0  0  0  0  0  0  0  0
  159.6020  212.8220  156.3470 C   0  0  0  0  0  2  0  0  0  0  0  0
  158.5770  213.4950  155.4170 C   0  0  1  0  0  3  0  0  0  0  0  0
  156.6120  214.2860  153.5190 C   0  0  0  0  0  2  0  0  0  0  0  0
  158.0870  214.4440  153.1330 C   0  0  0  0  0  2  0  0  0  0  0  0
  159.0180  213.5380  153.9470 C   0  0  0  0  0  2  0  0  0  0  0  0
  156.3880  213.0420  154.3760 C   0  0  0  0  0  2  0  0  0  0  0  0
  157.1390  213.1420  155.6360 N   0  0  1  0  0  0  0  0  0  0  0  0
  156.9540  211.8800  156.3580 C   0  0  0  0  0  3  0  0  0  0  0  0
  155.7360  211.9880  157.2610 C   0  0  0  0  0  2  0  0  0  0  0  0
  155.6400  211.2330  155.9580 C   0  0  0  0  0  2  0  0  0  0  0  0
  160.2610  212.0970  144.6750 C   0  0  0  0  0  0  0  0  0  0  0  0
  161.0440  212.1020  143.4880 N   0  0  0  0  0  1  0  0  0  0  0  0
  159.0130  211.9900  144.5960 O   0  0  0  0  0  0  0  0  0  0  0  0
  1 12  1  0  0  0  0
  2  9  1  0  0  0  0
  2 23  1  0  0  0  0
  3  1  2  0  0  0  0
  3 23  1  0  0  0  0
  4 25  2  0  0  0  0
  4  1  1  0  0  0  0
  5 17  2  0  0  0  0
  5 38  1  0  0  0  0
  6 17  1  0  0  0  0
  7 18  1  0  0  0  0
  8  3  1  0  0  0  0
  9  7  2  0  0  0  0
 10  9  1  0  0  0  0
 11 21  1  0  0  0  0
 11 19  2  0  0  0  0
 12 15  1  0  0  0  0
 12 14  2  0  0  0  0
 13 22  1  0  0  0  0
 13  8  1  0  0  0  0
 14  5  1  0  0  0  0
 16 14  1  0  0  0  0
 16 18  1  0  0  0  0
 18  6  2  0  0  0  0
 19 25  1  0  0  0  0
 20 11  1  0  0  0  0
 21  4  1  0  0  0  0
 22 24  1  6  0  0  0
 22 21  1  0  0  0  0
 23 16  2  0  0  0  0
 24 20  2  0  0  0  0
 26 35  1  6  0  0  0
 26 29  1  0  0  0  0
 27 26  1  0  0  0  0
 27 31  1  0  0  0  0
 28 10  1  1  0  0  0
 29 28  1  0  0  0  0
 30 28  1  0  0  0  0
 31 30  1  0  0  0  0
 32 35  1  0  0  0  0
 35 33  1  0  0  0  0
 35 34  1  0  0  0  0
 36 39  2  0  0  0  0
 36 37  1  0  0  0  0
 37 40  1  0  0  0  0
 38 36  1  0  0  0  0
 41 46  1  0  0  0  0
 41 40  1  1  0  0  0
 42 45  1  0  0  0  0
 43 42  1  0  0  0  0
 43 44  1  0  0  0  0
 44 41  1  0  0  0  0
 45 46  1  0  0  0  0
 46 47  1  6  0  0  0
 47 48  1  0  0  0  0
 49 47  1  0  0  0  0
 49 48  1  0  0  0  0
 50 24  1  0  0  0  0
 51 50  1  0  0  0  0
 52 50  2  0  0  0  0
M  END
>  <MODEL>
3

>  <REMARK>
 VINA RESULT:       1.2      3.283     10.582
  Name = 
  7 active torsions:
  status: ('A' for Active; 'I' for Inactive)
    1  A    between atoms: C_5  and  C_29
    2  A    between atoms: C_6  and  N_45
    3  A    between atoms: C_9  and  C_28
    4  A    between atoms: N_10  and  C_28
    5  A    between atoms: C_12  and  N_23
    6  A    between atoms: C_13  and  C_51
    7  A    between atoms: C_14  and  N_24
                            x       y       z     vdW  Elec       q    Type
                         _______ _______ _______ _____ _____    ______ ____

>  <TORSDO>
F 7

$$$$
=
 OpenBabel11042422193D

 52 60  0  0  1  0  0  0  0  0999 V2000
  161.1880  208.5770  151.1340 C   0  0  0  0  0  0  0  0  0  0  0  0
  160.2010  210.3310  154.2420 O   0  0  0  0  0  0  0  0  0  0  0  0
  160.9590  209.6300  152.0620 C   0  0  0  0  0  0  0  0  0  0  0  0
  161.3620  208.8710  149.6950 C   0  0  0  0  0  0  0  0  0  0  0  0
  161.2660  205.6420  153.4840 C   0  0  0  0  0  0  0  0  0  0  0  0
  160.4990  206.3980  155.6610 C   0  0  0  0  0  3  0  0  0  0  0  0
  159.8990  208.7410  156.1540 C   0  0  0  0  0  3  0  0  0  0  0  0
  160.8400  211.0840  151.6550 C   0  0  0  0  0  2  0  0  0  0  0  0
  159.6910  210.0700  155.5120 C   0  0  0  0  0  0  0  0  0  0  0  0
  159.0340  210.9800  156.1570 N   0  0  0  0  0  2  0  0  0  0  0  0
  161.8540  209.9660  147.9390 C   0  0  0  0  0  0  0  0  0  0  0  0
  161.2910  207.2490  151.5930 C   0  0  0  0  0  0  0  0  0  0  0  0
  162.0070  211.6230  150.9510 N   0  0  0  0  0  2  0  0  0  0  0  0
  161.0820  206.9450  152.9600 C   0  0  0  0  0  0  0  0  0  0  0  0
  161.6040  206.2440  150.6820 O   0  0  0  0  0  1  0  0  0  0  0  0
  160.6720  207.9860  153.8360 C   0  0  0  0  0  0  0  0  0  0  0  0
  160.9620  205.3890  154.8260 C   0  0  0  0  0  3  0  0  0  0  0  0
  160.3430  207.6930  155.1750 C   0  0  0  0  0  0  0  0  0  0  0  0
  161.1960  208.9050  147.4340 N   0  0  0  0  0  0  0  0  0  0  0  0
  162.1300  211.1590  147.3790 N   0  0  0  0  0  0  0  0  0  0  0  0
  161.9620  209.9480  149.2320 N   0  0  0  0  0  0  0  0  0  0  0  0
  162.3380  211.1390  149.6520 C   0  0  1  0  0  3  0  0  0  0  0  0
  160.6230  209.3130  153.3840 C   0  0  0  0  0  0  0  0  0  0  0  0
  162.4700  211.8990  148.4830 C   0  0  0  0  0  0  0  0  0  0  0  0
  160.8970  208.1830  148.5640 C   0  0  0  0  0  3  0  0  0  0  0  0
  156.9850  213.5850  154.8990 C   0  0  2  0  0  3  0  0  0  0  0  0
  157.9860  214.4530  154.0910 C   0  0  0  0  0  2  0  0  0  0  0  0
  158.7040  212.2740  155.5660 C   0  0  2  0  0  3  0  0  0  0  0  0
  157.4060  212.2360  155.0240 O   0  0  0  0  0  0  0  0  0  0  0  0
  159.7000  212.6160  154.4510 C   0  0  0  0  0  2  0  0  0  0  0  0
  159.0840  213.6020  153.4450 C   0  0  0  0  0  2  0  0  0  0  0  0
  154.6210  214.3690  155.2740 C   0  0  0  0  0  1  0  0  0  0  0  0
  155.5460  214.3500  152.9730 C   0  0  0  0  0  1  0  0  0  0  0  0
  155.0320  212.2320  154.1360 C   0  0  0  0  0  1  0  0  0  0  0  0
  155.5580  213.6420  154.3210 C   0  0  0  0  0  0  0  0  0  0  0  0
  161.2160  203.8630  151.6620 C   0  0  0  0  0  0  0  0  0  0  0  0
  161.8910  202.7620  151.0520 N   0  0  0  0  0  2  0  0  0  0  0  0
  161.8760  204.6090  152.6930 N   0  0  0  0  0  2  0  0  0  0  0  0
  160.0320  204.1400  151.3190 O   0  0  0  0  0  0  0  0  0  0  0  0
  161.2110  201.8820  150.1120 C   0  0  0  0  0  2  0  0  0  0  0  0
  160.9510  202.5760  148.7630 C   0  0  1  0  0  3  0  0  0  0  0  0
  160.8940  203.6550  146.1310 C   0  0  0  0  0  2  0  0  0  0  0  0
  161.4340  204.5410  147.2590 C   0  0  0  0  0  2  0  0  0  0  0  0
  161.9110  203.7380  148.4750 C   0  0  0  0  0  2  0  0  0  0  0  0
  161.2630  202.1880  146.3470 C   0  0  0  0  0  2  0  0  0  0  0  0
  160.6670  201.6850  147.5940 N   0  0  1  0  0  0  0  0  0  0  0  0
  161.1390  200.3110  147.7830 C   0  0  0  0  0  3  0  0  0  0  0  0
  160.8350  199.4960  146.5360 C   0  0  0  0  0  2  0  0  0  0  0  0
  162.2380  199.9910  146.7840 C   0  0  0  0  0  2  0  0  0  0  0  0
  162.8010  213.3270  148.4220 C   0  0  0  0  0  0  0  0  0  0  0  0
  161.7720  214.3070  148.4900 N   0  0  0  0  0  1  0  0  0  0  0  0
  163.9910  213.6870  148.2540 O   0  0  0  0  0  0  0  0  0  0  0  0
  1 12  2  0  0  0  0
  1  3  1  0  0  0  0
  2  9  1  0  0  0  0
  3 23  2  0  0  0  0
  4  1  1  0  0  0  0
  5 17  1  0  0  0  0
  8  3  1  0  0  0  0
  9  7  2  0  0  0  0
  9 10  1  0  0  0  0
 11 21  1  0  0  0  0
 12 14  1  0  0  0  0
 13  8  1  0  0  0  0
 14  5  2  0  0  0  0
 14 16  1  0  0  0  0
 15 12  1  0  0  0  0
 16 18  2  0  0  0  0
 17  6  2  0  0  0  0
 18  6  1  0  0  0  0
 18  7  1  0  0  0  0
 19 11  2  0  0  0  0
 19 25  1  0  0  0  0
 20 11  1  0  0  0  0
 20 24  2  0  0  0  0
 21 22  1  0  0  0  0
 21  4  1  0  0  0  0
 22 24  1  6  0  0  0
 22 13  1  0  0  0  0
 23 16  1  0  0  0  0
 23  2  1  0  0  0  0
 25  4  2  0  0  0  0
 26 35  1  6  0  0  0
 26 29  1  0  0  0  0
 27 26  1  0  0  0  0
 28 10  1  6  0  0  0
 29 28  1  0  0  0  0
 30 28  1  0  0  0  0
 31 27  1  0  0  0  0
 31 30  1  0  0  0  0
 33 35  1  0  0  0  0
 34 35  1  0  0  0  0
 35 32  1  0  0  0  0
 36 38  1  0  0  0  0
 37 36  1  0  0  0  0
 38  5  1  0  0  0  0
 39 36  2  0  0  0  0
 40 37  1  0  0  0  0
 41 40  1  1  0  0  0
 42 45  1  0  0  0  0
 42 43  1  0  0  0  0
 43 44  1  0  0  0  0
 44 41  1  0  0  0  0
 45 46  1  0  0  0  0
 46 47  1  1  0  0  0
 46 41  1  0  0  0  0
 48 49  1  0  0  0  0
 48 47  1  0  0  0  0
 49 47  1  0  0  0  0
 50 24  1  0  0  0  0
 50 51  1  0  0  0  0
 52 50  2  0  0  0  0
M  END
>  <MODEL>
4

>  <REMARK>
 VINA RESULT:       1.9      4.100      8.400
  Name = 
  7 active torsions:
  status: ('A' for Active; 'I' for Inactive)
    1  A    between atoms: C_5  and  C_29
    2  A    between atoms: C_6  and  N_45
    3  A    between atoms: C_9  and  C_28
    4  A    between atoms: N_10  and  C_28
    5  A    between atoms: C_12  and  N_23
    6  A    between atoms: C_13  and  C_51
    7  A    between atoms: C_14  and  N_24
                            x       y       z     vdW  Elec       q    Type
                         _______ _______ _______ _____ _____    ______ ____

>  <TORSDO>
F 7

$$$$
