=
 OpenBabel11042421493D

 42 45  0  0  1  0  0  0  0  0999 V2000
  160.5730  203.2240  149.9060 C   0  0  0  0  0  0  0  0  0  0  0  0
  161.0110  203.1210  151.1460 C   0  0  0  0  0  3  0  0  0  0  0  0
  161.1200  204.4550  151.6920 C   0  0  0  0  0  0  0  0  0  0  0  0
  161.4410  204.6860  152.9270 N   0  0  0  0  0  0  0  0  0  0  0  0
  160.7520  205.4900  150.6820 C   0  0  2  0  0  3  0  0  0  0  0  0
  160.3240  204.6430  149.4820 C   0  0  0  0  0  2  0  0  0  0  0  0
  161.5070  206.0260  153.4930 C   0  0  0  0  0  2  0  0  0  0  0  0
  160.2560  206.3090  154.3130 C   0  0  0  0  0  2  0  0  0  0  0  0
  160.1900  206.6960  156.6690 F   0  0  0  0  0  0  0  0  0  0  0  0
  160.5290  207.2750  155.4600 C   0  0  0  0  0  0  0  0  0  0  0  0
  161.8750  207.5860  155.4740 F   0  0  0  0  0  0  0  0  0  0  0  0
  159.8010  208.4380  155.2840 F   0  0  0  0  0  0  0  0  0  0  0  0
  161.9760  206.3150  150.3100 C   0  0  0  0  0  2  0  0  0  0  0  0
  161.7620  209.2290  152.4860 C   0  0  0  0  0  2  0  0  0  0  0  0
  161.6550  209.8110  149.2280 C   0  0  0  0  0  2  0  0  0  0  0  0
  161.7090  207.7270  150.5270 N   0  0  0  0  0  0  0  0  0  0  0  0
  162.4680  208.1150  151.7080 C   0  0  0  0  0  2  0  0  0  0  0  0
  161.9200  210.7180  150.4260 C   0  0  0  0  0  2  0  0  0  0  0  0
  162.3010  208.4400  149.4020 C   0  0  0  0  0  2  0  0  0  0  0  0
  161.0680  210.2810  151.6150 C   0  0  2  0  0  3  0  0  0  0  0  0
  160.7220  211.4600  152.4600 C   0  0  0  0  0  3  0  0  0  0  0  0
  160.0820  211.3050  153.5620 N   0  0  0  0  0  0  0  0  0  0  0  0
  159.3460  212.1670  156.7760 C   0  0  0  0  0  2  0  0  0  0  0  0
  158.0770  212.6880  156.1430 C   0  0  0  0  0  2  0  0  0  0  0  0
  158.2500  212.4310  154.6600 C   0  0  2  0  0  3  0  0  0  0  0  0
  160.4330  212.3510  155.7340 C   0  0  0  0  0  2  0  0  0  0  0  0
  159.7410  212.4400  154.3790 C   0  0  1  0  0  3  0  0  0  0  0  0
  157.4690  213.4020  153.7660 C   0  0  1  0  0  3  0  0  0  0  0  0
  157.7560  213.1520  152.4240 O   0  0  0  0  0  1  0  0  0  0  0  0
  155.6590  213.3760  154.0260 P   0  0  0  0  0  0  0  0  0  0  0  0
  155.1440  211.8070  154.3990 O   0  0  0  0  0  1  0  0  0  0  0  0
  155.2810  214.3100  155.1530 O   0  0  0  0  0  1  0  0  0  0  0  0
  154.8940  213.8840  152.6060 O   0  0  0  0  0  0  0  0  0  0  0  0
  160.3520  202.0160  149.0500 C   0  0  0  0  0  2  0  0  0  0  0  0
  161.4040  201.8770  147.9600 C   0  0  0  0  0  2  0  0  0  0  0  0
  160.7820  202.0970  146.5900 C   0  0  0  0  0  2  0  0  0  0  0  0
  160.5580  204.1320  145.3250 O   0  0  0  0  0  0  0  0  0  0  0  0
  162.2720  205.8530  145.1680 C   0  0  0  0  0  2  0  0  0  0  0  0
  162.4960  203.9050  146.7740 C   0  0  0  0  0  2  0  0  0  0  0  0
  161.2700  204.9500  144.4290 C   0  0  0  0  0  2  0  0  0  0  0  0
  161.4930  203.2130  145.8380 C   0  0  1  0  0  3  0  0  0  0  0  0
  162.4470  205.4290  146.6290 C   0  0  0  0  0  2  0  0  0  0  0  0
  1  2  2  0  0  0  0
  2  3  1  0  0  0  0
  3  4  2  0  0  0  0
  4  7  1  0  0  0  0
  5 13  1  6  0  0  0
  5  3  1  0  0  0  0
  6  1  1  0  0  0  0
  6  5  1  0  0  0  0
  7  8  1  0  0  0  0
  8 10  1  0  0  0  0
 10 11  1  0  0  0  0
 10  9  1  0  0  0  0
 12 10  1  0  0  0  0
 13 16  1  0  0  0  0
 15 19  1  0  0  0  0
 15 18  1  0  0  0  0
 16 17  1  0  0  0  0
 17 14  1  0  0  0  0
 18 20  1  0  0  0  0
 19 16  1  0  0  0  0
 20 21  1  1  0  0  0
 20 14  1  0  0  0  0
 21 22  2  0  0  0  0
 24 23  1  0  0  0  0
 25 28  1  6  0  0  0
 25 24  1  0  0  0  0
 26 23  1  0  0  0  0
 27 22  1  6  0  0  0
 27 25  1  0  0  0  0
 27 26  1  0  0  0  0
 28 29  1  6  0  0  0
 28 30  1  0  0  0  0
 30 31  1  0  0  0  0
 30 32  1  0  0  0  0
 33 30  2  0  0  0  0
 34  1  1  0  0  0  0
 35 34  1  0  0  0  0
 36 35  1  0  0  0  0
 37 41  1  0  0  0  0
 38 42  1  0  0  0  0
 40 38  1  0  0  0  0
 40 37  1  0  0  0  0
 41 36  1  1  0  0  0
 41 39  1  0  0  0  0
 42 39  1  0  0  0  0
M  END
>  <MODEL>
1

>  <REMARK>
 VINA RESULT:      -7.0      0.000      0.000
  Name = 
  13 active torsions:
  status: ('A' for Active; 'I' for Inactive)
    1  A    between atoms: P_2  and  C_22
    2  A    between atoms: C_5  and  C_41
    3  A    between atoms: C_7  and  C_32
    4  A    between atoms: C_9  and  C_29
    5  A    between atoms: C_10  and  C_22
    6  A    between atoms: N_12  and  C_17
    7  A    between atoms: N_14  and  C_31
    8  A    between atoms: N_23  and  C_28
    9  A    between atoms: C_24  and  C_37
   10  A    between atoms: C_24  and  C_38
   11  A    between atoms: C_25  and  C_31
   12  A    between atoms: C_28  and  C_29
   13  A    between atoms: C_32  and  C_37
                            x       y       z     vdW  Elec       q    Type
                         _______ _______ _______ _____ _____    ______ ____

>  <TORSDO>
F 13

$$$$
=
 OpenBabel11042421493D

 42 45  0  0  1  0  0  0  0  0999 V2000
  158.5080  212.4580  153.7800 C   0  0  0  0  0  0  0  0  0  0  0  0
  158.9750  213.3510  152.9300 C   0  0  0  0  0  3  0  0  0  0  0  0
  159.5730  212.6420  151.8210 C   0  0  0  0  0  0  0  0  0  0  0  0
  160.0450  213.2430  150.7730 N   0  0  0  0  0  0  0  0  0  0  0  0
  159.5060  211.1650  152.0200 C   0  0  2  0  0  3  0  0  0  0  0  0
  158.7270  211.0420  153.3300 C   0  0  0  0  0  2  0  0  0  0  0  0
  160.6050  212.5290  149.6350 C   0  0  0  0  0  2  0  0  0  0  0  0
  161.6050  213.4140  148.9030 C   0  0  0  0  0  2  0  0  0  0  0  0
  163.7700  212.7070  148.1820 F   0  0  0  0  0  0  0  0  0  0  0  0
  162.4220  212.6320  147.8810 C   0  0  0  0  0  0  0  0  0  0  0  0
  162.0290  211.3080  147.9110 F   0  0  0  0  0  0  0  0  0  0  0  0
  162.2040  213.1380  146.6120 F   0  0  0  0  0  0  0  0  0  0  0  0
  160.9080  210.5990  152.2060 C   0  0  0  0  0  2  0  0  0  0  0  0
  162.0870  208.5070  149.4670 C   0  0  0  0  0  2  0  0  0  0  0  0
  160.8830  206.9260  152.1150 C   0  0  0  0  0  2  0  0  0  0  0  0
  161.0170  209.3120  151.5420 N   0  0  0  0  0  0  0  0  0  0  0  0
  162.2220  209.3680  150.7260 C   0  0  0  0  0  2  0  0  0  0  0  0
  161.7460  206.4630  150.9460 C   0  0  0  0  0  2  0  0  0  0  0  0
  161.2700  208.3250  152.5850 C   0  0  0  0  0  2  0  0  0  0  0  0
  161.3330  207.1890  149.6680 C   0  0  2  0  0  3  0  0  0  0  0  0
  161.5620  206.3140  148.4830 C   0  0  0  0  0  3  0  0  0  0  0  0
  162.0300  205.1270  148.6300 N   0  0  0  0  0  0  0  0  0  0  0  0
  161.5680  204.9990  145.2570 C   0  0  0  0  0  2  0  0  0  0  0  0
  160.8180  203.7320  145.6010 C   0  0  0  0  0  2  0  0  0  0  0  0
  160.9630  203.5910  147.1020 C   0  0  2  0  0  3  0  0  0  0  0  0
  162.6790  205.1120  146.2830 C   0  0  0  0  0  2  0  0  0  0  0  0
  162.2590  204.2810  147.4880 C   0  0  1  0  0  3  0  0  0  0  0  0
  160.8870  202.1430  147.6000 C   0  0  1  0  0  3  0  0  0  0  0  0
  162.1340  201.5300  147.4770 O   0  0  0  0  0  1  0  0  0  0  0  0
  160.2790  201.9690  149.3170 P   0  0  0  0  0  0  0  0  0  0  0  0
  160.1880  203.4850  150.0620 O   0  0  0  0  0  1  0  0  0  0  0  0
  158.9130  201.3230  149.3220 O   0  0  0  0  0  0  0  0  0  0  0  0
  161.3560  200.9930  150.1820 O   0  0  0  0  0  1  0  0  0  0  0  0
  157.8250  212.8650  155.0480 C   0  0  0  0  0  2  0  0  0  0  0  0
  157.6390  211.6980  156.0070 C   0  0  0  0  0  2  0  0  0  0  0  0
  158.4990  211.8860  157.2460 C   0  0  0  0  0  2  0  0  0  0  0  0
  159.4560  209.8370  156.4220 O   0  0  0  0  0  0  0  0  0  0  0  0
  161.8390  209.4590  156.1050 C   0  0  0  0  0  2  0  0  0  0  0  0
  160.9290  211.7530  156.6810 C   0  0  0  0  0  2  0  0  0  0  0  0
  160.5100  208.9390  156.6750 C   0  0  0  0  0  2  0  0  0  0  0  0
  159.7160  210.9730  157.2120 C   0  0  1  0  0  3  0  0  0  0  0  0
  161.7380  210.9260  155.6780 C   0  0  0  0  0  2  0  0  0  0  0  0
  1 34  1  0  0  0  0
  2  1  2  0  0  0  0
  3  5  1  0  0  0  0
  3  2  1  0  0  0  0
  4  3  2  0  0  0  0
  5 13  1  1  0  0  0
  5  6  1  0  0  0  0
  6  1  1  0  0  0  0
  7  4  1  0  0  0  0
  8  7  1  0  0  0  0
 10 11  1  0  0  0  0
 10  9  1  0  0  0  0
 10  8  1  0  0  0  0
 12 10  1  0  0  0  0
 14 20  1  0  0  0  0
 14 17  1  0  0  0  0
 15 19  1  0  0  0  0
 16 13  1  0  0  0  0
 16 19  1  0  0  0  0
 17 16  1  0  0  0  0
 18 15  1  0  0  0  0
 20 21  1  6  0  0  0
 20 18  1  0  0  0  0
 21 22  2  0  0  0  0
 23 24  1  0  0  0  0
 23 26  1  0  0  0  0
 24 25  1  0  0  0  0
 25 27  1  0  0  0  0
 25 28  1  6  0  0  0
 26 27  1  0  0  0  0
 27 22  1  1  0  0  0
 28 29  1  1  0  0  0
 28 30  1  0  0  0  0
 30 32  2  0  0  0  0
 30 31  1  0  0  0  0
 30 33  1  0  0  0  0
 34 35  1  0  0  0  0
 35 36  1  0  0  0  0
 37 40  1  0  0  0  0
 37 41  1  0  0  0  0
 38 40  1  0  0  0  0
 39 41  1  0  0  0  0
 41 36  1  6  0  0  0
 42 38  1  0  0  0  0
 42 39  1  0  0  0  0
M  END
>  <MODEL>
2

>  <REMARK>
 VINA RESULT:      -6.7      4.009     10.393
  Name = 
  13 active torsions:
  status: ('A' for Active; 'I' for Inactive)
    1  A    between atoms: P_2  and  C_22
    2  A    between atoms: C_5  and  C_41
    3  A    between atoms: C_7  and  C_32
    4  A    between atoms: C_9  and  C_29
    5  A    between atoms: C_10  and  C_22
    6  A    between atoms: N_12  and  C_17
    7  A    between atoms: N_14  and  C_31
    8  A    between atoms: N_23  and  C_28
    9  A    between atoms: C_24  and  C_37
   10  A    between atoms: C_24  and  C_38
   11  A    between atoms: C_25  and  C_31
   12  A    between atoms: C_28  and  C_29
   13  A    between atoms: C_32  and  C_37
                            x       y       z     vdW  Elec       q    Type
                         _______ _______ _______ _____ _____    ______ ____

>  <TORSDO>
F 13

$$$$
=
 OpenBabel11042421493D

 42 45  0  0  1  0  0  0  0  0999 V2000
  158.7000  212.7800  153.7540 C   0  0  0  0  0  0  0  0  0  0  0  0
  159.1090  213.6070  152.8100 C   0  0  0  0  0  3  0  0  0  0  0  0
  159.6520  212.8160  151.7290 C   0  0  0  0  0  0  0  0  0  0  0  0
  160.0570  213.3350  150.6120 N   0  0  0  0  0  0  0  0  0  0  0  0
  159.6140  211.3590  152.0470 C   0  0  2  0  0  3  0  0  0  0  0  0
  158.9110  211.3340  153.4050 C   0  0  0  0  0  2  0  0  0  0  0  0
  160.5610  212.5370  149.5030 C   0  0  0  0  0  2  0  0  0  0  0  0
  161.5730  213.3400  148.6980 C   0  0  0  0  0  2  0  0  0  0  0  0
  162.3840  212.6530  146.5590 F   0  0  0  0  0  0  0  0  0  0  0  0
  162.5270  212.4430  147.9180 C   0  0  0  0  0  0  0  0  0  0  0  0
  163.8250  212.7450  148.2840 F   0  0  0  0  0  0  0  0  0  0  0  0
  162.2750  211.1150  148.2100 F   0  0  0  0  0  0  0  0  0  0  0  0
  161.0300  210.8190  152.1970 C   0  0  0  0  0  2  0  0  0  0  0  0
  161.7250  207.6650  150.5130 C   0  0  0  0  0  2  0  0  0  0  0  0
  160.9540  207.4810  153.7280 C   0  0  0  0  0  2  0  0  0  0  0  0
  161.0170  209.3670  152.1560 N   0  0  0  0  0  0  0  0  0  0  0  0
  162.0720  208.9700  151.2340 C   0  0  0  0  0  2  0  0  0  0  0  0
  161.6100  206.4910  152.7700 C   0  0  0  0  0  2  0  0  0  0  0  0
  161.4270  208.9090  153.4770 C   0  0  0  0  0  2  0  0  0  0  0  0
  161.0010  206.6270  151.3770 C   0  0  2  0  0  3  0  0  0  0  0  0
  161.0240  205.3110  150.6750 C   0  0  0  0  0  3  0  0  0  0  0  0
  160.2880  205.1110  149.6420 N   0  0  0  0  0  0  0  0  0  0  0  0
  161.2170  201.8600  150.0680 C   0  0  0  0  0  2  0  0  0  0  0  0
  162.0350  202.1320  148.8260 C   0  0  0  0  0  2  0  0  0  0  0  0
  161.7000  203.5600  148.4460 C   0  0  2  0  0  3  0  0  0  0  0  0
  159.9700  202.7140  149.9360 C   0  0  0  0  0  2  0  0  0  0  0  0
  160.3020  203.8410  148.9650 C   0  0  1  0  0  3  0  0  0  0  0  0
  161.8510  203.8560  146.9500 C   0  0  1  0  0  3  0  0  0  0  0  0
  160.8560  203.1960  146.2290 O   0  0  0  0  0  1  0  0  0  0  0  0
  161.8400  205.6370  146.5290 P   0  0  0  0  0  0  0  0  0  0  0  0
  162.5960  205.8900  145.0370 O   0  0  0  0  0  0  0  0  0  0  0  0
  160.4190  206.1470  146.4660 O   0  0  0  0  0  1  0  0  0  0  0  0
  162.6800  206.4870  147.7260 O   0  0  0  0  0  1  0  0  0  0  0  0
  158.0860  213.2810  155.0220 C   0  0  0  0  0  2  0  0  0  0  0  0
  158.4360  212.4110  156.2200 C   0  0  0  0  0  2  0  0  0  0  0  0
  159.9100  212.5470  156.5650 C   0  0  0  0  0  2  0  0  0  0  0  0
  160.0130  210.1470  156.4090 O   0  0  0  0  0  0  0  0  0  0  0  0
  161.8450  208.7890  157.2600 C   0  0  0  0  0  2  0  0  0  0  0  0
  161.9890  211.3190  157.2030 C   0  0  0  0  0  2  0  0  0  0  0  0
  160.3260  209.0110  157.1780 C   0  0  0  0  0  2  0  0  0  0  0  0
  160.4550  211.2560  157.1570 C   0  0  1  0  0  3  0  0  0  0  0  0
  162.6240  210.0030  156.7450 C   0  0  0  0  0  2  0  0  0  0  0  0
  1 34  1  0  0  0  0
  2  1  2  0  0  0  0
  3  5  1  0  0  0  0
  3  2  1  0  0  0  0
  4  3  2  0  0  0  0
  5 13  1  1  0  0  0
  5  6  1  0  0  0  0
  6  1  1  0  0  0  0
  7  4  1  0  0  0  0
  8  7  1  0  0  0  0
  9 10  1  0  0  0  0
 10 12  1  0  0  0  0
 10 11  1  0  0  0  0
 10  8  1  0  0  0  0
 14 17  1  0  0  0  0
 14 20  1  0  0  0  0
 16 13  1  0  0  0  0
 16 19  1  0  0  0  0
 17 16  1  0  0  0  0
 18 15  1  0  0  0  0
 19 15  1  0  0  0  0
 20 21  1  6  0  0  0
 20 18  1  0  0  0  0
 22 21  2  0  0  0  0
 24 23  1  0  0  0  0
 25 28  1  6  0  0  0
 25 24  1  0  0  0  0
 25 27  1  0  0  0  0
 26 23  1  0  0  0  0
 27 22  1  1  0  0  0
 27 26  1  0  0  0  0
 28 29  1  6  0  0  0
 30 28  1  0  0  0  0
 30 33  1  0  0  0  0
 31 30  2  0  0  0  0
 32 30  1  0  0  0  0
 34 35  1  0  0  0  0
 35 36  1  0  0  0  0
 37 41  1  0  0  0  0
 37 40  1  0  0  0  0
 40 38  1  0  0  0  0
 41 36  1  6  0  0  0
 41 39  1  0  0  0  0
 42 39  1  0  0  0  0
 42 38  1  0  0  0  0
M  END
>  <MODEL>
3

>  <REMARK>
 VINA RESULT:      -6.6      3.853     10.224
  Name = 
  13 active torsions:
  status: ('A' for Active; 'I' for Inactive)
    1  A    between atoms: P_2  and  C_22
    2  A    between atoms: C_5  and  C_41
    3  A    between atoms: C_7  and  C_32
    4  A    between atoms: C_9  and  C_29
    5  A    between atoms: C_10  and  C_22
    6  A    between atoms: N_12  and  C_17
    7  A    between atoms: N_14  and  C_31
    8  A    between atoms: N_23  and  C_28
    9  A    between atoms: C_24  and  C_37
   10  A    between atoms: C_24  and  C_38
   11  A    between atoms: C_25  and  C_31
   12  A    between atoms: C_28  and  C_29
   13  A    between atoms: C_32  and  C_37
                            x       y       z     vdW  Elec       q    Type
                         _______ _______ _______ _____ _____    ______ ____

>  <TORSDO>
F 13

$$$$
=
 OpenBabel11042421493D

 42 45  0  0  1  0  0  0  0  0999 V2000
  160.6840  203.0050  149.9450 C   0  0  0  0  0  0  0  0  0  0  0  0
  161.1330  202.9220  151.1820 C   0  0  0  0  0  3  0  0  0  0  0  0
  161.2930  204.2660  151.6900 C   0  0  0  0  0  0  0  0  0  0  0  0
  161.6370  204.5190  152.9150 N   0  0  0  0  0  0  0  0  0  0  0  0
  160.9480  205.2840  150.6550 C   0  0  2  0  0  3  0  0  0  0  0  0
  160.4780  204.4200  149.4850 C   0  0  0  0  0  2  0  0  0  0  0  0
  161.7530  205.8720  153.4420 C   0  0  0  0  0  2  0  0  0  0  0  0
  160.5210  206.2190  154.2670 C   0  0  0  0  0  2  0  0  0  0  0  0
  161.2320  208.5000  154.2540 F   0  0  0  0  0  0  0  0  0  0  0  0
  160.7070  207.5070  155.0610 C   0  0  0  0  0  0  0  0  0  0  0  0
  159.4780  207.9200  155.5380 F   0  0  0  0  0  0  0  0  0  0  0  0
  161.5540  207.2850  156.1310 F   0  0  0  0  0  0  0  0  0  0  0  0
  162.1940  206.0580  150.2480 C   0  0  0  0  0  2  0  0  0  0  0  0
  161.8310  209.3370  151.7930 C   0  0  0  0  0  2  0  0  0  0  0  0
  161.8710  209.2640  148.4840 C   0  0  0  0  0  2  0  0  0  0  0  0
  161.8950  207.4780  150.1700 N   0  0  0  0  0  0  0  0  0  0  0  0
  162.5900  208.1090  151.2830 C   0  0  0  0  0  2  0  0  0  0  0  0
  162.0650  210.3950  149.4890 C   0  0  0  0  0  2  0  0  0  0  0  0
  162.5290  207.9700  148.9530 C   0  0  0  0  0  2  0  0  0  0  0  0
  161.1640  210.1790  150.7020 C   0  0  2  0  0  3  0  0  0  0  0  0
  160.7600  211.4920  151.2820 C   0  0  0  0  0  3  0  0  0  0  0  0
  159.8090  211.5590  152.1420 N   0  0  0  0  0  0  0  0  0  0  0  0
  157.7850  212.9190  154.5220 C   0  0  0  0  0  2  0  0  0  0  0  0
  157.2120  213.6620  153.3380 C   0  0  0  0  0  2  0  0  0  0  0  0
  158.0480  213.2120  152.1570 C   0  0  2  0  0  3  0  0  0  0  0  0
  159.2560  212.7170  154.2120 C   0  0  0  0  0  2  0  0  0  0  0  0
  159.4110  212.8250  152.7000 C   0  0  1  0  0  3  0  0  0  0  0  0
  158.1280  214.2410  151.0230 C   0  0  1  0  0  3  0  0  0  0  0  0
  159.4590  214.4530  150.6630 O   0  0  0  0  0  1  0  0  0  0  0  0
  157.1480  213.8070  149.5410 P   0  0  0  0  0  0  0  0  0  0  0  0
  157.8700  214.4530  148.1540 O   0  0  0  0  0  0  0  0  0  0  0  0
  157.0490  212.3060  149.4030 O   0  0  0  0  0  1  0  0  0  0  0  0
  155.5930  214.4510  149.7040 O   0  0  0  0  0  1  0  0  0  0  0  0
  160.4130  201.7830  149.1250 C   0  0  0  0  0  2  0  0  0  0  0  0
  161.2550  201.7340  147.8590 C   0  0  0  0  0  2  0  0  0  0  0  0
  160.4780  202.2980  146.6810 C   0  0  0  0  0  2  0  0  0  0  0  0
  160.5130  204.2340  145.2520 O   0  0  0  0  0  0  0  0  0  0  0  0
  162.3990  205.7590  145.0440 C   0  0  0  0  0  2  0  0  0  0  0  0
  162.3590  203.9370  146.8050 C   0  0  0  0  0  2  0  0  0  0  0  0
  161.3400  204.9020  144.3300 C   0  0  0  0  0  2  0  0  0  0  0  0
  161.3280  203.2730  145.8800 C   0  0  1  0  0  3  0  0  0  0  0  0
  162.4710  205.4410  146.5400 C   0  0  0  0  0  2  0  0  0  0  0  0
  1  2  2  0  0  0  0
  2  3  1  0  0  0  0
  3  4  2  0  0  0  0
  4  7  1  0  0  0  0
  5 13  1  6  0  0  0
  5  3  1  0  0  0  0
  6  1  1  0  0  0  0
  6  5  1  0  0  0  0
  7  8  1  0  0  0  0
  8 10  1  0  0  0  0
  9 10  1  0  0  0  0
 10 11  1  0  0  0  0
 10 12  1  0  0  0  0
 15 19  1  0  0  0  0
 15 18  1  0  0  0  0
 16 13  1  0  0  0  0
 16 17  1  0  0  0  0
 17 14  1  0  0  0  0
 18 20  1  0  0  0  0
 19 16  1  0  0  0  0
 20 21  1  1  0  0  0
 20 14  1  0  0  0  0
 21 22  2  0  0  0  0
 24 23  1  0  0  0  0
 25 28  1  6  0  0  0
 25 27  1  0  0  0  0
 25 24  1  0  0  0  0
 26 23  1  0  0  0  0
 27 22  1  6  0  0  0
 27 26  1  0  0  0  0
 28 29  1  6  0  0  0
 30 33  1  0  0  0  0
 30 28  1  0  0  0  0
 31 30  2  0  0  0  0
 32 30  1  0  0  0  0
 34  1  1  0  0  0  0
 35 34  1  0  0  0  0
 36 35  1  0  0  0  0
 37 41  1  0  0  0  0
 38 42  1  0  0  0  0
 40 38  1  0  0  0  0
 40 37  1  0  0  0  0
 41 36  1  1  0  0  0
 41 39  1  0  0  0  0
 42 39  1  0  0  0  0
M  END
>  <MODEL>
4

>  <REMARK>
 VINA RESULT:      -6.2      1.724      2.201
  Name = 
  13 active torsions:
  status: ('A' for Active; 'I' for Inactive)
    1  A    between atoms: P_2  and  C_22
    2  A    between atoms: C_5  and  C_41
    3  A    between atoms: C_7  and  C_32
    4  A    between atoms: C_9  and  C_29
    5  A    between atoms: C_10  and  C_22
    6  A    between atoms: N_12  and  C_17
    7  A    between atoms: N_14  and  C_31
    8  A    between atoms: N_23  and  C_28
    9  A    between atoms: C_24  and  C_37
   10  A    between atoms: C_24  and  C_38
   11  A    between atoms: C_25  and  C_31
   12  A    between atoms: C_28  and  C_29
   13  A    between atoms: C_32  and  C_37
                            x       y       z     vdW  Elec       q    Type
                         _______ _______ _______ _____ _____    ______ ____

>  <TORSDO>
F 13

$$$$
=
 OpenBabel11042421493D

 42 45  0  0  1  0  0  0  0  0999 V2000
  159.8550  211.2170  154.6060 C   0  0  0  0  0  0  0  0  0  0  0  0
  160.1490  212.2000  153.7770 C   0  0  0  0  0  3  0  0  0  0  0  0
  160.3410  211.6310  152.4620 C   0  0  0  0  0  0  0  0  0  0  0  0
  160.5550  212.3550  151.4070 N   0  0  0  0  0  0  0  0  0  0  0  0
  160.1910  210.1470  152.4820 C   0  0  2  0  0  3  0  0  0  0  0  0
  159.8020  209.8740  153.9360 C   0  0  0  0  0  2  0  0  0  0  0  0
  160.7020  211.7880  150.0730 C   0  0  0  0  0  2  0  0  0  0  0  0
  161.2350  212.8420  149.1130 C   0  0  0  0  0  2  0  0  0  0  0  0
  163.2230  212.4070  147.8620 F   0  0  0  0  0  0  0  0  0  0  0  0
  161.8530  212.2220  147.8650 C   0  0  0  0  0  0  0  0  0  0  0  0
  161.5840  210.8670  147.8590 F   0  0  0  0  0  0  0  0  0  0  0  0
  161.3070  212.7950  146.7310 F   0  0  0  0  0  0  0  0  0  0  0  0
  161.5270  209.4830  152.1790 C   0  0  0  0  0  2  0  0  0  0  0  0
  161.8050  206.4220  150.2240 C   0  0  0  0  0  2  0  0  0  0  0  0
  161.1160  206.0570  153.4420 C   0  0  0  0  0  2  0  0  0  0  0  0
  161.3460  208.0500  152.0230 N   0  0  0  0  0  0  0  0  0  0  0  0
  162.3210  207.6150  151.0320 C   0  0  0  0  0  2  0  0  0  0  0  0
  161.6250  205.0840  152.3840 C   0  0  0  0  0  2  0  0  0  0  0  0
  161.7420  207.4400  153.2870 C   0  0  0  0  0  2  0  0  0  0  0  0
  160.9930  205.4020  151.0310 C   0  0  2  0  0  3  0  0  0  0  0  0
  160.8450  204.1550  150.2270 C   0  0  0  0  0  3  0  0  0  0  0  0
  160.4520  204.2110  149.0060 N   0  0  0  0  0  0  0  0  0  0  0  0
  161.2680  200.9030  149.0010 C   0  0  0  0  0  2  0  0  0  0  0  0
  161.9040  201.2580  147.6780 C   0  0  0  0  0  2  0  0  0  0  0  0
  161.5900  202.7270  147.4780 C   0  0  2  0  0  3  0  0  0  0  0  0
  160.0600  201.8110  149.1370 C   0  0  0  0  0  2  0  0  0  0  0  0
  160.3010  203.0100  148.2270 C   0  0  1  0  0  3  0  0  0  0  0  0
  161.5310  203.1550  146.0070 C   0  0  1  0  0  3  0  0  0  0  0  0
  160.4030  202.6070  145.3950 O   0  0  0  0  0  1  0  0  0  0  0  0
  161.5550  204.9660  145.7490 P   0  0  0  0  0  0  0  0  0  0  0  0
  161.9760  205.3230  144.1500 O   0  0  0  0  0  0  0  0  0  0  0  0
  160.1960  205.5540  146.0530 O   0  0  0  0  0  1  0  0  0  0  0  0
  162.7000  205.6530  146.7870 O   0  0  0  0  0  1  0  0  0  0  0  0
  159.5980  211.4680  156.0590 C   0  0  0  0  0  2  0  0  0  0  0  0
  159.4250  212.9460  156.3710 C   0  0  0  0  0  2  0  0  0  0  0  0
  158.1380  213.1800  157.1450 C   0  0  0  0  0  2  0  0  0  0  0  0
  157.4090  214.0260  155.0130 O   0  0  0  0  0  0  0  0  0  0  0  0
  155.4240  213.2610  153.8310 C   0  0  0  0  0  2  0  0  0  0  0  0
  156.2610  212.0830  155.9140 C   0  0  0  0  0  2  0  0  0  0  0  0
  156.2490  214.4530  154.3410 C   0  0  0  0  0  2  0  0  0  0  0  0
  156.9670  213.4170  156.2020 C   0  0  1  0  0  3  0  0  0  0  0  0
  155.9100  211.9380  154.4300 C   0  0  0  0  0  2  0  0  0  0  0  0
  1 34  1  0  0  0  0
  2  1  2  0  0  0  0
  3  5  1  0  0  0  0
  3  2  1  0  0  0  0
  4  3  2  0  0  0  0
  5 13  1  1  0  0  0
  5  6  1  0  0  0  0
  6  1  1  0  0  0  0
  7  4  1  0  0  0  0
  8  7  1  0  0  0  0
  9 10  1  0  0  0  0
 10  8  1  0  0  0  0
 11 10  1  0  0  0  0
 12 10  1  0  0  0  0
 14 20  1  0  0  0  0
 14 17  1  0  0  0  0
 16 13  1  0  0  0  0
 16 19  1  0  0  0  0
 17 16  1  0  0  0  0
 18 15  1  0  0  0  0
 19 15  1  0  0  0  0
 20 21  1  6  0  0  0
 20 18  1  0  0  0  0
 22 21  2  0  0  0  0
 23 26  1  0  0  0  0
 24 23  1  0  0  0  0
 25 28  1  6  0  0  0
 25 24  1  0  0  0  0
 25 27  1  0  0  0  0
 27 22  1  1  0  0  0
 27 26  1  0  0  0  0
 28 29  1  1  0  0  0
 30 28  1  0  0  0  0
 30 32  1  0  0  0  0
 30 33  1  0  0  0  0
 31 30  2  0  0  0  0
 34 35  1  0  0  0  0
 35 36  1  0  0  0  0
 37 41  1  0  0  0  0
 38 40  1  0  0  0  0
 38 42  1  0  0  0  0
 39 41  1  0  0  0  0
 40 37  1  0  0  0  0
 41 36  1  1  0  0  0
 42 39  1  0  0  0  0
M  END
>  <MODEL>
5

>  <REMARK>
 VINA RESULT:      -6.1      3.537     10.647
  Name = 
  13 active torsions:
  status: ('A' for Active; 'I' for Inactive)
    1  A    between atoms: P_2  and  C_22
    2  A    between atoms: C_5  and  C_41
    3  A    between atoms: C_7  and  C_32
    4  A    between atoms: C_9  and  C_29
    5  A    between atoms: C_10  and  C_22
    6  A    between atoms: N_12  and  C_17
    7  A    between atoms: N_14  and  C_31
    8  A    between atoms: N_23  and  C_28
    9  A    between atoms: C_24  and  C_37
   10  A    between atoms: C_24  and  C_38
   11  A    between atoms: C_25  and  C_31
   12  A    between atoms: C_28  and  C_29
   13  A    between atoms: C_32  and  C_37
                            x       y       z     vdW  Elec       q    Type
                         _______ _______ _______ _____ _____    ______ ____

>  <TORSDO>
F 13

$$$$
=
 OpenBabel11042421493D

 42 45  0  0  1  0  0  0  0  0999 V2000
  159.0900  213.3870  152.5520 C   0  0  0  0  0  0  0  0  0  0  0  0
  158.2840  212.3420  152.5380 C   0  0  0  0  0  3  0  0  0  0  0  0
  157.9540  212.0160  153.9070 C   0  0  0  0  0  0  0  0  0  0  0  0
  157.1060  211.0860  154.2240 N   0  0  0  0  0  0  0  0  0  0  0  0
  158.6520  212.9200  154.8670 C   0  0  2  0  0  3  0  0  0  0  0  0
  159.3800  213.8910  153.9370 C   0  0  0  0  0  2  0  0  0  0  0  0
  156.7360  210.7870  155.6000 C   0  0  0  0  0  2  0  0  0  0  0  0
  155.3490  211.3370  155.9000 C   0  0  0  0  0  2  0  0  0  0  0  0
  156.5390  212.9010  157.2580 F   0  0  0  0  0  0  0  0  0  0  0  0
  155.4030  212.7430  156.4850 C   0  0  0  0  0  0  0  0  0  0  0  0
  155.4350  213.6580  155.4500 F   0  0  0  0  0  0  0  0  0  0  0  0
  154.2820  212.9780  157.2590 F   0  0  0  0  0  0  0  0  0  0  0  0
  159.6710  212.1330  155.6800 C   0  0  0  0  0  2  0  0  0  0  0  0
  161.5470  210.3290  153.1310 C   0  0  0  0  0  2  0  0  0  0  0  0
  159.9840  208.4840  155.3920 C   0  0  0  0  0  2  0  0  0  0  0  0
  160.0210  210.9060  154.9850 N   0  0  0  0  0  0  0  0  0  0  0  0
  161.3550  211.1090  154.4340 C   0  0  0  0  0  2  0  0  0  0  0  0
  161.0980  208.1680  154.4000 C   0  0  0  0  0  2  0  0  0  0  0  0
  160.1470  209.8720  156.0040 C   0  0  0  0  0  2  0  0  0  0  0  0
  160.8860  208.9470  153.1050 C   0  0  2  0  0  3  0  0  0  0  0  0
  161.4210  208.1760  151.9460 C   0  0  0  0  0  3  0  0  0  0  0  0
  161.1680  206.9220  151.8270 N   0  0  0  0  0  0  0  0  0  0  0  0
  160.8840  206.6040  148.4460 C   0  0  0  0  0  2  0  0  0  0  0  0
  160.5530  205.1730  148.8010 C   0  0  0  0  0  2  0  0  0  0  0  0
  160.6840  205.1080  150.3090 C   0  0  2  0  0  3  0  0  0  0  0  0
  161.8690  207.0740  149.4990 C   0  0  0  0  0  2  0  0  0  0  0  0
  161.6870  206.1720  150.7130 C   0  0  1  0  0  3  0  0  0  0  0  0
  161.0450  203.7160  150.8420 C   0  0  1  0  0  3  0  0  0  0  0  0
  160.2350  203.3960  151.9310 O   0  0  0  0  0  1  0  0  0  0  0  0
  160.9520  202.3840  149.5910 P   0  0  0  0  0  0  0  0  0  0  0  0
  159.3400  202.0880  149.1710 O   0  0  0  0  0  1  0  0  0  0  0  0
  161.7300  202.7750  148.3560 O   0  0  0  0  0  0  0  0  0  0  0  0
  161.6210  200.9730  150.2420 O   0  0  0  0  0  1  0  0  0  0  0  0
  159.6250  213.9810  151.2870 C   0  0  0  0  0  2  0  0  0  0  0  0
  160.0090  212.9210  150.2660 C   0  0  0  0  0  2  0  0  0  0  0  0
  160.7830  213.5450  149.1160 C   0  0  0  0  0  2  0  0  0  0  0  0
  160.1500  212.2220  147.2080 O   0  0  0  0  0  0  0  0  0  0  0  0
  158.0950  212.5260  145.9410 C   0  0  0  0  0  2  0  0  0  0  0  0
  158.5070  213.7690  148.1110 C   0  0  0  0  0  2  0  0  0  0  0  0
  159.6220  212.3510  145.9100 C   0  0  0  0  0  2  0  0  0  0  0  0
  159.9880  213.4790  147.8210 C   0  0  1  0  0  3  0  0  0  0  0  0
  157.5840  212.8060  147.3570 C   0  0  0  0  0  2  0  0  0  0  0  0
  1  6  1  0  0  0  0
  2  1  2  0  0  0  0
  2  3  1  0  0  0  0
  3  4  2  0  0  0  0
  3  5  1  0  0  0  0
  4  7  1  0  0  0  0
  5 13  1  6  0  0  0
  6  5  1  0  0  0  0
  7  8  1  0  0  0  0
  8 10  1  0  0  0  0
 10  9  1  0  0  0  0
 10 12  1  0  0  0  0
 11 10  1  0  0  0  0
 14 17  1  0  0  0  0
 15 19  1  0  0  0  0
 16 13  1  0  0  0  0
 16 19  1  0  0  0  0
 17 16  1  0  0  0  0
 18 15  1  0  0  0  0
 20 21  1  6  0  0  0
 20 14  1  0  0  0  0
 20 18  1  0  0  0  0
 22 21  2  0  0  0  0
 23 24  1  0  0  0  0
 23 26  1  0  0  0  0
 24 25  1  0  0  0  0
 25 27  1  0  0  0  0
 25 28  1  6  0  0  0
 26 27  1  0  0  0  0
 27 22  1  1  0  0  0
 28 29  1  1  0  0  0
 30 33  1  0  0  0  0
 30 28  1  0  0  0  0
 31 30  1  0  0  0  0
 32 30  2  0  0  0  0
 34  1  1  0  0  0  0
 35 34  1  0  0  0  0
 36 35  1  0  0  0  0
 37 41  1  0  0  0  0
 38 42  1  0  0  0  0
 40 38  1  0  0  0  0
 40 37  1  0  0  0  0
 41 39  1  0  0  0  0
 41 36  1  1  0  0  0
 42 39  1  0  0  0  0
M  END
>  <MODEL>
6

>  <REMARK>
 VINA RESULT:      -5.7      4.209      9.052
  Name = 
  13 active torsions:
  status: ('A' for Active; 'I' for Inactive)
    1  A    between atoms: P_2  and  C_22
    2  A    between atoms: C_5  and  C_41
    3  A    between atoms: C_7  and  C_32
    4  A    between atoms: C_9  and  C_29
    5  A    between atoms: C_10  and  C_22
    6  A    between atoms: N_12  and  C_17
    7  A    between atoms: N_14  and  C_31
    8  A    between atoms: N_23  and  C_28
    9  A    between atoms: C_24  and  C_37
   10  A    between atoms: C_24  and  C_38
   11  A    between atoms: C_25  and  C_31
   12  A    between atoms: C_28  and  C_29
   13  A    between atoms: C_32  and  C_37
                            x       y       z     vdW  Elec       q    Type
                         _______ _______ _______ _____ _____    ______ ____

>  <TORSDO>
F 13

$$$$
=
 OpenBabel11042421493D

 42 45  0  0  1  0  0  0  0  0999 V2000
  158.9740  213.0140  153.0370 C   0  0  0  0  0  0  0  0  0  0  0  0
  158.9200  213.4110  154.2940 C   0  0  0  0  0  3  0  0  0  0  0  0
  159.6730  212.4700  155.0920 C   0  0  0  0  0  0  0  0  0  0  0  0
  159.8820  212.6340  156.3620 N   0  0  0  0  0  0  0  0  0  0  0  0
  160.2140  211.3580  154.2580 C   0  0  2  0  0  3  0  0  0  0  0  0
  159.7850  211.7640  152.8470 C   0  0  0  0  0  2  0  0  0  0  0  0
  160.6790  211.7120  157.1590 C   0  0  0  0  0  2  0  0  0  0  0  0
  162.1580  212.0480  157.0250 C   0  0  0  0  0  2  0  0  0  0  0  0
  163.2270  210.9090  155.2190 F   0  0  0  0  0  0  0  0  0  0  0  0
  162.9810  210.8460  156.5790 C   0  0  0  0  0  0  0  0  0  0  0  0
  164.1880  210.8540  157.2530 F   0  0  0  0  0  0  0  0  0  0  0  0
  162.3090  209.6740  156.8730 F   0  0  0  0  0  0  0  0  0  0  0  0
  159.5420  210.0460  154.6370 C   0  0  0  0  0  2  0  0  0  0  0  0
  161.6150  208.7760  151.9230 C   0  0  0  0  0  2  0  0  0  0  0  0
  160.7610  206.6000  154.2670 C   0  0  0  0  0  2  0  0  0  0  0  0
  160.1420  208.9480  153.8970 N   0  0  0  0  0  0  0  0  0  0  0  0
  161.3300  209.4850  153.2500 C   0  0  0  0  0  2  0  0  0  0  0  0
  161.8380  206.5780  153.1880 C   0  0  0  0  0  2  0  0  0  0  0  0
  160.6090  207.9850  154.8870 C   0  0  0  0  0  2  0  0  0  0  0  0
  161.3320  207.2700  151.9250 C   0  0  2  0  0  3  0  0  0  0  0  0
  161.9550  206.6580  150.7170 C   0  0  0  0  0  3  0  0  0  0  0  0
  161.2320  206.3310  149.7070 N   0  0  0  0  0  0  0  0  0  0  0  0
  160.8640  206.1110  146.3270 C   0  0  0  0  0  2  0  0  0  0  0  0
  160.8090  204.6300  146.6220 C   0  0  0  0  0  2  0  0  0  0  0  0
  161.0140  204.5250  148.1190 C   0  0  2  0  0  3  0  0  0  0  0  0
  161.7940  206.7050  147.3670 C   0  0  0  0  0  2  0  0  0  0  0  0
  161.8280  205.7340  148.5410 C   0  0  1  0  0  3  0  0  0  0  0  0
  161.6390  203.1990  148.5700 C   0  0  1  0  0  3  0  0  0  0  0  0
  161.6860  203.1420  149.9630 O   0  0  0  0  0  1  0  0  0  0  0  0
  160.7980  201.7110  147.9180 P   0  0  0  0  0  0  0  0  0  0  0  0
  161.5350  200.3120  148.5220 O   0  0  0  0  0  1  0  0  0  0  0  0
  159.3400  201.7220  148.3140 O   0  0  0  0  0  1  0  0  0  0  0  0
  160.9130  201.7110  146.2310 O   0  0  0  0  0  0  0  0  0  0  0  0
  158.2890  213.7730  151.9450 C   0  0  0  0  0  2  0  0  0  0  0  0
  159.2580  214.2510  150.8740 C   0  0  0  0  0  2  0  0  0  0  0  0
  158.9220  213.6220  149.5330 C   0  0  0  0  0  2  0  0  0  0  0  0
  161.2210  213.1610  148.9890 O   0  0  0  0  0  0  0  0  0  0  0  0
  162.1180  213.1020  146.7270 C   0  0  0  0  0  2  0  0  0  0  0  0
  159.6270  213.2900  147.1590 C   0  0  0  0  0  2  0  0  0  0  0  0
  162.2670  213.6200  148.1670 C   0  0  0  0  0  2  0  0  0  0  0  0
  160.0580  213.8130  148.5380 C   0  0  1  0  0  3  0  0  0  0  0  0
  160.7400  212.4770  146.4890 C   0  0  0  0  0  2  0  0  0  0  0  0
  1  2  2  0  0  0  0
  2  3  1  0  0  0  0
  3  4  2  0  0  0  0
  4  7  1  0  0  0  0
  5 13  1  1  0  0  0
  5  3  1  0  0  0  0
  6  1  1  0  0  0  0
  6  5  1  0  0  0  0
  8  7  1  0  0  0  0
  9 10  1  0  0  0  0
 10 12  1  0  0  0  0
 10  8  1  0  0  0  0
 10 11  1  0  0  0  0
 14 20  1  0  0  0  0
 14 17  1  0  0  0  0
 15 19  1  0  0  0  0
 16 13  1  0  0  0  0
 16 19  1  0  0  0  0
 17 16  1  0  0  0  0
 18 15  1  0  0  0  0
 20 21  1  6  0  0  0
 20 18  1  0  0  0  0
 22 21  2  0  0  0  0
 23 24  1  0  0  0  0
 23 26  1  0  0  0  0
 24 25  1  0  0  0  0
 25 27  1  0  0  0  0
 25 28  1  6  0  0  0
 26 27  1  0  0  0  0
 27 22  1  1  0  0  0
 28 29  1  1  0  0  0
 30 32  1  0  0  0  0
 30 31  1  0  0  0  0
 30 28  1  0  0  0  0
 33 30  2  0  0  0  0
 34  1  1  0  0  0  0
 35 34  1  0  0  0  0
 36 35  1  0  0  0  0
 38 40  1  0  0  0  0
 39 41  1  0  0  0  0
 40 37  1  0  0  0  0
 41 37  1  0  0  0  0
 41 36  1  1  0  0  0
 42 38  1  0  0  0  0
 42 39  1  0  0  0  0
M  END
>  <MODEL>
7

>  <REMARK>
 VINA RESULT:      -5.7      3.675      9.263
  Name = 
  13 active torsions:
  status: ('A' for Active; 'I' for Inactive)
    1  A    between atoms: P_2  and  C_22
    2  A    between atoms: C_5  and  C_41
    3  A    between atoms: C_7  and  C_32
    4  A    between atoms: C_9  and  C_29
    5  A    between atoms: C_10  and  C_22
    6  A    between atoms: N_12  and  C_17
    7  A    between atoms: N_14  and  C_31
    8  A    between atoms: N_23  and  C_28
    9  A    between atoms: C_24  and  C_37
   10  A    between atoms: C_24  and  C_38
   11  A    between atoms: C_25  and  C_31
   12  A    between atoms: C_28  and  C_29
   13  A    between atoms: C_32  and  C_37
                            x       y       z     vdW  Elec       q    Type
                         _______ _______ _______ _____ _____    ______ ____

>  <TORSDO>
F 13

$$$$
=
 OpenBabel11042421493D

 42 45  0  0  1  0  0  0  0  0999 V2000
  162.0570  208.4810  148.5900 C   0  0  0  0  0  0  0  0  0  0  0  0
  162.2510  207.3580  147.9260 C   0  0  0  0  0  3  0  0  0  0  0  0
  161.7230  206.2730  148.7210 C   0  0  0  0  0  0  0  0  0  0  0  0
  161.6830  205.0470  148.3000 N   0  0  0  0  0  0  0  0  0  0  0  0
  161.1830  206.7630  150.0220 C   0  0  2  0  0  3  0  0  0  0  0  0
  161.3600  208.2780  149.9050 C   0  0  0  0  0  2  0  0  0  0  0  0
  161.1090  203.9590  149.0800 C   0  0  0  0  0  2  0  0  0  0  0  0
  160.8410  202.7580  148.1840 C   0  0  0  0  0  2  0  0  0  0  0  0
  161.4320  201.6390  150.2100 F   0  0  0  0  0  0  0  0  0  0  0  0
  160.8790  201.4450  148.9580 C   0  0  0  0  0  0  0  0  0  0  0  0
  159.5870  200.9760  149.1060 F   0  0  0  0  0  0  0  0  0  0  0  0
  161.6210  200.5070  148.2640 F   0  0  0  0  0  0  0  0  0  0  0  0
  162.0330  206.2400  151.1710 C   0  0  0  0  0  2  0  0  0  0  0  0
  160.3360  208.8720  153.0310 C   0  0  0  0  0  2  0  0  0  0  0  0
  161.1940  206.1740  154.7470 C   0  0  0  0  0  2  0  0  0  0  0  0
  161.6100  206.8470  152.4220 N   0  0  0  0  0  0  0  0  0  0  0  0
  160.4340  207.6500  152.1150 C   0  0  0  0  0  2  0  0  0  0  0  0
  160.2210  207.3110  155.0400 C   0  0  0  0  0  2  0  0  0  0  0  0
  161.1560  205.7600  153.2800 C   0  0  0  0  0  2  0  0  0  0  0  0
  160.7640  208.6240  154.4810 C   0  0  2  0  0  3  0  0  0  0  0  0
  160.3090  209.7680  155.3230 C   0  0  0  0  0  3  0  0  0  0  0  0
  159.8100  210.8180  154.7790 N   0  0  0  0  0  0  0  0  0  0  0  0
  157.6200  211.6290  157.2610 C   0  0  0  0  0  2  0  0  0  0  0  0
  157.1380  212.6380  156.2440 C   0  0  0  0  0  2  0  0  0  0  0  0
  158.0570  212.4570  155.0530 C   0  0  2  0  0  3  0  0  0  0  0  0
  159.1090  211.4750  157.0170 C   0  0  0  0  0  2  0  0  0  0  0  0
  159.3750  211.9280  155.5870 C   0  0  1  0  0  3  0  0  0  0  0  0
  158.2240  213.7200  154.2000 C   0  0  1  0  0  3  0  0  0  0  0  0
  159.3280  214.4510  154.6380 O   0  0  0  0  0  1  0  0  0  0  0  0
  158.3670  213.4020  152.4040 P   0  0  0  0  0  0  0  0  0  0  0  0
  156.9700  213.9250  151.6050 O   0  0  0  0  0  0  0  0  0  0  0  0
  159.5680  214.1250  151.8420 O   0  0  0  0  0  1  0  0  0  0  0  0
  158.5550  211.7390  152.1550 O   0  0  0  0  0  1  0  0  0  0  0  0
  162.4950  209.8020  148.0410 C   0  0  0  0  0  2  0  0  0  0  0  0
  162.3460  210.9300  149.0510 C   0  0  0  0  0  2  0  0  0  0  0  0
  162.9980  212.2000  148.5320 C   0  0  0  0  0  2  0  0  0  0  0  0
  162.0100  212.8990  146.4510 O   0  0  0  0  0  0  0  0  0  0  0  0
  159.7620  213.8060  146.2280 C   0  0  0  0  0  2  0  0  0  0  0  0
  160.5800  212.8180  148.4150 C   0  0  0  0  0  2  0  0  0  0  0  0
  161.2560  213.9470  145.8930 C   0  0  0  0  0  2  0  0  0  0  0  0
  161.9800  213.0980  147.8450 C   0  0  1  0  0  3  0  0  0  0  0  0
  159.5220  212.7480  147.3090 C   0  0  0  0  0  2  0  0  0  0  0  0
  1  6  1  0  0  0  0
  2  1  2  0  0  0  0
  2  3  1  0  0  0  0
  3  5  1  0  0  0  0
  4  3  2  0  0  0  0
  4  7  1  0  0  0  0
  5 13  1  1  0  0  0
  6  5  1  0  0  0  0
  8 10  1  0  0  0  0
  8  7  1  0  0  0  0
 10 11  1  0  0  0  0
 10  9  1  0  0  0  0
 12 10  1  0  0  0  0
 13 16  1  0  0  0  0
 14 20  1  0  0  0  0
 15 18  1  0  0  0  0
 16 19  1  0  0  0  0
 17 16  1  0  0  0  0
 17 14  1  0  0  0  0
 19 15  1  0  0  0  0
 20 18  1  0  0  0  0
 20 21  1  1  0  0  0
 22 21  2  0  0  0  0
 24 23  1  0  0  0  0
 25 28  1  1  0  0  0
 25 27  1  0  0  0  0
 25 24  1  0  0  0  0
 26 23  1  0  0  0  0
 27 22  1  6  0  0  0
 27 26  1  0  0  0  0
 28 29  1  1  0  0  0
 30 28  1  0  0  0  0
 31 30  2  0  0  0  0
 32 30  1  0  0  0  0
 33 30  1  0  0  0  0
 34  1  1  0  0  0  0
 34 35  1  0  0  0  0
 36 35  1  0  0  0  0
 37 41  1  0  0  0  0
 38 42  1  0  0  0  0
 40 38  1  0  0  0  0
 40 37  1  0  0  0  0
 41 39  1  0  0  0  0
 41 36  1  1  0  0  0
 42 39  1  0  0  0  0
M  END
>  <MODEL>
8

>  <REMARK>
 VINA RESULT:      -5.4      3.447      6.007
  Name = 
  13 active torsions:
  status: ('A' for Active; 'I' for Inactive)
    1  A    between atoms: P_2  and  C_22
    2  A    between atoms: C_5  and  C_41
    3  A    between atoms: C_7  and  C_32
    4  A    between atoms: C_9  and  C_29
    5  A    between atoms: C_10  and  C_22
    6  A    between atoms: N_12  and  C_17
    7  A    between atoms: N_14  and  C_31
    8  A    between atoms: N_23  and  C_28
    9  A    between atoms: C_24  and  C_37
   10  A    between atoms: C_24  and  C_38
   11  A    between atoms: C_25  and  C_31
   12  A    between atoms: C_28  and  C_29
   13  A    between atoms: C_32  and  C_37
                            x       y       z     vdW  Elec       q    Type
                         _______ _______ _______ _____ _____    ______ ____

>  <TORSDO>
F 13

$$$$
=
 OpenBabel11042421493D

 42 45  0  0  1  0  0  0  0  0999 V2000
  160.4920  203.4110  151.0550 C   0  0  0  0  0  0  0  0  0  0  0  0
  160.7850  203.4680  152.3400 C   0  0  0  0  0  3  0  0  0  0  0  0
  161.0440  204.8490  152.6780 C   0  0  0  0  0  0  0  0  0  0  0  0
  161.2740  205.2460  153.8910 N   0  0  0  0  0  0  0  0  0  0  0  0
  160.9400  205.7320  151.4800 C   0  0  2  0  0  3  0  0  0  0  0  0
  160.5070  204.7550  150.3850 C   0  0  0  0  0  2  0  0  0  0  0  0
  161.4880  206.6430  154.2410 C   0  0  0  0  0  2  0  0  0  0  0  0
  160.1530  207.3310  154.4850 C   0  0  0  0  0  2  0  0  0  0  0  0
  159.5530  208.6660  156.3730 F   0  0  0  0  0  0  0  0  0  0  0  0
  159.7860  207.3650  155.9640 C   0  0  0  0  0  0  0  0  0  0  0  0
  158.6380  206.6220  156.1580 F   0  0  0  0  0  0  0  0  0  0  0  0
  160.8080  206.8200  156.7180 F   0  0  0  0  0  0  0  0  0  0  0  0
  162.3060  206.3080  151.1350 C   0  0  0  0  0  2  0  0  0  0  0  0
  161.9750  209.8660  150.4240 C   0  0  0  0  0  2  0  0  0  0  0  0
  162.6110  207.8990  147.8380 C   0  0  0  0  0  2  0  0  0  0  0  0
  162.1610  207.4130  150.2030 N   0  0  0  0  0  0  0  0  0  0  0  0
  162.6970  208.5910  150.8710 C   0  0  0  0  0  2  0  0  0  0  0  0
  162.7230  209.4080  148.0340 C   0  0  0  0  0  2  0  0  0  0  0  0
  163.0490  207.1330  149.0820 C   0  0  0  0  0  2  0  0  0  0  0  0
  161.5990  209.9040  148.9400 C   0  0  2  0  0  3  0  0  0  0  0  0
  161.2210  211.2990  148.5720 C   0  0  0  0  0  3  0  0  0  0  0  0
  161.2330  212.2310  149.4550 N   0  0  0  0  0  0  0  0  0  0  0  0
  158.5720  214.3600  149.4500 C   0  0  0  0  0  2  0  0  0  0  0  0
  158.8840  214.4400  147.9730 C   0  0  0  0  0  2  0  0  0  0  0  0
  160.1100  213.5700  147.7880 C   0  0  2  0  0  3  0  0  0  0  0  0
  159.9060  214.1540  150.1430 C   0  0  0  0  0  2  0  0  0  0  0  0
  160.8620  213.5780  149.1060 C   0  0  1  0  0  3  0  0  0  0  0  0
  160.9870  213.9780  146.5990 C   0  0  1  0  0  3  0  0  0  0  0  0
  162.2720  213.4540  146.7500 O   0  0  0  0  0  1  0  0  0  0  0  0
  160.3140  213.5000  144.9670 P   0  0  0  0  0  0  0  0  0  0  0  0
  160.0580  211.8290  144.9060 O   0  0  0  0  0  1  0  0  0  0  0  0
  159.0080  214.2180  144.7120 O   0  0  0  0  0  1  0  0  0  0  0  0
  161.4250  213.9320  143.7670 O   0  0  0  0  0  0  0  0  0  0  0  0
  160.1740  202.1140  150.3800 C   0  0  0  0  0  2  0  0  0  0  0  0
  161.3460  201.5770  149.5720 C   0  0  0  0  0  2  0  0  0  0  0  0
  160.8590  200.9770  148.2630 C   0  0  0  0  0  2  0  0  0  0  0  0
  160.1040  202.1620  146.3090 O   0  0  0  0  0  0  0  0  0  0  0  0
  161.2190  204.1060  145.3600 C   0  0  0  0  0  2  0  0  0  0  0  0
  161.9270  203.1330  147.5910 C   0  0  0  0  0  2  0  0  0  0  0  0
  160.5870  202.7260  145.1140 C   0  0  0  0  0  2  0  0  0  0  0  0
  161.2410  201.8560  147.0820 C   0  0  1  0  0  3  0  0  0  0  0  0
  161.4240  204.3780  146.8540 C   0  0  0  0  0  2  0  0  0  0  0  0
  1  2  2  0  0  0  0
  2  3  1  0  0  0  0
  3  4  2  0  0  0  0
  4  7  1  0  0  0  0
  5 13  1  6  0  0  0
  5  3  1  0  0  0  0
  6  1  1  0  0  0  0
  6  5  1  0  0  0  0
  7  8  1  0  0  0  0
  8 10  1  0  0  0  0
 10 11  1  0  0  0  0
 10  9  1  0  0  0  0
 10 12  1  0  0  0  0
 14 17  1  0  0  0  0
 15 18  1  0  0  0  0
 15 19  1  0  0  0  0
 16 17  1  0  0  0  0
 16 13  1  0  0  0  0
 18 20  1  0  0  0  0
 19 16  1  0  0  0  0
 20 21  1  6  0  0  0
 20 14  1  0  0  0  0
 21 22  2  0  0  0  0
 23 26  1  0  0  0  0
 24 23  1  0  0  0  0
 25 28  1  6  0  0  0
 25 24  1  0  0  0  0
 25 27  1  0  0  0  0
 27 22  1  1  0  0  0
 27 26  1  0  0  0  0
 28 29  1  1  0  0  0
 30 28  1  0  0  0  0
 31 30  1  0  0  0  0
 32 30  1  0  0  0  0
 33 30  2  0  0  0  0
 34  1  1  0  0  0  0
 35 34  1  0  0  0  0
 36 35  1  0  0  0  0
 37 41  1  0  0  0  0
 38 42  1  0  0  0  0
 40 38  1  0  0  0  0
 40 37  1  0  0  0  0
 41 39  1  0  0  0  0
 41 36  1  1  0  0  0
 42 39  1  0  0  0  0
M  END
>  <MODEL>
9

>  <REMARK>
 VINA RESULT:      -5.2      4.041      4.765
  Name = 
  13 active torsions:
  status: ('A' for Active; 'I' for Inactive)
    1  A    between atoms: P_2  and  C_22
    2  A    between atoms: C_5  and  C_41
    3  A    between atoms: C_7  and  C_32
    4  A    between atoms: C_9  and  C_29
    5  A    between atoms: C_10  and  C_22
    6  A    between atoms: N_12  and  C_17
    7  A    between atoms: N_14  and  C_31
    8  A    between atoms: N_23  and  C_28
    9  A    between atoms: C_24  and  C_37
   10  A    between atoms: C_24  and  C_38
   11  A    between atoms: C_25  and  C_31
   12  A    between atoms: C_28  and  C_29
   13  A    between atoms: C_32  and  C_37
                            x       y       z     vdW  Elec       q    Type
                         _______ _______ _______ _____ _____    ______ ____

>  <TORSDO>
F 13

$$$$
