=
 OpenBabel11042420433D

 62 68  0  0  1  0  0  0  0  0999 V2000
  159.1370  212.4860  150.8040 C   0  0  1  0  0  3  0  0  0  0  0  0
  160.2690  212.8100  147.7690 N   0  0  0  0  0  0  0  0  0  0  0  0
  160.4550  212.5810  150.1500 N   0  0  0  0  0  0  0  0  0  0  0  0
  159.7460  212.3750  152.1270 C   0  0  2  0  0  3  0  0  0  0  0  0
  158.9600  213.6200  151.7910 C   0  0  2  0  0  3  0  0  0  0  0  0
  160.9990  212.5970  148.8240 C   0  0  0  0  0  0  0  0  0  0  0  0
  161.0050  212.4350  151.4550 N   0  0  0  0  0  2  0  0  0  0  0  0
  156.7460  213.8610  148.4430 N   0  0  0  0  0  0  0  0  0  0  0  0
  157.0530  214.4530  147.1400 C   0  0  0  0  0  3  0  0  0  0  0  0
  157.9590  213.1620  148.8750 C   0  0  0  0  0  2  0  0  0  0  0  0
  158.9030  213.2400  147.7370 C   0  0  0  0  0  0  0  0  0  0  0  0
  158.4160  214.0020  146.7930 C   0  0  0  0  0  0  0  0  0  0  0  0
  159.1720  214.4420  145.5800 C   0  0  0  0  0  2  0  0  0  0  0  0
  157.2810  213.9040  144.2670 O   0  0  0  0  0  0  0  0  0  0  0  0
  158.5000  213.9730  144.3200 C   0  0  0  0  0  0  0  0  0  0  0  0
  159.3990  212.1930  140.3120 N   0  0  0  0  0  2  0  0  0  0  0  0
  161.4300  212.4970  142.5460 C   0  0  0  0  0  2  0  0  0  0  0  0
  161.4730  211.4840  141.4140 C   0  0  1  0  0  3  0  0  0  0  0  0
  160.1250  212.4030  143.3110 C   0  0  0  0  0  2  0  0  0  0  0  0
  159.2950  213.6610  143.0930 C   0  0  1  0  0  3  0  0  0  0  0  0
  158.3790  213.5210  141.8840 C   0  0  0  0  0  2  0  0  0  0  0  0
  159.1570  213.5340  140.6560 N   0  0  0  0  0  2  0  0  0  0  0  0
  160.8370  212.0480  140.1420 C   0  0  1  0  0  3  0  0  0  0  0  0
  162.7950  211.1530  141.1780 F   0  0  0  0  0  0  0  0  0  0  0  0
  161.7000  211.5980  137.9510 O   0  0  0  0  0  0  0  0  0  0  0  0
  160.6840  209.8350  139.0060 O   0  0  0  0  0  1  0  0  0  0  0  0
  161.1050  211.1570  138.9710 C   0  0  0  0  0  0  0  0  0  0  0  0
  157.6410  213.5370  152.3970 N   0  0  0  0  0  2  0  0  0  0  0  0
  157.6960  214.2430  153.6690 C   0  0  0  0  0  2  0  0  0  0  0  0
  156.2480  212.5410  154.5050 O   0  0  0  0  0  0  0  0  0  0  0  0
  157.1590  213.3800  154.7590 C   0  0  0  0  0  0  0  0  0  0  0  0
  157.6920  213.4970  156.0450 O   0  0  0  0  0  0  0  0  0  0  0  0
  157.7910  212.3890  156.9310 C   0  0  0  0  0  2  0  0  0  0  0  0
  159.1300  212.1220  157.2050 O   0  0  0  0  0  0  0  0  0  0  0  0
  159.3070  210.8390  156.8080 N   0  0  0  0  0  2  0  0  0  0  0  0
  160.7840  208.3560  155.5650 C   0  0  1  0  0  3  0  0  0  0  0  0
  160.1510  209.5820  154.8810 C   0  0  2  0  0  3  0  0  0  0  0  0
  161.8070  212.0560  157.2380 N   0  0  0  0  0  1  0  0  0  0  0  0
  160.7520  209.7850  153.6370 O   0  0  0  0  0  1  0  0  0  0  0  0
  162.0940  209.6440  156.9660 C   0  0  0  0  0  2  0  0  0  0  0  0
  162.1050  208.5950  156.0230 O   0  0  0  0  0  0  0  0  0  0  0  0
  160.2900  210.8510  155.7300 C   0  0  2  0  0  3  0  0  0  0  0  0
  161.7090  210.9580  156.2910 C   0  0  1  0  0  3  0  0  0  0  0  0
  159.8890  207.7470  156.6390 C   0  0  0  0  0  1  0  0  0  0  0  0
  162.4240  212.2050  148.6370 C   0  0  0  0  0  2  0  0  0  0  0  0
  162.4990  210.7560  148.1970 C   0  0  0  0  0  2  0  0  0  0  0  0
  161.4030  205.7010  150.0200 N   0  0  0  0  0  0  0  0  0  0  0  0
  161.5320  206.6630  150.8840 C   0  0  0  0  0  0  0  0  0  0  0  0
  161.2180  208.1180  148.2740 C   0  0  0  0  0  3  0  0  0  0  0  0
  161.1340  206.4140  152.2950 C   0  0  0  0  0  1  0  0  0  0  0  0
  162.6190  209.8950  149.3610 N   0  0  0  0  0  2  0  0  0  0  0  0
  162.1070  207.9390  150.5490 N   0  0  0  0  0  0  0  0  0  0  0  0
  161.8640  205.7640  148.6350 C   0  0  2  0  0  3  0  0  0  0  0  0
  162.0140  208.6010  149.4290 C   0  0  0  0  0  0  0  0  0  0  0  0
  161.1140  206.8430  147.9170 C   0  0  0  0  0  3  0  0  0  0  0  0
  161.0300  204.7090  146.6690 C   0  0  0  0  0  2  0  0  0  0  0  0
  160.7130  203.6960  148.7550 C   0  0  0  0  0  2  0  0  0  0  0  0
  160.2700  202.0530  147.0520 O   0  0  0  0  0  0  0  0  0  0  0  0
  161.6710  204.4730  147.9640 N   0  0  2  0  0  0  0  0  0  0  0  0
  161.4360  203.6400  145.6500 C   0  0  0  0  0  2  0  0  0  0  0  0
  161.3860  202.2190  146.2220 C   0  0  0  0  0  2  0  0  0  0  0  0
  160.7550  202.2220  148.3560 C   0  0  0  0  0  2  0  0  0  0  0  0
  1  3  1  6  0  0  0
  1  5  1  0  0  0  0
  1  4  1  0  0  0  0
  2  6  2  0  0  0  0
  3  7  1  0  0  0  0
  4  7  1  6  0  0  0
  5  4  1  0  0  0  0
  5 28  1  1  0  0  0
  6  3  1  0  0  0  0
  8 10  1  0  0  0  0
  9  8  2  0  0  0  0
 11  2  1  0  0  0  0
 11 10  1  0  0  0  0
 12  9  1  0  0  0  0
 12 11  2  0  0  0  0
 13 12  1  0  0  0  0
 14 15  2  0  0  0  0
 15 13  1  0  0  0  0
 16 22  1  0  0  0  0
 17 19  1  0  0  0  0
 18 24  1  6  0  0  0
 18 17  1  0  0  0  0
 20 19  1  0  0  0  0
 20 15  1  1  0  0  0
 21 20  1  0  0  0  0
 22 21  1  0  0  0  0
 23 27  1  6  0  0  0
 23 16  1  0  0  0  0
 23 18  1  0  0  0  0
 25 27  2  0  0  0  0
 27 26  1  0  0  0  0
 28 29  1  0  0  0  0
 29 31  1  0  0  0  0
 30 31  2  0  0  0  0
 31 32  1  0  0  0  0
 32 33  1  0  0  0  0
 33 34  1  0  0  0  0
 35 34  1  0  0  0  0
 36 41  1  0  0  0  0
 36 44  1  1  0  0  0
 37 39  1  6  0  0  0
 37 36  1  0  0  0  0
 37 42  1  0  0  0  0
 41 40  1  0  0  0  0
 42 43  1  0  0  0  0
 42 35  1  1  0  0  0
 43 40  1  0  0  0  0
 43 38  1  1  0  0  0
 45  6  1  0  0  0  0
 46 45  1  0  0  0  0
 46 51  1  0  0  0  0
 47 48  2  0  0  0  0
 48 50  1  0  0  0  0
 49 54  1  0  0  0  0
 51 54  1  0  0  0  0
 52 48  1  0  0  0  0
 53 55  1  6  0  0  0
 53 47  1  0  0  0  0
 54 52  2  0  0  0  0
 55 49  2  0  0  0  0
 58 62  1  0  0  0  0
 59 56  1  6  0  0  0
 59 53  1  0  0  0  0
 59 57  1  0  0  0  0
 60 61  1  0  0  0  0
 60 56  1  0  0  0  0
 61 58  1  0  0  0  0
 62 57  1  0  0  0  0
M  END
>  <MODEL>
1

>  <REMARK>
 VINA RESULT:      -5.7      0.000      0.000
  Name = 
  17 active torsions:
  status: ('A' for Active; 'I' for Inactive)
    1  A    between atoms: C_2  and  N_37
    2  A    between atoms: C_2  and  C_50
    3  A    between atoms: C_5  and  N_18
    4  A    between atoms: C_5  and  C_27
    5  A    between atoms: N_17  and  C_41
    6  A    between atoms: C_22  and  C_33
    7  A    between atoms: C_22  and  C_36
    8  A    between atoms: N_24  and  C_48
    9  A    between atoms: N_24  and  O_53
   10  A    between atoms: C_27  and  C_55
   11  A    between atoms: C_31  and  N_44
   12  A    between atoms: C_33  and  C_57
   13  A    between atoms: N_37  and  C_54
   14  A    between atoms: C_45  and  O_47
   15  A    between atoms: C_45  and  O_53
   16  A    between atoms: O_47  and  C_50
   17  A    between atoms: C_56  and  C_61
                            x       y       z     vdW  Elec       q    Type
                         _______ _______ _______ _____ _____    ______ ____

>  <TORSDO>
F 17

$$$$
=
 OpenBabel11042420433D

 62 68  0  0  1  0  0  0  0  0999 V2000
  159.5980  211.9900  150.7760 C   0  0  1  0  0  3  0  0  0  0  0  0
  161.0370  212.0950  147.8580 N   0  0  0  0  0  0  0  0  0  0  0  0
  160.9490  211.7600  150.2320 N   0  0  0  0  0  0  0  0  0  0  0  0
  160.0400  211.6890  152.1350 C   0  0  2  0  0  3  0  0  0  0  0  0
  159.6310  213.1030  151.8020 C   0  0  2  0  0  3  0  0  0  0  0  0
  161.5930  211.6720  148.9550 C   0  0  0  0  0  0  0  0  0  0  0  0
  161.3270  211.4400  151.5670 N   0  0  0  0  0  2  0  0  0  0  0  0
  157.9160  214.1010  148.3160 N   0  0  0  0  0  0  0  0  0  0  0  0
  158.3740  214.4530  146.9710 C   0  0  0  0  0  3  0  0  0  0  0  0
  158.8990  213.1550  148.8520 C   0  0  0  0  0  2  0  0  0  0  0  0
  159.8340  212.8640  147.7420 C   0  0  0  0  0  0  0  0  0  0  0  0
  159.5700  213.6260  146.7120 C   0  0  0  0  0  0  0  0  0  0  0  0
  160.4200  213.7230  145.4860 C   0  0  0  0  0  2  0  0  0  0  0  0
  158.8350  212.2630  144.5150 O   0  0  0  0  0  0  0  0  0  0  0  0
  159.7900  213.0010  144.3280 C   0  0  0  0  0  0  0  0  0  0  0  0
  160.8720  211.9780  140.1060 N   0  0  0  0  0  2  0  0  0  0  0  0
  162.3490  214.0100  141.8090 C   0  0  0  0  0  2  0  0  0  0  0  0
  162.9130  213.2340  140.6310 C   0  0  1  0  0  3  0  0  0  0  0  0
  161.7770  213.0740  142.8540 C   0  0  0  0  0  2  0  0  0  0  0  0
  160.2640  213.2290  142.9290 C   0  0  1  0  0  3  0  0  0  0  0  0
  159.5590  212.2830  141.9650 C   0  0  0  0  0  2  0  0  0  0  0  0
  159.7730  212.7070  140.5910 N   0  0  0  0  0  2  0  0  0  0  0  0
  161.8310  212.9430  139.5900 C   0  0  1  0  0  3  0  0  0  0  0  0
  163.9290  213.9830  140.0640 F   0  0  0  0  0  0  0  0  0  0  0  0
  162.4330  211.1720  138.0900 O   0  0  0  0  0  1  0  0  0  0  0  0
  163.0050  213.2870  137.4190 O   0  0  0  0  0  0  0  0  0  0  0  0
  162.4330  212.4100  138.3290 C   0  0  0  0  0  0  0  0  0  0  0  0
  158.2870  213.3470  152.2980 N   0  0  0  0  0  2  0  0  0  0  0  0
  158.3610  214.4530  153.2440 C   0  0  0  0  0  2  0  0  0  0  0  0
  157.4210  213.2860  155.1000 O   0  0  0  0  0  0  0  0  0  0  0  0
  158.4040  213.9330  154.6400 C   0  0  0  0  0  0  0  0  0  0  0  0
  159.5490  214.1490  155.4110 O   0  0  0  0  0  0  0  0  0  0  0  0
  159.9480  213.2590  156.4450 C   0  0  0  0  0  2  0  0  0  0  0  0
  161.1310  212.6170  156.0850 O   0  0  0  0  0  0  0  0  0  0  0  0
  160.7270  211.4650  155.5000 N   0  0  0  0  0  2  0  0  0  0  0  0
  161.4940  208.4540  155.0080 C   0  0  1  0  0  3  0  0  0  0  0  0
  161.9430  209.4270  156.1150 C   0  0  2  0  0  3  0  0  0  0  0  0
  158.4080  210.6100  156.8440 N   0  0  0  0  0  1  0  0  0  0  0  0
  162.3380  208.7030  157.2410 O   0  0  0  0  0  1  0  0  0  0  0  0
  159.2480  208.8150  155.4130 C   0  0  0  0  0  2  0  0  0  0  0  0
  160.2510  207.8310  155.2860 O   0  0  0  0  0  0  0  0  0  0  0  0
  160.8310  210.4100  156.5020 C   0  0  2  0  0  3  0  0  0  0  0  0
  159.5010  209.6710  156.6510 C   0  0  1  0  0  3  0  0  0  0  0  0
  161.5430  209.0750  153.6160 C   0  0  0  0  0  1  0  0  0  0  0  0
  162.8810  210.9300  148.8590 C   0  0  0  0  0  2  0  0  0  0  0  0
  162.6090  209.4820  148.5010 C   0  0  0  0  0  2  0  0  0  0  0  0
  161.0560  204.7210  150.7350 N   0  0  0  0  0  0  0  0  0  0  0  0
  161.4700  205.6730  151.5170 C   0  0  0  0  0  0  0  0  0  0  0  0
  160.9670  207.0880  148.9150 C   0  0  0  0  0  3  0  0  0  0  0  0
  161.2730  205.5290  152.9840 C   0  0  0  0  0  1  0  0  0  0  0  0
  162.7820  208.6450  149.6760 N   0  0  0  0  0  2  0  0  0  0  0  0
  162.1730  206.8300  151.0310 N   0  0  0  0  0  0  0  0  0  0  0  0
  161.2900  204.6710  149.2940 C   0  0  2  0  0  3  0  0  0  0  0  0
  162.0040  207.4670  149.9050 C   0  0  0  0  0  0  0  0  0  0  0  0
  160.6100  205.8360  148.6460 C   0  0  0  0  0  3  0  0  0  0  0  0
  160.8820  202.3710  149.7580 C   0  0  0  0  0  2  0  0  0  0  0  0
  161.7150  203.0040  147.6640 C   0  0  0  0  0  2  0  0  0  0  0  0
  160.9040  200.7430  147.4930 O   0  0  0  0  0  0  0  0  0  0  0  0
  160.7950  203.4100  148.7300 N   0  0  2  0  0  0  0  0  0  0  0  0
  159.7930  201.3120  149.5640 C   0  0  0  0  0  2  0  0  0  0  0  0
  159.6500  200.8620  148.1060 C   0  0  0  0  0  2  0  0  0  0  0  0
  161.0760  201.9370  146.7780 C   0  0  0  0  0  2  0  0  0  0  0  0
  1  3  1  6  0  0  0
  1  5  1  0  0  0  0
  1  4  1  0  0  0  0
  2  6  2  0  0  0  0
  3  7  1  0  0  0  0
  4  7  1  6  0  0  0
  5  4  1  0  0  0  0
  5 28  1  1  0  0  0
  6  3  1  0  0  0  0
  8 10  1  0  0  0  0
  9  8  2  0  0  0  0
 11  2  1  0  0  0  0
 11 10  1  0  0  0  0
 12  9  1  0  0  0  0
 12 11  2  0  0  0  0
 13 12  1  0  0  0  0
 15 14  2  0  0  0  0
 15 13  1  0  0  0  0
 16 22  1  0  0  0  0
 17 19  1  0  0  0  0
 18 24  1  6  0  0  0
 18 17  1  0  0  0  0
 19 20  1  0  0  0  0
 20 15  1  1  0  0  0
 21 20  1  0  0  0  0
 22 21  1  0  0  0  0
 23 27  1  6  0  0  0
 23 16  1  0  0  0  0
 23 18  1  0  0  0  0
 25 27  1  0  0  0  0
 26 27  2  0  0  0  0
 28 29  1  0  0  0  0
 29 31  1  0  0  0  0
 31 30  2  0  0  0  0
 31 32  1  0  0  0  0
 32 33  1  0  0  0  0
 34 33  1  0  0  0  0
 35 34  1  0  0  0  0
 36 44  1  6  0  0  0
 36 41  1  0  0  0  0
 36 37  1  0  0  0  0
 37 42  1  0  0  0  0
 37 39  1  1  0  0  0
 40 43  1  0  0  0  0
 41 40  1  0  0  0  0
 42 35  1  6  0  0  0
 42 43  1  0  0  0  0
 43 38  1  6  0  0  0
 45  6  1  0  0  0  0
 46 45  1  0  0  0  0
 46 51  1  0  0  0  0
 47 48  2  0  0  0  0
 48 50  1  0  0  0  0
 49 54  1  0  0  0  0
 51 54  1  0  0  0  0
 52 48  1  0  0  0  0
 53 55  1  6  0  0  0
 53 47  1  0  0  0  0
 54 52  2  0  0  0  0
 55 49  2  0  0  0  0
 58 61  1  0  0  0  0
 59 57  1  6  0  0  0
 59 53  1  0  0  0  0
 59 56  1  0  0  0  0
 60 56  1  0  0  0  0
 61 60  1  0  0  0  0
 62 58  1  0  0  0  0
 62 57  1  0  0  0  0
M  END
>  <MODEL>
2

>  <REMARK>
 VINA RESULT:      -4.1      1.446      2.018
  Name = 
  17 active torsions:
  status: ('A' for Active; 'I' for Inactive)
    1  A    between atoms: C_2  and  N_37
    2  A    between atoms: C_2  and  C_50
    3  A    between atoms: C_5  and  N_18
    4  A    between atoms: C_5  and  C_27
    5  A    between atoms: N_17  and  C_41
    6  A    between atoms: C_22  and  C_33
    7  A    between atoms: C_22  and  C_36
    8  A    between atoms: N_24  and  C_48
    9  A    between atoms: N_24  and  O_53
   10  A    between atoms: C_27  and  C_55
   11  A    between atoms: C_31  and  N_44
   12  A    between atoms: C_33  and  C_57
   13  A    between atoms: N_37  and  C_54
   14  A    between atoms: C_45  and  O_47
   15  A    between atoms: C_45  and  O_53
   16  A    between atoms: O_47  and  C_50
   17  A    between atoms: C_56  and  C_61
                            x       y       z     vdW  Elec       q    Type
                         _______ _______ _______ _____ _____    ______ ____

>  <TORSDO>
F 17

$$$$
=
 OpenBabel11042420433D

 62 68  0  0  1  0  0  0  0  0999 V2000
  163.0500  209.6620  154.0820 C   0  0  1  0  0  3  0  0  0  0  0  0
  161.2760  208.2310  151.7570 N   0  0  0  0  0  0  0  0  0  0  0  0
  162.6560  209.9580  152.6920 N   0  0  0  0  0  0  0  0  0  0  0  0
  163.8080  210.9070  154.1840 C   0  0  2  0  0  3  0  0  0  0  0  0
  162.5520  210.7510  155.0080 C   0  0  2  0  0  3  0  0  0  0  0  0
  161.9910  209.3080  151.6020 C   0  0  0  0  0  0  0  0  0  0  0  0
  163.4350  211.1420  152.8250 N   0  0  0  0  0  2  0  0  0  0  0  0
  159.6530  207.1770  154.9540 N   0  0  0  0  0  0  0  0  0  0  0  0
  160.4260  206.0030  154.5410 C   0  0  0  0  0  2  0  0  0  0  0  0
  159.8600  208.1920  153.9190 C   0  0  0  0  0  3  0  0  0  0  0  0
  160.8730  207.6350  152.9940 C   0  0  0  0  0  0  0  0  0  0  0  0
  161.1490  206.3970  153.3140 C   0  0  0  0  0  0  0  0  0  0  0  0
  161.9950  205.4750  152.4950 C   0  0  0  0  0  2  0  0  0  0  0  0
  160.1490  204.1380  151.8670 O   0  0  0  0  0  0  0  0  0  0  0  0
  161.1640  204.7130  151.5010 C   0  0  0  0  0  0  0  0  0  0  0  0
  160.8320  205.7550  147.1600 N   0  0  0  0  0  2  0  0  0  0  0  0
  161.6620  203.0310  148.2100 C   0  0  0  0  0  2  0  0  0  0  0  0
  161.0300  203.3280  146.8600 C   0  0  1  0  0  3  0  0  0  0  0  0
  160.8040  203.5610  149.3400 C   0  0  0  0  0  2  0  0  0  0  0  0
  161.5130  204.7070  150.0480 C   0  0  1  0  0  3  0  0  0  0  0  0
  161.1750  206.0490  149.4120 C   0  0  0  0  0  2  0  0  0  0  0  0
  161.7940  206.1600  148.1020 N   0  0  0  0  0  2  0  0  0  0  0  0
  161.4400  204.7110  146.3490 C   0  0  1  0  0  3  0  0  0  0  0  0
  161.4360  202.3520  145.9670 F   0  0  0  0  0  0  0  0  0  0  0  0
  161.7030  205.6290  144.1500 O   0  0  0  0  0  0  0  0  0  0  0  0
  159.8890  204.2620  144.4510 O   0  0  0  0  0  1  0  0  0  0  0  0
  161.0290  204.8960  144.9230 C   0  0  0  0  0  0  0  0  0  0  0  0
  162.9110  210.4250  156.3790 N   0  0  0  0  0  2  0  0  0  0  0  0
  162.3010  211.4260  157.2440 C   0  0  0  0  0  2  0  0  0  0  0  0
  160.2890  210.1450  157.1870 O   0  0  0  0  0  0  0  0  0  0  0  0
  160.8170  211.2930  157.2160 C   0  0  0  0  0  0  0  0  0  0  0  0
  160.0300  212.4470  157.2480 O   0  0  0  0  0  0  0  0  0  0  0  0
  160.4980  213.6990  156.7650 C   0  0  0  0  0  2  0  0  0  0  0  0
  159.4340  214.4280  156.2360 O   0  0  0  0  0  0  0  0  0  0  0  0
  158.3930  213.5630  156.2480 N   0  0  0  0  0  2  0  0  0  0  0  0
  155.5420  212.4560  155.5100 C   0  0  1  0  0  3  0  0  0  0  0  0
  156.1900  213.8190  155.2030 C   0  0  2  0  0  3  0  0  0  0  0  0
  159.4340  212.2730  153.9760 N   0  0  0  0  0  1  0  0  0  0  0  0
  155.5880  214.3800  154.0740 O   0  0  0  0  0  1  0  0  0  0  0  0
  157.2960  211.2630  154.5970 C   0  0  0  0  0  2  0  0  0  0  0  0
  155.8980  211.4490  154.5790 O   0  0  0  0  0  0  0  0  0  0  0  0
  157.7010  213.6990  154.9710 C   0  0  2  0  0  3  0  0  0  0  0  0
  158.0020  212.5060  154.0620 C   0  0  1  0  0  3  0  0  0  0  0  0
  155.7400  212.0170  156.9570 C   0  0  0  0  0  1  0  0  0  0  0  0
  162.2530  209.7950  150.2190 C   0  0  0  0  0  2  0  0  0  0  0  0
  162.0700  211.2980  150.1650 C   0  0  0  0  0  2  0  0  0  0  0  0
  159.7320  213.9670  145.9830 N   0  0  0  0  0  0  0  0  0  0  0  0
  159.0340  213.7540  147.0580 C   0  0  0  0  0  0  0  0  0  0  0  0
  161.8510  213.2050  147.9470 C   0  0  0  0  0  3  0  0  0  0  0  0
  157.7290  214.4520  147.2120 C   0  0  0  0  0  1  0  0  0  0  0  0
  160.7830  211.6160  149.5710 N   0  0  0  0  0  2  0  0  0  0  0  0
  159.4350  212.8200  148.0760 N   0  0  0  0  0  0  0  0  0  0  0  0
  160.9660  213.2620  145.6440 C   0  0  2  0  0  3  0  0  0  0  0  0
  160.6410  212.5350  148.4840 C   0  0  0  0  0  0  0  0  0  0  0  0
  162.0050  213.5660  146.6770 C   0  0  0  0  0  3  0  0  0  0  0  0
  160.6740  212.9140  143.3060 C   0  0  0  0  0  2  0  0  0  0  0  0
  162.8270  213.2020  144.1770 C   0  0  0  0  0  2  0  0  0  0  0  0
  162.9440  213.4840  141.7890 O   0  0  0  0  0  0  0  0  0  0  0  0
  161.4390  213.6540  144.3110 N   0  0  2  0  0  0  0  0  0  0  0  0
  160.5470  213.7180  142.0080 C   0  0  0  0  0  2  0  0  0  0  0  0
  161.8700  214.3560  141.5700 C   0  0  0  0  0  2  0  0  0  0  0  0
  163.5100  213.8990  143.0030 C   0  0  0  0  0  2  0  0  0  0  0  0
  1  3  1  6  0  0  0
  1  4  1  0  0  0  0
  1  5  1  0  0  0  0
  2 11  1  0  0  0  0
  3  7  1  0  0  0  0
  4  7  1  6  0  0  0
  4  5  1  0  0  0  0
  5 28  1  1  0  0  0
  6  2  2  0  0  0  0
  6  3  1  0  0  0  0
  9  8  1  0  0  0  0
 10  8  2  0  0  0  0
 11 12  2  0  0  0  0
 11 10  1  0  0  0  0
 12  9  1  0  0  0  0
 13 12  1  0  0  0  0
 15 14  2  0  0  0  0
 15 13  1  0  0  0  0
 16 22  1  0  0  0  0
 17 19  1  0  0  0  0
 18 24  1  6  0  0  0
 18 17  1  0  0  0  0
 19 20  1  0  0  0  0
 20 15  1  1  0  0  0
 21 20  1  0  0  0  0
 22 21  1  0  0  0  0
 23 27  1  6  0  0  0
 23 18  1  0  0  0  0
 23 16  1  0  0  0  0
 25 27  2  0  0  0  0
 26 27  1  0  0  0  0
 28 29  1  0  0  0  0
 30 31  2  0  0  0  0
 31 29  1  0  0  0  0
 31 32  1  0  0  0  0
 33 32  1  0  0  0  0
 34 35  1  0  0  0  0
 34 33  1  0  0  0  0
 36 44  1  1  0  0  0
 37 39  1  6  0  0  0
 37 36  1  0  0  0  0
 41 40  1  0  0  0  0
 41 36  1  0  0  0  0
 42 37  1  0  0  0  0
 42 35  1  1  0  0  0
 43 38  1  1  0  0  0
 43 40  1  0  0  0  0
 43 42  1  0  0  0  0
 45  6  1  0  0  0  0
 46 45  1  0  0  0  0
 47 48  2  0  0  0  0
 48 50  1  0  0  0  0
 48 52  1  0  0  0  0
 49 54  1  0  0  0  0
 51 46  1  0  0  0  0
 52 54  2  0  0  0  0
 53 47  1  0  0  0  0
 53 55  1  1  0  0  0
 54 51  1  0  0  0  0
 55 49  2  0  0  0  0
 57 59  1  0  0  0  0
 58 62  1  0  0  0  0
 59 56  1  6  0  0  0
 59 53  1  0  0  0  0
 60 56  1  0  0  0  0
 61 58  1  0  0  0  0
 61 60  1  0  0  0  0
 62 57  1  0  0  0  0
M  END
>  <MODEL>
3

>  <REMARK>
 VINA RESULT:      -3.8      2.686      8.168
  Name = 
  17 active torsions:
  status: ('A' for Active; 'I' for Inactive)
    1  A    between atoms: C_2  and  N_37
    2  A    between atoms: C_2  and  C_50
    3  A    between atoms: C_5  and  N_18
    4  A    between atoms: C_5  and  C_27
    5  A    between atoms: N_17  and  C_41
    6  A    between atoms: C_22  and  C_33
    7  A    between atoms: C_22  and  C_36
    8  A    between atoms: N_24  and  C_48
    9  A    between atoms: N_24  and  O_53
   10  A    between atoms: C_27  and  C_55
   11  A    between atoms: C_31  and  N_44
   12  A    between atoms: C_33  and  C_57
   13  A    between atoms: N_37  and  C_54
   14  A    between atoms: C_45  and  O_47
   15  A    between atoms: C_45  and  O_53
   16  A    between atoms: O_47  and  C_50
   17  A    between atoms: C_56  and  C_61
                            x       y       z     vdW  Elec       q    Type
                         _______ _______ _______ _____ _____    ______ ____

>  <TORSDO>
F 17

$$$$
