=
 OpenBabel11042421003D

 60 62  0  0  1  0  0  0  0  0999 V2000
  161.4830  209.8350  150.9350 C   0  0  0  0  0  3  0  0  0  0  0  0
  161.5390  209.1780  152.1630 C   0  0  0  0  0  0  0  0  0  0  0  0
  160.7190  211.8710  152.0340 C   0  0  0  0  0  0  0  0  0  0  0  0
  161.2000  209.8710  153.3300 C   0  0  0  0  0  3  0  0  0  0  0  0
  160.7770  211.2060  153.2790 C   0  0  0  0  0  0  0  0  0  0  0  0
  161.0710  211.1750  150.8530 C   0  0  0  0  0  0  0  0  0  0  0  0
  161.0430  211.8650  149.5510 C   0  0  0  0  0  2  0  0  0  0  0  0
  161.7720  211.2980  148.2270 S   0  0  0  0  0  0  0  0  0  0  0  0
  160.7660  213.7750  145.4700 C   0  0  0  0  0  3  0  0  0  0  0  0
  160.5910  212.6120  146.1250 N   0  0  0  0  0  0  0  0  0  0  0  0
  161.5540  212.6120  147.0610 C   0  0  0  0  0  0  0  0  0  0  0  0
  162.3290  213.7080  147.0390 N   0  0  0  0  0  2  0  0  0  0  0  0
  161.8320  214.4480  146.0300 C   0  0  0  0  0  3  0  0  0  0  0  0
  161.4560  211.7350  155.6160 C   0  0  0  0  0  1  0  0  0  0  0  0
  160.3800  211.9060  154.5530 C   0  0  2  0  0  3  0  0  0  0  0  0
  159.1610  211.4110  155.0210 O   0  0  0  0  0  0  0  0  0  0  0  0
  159.4150  210.9860  156.3260 C   0  0  0  0  0  2  0  0  0  0  0  0
  158.3150  211.4710  157.2590 C   0  0  0  0  0  2  0  0  0  0  0  0
  157.2910  212.3350  156.5350 C   0  0  0  0  0  2  0  0  0  0  0  0
  155.8700  211.9100  156.8720 C   0  0  1  0  0  3  0  0  0  0  0  0
  155.0490  213.0220  156.9240 F   0  0  0  0  0  0  0  0  0  0  0  0
  153.8970  209.9430  156.1890 O   0  0  0  0  0  1  0  0  0  0  0  0
  154.8140  211.6580  154.2300 O   0  0  0  0  0  0  0  0  0  0  0  0
  155.2510  210.7730  155.6020 P   0  0  0  0  0  0  0  0  0  0  0  0
  156.3300  209.7810  155.2370 O   0  0  0  0  0  1  0  0  0  0  0  0
  160.3200  213.3210  151.9720 C   0  0  0  0  0  2  0  0  0  0  0  0
  158.0650  214.2660  152.8810 C   0  0  0  0  0  2  0  0  0  0  0  0
  156.5570  213.9020  152.8890 C   0  0  0  0  0  2  0  0  0  0  0  0
  157.2580  213.3320  149.8990 C   0  0  0  0  0  3  0  0  0  0  0  0
  156.0280  214.0130  150.3590 C   0  0  0  0  0  0  0  0  0  0  0  0
  155.7610  214.3150  151.6530 C   0  0  0  0  0  3  0  0  0  0  0  0
  155.0410  214.4350  149.3290 C   0  0  0  0  0  1  0  0  0  0  0  0
  158.2150  213.2860  150.7640 C   0  0  0  0  0  0  0  0  0  0  0  0
  158.8380  213.4550  151.8810 C   0  0  0  0  0  0  0  0  0  0  0  0
  162.0810  207.7850  152.2160 C   0  0  0  0  0  2  0  0  0  0  0  0
  162.7430  207.3460  150.9110 C   0  0  0  0  0  2  0  0  0  0  0  0
  161.1330  206.5530  149.1670 C   0  0  0  0  0  0  0  0  0  0  0  0
  161.9930  206.2640  150.2760 N   0  0  0  0  0  0  0  0  0  0  0  0
  161.0240  207.8540  148.6860 O   0  0  0  0  0  1  0  0  0  0  0  0
  160.4600  205.6360  148.6230 O   0  0  0  0  0  0  0  0  0  0  0  0
  162.1290  204.8960  150.7730 C   0  0  0  0  0  2  0  0  0  0  0  0
  160.9430  204.4600  151.6330 C   0  0  2  0  0  3  0  0  0  0  0  0
  160.8820  205.1810  152.8310 O   0  0  0  0  0  1  0  0  0  0  0  0
  160.0960  202.6260  152.9590 O   0  0  0  0  0  1  0  0  0  0  0  0
  160.9150  202.9480  151.8750 C   0  0  1  0  0  3  0  0  0  0  0  0
  160.4710  202.1840  150.6300 C   0  0  2  0  0  3  0  0  0  0  0  0
  160.6850  200.8160  150.8100 O   0  0  0  0  0  1  0  0  0  0  0  0
  161.1630  202.6340  149.5000 O   0  0  0  0  0  0  0  0  0  0  0  0
  158.9400  201.2650  148.3330 C   0  0  0  0  0  1  0  0  0  0  0  0
  160.7130  201.6180  148.2170 P   0  0  2  0  0  0  0  0  0  0  0  0
  161.4720  200.3200  148.3400 O   0  0  0  0  0  0  0  0  0  0  0  0
  161.0660  202.3920  146.5920 C   0  0  1  0  0  3  0  0  0  0  0  0
  160.3040  201.8340  145.4180 C   0  0  0  0  0  0  0  0  0  0  0  0
  160.5290  200.6700  145.0010 O   0  0  0  0  0  1  0  0  0  0  0  0
  159.3110  202.6010  144.8200 O   0  0  0  0  0  0  0  0  0  0  0  0
  161.2120  203.8000  146.6240 O   0  0  0  0  0  0  0  0  0  0  0  0
  163.5720  204.3450  145.3420 O   0  0  0  0  0  0  0  0  0  0  0  0
  162.0630  204.3400  145.2480 P   0  0  2  0  0  4  0  0  0  0  0  0
  161.5710  205.9660  145.0000 O   0  0  0  0  0  1  0  0  0  0  0  0
  161.3200  205.2330  143.9890 O   0  0  0  0  0  0  0  0  0  0  0  0
  1  2  1  0  0  0  0
  2 35  1  0  0  0  0
  2  4  2  0  0  0  0
  3  5  2  0  0  0  0
  5  4  1  0  0  0  0
  5 15  1  0  0  0  0
  6  1  2  0  0  0  0
  6  3  1  0  0  0  0
  7  6  1  0  0  0  0
  8  7  1  0  0  0  0
  9 13  2  0  0  0  0
  9 10  1  0  0  0  0
 10 11  2  0  0  0  0
 11  8  1  0  0  0  0
 12 11  1  0  0  0  0
 13 12  1  0  0  0  0
 15 16  1  0  0  0  0
 15 14  1  1  0  0  0
 16 17  1  0  0  0  0
 17 18  1  0  0  0  0
 19 20  1  0  0  0  0
 19 18  1  0  0  0  0
 20 21  1  6  0  0  0
 23 24  2  0  0  0  0
 24 22  1  0  0  0  0
 24 20  1  0  0  0  0
 25 24  1  0  0  0  0
 26  3  1  0  0  0  0
 27 28  1  0  0  0  0
 29 30  1  0  0  0  0
 29 33  2  0  0  0  0
 30 31  2  0  0  0  0
 31 28  1  0  0  0  0
 32 30  1  0  0  0  0
 33 34  2  0  0  0  0
 34 26  1  0  0  0  0
 34 27  1  0  0  0  0
 36 35  1  0  0  0  0
 37 38  1  0  0  0  0
 38 41  1  0  0  0  0
 38 36  1  0  0  0  0
 39 37  1  0  0  0  0
 40 37  2  0  0  0  0
 41 42  1  0  0  0  0
 42 45  1  0  0  0  0
 42 43  1  1  0  0  0
 45 44  1  1  0  0  0
 46 47  1  1  0  0  0
 46 45  1  0  0  0  0
 48 46  1  0  0  0  0
 50 49  1  1  0  0  0
 50 51  2  0  0  0  0
 50 48  1  0  0  0  0
 52 53  1  6  0  0  0
 52 56  1  0  0  0  0
 52 50  1  0  0  0  0
 54 53  1  0  0  0  0
 55 53  2  0  0  0  0
 58 57  2  1  0  0  0
 58 56  1  0  0  0  0
 60 59  1  0  0  0  0
 60 58  1  0  0  0  0
M  END
>  <MODEL>
1

>  <REMARK>
 VINA RESULT:      -3.5      0.000      0.000
  Name = 
  24 active torsions:
  status: ('A' for Active; 'I' for Inactive)
    1  A    between atoms: C_4  and  C_10
    2  A    between atoms: C_4  and  C_29
    3  A    between atoms: C_6  and  C_56
    4  A    between atoms: O_8  and  C_33
    5  A    between atoms: O_8  and  P_51
    6  A    between atoms: C_10  and  C_48
    7  A    between atoms: C_12  and  N_35
    8  A    between atoms: C_12  and  C_60
    9  A    between atoms: C_13  and  S_22
   10  A    between atoms: C_14  and  C_45
   11  A    between atoms: C_19  and  C_30
   12  A    between atoms: C_19  and  C_53
   13  A    between atoms: C_20  and  C_60
   14  A    between atoms: P_24  and  O_25
   15  A    between atoms: O_25  and  C_56
   16  A    between atoms: C_26  and  C_32
   17  A    between atoms: C_26  and  O_47
   18  A    between atoms: C_27  and  C_40
   19  A    between atoms: C_29  and  P_38
   20  A    between atoms: C_30  and  C_33
   21  A    between atoms: N_35  and  C_53
   22  A    between atoms: C_40  and  C_55
   23  A    between atoms: O_47  and  C_48
   24  A    between atoms: P_51  and  C_56
                            x       y       z     vdW  Elec       q    Type
                         _______ _______ _______ _____ _____    ______ ____

>  <TORSDO>
F 24

$$$$
=
 OpenBabel11042421003D

 60 62  0  0  1  0  0  0  0  0999 V2000
  161.3010  208.8880  150.0770 C   0  0  0  0  0  3  0  0  0  0  0  0
  161.0230  209.8290  151.0660 C   0  0  0  0  0  0  0  0  0  0  0  0
  161.9260  207.2550  151.7740 C   0  0  0  0  0  0  0  0  0  0  0  0
  161.1810  209.4790  152.4110 C   0  0  0  0  0  3  0  0  0  0  0  0
  161.6430  208.2080  152.7770 C   0  0  0  0  0  0  0  0  0  0  0  0
  161.7570  207.6020  150.4130 C   0  0  0  0  0  0  0  0  0  0  0  0
  162.0210  206.6080  149.3560 C   0  0  0  0  0  2  0  0  0  0  0  0
  162.6080  206.9890  147.9020 S   0  0  0  0  0  0  0  0  0  0  0  0
  163.0710  203.8260  145.7740 C   0  0  0  0  0  3  0  0  0  0  0  0
  163.5120  205.0190  146.2160 N   0  0  0  0  0  0  0  0  0  0  0  0
  162.5340  205.4500  147.0300 C   0  0  0  0  0  0  0  0  0  0  0  0
  161.5010  204.5990  147.1320 N   0  0  0  0  0  2  0  0  0  0  0  0
  161.8380  203.5670  146.3350 C   0  0  0  0  0  3  0  0  0  0  0  0
  160.8550  206.8140  154.6850 C   0  0  0  0  0  1  0  0  0  0  0  0
  161.8400  207.8830  154.2360 C   0  0  2  0  0  3  0  0  0  0  0  0
  161.6890  209.0330  155.0150 O   0  0  0  0  0  0  0  0  0  0  0  0
  161.8280  208.6020  156.3350 C   0  0  0  0  0  2  0  0  0  0  0  0
  160.9790  209.4620  157.2600 C   0  0  0  0  0  2  0  0  0  0  0  0
  160.9920  210.9280  156.8490 C   0  0  0  0  0  2  0  0  0  0  0  0
  159.9690  211.2040  155.7580 C   0  0  1  0  0  3  0  0  0  0  0  0
  158.9920  210.2240  155.7730 F   0  0  0  0  0  0  0  0  0  0  0  0
  160.3000  213.8630  156.7830 O   0  0  0  0  0  1  0  0  0  0  0  0
  158.7200  213.4740  154.5530 O   0  0  0  0  0  0  0  0  0  0  0  0
  159.1930  212.8200  156.0380 P   0  0  0  0  0  0  0  0  0  0  0  0
  157.9810  212.6560  156.9240 O   0  0  0  0  0  1  0  0  0  0  0  0
  162.3690  205.8680  152.1560 C   0  0  0  0  0  2  0  0  0  0  0  0
  160.4860  205.2130  150.4720 C   0  0  0  0  0  2  0  0  0  0  0  0
  159.3800  204.1390  150.3070 C   0  0  0  0  0  2  0  0  0  0  0  0
  161.7760  202.3450  151.2000 C   0  0  0  0  0  3  0  0  0  0  0  0
  160.8180  201.9970  150.1270 C   0  0  0  0  0  0  0  0  0  0  0  0
  159.8210  202.8090  149.7020 C   0  0  0  0  0  3  0  0  0  0  0  0
  160.9920  200.6890  149.4400 C   0  0  0  0  0  1  0  0  0  0  0  0
  161.7980  203.5930  151.5300 C   0  0  0  0  0  0  0  0  0  0  0  0
  161.4810  204.8440  151.5350 C   0  0  0  0  0  0  0  0  0  0  0  0
  160.4420  211.1490  150.6690 C   0  0  0  0  0  2  0  0  0  0  0  0
  161.4840  212.1240  150.1220 C   0  0  0  0  0  2  0  0  0  0  0  0
  159.8920  213.8110  149.1850 C   0  0  0  0  0  0  0  0  0  0  0  0
  160.9580  212.8750  148.9840 N   0  0  0  0  0  0  0  0  0  0  0  0
  159.3720  214.0170  150.4580 O   0  0  0  0  0  1  0  0  0  0  0  0
  159.4090  214.4500  148.2100 O   0  0  0  0  0  0  0  0  0  0  0  0
  161.5240  212.6700  147.6520 C   0  0  0  0  0  2  0  0  0  0  0  0
  160.4790  212.7820  146.5430 C   0  0  2  0  0  3  0  0  0  0  0  0
  160.0170  211.5240  146.1390 O   0  0  0  0  0  1  0  0  0  0  0  0
  162.1120  213.0590  144.7830 O   0  0  0  0  0  1  0  0  0  0  0  0
  160.9680  213.6180  145.3560 C   0  0  1  0  0  3  0  0  0  0  0  0
  159.8790  213.7930  144.3010 C   0  0  2  0  0  3  0  0  0  0  0  0
  158.6630  214.0950  144.9170 O   0  0  0  0  0  1  0  0  0  0  0  0
  159.7510  212.6350  143.5260 O   0  0  0  0  0  0  0  0  0  0  0  0
  161.2270  214.0730  141.5440 C   0  0  0  0  0  1  0  0  0  0  0  0
  159.7210  213.1350  141.9040 P   0  0  2  0  0  0  0  0  0  0  0  0
  158.5300  214.0390  141.6990 O   0  0  0  0  0  0  0  0  0  0  0  0
  159.6170  211.7030  140.7620 C   0  0  1  0  0  3  0  0  0  0  0  0
  158.8950  211.9490  139.4630 C   0  0  0  0  0  0  0  0  0  0  0  0
  157.9190  211.2310  139.1240 O   0  0  0  0  0  1  0  0  0  0  0  0
  159.2840  213.0090  138.6540 O   0  0  0  0  0  0  0  0  0  0  0  0
  160.7960  210.9240  140.6790 O   0  0  0  0  0  0  0  0  0  0  0  0
  161.3800  210.4130  138.0500 O   0  0  0  0  0  0  0  0  0  0  0  0
  161.6520  211.2920  139.2490 P   0  0  2  0  0  4  0  0  0  0  0  0
  163.3140  211.1120  139.6390 O   0  0  0  0  0  1  0  0  0  0  0  0
  163.0450  212.2890  139.2330 O   0  0  0  0  0  0  0  0  0  0  0  0
  1  6  2  0  0  0  0
  1  2  1  0  0  0  0
  2  4  2  0  0  0  0
  3 26  1  0  0  0  0
  3  5  2  0  0  0  0
  4  5  1  0  0  0  0
  5 15  1  0  0  0  0
  6  3  1  0  0  0  0
  7  6  1  0  0  0  0
  8  7  1  0  0  0  0
  9 10  1  0  0  0  0
  9 13  2  0  0  0  0
 10 11  2  0  0  0  0
 11 12  1  0  0  0  0
 11  8  1  0  0  0  0
 13 12  1  0  0  0  0
 15 14  1  1  0  0  0
 15 16  1  0  0  0  0
 16 17  1  0  0  0  0
 17 18  1  0  0  0  0
 19 18  1  0  0  0  0
 20 21  1  1  0  0  0
 20 24  1  0  0  0  0
 20 19  1  0  0  0  0
 23 24  2  0  0  0  0
 24 22  1  0  0  0  0
 24 25  1  0  0  0  0
 27 34  1  0  0  0  0
 28 27  1  0  0  0  0
 29 33  2  0  0  0  0
 30 29  1  0  0  0  0
 31 30  2  0  0  0  0
 31 28  1  0  0  0  0
 32 30  1  0  0  0  0
 33 34  2  0  0  0  0
 34 26  1  0  0  0  0
 35  2  1  0  0  0  0
 36 35  1  0  0  0  0
 37 39  1  0  0  0  0
 38 37  1  0  0  0  0
 38 36  1  0  0  0  0
 40 37  2  0  0  0  0
 41 38  1  0  0  0  0
 42 43  1  6  0  0  0
 42 41  1  0  0  0  0
 45 44  1  6  0  0  0
 45 42  1  0  0  0  0
 46 47  1  1  0  0  0
 46 45  1  0  0  0  0
 48 46  1  0  0  0  0
 50 49  1  6  0  0  0
 50 48  1  0  0  0  0
 51 50  2  0  0  0  0
 52 53  1  6  0  0  0
 52 50  1  0  0  0  0
 54 53  1  0  0  0  0
 55 53  2  0  0  0  0
 56 52  1  0  0  0  0
 58 57  2  1  0  0  0
 58 56  1  0  0  0  0
 60 58  1  0  0  0  0
 60 59  1  0  0  0  0
M  END
>  <MODEL>
2

>  <REMARK>
 VINA RESULT:      -2.3      4.876      9.020
  Name = 
  24 active torsions:
  status: ('A' for Active; 'I' for Inactive)
    1  A    between atoms: C_4  and  C_10
    2  A    between atoms: C_4  and  C_29
    3  A    between atoms: C_6  and  C_56
    4  A    between atoms: O_8  and  C_33
    5  A    between atoms: O_8  and  P_51
    6  A    between atoms: C_10  and  C_48
    7  A    between atoms: C_12  and  N_35
    8  A    between atoms: C_12  and  C_60
    9  A    between atoms: C_13  and  S_22
   10  A    between atoms: C_14  and  C_45
   11  A    between atoms: C_19  and  C_30
   12  A    between atoms: C_19  and  C_53
   13  A    between atoms: C_20  and  C_60
   14  A    between atoms: P_24  and  O_25
   15  A    between atoms: O_25  and  C_56
   16  A    between atoms: C_26  and  C_32
   17  A    between atoms: C_26  and  O_47
   18  A    between atoms: C_27  and  C_40
   19  A    between atoms: C_29  and  P_38
   20  A    between atoms: C_30  and  C_33
   21  A    between atoms: N_35  and  C_53
   22  A    between atoms: C_40  and  C_55
   23  A    between atoms: O_47  and  C_48
   24  A    between atoms: P_51  and  C_56
                            x       y       z     vdW  Elec       q    Type
                         _______ _______ _______ _____ _____    ______ ____

>  <TORSDO>
F 24

$$$$
=
 OpenBabel11042421003D

 60 62  0  0  1  0  0  0  0  0999 V2000
  161.1440  208.9930  150.3170 C   0  0  0  0  0  3  0  0  0  0  0  0
  160.7670  209.7530  151.4230 C   0  0  0  0  0  0  0  0  0  0  0  0
  161.8980  207.1970  151.7810 C   0  0  0  0  0  0  0  0  0  0  0  0
  160.9420  209.2300  152.7090 C   0  0  0  0  0  3  0  0  0  0  0  0
  161.5160  207.9660  152.9010 C   0  0  0  0  0  0  0  0  0  0  0  0
  161.7140  207.7200  150.4780 C   0  0  0  0  0  0  0  0  0  0  0  0
  162.0820  206.9160  149.2980 C   0  0  0  0  0  2  0  0  0  0  0  0
  162.0060  207.4710  147.7840 S   0  0  0  0  0  0  0  0  0  0  0  0
  163.2410  204.1960  146.2040 C   0  0  0  0  0  3  0  0  0  0  0  0
  163.2660  205.1030  147.1990 N   0  0  0  0  0  0  0  0  0  0  0  0
  162.3780  206.0360  146.8180 C   0  0  0  0  0  0  0  0  0  0  0  0
  161.7900  205.7720  145.6400 N   0  0  0  0  0  2  0  0  0  0  0  0
  162.3360  204.6050  145.2480 C   0  0  0  0  0  3  0  0  0  0  0  0
  160.5630  206.5710  154.7310 C   0  0  0  0  0  1  0  0  0  0  0  0
  161.7260  207.4540  154.3030 C   0  0  2  0  0  3  0  0  0  0  0  0
  161.8710  208.5200  155.1940 O   0  0  0  0  0  0  0  0  0  0  0  0
  161.5070  208.0090  156.4400 C   0  0  0  0  0  2  0  0  0  0  0  0
  160.4710  208.9110  157.0960 C   0  0  0  0  0  2  0  0  0  0  0  0
  159.4790  209.4690  156.0840 C   0  0  0  0  0  2  0  0  0  0  0  0
  159.4950  210.9910  156.0760 C   0  0  1  0  0  3  0  0  0  0  0  0
  160.6090  211.4430  155.3920 F   0  0  0  0  0  0  0  0  0  0  0  0
  156.6270  211.0060  156.0380 O   0  0  0  0  0  1  0  0  0  0  0  0
  157.9890  213.3050  155.3420 O   0  0  0  0  0  1  0  0  0  0  0  0
  158.0010  211.6160  155.2590 P   0  0  0  0  0  0  0  0  0  0  0  0
  157.9930  211.1840  153.8120 O   0  0  0  0  0  0  0  0  0  0  0  0
  162.4650  205.8160  151.9720 C   0  0  0  0  0  2  0  0  0  0  0  0
  161.1060  204.9960  149.9010 C   0  0  0  0  0  2  0  0  0  0  0  0
  159.8900  204.0900  149.5780 C   0  0  0  0  0  2  0  0  0  0  0  0
  161.4020  202.2890  151.6350 C   0  0  0  0  0  3  0  0  0  0  0  0
  160.7750  201.7980  150.3870 C   0  0  0  0  0  0  0  0  0  0  0  0
  160.1780  202.5940  149.4690 C   0  0  0  0  0  3  0  0  0  0  0  0
  160.8480  200.3400  150.1030 C   0  0  0  0  0  1  0  0  0  0  0  0
  161.6090  203.5630  151.6790 C   0  0  0  0  0  0  0  0  0  0  0  0
  161.6050  204.7980  151.3040 C   0  0  0  0  0  0  0  0  0  0  0  0
  160.0700  211.0590  151.2030 C   0  0  0  0  0  2  0  0  0  0  0  0
  161.0280  212.2040  150.8780 C   0  0  0  0  0  2  0  0  0  0  0  0
  159.0710  213.6130  150.2100 C   0  0  0  0  0  0  0  0  0  0  0  0
  160.4100  213.1650  149.9660 N   0  0  0  0  0  0  0  0  0  0  0  0
  158.3690  213.1500  151.3170 O   0  0  0  0  0  1  0  0  0  0  0  0
  158.5140  214.4230  149.4200 O   0  0  0  0  0  0  0  0  0  0  0  0
  161.1630  213.6640  148.8160 C   0  0  0  0  0  2  0  0  0  0  0  0
  160.3410  213.6640  147.5280 C   0  0  2  0  0  3  0  0  0  0  0  0
  159.8480  212.3880  147.2310 O   0  0  0  0  0  1  0  0  0  0  0  0
  162.3020  213.5980  146.1170 O   0  0  0  0  0  1  0  0  0  0  0  0
  161.1000  214.2710  146.3450 C   0  0  1  0  0  3  0  0  0  0  0  0
  160.2520  214.2850  145.0750 C   0  0  2  0  0  3  0  0  0  0  0  0
  159.0120  213.6950  145.3250 O   0  0  0  0  0  1  0  0  0  0  0  0
  160.9050  213.6110  144.0370 O   0  0  0  0  0  0  0  0  0  0  0  0
  158.5270  214.4420  142.6840 C   0  0  0  0  0  1  0  0  0  0  0  0
  159.7000  213.0900  142.9620 P   0  0  2  0  0  0  0  0  0  0  0  0
  158.9620  211.9330  143.5870 O   0  0  0  0  0  0  0  0  0  0  0  0
  160.4140  212.5740  141.3520 C   0  0  1  0  0  3  0  0  0  0  0  0
  161.8800  212.8610  141.1610 C   0  0  0  0  0  0  0  0  0  0  0  0
  162.2640  213.9610  140.6850 O   0  0  0  0  0  0  0  0  0  0  0  0
  162.8190  211.9170  141.5580 O   0  0  0  0  0  1  0  0  0  0  0  0
  159.9600  211.3220  140.8760 O   0  0  0  0  0  0  0  0  0  0  0  0
  159.6090  212.6870  138.5250 O   0  0  0  0  0  0  0  0  0  0  0  0
  159.1830  211.5060  139.3670 P   0  0  2  0  0  4  0  0  0  0  0  0
  157.5160  211.7160  139.7210 O   0  0  0  0  0  1  0  0  0  0  0  0
  157.7210  210.7050  138.9730 O   0  0  0  0  0  0  0  0  0  0  0  0
  1  6  2  0  0  0  0
  1  2  1  0  0  0  0
  2  4  2  0  0  0  0
  3 26  1  0  0  0  0
  3  5  2  0  0  0  0
  4  5  1  0  0  0  0
  5 15  1  0  0  0  0
  6  3  1  0  0  0  0
  7  6  1  0  0  0  0
  8  7  1  0  0  0  0
  9 10  1  0  0  0  0
 11 10  2  0  0  0  0
 11  8  1  0  0  0  0
 12 11  1  0  0  0  0
 13 12  1  0  0  0  0
 13  9  2  0  0  0  0
 15 14  1  1  0  0  0
 15 16  1  0  0  0  0
 16 17  1  0  0  0  0
 17 18  1  0  0  0  0
 19 18  1  0  0  0  0
 20 21  1  6  0  0  0
 20 19  1  0  0  0  0
 24 23  1  0  0  0  0
 24 22  1  0  0  0  0
 24 20  1  0  0  0  0
 25 24  2  0  0  0  0
 27 34  1  0  0  0  0
 28 27  1  0  0  0  0
 29 33  2  0  0  0  0
 30 29  1  0  0  0  0
 31 28  1  0  0  0  0
 31 30  2  0  0  0  0
 32 30  1  0  0  0  0
 34 33  2  0  0  0  0
 34 26  1  0  0  0  0
 35  2  1  0  0  0  0
 36 35  1  0  0  0  0
 37 39  1  0  0  0  0
 38 37  1  0  0  0  0
 38 36  1  0  0  0  0
 40 37  2  0  0  0  0
 41 38  1  0  0  0  0
 42 43  1  6  0  0  0
 42 41  1  0  0  0  0
 45 44  1  6  0  0  0
 45 42  1  0  0  0  0
 46 47  1  1  0  0  0
 46 45  1  0  0  0  0
 48 46  1  0  0  0  0
 50 49  1  6  0  0  0
 50 51  2  0  0  0  0
 50 48  1  0  0  0  0
 52 56  1  1  0  0  0
 52 50  1  0  0  0  0
 53 52  1  0  0  0  0
 53 55  1  0  0  0  0
 54 53  2  0  0  0  0
 58 57  2  1  0  0  0
 58 56  1  0  0  0  0
 60 58  1  0  0  0  0
 60 59  1  0  0  0  0
M  END
>  <MODEL>
3

>  <REMARK>
 VINA RESULT:      -2.3      4.780      8.949
  Name = 
  24 active torsions:
  status: ('A' for Active; 'I' for Inactive)
    1  A    between atoms: C_4  and  C_10
    2  A    between atoms: C_4  and  C_29
    3  A    between atoms: C_6  and  C_56
    4  A    between atoms: O_8  and  C_33
    5  A    between atoms: O_8  and  P_51
    6  A    between atoms: C_10  and  C_48
    7  A    between atoms: C_12  and  N_35
    8  A    between atoms: C_12  and  C_60
    9  A    between atoms: C_13  and  S_22
   10  A    between atoms: C_14  and  C_45
   11  A    between atoms: C_19  and  C_30
   12  A    between atoms: C_19  and  C_53
   13  A    between atoms: C_20  and  C_60
   14  A    between atoms: P_24  and  O_25
   15  A    between atoms: O_25  and  C_56
   16  A    between atoms: C_26  and  C_32
   17  A    between atoms: C_26  and  O_47
   18  A    between atoms: C_27  and  C_40
   19  A    between atoms: C_29  and  P_38
   20  A    between atoms: C_30  and  C_33
   21  A    between atoms: N_35  and  C_53
   22  A    between atoms: C_40  and  C_55
   23  A    between atoms: O_47  and  C_48
   24  A    between atoms: P_51  and  C_56
                            x       y       z     vdW  Elec       q    Type
                         _______ _______ _______ _____ _____    ______ ____

>  <TORSDO>
F 24

$$$$
=
 OpenBabel11042421003D

 60 62  0  0  1  0  0  0  0  0999 V2000
  160.6090  210.3940  151.6660 C   0  0  0  0  0  3  0  0  0  0  0  0
  161.2910  209.9040  150.5530 C   0  0  0  0  0  0  0  0  0  0  0  0
  160.5700  212.6250  150.6860 C   0  0  0  0  0  0  0  0  0  0  0  0
  161.6000  210.7710  149.4990 C   0  0  0  0  0  3  0  0  0  0  0  0
  161.2600  212.1280  149.5580 C   0  0  0  0  0  0  0  0  0  0  0  0
  160.2470  211.7490  151.7500 C   0  0  0  0  0  0  0  0  0  0  0  0
  159.5020  212.2480  152.9200 C   0  0  0  0  0  2  0  0  0  0  0  0
  159.8350  211.8130  154.4380 S   0  0  0  0  0  0  0  0  0  0  0  0
  157.4990  213.7610  156.7840 C   0  0  0  0  0  2  0  0  0  0  0  0
  158.7360  213.4230  156.3720 N   0  0  0  0  0  0  0  0  0  0  0  0
  158.5240  212.5650  155.3610 C   0  0  0  0  0  0  0  0  0  0  0  0
  157.2250  212.3400  155.1060 N   0  0  0  0  0  0  0  0  0  0  0  0
  156.5720  213.0970  156.0080 C   0  0  0  0  0  3  0  0  0  0  0  0
  161.9180  214.4470  148.9280 C   0  0  0  0  0  1  0  0  0  0  0  0
  161.6460  213.0380  148.4200 C   0  0  2  0  0  3  0  0  0  0  0  0
  160.6390  213.0630  147.4530 O   0  0  0  0  0  0  0  0  0  0  0  0
  161.1190  213.9010  146.4460 C   0  0  0  0  0  2  0  0  0  0  0  0
  160.0520  214.1050  145.3800 C   0  0  0  0  0  2  0  0  0  0  0  0
  160.6250  214.0110  143.9720 C   0  0  0  0  0  2  0  0  0  0  0  0
  160.4170  212.6250  143.3810 C   0  0  1  0  0  3  0  0  0  0  0  0
  159.0670  212.3200  143.3710 F   0  0  0  0  0  0  0  0  0  0  0  0
  160.6970  211.0810  140.9800 O   0  0  0  0  0  1  0  0  0  0  0  0
  160.3090  213.8070  140.7820 O   0  0  0  0  0  0  0  0  0  0  0  0
  161.0490  212.5810  141.6820 P   0  0  0  0  0  0  0  0  0  0  0  0
  162.5440  212.7960  141.6890 O   0  0  0  0  0  1  0  0  0  0  0  0
  160.1500  214.0700  150.7360 C   0  0  0  0  0  2  0  0  0  0  0  0
  157.9260  213.5980  149.4560 C   0  0  0  0  0  2  0  0  0  0  0  0
  156.5150  214.2190  149.2840 C   0  0  0  0  0  2  0  0  0  0  0  0
  156.8590  214.4530  152.3800 C   0  0  0  0  0  3  0  0  0  0  0  0
  155.6140  214.0300  151.7010 C   0  0  0  0  0  0  0  0  0  0  0  0
  155.4920  213.8690  150.3620 C   0  0  0  0  0  3  0  0  0  0  0  0
  154.4330  213.7180  152.5500 C   0  0  0  0  0  1  0  0  0  0  0  0
  157.9260  214.3900  151.6560 C   0  0  0  0  0  0  0  0  0  0  0  0
  158.6690  214.1910  150.6200 C   0  0  0  0  0  0  0  0  0  0  0  0
  161.5650  208.4370  150.4590 C   0  0  0  0  0  2  0  0  0  0  0  0
  162.6690  207.9690  151.4070 C   0  0  0  0  0  2  0  0  0  0  0  0
  161.3330  207.2690  153.4030 C   0  0  0  0  0  0  0  0  0  0  0  0
  162.1850  206.9220  152.3050 N   0  0  0  0  0  0  0  0  0  0  0  0
  160.9540  208.5920  153.6050 O   0  0  0  0  0  0  0  0  0  0  0  0
  160.9260  206.3820  154.2020 O   0  0  0  0  0  1  0  0  0  0  0  0
  162.5690  205.5300  152.0730 C   0  0  0  0  0  2  0  0  0  0  0  0
  161.3740  204.6340  151.7540 C   0  0  2  0  0  3  0  0  0  0  0  0
  160.4880  204.5500  152.8350 O   0  0  0  0  0  1  0  0  0  0  0  0
  161.2050  202.2370  152.0120 O   0  0  0  0  0  1  0  0  0  0  0  0
  161.7930  203.2500  151.2510 C   0  0  1  0  0  3  0  0  0  0  0  0
  161.4640  203.0600  149.7730 C   0  0  2  0  0  3  0  0  0  0  0  0
  160.0800  203.0660  149.5890 O   0  0  0  0  0  1  0  0  0  0  0  0
  162.0080  201.8630  149.2950 O   0  0  0  0  0  0  0  0  0  0  0  0
  159.2850  201.2570  148.6670 C   0  0  0  0  0  1  0  0  0  0  0  0
  160.9860  201.3270  148.0500 P   0  0  2  0  0  0  0  0  0  0  0  0
  161.4090  199.9380  147.6410 O   0  0  0  0  0  0  0  0  0  0  0  0
  161.0520  202.4480  146.5990 C   0  0  1  0  0  3  0  0  0  0  0  0
  160.3870  201.9420  145.3460 C   0  0  0  0  0  0  0  0  0  0  0  0
  160.2790  200.7080  145.1280 O   0  0  0  0  0  1  0  0  0  0  0  0
  159.8470  202.8500  144.4430 O   0  0  0  0  0  0  0  0  0  0  0  0
  160.8540  203.8170  146.8970 O   0  0  0  0  0  0  0  0  0  0  0  0
  163.2490  205.0280  146.3370 O   0  0  0  0  0  0  0  0  0  0  0  0
  161.8250  204.7910  145.8870 P   0  0  2  0  0  4  0  0  0  0  0  0
  161.0540  206.3250  145.8320 O   0  0  0  0  0  1  0  0  0  0  0  0
  161.1720  205.8090  144.6730 O   0  0  0  0  0  0  0  0  0  0  0  0
  1  6  1  0  0  0  0
  2  1  2  0  0  0  0
  3 26  1  0  0  0  0
  3  6  2  0  0  0  0
  4  5  2  0  0  0  0
  4  2  1  0  0  0  0
  5  3  1  0  0  0  0
  6  7  1  0  0  0  0
  7  8  1  0  0  0  0
  8 11  1  0  0  0  0
 10  9  1  0  0  0  0
 11 10  2  0  0  0  0
 12 11  1  0  0  0  0
 12 13  2  0  0  0  0
 13  9  1  0  0  0  0
 15 14  1  1  0  0  0
 15  5  1  0  0  0  0
 16 15  1  0  0  0  0
 17 16  1  0  0  0  0
 18 17  1  0  0  0  0
 19 18  1  0  0  0  0
 20 21  1  6  0  0  0
 20 19  1  0  0  0  0
 22 24  1  0  0  0  0
 23 24  2  0  0  0  0
 24 25  1  0  0  0  0
 24 20  1  0  0  0  0
 27 34  1  0  0  0  0
 28 27  1  0  0  0  0
 28 31  1  0  0  0  0
 30 29  1  0  0  0  0
 30 32  1  0  0  0  0
 31 30  2  0  0  0  0
 33 29  2  0  0  0  0
 34 26  1  0  0  0  0
 34 33  2  0  0  0  0
 35  2  1  0  0  0  0
 35 36  1  0  0  0  0
 36 38  1  0  0  0  0
 37 39  2  0  0  0  0
 37 40  1  0  0  0  0
 38 37  1  0  0  0  0
 41 38  1  0  0  0  0
 42 41  1  0  0  0  0
 42 43  1  1  0  0  0
 45 42  1  0  0  0  0
 45 44  1  1  0  0  0
 46 47  1  1  0  0  0
 46 45  1  0  0  0  0
 48 46  1  0  0  0  0
 50 49  1  1  0  0  0
 50 48  1  0  0  0  0
 51 50  2  0  0  0  0
 52 53  1  6  0  0  0
 52 56  1  0  0  0  0
 52 50  1  0  0  0  0
 54 53  1  0  0  0  0
 55 53  2  0  0  0  0
 58 57  2  1  0  0  0
 58 56  1  0  0  0  0
 60 59  1  0  0  0  0
 60 58  1  0  0  0  0
M  END
>  <MODEL>
4

>  <REMARK>
 VINA RESULT:      -2.3      3.664      6.773
  Name = 
  24 active torsions:
  status: ('A' for Active; 'I' for Inactive)
    1  A    between atoms: C_4  and  C_10
    2  A    between atoms: C_4  and  C_29
    3  A    between atoms: C_6  and  C_56
    4  A    between atoms: O_8  and  C_33
    5  A    between atoms: O_8  and  P_51
    6  A    between atoms: C_10  and  C_48
    7  A    between atoms: C_12  and  N_35
    8  A    between atoms: C_12  and  C_60
    9  A    between atoms: C_13  and  S_22
   10  A    between atoms: C_14  and  C_45
   11  A    between atoms: C_19  and  C_30
   12  A    between atoms: C_19  and  C_53
   13  A    between atoms: C_20  and  C_60
   14  A    between atoms: P_24  and  O_25
   15  A    between atoms: O_25  and  C_56
   16  A    between atoms: C_26  and  C_32
   17  A    between atoms: C_26  and  O_47
   18  A    between atoms: C_27  and  C_40
   19  A    between atoms: C_29  and  P_38
   20  A    between atoms: C_30  and  C_33
   21  A    between atoms: N_35  and  C_53
   22  A    between atoms: C_40  and  C_55
   23  A    between atoms: O_47  and  C_48
   24  A    between atoms: P_51  and  C_56
                            x       y       z     vdW  Elec       q    Type
                         _______ _______ _______ _____ _____    ______ ____

>  <TORSDO>
F 24

$$$$
=
 OpenBabel11042421003D

 60 62  0  0  1  0  0  0  0  0999 V2000
  161.9080  209.5480  148.7900 C   0  0  0  0  0  3  0  0  0  0  0  0
  161.7490  210.7270  149.5160 C   0  0  0  0  0  0  0  0  0  0  0  0
  162.3290  208.3120  150.8470 C   0  0  0  0  0  0  0  0  0  0  0  0
  161.8660  210.6970  150.9100 C   0  0  0  0  0  3  0  0  0  0  0  0
  162.1670  209.5060  151.5830 C   0  0  0  0  0  0  0  0  0  0  0  0
  162.2030  208.3370  149.4380 C   0  0  0  0  0  0  0  0  0  0  0  0
  162.3400  207.0930  148.6590 C   0  0  0  0  0  2  0  0  0  0  0  0
  162.0970  207.0080  147.0650 S   0  0  0  0  0  0  0  0  0  0  0  0
  162.4650  203.1850  147.0350 C   0  0  0  0  0  2  0  0  0  0  0  0
  162.4600  204.3600  147.6940 N   0  0  0  0  0  0  0  0  0  0  0  0
  162.2210  205.2730  146.7380 C   0  0  0  0  0  0  0  0  0  0  0  0
  162.0720  204.7460  145.5120 N   0  0  0  0  0  0  0  0  0  0  0  0
  162.2270  203.4210  145.6970 C   0  0  0  0  0  3  0  0  0  0  0  0
  161.4210  208.4840  153.7280 C   0  0  0  0  0  1  0  0  0  0  0  0
  162.3250  209.5230  153.0820 C   0  0  2  0  0  3  0  0  0  0  0  0
  162.0360  210.7920  153.5880 O   0  0  0  0  0  0  0  0  0  0  0  0
  161.9170  210.6190  154.9670 C   0  0  0  0  0  2  0  0  0  0  0  0
  160.7970  211.4950  155.5120 C   0  0  0  0  0  2  0  0  0  0  0  0
  159.4220  210.9850  155.1010 C   0  0  0  0  0  2  0  0  0  0  0  0
  158.3510  211.4260  156.0870 C   0  0  1  0  0  3  0  0  0  0  0  0
  158.9470  211.9550  157.2180 F   0  0  0  0  0  0  0  0  0  0  0  0
  158.1800  213.5420  154.1580 O   0  0  0  0  0  0  0  0  0  0  0  0
  155.9750  211.9370  154.5860 O   0  0  0  0  0  1  0  0  0  0  0  0
  157.2970  212.6890  155.3240 P   0  0  0  0  0  0  0  0  0  0  0  0
  156.8030  213.6470  156.3820 O   0  0  0  0  0  1  0  0  0  0  0  0
  162.5990  207.0160  151.5630 C   0  0  0  0  0  2  0  0  0  0  0  0
  160.7370  206.1710  149.9430 C   0  0  0  0  0  2  0  0  0  0  0  0
  159.5260  205.2020  149.9490 C   0  0  0  0  0  2  0  0  0  0  0  0
  161.6590  203.4430  151.4010 C   0  0  0  0  0  3  0  0  0  0  0  0
  160.7210  202.9470  150.3700 C   0  0  0  0  0  0  0  0  0  0  0  0
  159.8430  203.7300  149.6990 C   0  0  0  0  0  3  0  0  0  0  0  0
  160.7790  201.5030  150.0160 C   0  0  0  0  0  1  0  0  0  0  0  0
  161.8060  204.7250  151.4370 C   0  0  0  0  0  0  0  0  0  0  0  0
  161.6320  205.9660  151.1320 C   0  0  0  0  0  0  0  0  0  0  0  0
  161.3350  211.9720  148.7970 C   0  0  0  0  0  2  0  0  0  0  0  0
  160.3140  211.7150  147.6900 C   0  0  0  0  0  2  0  0  0  0  0  0
  158.6420  213.4330  148.4080 C   0  0  0  0  0  0  0  0  0  0  0  0
  159.5280  212.9150  147.4080 N   0  0  0  0  0  0  0  0  0  0  0  0
  158.5420  212.8070  149.6460 O   0  0  0  0  0  1  0  0  0  0  0  0
  157.9380  214.4530  148.1730 O   0  0  0  0  0  0  0  0  0  0  0  0
  159.6550  213.5800  146.1120 C   0  0  0  0  0  2  0  0  0  0  0  0
  160.5670  212.8230  145.1480 C   0  0  2  0  0  3  0  0  0  0  0  0
  161.7850  213.4870  144.9610 O   0  0  0  0  0  1  0  0  0  0  0  0
  159.0870  213.5710  143.3900 O   0  0  0  0  0  1  0  0  0  0  0  0
  159.8810  212.5040  143.8160 C   0  0  1  0  0  3  0  0  0  0  0  0
  160.8910  212.1310  142.7340 C   0  0  2  0  0  3  0  0  0  0  0  0
  161.3620  213.2840  142.1050 O   0  0  0  0  0  1  0  0  0  0  0  0
  160.3120  211.2720  141.7930 O   0  0  0  0  0  0  0  0  0  0  0  0
  162.2750  209.7300  140.3980 C   0  0  0  0  0  1  0  0  0  0  0  0
  161.3340  211.2760  140.4380 P   0  0  2  0  0  0  0  0  0  0  0  0
  162.3020  212.4260  140.5660 O   0  0  0  0  0  0  0  0  0  0  0  0
  160.3800  211.4390  138.8790 C   0  0  1  0  0  3  0  0  0  0  0  0
  161.1440  211.9640  137.6920 C   0  0  0  0  0  0  0  0  0  0  0  0
  162.0590  211.2810  137.1630 O   0  0  0  0  0  1  0  0  0  0  0  0
  160.8030  213.1960  137.1490 O   0  0  0  0  0  0  0  0  0  0  0  0
  159.4830  210.3760  138.6180 O   0  0  0  0  0  0  0  0  0  0  0  0
  156.8280  209.8490  139.0510 O   0  0  0  0  0  0  0  0  0  0  0  0
  157.8690  210.9090  138.7740 P   0  0  2  0  0  4  0  0  0  0  0  0
  157.4660  211.6290  137.2680 O   0  0  0  0  0  1  0  0  0  0  0  0
  157.3450  212.4490  138.2350 O   0  0  0  0  0  0  0  0  0  0  0  0
  1  6  2  0  0  0  0
  1  2  1  0  0  0  0
  2  4  2  0  0  0  0
  3 26  1  0  0  0  0
  3  5  2  0  0  0  0
  4  5  1  0  0  0  0
  5 15  1  0  0  0  0
  6  3  1  0  0  0  0
  7  6  1  0  0  0  0
  8  7  1  0  0  0  0
  9 10  1  0  0  0  0
 11  8  1  0  0  0  0
 11 10  2  0  0  0  0
 12 13  2  0  0  0  0
 12 11  1  0  0  0  0
 13  9  1  0  0  0  0
 15 16  1  0  0  0  0
 15 14  1  1  0  0  0
 16 17  1  0  0  0  0
 17 18  1  0  0  0  0
 19 18  1  0  0  0  0
 19 20  1  0  0  0  0
 20 21  1  1  0  0  0
 22 24  2  0  0  0  0
 23 24  1  0  0  0  0
 24 20  1  0  0  0  0
 24 25  1  0  0  0  0
 27 28  1  0  0  0  0
 27 34  1  0  0  0  0
 29 33  2  0  0  0  0
 30 29  1  0  0  0  0
 31 28  1  0  0  0  0
 31 30  2  0  0  0  0
 32 30  1  0  0  0  0
 34 33  2  0  0  0  0
 34 26  1  0  0  0  0
 35  2  1  0  0  0  0
 36 35  1  0  0  0  0
 37 39  1  0  0  0  0
 38 36  1  0  0  0  0
 38 37  1  0  0  0  0
 40 37  2  0  0  0  0
 41 38  1  0  0  0  0
 42 43  1  6  0  0  0
 42 41  1  0  0  0  0
 45 44  1  6  0  0  0
 45 42  1  0  0  0  0
 46 47  1  6  0  0  0
 46 45  1  0  0  0  0
 48 46  1  0  0  0  0
 50 49  1  6  0  0  0
 50 51  2  0  0  0  0
 50 48  1  0  0  0  0
 52 53  1  6  0  0  0
 52 50  1  0  0  0  0
 54 53  1  0  0  0  0
 55 53  2  0  0  0  0
 56 58  1  0  0  0  0
 56 52  1  0  0  0  0
 58 57  2  6  0  0  0
 59 60  1  0  0  0  0
 60 58  1  0  0  0  0
M  END
>  <MODEL>
5

>  <REMARK>
 VINA RESULT:      -2.2      4.915      9.043
  Name = 
  24 active torsions:
  status: ('A' for Active; 'I' for Inactive)
    1  A    between atoms: C_4  and  C_10
    2  A    between atoms: C_4  and  C_29
    3  A    between atoms: C_6  and  C_56
    4  A    between atoms: O_8  and  C_33
    5  A    between atoms: O_8  and  P_51
    6  A    between atoms: C_10  and  C_48
    7  A    between atoms: C_12  and  N_35
    8  A    between atoms: C_12  and  C_60
    9  A    between atoms: C_13  and  S_22
   10  A    between atoms: C_14  and  C_45
   11  A    between atoms: C_19  and  C_30
   12  A    between atoms: C_19  and  C_53
   13  A    between atoms: C_20  and  C_60
   14  A    between atoms: P_24  and  O_25
   15  A    between atoms: O_25  and  C_56
   16  A    between atoms: C_26  and  C_32
   17  A    between atoms: C_26  and  O_47
   18  A    between atoms: C_27  and  C_40
   19  A    between atoms: C_29  and  P_38
   20  A    between atoms: C_30  and  C_33
   21  A    between atoms: N_35  and  C_53
   22  A    between atoms: C_40  and  C_55
   23  A    between atoms: O_47  and  C_48
   24  A    between atoms: P_51  and  C_56
                            x       y       z     vdW  Elec       q    Type
                         _______ _______ _______ _____ _____    ______ ____

>  <TORSDO>
F 24

$$$$
=
 OpenBabel11042421003D

 60 62  0  0  1  0  0  0  0  0999 V2000
  162.0350  209.3640  148.5050 C   0  0  0  0  0  3  0  0  0  0  0  0
  161.9830  210.5840  149.1770 C   0  0  0  0  0  0  0  0  0  0  0  0
  162.2910  208.1840  150.6210 C   0  0  0  0  0  0  0  0  0  0  0  0
  162.0700  210.6040  150.5730 C   0  0  0  0  0  3  0  0  0  0  0  0
  162.2370  209.4200  151.3020 C   0  0  0  0  0  0  0  0  0  0  0  0
  162.1930  208.1590  149.2100 C   0  0  0  0  0  0  0  0  0  0  0  0
  162.2180  206.8740  148.4870 C   0  0  0  0  0  2  0  0  0  0  0  0
  162.4600  206.7520  146.8960 S   0  0  0  0  0  0  0  0  0  0  0  0
  162.3430  202.9160  146.7460 C   0  0  0  0  0  2  0  0  0  0  0  0
  162.8210  204.0570  147.2790 N   0  0  0  0  0  0  0  0  0  0  0  0
  162.2010  205.0280  146.5880 C   0  0  0  0  0  0  0  0  0  0  0  0
  161.3570  204.5700  145.6500 N   0  0  0  0  0  0  0  0  0  0  0  0
  161.4450  203.2300  145.7480 C   0  0  0  0  0  3  0  0  0  0  0  0
  161.5300  208.4030  153.4630 C   0  0  0  0  0  1  0  0  0  0  0  0
  162.3690  209.4870  152.8020 C   0  0  2  0  0  3  0  0  0  0  0  0
  161.9800  210.7450  153.2690 O   0  0  0  0  0  0  0  0  0  0  0  0
  161.7730  210.5790  154.6390 C   0  0  0  0  0  2  0  0  0  0  0  0
  160.8630  211.6790  155.1690 C   0  0  0  0  0  2  0  0  0  0  0  0
  159.8190  212.0990  154.1430 C   0  0  0  0  0  2  0  0  0  0  0  0
  158.4100  211.9550  154.6970 C   0  0  1  0  0  3  0  0  0  0  0  0
  158.4520  211.3120  155.9210 F   0  0  0  0  0  0  0  0  0  0  0  0
  157.5440  214.3690  153.4120 O   0  0  0  0  0  0  0  0  0  0  0  0
  156.1190  213.4180  155.5770 O   0  0  0  0  0  1  0  0  0  0  0  0
  157.6640  213.5940  154.9130 P   0  0  0  0  0  0  0  0  0  0  0  0
  158.5180  214.4240  155.8420 O   0  0  0  0  0  1  0  0  0  0  0  0
  162.4140  206.9000  151.3970 C   0  0  0  0  0  2  0  0  0  0  0  0
  160.6110  206.1500  149.6680 C   0  0  0  0  0  2  0  0  0  0  0  0
  159.4190  205.1630  149.5670 C   0  0  0  0  0  2  0  0  0  0  0  0
  161.5470  203.3340  150.9400 C   0  0  0  0  0  3  0  0  0  0  0  0
  160.6450  202.9030  149.8490 C   0  0  0  0  0  0  0  0  0  0  0  0
  159.7700  203.7200  149.2150 C   0  0  0  0  0  3  0  0  0  0  0  0
  160.7390  201.4920  149.3890 C   0  0  0  0  0  1  0  0  0  0  0  0
  161.6690  204.6120  151.0770 C   0  0  0  0  0  0  0  0  0  0  0  0
  161.4790  205.8700  150.8620 C   0  0  0  0  0  0  0  0  0  0  0  0
  161.7100  211.8310  148.3960 C   0  0  0  0  0  2  0  0  0  0  0  0
  160.4400  211.7460  147.5510 C   0  0  0  0  0  2  0  0  0  0  0  0
  159.0570  213.3870  148.8380 C   0  0  0  0  0  0  0  0  0  0  0  0
  159.6830  212.9950  147.6100 N   0  0  0  0  0  0  0  0  0  0  0  0
  159.1830  212.5920  149.9720 O   0  0  0  0  0  1  0  0  0  0  0  0
  158.3790  214.4490  148.9000 O   0  0  0  0  0  0  0  0  0  0  0  0
  159.5740  213.8370  146.4190 C   0  0  0  0  0  2  0  0  0  0  0  0
  160.4720  213.3620  145.2780 C   0  0  2  0  0  3  0  0  0  0  0  0
  161.2740  214.3990  144.7860 O   0  0  0  0  0  1  0  0  0  0  0  0
  158.3330  212.5640  144.4850 O   0  0  0  0  0  1  0  0  0  0  0  0
  159.6870  212.6700  144.1600 C   0  0  1  0  0  3  0  0  0  0  0  0
  159.8550  213.3860  142.8230 C   0  0  2  0  0  3  0  0  0  0  0  0
  158.8120  214.2960  142.6360 O   0  0  0  0  0  1  0  0  0  0  0  0
  159.8850  212.4660  141.7690 O   0  0  0  0  0  0  0  0  0  0  0  0
  161.8350  214.4250  141.0380 C   0  0  0  0  0  1  0  0  0  0  0  0
  160.5760  213.2680  140.4420 P   0  0  2  0  0  0  0  0  0  0  0  0
  159.4980  214.0510  139.7350 O   0  0  0  0  0  0  0  0  0  0  0  0
  161.3520  212.0860  139.2730 C   0  0  1  0  0  3  0  0  0  0  0  0
  162.8130  212.3080  138.9860 C   0  0  0  0  0  0  0  0  0  0  0  0
  163.6630  212.2770  139.9120 O   0  0  0  0  0  1  0  0  0  0  0  0
  163.2300  212.5060  137.6750 O   0  0  0  0  0  0  0  0  0  0  0  0
  160.9500  210.7390  139.4370 O   0  0  0  0  0  0  0  0  0  0  0  0
  158.9980  210.8970  137.5200 O   0  0  0  0  0  0  0  0  0  0  0  0
  160.2230  210.1580  138.0070 P   0  0  2  0  0  4  0  0  0  0  0  0
  159.7340  208.5480  138.3510 O   0  0  0  0  0  1  0  0  0  0  0  0
  160.5450  208.6000  137.3700 O   0  0  0  0  0  0  0  0  0  0  0  0
  1  2  2  0  0  0  0
  1  6  1  0  0  0  0
  2  4  1  0  0  0  0
  3  5  1  0  0  0  0
  3 26  1  0  0  0  0
  4  5  2  0  0  0  0
  5 15  1  0  0  0  0
  6  3  2  0  0  0  0
  7  6  1  0  0  0  0
  8  7  1  0  0  0  0
  9 10  1  0  0  0  0
 11  8  1  0  0  0  0
 11 10  2  0  0  0  0
 12 13  2  0  0  0  0
 12 11  1  0  0  0  0
 13  9  1  0  0  0  0
 15 16  1  0  0  0  0
 15 14  1  1  0  0  0
 16 17  1  0  0  0  0
 17 18  1  0  0  0  0
 19 20  1  0  0  0  0
 19 18  1  0  0  0  0
 20 24  1  0  0  0  0
 20 21  1  1  0  0  0
 22 24  2  0  0  0  0
 24 23  1  0  0  0  0
 24 25  1  0  0  0  0
 27 34  1  0  0  0  0
 28 27  1  0  0  0  0
 29 33  2  0  0  0  0
 30 29  1  0  0  0  0
 31 28  1  0  0  0  0
 31 30  2  0  0  0  0
 32 30  1  0  0  0  0
 34 33  2  0  0  0  0
 34 26  1  0  0  0  0
 35  2  1  0  0  0  0
 36 38  1  0  0  0  0
 36 35  1  0  0  0  0
 37 40  2  0  0  0  0
 37 39  1  0  0  0  0
 38 37  1  0  0  0  0
 41 38  1  0  0  0  0
 42 43  1  6  0  0  0
 42 41  1  0  0  0  0
 45 44  1  1  0  0  0
 45 42  1  0  0  0  0
 46 47  1  6  0  0  0
 46 45  1  0  0  0  0
 48 46  1  0  0  0  0
 50 49  1  1  0  0  0
 50 48  1  0  0  0  0
 51 50  2  0  0  0  0
 52 53  1  1  0  0  0
 52 56  1  0  0  0  0
 52 50  1  0  0  0  0
 53 54  1  0  0  0  0
 55 53  2  0  0  0  0
 58 57  2  1  0  0  0
 58 56  1  0  0  0  0
 60 58  1  0  0  0  0
 60 59  1  0  0  0  0
M  END
>  <MODEL>
6

>  <REMARK>
 VINA RESULT:      -1.6      5.005      9.220
  Name = 
  24 active torsions:
  status: ('A' for Active; 'I' for Inactive)
    1  A    between atoms: C_4  and  C_10
    2  A    between atoms: C_4  and  C_29
    3  A    between atoms: C_6  and  C_56
    4  A    between atoms: O_8  and  C_33
    5  A    between atoms: O_8  and  P_51
    6  A    between atoms: C_10  and  C_48
    7  A    between atoms: C_12  and  N_35
    8  A    between atoms: C_12  and  C_60
    9  A    between atoms: C_13  and  S_22
   10  A    between atoms: C_14  and  C_45
   11  A    between atoms: C_19  and  C_30
   12  A    between atoms: C_19  and  C_53
   13  A    between atoms: C_20  and  C_60
   14  A    between atoms: P_24  and  O_25
   15  A    between atoms: O_25  and  C_56
   16  A    between atoms: C_26  and  C_32
   17  A    between atoms: C_26  and  O_47
   18  A    between atoms: C_27  and  C_40
   19  A    between atoms: C_29  and  P_38
   20  A    between atoms: C_30  and  C_33
   21  A    between atoms: N_35  and  C_53
   22  A    between atoms: C_40  and  C_55
   23  A    between atoms: O_47  and  C_48
   24  A    between atoms: P_51  and  C_56
                            x       y       z     vdW  Elec       q    Type
                         _______ _______ _______ _____ _____    ______ ____

>  <TORSDO>
F 24

$$$$
