=
 OpenBabel11052409593D

 39 44  0  0  1  0  0  0  0  0999 V2000
  158.0050  211.7920  154.7410 C   0  0  2  0  0  3  0  0  0  0  0  0
  157.9820  211.9510  153.2220 C   0  0  1  0  0  3  0  0  0  0  0  0
  159.4710  213.4700  152.0690 C   0  0  1  0  0  3  0  0  0  0  0  0
  159.2060  211.0220  155.0610 N   0  0  0  0  0  2  0  0  0  0  0  0
  159.4790  210.3180  153.8170 C   0  0  1  0  0  3  0  0  0  0  0  0
  158.1620  213.4100  152.8220 C   0  0  0  0  0  2  0  0  0  0  0  0
  160.1580  212.1860  152.4570 C   0  0  0  0  0  2  0  0  0  0  0  0
  159.1120  211.1950  152.7010 N   0  0  2  0  0  0  0  0  0  0  0  0
  160.4040  213.2370  149.7590 C   0  0  0  0  0  3  0  0  0  0  0  0
  157.8520  213.5080  148.6010 C   0  0  0  0  0  0  0  0  0  0  0  0
  159.2860  213.4960  150.5760 C   0  0  0  0  0  0  0  0  0  0  0  0
  160.2120  212.6640  145.8920 C   0  0  0  0  0  2  0  0  0  0  0  0
  161.5050  212.7560  147.2050 S   0  0  0  0  0  0  0  0  0  0  0  0
  158.9510  213.0210  146.4550 O   0  0  0  0  0  0  0  0  0  0  0  0
  158.0080  213.6300  149.9870 C   0  0  0  0  0  3  0  0  0  0  0  0
  158.9760  213.2320  147.8170 C   0  0  0  0  0  0  0  0  0  0  0  0
  160.2230  213.1220  148.3800 C   0  0  0  0  0  0  0  0  0  0  0  0
  156.5960  213.6430  148.0220 O   0  0  0  0  0  1  0  0  0  0  0  0
  156.7590  211.0230  155.1800 C   0  0  0  0  0  2  0  0  0  0  0  0
  155.9660  211.8310  156.1830 C   0  0  0  0  0  2  0  0  0  0  0  0
  155.3360  214.1320  155.7710 N   0  0  0  0  0  1  0  0  0  0  0  0
  156.4410  213.2710  156.1640 C   0  0  0  0  0  2  0  0  0  0  0  0
  160.9070  209.7500  153.7290 C   0  0  2  0  0  3  0  0  0  0  0  0
  160.8580  208.2870  153.8200 N   0  0  0  0  0  2  0  0  0  0  0  0
  161.5550  207.8500  151.4730 N   0  0  0  0  0  2  0  0  0  0  0  0
  161.3050  207.3820  152.8040 C   0  0  0  0  0  0  0  0  0  0  0  0
  161.4800  206.1720  153.0980 O   0  0  0  0  0  0  0  0  0  0  0  0
  161.8870  207.0020  150.4010 N   0  0  0  0  0  0  0  0  0  0  0  0
  163.1300  207.5180  149.8640 C   0  0  0  0  0  1  0  0  0  0  0  0
  160.3490  206.4570  147.0440 O   0  0  0  0  0  1  0  0  0  0  0  0
  160.8800  206.1000  148.2880 C   0  0  1  0  0  0  0  0  0  0  0  0
  161.3340  204.1090  149.6260 C   0  0  2  0  0  3  0  0  0  0  0  0
  161.7330  204.8440  148.3640 C   0  0  0  0  0  2  0  0  0  0  0  0
  160.8630  207.1840  149.3660 C   0  0  1  0  0  3  0  0  0  0  0  0
  160.9780  202.6770  149.2940 C   0  0  0  0  0  1  0  0  0  0  0  0
  160.1310  204.8220  150.2120 C   0  0  0  0  0  2  0  0  0  0  0  0
  159.8110  206.0470  149.3510 C   0  0  2  0  0  3  0  0  0  0  0  0
  162.0900  209.6650  155.8910 C   0  0  0  0  0  2  0  0  0  0  0  0
  161.8120  210.3430  154.7730 C   0  0  0  0  0  3  0  0  0  0  0  0
  1  4  1  0  0  0  0
  1 19  1  6  0  0  0
  2  6  1  1  0  0  0
  2  1  1  0  0  0  0
  3 11  1  6  0  0  0
  3  7  1  0  0  0  0
  3  6  1  0  0  0  0
  5 23  1  6  0  0  0
  5  4  1  0  0  0  0
  8  7  1  1  0  0  0
  8  2  1  0  0  0  0
  8  5  1  0  0  0  0
  9 11  1  0  0  0  0
 10 15  1  0  0  0  0
 12 14  1  0  0  0  0
 12 13  1  0  0  0  0
 13 17  1  0  0  0  0
 14 16  1  0  0  0  0
 15 11  2  0  0  0  0
 16 17  1  0  0  0  0
 16 10  2  0  0  0  0
 17  9  2  0  0  0  0
 18 10  1  0  0  0  0
 19 20  1  0  0  0  0
 21 22  1  0  0  0  0
 22 20  1  0  0  0  0
 23 24  1  0  0  0  0
 23 39  1  1  0  0  0
 25 26  1  0  0  0  0
 26 27  2  0  0  0  0
 26 24  1  0  0  0  0
 28 25  1  0  0  0  0
 29 28  1  0  0  0  0
 31 30  1  6  0  0  0
 31 33  1  0  0  0  0
 31 37  1  0  0  0  0
 31 34  1  0  0  0  0
 32 35  1  6  0  0  0
 32 36  1  0  0  0  0
 33 32  1  0  0  0  0
 34 28  1  1  0  0  0
 37 34  1  0  0  0  0
 37 36  1  1  0  0  0
 39 38  2  0  0  0  0
M  END
>  <MODEL>
1

>  <REMARK>
 VINA RESULT:      -6.4      0.000      0.000
  Name = 
  9 active torsions:
  status: ('A' for Active; 'I' for Inactive)
    1  A    between atoms: C_5  and  C_28
    2  A    between atoms: N_6  and  N_16
    3  A    between atoms: N_6  and  C_23
    4  A    between atoms: N_7  and  C_30
    5  A    between atoms: C_10  and  C_14
    6  A    between atoms: C_13  and  C_24
    7  A    between atoms: C_13  and  C_28
    8  A    between atoms: C_22  and  C_30
    9  A    between atoms: C_26  and  C_30
                            x       y       z     vdW  Elec       q    Type
                         _______ _______ _______ _____ _____    ______ ____

>  <TORSDO>
F 9

$$$$
=
 OpenBabel11052409593D

 39 44  0  0  1  0  0  0  0  0999 V2000
  158.5800  213.7160  146.8260 C   0  0  2  0  0  3  0  0  0  0  0  0
  158.8200  212.9340  145.5360 C   0  0  1  0  0  3  0  0  0  0  0  0
  160.3730  213.6940  143.8440 C   0  0  1  0  0  3  0  0  0  0  0  0
  159.7590  213.5070  147.6650 N   0  0  0  0  0  2  0  0  0  0  0  0
  160.3060  212.2600  147.1500 C   0  0  1  0  0  3  0  0  0  0  0  0
  158.9580  213.8720  144.3450 C   0  0  0  0  0  2  0  0  0  0  0  0
  161.0750  213.0340  145.0030 C   0  0  0  0  0  2  0  0  0  0  0  0
  160.0800  212.2220  145.7020 N   0  0  2  0  0  0  0  0  0  0  0  0
  159.3420  212.7150  141.7850 C   0  0  0  0  0  3  0  0  0  0  0  0
  161.7490  211.4380  141.0760 C   0  0  0  0  0  0  0  0  0  0  0  0
  160.4590  212.7950  142.6410 C   0  0  0  0  0  0  0  0  0  0  0  0
  159.3750  210.9480  138.2930 C   0  0  0  0  0  2  0  0  0  0  0  0
  158.1670  211.8230  139.3790 S   0  0  0  0  0  0  0  0  0  0  0  0
  160.6020  210.7820  139.0010 O   0  0  0  0  0  0  0  0  0  0  0  0
  161.6640  212.1520  142.2770 C   0  0  0  0  0  3  0  0  0  0  0  0
  160.6310  211.3910  140.2380 C   0  0  0  0  0  0  0  0  0  0  0  0
  159.4520  211.9950  140.5950 C   0  0  0  0  0  0  0  0  0  0  0  0
  162.9320  210.8030  140.7200 O   0  0  0  0  0  1  0  0  0  0  0  0
  157.3390  213.1610  147.5220 C   0  0  0  0  0  2  0  0  0  0  0  0
  156.4300  214.2880  147.9600 C   0  0  0  0  0  2  0  0  0  0  0  0
  157.1400  213.7250  150.2060 N   0  0  0  0  0  1  0  0  0  0  0  0
  155.9800  214.0500  149.3890 C   0  0  0  0  0  2  0  0  0  0  0  0
  161.7640  212.0060  147.5680 C   0  0  2  0  0  3  0  0  0  0  0  0
  161.7990  211.5050  148.9470 N   0  0  0  0  0  2  0  0  0  0  0  0
  161.9380  209.0940  148.3530 N   0  0  0  0  0  2  0  0  0  0  0  0
  162.0300  210.1430  149.3240 C   0  0  0  0  0  0  0  0  0  0  0  0
  162.3200  209.8830  150.5200 O   0  0  0  0  0  0  0  0  0  0  0  0
  162.0420  207.7280  148.6720 N   0  0  0  0  0  0  0  0  0  0  0  0
  163.4360  207.3850  148.4760 C   0  0  0  0  0  1  0  0  0  0  0  0
  161.0880  204.6950  146.7190 O   0  0  0  0  0  1  0  0  0  0  0  0
  161.3140  205.4690  147.8620 C   0  0  1  0  0  0  0  0  0  0  0  0
  161.1870  205.2950  150.2930 C   0  0  2  0  0  3  0  0  0  0  0  0
  161.9260  204.7860  149.0740 C   0  0  0  0  0  2  0  0  0  0  0  0
  161.2710  206.9850  147.6700 C   0  0  1  0  0  3  0  0  0  0  0  0
  160.6740  204.1280  151.1070 C   0  0  0  0  0  1  0  0  0  0  0  0
  160.0260  206.1410  149.8070 C   0  0  0  0  0  2  0  0  0  0  0  0
  160.0720  206.2160  148.2780 C   0  0  2  0  0  3  0  0  0  0  0  0
  162.5210  214.2480  148.2600 C   0  0  0  0  0  2  0  0  0  0  0  0
  162.6190  213.2320  147.3990 C   0  0  0  0  0  3  0  0  0  0  0  0
  1 19  1  1  0  0  0
  1  4  1  0  0  0  0
  2  6  1  6  0  0  0
  2  8  1  0  0  0  0
  2  1  1  0  0  0  0
  3 11  1  6  0  0  0
  3  6  1  0  0  0  0
  3  7  1  0  0  0  0
  5 23  1  6  0  0  0
  5  4  1  0  0  0  0
  8  7  1  6  0  0  0
  8  5  1  0  0  0  0
  9 11  1  0  0  0  0
 10 15  1  0  0  0  0
 12 14  1  0  0  0  0
 12 13  1  0  0  0  0
 13 17  1  0  0  0  0
 14 16  1  0  0  0  0
 15 11  2  0  0  0  0
 16 17  1  0  0  0  0
 16 10  2  0  0  0  0
 17  9  2  0  0  0  0
 18 10  1  0  0  0  0
 19 20  1  0  0  0  0
 20 22  1  0  0  0  0
 22 21  1  0  0  0  0
 23 39  1  1  0  0  0
 23 24  1  0  0  0  0
 24 26  1  0  0  0  0
 25 28  1  0  0  0  0
 25 26  1  0  0  0  0
 26 27  2  0  0  0  0
 29 28  1  0  0  0  0
 31 30  1  6  0  0  0
 31 37  1  0  0  0  0
 31 33  1  0  0  0  0
 32 35  1  6  0  0  0
 33 32  1  0  0  0  0
 34 31  1  0  0  0  0
 34 37  1  0  0  0  0
 34 28  1  1  0  0  0
 36 32  1  0  0  0  0
 37 36  1  1  0  0  0
 39 38  2  0  0  0  0
M  END
>  <MODEL>
2

>  <REMARK>
 VINA RESULT:      -5.0      4.378      6.622
  Name = 
  9 active torsions:
  status: ('A' for Active; 'I' for Inactive)
    1  A    between atoms: C_5  and  C_28
    2  A    between atoms: N_6  and  N_16
    3  A    between atoms: N_6  and  C_23
    4  A    between atoms: N_7  and  C_30
    5  A    between atoms: C_10  and  C_14
    6  A    between atoms: C_13  and  C_24
    7  A    between atoms: C_13  and  C_28
    8  A    between atoms: C_22  and  C_30
    9  A    between atoms: C_26  and  C_30
                            x       y       z     vdW  Elec       q    Type
                         _______ _______ _______ _____ _____    ______ ____

>  <TORSDO>
F 9

$$$$
=
 OpenBabel11052409593D

 39 44  0  0  1  0  0  0  0  0999 V2000
  162.2880  209.8410  149.2490 C   0  0  2  0  0  3  0  0  0  0  0  0
  161.6640  208.5020  148.8600 C   0  0  1  0  0  3  0  0  0  0  0  0
  162.7660  206.3950  149.3040 C   0  0  1  0  0  3  0  0  0  0  0  0
  162.1530  209.9570  150.7010 N   0  0  0  0  0  2  0  0  0  0  0  0
  161.0380  209.0690  150.9940 C   0  0  1  0  0  3  0  0  0  0  0  0
  162.7170  207.5430  148.3220 C   0  0  0  0  0  2  0  0  0  0  0  0
  162.0960  206.9550  150.5320 C   0  0  0  0  0  2  0  0  0  0  0  0
  161.1050  207.9280  150.0760 N   0  0  2  0  0  0  0  0  0  0  0  0
  161.9490  204.9280  147.4490 C   0  0  0  0  0  3  0  0  0  0  0  0
  160.8760  203.0680  149.2690 C   0  0  0  0  0  0  0  0  0  0  0  0
  161.9990  205.1900  148.8330 C   0  0  0  0  0  0  0  0  0  0  0  0
  160.5490  201.6230  145.8880 C   0  0  0  0  0  2  0  0  0  0  0  0
  161.2460  203.2300  145.3080 S   0  0  0  0  0  0  0  0  0  0  0  0
  160.3760  201.6760  147.3040 O   0  0  0  0  0  0  0  0  0  0  0  0
  161.4590  204.2500  149.7400 C   0  0  0  0  0  3  0  0  0  0  0  0
  160.8560  202.8260  147.8920 C   0  0  0  0  0  0  0  0  0  0  0  0
  161.3600  203.7440  147.0050 C   0  0  0  0  0  0  0  0  0  0  0  0
  160.3420  202.1460  150.1610 O   0  0  0  0  0  1  0  0  0  0  0  0
  161.5200  210.9680  148.5620 C   0  0  0  0  0  2  0  0  0  0  0  0
  162.3310  212.2440  148.5710 C   0  0  0  0  0  2  0  0  0  0  0  0
  161.2380  213.5810  146.8740 N   0  0  0  0  0  1  0  0  0  0  0  0
  162.4270  212.7940  147.1600 C   0  0  0  0  0  2  0  0  0  0  0  0
  160.9320  208.6790  152.4780 C   0  0  2  0  0  3  0  0  0  0  0  0
  161.7830  209.5650  153.2800 N   0  0  0  0  0  2  0  0  0  0  0  0
  159.9770  210.3840  154.7800 N   0  0  0  0  0  2  0  0  0  0  0  0
  161.3680  210.2610  154.4610 C   0  0  0  0  0  0  0  0  0  0  0  0
  162.2420  210.7560  155.2160 O   0  0  0  0  0  0  0  0  0  0  0  0
  159.4920  211.1450  155.8600 N   0  0  0  0  0  0  0  0  0  0  0  0
  160.0760  210.5570  157.0470 C   0  0  0  0  0  1  0  0  0  0  0  0
  155.9420  212.1740  156.3820 O   0  0  0  0  0  1  0  0  0  0  0  0
  157.2170  212.2010  155.8060 C   0  0  1  0  0  0  0  0  0  0  0  0
  158.4670  213.4000  154.0860 C   0  0  2  0  0  3  0  0  0  0  0  0
  157.8030  213.5530  155.4370 C   0  0  0  0  0  2  0  0  0  0  0  0
  158.0440  210.9210  155.9360 C   0  0  1  0  0  3  0  0  0  0  0  0
  157.9450  214.4530  153.1340 C   0  0  0  0  0  1  0  0  0  0  0  0
  158.1320  212.0150  153.5640 C   0  0  0  0  0  2  0  0  0  0  0  0
  157.3080  211.2730  154.6200 C   0  0  2  0  0  3  0  0  0  0  0  0
  160.9200  206.6230  153.8400 C   0  0  0  0  0  2  0  0  0  0  0  0
  161.2700  207.2310  152.7030 C   0  0  0  0  0  3  0  0  0  0  0  0
  1 19  1  6  0  0  0
  1  4  1  0  0  0  0
  2  6  1  1  0  0  0
  2  1  1  0  0  0  0
  2  8  1  0  0  0  0
  3 11  1  6  0  0  0
  3  7  1  0  0  0  0
  4  5  1  0  0  0  0
  5 23  1  1  0  0  0
  6  3  1  0  0  0  0
  8  7  1  1  0  0  0
  8  5  1  0  0  0  0
  9 11  1  0  0  0  0
 10 15  1  0  0  0  0
 10 18  1  0  0  0  0
 11 15  2  0  0  0  0
 12 14  1  0  0  0  0
 13 12  1  0  0  0  0
 13 17  1  0  0  0  0
 14 16  1  0  0  0  0
 16 10  2  0  0  0  0
 17  9  2  0  0  0  0
 17 16  1  0  0  0  0
 19 20  1  0  0  0  0
 21 22  1  0  0  0  0
 22 20  1  0  0  0  0
 23 39  1  6  0  0  0
 23 24  1  0  0  0  0
 24 26  1  0  0  0  0
 25 28  1  0  0  0  0
 26 25  1  0  0  0  0
 26 27  2  0  0  0  0
 28 29  1  0  0  0  0
 31 34  1  0  0  0  0
 31 30  1  1  0  0  0
 32 35  1  6  0  0  0
 32 33  1  0  0  0  0
 33 31  1  0  0  0  0
 34 28  1  6  0  0  0
 36 32  1  0  0  0  0
 37 36  1  6  0  0  0
 37 31  1  0  0  0  0
 37 34  1  0  0  0  0
 39 38  2  0  0  0  0
M  END
>  <MODEL>
3

>  <REMARK>
 VINA RESULT:      -4.8      3.425      8.598
  Name = 
  9 active torsions:
  status: ('A' for Active; 'I' for Inactive)
    1  A    between atoms: C_5  and  C_28
    2  A    between atoms: N_6  and  N_16
    3  A    between atoms: N_6  and  C_23
    4  A    between atoms: N_7  and  C_30
    5  A    between atoms: C_10  and  C_14
    6  A    between atoms: C_13  and  C_24
    7  A    between atoms: C_13  and  C_28
    8  A    between atoms: C_22  and  C_30
    9  A    between atoms: C_26  and  C_30
                            x       y       z     vdW  Elec       q    Type
                         _______ _______ _______ _____ _____    ______ ____

>  <TORSDO>
F 9

$$$$
=
 OpenBabel11052409593D

 39 44  0  0  1  0  0  0  0  0999 V2000
  161.2910  204.1160  150.5430 C   0  0  2  0  0  3  0  0  0  0  0  0
  160.7540  205.1070  151.5740 C   0  0  1  0  0  3  0  0  0  0  0  0
  162.2150  206.2990  153.0890 C   0  0  1  0  0  3  0  0  0  0  0  0
  161.9110  204.9110  149.4840 N   0  0  0  0  0  2  0  0  0  0  0  0
  161.2490  206.2000  149.6180 C   0  0  1  0  0  3  0  0  0  0  0  0
  161.5020  204.9800  152.8950 C   0  0  0  0  0  2  0  0  0  0  0  0
  162.2060  206.9100  151.7110 C   0  0  0  0  0  2  0  0  0  0  0  0
  160.9940  206.4410  151.0420 N   0  0  2  0  0  0  0  0  0  0  0  0
  161.2410  208.5400  153.6250 C   0  0  0  0  0  3  0  0  0  0  0  0
  160.1710  207.5980  156.0530 C   0  0  0  0  0  0  0  0  0  0  0  0
  161.4970  207.2180  154.0390 C   0  0  0  0  0  0  0  0  0  0  0  0
  158.9300  211.0380  155.5590 C   0  0  0  0  0  2  0  0  0  0  0  0
  159.9970  211.0370  154.0540 S   0  0  0  0  0  0  0  0  0  0  0  0
  159.1100  209.8060  156.2570 O   0  0  0  0  0  0  0  0  0  0  0  0
  160.9560  206.7520  155.2590 C   0  0  0  0  0  3  0  0  0  0  0  0
  159.9180  208.8980  155.6080 C   0  0  0  0  0  0  0  0  0  0  0  0
  160.4580  209.3630  154.4350 C   0  0  0  0  0  0  0  0  0  0  0  0
  159.6430  207.1400  157.2530 O   0  0  0  0  0  1  0  0  0  0  0  0
  160.1250  203.3080  149.9740 C   0  0  0  0  0  2  0  0  0  0  0  0
  160.5530  201.8840  149.6990 C   0  0  0  0  0  2  0  0  0  0  0  0
  161.3940  200.3840  147.9950 N   0  0  0  0  0  1  0  0  0  0  0  0
  160.9450  201.7450  148.2400 C   0  0  0  0  0  2  0  0  0  0  0  0
  161.9840  207.3490  148.9060 C   0  0  2  0  0  3  0  0  0  0  0  0
  162.1250  208.4840  149.8260 N   0  0  0  0  0  2  0  0  0  0  0  0
  161.9950  210.2550  148.0850 N   0  0  0  0  0  2  0  0  0  0  0  0
  161.9830  209.8620  149.4620 C   0  0  0  0  0  0  0  0  0  0  0  0
  161.8420  210.7210  150.3700 O   0  0  0  0  0  0  0  0  0  0  0  0
  161.9720  211.5960  147.6590 N   0  0  0  0  0  0  0  0  0  0  0  0
  163.1040  212.2310  148.3010 C   0  0  0  0  0  1  0  0  0  0  0  0
  159.7240  214.4510  148.5110 O   0  0  0  0  0  1  0  0  0  0  0  0
  160.4880  213.6190  147.6860 C   0  0  1  0  0  0  0  0  0  0  0  0
  161.1100  213.3710  145.3390 C   0  0  2  0  0  3  0  0  0  0  0  0
  161.2680  214.2630  146.5520 C   0  0  0  0  0  2  0  0  0  0  0  0
  160.7610  212.2110  148.2160 C   0  0  1  0  0  3  0  0  0  0  0  0
  160.6140  214.1860  144.1650 C   0  0  0  0  0  1  0  0  0  0  0  0
  160.1010  212.2940  145.6880 C   0  0  0  0  0  2  0  0  0  0  0  0
  159.6710  212.4710  147.1470 C   0  0  2  0  0  3  0  0  0  0  0  0
  160.8870  206.8200  146.7620 C   0  0  0  0  0  2  0  0  0  0  0  0
  161.2970  207.7490  147.6300 C   0  0  0  0  0  3  0  0  0  0  0  0
  1 19  1  6  0  0  0
  1  2  1  0  0  0  0
  2  6  1  1  0  0  0
  3 11  1  1  0  0  0
  4  5  1  0  0  0  0
  4  1  1  0  0  0  0
  5 23  1  1  0  0  0
  5  8  1  0  0  0  0
  6  3  1  0  0  0  0
  7  3  1  0  0  0  0
  8  2  1  0  0  0  0
  8  7  1  1  0  0  0
  9 11  2  0  0  0  0
  9 17  1  0  0  0  0
 10 18  1  0  0  0  0
 11 15  1  0  0  0  0
 12 14  1  0  0  0  0
 13 17  1  0  0  0  0
 13 12  1  0  0  0  0
 15 10  2  0  0  0  0
 16 10  1  0  0  0  0
 16 14  1  0  0  0  0
 17 16  2  0  0  0  0
 20 19  1  0  0  0  0
 21 22  1  0  0  0  0
 22 20  1  0  0  0  0
 23 39  1  6  0  0  0
 23 24  1  0  0  0  0
 25 26  1  0  0  0  0
 26 24  1  0  0  0  0
 26 27  2  0  0  0  0
 28 25  1  0  0  0  0
 28 29  1  0  0  0  0
 31 34  1  0  0  0  0
 31 30  1  1  0  0  0
 32 35  1  6  0  0  0
 32 36  1  0  0  0  0
 32 33  1  0  0  0  0
 33 31  1  0  0  0  0
 34 28  1  6  0  0  0
 37 36  1  6  0  0  0
 37 31  1  0  0  0  0
 37 34  1  0  0  0  0
 38 39  2  0  0  0  0
M  END
>  <MODEL>
4

>  <REMARK>
 VINA RESULT:      -4.7      3.421      8.719
  Name = 
  9 active torsions:
  status: ('A' for Active; 'I' for Inactive)
    1  A    between atoms: C_5  and  C_28
    2  A    between atoms: N_6  and  N_16
    3  A    between atoms: N_6  and  C_23
    4  A    between atoms: N_7  and  C_30
    5  A    between atoms: C_10  and  C_14
    6  A    between atoms: C_13  and  C_24
    7  A    between atoms: C_13  and  C_28
    8  A    between atoms: C_22  and  C_30
    9  A    between atoms: C_26  and  C_30
                            x       y       z     vdW  Elec       q    Type
                         _______ _______ _______ _____ _____    ______ ____

>  <TORSDO>
F 9

$$$$
=
 OpenBabel11052409593D

 39 44  0  0  1  0  0  0  0  0999 V2000
  161.7160  206.2700  152.8650 C   0  0  2  0  0  3  0  0  0  0  0  0
  160.7180  207.3740  153.2080 C   0  0  1  0  0  3  0  0  0  0  0  0
  161.3980  209.4230  154.3000 C   0  0  1  0  0  3  0  0  0  0  0  0
  162.4880  206.7470  151.7190 N   0  0  0  0  0  2  0  0  0  0  0  0
  161.6020  207.7350  151.1220 C   0  0  1  0  0  3  0  0  0  0  0  0
  161.0240  207.9830  154.5700 C   0  0  0  0  0  2  0  0  0  0  0  0
  161.7140  209.4330  152.8270 C   0  0  0  0  0  2  0  0  0  0  0  0
  160.8750  208.4130  152.2000 N   0  0  2  0  0  0  0  0  0  0  0  0
  160.0530  211.4310  153.6540 C   0  0  0  0  0  3  0  0  0  0  0  0
  158.2250  210.9970  155.7500 C   0  0  0  0  0  0  0  0  0  0  0  0
  160.2680  210.3800  154.5670 C   0  0  0  0  0  0  0  0  0  0  0  0
  156.9110  213.7650  153.6930 C   0  0  0  0  0  2  0  0  0  0  0  0
  158.4780  213.5850  152.7350 S   0  0  0  0  0  0  0  0  0  0  0  0
  156.9350  212.8610  154.7960 O   0  0  0  0  0  0  0  0  0  0  0  0
  159.3450  210.1680  155.6160 C   0  0  0  0  0  3  0  0  0  0  0  0
  158.0270  212.0200  154.8190 C   0  0  0  0  0  0  0  0  0  0  0  0
  158.9310  212.2450  153.8100 C   0  0  0  0  0  0  0  0  0  0  0  0
  157.3200  210.7900  156.7830 O   0  0  0  0  0  1  0  0  0  0  0  0
  160.9480  205.0040  152.4870 C   0  0  0  0  0  2  0  0  0  0  0  0
  161.5100  204.4040  151.2180 C   0  0  0  0  0  2  0  0  0  0  0  0
  160.9060  203.0000  149.3400 N   0  0  0  0  0  1  0  0  0  0  0  0
  160.5890  203.3030  150.7270 C   0  0  0  0  0  2  0  0  0  0  0  0
  162.3100  208.6890  150.1430 C   0  0  2  0  0  3  0  0  0  0  0  0
  162.0170  210.0780  150.5140 N   0  0  0  0  0  2  0  0  0  0  0  0
  162.0120  210.9780  148.1960 N   0  0  0  0  0  2  0  0  0  0  0  0
  161.7290  211.1350  149.5920 C   0  0  0  0  0  0  0  0  0  0  0  0
  161.2190  212.2000  150.0240 O   0  0  0  0  0  0  0  0  0  0  0  0
  161.8600  212.0100  147.2520 N   0  0  0  0  0  0  0  0  0  0  0  0
  162.5840  213.1430  147.7890 C   0  0  0  0  0  1  0  0  0  0  0  0
  158.9890  214.3630  146.8630 O   0  0  0  0  0  1  0  0  0  0  0  0
  160.1540  213.6840  146.4900 C   0  0  1  0  0  0  0  0  0  0  0  0
  161.6920  213.5040  144.6030 C   0  0  2  0  0  3  0  0  0  0  0  0
  161.1920  214.4420  145.6810 C   0  0  0  0  0  2  0  0  0  0  0  0
  160.4400  212.3770  147.2310 C   0  0  1  0  0  3  0  0  0  0  0  0
  161.5670  214.1660  143.2480 C   0  0  0  0  0  1  0  0  0  0  0  0
  160.8360  212.2520  144.6510 C   0  0  0  0  0  2  0  0  0  0  0  0
  159.8370  212.3780  145.8050 C   0  0  2  0  0  3  0  0  0  0  0  0
  161.2800  207.2860  148.3960 C   0  0  0  0  0  2  0  0  0  0  0  0
  161.9370  208.4050  148.7150 C   0  0  0  0  0  3  0  0  0  0  0  0
  1 19  1  6  0  0  0
  1  2  1  0  0  0  0
  2  6  1  1  0  0  0
  3 11  1  6  0  0  0
  3  6  1  0  0  0  0
  4  1  1  0  0  0  0
  5 23  1  1  0  0  0
  5  4  1  0  0  0  0
  5  8  1  0  0  0  0
  7  3  1  0  0  0  0
  8  7  1  1  0  0  0
  8  2  1  0  0  0  0
  9 17  2  0  0  0  0
  9 11  1  0  0  0  0
 10 18  1  0  0  0  0
 11 15  2  0  0  0  0
 12 14  1  0  0  0  0
 13 12  1  0  0  0  0
 13 17  1  0  0  0  0
 14 16  1  0  0  0  0
 15 10  1  0  0  0  0
 16 10  2  0  0  0  0
 17 16  1  0  0  0  0
 20 19  1  0  0  0  0
 21 22  1  0  0  0  0
 22 20  1  0  0  0  0
 23 39  1  6  0  0  0
 23 24  1  0  0  0  0
 25 26  1  0  0  0  0
 26 27  2  0  0  0  0
 26 24  1  0  0  0  0
 28 29  1  0  0  0  0
 28 25  1  0  0  0  0
 31 30  1  1  0  0  0
 31 34  1  0  0  0  0
 32 35  1  6  0  0  0
 32 36  1  0  0  0  0
 32 33  1  0  0  0  0
 33 31  1  0  0  0  0
 34 28  1  6  0  0  0
 37 36  1  6  0  0  0
 37 31  1  0  0  0  0
 37 34  1  0  0  0  0
 38 39  2  0  0  0  0
M  END
>  <MODEL>
5

>  <REMARK>
 VINA RESULT:      -4.5      3.009      7.537
  Name = 
  9 active torsions:
  status: ('A' for Active; 'I' for Inactive)
    1  A    between atoms: C_5  and  C_28
    2  A    between atoms: N_6  and  N_16
    3  A    between atoms: N_6  and  C_23
    4  A    between atoms: N_7  and  C_30
    5  A    between atoms: C_10  and  C_14
    6  A    between atoms: C_13  and  C_24
    7  A    between atoms: C_13  and  C_28
    8  A    between atoms: C_22  and  C_30
    9  A    between atoms: C_26  and  C_30
                            x       y       z     vdW  Elec       q    Type
                         _______ _______ _______ _____ _____    ______ ____

>  <TORSDO>
F 9

$$$$
=
 OpenBabel11052409593D

 39 44  0  0  1  0  0  0  0  0999 V2000
  161.7550  207.1550  153.4530 C   0  0  2  0  0  3  0  0  0  0  0  0
  160.6420  208.1500  153.7750 C   0  0  1  0  0  3  0  0  0  0  0  0
  161.1050  210.4550  154.3440 C   0  0  1  0  0  3  0  0  0  0  0  0
  162.2450  207.4960  152.1180 N   0  0  0  0  0  2  0  0  0  0  0  0
  161.1170  208.2020  151.5310 C   0  0  1  0  0  3  0  0  0  0  0  0
  161.0390  209.0620  154.9280 C   0  0  0  0  0  2  0  0  0  0  0  0
  161.1850  210.2100  152.8600 C   0  0  0  0  0  2  0  0  0  0  0  0
  160.4550  208.9730  152.5880 N   0  0  2  0  0  0  0  0  0  0  0  0
  159.4540  212.2150  153.6850 C   0  0  0  0  0  3  0  0  0  0  0  0
  157.8620  211.7010  155.9490 C   0  0  0  0  0  0  0  0  0  0  0  0
  159.8780  211.2720  154.6420 C   0  0  0  0  0  0  0  0  0  0  0  0
  156.0340  214.1120  153.8350 C   0  0  0  0  0  2  0  0  0  0  0  0
  157.5350  214.0680  152.7640 S   0  0  0  0  0  0  0  0  0  0  0  0
  156.2620  213.3030  154.9880 O   0  0  0  0  0  0  0  0  0  0  0  0
  159.0720  211.0190  155.7760 C   0  0  0  0  0  3  0  0  0  0  0  0
  157.4580  212.6180  154.9740 C   0  0  0  0  0  0  0  0  0  0  0  0
  158.2450  212.8830  153.8820 C   0  0  0  0  0  0  0  0  0  0  0  0
  157.0720  211.4540  157.0650 O   0  0  0  0  0  1  0  0  0  0  0  0
  161.1760  205.7420  153.4520 C   0  0  0  0  0  2  0  0  0  0  0  0
  161.6750  204.9670  152.2530 C   0  0  0  0  0  2  0  0  0  0  0  0
  161.4560  202.5800  151.9040 N   0  0  0  0  0  1  0  0  0  0  0  0
  160.7150  203.8310  151.9480 C   0  0  0  0  0  2  0  0  0  0  0  0
  161.4850  209.0280  150.2860 C   0  0  2  0  0  3  0  0  0  0  0  0
  162.6190  208.3990  149.5980 N   0  0  0  0  0  2  0  0  0  0  0  0
  161.2920  206.6300  148.4610 N   0  0  0  0  0  2  0  0  0  0  0  0
  162.5150  207.3590  148.6200 C   0  0  0  0  0  0  0  0  0  0  0  0
  163.5120  207.0990  147.8980 O   0  0  0  0  0  0  0  0  0  0  0  0
  161.1520  205.5260  147.6000 N   0  0  0  0  0  0  0  0  0  0  0  0
  161.2530  204.3540  148.4460 C   0  0  0  0  0  1  0  0  0  0  0  0
  163.5990  203.9470  145.2660 O   0  0  0  0  0  1  0  0  0  0  0  0
  162.3410  204.3300  145.7430 C   0  0  1  0  0  0  0  0  0  0  0  0
  159.9820  204.1630  145.1400 C   0  0  2  0  0  3  0  0  0  0  0  0
  161.1880  203.3560  145.5700 C   0  0  0  0  0  2  0  0  0  0  0  0
  162.3180  205.5150  146.7090 C   0  0  1  0  0  3  0  0  0  0  0  0
  159.3950  203.5760  143.8760 C   0  0  0  0  0  1  0  0  0  0  0  0
  160.4470  205.5850  144.8850 C   0  0  0  0  0  2  0  0  0  0  0  0
  161.9390  205.6860  145.2170 C   0  0  2  0  0  3  0  0  0  0  0  0
  161.9540  211.3680  149.6620 C   0  0  0  0  0  2  0  0  0  0  0  0
  161.7710  210.4640  150.6290 C   0  0  0  0  0  3  0  0  0  0  0  0
  1 19  1  6  0  0  0
  1  2  1  0  0  0  0
  2  6  1  1  0  0  0
  3 11  1  6  0  0  0
  3  6  1  0  0  0  0
  4  1  1  0  0  0  0
  5 23  1  6  0  0  0
  5  4  1  0  0  0  0
  5  8  1  0  0  0  0
  7  3  1  0  0  0  0
  8  7  1  1  0  0  0
  8  2  1  0  0  0  0
  9 17  2  0  0  0  0
  9 11  1  0  0  0  0
 10 18  1  0  0  0  0
 11 15  2  0  0  0  0
 12 14  1  0  0  0  0
 13 12  1  0  0  0  0
 13 17  1  0  0  0  0
 15 10  1  0  0  0  0
 16 14  1  0  0  0  0
 16 10  2  0  0  0  0
 17 16  1  0  0  0  0
 20 19  1  0  0  0  0
 21 22  1  0  0  0  0
 22 20  1  0  0  0  0
 23 39  1  1  0  0  0
 24 23  1  0  0  0  0
 25 26  1  0  0  0  0
 26 24  1  0  0  0  0
 27 26  2  0  0  0  0
 28 29  1  0  0  0  0
 28 25  1  0  0  0  0
 31 30  1  6  0  0  0
 31 34  1  0  0  0  0
 32 35  1  6  0  0  0
 32 33  1  0  0  0  0
 33 31  1  0  0  0  0
 34 28  1  1  0  0  0
 36 32  1  0  0  0  0
 37 36  1  1  0  0  0
 37 31  1  0  0  0  0
 37 34  1  0  0  0  0
 38 39  2  0  0  0  0
M  END
>  <MODEL>
6

>  <REMARK>
 VINA RESULT:      -3.8      3.334      6.166
  Name = 
  9 active torsions:
  status: ('A' for Active; 'I' for Inactive)
    1  A    between atoms: C_5  and  C_28
    2  A    between atoms: N_6  and  N_16
    3  A    between atoms: N_6  and  C_23
    4  A    between atoms: N_7  and  C_30
    5  A    between atoms: C_10  and  C_14
    6  A    between atoms: C_13  and  C_24
    7  A    between atoms: C_13  and  C_28
    8  A    between atoms: C_22  and  C_30
    9  A    between atoms: C_26  and  C_30
                            x       y       z     vdW  Elec       q    Type
                         _______ _______ _______ _____ _____    ______ ____

>  <TORSDO>
F 9

$$$$
=
 OpenBabel11052409593D

 39 44  0  0  1  0  0  0  0  0999 V2000
  159.8550  210.8480  154.3910 C   0  0  2  0  0  3  0  0  0  0  0  0
  159.3520  211.3030  153.0220 C   0  0  1  0  0  3  0  0  0  0  0  0
  160.7140  212.6370  151.5340 C   0  0  1  0  0  3  0  0  0  0  0  0
  160.8200  209.7770  154.1450 N   0  0  0  0  0  2  0  0  0  0  0  0
  160.4310  209.2860  152.8310 C   0  0  1  0  0  3  0  0  0  0  0  0
  159.7900  212.7310  152.7260 C   0  0  0  0  0  2  0  0  0  0  0  0
  161.0970  211.1800  151.5000 C   0  0  0  0  0  2  0  0  0  0  0  0
  159.9640  210.4260  152.0340 N   0  0  2  0  0  0  0  0  0  0  0  0
  160.7730  212.8780  149.0440 C   0  0  0  0  0  3  0  0  0  0  0  0
  158.0300  213.5010  148.9460 C   0  0  0  0  0  0  0  0  0  0  0  0
  160.0370  212.9980  150.2390 C   0  0  0  0  0  0  0  0  0  0  0  0
  159.2150  213.1750  145.4660 C   0  0  0  0  0  2  0  0  0  0  0  0
  160.8780  212.9240  146.2240 S   0  0  0  0  0  0  0  0  0  0  0  0
  158.2700  213.4520  146.4990 O   0  0  0  0  0  0  0  0  0  0  0  0
  158.6600  213.3090  150.1820 C   0  0  0  0  0  3  0  0  0  0  0  0
  158.7810  213.3580  147.7760 C   0  0  0  0  0  0  0  0  0  0  0  0
  160.1230  213.0760  147.8260 C   0  0  0  0  0  0  0  0  0  0  0  0
  156.6770  213.8110  148.8900 O   0  0  0  0  0  1  0  0  0  0  0  0
  158.6760  210.3120  155.2020 C   0  0  0  0  0  2  0  0  0  0  0  0
  157.8350  211.4540  155.7290 C   0  0  0  0  0  2  0  0  0  0  0  0
  155.7580  210.8690  154.6300 N   0  0  0  0  0  1  0  0  0  0  0  0
  156.4070  210.9810  155.9270 C   0  0  0  0  0  2  0  0  0  0  0  0
  161.5130  208.4370  152.1430 C   0  0  2  0  0  3  0  0  0  0  0  0
  161.6770  208.8840  150.7550 N   0  0  0  0  0  2  0  0  0  0  0  0
  161.3760  206.6440  149.7160 N   0  0  0  0  0  2  0  0  0  0  0  0
  161.4680  208.0690  149.5960 C   0  0  0  0  0  0  0  0  0  0  0  0
  161.3590  208.6230  148.4720 O   0  0  0  0  0  0  0  0  0  0  0  0
  161.2820  205.7760  148.6130 N   0  0  0  0  0  0  0  0  0  0  0  0
  161.2240  204.4400  149.1700 C   0  0  0  0  0  1  0  0  0  0  0  0
  163.9970  204.5080  146.3870 O   0  0  0  0  0  1  0  0  0  0  0  0
  162.6890  204.8300  146.7630 C   0  0  1  0  0  0  0  0  0  0  0  0
  160.4150  204.7570  145.8760 C   0  0  2  0  0  3  0  0  0  0  0  0
  161.5720  203.8940  146.3310 C   0  0  0  0  0  2  0  0  0  0  0  0
  162.5420  205.8770  147.8680 C   0  0  1  0  0  3  0  0  0  0  0  0
  159.9830  204.3450  144.4870 C   0  0  0  0  0  1  0  0  0  0  0  0
  160.8930  206.1970  145.8660 C   0  0  0  0  0  2  0  0  0  0  0  0
  162.3350  206.2460  146.3780 C   0  0  2  0  0  3  0  0  0  0  0  0
  161.8440  206.1890  153.1010 C   0  0  0  0  0  2  0  0  0  0  0  0
  161.2070  206.9670  152.2210 C   0  0  0  0  0  3  0  0  0  0  0  0
  1 19  1  1  0  0  0
  2  6  1  6  0  0  0
  2  1  1  0  0  0  0
  3 11  1  6  0  0  0
  3  6  1  0  0  0  0
  4  1  1  0  0  0  0
  5 23  1  6  0  0  0
  5  4  1  0  0  0  0
  7  3  1  0  0  0  0
  8  7  1  1  0  0  0
  8  5  1  0  0  0  0
  8  2  1  0  0  0  0
  9 11  1  0  0  0  0
 10 15  1  0  0  0  0
 12 13  1  0  0  0  0
 12 14  1  0  0  0  0
 13 17  1  0  0  0  0
 14 16  1  0  0  0  0
 15 11  2  0  0  0  0
 16 17  1  0  0  0  0
 16 10  2  0  0  0  0
 17  9  2  0  0  0  0
 18 10  1  0  0  0  0
 19 20  1  0  0  0  0
 20 22  1  0  0  0  0
 21 22  1  0  0  0  0
 23 39  1  6  0  0  0
 24 23  1  0  0  0  0
 26 25  1  0  0  0  0
 26 24  1  0  0  0  0
 27 26  2  0  0  0  0
 28 29  1  0  0  0  0
 28 25  1  0  0  0  0
 31 30  1  6  0  0  0
 31 34  1  0  0  0  0
 32 35  1  6  0  0  0
 32 33  1  0  0  0  0
 33 31  1  0  0  0  0
 34 28  1  1  0  0  0
 36 32  1  0  0  0  0
 37 36  1  1  0  0  0
 37 31  1  0  0  0  0
 37 34  1  0  0  0  0
 39 38  2  0  0  0  0
M  END
>  <MODEL>
7

>  <REMARK>
 VINA RESULT:      -3.7      1.768      2.715
  Name = 
  9 active torsions:
  status: ('A' for Active; 'I' for Inactive)
    1  A    between atoms: C_5  and  C_28
    2  A    between atoms: N_6  and  N_16
    3  A    between atoms: N_6  and  C_23
    4  A    between atoms: N_7  and  C_30
    5  A    between atoms: C_10  and  C_14
    6  A    between atoms: C_13  and  C_24
    7  A    between atoms: C_13  and  C_28
    8  A    between atoms: C_22  and  C_30
    9  A    between atoms: C_26  and  C_30
                            x       y       z     vdW  Elec       q    Type
                         _______ _______ _______ _____ _____    ______ ____

>  <TORSDO>
F 9

$$$$
=
 OpenBabel11052409593D

 39 44  0  0  1  0  0  0  0  0999 V2000
  162.3240  209.6430  150.0260 C   0  0  2  0  0  3  0  0  0  0  0  0
  161.8720  208.6130  148.9920 C   0  0  1  0  0  3  0  0  0  0  0  0
  163.0800  206.5500  148.6230 C   0  0  1  0  0  3  0  0  0  0  0  0
  161.9890  209.0900  151.3380 N   0  0  0  0  0  2  0  0  0  0  0  0
  160.9240  208.1480  151.0290 C   0  0  1  0  0  3  0  0  0  0  0  0
  163.0650  208.0170  148.2570 C   0  0  0  0  0  2  0  0  0  0  0  0
  162.2090  206.4860  149.8510 C   0  0  0  0  0  2  0  0  0  0  0  0
  161.2080  207.5440  149.7240 N   0  0  2  0  0  0  0  0  0  0  0  0
  162.1780  204.3390  147.8790 C   0  0  0  0  0  3  0  0  0  0  0  0
  161.4280  205.3830  145.3740 C   0  0  0  0  0  0  0  0  0  0  0  0
  162.4870  205.6740  147.5530 C   0  0  0  0  0  0  0  0  0  0  0  0
  160.1280  201.9350  145.5680 C   0  0  0  0  0  2  0  0  0  0  0  0
  160.9950  201.8690  147.1960 S   0  0  0  0  0  0  0  0  0  0  0  0
  160.3970  203.1920  144.9490 O   0  0  0  0  0  0  0  0  0  0  0  0
  162.1060  206.1920  146.2950 C   0  0  0  0  0  3  0  0  0  0  0  0
  161.1180  204.0680  145.7310 C   0  0  0  0  0  0  0  0  0  0  0  0
  161.5030  203.5530  146.9440 C   0  0  0  0  0  0  0  0  0  0  0  0
  161.0570  205.8910  144.1360 O   0  0  0  0  0  1  0  0  0  0  0  0
  161.5600  210.9460  149.7980 C   0  0  0  0  0  2  0  0  0  0  0  0
  162.1520  211.7100  148.6340 C   0  0  0  0  0  2  0  0  0  0  0  0
  160.5360  213.2760  149.5270 N   0  0  0  0  0  1  0  0  0  0  0  0
  161.2950  212.9250  148.3360 C   0  0  0  0  0  2  0  0  0  0  0  0
  160.6560  207.1290  152.1500 C   0  0  2  0  0  3  0  0  0  0  0  0
  161.5120  207.4320  153.3030 N   0  0  0  0  0  2  0  0  0  0  0  0
  160.1660  209.3490  154.1390 N   0  0  0  0  0  2  0  0  0  0  0  0
  161.2080  208.3840  154.3290 C   0  0  0  0  0  0  0  0  0  0  0  0
  161.8650  208.3550  155.4010 O   0  0  0  0  0  0  0  0  0  0  0  0
  159.8870  210.3800  155.0540 N   0  0  0  0  0  0  0  0  0  0  0  0
  160.6090  210.0390  156.2620 C   0  0  0  0  0  1  0  0  0  0  0  0
  156.6920  211.6170  156.5350 O   0  0  0  0  0  1  0  0  0  0  0  0
  157.8370  211.6570  155.7320 C   0  0  1  0  0  0  0  0  0  0  0  0
  158.9520  213.1300  154.1360 C   0  0  2  0  0  3  0  0  0  0  0  0
  158.5620  212.9850  155.5920 C   0  0  0  0  0  2  0  0  0  0  0  0
  158.4560  210.3070  155.3720 C   0  0  1  0  0  3  0  0  0  0  0  0
  158.4520  214.4530  153.6000 C   0  0  0  0  0  1  0  0  0  0  0  0
  158.3140  211.9850  153.3730 C   0  0  0  0  0  2  0  0  0  0  0  0
  157.5730  211.0810  154.3630 C   0  0  2  0  0  3  0  0  0  0  0  0
  161.2040  204.7560  152.5360 C   0  0  0  0  0  2  0  0  0  0  0  0
  160.8400  205.7130  151.6780 C   0  0  0  0  0  3  0  0  0  0  0  0
  1 19  1  6  0  0  0
  1  4  1  0  0  0  0
  2  6  1  1  0  0  0
  2  8  1  0  0  0  0
  2  1  1  0  0  0  0
  3 11  1  6  0  0  0
  3  7  1  0  0  0  0
  5  4  1  0  0  0  0
  5 23  1  1  0  0  0
  6  3  1  0  0  0  0
  8  7  1  1  0  0  0
  8  5  1  0  0  0  0
 10 16  2  0  0  0  0
 10 15  1  0  0  0  0
 11  9  1  0  0  0  0
 12 13  1  0  0  0  0
 14 12  1  0  0  0  0
 14 16  1  0  0  0  0
 15 11  2  0  0  0  0
 16 17  1  0  0  0  0
 17 13  1  0  0  0  0
 17  9  2  0  0  0  0
 18 10  1  0  0  0  0
 20 19  1  0  0  0  0
 22 20  1  0  0  0  0
 22 21  1  0  0  0  0
 23 39  1  6  0  0  0
 23 24  1  0  0  0  0
 24 26  1  0  0  0  0
 25 26  1  0  0  0  0
 25 28  1  0  0  0  0
 26 27  2  0  0  0  0
 28 29  1  0  0  0  0
 31 30  1  1  0  0  0
 32 35  1  6  0  0  0
 32 33  1  0  0  0  0
 33 31  1  0  0  0  0
 34 28  1  6  0  0  0
 34 31  1  0  0  0  0
 36 32  1  0  0  0  0
 37 36  1  6  0  0  0
 37 34  1  0  0  0  0
 37 31  1  0  0  0  0
 39 38  2  0  0  0  0
M  END
>  <MODEL>
8

>  <REMARK>
 VINA RESULT:      -3.6      3.349      8.159
  Name = 
  9 active torsions:
  status: ('A' for Active; 'I' for Inactive)
    1  A    between atoms: C_5  and  C_28
    2  A    between atoms: N_6  and  N_16
    3  A    between atoms: N_6  and  C_23
    4  A    between atoms: N_7  and  C_30
    5  A    between atoms: C_10  and  C_14
    6  A    between atoms: C_13  and  C_24
    7  A    between atoms: C_13  and  C_28
    8  A    between atoms: C_22  and  C_30
    9  A    between atoms: C_26  and  C_30
                            x       y       z     vdW  Elec       q    Type
                         _______ _______ _______ _____ _____    ______ ____

>  <TORSDO>
F 9

$$$$
=
 OpenBabel11052409593D

 39 44  0  0  1  0  0  0  0  0999 V2000
  161.0360  207.0800  153.5000 C   0  0  2  0  0  3  0  0  0  0  0  0
  161.5330  206.4340  152.2090 C   0  0  1  0  0  3  0  0  0  0  0  0
  160.0420  205.9230  150.3740 C   0  0  1  0  0  3  0  0  0  0  0  0
  160.7710  208.4830  153.1880 N   0  0  0  0  0  2  0  0  0  0  0  0
  161.6080  208.7190  152.0220 C   0  0  1  0  0  3  0  0  0  0  0  0
  160.5420  205.3960  151.7000 C   0  0  0  0  0  2  0  0  0  0  0  0
  160.4130  207.3830  150.4130 C   0  0  0  0  0  2  0  0  0  0  0  0
  161.6300  207.4950  151.2160 N   0  0  2  0  0  0  0  0  0  0  0  0
  160.6220  203.8770  149.0560 C   0  0  0  0  0  3  0  0  0  0  0  0
  161.8060  205.4140  147.0160 C   0  0  0  0  0  0  0  0  0  0  0  0
  160.7170  205.2750  149.1950 C   0  0  0  0  0  0  0  0  0  0  0  0
  161.7480  201.9070  145.8660 C   0  0  0  0  0  2  0  0  0  0  0  0
  161.0520  201.5380  147.5350 S   0  0  0  0  0  0  0  0  0  0  0  0
  162.0620  203.2970  145.7900 O   0  0  0  0  0  0  0  0  0  0  0  0
  161.3120  206.0400  148.1660 C   0  0  0  0  0  3  0  0  0  0  0  0
  161.6810  204.0260  146.8960 C   0  0  0  0  0  0  0  0  0  0  0  0
  161.1240  203.2760  147.9010 C   0  0  0  0  0  0  0  0  0  0  0  0
  162.3930  206.1650  146.0060 O   0  0  0  0  0  1  0  0  0  0  0  0
  162.1310  206.9790  154.5610 C   0  0  0  0  0  2  0  0  0  0  0  0
  161.9210  208.0190  155.6390 C   0  0  0  0  0  2  0  0  0  0  0  0
  159.9940  208.9610  156.7640 N   0  0  0  0  0  1  0  0  0  0  0  0
  160.6430  207.7110  156.3980 C   0  0  0  0  0  2  0  0  0  0  0  0
  161.2280  209.9850  151.2340 C   0  0  2  0  0  3  0  0  0  0  0  0
  162.0860  210.1010  150.0500 N   0  0  0  0  0  2  0  0  0  0  0  0
  160.9960  212.1370  149.1280 N   0  0  0  0  0  2  0  0  0  0  0  0
  162.0770  211.1980  149.1290 C   0  0  0  0  0  0  0  0  0  0  0  0
  163.0370  211.3280  148.3260 O   0  0  0  0  0  0  0  0  0  0  0  0
  160.8660  213.1720  148.1830 N   0  0  0  0  0  0  0  0  0  0  0  0
  161.0380  214.4040  148.9250 C   0  0  0  0  0  1  0  0  0  0  0  0
  157.9890  214.3780  146.1350 O   0  0  0  0  0  1  0  0  0  0  0  0
  159.2790  213.8970  146.3810 C   0  0  1  0  0  0  0  0  0  0  0  0
  161.3080  213.2810  145.1710 C   0  0  2  0  0  3  0  0  0  0  0  0
  160.4170  214.4480  145.5370 C   0  0  0  0  0  2  0  0  0  0  0  0
  159.4810  213.1500  147.6990 C   0  0  1  0  0  3  0  0  0  0  0  0
  161.5090  213.2390  143.6730 C   0  0  0  0  0  1  0  0  0  0  0  0
  160.6200  212.0130  145.6400 C   0  0  0  0  0  2  0  0  0  0  0  0
  159.3210  212.3890  146.3590 C   0  0  2  0  0  3  0  0  0  0  0  0
  160.1810  211.7250  152.6340 C   0  0  0  0  0  2  0  0  0  0  0  0
  161.2920  211.2200  152.0900 C   0  0  0  0  0  3  0  0  0  0  0  0
  1 19  1  1  0  0  0
  2  6  1  6  0  0  0
  2  1  1  0  0  0  0
  3 11  1  6  0  0  0
  3  7  1  0  0  0  0
  3  6  1  0  0  0  0
  4  1  1  0  0  0  0
  5 23  1  6  0  0  0
  5  4  1  0  0  0  0
  8  7  1  6  0  0  0
  8  5  1  0  0  0  0
  8  2  1  0  0  0  0
  9 11  1  0  0  0  0
 10 15  1  0  0  0  0
 12 13  1  0  0  0  0
 13 17  1  0  0  0  0
 14 12  1  0  0  0  0
 14 16  1  0  0  0  0
 15 11  2  0  0  0  0
 16 10  2  0  0  0  0
 16 17  1  0  0  0  0
 17  9  2  0  0  0  0
 18 10  1  0  0  0  0
 19 20  1  0  0  0  0
 20 22  1  0  0  0  0
 22 21  1  0  0  0  0
 23 39  1  1  0  0  0
 24 23  1  0  0  0  0
 25 26  1  0  0  0  0
 26 24  1  0  0  0  0
 27 26  2  0  0  0  0
 28 29  1  0  0  0  0
 28 25  1  0  0  0  0
 31 30  1  6  0  0  0
 31 34  1  0  0  0  0
 32 35  1  6  0  0  0
 32 33  1  0  0  0  0
 32 36  1  0  0  0  0
 33 31  1  0  0  0  0
 34 28  1  6  0  0  0
 37 36  1  6  0  0  0
 37 31  1  0  0  0  0
 37 34  1  0  0  0  0
 39 38  2  0  0  0  0
M  END
>  <MODEL>
9

>  <REMARK>
 VINA RESULT:      -3.4      3.282      7.720
  Name = 
  9 active torsions:
  status: ('A' for Active; 'I' for Inactive)
    1  A    between atoms: C_5  and  C_28
    2  A    between atoms: N_6  and  N_16
    3  A    between atoms: N_6  and  C_23
    4  A    between atoms: N_7  and  C_30
    5  A    between atoms: C_10  and  C_14
    6  A    between atoms: C_13  and  C_24
    7  A    between atoms: C_13  and  C_28
    8  A    between atoms: C_22  and  C_30
    9  A    between atoms: C_26  and  C_30
                            x       y       z     vdW  Elec       q    Type
                         _______ _______ _______ _____ _____    ______ ____

>  <TORSDO>
F 9

$$$$
