=
 OpenBabel11052410573D

 70 78  0  0  1  0  0  0  0  0999 V2000
  160.9020  211.8210  148.5280 C   0  0  0  0  0  0  0  0  0  0  0  0
  160.5980  212.2530  149.8350 N   0  0  0  0  0  0  0  0  0  0  0  0
  160.5650  211.7790  152.2040 C   0  0  0  0  0  3  0  0  0  0  0  0
  161.7460  210.2220  150.7270 C   0  0  0  0  0  0  0  0  0  0  0  0
  162.2490  209.4210  151.9000 C   0  0  0  0  0  3  0  0  0  0  0  0
  160.2700  212.6640  147.4870 C   0  0  1  0  0  3  0  0  0  0  0  0
  160.8470  210.8920  153.3530 C   0  0  0  0  0  0  0  0  0  0  0  0
  161.5510  210.6750  148.3120 C   0  0  0  0  0  3  0  0  0  0  0  0
  159.3720  213.6060  148.3070 C   0  0  0  0  0  3  0  0  0  0  0  0
  161.5670  209.7790  153.1920 C   0  0  0  0  0  3  0  0  0  0  0  0
  162.0220  209.8550  149.4560 C   0  0  0  0  0  0  0  0  0  0  0  0
  160.9770  211.4690  150.9730 C   0  0  1  0  0  3  0  0  0  0  0  0
  159.6920  213.3840  149.7990 C   0  0  0  0  0  3  0  0  0  0  0  0
  159.0500  211.8950  154.8460 C   0  0  0  0  0  0  0  0  0  0  0  0
  160.2390  211.1290  154.6270 N   0  0  0  0  0  2  0  0  0  0  0  0
  158.4610  211.8050  155.9560 O   0  0  0  0  0  0  0  0  0  0  0  0
  158.5820  212.8090  153.8410 N   0  0  0  0  0  2  0  0  0  0  0  0
  157.3900  213.6530  153.9190 C   0  0  1  0  0  3  0  0  0  0  0  0
  157.4370  213.3210  151.5210 O   0  0  0  0  0  1  0  0  0  0  0  0
  156.8770  214.0870  152.5460 C   0  0  0  0  0  2  0  0  0  0  0  0
  156.1340  213.6110  155.9380 O   0  0  0  0  0  0  0  0  0  0  0  0
  156.3330  213.1050  154.8430 C   0  0  0  0  0  0  0  0  0  0  0  0
  155.5150  211.9220  154.4280 C   0  0  0  0  0  2  0  0  0  0  0  0
  155.7250  210.7520  155.3770 C   0  0  0  0  0  3  0  0  0  0  0  0
  155.0970  209.6270  154.8520 O   0  0  0  0  0  1  0  0  0  0  0  0
  155.1710  211.0470  156.6260 O   0  0  0  0  0  1  0  0  0  0  0  0
  162.7470  208.5800  149.1600 C   0  0  0  0  0  2  0  0  0  0  0  0
  162.1050  207.8390  148.0020 C   0  0  0  0  0  2  0  0  0  0  0  0
  162.5680  206.4950  147.9710 O   0  0  0  0  0  0  0  0  0  0  0  0
  164.0580  204.8430  146.6070 S   0  0  0  0  0  0  0  0  0  0  0  0
  162.7340  205.7940  146.7760 C   0  0  0  0  0  0  0  0  0  0  0  0
  161.7610  205.9120  145.7310 N   0  0  0  0  0  2  0  0  0  0  0  0
  160.4780  205.2240  145.7190 C   0  0  0  0  0  2  0  0  0  0  0  0
  160.8650  202.7790  145.4060 C   0  0  0  0  0  3  0  0  0  0  0  0
  161.0210  201.4860  145.8990 C   0  0  0  0  0  3  0  0  0  0  0  0
  160.6860  202.3110  148.1660 C   0  0  0  0  0  0  0  0  0  0  0  0
  160.6170  203.8430  146.2760 C   0  0  0  0  0  0  0  0  0  0  0  0
  161.5540  201.0600  150.1280 C   0  0  0  0  0  1  0  0  0  0  0  0
  160.2350  204.6710  148.5190 O   0  0  0  0  0  0  0  0  0  0  0  0
  161.6850  204.1460  150.3820 C   0  0  0  0  0  2  0  0  0  0  0  0
  160.5150  203.6080  147.6600 C   0  0  0  0  0  0  0  0  0  0  0  0
  160.4760  202.0140  149.6320 C   0  0  2  0  0  0  0  0  0  0  0  0
  160.9250  201.2520  147.2720 C   0  0  0  0  0  3  0  0  0  0  0  0
  160.3090  204.6290  149.9450 C   0  0  2  0  0  3  0  0  0  0  0  0
  159.2430  201.3730  149.7710 O   0  0  0  0  0  1  0  0  0  0  0  0
  160.4740  203.2400  150.5690 C   0  0  2  0  0  3  0  0  0  0  0  0
  161.2790  213.4160  146.7360 N   0  0  0  0  0  0  0  0  0  0  0  0
  162.7130  212.8710  144.8210 C   0  0  0  0  0  3  0  0  0  0  0  0
  161.8210  212.7620  142.5830 C   0  0  0  0  0  3  0  0  0  0  0  0
  160.3460  213.2620  144.4460 C   0  0  0  0  0  0  0  0  0  0  0  0
  160.5310  213.0450  143.0600 C   0  0  0  0  0  0  0  0  0  0  0  0
  159.0820  213.5610  144.9490 O   0  0  0  0  0  1  0  0  0  0  0  0
  162.9020  212.6720  143.4570 C   0  0  0  0  0  3  0  0  0  0  0  0
  161.4420  213.1700  145.3290 C   0  0  0  0  0  0  0  0  0  0  0  0
  157.3630  214.1060  141.2460 C   0  0  0  0  0  3  0  0  0  0  0  0
  159.4060  213.0840  142.0870 C   0  0  0  0  0  0  0  0  0  0  0  0
  159.2600  212.0620  141.1360 C   0  0  0  0  0  3  0  0  0  0  0  0
  158.1830  212.0650  140.2450 C   0  0  0  0  0  3  0  0  0  0  0  0
  158.4440  214.1060  142.1320 C   0  0  0  0  0  3  0  0  0  0  0  0
  157.2300  213.0880  140.3010 C   0  0  0  0  0  0  0  0  0  0  0  0
  155.7990  212.4480  138.1480 C   0  0  0  0  0  2  0  0  0  0  0  0
  156.1130  213.0780  139.4120 N   0  0  0  0  0  0  0  0  0  0  0  0
  154.4850  213.0180  138.0960 C   0  0  0  0  0  2  0  0  0  0  0  0
  154.7660  213.6860  139.4010 C   0  0  0  0  0  0  0  0  0  0  0  0
  154.1270  214.4480  140.1700 O   0  0  0  0  0  0  0  0  0  0  0  0
  161.9970  214.4510  147.3640 N   0  0  0  0  0  2  0  0  0  0  0  0
  162.6650  213.8950  148.5320 C   0  0  0  0  0  2  0  0  0  0  0  0
  164.3930  212.0200  147.7370 C   0  0  0  0  0  0  0  0  0  0  0  0
  163.6160  212.8680  148.0960 C   0  0  0  0  0  0  0  0  0  0  0  0
  165.3340  210.9830  147.3100 C   0  0  0  0  0  1  0  0  0  0  0  0
  1  2  1  0  0  0  0
  2 12  1  0  0  0  0
  3  7  2  0  0  0  0
  4 12  1  0  0  0  0
  4  5  1  0  0  0  0
  5 10  2  0  0  0  0
  6 47  1  1  0  0  0
  6  9  1  0  0  0  0
  6  1  1  0  0  0  0
  7 15  1  0  0  0  0
  8  1  2  0  0  0  0
  8 11  1  0  0  0  0
  9 13  2  0  0  0  0
 10  7  1  0  0  0  0
 11  4  2  0  0  0  0
 12  3  1  6  0  0  0
 13  2  1  0  0  0  0
 14 16  2  0  0  0  0
 15 14  1  0  0  0  0
 17 18  1  0  0  0  0
 17 14  1  0  0  0  0
 18 20  1  6  0  0  0
 18 22  1  0  0  0  0
 19 20  1  0  0  0  0
 22 21  2  0  0  0  0
 23 22  1  0  0  0  0
 23 24  1  0  0  0  0
 24 26  1  0  0  0  0
 25 24  1  0  0  0  0
 27 11  1  0  0  0  0
 28 27  1  0  0  0  0
 29 28  1  0  0  0  0
 30 31  2  0  0  0  0
 31 29  1  0  0  0  0
 32 31  1  0  0  0  0
 33 32  1  0  0  0  0
 33 37  1  0  0  0  0
 34 35  2  0  0  0  0
 34 37  1  0  0  0  0
 35 43  1  0  0  0  0
 36 42  1  0  0  0  0
 37 41  2  0  0  0  0
 39 44  1  0  0  0  0
 41 36  1  0  0  0  0
 41 39  1  0  0  0  0
 42 45  1  0  0  0  0
 42 38  1  1  0  0  0
 42 46  1  0  0  0  0
 43 36  2  0  0  0  0
 44 40  1  6  0  0  0
 44 46  1  0  0  0  0
 46 40  1  6  0  0  0
 47 66  1  0  0  0  0
 48 54  1  0  0  0  0
 49 51  2  0  0  0  0
 49 53  1  0  0  0  0
 50 52  1  0  0  0  0
 50 54  2  0  0  0  0
 51 50  1  0  0  0  0
 53 48  2  0  0  0  0
 54 47  1  0  0  0  0
 55 59  1  0  0  0  0
 56 59  2  0  0  0  0
 56 51  1  0  0  0  0
 57 56  1  0  0  0  0
 58 60  1  0  0  0  0
 58 57  2  0  0  0  0
 60 55  2  0  0  0  0
 61 62  1  0  0  0  0
 62 60  1  0  0  0  0
 63 61  1  0  0  0  0
 63 64  1  0  0  0  0
 64 62  1  0  0  0  0
 64 65  2  0  0  0  0
 66 67  1  0  0  0  0
 68 69  3  0  0  0  0
 69 67  1  0  0  0  0
 70 68  1  0  0  0  0
M  END
>  <MODEL>
1

>  <REMARK>
 VINA RESULT:      -2.0      0.000      0.000
  Name = 
  20 active torsions:
  status: ('A' for Active; 'I' for Inactive)
    1  A    between atoms: O_7  and  C_47
    2  A    between atoms: O_7  and  C_62
    3  A    between atoms: N_8  and  C_39
    4  A    between atoms: N_8  and  N_53
    5  A    between atoms: N_12  and  C_69
    6  A    between atoms: C_13  and  C_15
    7  A    between atoms: C_13  and  C_27
    8  A    between atoms: C_18  and  C_44
    9  A    between atoms: C_19  and  C_67
   10  A    between atoms: C_20  and  CA_60
   11  A    between atoms: C_25  and  C_47
   12  A    between atoms: C_25  and  C_52
   13  A    between atoms: C_27  and  CA_60
   14  A    between atoms: C_29  and  N_53
   15  A    between atoms: C_30  and  C_39
   16  A    between atoms: N_32  and  C_40
   17  A    between atoms: N_38  and  C_62
   18  A    between atoms: N_38  and  C_67
   19  A    between atoms: N_50  and  CA_60
   20  A    between atoms: N_53  and  C_58
                            x       y       z     vdW  Elec       q    Type
                         _______ _______ _______ _____ _____    ______ ____

>  <TORSDO>
F 20

$$$$
=
 OpenBabel11052410573D

 70 78  0  0  1  0  0  0  0  0999 V2000
  159.3960  212.6990  151.3580 C   0  0  0  0  0  0  0  0  0  0  0  0
  158.6350  213.1830  150.2740 N   0  0  0  0  0  0  0  0  0  0  0  0
  158.4360  213.5330  147.8930 C   0  0  0  0  0  3  0  0  0  0  0  0
  160.2800  212.1430  148.7100 C   0  0  0  0  0  0  0  0  0  0  0  0
  160.6990  211.7940  147.3050 C   0  0  0  0  0  2  0  0  0  0  0  0
  158.9060  213.1940  152.6660 C   0  0  1  0  0  3  0  0  0  0  0  0
  158.9550  213.3990  146.5150 C   0  0  0  0  0  0  0  0  0  0  0  0
  160.5230  212.0130  151.1590 C   0  0  0  0  0  3  0  0  0  0  0  0
  157.8200  214.2070  152.2640 C   0  0  0  0  0  3  0  0  0  0  0  0
  160.0320  212.6500  146.2640 C   0  0  0  0  0  3  0  0  0  0  0  0
  160.9700  211.6920  149.7810 C   0  0  0  0  0  0  0  0  0  0  0  0
  159.0540  212.9540  148.9240 C   0  0  0  0  0  0  0  0  0  0  0  0
  157.6050  214.0900  150.7410 C   0  0  0  0  0  3  0  0  0  0  0  0
  158.4800  213.8420  144.0560 C   0  0  0  0  0  0  0  0  0  0  0  0
  158.4060  214.1770  145.4460 N   0  0  0  0  0  2  0  0  0  0  0  0
  157.7330  214.4450  143.2420 O   0  0  0  0  0  0  0  0  0  0  0  0
  159.4470  212.8860  143.5930 N   0  0  0  0  0  2  0  0  0  0  0  0
  159.6410  212.4420  142.2130 C   0  0  1  0  0  3  0  0  0  0  0  0
  159.6820  214.2710  140.6260 O   0  0  0  0  0  1  0  0  0  0  0  0
  158.8700  213.2900  141.2010 C   0  0  0  0  0  2  0  0  0  0  0  0
  161.8890  211.8540  142.7180 O   0  0  0  0  0  0  0  0  0  0  0  0
  161.0870  212.2030  141.8630 C   0  0  0  0  0  0  0  0  0  0  0  0
  161.5600  212.3970  140.4570 C   0  0  0  0  0  2  0  0  0  0  0  0
  163.0080  211.9570  140.3010 C   0  0  0  0  0  3  0  0  0  0  0  0
  163.6510  212.8230  139.4240 O   0  0  0  0  0  1  0  0  0  0  0  0
  163.0580  210.6590  139.7850 O   0  0  0  0  0  1  0  0  0  0  0  0
  162.2400  210.9180  149.6130 C   0  0  0  0  0  2  0  0  0  0  0  0
  162.5870  210.1500  150.8740 C   0  0  0  0  0  2  0  0  0  0  0  0
  162.2620  208.7760  150.7090 O   0  0  0  0  0  0  0  0  0  0  0  0
  162.9650  208.2900  148.2430 S   0  0  0  0  0  0  0  0  0  0  0  0
  161.8850  208.2440  149.4750 C   0  0  0  0  0  0  0  0  0  0  0  0
  160.5820  207.6740  149.3060 N   0  0  0  0  0  2  0  0  0  0  0  0
  160.1200  207.0220  148.0890 C   0  0  0  0  0  2  0  0  0  0  0  0
  161.3600  205.2790  146.8050 C   0  0  0  0  0  3  0  0  0  0  0  0
  161.9260  204.0120  146.6820 C   0  0  0  0  0  3  0  0  0  0  0  0
  161.1740  203.4590  148.9310 C   0  0  0  0  0  0  0  0  0  0  0  0
  160.6970  205.6460  147.9780 C   0  0  0  0  0  0  0  0  0  0  0  0
  162.2940  201.6820  150.2580 C   0  0  0  0  0  1  0  0  0  0  0  0
  159.9010  205.0940  150.1960 O   0  0  0  0  0  0  0  0  0  0  0  0
  161.3160  204.1230  151.9000 C   0  0  0  0  0  2  0  0  0  0  0  0
  160.5920  204.7300  149.0400 C   0  0  0  0  0  0  0  0  0  0  0  0
  160.9850  202.4210  150.0120 C   0  0  2  0  0  0  0  0  0  0  0  0
  161.8270  203.1040  147.7380 C   0  0  0  0  0  3  0  0  0  0  0  0
  159.8910  204.3630  151.4240 C   0  0  2  0  0  3  0  0  0  0  0  0
  160.0490  201.4890  149.5580 O   0  0  0  0  0  1  0  0  0  0  0  0
  160.4910  202.9550  151.3730 C   0  0  2  0  0  3  0  0  0  0  0  0
  158.3410  212.1010  153.4630 N   0  0  0  0  0  0  0  0  0  0  0  0
  158.2600  211.1410  155.7190 C   0  0  0  0  0  3  0  0  0  0  0  0
  160.2510  210.9450  157.0670 C   0  0  0  0  0  3  0  0  0  0  0  0
  160.3990  211.8600  154.8220 C   0  0  0  0  0  0  0  0  0  0  0  0
  161.0320  211.4750  156.0280 C   0  0  0  0  0  0  0  0  0  0  0  0
  161.1430  212.4060  153.7780 O   0  0  0  0  0  1  0  0  0  0  0  0
  158.8760  210.7760  156.9120 C   0  0  0  0  0  3  0  0  0  0  0  0
  159.0080  211.6890  154.6680 C   0  0  0  0  0  0  0  0  0  0  0  0
  164.4220  212.6790  157.2580 C   0  0  0  0  0  3  0  0  0  0  0  0
  162.5010  211.5910  156.2310 C   0  0  0  0  0  0  0  0  0  0  0  0
  163.3820  210.7780  155.5010 C   0  0  0  0  0  3  0  0  0  0  0  0
  164.7650  210.9070  155.6500 C   0  0  0  0  0  3  0  0  0  0  0  0
  163.0390  212.5440  157.1120 C   0  0  0  0  0  3  0  0  0  0  0  0
  165.2880  211.8610  156.5300 C   0  0  0  0  0  0  0  0  0  0  0  0
  167.7780  211.2480  157.2490 C   0  0  0  0  0  2  0  0  0  0  0  0
  166.7010  212.0160  156.6640 N   0  0  0  0  0  0  0  0  0  0  0  0
  168.7790  212.1960  156.8570 C   0  0  0  0  0  2  0  0  0  0  0  0
  167.6990  213.0190  156.2380 C   0  0  0  0  0  0  0  0  0  0  0  0
  167.6540  214.1110  155.6150 O   0  0  0  0  0  0  0  0  0  0  0  0
  157.0980  211.5440  153.1120 N   0  0  0  0  0  2  0  0  0  0  0  0
  156.0660  212.2100  153.8940 C   0  0  0  0  0  2  0  0  0  0  0  0
  154.8300  210.3980  155.4190 C   0  0  0  0  0  0  0  0  0  0  0  0
  155.3850  211.2170  154.7300 C   0  0  0  0  0  0  0  0  0  0  0  0
  154.1590  209.3960  156.2490 C   0  0  0  0  0  1  0  0  0  0  0  0
  1  6  1  0  0  0  0
  2 13  1  0  0  0  0
  2  1  1  0  0  0  0
  3 12  2  0  0  0  0
  4 12  1  0  0  0  0
  4 11  2  0  0  0  0
  5  4  1  0  0  0  0
  6 47  1  1  0  0  0
  7  3  1  0  0  0  0
  8  1  2  0  0  0  0
  9  6  1  0  0  0  0
 10  7  2  0  0  0  0
 10  5  1  0  0  0  0
 11  8  1  0  0  0  0
 12  2  1  0  0  0  0
 13  9  2  0  0  0  0
 14 15  1  0  0  0  0
 15  7  1  0  0  0  0
 16 14  2  0  0  0  0
 17 14  1  0  0  0  0
 18 20  1  6  0  0  0
 18 17  1  0  0  0  0
 19 20  1  0  0  0  0
 22 18  1  0  0  0  0
 22 21  2  0  0  0  0
 23 22  1  0  0  0  0
 24 23  1  0  0  0  0
 25 24  1  0  0  0  0
 26 24  1  0  0  0  0
 27 11  1  0  0  0  0
 27 28  1  0  0  0  0
 29 28  1  0  0  0  0
 30 31  2  0  0  0  0
 31 29  1  0  0  0  0
 32 31  1  0  0  0  0
 33 32  1  0  0  0  0
 34 37  1  0  0  0  0
 35 34  2  0  0  0  0
 35 43  1  0  0  0  0
 36 41  1  0  0  0  0
 36 42  1  0  0  0  0
 37 33  1  0  0  0  0
 37 41  2  0  0  0  0
 39 44  1  0  0  0  0
 41 39  1  0  0  0  0
 42 38  1  1  0  0  0
 42 46  1  0  0  0  0
 43 36  2  0  0  0  0
 44 40  1  1  0  0  0
 45 42  1  0  0  0  0
 46 44  1  0  0  0  0
 46 40  1  1  0  0  0
 47 54  1  0  0  0  0
 48 53  1  0  0  0  0
 50 51  2  0  0  0  0
 51 56  1  0  0  0  0
 51 49  1  0  0  0  0
 52 50  1  0  0  0  0
 53 49  2  0  0  0  0
 54 50  1  0  0  0  0
 54 48  2  0  0  0  0
 56 59  2  0  0  0  0
 57 58  2  0  0  0  0
 57 56  1  0  0  0  0
 58 60  1  0  0  0  0
 59 55  1  0  0  0  0
 60 62  1  0  0  0  0
 60 55  2  0  0  0  0
 62 61  1  0  0  0  0
 63 61  1  0  0  0  0
 64 62  1  0  0  0  0
 64 63  1  0  0  0  0
 65 64  2  0  0  0  0
 66 47  1  0  0  0  0
 66 67  1  0  0  0  0
 67 69  1  0  0  0  0
 68 70  1  0  0  0  0
 69 68  3  0  0  0  0
M  END
>  <MODEL>
2

>  <REMARK>
 VINA RESULT:       0.7      3.339     11.038
  Name = 
  20 active torsions:
  status: ('A' for Active; 'I' for Inactive)
    1  A    between atoms: O_7  and  C_47
    2  A    between atoms: O_7  and  C_62
    3  A    between atoms: N_8  and  C_39
    4  A    between atoms: N_8  and  N_53
    5  A    between atoms: N_12  and  C_69
    6  A    between atoms: C_13  and  C_15
    7  A    between atoms: C_13  and  C_27
    8  A    between atoms: C_18  and  C_44
    9  A    between atoms: C_19  and  C_67
   10  A    between atoms: C_20  and  CA_60
   11  A    between atoms: C_25  and  C_47
   12  A    between atoms: C_25  and  C_52
   13  A    between atoms: C_27  and  CA_60
   14  A    between atoms: C_29  and  N_53
   15  A    between atoms: C_30  and  C_39
   16  A    between atoms: N_32  and  C_40
   17  A    between atoms: N_38  and  C_62
   18  A    between atoms: N_38  and  C_67
   19  A    between atoms: N_50  and  CA_60
   20  A    between atoms: N_53  and  C_58
                            x       y       z     vdW  Elec       q    Type
                         _______ _______ _______ _____ _____    ______ ____

>  <TORSDO>
F 20

$$$$
=
 OpenBabel11052410573D

 70 78  0  0  1  0  0  0  0  0999 V2000
  159.3970  212.7000  151.3560 C   0  0  0  0  0  0  0  0  0  0  0  0
  158.6270  213.1760  150.2750 N   0  0  0  0  0  0  0  0  0  0  0  0
  158.4180  213.5300  147.8950 C   0  0  0  0  0  3  0  0  0  0  0  0
  160.2840  212.1650  148.7040 C   0  0  0  0  0  0  0  0  0  0  0  0
  160.7060  211.8270  147.2980 C   0  0  0  0  0  2  0  0  0  0  0  0
  158.9020  213.1840  152.6660 C   0  0  1  0  0  3  0  0  0  0  0  0
  158.9370  213.4080  146.5150 C   0  0  0  0  0  0  0  0  0  0  0  0
  160.5340  212.0310  151.1530 C   0  0  0  0  0  3  0  0  0  0  0  0
  157.8000  214.1810  152.2690 C   0  0  0  0  0  3  0  0  0  0  0  0
  160.0250  212.6760  146.2600 C   0  0  0  0  0  3  0  0  0  0  0  0
  160.9830  211.7210  149.7730 C   0  0  0  0  0  0  0  0  0  0  0  0
  159.0470  212.9570  148.9230 C   0  0  0  0  0  0  0  0  0  0  0  0
  157.5840  214.0660  150.7470 C   0  0  0  0  0  3  0  0  0  0  0  0
  158.4500  213.8500  144.0590 C   0  0  0  0  0  0  0  0  0  0  0  0
  158.3740  214.1810  145.4500 N   0  0  0  0  0  2  0  0  0  0  0  0
  157.6930  214.4450  143.2480 O   0  0  0  0  0  0  0  0  0  0  0  0
  159.4300  212.9100  143.5910 N   0  0  0  0  0  2  0  0  0  0  0  0
  159.6270  212.4730  142.2090 C   0  0  1  0  0  3  0  0  0  0  0  0
  157.7600  212.6070  140.6740 O   0  0  0  0  0  1  0  0  0  0  0  0
  158.8440  213.3140  141.2010 C   0  0  0  0  0  2  0  0  0  0  0  0
  161.8620  211.8130  142.6820 O   0  0  0  0  0  0  0  0  0  0  0  0
  161.0760  212.2550  141.8560 C   0  0  0  0  0  0  0  0  0  0  0  0
  161.5710  212.5840  140.4830 C   0  0  0  0  0  2  0  0  0  0  0  0
  161.1970  211.4940  139.4900 C   0  0  0  0  0  3  0  0  0  0  0  0
  162.3590  210.8870  139.0270 O   0  0  0  0  0  1  0  0  0  0  0  0
  160.5080  212.0520  138.4090 O   0  0  0  0  0  1  0  0  0  0  0  0
  162.2640  210.9670  149.6000 C   0  0  0  0  0  2  0  0  0  0  0  0
  162.7550  210.4080  150.9220 C   0  0  0  0  0  2  0  0  0  0  0  0
  162.4860  209.0130  150.9880 O   0  0  0  0  0  0  0  0  0  0  0  0
  162.9890  208.2040  148.5590 S   0  0  0  0  0  0  0  0  0  0  0  0
  162.0300  208.2920  149.8850 C   0  0  0  0  0  0  0  0  0  0  0  0
  160.7510  207.6460  149.9260 N   0  0  0  0  0  2  0  0  0  0  0  0
  160.1460  206.9440  148.8040 C   0  0  0  0  0  2  0  0  0  0  0  0
  161.0260  204.8000  149.7290 C   0  0  0  0  0  3  0  0  0  0  0  0
  161.6030  203.5410  149.5790 C   0  0  0  0  0  3  0  0  0  0  0  0
  161.7060  203.8760  147.1690 C   0  0  0  0  0  0  0  0  0  0  0  0
  160.7880  205.6060  148.6140 C   0  0  0  0  0  0  0  0  0  0  0  0
  161.8070  201.9470  145.6080 C   0  0  0  0  0  1  0  0  0  0  0  0
  160.9290  205.9740  146.2250 O   0  0  0  0  0  0  0  0  0  0  0  0
  160.1510  204.3640  144.5960 C   0  0  0  0  0  2  0  0  0  0  0  0
  161.1400  205.1490  147.3300 C   0  0  0  0  0  0  0  0  0  0  0  0
  162.1910  203.4050  145.8180 C   0  0  2  0  0  0  0  0  0  0  0  0
  161.9470  203.0850  148.3060 C   0  0  0  0  0  3  0  0  0  0  0  0
  161.0360  205.5750  144.8570 C   0  0  2  0  0  3  0  0  0  0  0  0
  163.5840  203.4850  145.8060 O   0  0  0  0  0  1  0  0  0  0  0  0
  161.6670  204.2020  144.6050 C   0  0  2  0  0  3  0  0  0  0  0  0
  158.3550  212.0800  153.4600 N   0  0  0  0  0  0  0  0  0  0  0  0
  158.2880  211.1170  155.7160 C   0  0  0  0  0  3  0  0  0  0  0  0
  160.2820  210.9480  157.0630 C   0  0  0  0  0  3  0  0  0  0  0  0
  160.4160  211.8680  154.8190 C   0  0  0  0  0  0  0  0  0  0  0  0
  161.0560  211.4910  156.0250 C   0  0  0  0  0  0  0  0  0  0  0  0
  161.1520  212.4260  153.7760 O   0  0  0  0  0  1  0  0  0  0  0  0
  158.9110  210.7590  156.9080 C   0  0  0  0  0  3  0  0  0  0  0  0
  159.0280  211.6760  154.6660 C   0  0  0  0  0  0  0  0  0  0  0  0
  164.4280  212.7450  157.2520 C   0  0  0  0  0  3  0  0  0  0  0  0
  162.5230  211.6280  156.2270 C   0  0  0  0  0  0  0  0  0  0  0  0
  163.4150  210.8260  155.4990 C   0  0  0  0  0  3  0  0  0  0  0  0
  164.7960  210.9750  155.6480 C   0  0  0  0  0  3  0  0  0  0  0  0
  163.0470  212.5910  157.1060 C   0  0  0  0  0  3  0  0  0  0  0  0
  165.3060  211.9390  156.5250 C   0  0  0  0  0  0  0  0  0  0  0  0
  167.8010  211.3700  157.2600 C   0  0  0  0  0  2  0  0  0  0  0  0
  166.7160  212.1140  156.6590 N   0  0  0  0  0  0  0  0  0  0  0  0
  168.7910  212.3240  156.8530 C   0  0  0  0  0  2  0  0  0  0  0  0
  167.7020  213.1220  156.2170 C   0  0  0  0  0  0  0  0  0  0  0  0
  167.6450  214.2020  155.5750 O   0  0  0  0  0  0  0  0  0  0  0  0
  157.1210  211.5030  153.1080 N   0  0  0  0  0  2  0  0  0  0  0  0
  156.0700  212.1990  153.8370 C   0  0  0  0  0  2  0  0  0  0  0  0
  154.8060  210.4580  155.4210 C   0  0  0  0  0  0  0  0  0  0  0  0
  155.3750  211.2420  154.7040 C   0  0  0  0  0  0  0  0  0  0  0  0
  154.1250  209.5030  156.2960 C   0  0  0  0  0  1  0  0  0  0  0  0
  1  6  1  0  0  0  0
  2 13  1  0  0  0  0
  2  1  1  0  0  0  0
  3 12  2  0  0  0  0
  4 12  1  0  0  0  0
  4 11  2  0  0  0  0
  5  4  1  0  0  0  0
  6 47  1  1  0  0  0
  7  3  1  0  0  0  0
  8  1  2  0  0  0  0
  9  6  1  0  0  0  0
 10  7  2  0  0  0  0
 10  5  1  0  0  0  0
 11  8  1  0  0  0  0
 12  2  1  0  0  0  0
 13  9  2  0  0  0  0
 14 15  1  0  0  0  0
 15  7  1  0  0  0  0
 16 14  2  0  0  0  0
 17 14  1  0  0  0  0
 18 20  1  6  0  0  0
 18 17  1  0  0  0  0
 19 20  1  0  0  0  0
 22 18  1  0  0  0  0
 22 21  2  0  0  0  0
 23 22  1  0  0  0  0
 24 23  1  0  0  0  0
 25 24  1  0  0  0  0
 26 24  1  0  0  0  0
 27 11  1  0  0  0  0
 27 28  1  0  0  0  0
 28 29  1  0  0  0  0
 30 31  2  0  0  0  0
 31 32  1  0  0  0  0
 31 29  1  0  0  0  0
 33 32  1  0  0  0  0
 35 34  1  0  0  0  0
 36 41  2  0  0  0  0
 36 43  1  0  0  0  0
 37 33  1  0  0  0  0
 37 34  2  0  0  0  0
 39 41  1  0  0  0  0
 41 37  1  0  0  0  0
 42 38  1  6  0  0  0
 42 36  1  0  0  0  0
 43 35  2  0  0  0  0
 44 40  1  1  0  0  0
 44 39  1  0  0  0  0
 45 42  1  0  0  0  0
 46 40  1  1  0  0  0
 46 44  1  0  0  0  0
 46 42  1  0  0  0  0
 47 54  1  0  0  0  0
 48 53  1  0  0  0  0
 50 51  2  0  0  0  0
 51 56  1  0  0  0  0
 51 49  1  0  0  0  0
 52 50  1  0  0  0  0
 53 49  2  0  0  0  0
 54 50  1  0  0  0  0
 54 48  2  0  0  0  0
 56 59  2  0  0  0  0
 57 58  2  0  0  0  0
 57 56  1  0  0  0  0
 58 60  1  0  0  0  0
 59 55  1  0  0  0  0
 60 62  1  0  0  0  0
 60 55  2  0  0  0  0
 62 61  1  0  0  0  0
 63 61  1  0  0  0  0
 64 62  1  0  0  0  0
 64 63  1  0  0  0  0
 65 64  2  0  0  0  0
 66 47  1  0  0  0  0
 66 67  1  0  0  0  0
 67 69  1  0  0  0  0
 68 70  1  0  0  0  0
 69 68  3  0  0  0  0
M  END
>  <MODEL>
3

>  <REMARK>
 VINA RESULT:       0.8      3.393     11.176
  Name = 
  20 active torsions:
  status: ('A' for Active; 'I' for Inactive)
    1  A    between atoms: O_7  and  C_47
    2  A    between atoms: O_7  and  C_62
    3  A    between atoms: N_8  and  C_39
    4  A    between atoms: N_8  and  N_53
    5  A    between atoms: N_12  and  C_69
    6  A    between atoms: C_13  and  C_15
    7  A    between atoms: C_13  and  C_27
    8  A    between atoms: C_18  and  C_44
    9  A    between atoms: C_19  and  C_67
   10  A    between atoms: C_20  and  CA_60
   11  A    between atoms: C_25  and  C_47
   12  A    between atoms: C_25  and  C_52
   13  A    between atoms: C_27  and  CA_60
   14  A    between atoms: C_29  and  N_53
   15  A    between atoms: C_30  and  C_39
   16  A    between atoms: N_32  and  C_40
   17  A    between atoms: N_38  and  C_62
   18  A    between atoms: N_38  and  C_67
   19  A    between atoms: N_50  and  CA_60
   20  A    between atoms: N_53  and  C_58
                            x       y       z     vdW  Elec       q    Type
                         _______ _______ _______ _____ _____    ______ ____

>  <TORSDO>
F 20

$$$$
