=
 OpenBabel11052410203D

 55 59  0  0  1  0  0  0  0  0999 V2000
  160.1010  211.3520  152.0770 C   0  0  1  0  0  3  0  0  0  0  0  0
  159.0240  212.2430  152.4740 C   0  0  0  0  0  2  0  0  0  0  0  0
  158.0820  211.4490  153.1620 O   0  0  0  0  0  0  0  0  0  0  0  0
  157.7020  212.1790  154.3210 C   0  0  1  0  0  3  0  0  0  0  0  0
  156.1770  212.4030  154.4180 C   0  0  0  0  0  2  0  0  0  0  0  0
  155.8300  213.6340  153.8450 O   0  0  0  0  0  1  0  0  0  0  0  0
  157.9130  211.3450  155.6040 C   0  0  2  0  0  3  0  0  0  0  0  0
  156.8800  211.7770  156.6750 C   0  0  0  0  0  1  0  0  0  0  0  0
  159.8670  210.4760  157.1310 O   0  0  0  0  0  1  0  0  0  0  0  0
  159.2990  211.4590  156.2780 C   0  0  0  0  0  0  0  0  0  0  0  0
  160.0300  212.4580  156.0090 O   0  0  0  0  0  0  0  0  0  0  0  0
  160.8990  212.0150  151.1450 O   0  0  0  0  0  0  0  0  0  0  0  0
  159.4660  213.8120  150.5800 O   0  0  0  0  0  0  0  0  0  0  0  0
  162.1100  212.0300  148.7590 C   0  0  0  0  0  1  0  0  0  0  0  0
  160.2530  212.8880  150.2310 C   0  0  0  0  0  0  0  0  0  0  0  0
  161.0110  212.9490  149.0220 N   0  0  0  0  0  0  0  0  0  0  0  0
  160.8180  214.1400  148.1950 C   0  0  0  0  0  2  0  0  0  0  0  0
  161.5960  214.0940  146.8960 C   0  0  0  0  0  2  0  0  0  0  0  0
  160.7990  214.2810  145.6030 C   0  0  0  0  0  2  0  0  0  0  0  0
  159.4190  213.6000  145.7040 C   0  0  0  0  0  2  0  0  0  0  0  0
  160.3970  211.8590  142.2730 C   0  0  1  0  0  3  0  0  0  0  0  0
  160.7600  212.3380  139.2880 C   0  0  0  0  0  2  0  0  0  0  0  0
  158.5310  213.7770  143.2470 N   0  0  0  0  0  2  0  0  0  0  0  0
  159.3360  212.6170  139.9480 C   0  0  0  0  0  2  0  0  0  0  0  0
  158.6610  213.7960  141.8510 C   0  0  0  0  0  2  0  0  0  0  0  0
  161.9320  211.7740  140.2920 C   0  0  0  0  0  3  0  0  0  0  0  0
  160.4100  212.2540  143.8420 C   0  0  0  0  0  2  0  0  0  0  0  0
  159.5490  212.9150  141.3680 C   0  0  1  0  0  3  0  0  0  0  0  0
  161.7670  211.6580  141.6170 N   0  0  0  0  0  0  0  0  0  0  0  0
  159.2160  212.9560  144.3260 C   0  0  1  0  0  3  0  0  0  0  0  0
  160.8100  210.4960  153.1110 C   0  0  0  0  0  2  0  0  0  0  0  0
  161.4480  209.5930  151.9810 C   0  0  1  0  0  3  0  0  0  0  0  0
  162.8720  209.6660  151.6050 O   0  0  0  0  0  1  0  0  0  0  0  0
  160.9000  208.1800  151.8090 C   0  0  0  0  0  2  0  0  0  0  0  0
  161.4260  204.5200  147.6150 C   0  0  0  0  0  0  0  0  0  0  0  0
  161.1780  206.7950  149.7460 C   0  0  0  0  0  0  0  0  0  0  0  0
  162.1570  208.8240  149.2160 C   0  0  0  0  0  3  0  0  0  0  0  0
  161.7310  203.0820  147.0520 C   0  0  0  0  0  0  0  0  0  0  0  0
  160.7540  203.5610  149.7190 C   0  0  0  0  0  0  0  0  0  0  0  0
  160.4200  205.8250  150.5780 N   0  0  0  0  0  2  0  0  0  0  0  0
  161.0150  204.2160  148.7270 C   0  0  0  0  0  3  0  0  0  0  0  0
  162.6180  206.0890  146.1910 O   0  0  0  0  0  1  0  0  0  0  0  0
  160.6430  204.3880  150.9460 C   0  0  0  0  0  2  0  0  0  0  0  0
  162.4080  208.1010  148.1740 N   0  0  0  0  0  0  0  0  0  0  0  0
  161.4300  201.8120  148.0770 C   0  0  0  0  0  3  0  0  0  0  0  0
  161.9690  205.8160  147.4000 N   0  0  0  0  0  0  0  0  0  0  0  0
  161.7800  206.8850  148.4280 C   0  0  0  0  0  0  0  0  0  0  0  0
  161.0310  202.1410  149.3930 C   0  0  0  0  0  0  0  0  0  0  0  0
  161.2750  208.0860  150.2920 C   0  0  2  0  0  3  0  0  0  0  0  0
  161.0810  201.4220  150.5380 F   0  0  0  0  0  0  0  0  0  0  0  0
  161.6040  202.9920  145.5230 C   0  0  0  0  0  2  0  0  0  0  0  0
  160.0650  203.0720  145.3220 C   0  0  1  0  0  3  0  0  0  0  0  0
  159.6860  203.8360  144.1910 O   0  0  0  0  0  1  0  0  0  0  0  0
  160.1920  200.5000  144.8380 C   0  0  0  0  0  1  0  0  0  0  0  0
  159.3370  201.7330  145.1490 C   0  0  0  0  0  2  0  0  0  0  0  0
  1  2  1  1  0  0  0
  1 31  1  0  0  0  0
  2  3  1  0  0  0  0
  3  4  1  0  0  0  0
  4  5  1  6  0  0  0
  4  7  1  0  0  0  0
  6  5  1  0  0  0  0
  7 10  1  0  0  0  0
  7  8  1  1  0  0  0
 10  9  1  0  0  0  0
 11 10  2  0  0  0  0
 12  1  1  0  0  0  0
 14 16  1  0  0  0  0
 15 13  2  0  0  0  0
 15 12  1  0  0  0  0
 16 15  1  0  0  0  0
 17 16  1  0  0  0  0
 18 17  1  0  0  0  0
 19 20  1  0  0  0  0
 19 18  1  0  0  0  0
 21 27  1  1  0  0  0
 22 24  1  0  0  0  0
 22 26  1  0  0  0  0
 23 30  1  0  0  0  0
 25 23  1  0  0  0  0
 26 29  2  0  0  0  0
 27 30  1  0  0  0  0
 28 24  1  6  0  0  0
 28 25  1  0  0  0  0
 28 21  1  0  0  0  0
 29 21  1  0  0  0  0
 30 20  1  1  0  0  0
 32 33  1  1  0  0  0
 32 31  1  0  0  0  0
 34 32  1  0  0  0  0
 35 41  1  0  0  0  0
 36 49  1  0  0  0  0
 36 40  1  0  0  0  0
 37 49  1  0  0  0  0
 38 35  2  0  0  0  0
 38 45  1  0  0  0  0
 39 43  1  0  0  0  0
 40 43  1  0  0  0  0
 41 39  2  0  0  0  0
 42 46  1  0  0  0  0
 44 47  1  0  0  0  0
 44 37  2  0  0  0  0
 45 48  2  0  0  0  0
 46 35  1  0  0  0  0
 46 47  1  0  0  0  0
 47 36  2  0  0  0  0
 48 39  1  0  0  0  0
 48 50  1  0  0  0  0
 49 34  1  1  0  0  0
 51 38  1  0  0  0  0
 52 53  1  6  0  0  0
 52 51  1  0  0  0  0
 54 55  1  0  0  0  0
 55 52  1  0  0  0  0
M  END
>  <MODEL>
1

>  <REMARK>
 VINA RESULT:      -6.8      0.000      0.000
  Name = 
  20 active torsions:
  status: ('A' for Active; 'I' for Inactive)
    1  A    between atoms: C_8  and  C_39
    2  A    between atoms: C_9  and  C_28
    3  A    between atoms: C_9  and  C_33
    4  A    between atoms: C_10  and  C_29
    5  A    between atoms: C_12  and  C_17
    6  A    between atoms: C_12  and  C_55
    7  A    between atoms: C_15  and  C_39
    8  A    between atoms: C_15  and  C_52
    9  A    between atoms: C_17  and  C_49
   10  A    between atoms: C_18  and  C_44
   11  A    between atoms: O_27  and  C_46
   12  A    between atoms: O_27  and  C_55
   13  A    between atoms: C_28  and  C_31
   14  A    between atoms: C_29  and  C_44
   15  A    between atoms: C_31  and  N_51
   16  A    between atoms: O_32  and  C_36
   17  A    between atoms: O_32  and  C_44
   18  A    between atoms: C_33  and  C_50
   19  A    between atoms: C_36  and  C_55
   20  A    between atoms: C_40  and  C_49
                            x       y       z     vdW  Elec       q    Type
                         _______ _______ _______ _____ _____    ______ ____

>  <TORSDO>
F 20

$$$$
=
 OpenBabel11052410203D

 55 59  0  0  1  0  0  0  0  0999 V2000
  161.2620  205.6340  149.7090 C   0  0  1  0  0  3  0  0  0  0  0  0
  160.8880  204.4980  148.8850 C   0  0  0  0  0  2  0  0  0  0  0  0
  162.0910  203.9430  148.3990 O   0  0  0  0  0  0  0  0  0  0  0  0
  161.7270  202.8960  147.5090 C   0  0  1  0  0  3  0  0  0  0  0  0
  160.5910  202.0060  148.0600 C   0  0  0  0  0  2  0  0  0  0  0  0
  161.1030  200.7680  148.4730 O   0  0  0  0  0  1  0  0  0  0  0  0
  161.0220  203.4480  146.2510 C   0  0  2  0  0  3  0  0  0  0  0  0
  160.5770  202.2690  145.3510 C   0  0  0  0  0  1  0  0  0  0  0  0
  163.2290  204.6940  145.5540 O   0  0  0  0  0  1  0  0  0  0  0  0
  161.8590  204.3820  145.3470 C   0  0  0  0  0  0  0  0  0  0  0  0
  161.3270  204.8580  144.3010 O   0  0  0  0  0  0  0  0  0  0  0  0
  162.2870  206.3270  149.0640 O   0  0  0  0  0  0  0  0  0  0  0  0
  161.0460  207.2800  147.2880 O   0  0  0  0  0  0  0  0  0  0  0  0
  162.9940  208.7110  150.0520 C   0  0  0  0  0  1  0  0  0  0  0  0
  161.9160  207.3880  148.1970 C   0  0  0  0  0  0  0  0  0  0  0  0
  162.2050  208.6360  148.8300 N   0  0  0  0  0  0  0  0  0  0  0  0
  161.4470  209.7930  148.3570 C   0  0  0  0  0  2  0  0  0  0  0  0
  162.2640  211.0690  148.3310 C   0  0  0  0  0  2  0  0  0  0  0  0
  161.4900  212.3890  148.3010 C   0  0  0  0  0  2  0  0  0  0  0  0
  160.1990  212.2500  147.4690 C   0  0  0  0  0  2  0  0  0  0  0  0
  160.5150  212.5510  143.5230 C   0  0  1  0  0  3  0  0  0  0  0  0
  162.4570  212.3390  141.1880 C   0  0  0  0  0  2  0  0  0  0  0  0
  162.0120  213.2250  145.8500 N   0  0  0  0  0  2  0  0  0  0  0  0
  162.7480  213.4010  142.3420 C   0  0  0  0  0  2  0  0  0  0  0  0
  162.7780  213.2540  144.6750 C   0  0  0  0  0  2  0  0  0  0  0  0
  161.0860  211.4480  141.3440 C   0  0  0  0  0  3  0  0  0  0  0  0
  159.9190  212.1890  144.9830 C   0  0  0  0  0  2  0  0  0  0  0  0
  162.1010  212.9210  143.5680 C   0  0  1  0  0  3  0  0  0  0  0  0
  160.2980  211.5020  142.4270 N   0  0  0  0  0  0  0  0  0  0  0  0
  160.5580  212.8730  146.1130 C   0  0  1  0  0  3  0  0  0  0  0  0
  160.1970  206.4630  150.4050 C   0  0  0  0  0  2  0  0  0  0  0  0
  160.8790  206.2270  151.8120 C   0  0  1  0  0  3  0  0  0  0  0  0
  161.1290  204.8840  152.3660 O   0  0  0  0  0  1  0  0  0  0  0  0
  161.9500  207.2190  152.2540 C   0  0  0  0  0  2  0  0  0  0  0  0
  159.0560  211.2600  154.8160 C   0  0  0  0  0  0  0  0  0  0  0  0
  160.6100  208.8170  153.6340 C   0  0  0  0  0  0  0  0  0  0  0  0
  161.3420  207.2230  155.1430 C   0  0  0  0  0  3  0  0  0  0  0  0
  158.6860  212.7710  155.0530 C   0  0  0  0  0  0  0  0  0  0  0  0
  159.7380  211.7720  152.5640 C   0  0  0  0  0  0  0  0  0  0  0  0
  160.4120  209.4380  152.2980 N   0  0  0  0  0  2  0  0  0  0  0  0
  159.4080  211.3210  153.6460 C   0  0  0  0  0  3  0  0  0  0  0  0
  159.3000  210.2520  157.0150 O   0  0  0  0  0  1  0  0  0  0  0  0
  160.5780  210.8350  151.7770 C   0  0  0  0  0  2  0  0  0  0  0  0
  160.7440  208.0850  155.9000 N   0  0  0  0  0  0  0  0  0  0  0  0
  158.9060  213.7920  153.7640 C   0  0  0  0  0  3  0  0  0  0  0  0
  159.5410  210.2060  155.6380 N   0  0  0  0  0  0  0  0  0  0  0  0
  160.2330  209.0340  155.0190 C   0  0  1  0  0  3  0  0  0  0  0  0
  159.5020  213.2370  152.6090 C   0  0  0  0  0  0  0  0  0  0  0  0
  161.2460  207.5650  153.6090 C   0  0  0  0  0  0  0  0  0  0  0  0
  160.1540  213.8250  151.5790 F   0  0  0  0  0  0  0  0  0  0  0  0
  157.5980  212.9670  156.1210 C   0  0  0  0  0  2  0  0  0  0  0  0
  156.3170  212.5260  155.3590 C   0  0  1  0  0  3  0  0  0  0  0  0
  155.5140  211.6170  156.0920 O   0  0  0  0  0  1  0  0  0  0  0  0
  155.0580  213.8110  153.4540 C   0  0  0  0  0  1  0  0  0  0  0  0
  155.3570  213.6490  154.9480 C   0  0  0  0  0  2  0  0  0  0  0  0
  1  2  1  6  0  0  0
  1 31  1  0  0  0  0
  3  2  1  0  0  0  0
  4  5  1  1  0  0  0
  4  3  1  0  0  0  0
  5  6  1  0  0  0  0
  7  8  1  6  0  0  0
  7  4  1  0  0  0  0
 10  9  1  0  0  0  0
 10  7  1  0  0  0  0
 11 10  2  0  0  0  0
 12  1  1  0  0  0  0
 13 15  2  0  0  0  0
 15 16  1  0  0  0  0
 15 12  1  0  0  0  0
 16 14  1  0  0  0  0
 17 16  1  0  0  0  0
 18 17  1  0  0  0  0
 19 18  1  0  0  0  0
 20 19  1  0  0  0  0
 21 28  1  0  0  0  0
 21 27  1  1  0  0  0
 22 26  1  0  0  0  0
 22 24  1  0  0  0  0
 23 30  1  0  0  0  0
 25 23  1  0  0  0  0
 26 29  2  0  0  0  0
 27 30  1  0  0  0  0
 28 24  1  6  0  0  0
 28 25  1  0  0  0  0
 29 21  1  0  0  0  0
 30 20  1  1  0  0  0
 31 32  1  0  0  0  0
 32 34  1  0  0  0  0
 32 33  1  6  0  0  0
 34 49  1  0  0  0  0
 35 38  1  0  0  0  0
 35 46  1  0  0  0  0
 37 44  2  0  0  0  0
 38 51  1  0  0  0  0
 39 48  2  0  0  0  0
 39 41  1  0  0  0  0
 40 36  1  0  0  0  0
 41 35  2  0  0  0  0
 43 40  1  0  0  0  0
 43 39  1  0  0  0  0
 45 38  2  0  0  0  0
 46 42  1  0  0  0  0
 47 36  1  1  0  0  0
 47 46  1  0  0  0  0
 47 44  1  0  0  0  0
 48 45  1  0  0  0  0
 49 36  2  0  0  0  0
 49 37  1  0  0  0  0
 50 48  1  0  0  0  0
 52 53  1  1  0  0  0
 52 51  1  0  0  0  0
 54 55  1  0  0  0  0
 55 52  1  0  0  0  0
M  END
>  <MODEL>
2

>  <REMARK>
 VINA RESULT:      -6.7      2.881      9.169
  Name = 
  20 active torsions:
  status: ('A' for Active; 'I' for Inactive)
    1  A    between atoms: C_8  and  C_39
    2  A    between atoms: C_9  and  C_28
    3  A    between atoms: C_9  and  C_33
    4  A    between atoms: C_10  and  C_29
    5  A    between atoms: C_12  and  C_17
    6  A    between atoms: C_12  and  C_55
    7  A    between atoms: C_15  and  C_39
    8  A    between atoms: C_15  and  C_52
    9  A    between atoms: C_17  and  C_49
   10  A    between atoms: C_18  and  C_44
   11  A    between atoms: O_27  and  C_46
   12  A    between atoms: O_27  and  C_55
   13  A    between atoms: C_28  and  C_31
   14  A    between atoms: C_29  and  C_44
   15  A    between atoms: C_31  and  N_51
   16  A    between atoms: O_32  and  C_36
   17  A    between atoms: O_32  and  C_44
   18  A    between atoms: C_33  and  C_50
   19  A    between atoms: C_36  and  C_55
   20  A    between atoms: C_40  and  C_49
                            x       y       z     vdW  Elec       q    Type
                         _______ _______ _______ _____ _____    ______ ____

>  <TORSDO>
F 20

$$$$
=
 OpenBabel11052410203D

 55 59  0  0  1  0  0  0  0  0999 V2000
  160.3600  211.7870  152.5350 C   0  0  1  0  0  3  0  0  0  0  0  0
  159.1980  212.4010  153.1550 C   0  0  0  0  0  2  0  0  0  0  0  0
  158.9570  211.6860  154.3470 O   0  0  0  0  0  0  0  0  0  0  0  0
  158.4150  212.6150  155.2770 C   0  0  1  0  0  3  0  0  0  0  0  0
  156.9100  212.3930  155.5400 C   0  0  0  0  0  2  0  0  0  0  0  0
  156.2320  213.6200  155.5380 O   0  0  0  0  0  1  0  0  0  0  0  0
  158.9560  212.3620  156.7020 C   0  0  2  0  0  3  0  0  0  0  0  0
  159.5950  213.6640  157.2480 C   0  0  0  0  0  1  0  0  0  0  0  0
  159.7680  209.8760  156.9540 O   0  0  0  0  0  1  0  0  0  0  0  0
  160.0360  211.2650  156.8430 C   0  0  0  0  0  0  0  0  0  0  0  0
  161.2560  211.5990  156.7860 O   0  0  0  0  0  0  0  0  0  0  0  0
  160.8450  212.6540  151.5550 O   0  0  0  0  0  0  0  0  0  0  0  0
  159.0460  213.8680  150.6110 O   0  0  0  0  0  0  0  0  0  0  0  0
  161.8190  211.9430  149.1660 C   0  0  0  0  0  1  0  0  0  0  0  0
  159.9650  213.0080  150.5000 C   0  0  0  0  0  0  0  0  0  0  0  0
  160.5890  212.7190  149.2480 N   0  0  0  0  0  0  0  0  0  0  0  0
  160.0970  213.4640  148.0900 C   0  0  0  0  0  2  0  0  0  0  0  0
  161.1960  213.8560  147.1240 C   0  0  0  0  0  2  0  0  0  0  0  0
  160.9390  213.5990  145.6370 C   0  0  0  0  0  2  0  0  0  0  0  0
  162.2440  213.2110  144.9130 C   0  0  0  0  0  2  0  0  0  0  0  0
  160.0120  213.6440  141.6590 C   0  0  1  0  0  3  0  0  0  0  0  0
  158.9320  212.1970  139.2070 C   0  0  0  0  0  2  0  0  0  0  0  0
  162.4250  212.3530  142.4460 N   0  0  0  0  0  2  0  0  0  0  0  0
  160.5100  212.3000  139.4110 C   0  0  0  0  0  2  0  0  0  0  0  0
  161.9160  211.8730  141.2300 C   0  0  0  0  0  2  0  0  0  0  0  0
  157.9990  212.9220  140.3480 C   0  0  0  0  0  3  0  0  0  0  0  0
  160.5190  213.7740  143.1890 C   0  0  0  0  0  2  0  0  0  0  0  0
  160.7690  212.4510  140.8470 C   0  0  1  0  0  3  0  0  0  0  0  0
  158.5020  213.4740  141.4610 N   0  0  0  0  0  0  0  0  0  0  0  0
  161.9180  213.3970  143.4250 C   0  0  1  0  0  3  0  0  0  0  0  0
  161.3870  211.0570  153.3820 C   0  0  0  0  0  2  0  0  0  0  0  0
  161.1030  209.7000  152.6220 C   0  0  1  0  0  3  0  0  0  0  0  0
  159.7540  209.2880  152.1920 O   0  0  0  0  0  1  0  0  0  0  0  0
  162.1720  209.1910  151.6590 C   0  0  0  0  0  2  0  0  0  0  0  0
  161.4980  204.1770  149.2780 C   0  0  0  0  0  0  0  0  0  0  0  0
  161.8860  206.8290  150.8880 C   0  0  0  0  0  0  0  0  0  0  0  0
  161.2960  206.7830  153.1250 C   0  0  0  0  0  3  0  0  0  0  0  0
  161.0290  203.2480  148.0980 C   0  0  0  0  0  0  0  0  0  0  0  0
  161.7990  206.0000  147.7350 C   0  0  0  0  0  0  0  0  0  0  0  0
  162.3970  207.4270  149.6260 N   0  0  0  0  0  2  0  0  0  0  0  0
  161.7440  205.1950  148.6470 C   0  0  0  0  0  3  0  0  0  0  0  0
  160.7140  203.1370  151.3310 O   0  0  0  0  0  1  0  0  0  0  0  0
  161.9150  207.4020  148.2060 C   0  0  0  0  0  2  0  0  0  0  0  0
  161.0390  205.5770  152.7330 N   0  0  0  0  0  0  0  0  0  0  0  0
  161.0230  203.9290  146.5840 C   0  0  0  0  0  3  0  0  0  0  0  0
  161.1890  204.2700  150.6630 N   0  0  0  0  0  0  0  0  0  0  0  0
  161.4400  205.5460  151.4000 C   0  0  0  0  0  0  0  0  0  0  0  0
  161.3360  205.3060  146.5080 C   0  0  0  0  0  0  0  0  0  0  0  0
  161.9390  207.6820  152.0040 C   0  0  2  0  0  3  0  0  0  0  0  0
  161.0590  206.2240  145.5530 F   0  0  0  0  0  0  0  0  0  0  0  0
  161.2910  201.7560  148.3610 C   0  0  0  0  0  2  0  0  0  0  0  0
  161.2170  201.1590  146.9270 C   0  0  1  0  0  3  0  0  0  0  0  0
  161.7210  199.8370  146.8440 O   0  0  0  0  0  1  0  0  0  0  0  0
  159.6770  201.5340  144.8410 C   0  0  0  0  0  1  0  0  0  0  0  0
  159.8200  201.0840  146.2980 C   0  0  0  0  0  2  0  0  0  0  0  0
  1  2  1  1  0  0  0
  1 31  1  0  0  0  0
  2  3  1  0  0  0  0
  3  4  1  0  0  0  0
  4  5  1  1  0  0  0
  4  7  1  0  0  0  0
  6  5  1  0  0  0  0
  7 10  1  0  0  0  0
  7  8  1  6  0  0  0
 10  9  1  0  0  0  0
 11 10  2  0  0  0  0
 12  1  1  0  0  0  0
 14 16  1  0  0  0  0
 15 13  2  0  0  0  0
 15 12  1  0  0  0  0
 16 15  1  0  0  0  0
 17 16  1  0  0  0  0
 18 17  1  0  0  0  0
 19 18  1  0  0  0  0
 20 19  1  0  0  0  0
 21 27  1  1  0  0  0
 22 24  1  0  0  0  0
 22 26  1  0  0  0  0
 23 30  1  0  0  0  0
 25 23  1  0  0  0  0
 26 29  2  0  0  0  0
 27 30  1  0  0  0  0
 28 24  1  6  0  0  0
 28 25  1  0  0  0  0
 28 21  1  0  0  0  0
 29 21  1  0  0  0  0
 30 20  1  1  0  0  0
 32 33  1  6  0  0  0
 32 31  1  0  0  0  0
 34 32  1  0  0  0  0
 35 46  1  0  0  0  0
 36 47  2  0  0  0  0
 36 49  1  0  0  0  0
 38 51  1  0  0  0  0
 38 35  2  0  0  0  0
 39 43  1  0  0  0  0
 39 41  2  0  0  0  0
 40 36  1  0  0  0  0
 41 35  1  0  0  0  0
 43 40  1  0  0  0  0
 44 37  2  0  0  0  0
 45 38  1  0  0  0  0
 46 42  1  0  0  0  0
 46 47  1  0  0  0  0
 47 44  1  0  0  0  0
 48 45  2  0  0  0  0
 48 39  1  0  0  0  0
 49 34  1  6  0  0  0
 49 37  1  0  0  0  0
 50 48  1  0  0  0  0
 52 53  1  1  0  0  0
 52 51  1  0  0  0  0
 54 55  1  0  0  0  0
 55 52  1  0  0  0  0
M  END
>  <MODEL>
3

>  <REMARK>
 VINA RESULT:      -6.3      1.925      2.766
  Name = 
  20 active torsions:
  status: ('A' for Active; 'I' for Inactive)
    1  A    between atoms: C_8  and  C_39
    2  A    between atoms: C_9  and  C_28
    3  A    between atoms: C_9  and  C_33
    4  A    between atoms: C_10  and  C_29
    5  A    between atoms: C_12  and  C_17
    6  A    between atoms: C_12  and  C_55
    7  A    between atoms: C_15  and  C_39
    8  A    between atoms: C_15  and  C_52
    9  A    between atoms: C_17  and  C_49
   10  A    between atoms: C_18  and  C_44
   11  A    between atoms: O_27  and  C_46
   12  A    between atoms: O_27  and  C_55
   13  A    between atoms: C_28  and  C_31
   14  A    between atoms: C_29  and  C_44
   15  A    between atoms: C_31  and  N_51
   16  A    between atoms: O_32  and  C_36
   17  A    between atoms: O_32  and  C_44
   18  A    between atoms: C_33  and  C_50
   19  A    between atoms: C_36  and  C_55
   20  A    between atoms: C_40  and  C_49
                            x       y       z     vdW  Elec       q    Type
                         _______ _______ _______ _____ _____    ______ ____

>  <TORSDO>
F 20

$$$$
=
 OpenBabel11052410203D

 55 59  0  0  1  0  0  0  0  0999 V2000
  161.1940  205.6300  147.9600 C   0  0  1  0  0  3  0  0  0  0  0  0
  160.8460  204.5930  148.9150 C   0  0  0  0  0  2  0  0  0  0  0  0
  161.9500  203.7160  148.9730 O   0  0  0  0  0  0  0  0  0  0  0  0
  161.4410  202.4440  149.3540 C   0  0  1  0  0  3  0  0  0  0  0  0
  160.6020  202.4950  150.6500 C   0  0  0  0  0  2  0  0  0  0  0  0
  161.4430  202.5040  151.7710 O   0  0  0  0  0  1  0  0  0  0  0  0
  160.3520  201.9580  148.3720 C   0  0  2  0  0  3  0  0  0  0  0  0
  159.3490  201.0480  149.1250 C   0  0  0  0  0  1  0  0  0  0  0  0
  161.5350  199.9060  147.2340 O   0  0  0  0  0  1  0  0  0  0  0  0
  160.8390  201.1410  147.1540 C   0  0  0  0  0  0  0  0  0  0  0  0
  160.5440  201.5450  145.9910 O   0  0  0  0  0  0  0  0  0  0  0  0
  161.0290  205.1160  146.6730 O   0  0  0  0  0  0  0  0  0  0  0  0
  162.9430  206.1530  145.7450 O   0  0  0  0  0  0  0  0  0  0  0  0
  159.9750  204.5670  144.2760 C   0  0  0  0  0  1  0  0  0  0  0  0
  161.7590  205.7310  145.6230 C   0  0  0  0  0  0  0  0  0  0  0  0
  161.2280  205.3040  144.3680 N   0  0  0  0  0  0  0  0  0  0  0  0
  162.1280  205.3950  143.2180 C   0  0  0  0  0  2  0  0  0  0  0  0
  161.5090  206.1060  142.0330 C   0  0  0  0  0  2  0  0  0  0  0  0
  162.4630  206.8350  141.0840 C   0  0  0  0  0  2  0  0  0  0  0  0
  162.0280  206.6480  139.6160 C   0  0  0  0  0  2  0  0  0  0  0  0
  161.3420  210.5500  139.8650 C   0  0  1  0  0  3  0  0  0  0  0  0
  159.1540  212.6670  139.8680 C   0  0  0  0  0  2  0  0  0  0  0  0
  160.3750  208.2920  138.4250 N   0  0  0  0  0  2  0  0  0  0  0  0
  159.3050  211.7130  138.5990 C   0  0  0  0  0  2  0  0  0  0  0  0
  159.5130  209.3970  138.3600 C   0  0  0  0  0  2  0  0  0  0  0  0
  160.2350  212.4420  141.0840 C   0  0  0  0  0  3  0  0  0  0  0  0
  161.9840  209.0930  140.1500 C   0  0  0  0  0  2  0  0  0  0  0  0
  159.9360  210.4670  139.0470 C   0  0  1  0  0  3  0  0  0  0  0  0
  161.1300  211.4440  141.0920 N   0  0  0  0  0  0  0  0  0  0  0  0
  161.6970  208.0680  139.1390 C   0  0  1  0  0  3  0  0  0  0  0  0
  160.7600  207.0660  148.1930 C   0  0  0  0  0  2  0  0  0  0  0  0
  162.1880  207.4450  148.7580 C   0  0  1  0  0  3  0  0  0  0  0  0
  162.9660  208.5950  148.2630 O   0  0  0  0  0  1  0  0  0  0  0  0
  162.4530  207.1900  150.2380 C   0  0  0  0  0  2  0  0  0  0  0  0
  160.7340  210.2660  154.5790 C   0  0  0  0  0  0  0  0  0  0  0  0
  161.7620  208.8180  152.0060 C   0  0  0  0  0  0  0  0  0  0  0  0
  161.7510  210.0510  150.0470 C   0  0  0  0  0  3  0  0  0  0  0  0
  159.8980  210.4690  155.8970 C   0  0  0  0  0  0  0  0  0  0  0  0
  160.8080  207.8930  154.9840 C   0  0  0  0  0  0  0  0  0  0  0  0
  161.9930  207.6270  152.8630 N   0  0  0  0  0  2  0  0  0  0  0  0
  160.9080  209.0560  154.6370 C   0  0  0  0  0  3  0  0  0  0  0  0
  160.3970  212.2600  153.2300 O   0  0  0  0  0  1  0  0  0  0  0  0
  161.1700  206.9360  153.9100 C   0  0  0  0  0  2  0  0  0  0  0  0
  161.2910  210.8890  150.9180 N   0  0  0  0  0  0  0  0  0  0  0  0
  159.5760  209.1020  156.7820 C   0  0  0  0  0  3  0  0  0  0  0  0
  160.7920  210.9210  153.3190 N   0  0  0  0  0  0  0  0  0  0  0  0
  161.3400  210.2020  152.1280 C   0  0  1  0  0  3  0  0  0  0  0  0
  159.9880  207.8720  156.2210 C   0  0  0  0  0  0  0  0  0  0  0  0
  162.1740  208.6680  150.6700 C   0  0  0  0  0  0  0  0  0  0  0  0
  159.5690  206.6080  156.4560 F   0  0  0  0  0  0  0  0  0  0  0  0
  160.0760  211.8650  156.5170 C   0  0  0  0  0  2  0  0  0  0  0  0
  158.6330  212.4390  156.4350 C   0  0  1  0  0  3  0  0  0  0  0  0
  158.5790  213.7400  155.8750 O   0  0  0  0  0  1  0  0  0  0  0  0
  157.0810  212.2530  154.3330 C   0  0  0  0  0  1  0  0  0  0  0  0
  157.6270  211.6210  155.6170 C   0  0  0  0  0  2  0  0  0  0  0  0
  1 31  1  6  0  0  0
  1  2  1  0  0  0  0
  2  3  1  0  0  0  0
  3  4  1  0  0  0  0
  4  5  1  1  0  0  0
  5  6  1  0  0  0  0
  7  8  1  1  0  0  0
  7  4  1  0  0  0  0
 10  9  1  0  0  0  0
 10  7  1  0  0  0  0
 11 10  2  0  0  0  0
 12  1  1  0  0  0  0
 14 16  1  0  0  0  0
 15 13  2  0  0  0  0
 15 12  1  0  0  0  0
 16 15  1  0  0  0  0
 17 16  1  0  0  0  0
 18 17  1  0  0  0  0
 19 18  1  0  0  0  0
 20 19  1  0  0  0  0
 21 27  1  1  0  0  0
 21 29  1  0  0  0  0
 22 26  1  0  0  0  0
 23 30  1  0  0  0  0
 24 28  1  0  0  0  0
 24 22  1  0  0  0  0
 25 23  1  0  0  0  0
 26 29  2  0  0  0  0
 28 25  1  6  0  0  0
 28 21  1  0  0  0  0
 30 20  1  1  0  0  0
 30 27  1  0  0  0  0
 31 32  1  0  0  0  0
 32 33  1  1  0  0  0
 32 34  1  0  0  0  0
 34 49  1  0  0  0  0
 35 41  2  0  0  0  0
 35 38  1  0  0  0  0
 36 47  1  0  0  0  0
 36 40  1  0  0  0  0
 37 49  1  0  0  0  0
 37 44  2  0  0  0  0
 38 51  1  0  0  0  0
 38 45  2  0  0  0  0
 39 48  2  0  0  0  0
 40 43  1  0  0  0  0
 41 39  1  0  0  0  0
 42 46  1  0  0  0  0
 43 39  1  0  0  0  0
 46 35  1  0  0  0  0
 47 44  1  6  0  0  0
 47 46  1  0  0  0  0
 48 50  1  0  0  0  0
 48 45  1  0  0  0  0
 49 36  2  0  0  0  0
 52 53  1  6  0  0  0
 52 51  1  0  0  0  0
 54 55  1  0  0  0  0
 55 52  1  0  0  0  0
M  END
>  <MODEL>
4

>  <REMARK>
 VINA RESULT:      -5.8      2.900      9.103
  Name = 
  20 active torsions:
  status: ('A' for Active; 'I' for Inactive)
    1  A    between atoms: C_8  and  C_39
    2  A    between atoms: C_9  and  C_28
    3  A    between atoms: C_9  and  C_33
    4  A    between atoms: C_10  and  C_29
    5  A    between atoms: C_12  and  C_17
    6  A    between atoms: C_12  and  C_55
    7  A    between atoms: C_15  and  C_39
    8  A    between atoms: C_15  and  C_52
    9  A    between atoms: C_17  and  C_49
   10  A    between atoms: C_18  and  C_44
   11  A    between atoms: O_27  and  C_46
   12  A    between atoms: O_27  and  C_55
   13  A    between atoms: C_28  and  C_31
   14  A    between atoms: C_29  and  C_44
   15  A    between atoms: C_31  and  N_51
   16  A    between atoms: O_32  and  C_36
   17  A    between atoms: O_32  and  C_44
   18  A    between atoms: C_33  and  C_50
   19  A    between atoms: C_36  and  C_55
   20  A    between atoms: C_40  and  C_49
                            x       y       z     vdW  Elec       q    Type
                         _______ _______ _______ _____ _____    ______ ____

>  <TORSDO>
F 20

$$$$
=
 OpenBabel11052410203D

 55 59  0  0  1  0  0  0  0  0999 V2000
  161.0500  211.3040  151.7690 C   0  0  1  0  0  3  0  0  0  0  0  0
  160.1100  211.9360  152.6780 C   0  0  0  0  0  2  0  0  0  0  0  0
  160.0340  211.1050  153.8160 O   0  0  0  0  0  0  0  0  0  0  0  0
  160.5880  211.8440  154.8980 C   0  0  1  0  0  3  0  0  0  0  0  0
  159.5130  212.5260  155.7720 C   0  0  0  0  0  2  0  0  0  0  0  0
  159.9740  213.7710  156.2230 O   0  0  0  0  0  1  0  0  0  0  0  0
  161.2110  210.9070  155.9560 C   0  0  2  0  0  3  0  0  0  0  0  0
  162.7450  210.8440  155.7480 C   0  0  0  0  0  1  0  0  0  0  0  0
  161.2870  208.4000  155.1700 O   0  0  0  0  0  0  0  0  0  0  0  0
  160.7200  209.4410  155.9510 C   0  0  0  0  0  0  0  0  0  0  0  0
  159.7950  209.1050  156.7470 O   0  0  0  0  0  1  0  0  0  0  0  0
  161.4080  212.2320  150.7900 O   0  0  0  0  0  0  0  0  0  0  0  0
  159.5240  213.2160  149.7500 O   0  0  0  0  0  0  0  0  0  0  0  0
  162.4470  211.4010  148.4690 C   0  0  0  0  0  1  0  0  0  0  0  0
  160.5080  212.4250  149.7100 C   0  0  0  0  0  0  0  0  0  0  0  0
  161.1600  212.0810  148.4870 N   0  0  0  0  0  0  0  0  0  0  0  0
  160.6170  212.6850  147.2710 C   0  0  0  0  0  2  0  0  0  0  0  0
  161.6530  213.4510  146.4730 C   0  0  0  0  0  2  0  0  0  0  0  0
  161.5710  213.3480  144.9480 C   0  0  0  0  0  2  0  0  0  0  0  0
  160.2480  212.6860  144.5120 C   0  0  0  0  0  2  0  0  0  0  0  0
  162.1270  212.3390  141.0330 C   0  0  1  0  0  3  0  0  0  0  0  0
  162.0370  213.1450  138.0980 C   0  0  0  0  0  2  0  0  0  0  0  0
  159.4620  212.3770  142.0340 N   0  0  0  0  0  2  0  0  0  0  0  0
  160.8170  212.3220  138.7110 C   0  0  0  0  0  2  0  0  0  0  0  0
  159.5310  212.5780  140.6480 C   0  0  0  0  0  2  0  0  0  0  0  0
  163.2830  213.4720  139.1170 C   0  0  0  0  0  3  0  0  0  0  0  0
  161.8780  212.5230  142.6200 C   0  0  0  0  0  2  0  0  0  0  0  0
  160.7780  212.5850  140.1540 C   0  0  1  0  0  3  0  0  0  0  0  0
  163.2540  213.1820  140.4250 N   0  0  0  0  0  0  0  0  0  0  0  0
  160.5330  212.1770  143.0930 C   0  0  1  0  0  3  0  0  0  0  0  0
  162.1490  210.4040  152.3050 C   0  0  0  0  0  2  0  0  0  0  0  0
  161.3920  209.1130  151.7950 C   0  0  1  0  0  3  0  0  0  0  0  0
  159.9740  208.8440  152.0950 O   0  0  0  0  0  1  0  0  0  0  0  0
  161.7870  208.5520  150.4320 C   0  0  0  0  0  2  0  0  0  0  0  0
  161.4490  203.3710  148.3570 C   0  0  0  0  0  0  0  0  0  0  0  0
  161.6520  206.1350  149.8040 C   0  0  0  0  0  0  0  0  0  0  0  0
  161.0190  206.1910  152.0290 C   0  0  0  0  0  3  0  0  0  0  0  0
  161.0590  202.3460  147.2280 C   0  0  0  0  0  0  0  0  0  0  0  0
  161.6790  205.1110  146.7080 C   0  0  0  0  0  0  0  0  0  0  0  0
  162.1550  206.6830  148.5170 N   0  0  0  0  0  2  0  0  0  0  0  0
  161.6500  204.3610  147.6670 C   0  0  0  0  0  3  0  0  0  0  0  0
  160.6830  202.4150  150.4560 O   0  0  0  0  0  1  0  0  0  0  0  0
  161.7050  206.5440  147.0930 C   0  0  0  0  0  2  0  0  0  0  0  0
  160.8390  204.9510  151.7090 N   0  0  0  0  0  0  0  0  0  0  0  0
  161.0470  202.9320  145.6750 C   0  0  0  0  0  3  0  0  0  0  0  0
  161.1060  203.5300  149.7270 N   0  0  0  0  0  0  0  0  0  0  0  0
  161.2690  204.8620  150.3870 C   0  0  0  0  0  0  0  0  0  0  0  0
  161.2830  204.3170  145.5190 C   0  0  0  0  0  0  0  0  0  0  0  0
  161.6330  207.0560  150.8660 C   0  0  2  0  0  3  0  0  0  0  0  0
  160.9750  205.1580  144.5040 F   0  0  0  0  0  0  0  0  0  0  0  0
  161.4000  200.8910  147.5880 C   0  0  0  0  0  2  0  0  0  0  0  0
  160.7860  200.1110  146.3910 C   0  0  1  0  0  3  0  0  0  0  0  0
  160.3840  200.9500  145.3220 O   0  0  0  0  0  1  0  0  0  0  0  0
  161.0090  197.8380  145.1080 C   0  0  0  0  0  1  0  0  0  0  0  0
  161.6890  199.0560  145.7390 C   0  0  0  0  0  2  0  0  0  0  0  0
  1 31  1  1  0  0  0
  1  2  1  0  0  0  0
  2  3  1  0  0  0  0
  3  4  1  0  0  0  0
  4  5  1  1  0  0  0
  4  7  1  0  0  0  0
  5  6  1  0  0  0  0
  7  8  1  6  0  0  0
  9 10  2  0  0  0  0
 10  7  1  0  0  0  0
 10 11  1  0  0  0  0
 12  1  1  0  0  0  0
 14 16  1  0  0  0  0
 15 13  2  0  0  0  0
 15 12  1  0  0  0  0
 16 15  1  0  0  0  0
 17 16  1  0  0  0  0
 18 17  1  0  0  0  0
 19 18  1  0  0  0  0
 20 19  1  0  0  0  0
 21 27  1  1  0  0  0
 22 24  1  0  0  0  0
 22 26  1  0  0  0  0
 23 30  1  0  0  0  0
 25 23  1  0  0  0  0
 26 29  2  0  0  0  0
 27 30  1  0  0  0  0
 28 24  1  6  0  0  0
 28 25  1  0  0  0  0
 28 21  1  0  0  0  0
 29 21  1  0  0  0  0
 30 20  1  1  0  0  0
 32 33  1  6  0  0  0
 32 31  1  0  0  0  0
 34 32  1  0  0  0  0
 35 46  1  0  0  0  0
 36 47  2  0  0  0  0
 36 49  1  0  0  0  0
 38 51  1  0  0  0  0
 38 35  2  0  0  0  0
 39 43  1  0  0  0  0
 39 41  2  0  0  0  0
 40 36  1  0  0  0  0
 41 35  1  0  0  0  0
 43 40  1  0  0  0  0
 44 37  2  0  0  0  0
 45 38  1  0  0  0  0
 46 47  1  0  0  0  0
 46 42  1  0  0  0  0
 47 44  1  0  0  0  0
 48 45  2  0  0  0  0
 48 39  1  0  0  0  0
 49 34  1  6  0  0  0
 49 37  1  0  0  0  0
 50 48  1  0  0  0  0
 52 53  1  6  0  0  0
 52 51  1  0  0  0  0
 54 55  1  0  0  0  0
 55 52  1  0  0  0  0
M  END
>  <MODEL>
5

>  <REMARK>
 VINA RESULT:      -5.8      2.052      2.917
  Name = 
  20 active torsions:
  status: ('A' for Active; 'I' for Inactive)
    1  A    between atoms: C_8  and  C_39
    2  A    between atoms: C_9  and  C_28
    3  A    between atoms: C_9  and  C_33
    4  A    between atoms: C_10  and  C_29
    5  A    between atoms: C_12  and  C_17
    6  A    between atoms: C_12  and  C_55
    7  A    between atoms: C_15  and  C_39
    8  A    between atoms: C_15  and  C_52
    9  A    between atoms: C_17  and  C_49
   10  A    between atoms: C_18  and  C_44
   11  A    between atoms: O_27  and  C_46
   12  A    between atoms: O_27  and  C_55
   13  A    between atoms: C_28  and  C_31
   14  A    between atoms: C_29  and  C_44
   15  A    between atoms: C_31  and  N_51
   16  A    between atoms: O_32  and  C_36
   17  A    between atoms: O_32  and  C_44
   18  A    between atoms: C_33  and  C_50
   19  A    between atoms: C_36  and  C_55
   20  A    between atoms: C_40  and  C_49
                            x       y       z     vdW  Elec       q    Type
                         _______ _______ _______ _____ _____    ______ ____

>  <TORSDO>
F 20

$$$$
=
 OpenBabel11052410203D

 55 59  0  0  1  0  0  0  0  0999 V2000
  161.2980  210.6860  152.0970 C   0  0  1  0  0  3  0  0  0  0  0  0
  160.4290  210.6920  153.2620 C   0  0  0  0  0  2  0  0  0  0  0  0
  161.2080  211.1670  154.3380 O   0  0  0  0  0  0  0  0  0  0  0  0
  160.3450  211.2340  155.4670 C   0  0  1  0  0  3  0  0  0  0  0  0
  161.1100  211.3950  156.7990 C   0  0  0  0  0  2  0  0  0  0  0  0
  162.3010  210.6560  156.7660 O   0  0  0  0  0  1  0  0  0  0  0  0
  159.5410  212.5520  155.4810 C   0  0  2  0  0  3  0  0  0  0  0  0
  159.7300  213.2550  156.8490 C   0  0  0  0  0  1  0  0  0  0  0  0
  157.1380  211.6980  156.1160 O   0  0  0  0  0  1  0  0  0  0  0  0
  158.0140  212.4300  155.2720 C   0  0  0  0  0  0  0  0  0  0  0  0
  157.4740  213.0790  154.3290 O   0  0  0  0  0  0  0  0  0  0  0  0
  161.3000  211.9660  151.5440 O   0  0  0  0  0  0  0  0  0  0  0  0
  159.1220  212.8390  151.2340 O   0  0  0  0  0  0  0  0  0  0  0  0
  161.9530  212.2680  148.9670 C   0  0  0  0  0  1  0  0  0  0  0  0
  160.1800  212.3420  150.7560 C   0  0  0  0  0  0  0  0  0  0  0  0
  160.6120  212.6080  149.4210 N   0  0  0  0  0  0  0  0  0  0  0  0
  159.7520  213.4800  148.6230 C   0  0  0  0  0  2  0  0  0  0  0  0
  160.4670  214.1040  147.4420 C   0  0  0  0  0  2  0  0  0  0  0  0
  159.8810  213.8360  146.0540 C   0  0  0  0  0  2  0  0  0  0  0  0
  160.5710  212.6280  145.3900 C   0  0  0  0  0  2  0  0  0  0  0  0
  159.8280  213.1890  141.5310 C   0  0  1  0  0  3  0  0  0  0  0  0
  160.4480  212.1620  138.7320 C   0  0  0  0  0  2  0  0  0  0  0  0
  162.0250  212.5240  143.2150 N   0  0  0  0  0  2  0  0  0  0  0  0
  161.6460  212.6770  139.6500 C   0  0  0  0  0  2  0  0  0  0  0  0
  162.2640  212.2410  141.8620 C   0  0  0  0  0  2  0  0  0  0  0  0
  158.9400  212.2580  139.3780 C   0  0  0  0  0  3  0  0  0  0  0  0
  159.5970  213.0690  143.1280 C   0  0  0  0  0  2  0  0  0  0  0  0
  161.2360  212.5270  141.0510 C   0  0  1  0  0  3  0  0  0  0  0  0
  158.7090  212.6310  140.6440 N   0  0  0  0  0  0  0  0  0  0  0  0
  160.8150  213.0820  143.9450 C   0  0  1  0  0  3  0  0  0  0  0  0
  162.6220  209.9440  152.1310 C   0  0  0  0  0  2  0  0  0  0  0  0
  161.8820  208.5520  152.2470 C   0  0  1  0  0  3  0  0  0  0  0  0
  161.5740  207.9130  153.5390 O   0  0  0  0  0  1  0  0  0  0  0  0
  160.8230  208.2230  151.1990 C   0  0  0  0  0  2  0  0  0  0  0  0
  161.5550  203.7820  147.8820 C   0  0  0  0  0  0  0  0  0  0  0  0
  161.2200  206.0770  149.9790 C   0  0  0  0  0  0  0  0  0  0  0  0
  160.8150  205.4340  152.1650 C   0  0  0  0  0  3  0  0  0  0  0  0
  161.3170  202.9900  146.5430 C   0  0  0  0  0  0  0  0  0  0  0  0
  161.1900  205.8620  146.7250 C   0  0  0  0  0  0  0  0  0  0  0  0
  161.4440  207.0270  148.8590 N   0  0  0  0  0  2  0  0  0  0  0  0
  161.4400  204.9250  147.4620 C   0  0  0  0  0  3  0  0  0  0  0  0
  161.2560  202.1880  149.6930 O   0  0  0  0  0  1  0  0  0  0  0  0
  160.9040  207.1180  147.4620 C   0  0  0  0  0  2  0  0  0  0  0  0
  160.9120  204.3030  151.5450 N   0  0  0  0  0  0  0  0  0  0  0  0
  161.0090  203.9050  145.1930 C   0  0  0  0  0  3  0  0  0  0  0  0
  161.3210  203.5160  149.2590 N   0  0  0  0  0  0  0  0  0  0  0  0
  161.2180  204.6470  150.2310 C   0  0  0  0  0  0  0  0  0  0  0  0
  160.8840  205.3000  145.3870 C   0  0  0  0  0  0  0  0  0  0  0  0
  161.0820  206.6800  151.2410 C   0  0  2  0  0  3  0  0  0  0  0  0
  160.2820  206.2470  144.6320 F   0  0  0  0  0  0  0  0  0  0  0  0
  162.0360  201.6320  146.5070 C   0  0  0  0  0  2  0  0  0  0  0  0
  160.8470  200.6420  146.3600 C   0  0  1  0  0  3  0  0  0  0  0  0
  160.1320  200.8010  145.1470 O   0  0  0  0  0  1  0  0  0  0  0  0
  161.4540  198.4390  145.0780 C   0  0  0  0  0  1  0  0  0  0  0  0
  161.2000  199.1500  146.4110 C   0  0  0  0  0  2  0  0  0  0  0  0
  1 31  1  1  0  0  0
  1  2  1  0  0  0  0
  2  3  1  0  0  0  0
  3  4  1  0  0  0  0
  4  7  1  0  0  0  0
  4  5  1  1  0  0  0
  6  5  1  0  0  0  0
  7  8  1  1  0  0  0
 10  7  1  0  0  0  0
 10  9  1  0  0  0  0
 11 10  2  0  0  0  0
 12  1  1  0  0  0  0
 14 16  1  0  0  0  0
 15 13  2  0  0  0  0
 15 12  1  0  0  0  0
 16 15  1  0  0  0  0
 17 16  1  0  0  0  0
 18 17  1  0  0  0  0
 19 18  1  0  0  0  0
 20 19  1  0  0  0  0
 21 27  1  1  0  0  0
 22 26  1  0  0  0  0
 22 24  1  0  0  0  0
 23 30  1  0  0  0  0
 25 23  1  0  0  0  0
 26 29  2  0  0  0  0
 27 30  1  0  0  0  0
 28 24  1  6  0  0  0
 28 21  1  0  0  0  0
 28 25  1  0  0  0  0
 29 21  1  0  0  0  0
 30 20  1  1  0  0  0
 31 32  1  0  0  0  0
 32 33  1  1  0  0  0
 34 32  1  0  0  0  0
 35 46  1  0  0  0  0
 36 47  2  0  0  0  0
 36 49  1  0  0  0  0
 38 35  2  0  0  0  0
 39 43  1  0  0  0  0
 39 41  2  0  0  0  0
 40 36  1  0  0  0  0
 41 35  1  0  0  0  0
 43 40  1  0  0  0  0
 44 37  2  0  0  0  0
 45 48  2  0  0  0  0
 45 38  1  0  0  0  0
 46 42  1  0  0  0  0
 46 47  1  0  0  0  0
 47 44  1  0  0  0  0
 48 39  1  0  0  0  0
 49 34  1  6  0  0  0
 49 37  1  0  0  0  0
 50 48  1  0  0  0  0
 51 38  1  0  0  0  0
 52 53  1  6  0  0  0
 52 55  1  0  0  0  0
 52 51  1  0  0  0  0
 54 55  1  0  0  0  0
M  END
>  <MODEL>
6

>  <REMARK>
 VINA RESULT:      -5.4      2.027      3.094
  Name = 
  20 active torsions:
  status: ('A' for Active; 'I' for Inactive)
    1  A    between atoms: C_8  and  C_39
    2  A    between atoms: C_9  and  C_28
    3  A    between atoms: C_9  and  C_33
    4  A    between atoms: C_10  and  C_29
    5  A    between atoms: C_12  and  C_17
    6  A    between atoms: C_12  and  C_55
    7  A    between atoms: C_15  and  C_39
    8  A    between atoms: C_15  and  C_52
    9  A    between atoms: C_17  and  C_49
   10  A    between atoms: C_18  and  C_44
   11  A    between atoms: O_27  and  C_46
   12  A    between atoms: O_27  and  C_55
   13  A    between atoms: C_28  and  C_31
   14  A    between atoms: C_29  and  C_44
   15  A    between atoms: C_31  and  N_51
   16  A    between atoms: O_32  and  C_36
   17  A    between atoms: O_32  and  C_44
   18  A    between atoms: C_33  and  C_50
   19  A    between atoms: C_36  and  C_55
   20  A    between atoms: C_40  and  C_49
                            x       y       z     vdW  Elec       q    Type
                         _______ _______ _______ _____ _____    ______ ____

>  <TORSDO>
F 20

$$$$
=
 OpenBabel11052410203D

 55 59  0  0  1  0  0  0  0  0999 V2000
  161.6560  205.7540  148.2050 C   0  0  1  0  0  3  0  0  0  0  0  0
  161.5080  204.8480  149.3310 C   0  0  0  0  0  2  0  0  0  0  0  0
  162.0730  203.6190  148.9310 O   0  0  0  0  0  0  0  0  0  0  0  0
  161.3370  202.5970  149.5920 C   0  0  1  0  0  3  0  0  0  0  0  0
  160.4130  203.1440  150.7020 C   0  0  0  0  0  2  0  0  0  0  0  0
  160.9320  202.8270  151.9640 O   0  0  0  0  0  1  0  0  0  0  0  0
  160.2690  201.9830  148.6600 C   0  0  2  0  0  3  0  0  0  0  0  0
  159.4340  200.9440  149.4480 C   0  0  0  0  0  1  0  0  0  0  0  0
  160.5170  201.6320  146.0670 O   0  0  0  0  0  0  0  0  0  0  0  0
  160.7920  201.2470  147.4050 C   0  0  0  0  0  0  0  0  0  0  0  0
  161.5840  200.2700  147.5560 O   0  0  0  0  0  1  0  0  0  0  0  0
  161.3440  205.0580  147.0370 O   0  0  0  0  0  0  0  0  0  0  0  0
  163.2990  204.6940  145.7530 O   0  0  0  0  0  0  0  0  0  0  0  0
  159.9940  206.0880  144.9690 C   0  0  0  0  0  1  0  0  0  0  0  0
  162.1820  205.2610  145.9090 C   0  0  0  0  0  0  0  0  0  0  0  0
  161.3870  205.6930  144.8040 N   0  0  0  0  0  0  0  0  0  0  0  0
  161.9430  205.4560  143.4720 C   0  0  0  0  0  2  0  0  0  0  0  0
  161.5010  206.4840  142.4510 C   0  0  0  0  0  2  0  0  0  0  0  0
  161.9570  206.2670  141.0060 C   0  0  0  0  0  2  0  0  0  0  0  0
  163.0790  207.2560  140.6300 C   0  0  0  0  0  2  0  0  0  0  0  0
  161.1010  210.5450  139.6170 C   0  0  1  0  0  3  0  0  0  0  0  0
  158.3730  211.6200  138.7950 C   0  0  0  0  0  2  0  0  0  0  0  0
  161.2250  207.8020  138.8630 N   0  0  0  0  0  2  0  0  0  0  0  0
  159.0660  210.5000  137.8960 C   0  0  0  0  0  2  0  0  0  0  0  0
  160.0730  208.4500  138.3940 C   0  0  0  0  0  2  0  0  0  0  0  0
  159.2210  212.1330  140.1050 C   0  0  0  0  0  3  0  0  0  0  0  0
  162.1260  209.5560  140.3840 C   0  0  0  0  0  2  0  0  0  0  0  0
  159.9810  209.7380  138.7520 C   0  0  1  0  0  3  0  0  0  0  0  0
  160.3790  211.5780  140.4900 N   0  0  0  0  0  0  0  0  0  0  0  0
  162.3890  208.2770  139.7160 C   0  0  1  0  0  3  0  0  0  0  0  0
  161.1720  207.1900  148.3050 C   0  0  0  0  0  2  0  0  0  0  0  0
  161.1520  207.1110  149.8850 C   0  0  1  0  0  3  0  0  0  0  0  0
  160.4480  206.0500  150.6260 O   0  0  0  0  0  1  0  0  0  0  0  0
  162.3980  207.5770  150.6320 C   0  0  0  0  0  2  0  0  0  0  0  0
  159.4740  210.1190  154.6630 C   0  0  0  0  0  0  0  0  0  0  0  0
  161.0770  208.4310  152.5760 C   0  0  0  0  0  0  0  0  0  0  0  0
  162.0300  206.4660  153.3420 C   0  0  0  0  0  3  0  0  0  0  0  0
  159.0300  211.3980  155.4660 C   0  0  0  0  0  0  0  0  0  0  0  0
  159.9360  211.4820  152.7320 C   0  0  0  0  0  0  0  0  0  0  0  0
  160.7320  209.4790  151.5800 N   0  0  0  0  0  2  0  0  0  0  0  0
  159.7250  210.6370  153.5830 C   0  0  0  0  0  3  0  0  0  0  0  0
  159.9610  208.4000  156.3120 O   0  0  0  0  0  1  0  0  0  0  0  0
  160.7650  210.9780  151.6090 C   0  0  0  0  0  2  0  0  0  0  0  0
  161.4430  206.9320  154.3950 N   0  0  0  0  0  0  0  0  0  0  0  0
  159.0790  212.8370  154.6400 C   0  0  0  0  0  3  0  0  0  0  0  0
  160.0910  208.8840  155.0060 N   0  0  0  0  0  0  0  0  0  0  0  0
  160.8030  208.0890  153.9600 C   0  0  1  0  0  3  0  0  0  0  0  0
  159.6120  212.8000  153.3320 C   0  0  0  0  0  0  0  0  0  0  0  0
  161.7870  207.3370  152.0520 C   0  0  0  0  0  0  0  0  0  0  0  0
  160.1380  213.7810  152.5630 F   0  0  0  0  0  0  0  0  0  0  0  0
  158.0240  211.0900  156.5860 C   0  0  0  0  0  2  0  0  0  0  0  0
  156.7440  211.8090  156.0740 C   0  0  1  0  0  3  0  0  0  0  0  0
  155.7050  210.9150  155.7130 O   0  0  0  0  0  1  0  0  0  0  0  0
  156.7710  214.1510  157.2470 C   0  0  0  0  0  1  0  0  0  0  0  0
  156.0880  212.7940  157.0500 C   0  0  0  0  0  2  0  0  0  0  0  0
  1 31  1  1  0  0  0
  1  2  1  0  0  0  0
  3  2  1  0  0  0  0
  3  4  1  0  0  0  0
  4  5  1  1  0  0  0
  5  6  1  0  0  0  0
  7  8  1  1  0  0  0
  7  4  1  0  0  0  0
  9 10  2  0  0  0  0
 10 11  1  0  0  0  0
 10  7  1  0  0  0  0
 12  1  1  0  0  0  0
 13 15  2  0  0  0  0
 15 12  1  0  0  0  0
 16 14  1  0  0  0  0
 16 15  1  0  0  0  0
 17 16  1  0  0  0  0
 18 17  1  0  0  0  0
 19 18  1  0  0  0  0
 20 19  1  0  0  0  0
 21 27  1  1  0  0  0
 21 29  1  0  0  0  0
 22 26  1  0  0  0  0
 23 30  1  0  0  0  0
 24 22  1  0  0  0  0
 25 28  1  0  0  0  0
 25 23  1  0  0  0  0
 26 29  2  0  0  0  0
 28 24  1  6  0  0  0
 28 21  1  0  0  0  0
 30 27  1  0  0  0  0
 30 20  1  1  0  0  0
 31 32  1  0  0  0  0
 32 33  1  6  0  0  0
 32 34  1  0  0  0  0
 34 49  1  0  0  0  0
 35 46  1  0  0  0  0
 35 38  1  0  0  0  0
 37 44  2  0  0  0  0
 38 51  1  0  0  0  0
 39 48  2  0  0  0  0
 39 41  1  0  0  0  0
 40 43  1  0  0  0  0
 40 36  1  0  0  0  0
 41 35  2  0  0  0  0
 43 39  1  0  0  0  0
 45 38  2  0  0  0  0
 46 42  1  0  0  0  0
 47 36  1  1  0  0  0
 47 44  1  0  0  0  0
 47 46  1  0  0  0  0
 48 45  1  0  0  0  0
 49 36  2  0  0  0  0
 49 37  1  0  0  0  0
 50 48  1  0  0  0  0
 52 53  1  1  0  0  0
 52 51  1  0  0  0  0
 52 55  1  0  0  0  0
 55 54  1  0  0  0  0
M  END
>  <MODEL>
7

>  <REMARK>
 VINA RESULT:      -4.4      3.440      9.518
  Name = 
  20 active torsions:
  status: ('A' for Active; 'I' for Inactive)
    1  A    between atoms: C_8  and  C_39
    2  A    between atoms: C_9  and  C_28
    3  A    between atoms: C_9  and  C_33
    4  A    between atoms: C_10  and  C_29
    5  A    between atoms: C_12  and  C_17
    6  A    between atoms: C_12  and  C_55
    7  A    between atoms: C_15  and  C_39
    8  A    between atoms: C_15  and  C_52
    9  A    between atoms: C_17  and  C_49
   10  A    between atoms: C_18  and  C_44
   11  A    between atoms: O_27  and  C_46
   12  A    between atoms: O_27  and  C_55
   13  A    between atoms: C_28  and  C_31
   14  A    between atoms: C_29  and  C_44
   15  A    between atoms: C_31  and  N_51
   16  A    between atoms: O_32  and  C_36
   17  A    between atoms: O_32  and  C_44
   18  A    between atoms: C_33  and  C_50
   19  A    between atoms: C_36  and  C_55
   20  A    between atoms: C_40  and  C_49
                            x       y       z     vdW  Elec       q    Type
                         _______ _______ _______ _____ _____    ______ ____

>  <TORSDO>
F 20

$$$$
=
 OpenBabel11052410203D

 55 59  0  0  1  0  0  0  0  0999 V2000
  160.6750  211.1340  151.5800 C   0  0  1  0  0  3  0  0  0  0  0  0
  159.9900  212.4150  151.6200 C   0  0  0  0  0  2  0  0  0  0  0  0
  160.5590  213.2040  150.5990 O   0  0  0  0  0  0  0  0  0  0  0  0
  159.6860  213.1130  149.4790 C   0  0  1  0  0  3  0  0  0  0  0  0
  158.4610  214.0450  149.5950 C   0  0  0  0  0  2  0  0  0  0  0  0
  157.2980  213.2930  149.8150 O   0  0  0  0  0  1  0  0  0  0  0  0
  160.3350  213.7110  148.2120 C   0  0  2  0  0  3  0  0  0  0  0  0
  159.4690  213.3610  146.9760 C   0  0  0  0  0  1  0  0  0  0  0  0
  162.9560  213.8950  148.2790 O   0  0  0  0  0  1  0  0  0  0  0  0
  161.7670  213.2310  147.8800 C   0  0  0  0  0  0  0  0  0  0  0  0
  161.9160  212.1310  147.2710 O   0  0  0  0  0  0  0  0  0  0  0  0
  159.9900  210.2430  152.4070 O   0  0  0  0  0  0  0  0  0  0  0  0
  158.2360  211.1390  153.7190 O   0  0  0  0  0  0  0  0  0  0  0  0
  161.4550  209.5780  154.5450 C   0  0  0  0  0  1  0  0  0  0  0  0
  159.4350  210.7580  153.6080 C   0  0  0  0  0  0  0  0  0  0  0  0
  160.1850  210.2690  154.7200 N   0  0  0  0  0  0  0  0  0  0  0  0
  159.4950  210.2470  156.0090 C   0  0  0  0  0  2  0  0  0  0  0  0
  160.0550  211.2440  157.0020 C   0  0  0  0  0  2  0  0  0  0  0  0
  160.8350  212.4310  156.4310 C   0  0  0  0  0  2  0  0  0  0  0  0
  160.4710  213.7340  157.1690 C   0  0  0  0  0  2  0  0  0  0  0  0
  156.6090  213.6220  156.2580 C   0  0  1  0  0  3  0  0  0  0  0  0
  154.6190  212.9150  154.0640 C   0  0  0  0  0  2  0  0  0  0  0  0
  159.0850  214.2810  155.0160 N   0  0  0  0  0  2  0  0  0  0  0  0
  155.7270  214.0240  153.7740 C   0  0  0  0  0  2  0  0  0  0  0  0
  158.0420  214.0900  154.0970 C   0  0  0  0  0  2  0  0  0  0  0  0
  154.6250  212.2510  155.5660 C   0  0  0  0  0  3  0  0  0  0  0  0
  157.9820  213.4860  157.1030 C   0  0  0  0  0  2  0  0  0  0  0  0
  156.8700  213.7590  154.6560 C   0  0  1  0  0  3  0  0  0  0  0  0
  155.5680  212.5190  156.4810 N   0  0  0  0  0  0  0  0  0  0  0  0
  159.1460  214.1710  156.5300 C   0  0  1  0  0  3  0  0  0  0  0  0
  161.2090  210.5900  150.2680 C   0  0  0  0  0  2  0  0  0  0  0  0
  162.2300  209.6530  151.0290 C   0  0  1  0  0  3  0  0  0  0  0  0
  163.1170  210.1390  152.1020 O   0  0  0  0  0  1  0  0  0  0  0  0
  161.8230  208.2010  151.2610 C   0  0  0  0  0  2  0  0  0  0  0  0
  161.2590  203.8630  147.7780 C   0  0  0  0  0  0  0  0  0  0  0  0
  161.5700  206.4740  149.4690 C   0  0  0  0  0  0  0  0  0  0  0  0
  162.4190  208.3260  148.3720 C   0  0  0  0  0  3  0  0  0  0  0  0
  161.3960  202.3360  147.4230 C   0  0  0  0  0  0  0  0  0  0  0  0
  161.1050  203.3120  150.1180 C   0  0  0  0  0  0  0  0  0  0  0  0
  161.0230  205.7030  150.6160 N   0  0  0  0  0  2  0  0  0  0  0  0
  161.1260  203.7750  148.9920 C   0  0  0  0  0  3  0  0  0  0  0  0
  162.0900  205.0990  145.8580 O   0  0  0  0  0  1  0  0  0  0  0  0
  161.3090  204.3390  151.1700 C   0  0  0  0  0  2  0  0  0  0  0  0
  162.3990  207.4250  147.4440 N   0  0  0  0  0  0  0  0  0  0  0  0
  161.3360  201.2760  148.6990 C   0  0  0  0  0  3  0  0  0  0  0  0
  161.7520  205.0710  147.2140 N   0  0  0  0  0  0  0  0  0  0  0  0
  161.8340  206.3070  148.0520 C   0  0  0  0  0  0  0  0  0  0  0  0
  161.2740  201.8440  149.9920 C   0  0  0  0  0  0  0  0  0  0  0  0
  161.8160  207.8310  149.7390 C   0  0  2  0  0  3  0  0  0  0  0  0
  161.5920  201.3260  151.2010 F   0  0  0  0  0  0  0  0  0  0  0  0
  160.9000  201.9970  146.0080 C   0  0  0  0  0  2  0  0  0  0  0  0
  160.4640  200.5130  146.1670 C   0  0  1  0  0  3  0  0  0  0  0  0
  159.5620  200.0830  145.1620 O   0  0  0  0  0  1  0  0  0  0  0  0
  161.4000  198.2400  145.2620 C   0  0  0  0  0  1  0  0  0  0  0  0
  161.5910  199.4730  146.1500 C   0  0  0  0  0  2  0  0  0  0  0  0
  1 31  1  6  0  0  0
  1  2  1  0  0  0  0
  1 12  1  0  0  0  0
  3  2  1  0  0  0  0
  4  5  1  1  0  0  0
  4  3  1  0  0  0  0
  5  6  1  0  0  0  0
  7  8  1  6  0  0  0
  7  4  1  0  0  0  0
 10  7  1  0  0  0  0
 10  9  1  0  0  0  0
 11 10  2  0  0  0  0
 12 15  1  0  0  0  0
 14 16  1  0  0  0  0
 15 13  2  0  0  0  0
 15 16  1  0  0  0  0
 16 17  1  0  0  0  0
 17 18  1  0  0  0  0
 19 18  1  0  0  0  0
 19 20  1  0  0  0  0
 21 29  1  0  0  0  0
 21 27  1  1  0  0  0
 22 26  1  0  0  0  0
 23 30  1  0  0  0  0
 24 22  1  0  0  0  0
 25 28  1  0  0  0  0
 25 23  1  0  0  0  0
 26 29  2  0  0  0  0
 28 24  1  1  0  0  0
 28 21  1  0  0  0  0
 30 27  1  0  0  0  0
 30 20  1  6  0  0  0
 31 32  1  0  0  0  0
 32 34  1  0  0  0  0
 32 33  1  1  0  0  0
 35 41  1  0  0  0  0
 36 49  1  0  0  0  0
 36 40  1  0  0  0  0
 37 49  1  0  0  0  0
 38 35  2  0  0  0  0
 38 45  1  0  0  0  0
 39 43  1  0  0  0  0
 40 43  1  0  0  0  0
 41 39  2  0  0  0  0
 42 46  1  0  0  0  0
 44 47  1  0  0  0  0
 44 37  2  0  0  0  0
 45 48  2  0  0  0  0
 46 35  1  0  0  0  0
 46 47  1  0  0  0  0
 47 36  2  0  0  0  0
 48 39  1  0  0  0  0
 48 50  1  0  0  0  0
 49 34  1  1  0  0  0
 51 52  1  0  0  0  0
 51 38  1  0  0  0  0
 52 53  1  6  0  0  0
 54 55  1  0  0  0  0
 55 52  1  0  0  0  0
M  END
>  <MODEL>
8

>  <REMARK>
 VINA RESULT:      -4.3      3.111      7.608
  Name = 
  20 active torsions:
  status: ('A' for Active; 'I' for Inactive)
    1  A    between atoms: C_8  and  C_39
    2  A    between atoms: C_9  and  C_28
    3  A    between atoms: C_9  and  C_33
    4  A    between atoms: C_10  and  C_29
    5  A    between atoms: C_12  and  C_17
    6  A    between atoms: C_12  and  C_55
    7  A    between atoms: C_15  and  C_39
    8  A    between atoms: C_15  and  C_52
    9  A    between atoms: C_17  and  C_49
   10  A    between atoms: C_18  and  C_44
   11  A    between atoms: O_27  and  C_46
   12  A    between atoms: O_27  and  C_55
   13  A    between atoms: C_28  and  C_31
   14  A    between atoms: C_29  and  C_44
   15  A    between atoms: C_31  and  N_51
   16  A    between atoms: O_32  and  C_36
   17  A    between atoms: O_32  and  C_44
   18  A    between atoms: C_33  and  C_50
   19  A    between atoms: C_36  and  C_55
   20  A    between atoms: C_40  and  C_49
                            x       y       z     vdW  Elec       q    Type
                         _______ _______ _______ _____ _____    ______ ____

>  <TORSDO>
F 20

$$$$
