=
 OpenBabel11052409273D

 35 38  0  0  1  0  0  0  0  0999 V2000
  161.1410  205.9970  148.3110 C   0  0  0  0  0  0  0  0  0  0  0  0
  161.0200  204.6360  148.5760 C   0  0  0  0  0  3  0  0  0  0  0  0
  161.0690  205.0680  150.9700 C   0  0  0  0  0  0  0  0  0  0  0  0
  161.1800  206.4550  150.6990 C   0  0  0  0  0  0  0  0  0  0  0  0
  161.2150  206.8990  149.3730 C   0  0  0  0  0  3  0  0  0  0  0  0
  160.9760  204.1500  149.8900 C   0  0  0  0  0  0  0  0  0  0  0  0
  161.1590  204.5060  152.6460 Cl  0  0  0  0  0  0  0  0  0  0  0  0
  161.3110  209.3800  153.8370 C   0  0  0  0  0  0  0  0  0  0  0  0
  160.8230  207.1350  153.0680 C   0  0  0  0  0  3  0  0  0  0  0  0
  161.2530  207.4670  151.7740 C   0  0  0  0  0  0  0  0  0  0  0  0
  161.7380  209.7210  152.5470 C   0  0  0  0  0  3  0  0  0  0  0  0
  160.8560  208.0830  154.0930 C   0  0  0  0  0  3  0  0  0  0  0  0
  161.7090  208.7760  151.5180 C   0  0  0  0  0  0  0  0  0  0  0  0
  162.1440  209.1430  150.2500 O   0  0  0  0  0  1  0  0  0  0  0  0
  161.3430  210.3780  154.9530 C   0  0  2  0  0  3  0  0  0  0  0  0
  160.6870  211.6140  154.5500 N   0  0  0  0  0  2  0  0  0  0  0  0
  157.0980  211.4310  154.3830 O   0  0  0  0  0  0  0  0  0  0  0  0
  158.5780  211.5670  152.5990 N   0  0  0  0  0  1  0  0  0  0  0  0
  159.3480  211.5170  154.9510 N   0  0  0  0  0  2  0  0  0  0  0  0
  158.2930  211.5030  153.9930 C   0  0  0  0  0  0  0  0  0  0  0  0
  162.7790  210.6560  155.3750 C   0  0  0  0  0  2  0  0  0  0  0  0
  162.9540  210.4670  156.8730 C   0  0  0  0  0  2  0  0  0  0  0  0
  162.6310  209.1570  157.2300 O   0  0  0  0  0  1  0  0  0  0  0  0
  160.9450  202.1470  151.1960 O   0  0  0  0  0  0  0  0  0  0  0  0
  160.8360  202.6840  150.0600 C   0  0  0  0  0  0  0  0  0  0  0  0
  160.5520  201.8910  148.9430 O   0  0  0  0  0  0  0  0  0  0  0  0
  161.3830  200.8080  148.5460 C   0  0  0  0  0  2  0  0  0  0  0  0
  161.2360  200.5740  147.1180 N   0  0  0  0  0  2  0  0  0  0  0  0
  161.1540  202.3960  145.5920 N   0  0  0  0  0  2  0  0  0  0  0  0
  160.3980  201.6390  146.6010 C   0  0  1  0  0  3  0  0  0  0  0  0
  160.1410  201.4130  145.1840 C   0  0  0  0  0  2  0  0  0  0  0  0
  161.1790  206.4440  146.9540 N   0  0  0  0  0  2  0  0  0  0  0  0
  160.2890  206.5200  144.8400 O   0  0  0  0  0  0  0  0  0  0  0  0
  161.4590  205.7960  144.6970 N   0  0  0  0  0  2  0  0  0  0  0  0
  160.6110  205.6780  145.8550 C   0  0  1  0  0  3  0  0  0  0  0  0
  1  2  2  0  0  0  0
  1  5  1  0  0  0  0
  2  6  1  0  0  0  0
  3  7  1  0  0  0  0
  4  3  1  0  0  0  0
  4 10  1  0  0  0  0
  5  4  2  0  0  0  0
  6 25  1  0  0  0  0
  6  3  2  0  0  0  0
  8 12  1  0  0  0  0
  8 15  1  0  0  0  0
  9 12  2  0  0  0  0
 10  9  1  0  0  0  0
 11  8  2  0  0  0  0
 13 10  2  0  0  0  0
 13 11  1  0  0  0  0
 14 13  1  0  0  0  0
 15 21  1  6  0  0  0
 16 19  1  0  0  0  0
 16 15  1  0  0  0  0
 18 20  1  0  0  0  0
 20 17  2  0  0  0  0
 20 19  1  0  0  0  0
 21 22  1  0  0  0  0
 22 23  1  0  0  0  0
 25 24  2  0  0  0  0
 26 25  1  0  0  0  0
 27 26  1  0  0  0  0
 28 27  1  0  0  0  0
 29 30  1  0  0  0  0
 30 28  1  6  0  0  0
 31 29  1  0  0  0  0
 31 30  1  0  0  0  0
 32  1  1  0  0  0  0
 33 35  1  0  0  0  0
 34 33  1  0  0  0  0
 34 35  1  0  0  0  0
 35 32  1  1  0  0  0
M  END
>  <MODEL>
1

>  <REMARK>
 VINA RESULT:      -8.3      0.000      0.000
  Name = 
  13 active torsions:
  status: ('A' for Active; 'I' for Inactive)
    1  A    between atoms: C_2  and  C_19
    2  A    between atoms: N_3  and  C_7
    3  A    between atoms: N_3  and  C_33
    4  A    between atoms: N_4  and  C_19
    5  A    between atoms: N_4  and  N_25
    6  A    between atoms: C_6  and  C_11
    7  A    between atoms: N_9  and  C_17
    8  A    between atoms: N_9  and  C_29
    9  A    between atoms: C_17  and  O_20
   10  A    between atoms: C_18  and  C_31
   11  A    between atoms: C_19  and  C_31
   12  A    between atoms: O_20  and  C_24
   13  A    between atoms: C_24  and  C_26
                            x       y       z     vdW  Elec       q    Type
                         _______ _______ _______ _____ _____    ______ ____

>  <TORSDO>
F 13

$$$$
=
 OpenBabel11052409273D

 35 38  0  0  1  0  0  0  0  0999 V2000
  160.8170  203.9410  150.1030 C   0  0  0  0  0  0  0  0  0  0  0  0
  161.3100  204.4530  148.9060 C   0  0  0  0  0  3  0  0  0  0  0  0
  161.6090  206.6400  149.9300 C   0  0  0  0  0  0  0  0  0  0  0  0
  161.1190  206.1140  151.1520 C   0  0  0  0  0  0  0  0  0  0  0  0
  160.7290  204.7730  151.2200 C   0  0  0  0  0  3  0  0  0  0  0  0
  161.7160  205.7900  148.7960 C   0  0  0  0  0  0  0  0  0  0  0  0
  161.9740  208.3680  149.8180 Cl  0  0  0  0  0  0  0  0  0  0  0  0
  160.8600  208.5440  154.6800 C   0  0  0  0  0  0  0  0  0  0  0  0
  160.8680  208.3270  152.2680 C   0  0  0  0  0  3  0  0  0  0  0  0
  161.0080  206.9350  152.3770 C   0  0  0  0  0  0  0  0  0  0  0  0
  161.0040  207.1550  154.7990 C   0  0  0  0  0  3  0  0  0  0  0  0
  160.7900  209.1250  153.4110 C   0  0  0  0  0  3  0  0  0  0  0  0
  161.0810  206.3520  153.6580 C   0  0  0  0  0  0  0  0  0  0  0  0
  161.2190  204.9760  153.8080 O   0  0  0  0  0  1  0  0  0  0  0  0
  160.7680  209.4190  155.8920 C   0  0  2  0  0  3  0  0  0  0  0  0
  160.2320  210.7250  155.5380 N   0  0  0  0  0  2  0  0  0  0  0  0
  156.6690  211.2210  155.6240 O   0  0  0  0  0  0  0  0  0  0  0  0
  158.0830  211.5340  153.8090 N   0  0  0  0  0  1  0  0  0  0  0  0
  158.9140  210.7690  156.0120 N   0  0  0  0  0  2  0  0  0  0  0  0
  157.8410  211.1770  155.1660 C   0  0  0  0  0  0  0  0  0  0  0  0
  162.1380  209.5700  156.5410 C   0  0  0  0  0  2  0  0  0  0  0  0
  162.5610  211.0290  156.5900 C   0  0  0  0  0  2  0  0  0  0  0  0
  163.8880  211.1280  157.0090 O   0  0  0  0  0  1  0  0  0  0  0  0
  161.8930  207.3390  146.9830 O   0  0  0  0  0  0  0  0  0  0  0  0
  162.2330  206.2300  147.4790 C   0  0  0  0  0  0  0  0  0  0  0  0
  163.1350  205.4110  146.7920 O   0  0  0  0  0  0  0  0  0  0  0  0
  162.8300  204.8320  145.5300 C   0  0  0  0  0  2  0  0  0  0  0  0
  161.6540  203.9840  145.6500 N   0  0  0  0  0  2  0  0  0  0  0  0
  160.0760  205.5940  144.8900 N   0  0  0  0  0  2  0  0  0  0  0  0
  160.7660  204.3390  144.5580 C   0  0  1  0  0  3  0  0  0  0  0  0
  161.2090  205.5910  143.9560 C   0  0  0  0  0  2  0  0  0  0  0  0
  160.4190  202.5700  150.1640 N   0  0  0  0  0  2  0  0  0  0  0  0
  161.2520  201.7540  148.1880 O   0  0  0  0  0  0  0  0  0  0  0  0
  161.0230  200.6280  148.9590 N   0  0  0  0  0  2  0  0  0  0  0  0
  160.1490  201.7720  148.9780 C   0  0  1  0  0  3  0  0  0  0  0  0
  1 32  1  0  0  0  0
  1  5  1  0  0  0  0
  2  1  2  0  0  0  0
  3  4  1  0  0  0  0
  4  5  2  0  0  0  0
  4 10  1  0  0  0  0
  6  2  1  0  0  0  0
  6  3  2  0  0  0  0
  7  3  1  0  0  0  0
  8 11  1  0  0  0  0
  8 15  1  0  0  0  0
  9 10  2  0  0  0  0
  9 12  1  0  0  0  0
 10 13  1  0  0  0  0
 12  8  2  0  0  0  0
 13 14  1  0  0  0  0
 13 11  2  0  0  0  0
 15 21  1  6  0  0  0
 16 15  1  0  0  0  0
 16 19  1  0  0  0  0
 18 20  1  0  0  0  0
 20 17  2  0  0  0  0
 20 19  1  0  0  0  0
 21 22  1  0  0  0  0
 22 23  1  0  0  0  0
 24 25  2  0  0  0  0
 25  6  1  0  0  0  0
 26 25  1  0  0  0  0
 27 28  1  0  0  0  0
 27 26  1  0  0  0  0
 30 29  1  0  0  0  0
 30 28  1  1  0  0  0
 31 30  1  0  0  0  0
 31 29  1  0  0  0  0
 33 34  1  0  0  0  0
 33 35  1  0  0  0  0
 34 35  1  0  0  0  0
 35 32  1  1  0  0  0
M  END
>  <MODEL>
2

>  <REMARK>
 VINA RESULT:      -7.3      1.898      3.524
  Name = 
  13 active torsions:
  status: ('A' for Active; 'I' for Inactive)
    1  A    between atoms: C_2  and  C_19
    2  A    between atoms: N_3  and  C_7
    3  A    between atoms: N_3  and  C_33
    4  A    between atoms: N_4  and  C_19
    5  A    between atoms: N_4  and  N_25
    6  A    between atoms: C_6  and  C_11
    7  A    between atoms: N_9  and  C_17
    8  A    between atoms: N_9  and  C_29
    9  A    between atoms: C_17  and  O_20
   10  A    between atoms: C_18  and  C_31
   11  A    between atoms: C_19  and  C_31
   12  A    between atoms: O_20  and  C_24
   13  A    between atoms: C_24  and  C_26
                            x       y       z     vdW  Elec       q    Type
                         _______ _______ _______ _____ _____    ______ ____

>  <TORSDO>
F 13

$$$$
=
 OpenBabel11052409273D

 35 38  0  0  1  0  0  0  0  0999 V2000
  161.6500  210.2680  151.0900 C   0  0  0  0  0  0  0  0  0  0  0  0
  161.4570  210.3690  152.4640 C   0  0  0  0  0  3  0  0  0  0  0  0
  161.0960  207.9690  152.6210 C   0  0  0  0  0  0  0  0  0  0  0  0
  161.3050  207.8650  151.2230 C   0  0  0  0  0  0  0  0  0  0  0  0
  161.5770  209.0160  150.4770 C   0  0  0  0  0  3  0  0  0  0  0  0
  161.1860  209.2400  153.2490 C   0  0  0  0  0  0  0  0  0  0  0  0
  160.6200  206.5280  153.5320 Cl  0  0  0  0  0  0  0  0  0  0  0  0
  161.2230  204.0840  149.1940 C   0  0  0  0  0  0  0  0  0  0  0  0
  161.3000  205.3740  151.2420 C   0  0  0  0  0  3  0  0  0  0  0  0
  161.2520  206.5700  150.5100 C   0  0  0  0  0  0  0  0  0  0  0  0
  161.1800  205.2730  148.4550 C   0  0  0  0  0  3  0  0  0  0  0  0
  161.2810  204.1390  150.5890 C   0  0  0  0  0  3  0  0  0  0  0  0
  161.1970  206.5110  149.1030 C   0  0  0  0  0  0  0  0  0  0  0  0
  161.1470  207.6730  148.3420 O   0  0  0  0  0  1  0  0  0  0  0  0
  161.1980  202.7490  148.5150 C   0  0  2  0  0  3  0  0  0  0  0  0
  161.2920  202.9080  147.0710 N   0  0  0  0  0  2  0  0  0  0  0  0
  159.9060  200.5050  144.7820 O   0  0  0  0  0  0  0  0  0  0  0  0
  159.8820  202.8160  144.5700 N   0  0  0  0  0  1  0  0  0  0  0  0
  160.9350  201.6800  146.4990 N   0  0  0  0  0  2  0  0  0  0  0  0
  160.2270  201.6220  145.2640 C   0  0  0  0  0  0  0  0  0  0  0  0
  159.9280  201.9920  148.8810 C   0  0  0  0  0  2  0  0  0  0  0  0
  160.1390  201.1390  150.1220 C   0  0  0  0  0  2  0  0  0  0  0  0
  161.4510  200.6660  150.1580 O   0  0  0  0  0  1  0  0  0  0  0  0
  161.9980  209.5120  155.4810 O   0  0  0  0  0  0  0  0  0  0  0  0
  161.0060  209.4590  154.7040 C   0  0  0  0  0  0  0  0  0  0  0  0
  159.7160  209.6360  155.2130 O   0  0  0  0  0  0  0  0  0  0  0  0
  159.2650  210.8800  155.7310 C   0  0  0  0  0  2  0  0  0  0  0  0
  157.9210  211.1560  155.2490 N   0  0  0  0  0  2  0  0  0  0  0  0
  157.3000  212.8060  153.6530 N   0  0  0  0  0  2  0  0  0  0  0  0
  158.0460  211.5570  153.8600 C   0  0  1  0  0  3  0  0  0  0  0  0
  158.7640  212.8230  153.7800 C   0  0  0  0  0  2  0  0  0  0  0  0
  161.9270  211.4490  150.3340 N   0  0  0  0  0  2  0  0  0  0  0  0
  161.2000  212.0210  148.2340 O   0  0  0  0  0  0  0  0  0  0  0  0
  162.3470  212.7730  148.4210 N   0  0  0  0  0  2  0  0  0  0  0  0
  162.2160  211.4240  148.9080 C   0  0  1  0  0  3  0  0  0  0  0  0
  1  2  1  0  0  0  0
  2  6  2  0  0  0  0
  3  6  1  0  0  0  0
  3  7  1  0  0  0  0
  4  3  2  0  0  0  0
  5  1  2  0  0  0  0
  5  4  1  0  0  0  0
  6 25  1  0  0  0  0
  8 12  1  0  0  0  0
 10  4  1  0  0  0  0
 10  9  1  0  0  0  0
 11 13  1  0  0  0  0
 11  8  2  0  0  0  0
 12  9  2  0  0  0  0
 13 10  2  0  0  0  0
 14 13  1  0  0  0  0
 15 21  1  6  0  0  0
 15  8  1  0  0  0  0
 16 15  1  0  0  0  0
 17 20  2  0  0  0  0
 18 20  1  0  0  0  0
 19 16  1  0  0  0  0
 20 19  1  0  0  0  0
 21 22  1  0  0  0  0
 22 23  1  0  0  0  0
 25 26  1  0  0  0  0
 25 24  2  0  0  0  0
 26 27  1  0  0  0  0
 28 27  1  0  0  0  0
 29 31  1  0  0  0  0
 29 30  1  0  0  0  0
 30 28  1  1  0  0  0
 31 30  1  0  0  0  0
 32  1  1  0  0  0  0
 33 34  1  0  0  0  0
 33 35  1  0  0  0  0
 34 35  1  0  0  0  0
 35 32  1  1  0  0  0
M  END
>  <MODEL>
3

>  <REMARK>
 VINA RESULT:      -7.2      2.158      9.159
  Name = 
  13 active torsions:
  status: ('A' for Active; 'I' for Inactive)
    1  A    between atoms: C_2  and  C_19
    2  A    between atoms: N_3  and  C_7
    3  A    between atoms: N_3  and  C_33
    4  A    between atoms: N_4  and  C_19
    5  A    between atoms: N_4  and  N_25
    6  A    between atoms: C_6  and  C_11
    7  A    between atoms: N_9  and  C_17
    8  A    between atoms: N_9  and  C_29
    9  A    between atoms: C_17  and  O_20
   10  A    between atoms: C_18  and  C_31
   11  A    between atoms: C_19  and  C_31
   12  A    between atoms: O_20  and  C_24
   13  A    between atoms: C_24  and  C_26
                            x       y       z     vdW  Elec       q    Type
                         _______ _______ _______ _____ _____    ______ ____

>  <TORSDO>
F 13

$$$$
=
 OpenBabel11052409273D

 35 38  0  0  1  0  0  0  0  0999 V2000
  160.9790  207.1550  153.7530 C   0  0  0  0  0  0  0  0  0  0  0  0
  161.0730  208.5130  153.4650 C   0  0  0  0  0  3  0  0  0  0  0  0
  161.2820  208.0270  151.0910 C   0  0  0  0  0  0  0  0  0  0  0  0
  161.1740  206.6440  151.3830 C   0  0  0  0  0  0  0  0  0  0  0  0
  161.0250  206.2280  152.7100 C   0  0  0  0  0  3  0  0  0  0  0  0
  161.2190  208.9720  152.1490 C   0  0  0  0  0  0  0  0  0  0  0  0
  161.6040  208.5350  149.4260 Cl  0  0  0  0  0  0  0  0  0  0  0  0
  161.2110  203.6860  148.2740 C   0  0  0  0  0  0  0  0  0  0  0  0
  161.5460  205.9670  149.0150 C   0  0  0  0  0  3  0  0  0  0  0  0
  161.2050  205.6080  150.3280 C   0  0  0  0  0  0  0  0  0  0  0  0
  160.8650  203.3190  149.5810 C   0  0  0  0  0  3  0  0  0  0  0  0
  161.5530  205.0120  147.9960 C   0  0  0  0  0  3  0  0  0  0  0  0
  160.8570  204.2710  150.6050 C   0  0  0  0  0  0  0  0  0  0  0  0
  160.5140  203.8750  151.8930 O   0  0  0  0  0  1  0  0  0  0  0  0
  161.2320  202.6780  147.1670 C   0  0  2  0  0  3  0  0  0  0  0  0
  160.4400  203.1440  146.0380 N   0  0  0  0  0  2  0  0  0  0  0  0
  161.9610  205.5410  143.8280 O   0  0  0  0  0  0  0  0  0  0  0  0
  160.0720  205.8490  145.1420 N   0  0  0  0  0  1  0  0  0  0  0  0
  161.3310  203.7190  145.1220 N   0  0  0  0  0  2  0  0  0  0  0  0
  161.1530  205.0560  144.6630 C   0  0  0  0  0  0  0  0  0  0  0  0
  160.7070  201.3360  147.6610 C   0  0  0  0  0  2  0  0  0  0  0  0
  161.7470  200.2430  147.4810 C   0  0  0  0  0  2  0  0  0  0  0  0
  161.4270  199.4570  146.3740 O   0  0  0  0  0  1  0  0  0  0  0  0
  161.9350  210.9320  150.9810 O   0  0  0  0  0  0  0  0  0  0  0  0
  161.3010  210.4390  151.9540 C   0  0  0  0  0  0  0  0  0  0  0  0
  160.6400  211.2850  152.8510 O   0  0  0  0  0  0  0  0  0  0  0  0
  159.4970  212.0450  152.4810 C   0  0  0  0  0  2  0  0  0  0  0  0
  158.7970  212.4920  153.6740 N   0  0  0  0  0  2  0  0  0  0  0  0
  158.8830  212.2140  156.0350 N   0  0  0  0  0  2  0  0  0  0  0  0
  159.1510  211.5730  154.7390 C   0  0  1  0  0  3  0  0  0  0  0  0
  157.9540  211.2140  155.4910 C   0  0  0  0  0  2  0  0  0  0  0  0
  160.8290  206.7370  155.1110 N   0  0  0  0  0  2  0  0  0  0  0  0
  160.0290  206.8170  157.2600 O   0  0  0  0  0  0  0  0  0  0  0  0
  160.5210  208.0890  157.0260 N   0  0  0  0  0  2  0  0  0  0  0  0
  159.8470  207.3190  156.0120 C   0  0  1  0  0  3  0  0  0  0  0  0
  1 32  1  0  0  0  0
  2  1  1  0  0  0  0
  3  4  2  0  0  0  0
  3  6  1  0  0  0  0
  4  5  1  0  0  0  0
  5  1  2  0  0  0  0
  6  2  2  0  0  0  0
  7  3  1  0  0  0  0
  8 11  1  0  0  0  0
  9 10  2  0  0  0  0
 10 13  1  0  0  0  0
 10  4  1  0  0  0  0
 11 13  2  0  0  0  0
 12  8  2  0  0  0  0
 12  9  1  0  0  0  0
 13 14  1  0  0  0  0
 15 21  1  1  0  0  0
 15  8  1  0  0  0  0
 16 15  1  0  0  0  0
 17 20  2  0  0  0  0
 19 16  1  0  0  0  0
 20 19  1  0  0  0  0
 20 18  1  0  0  0  0
 22 21  1  0  0  0  0
 23 22  1  0  0  0  0
 24 25  2  0  0  0  0
 25  6  1  0  0  0  0
 25 26  1  0  0  0  0
 27 26  1  0  0  0  0
 27 28  1  0  0  0  0
 30 28  1  6  0  0  0
 30 31  1  0  0  0  0
 30 29  1  0  0  0  0
 31 29  1  0  0  0  0
 34 33  1  0  0  0  0
 35 32  1  6  0  0  0
 35 34  1  0  0  0  0
 35 33  1  0  0  0  0
M  END
>  <MODEL>
4

>  <REMARK>
 VINA RESULT:      -7.1      2.155      9.883
  Name = 
  13 active torsions:
  status: ('A' for Active; 'I' for Inactive)
    1  A    between atoms: C_2  and  C_19
    2  A    between atoms: N_3  and  C_7
    3  A    between atoms: N_3  and  C_33
    4  A    between atoms: N_4  and  C_19
    5  A    between atoms: N_4  and  N_25
    6  A    between atoms: C_6  and  C_11
    7  A    between atoms: N_9  and  C_17
    8  A    between atoms: N_9  and  C_29
    9  A    between atoms: C_17  and  O_20
   10  A    between atoms: C_18  and  C_31
   11  A    between atoms: C_19  and  C_31
   12  A    between atoms: O_20  and  C_24
   13  A    between atoms: C_24  and  C_26
                            x       y       z     vdW  Elec       q    Type
                         _______ _______ _______ _____ _____    ______ ____

>  <TORSDO>
F 13

$$$$
=
 OpenBabel11052409273D

 35 38  0  0  1  0  0  0  0  0999 V2000
  160.6920  210.3560  152.4830 C   0  0  0  0  0  0  0  0  0  0  0  0
  160.8310  209.8100  153.7550 C   0  0  0  0  0  3  0  0  0  0  0  0
  161.1540  207.5950  152.8030 C   0  0  0  0  0  0  0  0  0  0  0  0
  161.0250  208.1540  151.5070 C   0  0  0  0  0  0  0  0  0  0  0  0
  160.7940  209.5260  151.3660 C   0  0  0  0  0  3  0  0  0  0  0  0
  161.0660  208.4410  153.9410 C   0  0  0  0  0  0  0  0  0  0  0  0
  161.3110  205.8400  152.9750 Cl  0  0  0  0  0  0  0  0  0  0  0  0
  161.3720  205.7190  147.9890 C   0  0  0  0  0  0  0  0  0  0  0  0
  160.6200  206.0290  150.2700 C   0  0  0  0  0  3  0  0  0  0  0  0
  161.1310  207.3360  150.2790 C   0  0  0  0  0  0  0  0  0  0  0  0
  161.8890  207.0210  147.9900 C   0  0  0  0  0  3  0  0  0  0  0  0
  160.7350  205.2280  149.1330 C   0  0  0  0  0  3  0  0  0  0  0  0
  161.7750  207.8270  149.1260 C   0  0  0  0  0  0  0  0  0  0  0  0
  162.2940  209.1170  149.0940 O   0  0  0  0  0  1  0  0  0  0  0  0
  161.4780  204.8440  146.7790 C   0  0  2  0  0  3  0  0  0  0  0  0
  162.1530  203.5970  147.1090 N   0  0  0  0  0  2  0  0  0  0  0  0
  160.5600  200.7690  145.5560 O   0  0  0  0  0  0  0  0  0  0  0  0
  160.2990  201.4960  147.7460 N   0  0  0  0  0  1  0  0  0  0  0  0
  161.7780  202.6590  146.1380 N   0  0  0  0  0  2  0  0  0  0  0  0
  160.8670  201.6060  146.4440 C   0  0  0  0  0  0  0  0  0  0  0  0
  162.2240  205.5680  145.6650 C   0  0  0  0  0  2  0  0  0  0  0  0
  161.3080  205.8400  144.4830 C   0  0  0  0  0  2  0  0  0  0  0  0
  160.0410  206.2100  144.9350 O   0  0  0  0  0  1  0  0  0  0  0  0
  160.5820  206.9490  155.7450 O   0  0  0  0  0  0  0  0  0  0  0  0
  161.2070  207.9650  155.3380 C   0  0  0  0  0  0  0  0  0  0  0  0
  162.0710  208.6430  156.2050 O   0  0  0  0  0  0  0  0  0  0  0  0
  161.5970  209.4680  157.2610 C   0  0  0  0  0  2  0  0  0  0  0  0
  161.4530  210.8360  156.7880 N   0  0  0  0  0  2  0  0  0  0  0  0
  159.8740  212.6080  156.6320 N   0  0  0  0  0  2  0  0  0  0  0  0
  160.1650  211.3110  157.2590 C   0  0  1  0  0  3  0  0  0  0  0  0
  159.2320  211.3810  156.1410 C   0  0  0  0  0  2  0  0  0  0  0  0
  160.4550  211.7590  152.3470 N   0  0  0  0  0  2  0  0  0  0  0  0
  158.7540  213.0160  153.2360 O   0  0  0  0  0  0  0  0  0  0  0  0
  159.2040  213.7560  152.1570 N   0  0  0  0  0  2  0  0  0  0  0  0
  159.1290  212.3180  152.1340 C   0  0  1  0  0  3  0  0  0  0  0  0
  1  2  1  0  0  0  0
  2  6  2  0  0  0  0
  3  7  1  0  0  0  0
  3  6  1  0  0  0  0
  4  3  2  0  0  0  0
  5  4  1  0  0  0  0
  5  1  2  0  0  0  0
  6 25  1  0  0  0  0
  8 11  2  0  0  0  0
  8 12  1  0  0  0  0
  9 10  1  0  0  0  0
 10  4  1  0  0  0  0
 11 13  1  0  0  0  0
 12  9  2  0  0  0  0
 13 10  2  0  0  0  0
 14 13  1  0  0  0  0
 15 21  1  6  0  0  0
 15 16  1  0  0  0  0
 15  8  1  0  0  0  0
 17 20  2  0  0  0  0
 19 20  1  0  0  0  0
 19 16  1  0  0  0  0
 20 18  1  0  0  0  0
 22 23  1  0  0  0  0
 22 21  1  0  0  0  0
 25 24  2  0  0  0  0
 25 26  1  0  0  0  0
 26 27  1  0  0  0  0
 28 27  1  0  0  0  0
 29 30  1  0  0  0  0
 30 28  1  6  0  0  0
 31 29  1  0  0  0  0
 31 30  1  0  0  0  0
 32  1  1  0  0  0  0
 34 33  1  0  0  0  0
 35 34  1  0  0  0  0
 35 32  1  1  0  0  0
 35 33  1  0  0  0  0
M  END
>  <MODEL>
5

>  <REMARK>
 VINA RESULT:      -7.1      1.984      9.571
  Name = 
  13 active torsions:
  status: ('A' for Active; 'I' for Inactive)
    1  A    between atoms: C_2  and  C_19
    2  A    between atoms: N_3  and  C_7
    3  A    between atoms: N_3  and  C_33
    4  A    between atoms: N_4  and  C_19
    5  A    between atoms: N_4  and  N_25
    6  A    between atoms: C_6  and  C_11
    7  A    between atoms: N_9  and  C_17
    8  A    between atoms: N_9  and  C_29
    9  A    between atoms: C_17  and  O_20
   10  A    between atoms: C_18  and  C_31
   11  A    between atoms: C_19  and  C_31
   12  A    between atoms: O_20  and  C_24
   13  A    between atoms: C_24  and  C_26
                            x       y       z     vdW  Elec       q    Type
                         _______ _______ _______ _____ _____    ______ ____

>  <TORSDO>
F 13

$$$$
=
 OpenBabel11052409273D

 35 38  0  0  1  0  0  0  0  0999 V2000
  160.6640  210.8420  152.5850 C   0  0  0  0  0  0  0  0  0  0  0  0
  160.7970  210.8010  153.9690 C   0  0  0  0  0  3  0  0  0  0  0  0
  161.0730  208.3850  153.9010 C   0  0  0  0  0  0  0  0  0  0  0  0
  160.9500  208.4290  152.4900 C   0  0  0  0  0  0  0  0  0  0  0  0
  160.7450  209.6570  151.8520 C   0  0  0  0  0  3  0  0  0  0  0  0
  161.0070  209.5920  154.6470 C   0  0  0  0  0  0  0  0  0  0  0  0
  161.1970  206.8150  154.7080 Cl  0  0  0  0  0  0  0  0  0  0  0  0
  161.2550  204.8720  150.1080 C   0  0  0  0  0  0  0  0  0  0  0  0
  160.8280  205.9540  152.2320 C   0  0  0  0  0  3  0  0  0  0  0  0
  161.0350  207.2150  151.6500 C   0  0  0  0  0  0  0  0  0  0  0  0
  161.4670  206.1250  149.5200 C   0  0  0  0  0  3  0  0  0  0  0  0
  160.9330  204.7920  151.4660 C   0  0  0  0  0  3  0  0  0  0  0  0
  161.3630  207.2920  150.2820 C   0  0  0  0  0  0  0  0  0  0  0  0
  161.5740  208.5220  149.6680 O   0  0  0  0  0  1  0  0  0  0  0  0
  161.3560  203.6120  149.3050 C   0  0  2  0  0  3  0  0  0  0  0  0
  160.9920  203.8610  147.9170 N   0  0  0  0  0  2  0  0  0  0  0  0
  163.2660  204.4140  145.1850 O   0  0  0  0  0  0  0  0  0  0  0  0
  160.9460  204.3770  145.0910 N   0  0  0  0  0  1  0  0  0  0  0  0
  162.1860  204.0330  147.2050 N   0  0  0  0  0  2  0  0  0  0  0  0
  162.1770  204.2800  145.8010 C   0  0  0  0  0  0  0  0  0  0  0  0
  160.4620  202.5320  149.8990 C   0  0  0  0  0  2  0  0  0  0  0  0
  160.1940  201.4280  148.8880 C   0  0  0  0  0  2  0  0  0  0  0  0
  161.3290  200.6300  148.7410 O   0  0  0  0  0  1  0  0  0  0  0  0
  162.2610  209.4810  156.6800 O   0  0  0  0  0  0  0  0  0  0  0  0
  161.1450  209.6620  156.1210 C   0  0  0  0  0  0  0  0  0  0  0  0
  160.0210  209.9620  156.8980 O   0  0  0  0  0  0  0  0  0  0  0  0
  159.6780  211.2930  157.2610 C   0  0  0  0  0  2  0  0  0  0  0  0
  158.2350  211.4610  157.2070 N   0  0  0  0  0  2  0  0  0  0  0  0
  156.7840  210.8760  155.4150 N   0  0  0  0  0  2  0  0  0  0  0  0
  157.8950  211.7460  155.8250 C   0  0  1  0  0  3  0  0  0  0  0  0
  156.5420  212.2840  155.7570 C   0  0  0  0  0  2  0  0  0  0  0  0
  160.4530  212.1000  151.9400 N   0  0  0  0  0  2  0  0  0  0  0  0
  159.2660  213.9820  151.3780 O   0  0  0  0  0  0  0  0  0  0  0  0
  158.3320  212.9600  151.3460 N   0  0  0  0  0  2  0  0  0  0  0  0
  159.3890  213.0150  152.3230 C   0  0  1  0  0  3  0  0  0  0  0  0
  1  2  1  0  0  0  0
  2  6  2  0  0  0  0
  3  6  1  0  0  0  0
  3  7  1  0  0  0  0
  4  3  2  0  0  0  0
  5  4  1  0  0  0  0
  5  1  2  0  0  0  0
  6 25  1  0  0  0  0
  8 12  1  0  0  0  0
 10  9  1  0  0  0  0
 10  4  1  0  0  0  0
 11  8  2  0  0  0  0
 11 13  1  0  0  0  0
 12  9  2  0  0  0  0
 13 10  2  0  0  0  0
 14 13  1  0  0  0  0
 15 21  1  1  0  0  0
 15  8  1  0  0  0  0
 16 15  1  0  0  0  0
 17 20  2  0  0  0  0
 18 20  1  0  0  0  0
 19 16  1  0  0  0  0
 20 19  1  0  0  0  0
 22 21  1  0  0  0  0
 23 22  1  0  0  0  0
 25 24  2  0  0  0  0
 25 26  1  0  0  0  0
 26 27  1  0  0  0  0
 28 27  1  0  0  0  0
 29 31  1  0  0  0  0
 29 30  1  0  0  0  0
 30 28  1  1  0  0  0
 31 30  1  0  0  0  0
 32  1  1  0  0  0  0
 33 35  1  0  0  0  0
 34 33  1  0  0  0  0
 34 35  1  0  0  0  0
 35 32  1  6  0  0  0
M  END
>  <MODEL>
6

>  <REMARK>
 VINA RESULT:      -7.0      2.029      9.443
  Name = 
  13 active torsions:
  status: ('A' for Active; 'I' for Inactive)
    1  A    between atoms: C_2  and  C_19
    2  A    between atoms: N_3  and  C_7
    3  A    between atoms: N_3  and  C_33
    4  A    between atoms: N_4  and  C_19
    5  A    between atoms: N_4  and  N_25
    6  A    between atoms: C_6  and  C_11
    7  A    between atoms: N_9  and  C_17
    8  A    between atoms: N_9  and  C_29
    9  A    between atoms: C_17  and  O_20
   10  A    between atoms: C_18  and  C_31
   11  A    between atoms: C_19  and  C_31
   12  A    between atoms: O_20  and  C_24
   13  A    between atoms: C_24  and  C_26
                            x       y       z     vdW  Elec       q    Type
                         _______ _______ _______ _____ _____    ______ ____

>  <TORSDO>
F 13

$$$$
=
 OpenBabel11052409273D

 35 38  0  0  1  0  0  0  0  0999 V2000
  161.8160  210.0720  150.5760 C   0  0  0  0  0  0  0  0  0  0  0  0
  161.6770  210.0520  151.9600 C   0  0  0  0  0  3  0  0  0  0  0  0
  161.3490  207.6420  151.9230 C   0  0  0  0  0  0  0  0  0  0  0  0
  161.5030  207.6620  150.5150 C   0  0  0  0  0  0  0  0  0  0  0  0
  161.7330  208.8770  149.8610 C   0  0  0  0  0  3  0  0  0  0  0  0
  161.4500  208.8560  152.6540 C   0  0  0  0  0  0  0  0  0  0  0  0
  160.9260  206.1220  152.7250 Cl  0  0  0  0  0  0  0  0  0  0  0  0
  161.3440  204.0500  148.2010 C   0  0  0  0  0  0  0  0  0  0  0  0
  160.7930  205.2940  150.2050 C   0  0  0  0  0  3  0  0  0  0  0  0
  161.4370  206.4320  149.6950 C   0  0  0  0  0  0  0  0  0  0  0  0
  161.9920  205.1800  147.6860 C   0  0  0  0  0  3  0  0  0  0  0  0
  160.7430  204.1130  149.4620 C   0  0  0  0  0  3  0  0  0  0  0  0
  162.0450  206.3650  148.4250 C   0  0  0  0  0  0  0  0  0  0  0  0
  162.6910  207.4710  147.8850 O   0  0  0  0  0  1  0  0  0  0  0  0
  161.2720  202.7750  147.4200 C   0  0  2  0  0  3  0  0  0  0  0  0
  160.4860  202.9620  146.2090 N   0  0  0  0  0  2  0  0  0  0  0  0
  161.8020  205.2530  143.7680 O   0  0  0  0  0  0  0  0  0  0  0  0
  159.8460  205.4870  144.9970 N   0  0  0  0  0  1  0  0  0  0  0  0
  161.3380  203.5290  145.2510 N   0  0  0  0  0  2  0  0  0  0  0  0
  161.0260  204.7760  144.6360 C   0  0  0  0  0  0  0  0  0  0  0  0
  160.6720  201.6640  148.2720 C   0  0  0  0  0  2  0  0  0  0  0  0
  161.5620  200.4310  148.2670 C   0  0  0  0  0  2  0  0  0  0  0  0
  161.5670  199.8510  146.9990 O   0  0  0  0  0  1  0  0  0  0  0  0
  160.7670  208.0310  154.7920 O   0  0  0  0  0  0  0  0  0  0  0  0
  161.3260  208.9470  154.1290 C   0  0  0  0  0  0  0  0  0  0  0  0
  161.8650  210.0540  154.7920 O   0  0  0  0  0  0  0  0  0  0  0  0
  161.0550  210.9980  155.4810 C   0  0  0  0  0  2  0  0  0  0  0  0
  160.1340  211.6280  154.5490 N   0  0  0  0  0  2  0  0  0  0  0  0
  157.7960  211.4400  154.9410 N   0  0  0  0  0  2  0  0  0  0  0  0
  159.0270  212.1420  155.3330 C   0  0  1  0  0  3  0  0  0  0  0  0
  158.4970  211.0810  156.1810 C   0  0  0  0  0  2  0  0  0  0  0  0
  162.0490  211.3180  149.9150 N   0  0  0  0  0  2  0  0  0  0  0  0
  161.7600  212.7980  148.1860 O   0  0  0  0  0  0  0  0  0  0  0  0
  163.0240  212.2730  147.9840 N   0  0  0  0  0  2  0  0  0  0  0  0
  161.9250  211.4820  148.4750 C   0  0  1  0  0  3  0  0  0  0  0  0
  1  2  1  0  0  0  0
  2  6  2  0  0  0  0
  3  6  1  0  0  0  0
  3  7  1  0  0  0  0
  4  3  2  0  0  0  0
  5  4  1  0  0  0  0
  5  1  2  0  0  0  0
  6 25  1  0  0  0  0
  8 12  1  0  0  0  0
 10  9  1  0  0  0  0
 10  4  1  0  0  0  0
 11  8  2  0  0  0  0
 11 13  1  0  0  0  0
 12  9  2  0  0  0  0
 13 10  2  0  0  0  0
 14 13  1  0  0  0  0
 15  8  1  0  0  0  0
 15 21  1  1  0  0  0
 16 15  1  0  0  0  0
 17 20  2  0  0  0  0
 19 16  1  0  0  0  0
 20 18  1  0  0  0  0
 20 19  1  0  0  0  0
 22 21  1  0  0  0  0
 23 22  1  0  0  0  0
 25 24  2  0  0  0  0
 25 26  1  0  0  0  0
 26 27  1  0  0  0  0
 28 27  1  0  0  0  0
 29 30  1  0  0  0  0
 29 31  1  0  0  0  0
 30 28  1  6  0  0  0
 30 31  1  0  0  0  0
 32  1  1  0  0  0  0
 33 35  1  0  0  0  0
 34 33  1  0  0  0  0
 34 35  1  0  0  0  0
 35 32  1  1  0  0  0
M  END
>  <MODEL>
7

>  <REMARK>
 VINA RESULT:      -6.9      2.218      9.156
  Name = 
  13 active torsions:
  status: ('A' for Active; 'I' for Inactive)
    1  A    between atoms: C_2  and  C_19
    2  A    between atoms: N_3  and  C_7
    3  A    between atoms: N_3  and  C_33
    4  A    between atoms: N_4  and  C_19
    5  A    between atoms: N_4  and  N_25
    6  A    between atoms: C_6  and  C_11
    7  A    between atoms: N_9  and  C_17
    8  A    between atoms: N_9  and  C_29
    9  A    between atoms: C_17  and  O_20
   10  A    between atoms: C_18  and  C_31
   11  A    between atoms: C_19  and  C_31
   12  A    between atoms: O_20  and  C_24
   13  A    between atoms: C_24  and  C_26
                            x       y       z     vdW  Elec       q    Type
                         _______ _______ _______ _____ _____    ______ ____

>  <TORSDO>
F 13

$$$$
=
 OpenBabel11052409273D

 35 38  0  0  1  0  0  0  0  0999 V2000
  160.8470  203.5140  149.5740 C   0  0  0  0  0  0  0  0  0  0  0  0
  161.0900  203.9670  148.2810 C   0  0  0  0  0  3  0  0  0  0  0  0
  161.2740  206.2560  149.0850 C   0  0  0  0  0  0  0  0  0  0  0  0
  161.0390  205.7920  150.4040 C   0  0  0  0  0  0  0  0  0  0  0  0
  160.8280  204.4280  150.6290 C   0  0  0  0  0  3  0  0  0  0  0  0
  161.3110  205.3250  148.0130 C   0  0  0  0  0  0  0  0  0  0  0  0
  161.4080  207.9970  148.7930 Cl  0  0  0  0  0  0  0  0  0  0  0  0
  161.0290  208.4790  153.7500 C   0  0  0  0  0  0  0  0  0  0  0  0
  160.8440  208.0810  151.3690 C   0  0  0  0  0  3  0  0  0  0  0  0
  161.0140  206.7020  151.5690 C   0  0  0  0  0  0  0  0  0  0  0  0
  161.2040  207.1050  153.9600 C   0  0  0  0  0  3  0  0  0  0  0  0
  160.8470  208.9620  152.4510 C   0  0  0  0  0  3  0  0  0  0  0  0
  161.2010  206.2180  152.8800 C   0  0  0  0  0  0  0  0  0  0  0  0
  161.3720  204.8600  153.1210 O   0  0  0  0  0  1  0  0  0  0  0  0
  161.0220  209.4430  154.8960 C   0  0  2  0  0  3  0  0  0  0  0  0
  161.4790  210.7550  154.4620 N   0  0  0  0  0  2  0  0  0  0  0  0
  159.0010  213.1310  155.5390 O   0  0  0  0  0  0  0  0  0  0  0  0
  160.8360  212.3770  156.7460 N   0  0  0  0  0  1  0  0  0  0  0  0
  160.3580  211.5960  154.4460 N   0  0  0  0  0  2  0  0  0  0  0  0
  160.0230  212.3970  155.5770 C   0  0  0  0  0  0  0  0  0  0  0  0
  161.9000  208.9270  156.0280 C   0  0  0  0  0  2  0  0  0  0  0  0
  161.0670  208.5850  157.2530 C   0  0  0  0  0  2  0  0  0  0  0  0
  159.8100  209.1830  157.1570 O   0  0  0  0  0  1  0  0  0  0  0  0
  162.7140  206.0730  146.2260 O   0  0  0  0  0  0  0  0  0  0  0  0
  161.5690  205.6990  146.6020 C   0  0  0  0  0  0  0  0  0  0  0  0
  160.5300  205.6070  145.6700 O   0  0  0  0  0  0  0  0  0  0  0  0
  160.5460  204.6730  144.5990 C   0  0  0  0  0  2  0  0  0  0  0  0
  160.7340  203.3290  145.1210 N   0  0  0  0  0  2  0  0  0  0  0  0
  160.0810  201.0830  144.6900 N   0  0  0  0  0  2  0  0  0  0  0  0
  159.7140  202.4950  144.5130 C   0  0  1  0  0  3  0  0  0  0  0  0
  159.0560  201.7000  145.5420 C   0  0  0  0  0  2  0  0  0  0  0  0
  160.6300  202.1190  149.7970 N   0  0  0  0  0  2  0  0  0  0  0  0
  161.5380  201.2830  147.8620 O   0  0  0  0  0  0  0  0  0  0  0  0
  161.5810  200.2230  148.7510 N   0  0  0  0  0  2  0  0  0  0  0  0
  160.4870  201.1600  148.7120 C   0  0  1  0  0  3  0  0  0  0  0  0
  1 32  1  0  0  0  0
  1  5  1  0  0  0  0
  2  1  2  0  0  0  0
  3  4  1  0  0  0  0
  4  5  2  0  0  0  0
  4 10  1  0  0  0  0
  6  2  1  0  0  0  0
  6  3  2  0  0  0  0
  7  3  1  0  0  0  0
  8 11  1  0  0  0  0
  8 15  1  0  0  0  0
  9 10  2  0  0  0  0
  9 12  1  0  0  0  0
 10 13  1  0  0  0  0
 12  8  2  0  0  0  0
 13 14  1  0  0  0  0
 13 11  2  0  0  0  0
 15 21  1  1  0  0  0
 16 15  1  0  0  0  0
 17 20  2  0  0  0  0
 19 16  1  0  0  0  0
 19 20  1  0  0  0  0
 20 18  1  0  0  0  0
 21 22  1  0  0  0  0
 23 22  1  0  0  0  0
 24 25  2  0  0  0  0
 25  6  1  0  0  0  0
 26 25  1  0  0  0  0
 27 28  1  0  0  0  0
 27 26  1  0  0  0  0
 29 31  1  0  0  0  0
 30 29  1  0  0  0  0
 30 28  1  1  0  0  0
 30 31  1  0  0  0  0
 33 35  1  0  0  0  0
 33 34  1  0  0  0  0
 35 34  1  0  0  0  0
 35 32  1  1  0  0  0
M  END
>  <MODEL>
8

>  <REMARK>
 VINA RESULT:      -6.8      2.059      3.594
  Name = 
  13 active torsions:
  status: ('A' for Active; 'I' for Inactive)
    1  A    between atoms: C_2  and  C_19
    2  A    between atoms: N_3  and  C_7
    3  A    between atoms: N_3  and  C_33
    4  A    between atoms: N_4  and  C_19
    5  A    between atoms: N_4  and  N_25
    6  A    between atoms: C_6  and  C_11
    7  A    between atoms: N_9  and  C_17
    8  A    between atoms: N_9  and  C_29
    9  A    between atoms: C_17  and  O_20
   10  A    between atoms: C_18  and  C_31
   11  A    between atoms: C_19  and  C_31
   12  A    between atoms: O_20  and  C_24
   13  A    between atoms: C_24  and  C_26
                            x       y       z     vdW  Elec       q    Type
                         _______ _______ _______ _____ _____    ______ ____

>  <TORSDO>
F 13

$$$$
=
 OpenBabel11052409273D

 35 38  0  0  1  0  0  0  0  0999 V2000
  161.2580  206.6050  153.3660 C   0  0  0  0  0  0  0  0  0  0  0  0
  161.1830  205.3850  152.7020 C   0  0  0  0  0  3  0  0  0  0  0  0
  161.3500  206.5100  150.5520 C   0  0  0  0  0  0  0  0  0  0  0  0
  161.4390  207.7510  151.2290 C   0  0  0  0  0  0  0  0  0  0  0  0
  161.3900  207.7810  152.6260 C   0  0  0  0  0  3  0  0  0  0  0  0
  161.2330  205.3100  151.3030 C   0  0  0  0  0  0  0  0  0  0  0  0
  161.2790  206.4940  148.7830 Cl  0  0  0  0  0  0  0  0  0  0  0  0
  161.9540  211.4530  149.1190 C   0  0  0  0  0  0  0  0  0  0  0  0
  161.9570  209.0320  149.1550 C   0  0  0  0  0  3  0  0  0  0  0  0
  161.5890  209.0350  150.5100 C   0  0  0  0  0  0  0  0  0  0  0  0
  161.5910  211.4660  150.4720 C   0  0  0  0  0  3  0  0  0  0  0  0
  162.1340  210.2320  148.4640 C   0  0  0  0  0  3  0  0  0  0  0  0
  161.4120  210.2680  151.1690 C   0  0  0  0  0  0  0  0  0  0  0  0
  161.0470  210.3140  152.5100 O   0  0  0  0  0  1  0  0  0  0  0  0
  162.1430  212.7270  148.3550 C   0  0  2  0  0  3  0  0  0  0  0  0
  161.3740  213.8040  148.9610 N   0  0  0  0  0  2  0  0  0  0  0  0
  157.7910  213.7720  148.6370 O   0  0  0  0  0  0  0  0  0  0  0  0
  159.0180  213.9110  150.6030 N   0  0  0  0  0  1  0  0  0  0  0  0
  160.0990  213.7740  148.3810 N   0  0  0  0  0  2  0  0  0  0  0  0
  158.9230  213.8170  149.1860 C   0  0  0  0  0  0  0  0  0  0  0  0
  161.7330  212.5400  146.9000 C   0  0  0  0  0  2  0  0  0  0  0  0
  162.6410  213.3280  145.9710 C   0  0  0  0  0  2  0  0  0  0  0  0
  162.3860  212.9770  144.6450 O   0  0  0  0  0  1  0  0  0  0  0  0
  161.5810  202.9440  151.3150 O   0  0  0  0  0  0  0  0  0  0  0  0
  161.1540  203.9590  150.6980 C   0  0  0  0  0  0  0  0  0  0  0  0
  160.5730  203.8100  149.4350 O   0  0  0  0  0  0  0  0  0  0  0  0
  161.2530  203.1910  148.3510 C   0  0  0  0  0  2  0  0  0  0  0  0
  160.4950  202.0390  147.8890 N   0  0  0  0  0  2  0  0  0  0  0  0
  160.1130  201.7050  145.5650 N   0  0  0  0  0  2  0  0  0  0  0  0
  161.1050  201.6060  146.6450 C   0  0  1  0  0  3  0  0  0  0  0  0
  161.1600  202.7250  145.7130 C   0  0  0  0  0  2  0  0  0  0  0  0
  161.2050  206.6290  154.7940 N   0  0  0  0  0  2  0  0  0  0  0  0
  159.7840  206.9520  156.5660 O   0  0  0  0  0  0  0  0  0  0  0  0
  160.9080  207.6940  156.8840 N   0  0  0  0  0  2  0  0  0  0  0  0
  160.4040  207.5870  155.5390 C   0  0  1  0  0  3  0  0  0  0  0  0
  1 32  1  0  0  0  0
  2  1  1  0  0  0  0
  3  4  2  0  0  0  0
  3  6  1  0  0  0  0
  4  5  1  0  0  0  0
  5  1  2  0  0  0  0
  6  2  2  0  0  0  0
  7  3  1  0  0  0  0
  8 11  1  0  0  0  0
  9 10  2  0  0  0  0
 10 13  1  0  0  0  0
 10  4  1  0  0  0  0
 11 13  2  0  0  0  0
 12  8  2  0  0  0  0
 12  9  1  0  0  0  0
 13 14  1  0  0  0  0
 15 21  1  6  0  0  0
 15 16  1  0  0  0  0
 15  8  1  0  0  0  0
 17 20  2  0  0  0  0
 19 16  1  0  0  0  0
 19 20  1  0  0  0  0
 20 18  1  0  0  0  0
 22 21  1  0  0  0  0
 23 22  1  0  0  0  0
 25  6  1  0  0  0  0
 25 24  2  0  0  0  0
 26 25  1  0  0  0  0
 27 26  1  0  0  0  0
 28 27  1  0  0  0  0
 29 31  1  0  0  0  0
 29 30  1  0  0  0  0
 30 28  1  1  0  0  0
 31 30  1  0  0  0  0
 33 34  1  0  0  0  0
 35 32  1  6  0  0  0
 35 33  1  0  0  0  0
 35 34  1  0  0  0  0
M  END
>  <MODEL>
9

>  <REMARK>
 VINA RESULT:      -6.4      3.539      5.972
  Name = 
  13 active torsions:
  status: ('A' for Active; 'I' for Inactive)
    1  A    between atoms: C_2  and  C_19
    2  A    between atoms: N_3  and  C_7
    3  A    between atoms: N_3  and  C_33
    4  A    between atoms: N_4  and  C_19
    5  A    between atoms: N_4  and  N_25
    6  A    between atoms: C_6  and  C_11
    7  A    between atoms: N_9  and  C_17
    8  A    between atoms: N_9  and  C_29
    9  A    between atoms: C_17  and  O_20
   10  A    between atoms: C_18  and  C_31
   11  A    between atoms: C_19  and  C_31
   12  A    between atoms: O_20  and  C_24
   13  A    between atoms: C_24  and  C_26
                            x       y       z     vdW  Elec       q    Type
                         _______ _______ _______ _____ _____    ______ ____

>  <TORSDO>
F 13

$$$$
