=
 OpenBabel11052412103D

 56 58  0  0  1  0  0  0  0  0999 V2000
  161.7400  208.2510  151.2310 C   0  0  1  0  0  3  0  0  0  0  0  0
  161.5300  206.9900  153.3420 N   0  0  0  0  0  2  0  0  0  0  0  0
  160.9820  210.3740  152.2400 C   0  0  0  0  0  0  0  0  0  0  0  0
  160.4650  208.6870  154.5820 O   0  0  0  0  0  0  0  0  0  0  0  0
  161.0430  209.0670  152.2710 C   0  0  0  0  0  0  0  0  0  0  0  0
  160.9670  208.2810  153.4990 C   0  0  0  0  0  0  0  0  0  0  0  0
  161.9930  206.9780  151.9920 C   0  0  0  0  0  0  0  0  0  0  0  0
  162.5830  205.9810  151.4970 O   0  0  0  0  0  0  0  0  0  0  0  0
  160.9190  211.6810  152.2150 C   0  0  0  0  0  3  0  0  0  0  0  0
  159.1130  213.5140  149.3730 C   0  0  0  0  0  1  0  0  0  0  0  0
  160.1680  212.8120  150.1790 C   0  0  0  0  0  0  0  0  0  0  0  0
  159.8980  212.4190  151.4430 C   0  0  0  0  0  0  0  0  0  0  0  0
  161.4380  212.4780  149.5920 N   0  0  0  0  0  0  0  0  0  0  0  0
  161.8590  212.7710  148.3920 C   0  0  0  0  0  3  0  0  0  0  0  0
  161.0970  213.6010  147.4050 C   0  0  0  0  0  2  0  0  0  0  0  0
  161.0000  212.8870  146.0650 C   0  0  0  0  0  2  0  0  0  0  0  0
  159.5530  212.6150  145.6890 C   0  0  0  0  0  2  0  0  0  0  0  0
  158.8430  213.8640  145.4830 N   0  0  0  0  0  2  0  0  0  0  0  0
  157.4480  213.6350  145.8230 C   0  0  0  0  0  2  0  0  0  0  0  0
  157.2840  212.2550  146.4340 C   0  0  0  0  0  1  0  0  0  0  0  0
  158.5530  212.6870  152.0670 C   0  0  0  0  0  2  0  0  0  0  0  0
  158.6550  213.8120  152.9880 N   0  0  0  0  0  2  0  0  0  0  0  0
  157.3180  214.3640  153.1510 C   0  0  0  0  0  2  0  0  0  0  0  0
  156.5150  213.5280  154.1430 C   0  0  2  0  0  3  0  0  0  0  0  0
  155.3090  212.9340  153.4300 C   0  0  0  0  0  1  0  0  0  0  0  0
  156.0780  214.3890  155.3220 C   0  0  1  0  0  3  0  0  0  0  0  0
  154.6800  214.4500  155.3810 O   0  0  0  0  0  1  0  0  0  0  0  0
  156.6080  213.8100  156.6240 C   0  0  0  0  0  2  0  0  0  0  0  0
  157.5990  212.6890  156.3470 C   0  0  0  0  0  2  0  0  0  0  0  0
  159.3170  214.1200  157.2060 O   0  0  0  0  0  1  0  0  0  0  0  0
  158.8120  212.8150  157.2590 C   0  0  2  0  0  3  0  0  0  0  0  0
  159.3850  210.4960  156.9490 O   0  0  0  0  0  1  0  0  0  0  0  0
  160.3730  212.0710  155.4550 C   0  0  0  0  0  1  0  0  0  0  0  0
  159.8820  211.8020  156.8680 C   0  0  1  0  0  3  0  0  0  0  0  0
  160.8250  207.9860  150.1270 N   0  0  0  0  0  2  0  0  0  0  0  0
  163.1250  207.6040  148.8370 O   0  0  0  0  0  0  0  0  0  0  0  0
  161.7110  208.0840  148.6390 S   0  0  0  0  0  0  0  0  0  0  0  0
  161.7320  209.5060  148.1600 O   0  0  0  0  0  0  0  0  0  0  0  0
  160.8860  207.0620  147.4350 C   0  0  0  0  0  2  0  0  0  0  0  0
  161.6500  205.7570  147.1790 C   0  0  1  0  0  3  0  0  0  0  0  0
  161.7130  202.2630  148.8500 C   0  0  2  0  0  3  0  0  0  0  0  0
  160.2280  203.9000  150.2030 C   0  0  0  0  0  3  0  0  0  0  0  0
  160.3980  204.8290  149.2630 C   0  0  0  0  0  3  0  0  0  0  0  0
  160.9480  201.8410  151.1050 O   0  0  0  0  0  0  0  0  0  0  0  0
  161.3580  204.6380  148.1480 C   0  0  0  0  0  0  0  0  0  0  0  0
  160.9700  202.6350  150.1280 C   0  0  0  0  0  0  0  0  0  0  0  0
  161.9940  203.4670  147.9840 C   0  0  0  0  0  3  0  0  0  0  0  0
  161.0270  201.2190  148.0640 N   0  0  0  0  0  0  0  0  0  0  0  0
  160.5110  201.6650  145.6080 C   0  0  0  0  0  2  0  0  0  0  0  0
  160.0330  200.2980  145.1310 C   0  0  0  0  0  2  0  0  0  0  0  0
  161.0580  199.2130  145.4430 C   0  0  0  0  0  2  0  0  0  0  0  0
  160.1390  201.8700  147.0800 C   0  0  0  0  0  2  0  0  0  0  0  0
  161.2540  199.0290  146.9420 C   0  0  0  0  0  2  0  0  0  0  0  0
  161.9810  200.2380  147.5180 C   0  0  0  0  0  2  0  0  0  0  0  0
  160.6520  206.1230  145.1450 C   0  0  0  0  0  1  0  0  0  0  0  0
  161.6070  205.3490  145.8250 O   0  0  0  0  0  0  0  0  0  0  0  0
  1 35  1  6  0  0  0
  1  7  1  0  0  0  0
  1  5  1  0  0  0  0
  2  6  1  0  0  0  0
  3  5  2  0  0  0  0
  5  6  1  0  0  0  0
  6  4  2  0  0  0  0
  7  2  1  0  0  0  0
  8  7  2  0  0  0  0
  9  3  2  0  0  0  0
 10 11  1  0  0  0  0
 11 12  2  0  0  0  0
 12 21  1  0  0  0  0
 12  9  1  0  0  0  0
 13 11  1  0  0  0  0
 14 13  2  0  0  0  0
 15 14  1  0  0  0  0
 16 15  1  0  0  0  0
 17 16  1  0  0  0  0
 18 17  1  0  0  0  0
 18 19  1  0  0  0  0
 19 20  1  0  0  0  0
 21 22  1  0  0  0  0
 22 23  1  0  0  0  0
 23 24  1  0  0  0  0
 24 25  1  6  0  0  0
 24 26  1  0  0  0  0
 26 27  1  1  0  0  0
 26 28  1  0  0  0  0
 29 28  1  0  0  0  0
 29 31  1  0  0  0  0
 31 30  1  6  0  0  0
 34 33  1  6  0  0  0
 34 32  1  0  0  0  0
 34 31  1  0  0  0  0
 37 36  2  0  0  0  0
 37 35  1  0  0  0  0
 38 37  2  0  0  0  0
 39 37  1  0  0  0  0
 40 39  1  6  0  0  0
 40 45  1  0  0  0  0
 41 47  1  6  0  0  0
 41 46  1  0  0  0  0
 43 42  2  0  0  0  0
 45 43  1  0  0  0  0
 46 42  1  0  0  0  0
 46 44  2  0  0  0  0
 47 45  2  0  0  0  0
 48 41  1  0  0  0  0
 49 52  1  0  0  0  0
 50 51  1  0  0  0  0
 50 49  1  0  0  0  0
 51 53  1  0  0  0  0
 52 48  1  0  0  0  0
 53 54  1  0  0  0  0
 54 48  1  0  0  0  0
 55 56  1  0  0  0  0
 56 40  1  0  0  0  0
M  END
>  <MODEL>
1

>  <REMARK>
 VINA RESULT:      -4.7      0.000      0.000
  Name = 
  23 active torsions:
  status: ('A' for Active; 'I' for Inactive)
    1  A    between atoms: C_1  and  C_8
    2  A    between atoms: C_1  and  C_31
    3  A    between atoms: C_2  and  N_46
    4  A    between atoms: C_4  and  C_7
    5  A    between atoms: C_4  and  C_36
    6  A    between atoms: N_6  and  C_43
    7  A    between atoms: C_7  and  C_20
    8  A    between atoms: C_8  and  C_42
    9  A    between atoms: C_9  and  N_14
   10  A    between atoms: C_11  and  N_21
   11  A    between atoms: C_20  and  C_23
   12  A    between atoms: N_21  and  C_31
   13  A    between atoms: C_22  and  C_26
   14  A    between atoms: C_22  and  O_28
   15  A    between atoms: C_22  and  C_38
   16  A    between atoms: C_23  and  N_51
   17  A    between atoms: C_26  and  S_39
   18  A    between atoms: C_32  and  N_51
   19  A    between atoms: C_32  and  C_54
   20  A    between atoms: C_36  and  C_56
   21  A    between atoms: S_39  and  N_46
   22  A    between atoms: C_41  and  C_54
   23  A    between atoms: C_53  and  C_56
                            x       y       z     vdW  Elec       q    Type
                         _______ _______ _______ _____ _____    ______ ____

>  <TORSDO>
F 23

$$$$
=
 OpenBabel11052412103D

 56 58  0  0  1  0  0  0  0  0999 V2000
  159.1130  212.3260  153.3870 C   0  0  1  0  0  3  0  0  0  0  0  0
  156.8580  213.0880  154.0370 N   0  0  0  0  0  2  0  0  0  0  0  0
  159.0660  213.5220  151.2270 C   0  0  0  0  0  0  0  0  0  0  0  0
  156.2850  214.0730  151.9750 O   0  0  0  0  0  0  0  0  0  0  0  0
  158.4270  212.9970  152.2420 C   0  0  0  0  0  0  0  0  0  0  0  0
  157.1120  213.4430  152.6890 C   0  0  0  0  0  0  0  0  0  0  0  0
  158.0530  212.4270  154.4500 C   0  0  0  0  0  0  0  0  0  0  0  0
  158.2030  211.9870  155.6220 O   0  0  0  0  0  0  0  0  0  0  0  0
  159.6990  214.0490  150.2100 C   0  0  0  0  0  3  0  0  0  0  0  0
  159.7830  212.3780  146.7600 C   0  0  0  0  0  1  0  0  0  0  0  0
  159.3210  213.1360  147.9720 C   0  0  0  0  0  0  0  0  0  0  0  0
  160.1360  213.2580  149.0410 C   0  0  0  0  0  0  0  0  0  0  0  0
  158.0480  213.8060  147.9730 N   0  0  0  0  0  0  0  0  0  0  0  0
  157.2370  213.9740  146.9650 C   0  0  0  0  0  3  0  0  0  0  0  0
  157.4630  213.4130  145.5950 C   0  0  0  0  0  2  0  0  0  0  0  0
  158.1430  214.4380  144.7000 C   0  0  0  0  0  2  0  0  0  0  0  0
  158.6240  213.8060  143.4050 C   0  0  0  0  0  2  0  0  0  0  0  0
  159.4300  212.6320  143.6850 N   0  0  0  0  0  2  0  0  0  0  0  0
  160.7770  212.9040  143.2120 C   0  0  0  0  0  2  0  0  0  0  0  0
  160.7400  213.3170  141.7510 C   0  0  0  0  0  1  0  0  0  0  0  0
  161.5060  212.6290  149.0470 C   0  0  0  0  0  2  0  0  0  0  0  0
  161.4240  211.2780  149.5860 N   0  0  0  0  0  2  0  0  0  0  0  0
  162.0980  210.3930  148.6490 C   0  0  0  0  0  2  0  0  0  0  0  0
  161.9310  208.9380  149.0760 C   0  0  2  0  0  3  0  0  0  0  0  0
  162.6930  208.7110  150.3730 C   0  0  0  0  0  1  0  0  0  0  0  0
  162.4370  208.0080  147.9800 C   0  0  1  0  0  3  0  0  0  0  0  0
  162.8950  206.8090  148.5410 O   0  0  0  0  0  1  0  0  0  0  0  0
  161.3230  207.7030  146.9910 C   0  0  0  0  0  2  0  0  0  0  0  0
  161.1180  206.2000  146.8640 C   0  0  0  0  0  2  0  0  0  0  0  0
  159.7900  205.5470  144.9800 O   0  0  0  0  0  1  0  0  0  0  0  0
  161.1040  205.7880  145.3980 C   0  0  2  0  0  3  0  0  0  0  0  0
  162.9710  204.4720  146.1650 O   0  0  0  0  0  1  0  0  0  0  0  0
  161.1300  203.2970  145.2060 C   0  0  0  0  0  1  0  0  0  0  0  0
  161.9780  204.5570  145.1820 C   0  0  1  0  0  3  0  0  0  0  0  0
  159.3460  210.9240  153.0620 N   0  0  0  0  0  2  0  0  0  0  0  0
  161.5080  211.5800  154.4750 O   0  0  0  0  0  0  0  0  0  0  0  0
  160.7910  210.4030  153.8660 S   0  0  0  0  0  0  0  0  0  0  0  0
  161.6980  209.7250  152.8820 O   0  0  0  0  0  0  0  0  0  0  0  0
  160.3290  209.2480  155.1420 C   0  0  0  0  0  2  0  0  0  0  0  0
  159.7830  207.9410  154.5540 C   0  0  1  0  0  3  0  0  0  0  0  0
  161.3100  206.0430  151.5410 C   0  0  2  0  0  3  0  0  0  0  0  0
  162.9780  206.1100  153.5240 C   0  0  0  0  0  3  0  0  0  0  0  0
  162.0490  206.6890  154.2830 C   0  0  0  0  0  3  0  0  0  0  0  0
  163.6600  205.5060  151.3460 O   0  0  0  0  0  0  0  0  0  0  0  0
  160.7600  207.1540  153.7140 C   0  0  0  0  0  0  0  0  0  0  0  0
  162.7210  205.8820  152.0960 C   0  0  0  0  0  0  0  0  0  0  0  0
  160.4390  206.8890  152.4380 C   0  0  0  0  0  3  0  0  0  0  0  0
  160.6490  204.7550  151.2560 N   0  0  0  0  0  0  0  0  0  0  0  0
  161.0040  203.6660  148.9780 C   0  0  0  0  0  2  0  0  0  0  0  0
  160.3650  202.2970  149.1790 C   0  0  0  0  0  2  0  0  0  0  0  0
  160.9510  201.5830  150.3920 C   0  0  0  0  0  2  0  0  0  0  0  0
  160.2790  204.7160  149.8270 C   0  0  0  0  0  2  0  0  0  0  0  0
  160.6460  202.3210  151.6890 C   0  0  0  0  0  2  0  0  0  0  0  0
  161.4480  203.6160  151.7440 C   0  0  0  0  0  2  0  0  0  0  0  0
  159.7810  207.2240  156.7330 C   0  0  0  0  0  1  0  0  0  0  0  0
  159.1010  207.1490  155.5070 O   0  0  0  0  0  0  0  0  0  0  0  0
  1 35  1  6  0  0  0
  1  7  1  0  0  0  0
  2  7  1  0  0  0  0
  3  5  2  0  0  0  0
  4  6  2  0  0  0  0
  5  6  1  0  0  0  0
  5  1  1  0  0  0  0
  6  2  1  0  0  0  0
  7  8  2  0  0  0  0
  9  3  2  0  0  0  0
 10 11  1  0  0  0  0
 11 13  1  0  0  0  0
 11 12  2  0  0  0  0
 12 21  1  0  0  0  0
 12  9  1  0  0  0  0
 14 13  2  0  0  0  0
 15 14  1  0  0  0  0
 16 15  1  0  0  0  0
 17 18  1  0  0  0  0
 17 16  1  0  0  0  0
 19 18  1  0  0  0  0
 20 19  1  0  0  0  0
 21 22  1  0  0  0  0
 23 24  1  0  0  0  0
 23 22  1  0  0  0  0
 24 25  1  1  0  0  0
 26 27  1  1  0  0  0
 26 24  1  0  0  0  0
 28 26  1  0  0  0  0
 29 28  1  0  0  0  0
 31 30  1  1  0  0  0
 31 29  1  0  0  0  0
 34 33  1  1  0  0  0
 34 31  1  0  0  0  0
 34 32  1  0  0  0  0
 35 37  1  0  0  0  0
 37 36  2  0  0  0  0
 37 39  1  0  0  0  0
 38 37  2  0  0  0  0
 40 39  1  1  0  0  0
 40 56  1  0  0  0  0
 41 48  1  1  0  0  0
 41 46  1  0  0  0  0
 41 47  1  0  0  0  0
 42 43  2  0  0  0  0
 44 46  2  0  0  0  0
 45 43  1  0  0  0  0
 45 40  1  0  0  0  0
 46 42  1  0  0  0  0
 47 45  2  0  0  0  0
 48 54  1  0  0  0  0
 49 50  1  0  0  0  0
 49 52  1  0  0  0  0
 50 51  1  0  0  0  0
 51 53  1  0  0  0  0
 52 48  1  0  0  0  0
 53 54  1  0  0  0  0
 56 55  1  0  0  0  0
M  END
>  <MODEL>
2

>  <REMARK>
 VINA RESULT:      -2.7      2.386      7.539
  Name = 
  23 active torsions:
  status: ('A' for Active; 'I' for Inactive)
    1  A    between atoms: C_1  and  C_8
    2  A    between atoms: C_1  and  C_31
    3  A    between atoms: C_2  and  N_46
    4  A    between atoms: C_4  and  C_7
    5  A    between atoms: C_4  and  C_36
    6  A    between atoms: N_6  and  C_43
    7  A    between atoms: C_7  and  C_20
    8  A    between atoms: C_8  and  C_42
    9  A    between atoms: C_9  and  N_14
   10  A    between atoms: C_11  and  N_21
   11  A    between atoms: C_20  and  C_23
   12  A    between atoms: N_21  and  C_31
   13  A    between atoms: C_22  and  C_26
   14  A    between atoms: C_22  and  O_28
   15  A    between atoms: C_22  and  C_38
   16  A    between atoms: C_23  and  N_51
   17  A    between atoms: C_26  and  S_39
   18  A    between atoms: C_32  and  N_51
   19  A    between atoms: C_32  and  C_54
   20  A    between atoms: C_36  and  C_56
   21  A    between atoms: S_39  and  N_46
   22  A    between atoms: C_41  and  C_54
   23  A    between atoms: C_53  and  C_56
                            x       y       z     vdW  Elec       q    Type
                         _______ _______ _______ _____ _____    ______ ____

>  <TORSDO>
F 23

$$$$
=
 OpenBabel11052412103D

 56 58  0  0  1  0  0  0  0  0999 V2000
  162.1100  209.4960  150.4060 C   0  0  1  0  0  3  0  0  0  0  0  0
  162.6100  209.2570  148.0010 N   0  0  0  0  0  2  0  0  0  0  0  0
  162.6330  207.1350  150.9090 C   0  0  0  0  0  0  0  0  0  0  0  0
  162.8700  206.9160  147.9950 O   0  0  0  0  0  0  0  0  0  0  0  0
  162.3060  208.0600  150.0420 C   0  0  0  0  0  0  0  0  0  0  0  0
  162.6180  207.9820  148.6190 C   0  0  0  0  0  0  0  0  0  0  0  0
  162.3120  210.1560  149.0690 C   0  0  0  0  0  0  0  0  0  0  0  0
  162.2470  211.4020  148.8950 O   0  0  0  0  0  0  0  0  0  0  0  0
  162.9620  206.2070  151.7710 C   0  0  0  0  0  3  0  0  0  0  0  0
  160.5050  203.5720  153.0850 C   0  0  0  0  0  1  0  0  0  0  0  0
  161.4740  204.3140  152.2090 C   0  0  0  0  0  0  0  0  0  0  0  0
  161.9680  205.5050  152.6100 C   0  0  0  0  0  0  0  0  0  0  0  0
  161.9480  203.7290  150.9830 N   0  0  0  0  0  0  0  0  0  0  0  0
  161.4480  203.8770  149.7870 C   0  0  0  0  0  3  0  0  0  0  0  0
  160.2950  204.7740  149.4560 C   0  0  0  0  0  2  0  0  0  0  0  0
  160.3590  205.2140  148.0010 C   0  0  0  0  0  2  0  0  0  0  0  0
  161.4380  204.4570  147.2430 C   0  0  0  0  0  2  0  0  0  0  0  0
  160.8840  203.8540  146.0450 N   0  0  0  0  0  2  0  0  0  0  0  0
  161.2880  204.6760  144.9160 C   0  0  0  0  0  2  0  0  0  0  0  0
  162.5130  205.4940  145.2820 C   0  0  0  0  0  1  0  0  0  0  0  0
  161.5490  206.1150  153.9220 C   0  0  0  0  0  2  0  0  0  0  0  0
  160.2710  206.7970  153.7620 N   0  0  0  0  0  2  0  0  0  0  0  0
  160.3630  208.0680  154.4650 C   0  0  0  0  0  2  0  0  0  0  0  0
  160.4490  207.8380  155.9700 C   0  0  2  0  0  3  0  0  0  0  0  0
  159.5000  206.7130  156.3560 C   0  0  0  0  0  1  0  0  0  0  0  0
  160.1030  209.1200  156.7170 C   0  0  1  0  0  3  0  0  0  0  0  0
  161.2630  209.6880  157.2600 O   0  0  0  0  0  1  0  0  0  0  0  0
  159.4500  210.1200  155.7770 C   0  0  0  0  0  2  0  0  0  0  0  0
  158.9270  211.3200  156.5520 C   0  0  0  0  0  2  0  0  0  0  0  0
  157.3770  211.8640  154.8080 O   0  0  0  0  0  1  0  0  0  0  0  0
  157.4770  211.6010  156.1800 C   0  0  2  0  0  3  0  0  0  0  0  0
  157.1420  213.9810  156.3340 O   0  0  0  0  0  1  0  0  0  0  0  0
  155.4480  212.5810  157.2590 C   0  0  0  0  0  1  0  0  0  0  0  0
  156.9330  212.7670  156.9980 C   0  0  1  0  0  3  0  0  0  0  0  0
  160.7360  209.7030  150.8490 N   0  0  0  0  0  2  0  0  0  0  0  0
  161.9830  211.8010  151.9190 O   0  0  0  0  0  0  0  0  0  0  0  0
  160.7210  210.9850  152.0170 S   0  0  0  0  0  0  0  0  0  0  0  0
  160.6100  210.4060  153.3980 O   0  0  0  0  0  0  0  0  0  0  0  0
  159.3040  212.0150  151.6890 C   0  0  0  0  0  2  0  0  0  0  0  0
  159.6900  213.2780  150.9090 C   0  0  1  0  0  3  0  0  0  0  0  0
  158.7990  213.1210  147.1420 C   0  0  2  0  0  3  0  0  0  0  0  0
  156.9710  214.3970  148.4640 C   0  0  0  0  0  3  0  0  0  0  0  0
  157.7120  214.3090  149.5680 C   0  0  0  0  0  3  0  0  0  0  0  0
  156.6070  213.6350  146.2600 O   0  0  0  0  0  0  0  0  0  0  0  0
  158.9470  213.4880  149.6120 C   0  0  0  0  0  0  0  0  0  0  0  0
  157.3940  213.7030  147.2410 C   0  0  0  0  0  0  0  0  0  0  0  0
  159.4240  212.9080  148.4990 C   0  0  0  0  0  3  0  0  0  0  0  0
  159.6980  213.9200  146.2870 N   0  0  0  0  0  0  0  0  0  0  0  0
  162.1620  213.2770  146.1510 C   0  0  0  0  0  2  0  0  0  0  0  0
  162.6610  214.1740  145.0250 C   0  0  0  0  0  2  0  0  0  0  0  0
  161.8240  213.9990  143.7630 C   0  0  0  0  0  2  0  0  0  0  0  0
  161.0330  213.9730  146.9180 C   0  0  0  0  0  2  0  0  0  0  0  0
  160.3810  214.4430  143.9700 C   0  0  0  0  0  2  0  0  0  0  0  0
  159.6670  213.4580  144.8880 C   0  0  0  0  0  2  0  0  0  0  0  0
  159.0450  214.1830  152.9160 C   0  0  0  0  0  1  0  0  0  0  0  0
  159.7360  214.4360  151.7200 O   0  0  0  0  0  0  0  0  0  0  0  0
  1 35  1  6  0  0  0
  2  6  1  0  0  0  0
  2  7  1  0  0  0  0
  3  9  2  0  0  0  0
  4  6  2  0  0  0  0
  5  1  1  0  0  0  0
  5  3  2  0  0  0  0
  6  5  1  0  0  0  0
  7  1  1  0  0  0  0
  8  7  2  0  0  0  0
  9 12  1  0  0  0  0
 11 12  2  0  0  0  0
 11 10  1  0  0  0  0
 12 21  1  0  0  0  0
 13 11  1  0  0  0  0
 14 13  2  0  0  0  0
 15 14  1  0  0  0  0
 16 15  1  0  0  0  0
 17 16  1  0  0  0  0
 18 17  1  0  0  0  0
 19 20  1  0  0  0  0
 19 18  1  0  0  0  0
 22 21  1  0  0  0  0
 22 23  1  0  0  0  0
 23 24  1  0  0  0  0
 24 25  1  1  0  0  0
 24 26  1  0  0  0  0
 26 27  1  6  0  0  0
 28 29  1  0  0  0  0
 28 26  1  0  0  0  0
 31 30  1  6  0  0  0
 31 29  1  0  0  0  0
 31 34  1  0  0  0  0
 32 34  1  0  0  0  0
 34 33  1  6  0  0  0
 35 37  1  0  0  0  0
 36 37  2  0  0  0  0
 37 38  2  0  0  0  0
 39 37  1  0  0  0  0
 40 39  1  1  0  0  0
 40 56  1  0  0  0  0
 41 48  1  6  0  0  0
 41 46  1  0  0  0  0
 41 47  1  0  0  0  0
 42 43  2  0  0  0  0
 43 45  1  0  0  0  0
 44 46  2  0  0  0  0
 45 40  1  0  0  0  0
 46 42  1  0  0  0  0
 47 45  2  0  0  0  0
 48 52  1  0  0  0  0
 49 52  1  0  0  0  0
 50 49  1  0  0  0  0
 51 53  1  0  0  0  0
 51 50  1  0  0  0  0
 53 54  1  0  0  0  0
 54 48  1  0  0  0  0
 56 55  1  0  0  0  0
M  END
>  <MODEL>
3

>  <REMARK>
 VINA RESULT:      -2.2      2.577      8.694
  Name = 
  23 active torsions:
  status: ('A' for Active; 'I' for Inactive)
    1  A    between atoms: C_1  and  C_8
    2  A    between atoms: C_1  and  C_31
    3  A    between atoms: C_2  and  N_46
    4  A    between atoms: C_4  and  C_7
    5  A    between atoms: C_4  and  C_36
    6  A    between atoms: N_6  and  C_43
    7  A    between atoms: C_7  and  C_20
    8  A    between atoms: C_8  and  C_42
    9  A    between atoms: C_9  and  N_14
   10  A    between atoms: C_11  and  N_21
   11  A    between atoms: C_20  and  C_23
   12  A    between atoms: N_21  and  C_31
   13  A    between atoms: C_22  and  C_26
   14  A    between atoms: C_22  and  O_28
   15  A    between atoms: C_22  and  C_38
   16  A    between atoms: C_23  and  N_51
   17  A    between atoms: C_26  and  S_39
   18  A    between atoms: C_32  and  N_51
   19  A    between atoms: C_32  and  C_54
   20  A    between atoms: C_36  and  C_56
   21  A    between atoms: S_39  and  N_46
   22  A    between atoms: C_41  and  C_54
   23  A    between atoms: C_53  and  C_56
                            x       y       z     vdW  Elec       q    Type
                         _______ _______ _______ _____ _____    ______ ____

>  <TORSDO>
F 23

$$$$
=
 OpenBabel11052412103D

 56 58  0  0  1  0  0  0  0  0999 V2000
  160.5780  204.6430  151.7990 C   0  0  1  0  0  3  0  0  0  0  0  0
  160.5720  202.3290  150.9450 N   0  0  0  0  0  2  0  0  0  0  0  0
  160.6570  205.6430  149.5430 C   0  0  0  0  0  0  0  0  0  0  0  0
  160.9800  202.8580  148.6860 O   0  0  0  0  0  0  0  0  0  0  0  0
  160.8530  204.6170  150.3310 C   0  0  0  0  0  0  0  0  0  0  0  0
  160.8170  203.2300  149.8790 C   0  0  0  0  0  0  0  0  0  0  0  0
  160.4250  203.1740  152.0850 C   0  0  0  0  0  0  0  0  0  0  0  0
  160.1680  202.7140  153.2300 O   0  0  0  0  0  0  0  0  0  0  0  0
  160.4610  206.6650  148.7490 C   0  0  0  0  0  3  0  0  0  0  0  0
  163.6690  208.5540  147.8290 C   0  0  0  0  0  1  0  0  0  0  0  0
  162.6740  207.4530  148.0630 C   0  0  0  0  0  0  0  0  0  0  0  0
  161.4570  207.7430  148.5700 C   0  0  0  0  0  0  0  0  0  0  0  0
  162.9730  206.1010  147.6720 N   0  0  0  0  0  0  0  0  0  0  0  0
  162.5290  205.4600  146.6270 C   0  0  0  0  0  3  0  0  0  0  0  0
  161.6550  206.0630  145.5710 C   0  0  0  0  0  2  0  0  0  0  0  0
  161.3640  205.0510  144.4720 C   0  0  0  0  0  2  0  0  0  0  0  0
  161.1440  203.6620  145.0480 C   0  0  0  0  0  2  0  0  0  0  0  0
  159.8410  203.1550  144.6570 N   0  0  0  0  0  2  0  0  0  0  0  0
  159.8830  201.7070  144.7720 C   0  0  0  0  0  2  0  0  0  0  0  0
  160.7580  201.3060  145.9450 C   0  0  0  0  0  1  0  0  0  0  0  0
  161.0810  209.1580  148.9240 C   0  0  0  0  0  2  0  0  0  0  0  0
  161.9590  210.0890  148.2270 N   0  0  0  0  0  2  0  0  0  0  0  0
  161.3870  211.4190  148.3700 C   0  0  0  0  0  2  0  0  0  0  0  0
  162.0230  212.3820  147.3720 C   0  0  2  0  0  3  0  0  0  0  0  0
  162.8990  213.3720  148.1260 C   0  0  0  0  0  1  0  0  0  0  0  0
  160.9410  213.1080  146.5810 C   0  0  1  0  0  3  0  0  0  0  0  0
  160.2990  214.0480  147.3970 O   0  0  0  0  0  1  0  0  0  0  0  0
  161.5490  213.8190  145.3830 C   0  0  0  0  0  2  0  0  0  0  0  0
  161.6950  212.8610  144.2100 C   0  0  0  0  0  2  0  0  0  0  0  0
  159.4340  212.0850  144.0660 O   0  0  0  0  0  1  0  0  0  0  0  0
  160.4120  212.8250  143.3910 C   0  0  2  0  0  3  0  0  0  0  0  0
  160.1160  213.0460  141.0110 O   0  0  0  0  0  1  0  0  0  0  0  0
  162.1720  212.1040  141.7700 C   0  0  0  0  0  1  0  0  0  0  0  0
  160.6780  212.2400  142.0080 C   0  0  1  0  0  3  0  0  0  0  0  0
  161.7450  205.1590  152.5050 N   0  0  0  0  0  2  0  0  0  0  0  0
  162.4590  207.1820  154.0850 O   0  0  0  0  0  0  0  0  0  0  0  0
  161.2600  206.5350  153.4420 S   0  0  0  0  0  0  0  0  0  0  0  0
  160.2980  206.1040  154.5100 O   0  0  0  0  0  0  0  0  0  0  0  0
  160.4580  207.6930  152.3510 C   0  0  0  0  0  2  0  0  0  0  0  0
  161.0840  209.0900  152.4460 C   0  0  1  0  0  3  0  0  0  0  0  0
  158.9490  211.0820  154.9920 C   0  0  2  0  0  3  0  0  0  0  0  0
  161.3970  210.8670  155.8170 C   0  0  0  0  0  3  0  0  0  0  0  0
  161.7310  210.2820  154.6670 C   0  0  0  0  0  3  0  0  0  0  0  0
  159.6560  211.5540  157.2560 O   0  0  0  0  0  0  0  0  0  0  0  0
  160.7050  209.8850  153.6710 C   0  0  0  0  0  0  0  0  0  0  0  0
  159.9890  211.1720  156.1030 C   0  0  0  0  0  0  0  0  0  0  0  0
  159.4170  210.2210  153.8430 C   0  0  0  0  0  3  0  0  0  0  0  0
  158.5150  212.4020  154.4960 N   0  0  0  0  0  0  0  0  0  0  0  0
  158.4560  212.8140  151.9800 C   0  0  0  0  0  2  0  0  0  0  0  0
  157.7550  214.1650  151.8970 C   0  0  0  0  0  2  0  0  0  0  0  0
  156.4190  214.1420  152.6320 C   0  0  0  0  0  2  0  0  0  0  0  0
  159.2760  212.7240  153.2710 C   0  0  0  0  0  2  0  0  0  0  0  0
  156.5960  213.9150  154.1280 C   0  0  0  0  0  2  0  0  0  0  0  0
  157.0480  212.4810  154.3800 C   0  0  0  0  0  2  0  0  0  0  0  0
  162.8330  210.3150  151.6050 C   0  0  0  0  0  1  0  0  0  0  0  0
  162.4750  209.0890  152.1890 O   0  0  0  0  0  0  0  0  0  0  0  0
  1  7  1  0  0  0  0
  1 35  1  1  0  0  0
  2  7  1  0  0  0  0
  3  5  2  0  0  0  0
  4  6  2  0  0  0  0
  5  1  1  0  0  0  0
  6  5  1  0  0  0  0
  6  2  1  0  0  0  0
  7  8  2  0  0  0  0
  9  3  2  0  0  0  0
 10 11  1  0  0  0  0
 11 12  2  0  0  0  0
 12  9  1  0  0  0  0
 12 21  1  0  0  0  0
 13 11  1  0  0  0  0
 14 13  2  0  0  0  0
 15 14  1  0  0  0  0
 16 17  1  0  0  0  0
 16 15  1  0  0  0  0
 18 19  1  0  0  0  0
 18 17  1  0  0  0  0
 19 20  1  0  0  0  0
 22 23  1  0  0  0  0
 22 21  1  0  0  0  0
 24 25  1  1  0  0  0
 24 23  1  0  0  0  0
 26 24  1  0  0  0  0
 26 27  1  1  0  0  0
 28 26  1  0  0  0  0
 29 28  1  0  0  0  0
 31 30  1  1  0  0  0
 31 29  1  0  0  0  0
 32 34  1  0  0  0  0
 34 33  1  6  0  0  0
 34 31  1  0  0  0  0
 35 37  1  0  0  0  0
 37 36  2  0  0  0  0
 37 38  2  0  0  0  0
 39 37  1  0  0  0  0
 40 39  1  1  0  0  0
 40 45  1  0  0  0  0
 41 47  1  6  0  0  0
 41 46  1  0  0  0  0
 42 46  1  0  0  0  0
 43 42  2  0  0  0  0
 45 47  2  0  0  0  0
 45 43  1  0  0  0  0
 46 44  2  0  0  0  0
 48 41  1  0  0  0  0
 49 52  1  0  0  0  0
 50 49  1  0  0  0  0
 50 51  1  0  0  0  0
 51 53  1  0  0  0  0
 52 48  1  0  0  0  0
 53 54  1  0  0  0  0
 54 48  1  0  0  0  0
 55 56  1  0  0  0  0
 56 40  1  0  0  0  0
M  END
>  <MODEL>
4

>  <REMARK>
 VINA RESULT:      -1.8      2.560      9.879
  Name = 
  23 active torsions:
  status: ('A' for Active; 'I' for Inactive)
    1  A    between atoms: C_1  and  C_8
    2  A    between atoms: C_1  and  C_31
    3  A    between atoms: C_2  and  N_46
    4  A    between atoms: C_4  and  C_7
    5  A    between atoms: C_4  and  C_36
    6  A    between atoms: N_6  and  C_43
    7  A    between atoms: C_7  and  C_20
    8  A    between atoms: C_8  and  C_42
    9  A    between atoms: C_9  and  N_14
   10  A    between atoms: C_11  and  N_21
   11  A    between atoms: C_20  and  C_23
   12  A    between atoms: N_21  and  C_31
   13  A    between atoms: C_22  and  C_26
   14  A    between atoms: C_22  and  O_28
   15  A    between atoms: C_22  and  C_38
   16  A    between atoms: C_23  and  N_51
   17  A    between atoms: C_26  and  S_39
   18  A    between atoms: C_32  and  N_51
   19  A    between atoms: C_32  and  C_54
   20  A    between atoms: C_36  and  C_56
   21  A    between atoms: S_39  and  N_46
   22  A    between atoms: C_41  and  C_54
   23  A    between atoms: C_53  and  C_56
                            x       y       z     vdW  Elec       q    Type
                         _______ _______ _______ _____ _____    ______ ____

>  <TORSDO>
F 23

$$$$
