=
 OpenBabel11052409513D

 26 30  0  0  1  0  0  0  0  0999 V2000
  161.0620  205.5050  152.7380 C   0  0  0  0  0  0  0  0  0  0  0  0
  160.9360  204.8820  148.8720 C   0  0  0  0  0  0  0  0  0  0  0  0
  162.3340  207.6900  150.9060 C   0  0  1  0  0  3  0  0  0  0  0  0
  161.4710  206.1970  146.8650 C   0  0  0  0  0  3  0  0  0  0  0  0
  160.9010  204.0800  153.1510 C   0  0  0  0  0  2  0  0  0  0  0  0
  161.6940  203.8060  146.8050 C   0  0  0  0  0  3  0  0  0  0  0  0
  161.8390  208.4760  152.0910 C   0  0  0  0  0  0  0  0  0  0  0  0
  161.4400  207.9220  153.2660 C   0  0  0  0  0  3  0  0  0  0  0  0
  161.0460  206.1500  148.1940 C   0  0  0  0  0  0  0  0  0  0  0  0
  162.2440  206.4090  150.8810 N   0  0  0  0  0  2  0  0  0  0  0  0
  161.2600  206.4830  153.6250 C   0  0  0  0  0  3  0  0  0  0  0  0
  161.7930  205.0380  146.1740 C   0  0  0  0  0  0  0  0  0  0  0  0
  160.9890  205.8600  151.3140 C   0  0  1  0  0  3  0  0  0  0  0  0
  162.3070  203.0440  151.4770 O   0  0  0  0  0  1  0  0  0  0  0  0
  162.2870  208.4120  149.2650 S   0  0  0  0  0  0  0  0  0  0  0  0
  161.2710  203.7060  148.1370 C   0  0  0  0  0  0  0  0  0  0  0  0
  160.9870  203.1560  151.9290 C   0  0  2  0  0  3  0  0  0  0  0  0
  160.1100  203.5440  150.8820 O   0  0  0  0  0  0  0  0  0  0  0  0
  160.4580  204.8120  150.3370 C   0  0  2  0  0  3  0  0  0  0  0  0
  162.3250  205.1290  144.5090 Cl  0  0  0  0  0  0  0  0  0  0  0  0
  160.7420  207.4930  148.8230 C   0  0  0  0  0  2  0  0  0  0  0  0
  160.5070  210.5400  152.3550 C   0  0  0  0  0  2  0  0  0  0  0  0
  161.5610  210.5200  153.2810 O   0  0  0  0  0  0  0  0  0  0  0  0
  161.8360  209.9770  152.0100 C   0  0  1  0  0  3  0  0  0  0  0  0
  160.8270  201.3610  148.0360 O   0  0  0  0  0  0  0  0  0  0  0  0
  161.1890  202.3580  148.7180 C   0  0  0  0  0  3  0  0  0  0  0  0
  1  5  1  0  0  0  0
  1 11  2  0  0  0  0
  3 15  1  6  0  0  0
  3  7  1  0  0  0  0
  4  9  2  0  0  0  0
  6 16  1  0  0  0  0
  7  8  2  0  0  0  0
  8 11  1  0  0  0  0
  9 21  1  0  0  0  0
  9  2  1  0  0  0  0
 10  3  1  0  0  0  0
 12  6  2  0  0  0  0
 12  4  1  0  0  0  0
 13 10  1  6  0  0  0
 13  1  1  0  0  0  0
 16 26  1  0  0  0  0
 16  2  2  0  0  0  0
 17 14  1  6  0  0  0
 17  5  1  0  0  0  0
 18 17  1  0  0  0  0
 19  2  1  6  0  0  0
 19 18  1  0  0  0  0
 19 13  1  0  0  0  0
 20 12  1  0  0  0  0
 21 15  1  0  0  0  0
 22 23  1  0  0  0  0
 24  7  1  1  0  0  0
 24 22  1  0  0  0  0
 24 23  1  0  0  0  0
 25 26  2  0  0  0  0
M  END
>  <MODEL>
1

>  <REMARK>
 VINA RESULT:      -8.9      0.000      0.000
  Name = 
  2 active torsions:
  status: ('A' for Active; 'I' for Inactive)
    1  A    between atoms: C_9  and  C_17
    2  A    between atoms: C_19  and  C_23
                            x       y       z     vdW  Elec       q    Type
                         _______ _______ _______ _____ _____    ______ ____

>  <TORSDO>
F 2

$$$$
=
 OpenBabel11052409513D

 26 30  0  0  1  0  0  0  0  0999 V2000
  161.2710  203.3930  149.6240 C   0  0  0  0  0  0  0  0  0  0  0  0
  161.7050  206.8050  151.5000 C   0  0  0  0  0  0  0  0  0  0  0  0
  160.8000  205.9950  147.9650 C   0  0  1  0  0  3  0  0  0  0  0  0
  161.7520  209.1730  150.8450 C   0  0  0  0  0  3  0  0  0  0  0  0
  161.0280  202.5550  150.8340 C   0  0  0  0  0  2  0  0  0  0  0  0
  160.9620  208.5670  153.0310 C   0  0  0  0  0  3  0  0  0  0  0  0
  161.3250  205.0230  146.9420 C   0  0  0  0  0  0  0  0  0  0  0  0
  161.4330  203.6830  147.1430 C   0  0  0  0  0  3  0  0  0  0  0  0
  161.9900  207.8340  150.5320 C   0  0  0  0  0  0  0  0  0  0  0  0
  160.5770  205.6240  149.1740 N   0  0  0  0  0  2  0  0  0  0  0  0
  161.2120  202.8880  148.3880 C   0  0  0  0  0  3  0  0  0  0  0  0
  161.2430  209.5400  152.0830 C   0  0  0  0  0  0  0  0  0  0  0  0
  161.5990  204.8160  149.7800 C   0  0  1  0  0  3  0  0  0  0  0  0
  159.6240  204.0860  152.0740 O   0  0  0  0  0  1  0  0  0  0  0  0
  161.2180  207.7360  147.8490 S   0  0  0  0  0  0  0  0  0  0  0  0
  161.1840  207.2100  152.7650 C   0  0  0  0  0  0  0  0  0  0  0  0
  160.8670  203.4430  152.0760 C   0  0  2  0  0  3  0  0  0  0  0  0
  161.9320  204.3690  152.2320 O   0  0  0  0  0  0  0  0  0  0  0  0
  161.9720  205.3200  151.1740 C   0  0  2  0  0  3  0  0  0  0  0  0
  160.9540  211.2270  152.4470 Cl  0  0  0  0  0  0  0  0  0  0  0  0
  162.5340  207.5820  149.1420 C   0  0  0  0  0  2  0  0  0  0  0  0
  161.0000  204.8040  144.5030 C   0  0  0  0  0  2  0  0  0  0  0  0
  160.5630  206.0630  144.9400 O   0  0  0  0  0  0  0  0  0  0  0  0
  161.7030  205.5410  145.5830 C   0  0  1  0  0  3  0  0  0  0  0  0
  160.4920  206.6330  154.9780 O   0  0  0  0  0  0  0  0  0  0  0  0
  160.8650  206.2520  153.8350 C   0  0  0  0  0  3  0  0  0  0  0  0
  1 13  1  0  0  0  0
  1  5  1  0  0  0  0
  2 16  1  0  0  0  0
  3  7  1  1  0  0  0
  3 10  1  0  0  0  0
  4 12  2  0  0  0  0
  5 17  1  0  0  0  0
  7  8  2  0  0  0  0
  8 11  1  0  0  0  0
  9  4  1  0  0  0  0
  9  2  2  0  0  0  0
 11  1  2  0  0  0  0
 12 20  1  0  0  0  0
 12  6  1  0  0  0  0
 13 10  1  1  0  0  0
 13 19  1  0  0  0  0
 15  3  1  0  0  0  0
 15 21  1  0  0  0  0
 16  6  2  0  0  0  0
 16 26  1  0  0  0  0
 17 14  1  6  0  0  0
 17 18  1  0  0  0  0
 19  2  1  1  0  0  0
 19 18  1  0  0  0  0
 21  9  1  0  0  0  0
 22 23  1  0  0  0  0
 22 24  1  0  0  0  0
 23 24  1  0  0  0  0
 24  7  1  1  0  0  0
 26 25  2  0  0  0  0
M  END
>  <MODEL>
2

>  <REMARK>
 VINA RESULT:      -8.7      2.691      5.776
  Name = 
  2 active torsions:
  status: ('A' for Active; 'I' for Inactive)
    1  A    between atoms: C_9  and  C_17
    2  A    between atoms: C_19  and  C_23
                            x       y       z     vdW  Elec       q    Type
                         _______ _______ _______ _____ _____    ______ ____

>  <TORSDO>
F 2

$$$$
=
 OpenBabel11052409513D

 26 30  0  0  1  0  0  0  0  0999 V2000
  161.3130  204.7570  151.6660 C   0  0  0  0  0  0  0  0  0  0  0  0
  162.1970  208.4480  150.6970 C   0  0  0  0  0  0  0  0  0  0  0  0
  160.5340  205.6960  148.7930 C   0  0  1  0  0  3  0  0  0  0  0  0
  162.1380  209.7830  148.6340 C   0  0  0  0  0  3  0  0  0  0  0  0
  161.3260  204.9540  153.1450 C   0  0  0  0  0  2  0  0  0  0  0  0
  161.8320  210.8700  150.7540 C   0  0  0  0  0  3  0  0  0  0  0  0
  160.8100  204.2260  148.6140 C   0  0  0  0  0  0  0  0  0  0  0  0
  160.9370  203.3400  149.6370 C   0  0  0  0  0  3  0  0  0  0  0  0
  162.2820  208.5430  149.2610 C   0  0  0  0  0  0  0  0  0  0  0  0
  160.5730  206.2370  149.9560 N   0  0  0  0  0  2  0  0  0  0  0  0
  160.9800  203.5890  151.1090 C   0  0  0  0  0  3  0  0  0  0  0  0
  161.9150  210.9370  149.3700 C   0  0  0  0  0  0  0  0  0  0  0  0
  161.6890  205.8680  150.7820 C   0  0  1  0  0  3  0  0  0  0  0  0
  160.2480  207.1180  153.2430 O   0  0  0  0  0  1  0  0  0  0  0  0
  160.9450  206.8520  147.4850 S   0  0  0  0  0  0  0  0  0  0  0  0
  161.9700  209.6510  151.4300 C   0  0  0  0  0  0  0  0  0  0  0  0
  161.4510  206.4460  153.4840 C   0  0  2  0  0  3  0  0  0  0  0  0
  162.5400  207.0720  152.8200 O   0  0  0  0  0  0  0  0  0  0  0  0
  162.3640  207.0880  151.4070 C   0  0  2  0  0  3  0  0  0  0  0  0
  161.7380  212.4760  148.5560 Cl  0  0  0  0  0  0  0  0  0  0  0  0
  162.5070  207.3710  148.3310 C   0  0  0  0  0  2  0  0  0  0  0  0
  162.2940  203.6160  146.7360 C   0  0  0  0  0  2  0  0  0  0  0  0
  161.6380  202.4770  147.2270 O   0  0  0  0  0  0  0  0  0  0  0  0
  160.8920  203.6720  147.2190 C   0  0  1  0  0  3  0  0  0  0  0  0
  161.5850  210.7360  153.5230 O   0  0  0  0  0  0  0  0  0  0  0  0
  161.8750  209.6800  152.8970 C   0  0  0  0  0  3  0  0  0  0  0  0
  1  5  1  0  0  0  0
  2 16  1  0  0  0  0
  3 15  1  6  0  0  0
  3 10  1  0  0  0  0
  4  9  1  0  0  0  0
  4 12  2  0  0  0  0
  5 17  1  0  0  0  0
  6 16  2  0  0  0  0
  7  3  1  0  0  0  0
  7  8  2  0  0  0  0
  8 11  1  0  0  0  0
  9  2  2  0  0  0  0
 11  1  2  0  0  0  0
 12  6  1  0  0  0  0
 13 10  1  1  0  0  0
 13 19  1  0  0  0  0
 13  1  1  0  0  0  0
 15 21  1  0  0  0  0
 16 26  1  0  0  0  0
 17 14  1  6  0  0  0
 18 17  1  0  0  0  0
 19  2  1  1  0  0  0
 19 18  1  0  0  0  0
 20 12  1  0  0  0  0
 21  9  1  0  0  0  0
 22 24  1  0  0  0  0
 22 23  1  0  0  0  0
 24 23  1  0  0  0  0
 24  7  1  1  0  0  0
 26 25  2  0  0  0  0
M  END
>  <MODEL>
3

>  <REMARK>
 VINA RESULT:      -7.8      2.384      5.843
  Name = 
  2 active torsions:
  status: ('A' for Active; 'I' for Inactive)
    1  A    between atoms: C_9  and  C_17
    2  A    between atoms: C_19  and  C_23
                            x       y       z     vdW  Elec       q    Type
                         _______ _______ _______ _____ _____    ______ ____

>  <TORSDO>
F 2

$$$$
=
 OpenBabel11052409513D

 26 30  0  0  1  0  0  0  0  0999 V2000
  161.3350  203.6270  150.4850 C   0  0  0  0  0  0  0  0  0  0  0  0
  162.1310  207.4630  150.5000 C   0  0  0  0  0  0  0  0  0  0  0  0
  160.8440  205.1880  147.8270 C   0  0  1  0  0  3  0  0  0  0  0  0
  162.2400  209.2380  148.8030 C   0  0  0  0  0  3  0  0  0  0  0  0
  161.1680  203.4760  151.9600 C   0  0  0  0  0  2  0  0  0  0  0  0
  161.6350  209.7960  151.0600 C   0  0  0  0  0  3  0  0  0  0  0  0
  161.2140  203.8070  147.3550 C   0  0  0  0  0  0  0  0  0  0  0  0
  161.2700  202.7110  148.1570 C   0  0  0  0  0  3  0  0  0  0  0  0
  162.3750  207.8910  149.1440 C   0  0  0  0  0  0  0  0  0  0  0  0
  160.7200  205.4450  149.0790 N   0  0  0  0  0  2  0  0  0  0  0  0
  161.1300  202.6130  149.6410 C   0  0  0  0  0  3  0  0  0  0  0  0
  161.8730  210.1840  149.7490 C   0  0  0  0  0  0  0  0  0  0  0  0
  161.7520  204.9220  149.9310 C   0  0  1  0  0  3  0  0  0  0  0  0
  159.9740  205.5310  152.4140 O   0  0  0  0  0  1  0  0  0  0  0  0
  161.3410  206.6260  146.8780 S   0  0  0  0  0  0  0  0  0  0  0  0
  161.7580  208.4570  151.4530 C   0  0  0  0  0  0  0  0  0  0  0  0
  161.1760  204.8500  152.6430 C   0  0  2  0  0  3  0  0  0  0  0  0
  162.2990  205.6390  152.2790 O   0  0  0  0  0  0  0  0  0  0  0  0
  162.2860  205.9800  150.8960 C   0  0  2  0  0  3  0  0  0  0  0  0
  161.7110  211.8650  149.2910 Cl  0  0  0  0  0  0  0  0  0  0  0  0
  162.7660  206.9720  148.0070 C   0  0  0  0  0  2  0  0  0  0  0  0
  160.6590  202.4930  145.3370 C   0  0  0  0  0  2  0  0  0  0  0  0
  160.3110  203.8400  145.1510 O   0  0  0  0  0  0  0  0  0  0  0  0
  161.4850  203.5950  145.8910 C   0  0  1  0  0  3  0  0  0  0  0  0
  160.6470  208.7860  153.5420 O   0  0  0  0  0  0  0  0  0  0  0  0
  161.4940  208.1420  152.8650 C   0  0  0  0  0  3  0  0  0  0  0  0
  1  5  1  0  0  0  0
  2 16  1  0  0  0  0
  3 15  1  1  0  0  0
  3 10  1  0  0  0  0
  4  9  1  0  0  0  0
  4 12  2  0  0  0  0
  5 17  1  0  0  0  0
  6 16  2  0  0  0  0
  7  3  1  0  0  0  0
  7  8  2  0  0  0  0
  8 11  1  0  0  0  0
  9  2  2  0  0  0  0
 11  1  2  0  0  0  0
 12  6  1  0  0  0  0
 13 10  1  1  0  0  0
 13  1  1  0  0  0  0
 13 19  1  0  0  0  0
 15 21  1  0  0  0  0
 16 26  1  0  0  0  0
 17 14  1  6  0  0  0
 18 17  1  0  0  0  0
 19  2  1  1  0  0  0
 19 18  1  0  0  0  0
 20 12  1  0  0  0  0
 21  9  1  0  0  0  0
 22 24  1  0  0  0  0
 23 22  1  0  0  0  0
 23 24  1  0  0  0  0
 24  7  1  1  0  0  0
 26 25  2  0  0  0  0
M  END
>  <MODEL>
4

>  <REMARK>
 VINA RESULT:      -7.3      2.413      5.820
  Name = 
  2 active torsions:
  status: ('A' for Active; 'I' for Inactive)
    1  A    between atoms: C_9  and  C_17
    2  A    between atoms: C_19  and  C_23
                            x       y       z     vdW  Elec       q    Type
                         _______ _______ _______ _____ _____    ______ ____

>  <TORSDO>
F 2

$$$$
=
 OpenBabel11052409513D

 26 30  0  0  1  0  0  0  0  0999 V2000
  161.5470  208.2020  152.2470 C   0  0  0  0  0  0  0  0  0  0  0  0
  160.8090  205.0180  150.0870 C   0  0  0  0  0  0  0  0  0  0  0  0
  162.4050  208.2920  149.2470 C   0  0  1  0  0  3  0  0  0  0  0  0
  160.9490  204.4460  147.7000 C   0  0  0  0  0  3  0  0  0  0  0  0
  161.5160  207.5250  153.5760 C   0  0  0  0  0  2  0  0  0  0  0  0
  161.2590  202.7260  149.3480 C   0  0  0  0  0  3  0  0  0  0  0  0
  162.0810  209.7290  149.5580 C   0  0  0  0  0  0  0  0  0  0  0  0
  161.9050  210.2220  150.8120 C   0  0  0  0  0  3  0  0  0  0  0  0
  160.7520  205.4020  148.6980 C   0  0  0  0  0  0  0  0  0  0  0  0
  162.3670  207.3940  150.1640 N   0  0  0  0  0  2  0  0  0  0  0  0
  161.8470  209.4970  152.1170 C   0  0  0  0  0  3  0  0  0  0  0  0
  161.2010  203.1190  148.0180 C   0  0  0  0  0  0  0  0  0  0  0  0
  161.2250  207.4370  151.0350 C   0  0  1  0  0  3  0  0  0  0  0  0
  162.6680  205.4820  152.9810 O   0  0  0  0  0  1  0  0  0  0  0  0
  162.0580  207.6240  147.6190 S   0  0  0  0  0  0  0  0  0  0  0  0
  161.0670  203.6470  150.3860 C   0  0  0  0  0  0  0  0  0  0  0  0
  161.4380  206.0020  153.3990 C   0  0  2  0  0  3  0  0  0  0  0  0
  160.3830  205.6020  152.5350 O   0  0  0  0  0  0  0  0  0  0  0  0
  160.5830  206.0600  151.2020 C   0  0  2  0  0  3  0  0  0  0  0  0
  161.4460  201.9440  146.7450 Cl  0  0  0  0  0  0  0  0  0  0  0  0
  160.5010  206.8110  148.2040 C   0  0  0  0  0  2  0  0  0  0  0  0
  161.6220  212.0660  148.8980 C   0  0  0  0  0  2  0  0  0  0  0  0
  162.9550  211.7330  148.6130 O   0  0  0  0  0  0  0  0  0  0  0  0
  162.0020  210.7120  148.4230 C   0  0  1  0  0  3  0  0  0  0  0  0
  161.8930  202.1740  152.0760 O   0  0  0  0  0  0  0  0  0  0  0  0
  161.1390  203.1350  151.7630 C   0  0  0  0  0  3  0  0  0  0  0  0
  1  5  1  0  0  0  0
  2 16  1  0  0  0  0
  3 15  1  6  0  0  0
  3  7  1  0  0  0  0
  3 10  1  0  0  0  0
  4 12  2  0  0  0  0
  4  9  1  0  0  0  0
  6 16  2  0  0  0  0
  7  8  2  0  0  0  0
  8 11  1  0  0  0  0
  9  2  2  0  0  0  0
 11  1  2  0  0  0  0
 12  6  1  0  0  0  0
 13 10  1  1  0  0  0
 13 19  1  0  0  0  0
 13  1  1  0  0  0  0
 15 21  1  0  0  0  0
 16 26  1  0  0  0  0
 17 14  1  6  0  0  0
 17  5  1  0  0  0  0
 18 17  1  0  0  0  0
 19  2  1  6  0  0  0
 19 18  1  0  0  0  0
 20 12  1  0  0  0  0
 21  9  1  0  0  0  0
 23 22  1  0  0  0  0
 24 23  1  0  0  0  0
 24 22  1  0  0  0  0
 24  7  1  1  0  0  0
 26 25  2  0  0  0  0
M  END
>  <MODEL>
5

>  <REMARK>
 VINA RESULT:      -7.0      2.028      2.882
  Name = 
  2 active torsions:
  status: ('A' for Active; 'I' for Inactive)
    1  A    between atoms: C_9  and  C_17
    2  A    between atoms: C_19  and  C_23
                            x       y       z     vdW  Elec       q    Type
                         _______ _______ _______ _____ _____    ______ ____

>  <TORSDO>
F 2

$$$$
=
 OpenBabel11052409513D

 26 30  0  0  1  0  0  0  0  0999 V2000
  162.1220  209.4090  150.5780 C   0  0  0  0  0  0  0  0  0  0  0  0
  161.9220  205.5240  150.1170 C   0  0  0  0  0  0  0  0  0  0  0  0
  160.7120  207.7820  152.8380 C   0  0  1  0  0  3  0  0  0  0  0  0
  161.2270  203.6250  151.5150 C   0  0  0  0  0  3  0  0  0  0  0  0
  162.3100  209.7480  149.1370 C   0  0  0  0  0  2  0  0  0  0  0  0
  160.9900  203.4850  149.1280 C   0  0  0  0  0  3  0  0  0  0  0  0
  161.3070  208.9530  153.5740 C   0  0  0  0  0  0  0  0  0  0  0  0
  161.8010  210.0670  152.9710 C   0  0  0  0  0  3  0  0  0  0  0  0
  161.7620  204.9110  151.4120 C   0  0  0  0  0  0  0  0  0  0  0  0
  160.7930  207.6970  151.5590 N   0  0  0  0  0  2  0  0  0  0  0  0
  162.0040  210.3500  151.5180 C   0  0  0  0  0  3  0  0  0  0  0  0
  160.8430  202.9160  150.3850 C   0  0  0  0  0  0  0  0  0  0  0  0
  162.0770  208.0000  150.9920 C   0  0  1  0  0  3  0  0  0  0  0  0
  160.7650  208.1560  148.1720 O   0  0  0  0  0  1  0  0  0  0  0  0
  160.6240  206.1750  153.6280 S   0  0  0  0  0  0  0  0  0  0  0  0
  161.5220  204.7720  148.9720 C   0  0  0  0  0  0  0  0  0  0  0  0
  162.1180  208.5010  148.2640 C   0  0  2  0  0  3  0  0  0  0  0  0
  162.9080  207.4010  148.6950 O   0  0  0  0  0  0  0  0  0  0  0  0
  162.5210  206.9400  149.9850 C   0  0  2  0  0  3  0  0  0  0  0  0
  160.1750  201.3060  150.5460 Cl  0  0  0  0  0  0  0  0  0  0  0  0
  162.1230  205.5670  152.7270 C   0  0  0  0  0  2  0  0  0  0  0  0
  160.6230  210.1250  155.6390 C   0  0  0  0  0  2  0  0  0  0  0  0
  159.9840  208.8790  155.5530 O   0  0  0  0  0  0  0  0  0  0  0  0
  161.3100  208.9350  155.0770 C   0  0  1  0  0  3  0  0  0  0  0  0
  162.3940  204.7360  146.7490 O   0  0  0  0  0  0  0  0  0  0  0  0
  161.6460  205.2880  147.6010 C   0  0  0  0  0  3  0  0  0  0  0  0
  1 11  2  0  0  0  0
  2  9  1  0  0  0  0
  3 10  1  6  0  0  0
  3  7  1  0  0  0  0
  3 15  1  0  0  0  0
  5  1  1  0  0  0  0
  6 12  2  0  0  0  0
  8  7  2  0  0  0  0
  9  4  2  0  0  0  0
  9 21  1  0  0  0  0
 11  8  1  0  0  0  0
 12 20  1  0  0  0  0
 12  4  1  0  0  0  0
 13  1  1  6  0  0  0
 13 10  1  0  0  0  0
 16  6  1  0  0  0  0
 16  2  2  0  0  0  0
 17 14  1  1  0  0  0
 17 18  1  0  0  0  0
 17  5  1  0  0  0  0
 19 18  1  6  0  0  0
 19  2  1  0  0  0  0
 19 13  1  0  0  0  0
 21 15  1  0  0  0  0
 23 22  1  0  0  0  0
 24  7  1  6  0  0  0
 24 23  1  0  0  0  0
 24 22  1  0  0  0  0
 25 26  2  0  0  0  0
 26 16  1  0  0  0  0
M  END
>  <MODEL>
6

>  <REMARK>
 VINA RESULT:      -6.9      2.860      4.251
  Name = 
  2 active torsions:
  status: ('A' for Active; 'I' for Inactive)
    1  A    between atoms: C_9  and  C_17
    2  A    between atoms: C_19  and  C_23
                            x       y       z     vdW  Elec       q    Type
                         _______ _______ _______ _____ _____    ______ ____

>  <TORSDO>
F 2

$$$$
=
 OpenBabel11052409513D

 26 30  0  0  1  0  0  0  0  0999 V2000
  161.5440  205.3960  147.7590 C   0  0  0  0  0  0  0  0  0  0  0  0
  161.0310  207.1590  151.2200 C   0  0  0  0  0  0  0  0  0  0  0  0
  161.7560  203.6070  150.3080 C   0  0  1  0  0  3  0  0  0  0  0  0
  160.8040  206.4130  153.5520 C   0  0  0  0  0  3  0  0  0  0  0  0
  161.9120  206.6210  146.9900 C   0  0  0  0  0  2  0  0  0  0  0  0
  161.7650  208.5650  153.0870 C   0  0  0  0  0  3  0  0  0  0  0  0
  161.2250  202.6610  149.2640 C   0  0  0  0  0  0  0  0  0  0  0  0
  161.2080  202.9220  147.9300 C   0  0  0  0  0  3  0  0  0  0  0  0
  160.6250  206.1700  152.1880 C   0  0  0  0  0  0  0  0  0  0  0  0
  162.0770  204.8120  150.0040 N   0  0  0  0  0  2  0  0  0  0  0  0
  161.5540  204.1810  147.2050 C   0  0  0  0  0  3  0  0  0  0  0  0
  161.3690  207.5980  154.0000 C   0  0  0  0  0  0  0  0  0  0  0  0
  161.1440  205.5170  149.1670 C   0  0  1  0  0  3  0  0  0  0  0  0
  163.3000  207.7030  148.6500 O   0  0  0  0  0  1  0  0  0  0  0  0
  161.2300  203.4480  152.0150 S   0  0  0  0  0  0  0  0  0  0  0  0
  161.6070  208.3690  151.7090 C   0  0  0  0  0  0  0  0  0  0  0  0
  162.0990  207.8130  147.9390 C   0  0  2  0  0  3  0  0  0  0  0  0
  160.9940  208.0020  148.8110 O   0  0  0  0  0  0  0  0  0  0  0  0
  160.8310  206.9100  149.7100 C   0  0  2  0  0  3  0  0  0  0  0  0
  161.5810  207.8740  155.7150 Cl  0  0  0  0  0  0  0  0  0  0  0  0
  160.0100  204.8300  151.8460 C   0  0  0  0  0  2  0  0  0  0  0  0
  159.2920  201.1270  149.3860 C   0  0  0  0  0  2  0  0  0  0  0  0
  160.2980  200.5780  148.5750 O   0  0  0  0  0  0  0  0  0  0  0  0
  160.7310  201.3090  149.6990 C   0  0  1  0  0  3  0  0  0  0  0  0
  161.5930  210.6240  150.9210 O   0  0  0  0  0  0  0  0  0  0  0  0
  162.0490  209.4530  150.8190 C   0  0  0  0  0  3  0  0  0  0  0  0
  2 16  2  0  0  0  0
  2  9  1  0  0  0  0
  3  7  1  6  0  0  0
  3 15  1  0  0  0  0
  4 12  1  0  0  0  0
  5  1  1  0  0  0  0
  5 17  1  0  0  0  0
  6 12  2  0  0  0  0
  8  7  2  0  0  0  0
  9  4  2  0  0  0  0
 10  3  1  0  0  0  0
 11  1  2  0  0  0  0
 11  8  1  0  0  0  0
 12 20  1  0  0  0  0
 13  1  1  6  0  0  0
 13 19  1  0  0  0  0
 13 10  1  0  0  0  0
 16  6  1  0  0  0  0
 17 14  1  1  0  0  0
 17 18  1  0  0  0  0
 19 18  1  6  0  0  0
 19  2  1  0  0  0  0
 21 15  1  0  0  0  0
 21  9  1  0  0  0  0
 22 24  1  0  0  0  0
 23 22  1  0  0  0  0
 23 24  1  0  0  0  0
 24  7  1  6  0  0  0
 26 25  2  0  0  0  0
 26 16  1  0  0  0  0
M  END
>  <MODEL>
7

>  <REMARK>
 VINA RESULT:      -6.0      3.157      6.826
  Name = 
  2 active torsions:
  status: ('A' for Active; 'I' for Inactive)
    1  A    between atoms: C_9  and  C_17
    2  A    between atoms: C_19  and  C_23
                            x       y       z     vdW  Elec       q    Type
                         _______ _______ _______ _____ _____    ______ ____

>  <TORSDO>
F 2

$$$$
=
 OpenBabel11052409513D

 26 30  0  0  1  0  0  0  0  0999 V2000
  161.9970  208.5490  149.8990 C   0  0  0  0  0  0  0  0  0  0  0  0
  161.7310  204.6560  149.5430 C   0  0  0  0  0  0  0  0  0  0  0  0
  160.7890  206.9820  152.3140 C   0  0  1  0  0  3  0  0  0  0  0  0
  161.1550  202.7930  151.0400 C   0  0  0  0  0  3  0  0  0  0  0  0
  162.0550  208.8550  148.4400 C   0  0  0  0  0  2  0  0  0  0  0  0
  160.7000  202.6050  148.6890 C   0  0  0  0  0  3  0  0  0  0  0  0
  161.4570  208.1640  152.9660 C   0  0  0  0  0  0  0  0  0  0  0  0
  161.9010  209.2600  152.2970 C   0  0  0  0  0  3  0  0  0  0  0  0
  161.6870  204.0720  150.8610 C   0  0  0  0  0  0  0  0  0  0  0  0
  160.7530  206.8690  151.0350 N   0  0  0  0  0  2  0  0  0  0  0  0
  161.9720  209.5100  150.8250 C   0  0  0  0  0  3  0  0  0  0  0  0
  160.6650  202.0640  149.9670 C   0  0  0  0  0  0  0  0  0  0  0  0
  161.9820  207.1500  150.3460 C   0  0  1  0  0  3  0  0  0  0  0  0
  160.4180  207.2560  147.6550 O   0  0  0  0  0  1  0  0  0  0  0  0
  160.7650  205.3920  153.1440 S   0  0  0  0  0  0  0  0  0  0  0  0
  161.2230  203.8830  148.4570 C   0  0  0  0  0  0  0  0  0  0  0  0
  161.7770  207.5910  147.6160 C   0  0  2  0  0  3  0  0  0  0  0  0
  162.5950  206.4940  147.9960 O   0  0  0  0  0  0  0  0  0  0  0  0
  162.3250  206.0640  149.3260 C   0  0  2  0  0  3  0  0  0  0  0  0
  160.0040  200.4640  150.2230 Cl  0  0  0  0  0  0  0  0  0  0  0  0
  162.1700  204.7540  152.1230 C   0  0  0  0  0  2  0  0  0  0  0  0
  160.9880  209.3930  155.0580 C   0  0  0  0  0  2  0  0  0  0  0  0
  160.3200  208.1590  155.0590 O   0  0  0  0  0  0  0  0  0  0  0  0
  161.5970  208.1770  154.4630 C   0  0  1  0  0  3  0  0  0  0  0  0
  161.8600  203.7730  146.1570 O   0  0  0  0  0  0  0  0  0  0  0  0
  161.2250  204.3690  147.0690 C   0  0  0  0  0  3  0  0  0  0  0  0
  1 11  2  0  0  0  0
  2  9  1  0  0  0  0
  3 10  1  6  0  0  0
  3  7  1  0  0  0  0
  3 15  1  0  0  0  0
  5  1  1  0  0  0  0
  6 12  2  0  0  0  0
  8  7  2  0  0  0  0
  9  4  2  0  0  0  0
  9 21  1  0  0  0  0
 11  8  1  0  0  0  0
 12 20  1  0  0  0  0
 12  4  1  0  0  0  0
 13  1  1  6  0  0  0
 13 10  1  0  0  0  0
 16  6  1  0  0  0  0
 16  2  2  0  0  0  0
 17 14  1  1  0  0  0
 17 18  1  0  0  0  0
 17  5  1  0  0  0  0
 19 18  1  6  0  0  0
 19  2  1  0  0  0  0
 19 13  1  0  0  0  0
 21 15  1  0  0  0  0
 22 23  1  0  0  0  0
 24  7  1  6  0  0  0
 24 22  1  0  0  0  0
 24 23  1  0  0  0  0
 25 26  2  0  0  0  0
 26 16  1  0  0  0  0
M  END
>  <MODEL>
8

>  <REMARK>
 VINA RESULT:      -6.0      2.703      4.048
  Name = 
  2 active torsions:
  status: ('A' for Active; 'I' for Inactive)
    1  A    between atoms: C_9  and  C_17
    2  A    between atoms: C_19  and  C_23
                            x       y       z     vdW  Elec       q    Type
                         _______ _______ _______ _____ _____    ______ ____

>  <TORSDO>
F 2

$$$$
=
 OpenBabel11052409513D

 26 30  0  0  1  0  0  0  0  0999 V2000
  161.4380  205.2900  146.9950 C   0  0  0  0  0  0  0  0  0  0  0  0
  160.9000  206.5120  150.6780 C   0  0  0  0  0  0  0  0  0  0  0  0
  161.6880  203.1480  149.2520 C   0  0  1  0  0  3  0  0  0  0  0  0
  160.6920  205.4260  152.8740 C   0  0  0  0  0  3  0  0  0  0  0  0
  161.7810  206.6220  146.4160 C   0  0  0  0  0  2  0  0  0  0  0  0
  161.6120  207.6400  152.7330 C   0  0  0  0  0  3  0  0  0  0  0  0
  161.1720  202.3570  148.0790 C   0  0  0  0  0  0  0  0  0  0  0  0
  161.1480  202.8120  146.7980 C   0  0  0  0  0  3  0  0  0  0  0  0
  160.5140  205.3830  151.4890 C   0  0  0  0  0  0  0  0  0  0  0  0
  161.9860  204.3910  149.1290 N   0  0  0  0  0  2  0  0  0  0  0  0
  161.4680  204.1710  146.2670 C   0  0  0  0  0  3  0  0  0  0  0  0
  161.2350  206.5420  153.4930 C   0  0  0  0  0  0  0  0  0  0  0  0
  161.0390  205.1930  148.4050 C   0  0  1  0  0  3  0  0  0  0  0  0
  163.1520  207.4720  148.2180 O   0  0  0  0  0  1  0  0  0  0  0  0
  161.1690  202.7290  150.9160 S   0  0  0  0  0  0  0  0  0  0  0  0
  161.4540  207.6470  151.3410 C   0  0  0  0  0  0  0  0  0  0  0  0
  161.9480  207.6630  147.5310 C   0  0  2  0  0  3  0  0  0  0  0  0
  160.8410  207.7010  148.4200 O   0  0  0  0  0  0  0  0  0  0  0  0
  160.7010  206.4850  149.1480 C   0  0  2  0  0  3  0  0  0  0  0  0
  161.4470  206.5650  155.2300 Cl  0  0  0  0  0  0  0  0  0  0  0  0
  159.9230  204.0980  150.9530 C   0  0  0  0  0  2  0  0  0  0  0  0
  161.3470  199.9970  147.3660 C   0  0  0  0  0  2  0  0  0  0  0  0
  161.7980  200.1410  148.6870 O   0  0  0  0  0  0  0  0  0  0  0  0
  160.7050  200.9470  148.3100 C   0  0  1  0  0  3  0  0  0  0  0  0
  162.3770  209.8470  151.2210 O   0  0  0  0  0  0  0  0  0  0  0  0
  161.8740  208.8590  150.6210 C   0  0  0  0  0  3  0  0  0  0  0  0
  2 16  2  0  0  0  0
  2  9  1  0  0  0  0
  3  7  1  6  0  0  0
  3 15  1  0  0  0  0
  4 12  1  0  0  0  0
  5  1  1  0  0  0  0
  5 17  1  0  0  0  0
  6 12  2  0  0  0  0
  8  7  2  0  0  0  0
  9  4  2  0  0  0  0
 10  3  1  0  0  0  0
 11  8  1  0  0  0  0
 11  1  2  0  0  0  0
 12 20  1  0  0  0  0
 13  1  1  6  0  0  0
 13 10  1  0  0  0  0
 13 19  1  0  0  0  0
 15 21  1  0  0  0  0
 16  6  1  0  0  0  0
 17 14  1  1  0  0  0
 17 18  1  0  0  0  0
 19 18  1  6  0  0  0
 19  2  1  0  0  0  0
 21  9  1  0  0  0  0
 22 24  1  0  0  0  0
 22 23  1  0  0  0  0
 24  7  1  6  0  0  0
 24 23  1  0  0  0  0
 26 25  2  0  0  0  0
 26 16  1  0  0  0  0
M  END
>  <MODEL>
9

>  <REMARK>
 VINA RESULT:      -6.0      3.093      6.955
  Name = 
  2 active torsions:
  status: ('A' for Active; 'I' for Inactive)
    1  A    between atoms: C_9  and  C_17
    2  A    between atoms: C_19  and  C_23
                            x       y       z     vdW  Elec       q    Type
                         _______ _______ _______ _____ _____    ______ ____

>  <TORSDO>
F 2

$$$$
