=
 OpenBabel11042421103D

 28 31  0  0  1  0  0  0  0  0999 V2000
  160.4170  207.8940  153.7030 C   0  0  0  0  0  3  0  0  0  0  0  0
  161.5750  208.5420  149.6670 O   0  0  0  0  0  0  0  0  0  0  0  0
  161.9310  210.7900  150.5080 C   0  0  0  0  0  2  0  0  0  0  0  0
  160.8820  208.9750  153.0740 C   0  0  0  0  0  0  0  0  0  0  0  0
  161.3830  205.9910  152.3430 C   0  0  0  0  0  0  0  0  0  0  0  0
  162.6600  210.1990  151.7060 C   0  0  0  0  0  2  0  0  0  0  0  0
  160.8820  206.5120  153.4790 C   0  0  0  0  0  3  0  0  0  0  0  0
  162.0880  209.8330  149.3380 C   0  0  0  0  0  2  0  0  0  0  0  0
  161.4200  206.7250  151.1060 N   0  0  0  0  0  0  0  0  0  0  0  0
  161.6800  207.9890  150.9490 C   0  0  0  0  0  0  0  0  0  0  0  0
  162.0470  208.8550  152.1260 C   0  0  2  0  0  3  0  0  0  0  0  0
  159.3460  210.8540  152.4740 C   0  0  0  0  0  3  0  0  0  0  0  0
  161.3310  210.7240  155.6490 C   0  0  0  0  0  0  0  0  0  0  0  0
  159.9350  212.1700  154.8450 C   0  0  0  0  0  0  0  0  0  0  0  0
  161.2060  211.7410  156.5330 N   0  0  0  0  0  0  0  0  0  0  0  0
  159.0280  212.7650  153.9700 C   0  0  0  0  0  0  0  0  0  0  0  0
  158.7340  212.0930  152.7690 C   0  0  0  0  0  3  0  0  0  0  0  0
  160.3480  212.6300  156.0400 N   0  0  0  0  0  2  0  0  0  0  0  0
  158.4290  213.9810  154.2680 O   0  0  0  0  0  1  0  0  0  0  0  0
  160.2600  210.2740  153.3760 C   0  0  0  0  0  0  0  0  0  0  0  0
  160.5290  210.9720  154.5580 C   0  0  0  0  0  0  0  0  0  0  0  0
  162.1680  209.5750  155.8270 N   0  0  0  0  0  2  0  0  0  0  0  0
  160.8890  208.0960  157.2590 C   0  0  0  0  0  2  0  0  0  0  0  0
  162.0540  208.5880  156.8600 C   0  0  0  0  0  3  0  0  0  0  0  0
  161.7400  204.6010  152.2900 N   0  0  0  0  0  2  0  0  0  0  0  0
  161.7060  202.2040  151.5150 C   0  0  0  0  0  1  0  0  0  0  0  0
  161.1540  203.5830  151.4680 C   0  0  0  0  0  0  0  0  0  0  0  0
  160.1730  203.8300  150.7180 O   0  0  0  0  0  0  0  0  0  0  0  0
  2 10  1  0  0  0  0
  3  6  1  0  0  0  0
  4 20  1  0  0  0  0
  4  1  2  0  0  0  0
  5  7  2  0  0  0  0
  7  1  1  0  0  0  0
  8  2  1  0  0  0  0
  8  3  1  0  0  0  0
  9  5  1  0  0  0  0
 10  9  2  0  0  0  0
 10 11  1  0  0  0  0
 11  6  1  6  0  0  0
 11  4  1  0  0  0  0
 12 17  2  0  0  0  0
 12 20  1  0  0  0  0
 13 22  1  0  0  0  0
 13 15  2  0  0  0  0
 14 18  1  0  0  0  0
 16 19  1  0  0  0  0
 16 14  2  0  0  0  0
 17 16  1  0  0  0  0
 18 15  1  0  0  0  0
 20 21  2  0  0  0  0
 21 14  1  0  0  0  0
 21 13  1  0  0  0  0
 22 24  1  0  0  0  0
 24 23  2  0  0  0  0
 25  5  1  0  0  0  0
 27 26  1  0  0  0  0
 27 25  1  0  0  0  0
 28 27  2  0  0  0  0
M  END
>  <MODEL>
1

>  <REMARK>
 VINA RESULT:      -6.5      0.000      0.000
  Name = 
  4 active torsions:
  status: ('A' for Active; 'I' for Inactive)
    1  A    between atoms: N_3  and  C_15
    2  A    between atoms: C_5  and  N_19
    3  A    between atoms: C_9  and  C_22
    4  A    between atoms: C_14  and  N_19
                            x       y       z     vdW  Elec       q    Type
                         _______ _______ _______ _____ _____    ______ ____

>  <TORSDO>
F 4

$$$$
=
 OpenBabel11042421103D

 28 31  0  0  1  0  0  0  0  0999 V2000
  161.5770  207.0740  148.5030 C   0  0  0  0  0  3  0  0  0  0  0  0
  161.0630  208.2300  152.5590 O   0  0  0  0  0  0  0  0  0  0  0  0
  161.6300  205.8990  152.9200 C   0  0  0  0  0  2  0  0  0  0  0  0
  161.7220  206.4000  149.6460 C   0  0  0  0  0  0  0  0  0  0  0  0
  162.0150  209.4670  149.2020 C   0  0  0  0  0  0  0  0  0  0  0  0
  162.7870  206.0560  151.9430 C   0  0  0  0  0  2  0  0  0  0  0  0
  161.9720  208.4800  148.2880 C   0  0  0  0  0  3  0  0  0  0  0  0
  161.3590  207.2530  153.5550 C   0  0  0  0  0  2  0  0  0  0  0  0
  161.5440  209.2940  150.5510 N   0  0  0  0  0  0  0  0  0  0  0  0
  161.6750  208.2390  151.3000 C   0  0  0  0  0  0  0  0  0  0  0  0
  162.4350  207.0330  150.8130 C   0  0  2  0  0  3  0  0  0  0  0  0
  160.5800  204.5410  150.8670 C   0  0  0  0  0  3  0  0  0  0  0  0
  161.8540  204.2470  147.3570 C   0  0  0  0  0  0  0  0  0  0  0  0
  160.8360  202.8630  148.6730 C   0  0  0  0  0  0  0  0  0  0  0  0
  161.6790  203.0780  146.7000 N   0  0  0  0  0  0  0  0  0  0  0  0
  160.2040  202.3660  149.8110 C   0  0  0  0  0  0  0  0  0  0  0  0
  160.0780  203.2220  150.9200 C   0  0  0  0  0  3  0  0  0  0  0  0
  161.0540  202.2260  147.5080 N   0  0  0  0  0  2  0  0  0  0  0  0
  159.7120  201.0690  149.8550 O   0  0  0  0  0  1  0  0  0  0  0  0
  161.2160  205.0200  149.7040 C   0  0  0  0  0  0  0  0  0  0  0  0
  161.3240  204.1390  148.6220 C   0  0  0  0  0  0  0  0  0  0  0  0
  162.4910  205.4110  146.8130 N   0  0  0  0  0  2  0  0  0  0  0  0
  161.3960  205.7860  144.6840 C   0  0  0  0  0  2  0  0  0  0  0  0
  162.4840  205.8250  145.4410 C   0  0  0  0  0  3  0  0  0  0  0  0
  162.3760  210.7970  148.8010 N   0  0  0  0  0  2  0  0  0  0  0  0
  162.1370  213.0650  147.7290 C   0  0  0  0  0  1  0  0  0  0  0  0
  161.6140  211.6980  147.9860 C   0  0  0  0  0  0  0  0  0  0  0  0
  160.5190  211.3500  147.4720 O   0  0  0  0  0  0  0  0  0  0  0  0
  1  4  2  0  0  0  0
  2  8  1  0  0  0  0
  3  8  1  0  0  0  0
  4 20  1  0  0  0  0
  4 11  1  0  0  0  0
  5  9  1  0  0  0  0
  6  3  1  0  0  0  0
  7  1  1  0  0  0  0
  7  5  2  0  0  0  0
  9 10  2  0  0  0  0
 10  2  1  0  0  0  0
 11 10  1  0  0  0  0
 11  6  1  1  0  0  0
 12 17  1  0  0  0  0
 13 21  1  0  0  0  0
 14 16  1  0  0  0  0
 15 13  2  0  0  0  0
 15 18  1  0  0  0  0
 16 19  1  0  0  0  0
 16 17  2  0  0  0  0
 18 14  1  0  0  0  0
 20 12  2  0  0  0  0
 21 14  2  0  0  0  0
 21 20  1  0  0  0  0
 22 13  1  0  0  0  0
 23 24  2  0  0  0  0
 24 22  1  0  0  0  0
 25  5  1  0  0  0  0
 26 27  1  0  0  0  0
 27 25  1  0  0  0  0
 28 27  2  0  0  0  0
M  END
>  <MODEL>
2

>  <REMARK>
 VINA RESULT:      -6.5      3.773      8.623
  Name = 
  4 active torsions:
  status: ('A' for Active; 'I' for Inactive)
    1  A    between atoms: N_3  and  C_15
    2  A    between atoms: C_5  and  N_19
    3  A    between atoms: C_9  and  C_22
    4  A    between atoms: C_14  and  N_19
                            x       y       z     vdW  Elec       q    Type
                         _______ _______ _______ _____ _____    ______ ____

>  <TORSDO>
F 4

$$$$
=
 OpenBabel11042421103D

 28 31  0  0  1  0  0  0  0  0999 V2000
  161.1560  213.1570  138.1040 C   0  0  0  0  0  3  0  0  0  0  0  0
  162.1060  213.3710  142.2390 O   0  0  0  0  0  0  0  0  0  0  0  0
  160.4760  211.5780  142.3380 C   0  0  0  0  0  2  0  0  0  0  0  0
  160.7400  212.4420  139.1510 C   0  0  0  0  0  0  0  0  0  0  0  0
  163.4460  213.9470  138.8370 C   0  0  0  0  0  0  0  0  0  0  0  0
  161.1700  210.9170  141.1560 C   0  0  0  0  0  2  0  0  0  0  0  0
  162.5360  213.6370  137.8950 C   0  0  0  0  0  3  0  0  0  0  0  0
  161.5070  212.3990  143.0940 C   0  0  0  0  0  2  0  0  0  0  0  0
  163.1320  213.9630  140.2410 N   0  0  0  0  0  0  0  0  0  0  0  0
  162.3640  213.1340  140.8840 C   0  0  0  0  0  0  0  0  0  0  0  0
  161.7290  211.9620  140.1810 C   0  0  2  0  0  3  0  0  0  0  0  0
  158.4030  212.9700  139.8660 C   0  0  0  0  0  3  0  0  0  0  0  0
  159.3520  209.8690  137.9910 C   0  0  0  0  0  0  0  0  0  0  0  0
  157.4630  210.6160  138.7370 C   0  0  0  0  0  0  0  0  0  0  0  0
  158.3810  208.9850  137.6660 N   0  0  0  0  0  0  0  0  0  0  0  0
  156.5450  211.4600  139.3590 C   0  0  0  0  0  0  0  0  0  0  0  0
  157.0280  212.6510  139.9300 C   0  0  0  0  0  3  0  0  0  0  0  0
  157.2190  209.4430  138.1240 N   0  0  0  0  0  2  0  0  0  0  0  0
  155.1950  211.1410  139.4160 O   0  0  0  0  0  1  0  0  0  0  0  0
  159.3110  212.0990  139.2310 C   0  0  0  0  0  0  0  0  0  0  0  0
  158.7940  210.9230  138.6770 C   0  0  0  0  0  0  0  0  0  0  0  0
  160.7410  209.7230  137.6670 N   0  0  0  0  0  2  0  0  0  0  0  0
  161.5250  207.9870  139.1670 C   0  0  0  0  0  2  0  0  0  0  0  0
  161.5810  208.6100  137.9970 C   0  0  0  0  0  3  0  0  0  0  0  0
  164.7330  214.4510  138.4490 N   0  0  0  0  0  2  0  0  0  0  0  0
  167.1950  214.4190  137.9160 C   0  0  0  0  0  1  0  0  0  0  0  0
  165.9720  213.7310  138.4040 C   0  0  0  0  0  0  0  0  0  0  0  0
  166.0490  212.5330  138.7840 O   0  0  0  0  0  0  0  0  0  0  0  0
  1  4  2  0  0  0  0
  2  8  1  0  0  0  0
  3  8  1  0  0  0  0
  4 20  1  0  0  0  0
  4 11  1  0  0  0  0
  5  9  1  0  0  0  0
  6  3  1  0  0  0  0
  7  1  1  0  0  0  0
  7  5  2  0  0  0  0
  9 10  2  0  0  0  0
 10  2  1  0  0  0  0
 11 10  1  0  0  0  0
 11  6  1  1  0  0  0
 12 17  1  0  0  0  0
 13 21  1  0  0  0  0
 14 16  1  0  0  0  0
 15 13  2  0  0  0  0
 15 18  1  0  0  0  0
 16 19  1  0  0  0  0
 16 17  2  0  0  0  0
 18 14  1  0  0  0  0
 20 12  2  0  0  0  0
 21 14  2  0  0  0  0
 21 20  1  0  0  0  0
 22 13  1  0  0  0  0
 22 24  1  0  0  0  0
 24 23  2  0  0  0  0
 25  5  1  0  0  0  0
 26 27  1  0  0  0  0
 27 25  1  0  0  0  0
 27 28  2  0  0  0  0
M  END
>  <MODEL>
3

>  <REMARK>
 VINA RESULT:      -5.1     12.096     15.309
  Name = 
  4 active torsions:
  status: ('A' for Active; 'I' for Inactive)
    1  A    between atoms: N_3  and  C_15
    2  A    between atoms: C_5  and  N_19
    3  A    between atoms: C_9  and  C_22
    4  A    between atoms: C_14  and  N_19
                            x       y       z     vdW  Elec       q    Type
                         _______ _______ _______ _____ _____    ______ ____

>  <TORSDO>
F 4

$$$$
=
 OpenBabel11042421103D

 28 31  0  0  1  0  0  0  0  0999 V2000
  160.6540  206.8340  150.6770 C   0  0  0  0  0  3  0  0  0  0  0  0
  161.6970  210.1690  148.2610 O   0  0  0  0  0  0  0  0  0  0  0  0
  162.3310  211.0780  150.4180 C   0  0  0  0  0  2  0  0  0  0  0  0
  161.2060  208.0130  150.9770 C   0  0  0  0  0  0  0  0  0  0  0  0
  161.3470  206.4840  148.2690 C   0  0  0  0  0  0  0  0  0  0  0  0
  163.0440  209.7700  150.7310 C   0  0  0  0  0  2  0  0  0  0  0  0
  160.9560  206.0340  149.4750 C   0  0  0  0  0  3  0  0  0  0  0  0
  162.3310  211.2700  148.9110 C   0  0  0  0  0  2  0  0  0  0  0  0
  161.4090  207.8860  147.9490 N   0  0  0  0  0  0  0  0  0  0  0  0
  161.7970  208.8530  148.7260 C   0  0  0  0  0  0  0  0  0  0  0  0
  162.3080  208.5720  150.1150 C   0  0  2  0  0  3  0  0  0  0  0  0
  160.2230  210.0140  152.1070 C   0  0  0  0  0  3  0  0  0  0  0  0
  161.1900  206.8760  153.9090 C   0  0  0  0  0  0  0  0  0  0  0  0
  160.3280  208.7470  154.5730 C   0  0  0  0  0  0  0  0  0  0  0  0
  160.9890  206.8070  155.2450 N   0  0  0  0  0  0  0  0  0  0  0  0
  159.8110  210.0390  154.5190 C   0  0  0  0  0  0  0  0  0  0  0  0
  159.7610  210.6770  153.2660 C   0  0  0  0  0  3  0  0  0  0  0  0
  160.4590  207.9560  155.6540 N   0  0  0  0  0  2  0  0  0  0  0  0
  159.3580  210.6830  155.6630 O   0  0  0  0  0  1  0  0  0  0  0  0
  160.7420  208.7070  152.1880 C   0  0  0  0  0  0  0  0  0  0  0  0
  160.7770  208.1060  153.4510 C   0  0  0  0  0  0  0  0  0  0  0  0
  161.7470  205.8280  153.1040 N   0  0  0  0  0  2  0  0  0  0  0  0
  161.5830  203.7110  151.9350 C   0  0  0  0  0  2  0  0  0  0  0  0
  161.2060  204.5130  152.9210 C   0  0  0  0  0  3  0  0  0  0  0  0
  161.5480  205.5570  147.1910 N   0  0  0  0  0  2  0  0  0  0  0  0
  161.3270  204.5650  144.8850 C   0  0  0  0  0  1  0  0  0  0  0  0
  160.9420  205.5890  145.8920 C   0  0  0  0  0  0  0  0  0  0  0  0
  160.0810  206.4570  145.5900 O   0  0  0  0  0  0  0  0  0  0  0  0
  1  4  2  0  0  0  0
  2 10  1  0  0  0  0
  2  8  1  0  0  0  0
  3  6  1  0  0  0  0
  4 20  1  0  0  0  0
  5  7  2  0  0  0  0
  7  1  1  0  0  0  0
  8  3  1  0  0  0  0
  9  5  1  0  0  0  0
  9 10  2  0  0  0  0
 10 11  1  0  0  0  0
 11  6  1  1  0  0  0
 11  4  1  0  0  0  0
 12 20  2  0  0  0  0
 12 17  1  0  0  0  0
 13 15  2  0  0  0  0
 14 18  1  0  0  0  0
 15 18  1  0  0  0  0
 16 14  1  0  0  0  0
 16 19  1  0  0  0  0
 17 16  2  0  0  0  0
 20 21  1  0  0  0  0
 21 13  1  0  0  0  0
 21 14  2  0  0  0  0
 22 13  1  0  0  0  0
 23 24  2  0  0  0  0
 24 22  1  0  0  0  0
 25  5  1  0  0  0  0
 26 27  1  0  0  0  0
 27 25  1  0  0  0  0
 28 27  2  0  0  0  0
M  END
>  <MODEL>
4

>  <REMARK>
 VINA RESULT:      -5.0      2.653      3.984
  Name = 
  4 active torsions:
  status: ('A' for Active; 'I' for Inactive)
    1  A    between atoms: N_3  and  C_15
    2  A    between atoms: C_5  and  N_19
    3  A    between atoms: C_9  and  C_22
    4  A    between atoms: C_14  and  N_19
                            x       y       z     vdW  Elec       q    Type
                         _______ _______ _______ _____ _____    ______ ____

>  <TORSDO>
F 4

$$$$
=
 OpenBabel11042421103D

 28 31  0  0  1  0  0  0  0  0999 V2000
  158.8370  210.2990  153.3590 C   0  0  0  0  0  3  0  0  0  0  0  0
  160.6790  210.6280  157.1740 O   0  0  0  0  0  0  0  0  0  0  0  0
  162.5460  209.6710  155.9560 C   0  0  0  0  0  2  0  0  0  0  0  0
  160.0730  210.0170  153.7780 C   0  0  0  0  0  0  0  0  0  0  0  0
  158.0940  212.1020  154.9710 C   0  0  0  0  0  0  0  0  0  0  0  0
  162.3010  210.6780  154.8400 C   0  0  0  0  0  2  0  0  0  0  0  0
  158.0370  211.4620  153.7890 C   0  0  0  0  0  3  0  0  0  0  0  0
  162.0600  210.2810  157.2600 C   0  0  0  0  0  2  0  0  0  0  0  0
  158.9030  211.6350  156.0660 N   0  0  0  0  0  0  0  0  0  0  0  0
  160.0890  211.1080  155.9980 C   0  0  0  0  0  0  0  0  0  0  0  0
  160.8040  210.9780  154.6780 C   0  0  2  0  0  3  0  0  0  0  0  0
  160.6290  207.5950  154.0540 C   0  0  0  0  0  3  0  0  0  0  0  0
  161.6380  209.6330  151.0770 C   0  0  0  0  0  0  0  0  0  0  0  0
  161.9460  207.5580  151.6120 C   0  0  0  0  0  0  0  0  0  0  0  0
  162.3310  209.0310  150.0840 N   0  0  0  0  0  0  0  0  0  0  0  0
  161.8870  206.3750  152.3460 C   0  0  0  0  0  0  0  0  0  0  0  0
  161.2180  206.4000  153.5830 C   0  0  0  0  0  3  0  0  0  0  0  0
  162.5210  207.7560  150.4120 N   0  0  0  0  0  2  0  0  0  0  0  0
  162.4670  205.2050  151.8750 O   0  0  0  0  0  1  0  0  0  0  0  0
  160.7030  208.7790  153.2930 C   0  0  0  0  0  0  0  0  0  0  0  0
  161.3770  208.7150  152.0690 C   0  0  0  0  0  0  0  0  0  0  0  0
  161.2410  211.0110  151.0870 N   0  0  0  0  0  2  0  0  0  0  0  0
  160.4660  213.0110  149.9580 C   0  0  0  0  0  2  0  0  0  0  0  0
  161.1680  211.8860  149.9540 C   0  0  0  0  0  3  0  0  0  0  0  0
  157.1970  213.1920  155.2380 N   0  0  0  0  0  2  0  0  0  0  0  0
  155.2810  214.4400  156.2950 C   0  0  0  0  0  1  0  0  0  0  0  0
  156.0550  213.1860  156.1040 C   0  0  0  0  0  0  0  0  0  0  0  0
  155.6850  212.1380  156.6960 O   0  0  0  0  0  0  0  0  0  0  0  0
  1  4  2  0  0  0  0
  1  7  1  0  0  0  0
  2  8  1  0  0  0  0
  3  8  1  0  0  0  0
  4 11  1  0  0  0  0
  5 25  1  0  0  0  0
  5  9  1  0  0  0  0
  6  3  1  0  0  0  0
  7  5  2  0  0  0  0
 10  9  2  0  0  0  0
 10  2  1  0  0  0  0
 11  6  1  1  0  0  0
 11 10  1  0  0  0  0
 13 22  1  0  0  0  0
 13 21  1  0  0  0  0
 14 21  2  0  0  0  0
 14 16  1  0  0  0  0
 15 18  1  0  0  0  0
 15 13  2  0  0  0  0
 16 17  2  0  0  0  0
 17 12  1  0  0  0  0
 18 14  1  0  0  0  0
 19 16  1  0  0  0  0
 20  4  1  0  0  0  0
 20 12  2  0  0  0  0
 21 20  1  0  0  0  0
 24 23  2  0  0  0  0
 24 22  1  0  0  0  0
 25 27  1  0  0  0  0
 27 26  1  0  0  0  0
 27 28  2  0  0  0  0
M  END
>  <MODEL>
5

>  <REMARK>
 VINA RESULT:      -4.9      2.361      7.322
  Name = 
  4 active torsions:
  status: ('A' for Active; 'I' for Inactive)
    1  A    between atoms: N_3  and  C_15
    2  A    between atoms: C_5  and  N_19
    3  A    between atoms: C_9  and  C_22
    4  A    between atoms: C_14  and  N_19
                            x       y       z     vdW  Elec       q    Type
                         _______ _______ _______ _____ _____    ______ ____

>  <TORSDO>
F 4

$$$$
=
 OpenBabel11042421103D

 28 31  0  0  1  0  0  0  0  0999 V2000
  161.9550  210.1260  151.2690 C   0  0  0  0  0  3  0  0  0  0  0  0
  162.2880  206.1460  152.7170 O   0  0  0  0  0  0  0  0  0  0  0  0
  160.9970  207.0850  154.5440 C   0  0  0  0  0  2  0  0  0  0  0  0
  161.4700  209.5340  152.3620 C   0  0  0  0  0  0  0  0  0  0  0  0
  162.1850  208.2030  149.6410 C   0  0  0  0  0  0  0  0  0  0  0  0
  160.0740  207.7350  153.5230 C   0  0  0  0  0  2  0  0  0  0  0  0
  162.0380  209.5090  149.9320 C   0  0  0  0  0  3  0  0  0  0  0  0
  161.5860  205.8310  153.9190 C   0  0  0  0  0  2  0  0  0  0  0  0
  162.4090  207.2050  150.6540 N   0  0  0  0  0  0  0  0  0  0  0  0
  161.8700  207.1500  151.8350 C   0  0  0  0  0  0  0  0  0  0  0  0
  160.8450  208.1660  152.2670 C   0  0  2  0  0  3  0  0  0  0  0  0
  162.5120  209.9860  154.5900 C   0  0  0  0  0  3  0  0  0  0  0  0
  159.5440  211.8510  153.2660 C   0  0  0  0  0  0  0  0  0  0  0  0
  160.6700  211.9960  155.1090 C   0  0  0  0  0  0  0  0  0  0  0  0
  159.0070  212.8350  154.0220 N   0  0  0  0  0  0  0  0  0  0  0  0
  161.6420  211.7290  156.0710 C   0  0  0  0  0  0  0  0  0  0  0  0
  162.5720  210.7090  155.8020 C   0  0  0  0  0  3  0  0  0  0  0  0
  159.6980  212.9250  155.1550 N   0  0  0  0  0  2  0  0  0  0  0  0
  161.6950  212.4440  157.2600 O   0  0  0  0  0  1  0  0  0  0  0  0
  161.5190  210.2750  153.6320 C   0  0  0  0  0  0  0  0  0  0  0  0
  160.6100  211.2950  153.9360 C   0  0  0  0  0  0  0  0  0  0  0  0
  159.0720  211.4550  151.9710 N   0  0  0  0  0  2  0  0  0  0  0  0
  159.5810  213.3300  150.5220 C   0  0  0  0  0  2  0  0  0  0  0  0
  158.7910  212.3210  150.8640 C   0  0  0  0  0  3  0  0  0  0  0  0
  162.3000  207.7830  148.2730 N   0  0  0  0  0  2  0  0  0  0  0  0
  161.8890  206.4020  146.2060 C   0  0  0  0  0  1  0  0  0  0  0  0
  161.6960  206.6350  147.6610 C   0  0  0  0  0  0  0  0  0  0  0  0
  161.0190  205.8140  148.3330 O   0  0  0  0  0  0  0  0  0  0  0  0
  1  4  2  0  0  0  0
  2  8  1  0  0  0  0
  4 20  1  0  0  0  0
  5  7  2  0  0  0  0
  5  9  1  0  0  0  0
  6  3  1  0  0  0  0
  7  1  1  0  0  0  0
  8  3  1  0  0  0  0
  9 10  2  0  0  0  0
 10 11  1  0  0  0  0
 10  2  1  0  0  0  0
 11  4  1  0  0  0  0
 11  6  1  1  0  0  0
 12 17  1  0  0  0  0
 13 21  1  0  0  0  0
 13 15  2  0  0  0  0
 14 18  1  0  0  0  0
 14 16  1  0  0  0  0
 15 18  1  0  0  0  0
 16 19  1  0  0  0  0
 17 16  2  0  0  0  0
 20 21  1  0  0  0  0
 20 12  2  0  0  0  0
 21 14  2  0  0  0  0
 22 13  1  0  0  0  0
 23 24  2  0  0  0  0
 24 22  1  0  0  0  0
 25  5  1  0  0  0  0
 26 27  1  0  0  0  0
 27 25  1  0  0  0  0
 27 28  2  0  0  0  0
M  END
>  <MODEL>
6

>  <REMARK>
 VINA RESULT:      -4.4      2.299      4.337
  Name = 
  4 active torsions:
  status: ('A' for Active; 'I' for Inactive)
    1  A    between atoms: N_3  and  C_15
    2  A    between atoms: C_5  and  N_19
    3  A    between atoms: C_9  and  C_22
    4  A    between atoms: C_14  and  N_19
                            x       y       z     vdW  Elec       q    Type
                         _______ _______ _______ _____ _____    ______ ____

>  <TORSDO>
F 4

$$$$
=
 OpenBabel11042421103D

 28 31  0  0  1  0  0  0  0  0999 V2000
  161.9910  207.2150  149.0890 C   0  0  0  0  0  3  0  0  0  0  0  0
  161.6610  202.9870  149.3410 O   0  0  0  0  0  0  0  0  0  0  0  0
  160.3740  203.5650  151.3150 C   0  0  0  0  0  2  0  0  0  0  0  0
  161.3460  206.4230  149.9480 C   0  0  0  0  0  0  0  0  0  0  0  0
  162.0790  205.8120  146.9850 C   0  0  0  0  0  0  0  0  0  0  0  0
  159.6310  204.6090  150.4920 C   0  0  0  0  0  2  0  0  0  0  0  0
  162.0910  206.9910  147.6340 C   0  0  0  0  0  3  0  0  0  0  0  0
  160.8320  202.4610  150.3760 C   0  0  0  0  0  2  0  0  0  0  0  0
  162.0850  204.5480  147.6750 N   0  0  0  0  0  0  0  0  0  0  0  0
  161.4540  204.2490  148.7720 C   0  0  0  0  0  0  0  0  0  0  0  0
  160.5490  205.2490  149.4420 C   0  0  2  0  0  3  0  0  0  0  0  0
  161.3480  205.7500  152.3560 C   0  0  0  0  0  3  0  0  0  0  0  0
  161.6060  209.3000  151.1900 C   0  0  0  0  0  0  0  0  0  0  0  0
  161.5860  208.3960  153.1560 C   0  0  0  0  0  0  0  0  0  0  0  0
  161.7200  210.2800  152.1150 N   0  0  0  0  0  0  0  0  0  0  0  0
  161.5370  207.4120  154.1420 C   0  0  0  0  0  0  0  0  0  0  0  0
  161.4160  206.0730  153.7300 C   0  0  0  0  0  3  0  0  0  0  0  0
  161.7070  209.7260  153.3250 N   0  0  0  0  0  2  0  0  0  0  0  0
  161.6060  207.7370  155.4900 O   0  0  0  0  0  1  0  0  0  0  0  0
  161.3990  206.7630  151.3780 C   0  0  0  0  0  0  0  0  0  0  0  0
  161.5180  208.0840  151.8260 C   0  0  0  0  0  0  0  0  0  0  0  0
  161.5820  209.5060  149.7710 N   0  0  0  0  0  2  0  0  0  0  0  0
  161.8260  211.6530  148.6730 C   0  0  0  0  0  2  0  0  0  0  0  0
  162.3320  210.4820  149.0380 C   0  0  0  0  0  3  0  0  0  0  0  0
  162.2400  205.7790  145.5590 N   0  0  0  0  0  2  0  0  0  0  0  0
  161.5820  205.8290  143.1280 C   0  0  0  0  0  1  0  0  0  0  0  0
  161.2070  205.8130  144.5660 C   0  0  0  0  0  0  0  0  0  0  0  0
  159.9890  205.8160  144.8860 O   0  0  0  0  0  0  0  0  0  0  0  0
  1  4  2  0  0  0  0
  2  8  1  0  0  0  0
  4 20  1  0  0  0  0
  5  7  2  0  0  0  0
  5  9  1  0  0  0  0
  6  3  1  0  0  0  0
  7  1  1  0  0  0  0
  8  3  1  0  0  0  0
  9 10  2  0  0  0  0
 10  2  1  0  0  0  0
 10 11  1  0  0  0  0
 11  4  1  0  0  0  0
 11  6  1  1  0  0  0
 12 17  1  0  0  0  0
 13 21  1  0  0  0  0
 13 15  2  0  0  0  0
 14 18  1  0  0  0  0
 14 16  1  0  0  0  0
 15 18  1  0  0  0  0
 16 19  1  0  0  0  0
 17 16  2  0  0  0  0
 20 21  1  0  0  0  0
 20 12  2  0  0  0  0
 21 14  2  0  0  0  0
 22 13  1  0  0  0  0
 23 24  2  0  0  0  0
 24 22  1  0  0  0  0
 25  5  1  0  0  0  0
 26 27  1  0  0  0  0
 27 28  2  0  0  0  0
 27 25  1  0  0  0  0
M  END
>  <MODEL>
7

>  <REMARK>
 VINA RESULT:      -4.3      3.372      6.080
  Name = 
  4 active torsions:
  status: ('A' for Active; 'I' for Inactive)
    1  A    between atoms: N_3  and  C_15
    2  A    between atoms: C_5  and  N_19
    3  A    between atoms: C_9  and  C_22
    4  A    between atoms: C_14  and  N_19
                            x       y       z     vdW  Elec       q    Type
                         _______ _______ _______ _____ _____    ______ ____

>  <TORSDO>
F 4

$$$$
=
 OpenBabel11042421103D

 28 31  0  0  1  0  0  0  0  0999 V2000
  161.6400  204.5600  150.7610 C   0  0  0  0  0  3  0  0  0  0  0  0
  162.3520  208.7440  150.5630 O   0  0  0  0  0  0  0  0  0  0  0  0
  161.5810  208.4040  148.2880 C   0  0  0  0  0  2  0  0  0  0  0  0
  161.4600  205.4480  149.7810 C   0  0  0  0  0  0  0  0  0  0  0  0
  161.4420  205.9780  152.8480 C   0  0  0  0  0  0  0  0  0  0  0  0
  160.4210  207.5820  148.8320 C   0  0  0  0  0  2  0  0  0  0  0  0
  161.3720  204.8050  152.1910 C   0  0  0  0  0  3  0  0  0  0  0  0
  161.9900  209.4080  149.3530 C   0  0  0  0  0  2  0  0  0  0  0  0
  161.9260  207.1840  152.2290 N   0  0  0  0  0  0  0  0  0  0  0  0
  161.7150  207.5800  151.0090 C   0  0  0  0  0  0  0  0  0  0  0  0
  160.8360  206.7870  150.0780 C   0  0  2  0  0  3  0  0  0  0  0  0
  162.6750  205.8850  147.6400 C   0  0  0  0  0  3  0  0  0  0  0  0
  160.6140  202.8220  148.2720 C   0  0  0  0  0  0  0  0  0  0  0  0
  161.7740  203.4890  146.5700 C   0  0  0  0  0  0  0  0  0  0  0  0
  160.5260  201.8880  147.2980 N   0  0  0  0  0  0  0  0  0  0  0  0
  162.6000  204.2900  145.7850 C   0  0  0  0  0  0  0  0  0  0  0  0
  163.0540  205.5040  146.3330 C   0  0  0  0  0  3  0  0  0  0  0  0
  161.2380  202.2960  146.2510 N   0  0  0  0  0  2  0  0  0  0  0  0
  162.9690  203.9080  144.5030 O   0  0  0  0  0  1  0  0  0  0  0  0
  161.8380  205.0570  148.4130 C   0  0  0  0  0  0  0  0  0  0  0  0
  161.4060  203.8590  147.8340 C   0  0  0  0  0  0  0  0  0  0  0  0
  159.9790  202.7380  149.5540 N   0  0  0  0  0  2  0  0  0  0  0  0
  161.2060  200.9530  150.6420 C   0  0  0  0  0  2  0  0  0  0  0  0
  160.0950  201.6630  150.4950 C   0  0  0  0  0  3  0  0  0  0  0  0
  161.1950  206.0210  154.2620 N   0  0  0  0  0  2  0  0  0  0  0  0
  160.4460  206.9530  156.4790 C   0  0  0  0  0  1  0  0  0  0  0  0
  160.6880  207.1250  155.0230 C   0  0  0  0  0  0  0  0  0  0  0  0
  160.4570  208.2400  154.4870 O   0  0  0  0  0  0  0  0  0  0  0  0
  1  7  1  0  0  0  0
  2 10  1  0  0  0  0
  3  6  1  0  0  0  0
  3  8  1  0  0  0  0
  4 11  1  0  0  0  0
  4  1  2  0  0  0  0
  5 25  1  0  0  0  0
  7  5  2  0  0  0  0
  8  2  1  0  0  0  0
  9  5  1  0  0  0  0
 10  9  2  0  0  0  0
 11  6  1  6  0  0  0
 11 10  1  0  0  0  0
 12 20  1  0  0  0  0
 13 22  1  0  0  0  0
 14 21  1  0  0  0  0
 15 13  2  0  0  0  0
 16 17  1  0  0  0  0
 16 14  2  0  0  0  0
 17 12  2  0  0  0  0
 18 14  1  0  0  0  0
 18 15  1  0  0  0  0
 19 16  1  0  0  0  0
 20  4  1  0  0  0  0
 21 13  1  0  0  0  0
 21 20  2  0  0  0  0
 22 24  1  0  0  0  0
 24 23  2  0  0  0  0
 25 27  1  0  0  0  0
 27 26  1  0  0  0  0
 28 27  2  0  0  0  0
M  END
>  <MODEL>
8

>  <REMARK>
 VINA RESULT:      -3.9      3.600      8.062
  Name = 
  4 active torsions:
  status: ('A' for Active; 'I' for Inactive)
    1  A    between atoms: N_3  and  C_15
    2  A    between atoms: C_5  and  N_19
    3  A    between atoms: C_9  and  C_22
    4  A    between atoms: C_14  and  N_19
                            x       y       z     vdW  Elec       q    Type
                         _______ _______ _______ _____ _____    ______ ____

>  <TORSDO>
F 4

$$$$
=
 OpenBabel11042421103D

 28 31  0  0  1  0  0  0  0  0999 V2000
  160.5500  202.6640  148.1970 C   0  0  0  0  0  3  0  0  0  0  0  0
  161.1000  204.6780  144.4970 O   0  0  0  0  0  0  0  0  0  0  0  0
  162.3310  206.2060  145.9220 C   0  0  0  0  0  2  0  0  0  0  0  0
  161.2260  203.7700  147.8780 C   0  0  0  0  0  0  0  0  0  0  0  0
  160.5600  201.3530  146.0330 C   0  0  0  0  0  0  0  0  0  0  0  0
  163.0280  205.0110  146.5570 C   0  0  0  0  0  2  0  0  0  0  0  0
  160.4790  201.4420  147.3730 C   0  0  0  0  0  3  0  0  0  0  0  0
  161.9430  205.8280  144.5020 C   0  0  0  0  0  2  0  0  0  0  0  0
  160.6130  202.5120  145.1820 N   0  0  0  0  0  0  0  0  0  0  0  0
  161.2460  203.6250  145.4080 C   0  0  0  0  0  0  0  0  0  0  0  0
  162.0900  203.7980  146.6440 C   0  0  2  0  0  3  0  0  0  0  0  0
  160.9320  206.2200  148.2790 C   0  0  0  0  0  3  0  0  0  0  0  0
  161.4210  203.7090  151.0160 C   0  0  0  0  0  0  0  0  0  0  0  0
  161.1360  205.8550  151.0220 C   0  0  0  0  0  0  0  0  0  0  0  0
  161.4270  204.1410  152.2980 N   0  0  0  0  0  0  0  0  0  0  0  0
  160.9330  207.1480  150.5440 C   0  0  0  0  0  0  0  0  0  0  0  0
  160.8310  207.3260  149.1520 C   0  0  0  0  0  3  0  0  0  0  0  0
  161.2530  205.4600  152.3030 N   0  0  0  0  0  2  0  0  0  0  0  0
  160.8330  208.2300  151.4080 O   0  0  0  0  0  1  0  0  0  0  0  0
  161.1380  204.9220  148.7880 C   0  0  0  0  0  0  0  0  0  0  0  0
  161.2370  204.7850  150.1770 C   0  0  0  0  0  0  0  0  0  0  0  0
  161.5810  202.3450  150.6040 N   0  0  0  0  0  2  0  0  0  0  0  0
  159.6910  200.8270  150.6270 C   0  0  0  0  0  2  0  0  0  0  0  0
  160.8640  201.2120  151.1110 C   0  0  0  0  0  3  0  0  0  0  0  0
  160.4180  200.0760  145.3910 N   0  0  0  0  0  2  0  0  0  0  0  0
  160.8630  197.6480  144.8860 C   0  0  0  0  0  1  0  0  0  0  0  0
  161.2060  198.8990  145.6120 C   0  0  0  0  0  0  0  0  0  0  0  0
  162.1910  198.9060  146.3960 O   0  0  0  0  0  0  0  0  0  0  0  0
  2  8  1  0  0  0  0
  2 10  1  0  0  0  0
  3  6  1  0  0  0  0
  4  1  2  0  0  0  0
  4 20  1  0  0  0  0
  5  7  2  0  0  0  0
  7  1  1  0  0  0  0
  8  3  1  0  0  0  0
  9 10  2  0  0  0  0
  9  5  1  0  0  0  0
 10 11  1  0  0  0  0
 11  6  1  6  0  0  0
 11  4  1  0  0  0  0
 12 20  2  0  0  0  0
 12 17  1  0  0  0  0
 13 15  2  0  0  0  0
 14 18  1  0  0  0  0
 15 18  1  0  0  0  0
 16 14  1  0  0  0  0
 16 19  1  0  0  0  0
 17 16  2  0  0  0  0
 20 21  1  0  0  0  0
 21 13  1  0  0  0  0
 21 14  2  0  0  0  0
 22 13  1  0  0  0  0
 22 24  1  0  0  0  0
 23 24  2  0  0  0  0
 25 27  1  0  0  0  0
 25  5  1  0  0  0  0
 26 27  1  0  0  0  0
 27 28  2  0  0  0  0
M  END
>  <MODEL>
9

>  <REMARK>
 VINA RESULT:      -3.8      4.719      7.633
  Name = 
  4 active torsions:
  status: ('A' for Active; 'I' for Inactive)
    1  A    between atoms: N_3  and  C_15
    2  A    between atoms: C_5  and  N_19
    3  A    between atoms: C_9  and  C_22
    4  A    between atoms: C_14  and  N_19
                            x       y       z     vdW  Elec       q    Type
                         _______ _______ _______ _____ _____    ______ ____

>  <TORSDO>
F 4

$$$$
