=
 OpenBabel11052411093D

 44 48  0  0  1  0  0  0  0  0999 V2000
  159.1970  213.1090  151.3770 N   0  0  0  0  0  0  0  0  0  0  0  0
  159.1970  211.5570  154.6430 C   0  0  0  0  0  3  0  0  0  0  0  0
  161.0460  210.0130  154.7510 C   0  0  0  0  0  3  0  0  0  0  0  0
  160.6830  211.2580  152.7570 C   0  0  0  0  0  0  0  0  0  0  0  0
  161.0460  211.5930  151.4450 C   0  0  0  0  0  0  0  0  0  0  0  0
  161.3920  210.3440  153.4770 N   0  0  0  0  0  0  0  0  0  0  0  0
  159.5660  211.8810  153.3380 C   0  0  0  0  0  0  0  0  0  0  0  0
  160.2580  212.5360  150.7390 C   0  0  0  0  0  0  0  0  0  0  0  0
  159.9400  210.6150  155.3580 C   0  0  0  0  0  3  0  0  0  0  0  0
  158.8610  212.7950  152.6280 N   0  0  0  0  0  0  0  0  0  0  0  0
  161.5650  213.3940  146.3580 C   0  0  0  0  0  0  0  0  0  0  0  0
  162.0450  212.6300  147.3340 C   0  0  0  0  0  3  0  0  0  0  0  0
  159.5760  213.8860  148.7360 C   0  0  0  0  0  3  0  0  0  0  0  0
  161.5720  212.4190  148.7010 C   0  0  0  0  0  3  0  0  0  0  0  0
  160.4280  214.2050  146.4550 O   0  0  0  0  0  0  0  0  0  0  0  0
  160.5340  212.9540  149.3400 C   0  0  0  0  0  0  0  0  0  0  0  0
  159.5430  214.4090  147.5150 C   0  0  0  0  0  3  0  0  0  0  0  0
  162.6360  212.9450  142.8370 N   0  0  0  0  0  0  0  0  0  0  0  0
  162.2840  212.4540  141.5670 N   0  0  0  0  0  2  0  0  0  0  0  0
  160.5010  212.1760  143.7260 C   0  0  0  0  0  2  0  0  0  0  0  0
  159.9800  212.2500  142.2950 C   0  0  0  0  0  2  0  0  0  0  0  0
  161.8380  212.8640  143.8610 C   0  0  0  0  0  0  0  0  0  0  0  0
  161.0460  211.7140  141.3550 C   0  0  0  0  0  2  0  0  0  0  0  0
  162.2940  213.3660  145.1240 N   0  0  0  0  0  2  0  0  0  0  0  0
  162.2600  210.9580  150.8340 C   0  0  0  0  0  2  0  0  0  0  0  0
  162.2180  209.5200  151.0520 N   0  0  0  0  0  2  0  0  0  0  0  0
  161.8560  209.0100  148.8050 O   0  0  0  0  0  0  0  0  0  0  0  0
  161.9890  208.5960  149.9870 C   0  0  0  0  0  0  0  0  0  0  0  0
  161.8880  207.1930  150.2530 N   0  0  0  0  0  2  0  0  0  0  0  0
  160.8690  206.9980  152.4730 C   0  0  0  0  0  1  0  0  0  0  0  0
  162.0230  206.5870  151.5770 C   0  0  1  0  0  3  0  0  0  0  0  0
  162.1100  205.0670  151.4930 C   0  0  0  0  0  2  0  0  0  0  0  0
  160.7350  203.2070  152.3690 C   0  0  0  0  0  1  0  0  0  0  0  0
  160.7310  204.4260  151.4710 C   0  0  2  0  0  3  0  0  0  0  0  0
  160.3910  204.0210  150.1170 N   0  0  0  0  0  2  0  0  0  0  0  0
  161.3470  203.0740  149.7260 N   0  0  0  0  0  2  0  0  0  0  0  0
  161.0670  202.7460  148.3940 N   0  0  0  0  0  2  0  0  0  0  0  0
  162.4030  206.0160  145.6900 O   0  0  0  0  0  0  0  0  0  0  0  0
  161.4880  203.5960  147.3300 C   0  0  0  0  0  0  0  0  0  0  0  0
  161.4220  205.3920  144.9170 C   0  0  0  0  0  2  0  0  0  0  0  0
  161.2270  203.2370  146.1060 N   0  0  0  0  0  0  0  0  0  0  0  0
  162.1700  204.7810  147.6370 O   0  0  0  0  0  0  0  0  0  0  0  0
  161.6950  203.8980  144.8890 C   0  0  0  0  0  2  0  0  0  0  0  0
  161.8940  206.0190  146.9900 C   0  0  0  0  0  2  0  0  0  0  0  0
  1 10  1  0  0  0  0
  2  9  2  0  0  0  0
  3  9  1  0  0  0  0
  4  7  1  0  0  0  0
  4  6  1  0  0  0  0
  5  4  2  0  0  0  0
  6  3  2  0  0  0  0
  7  2  1  0  0  0  0
  8  1  2  0  0  0  0
  8  5  1  0  0  0  0
 10  7  2  0  0  0  0
 11 15  1  0  0  0  0
 11 12  2  0  0  0  0
 12 14  1  0  0  0  0
 13 16  1  0  0  0  0
 14 16  2  0  0  0  0
 15 17  1  0  0  0  0
 16  8  1  0  0  0  0
 17 13  2  0  0  0  0
 18 22  2  0  0  0  0
 19 18  1  0  0  0  0
 20 22  1  0  0  0  0
 21 20  1  0  0  0  0
 22 24  1  0  0  0  0
 23 19  1  0  0  0  0
 23 21  1  0  0  0  0
 24 11  1  0  0  0  0
 25 26  1  0  0  0  0
 25  5  1  0  0  0  0
 27 28  2  0  0  0  0
 28 29  1  0  0  0  0
 28 26  1  0  0  0  0
 29 31  1  0  0  0  0
 31 30  1  1  0  0  0
 32 31  1  0  0  0  0
 34 32  1  0  0  0  0
 34 33  1  1  0  0  0
 35 34  1  0  0  0  0
 36 35  1  0  0  0  0
 37 36  1  0  0  0  0
 38 44  1  0  0  0  0
 39 42  1  0  0  0  0
 39 37  1  0  0  0  0
 40 38  1  0  0  0  0
 41 39  2  0  0  0  0
 43 40  1  0  0  0  0
 43 41  1  0  0  0  0
 44 42  1  0  0  0  0
M  END
>  <MODEL>
1

>  <REMARK>
 VINA RESULT:      -8.1      0.000      0.000
  Name = 
  10 active torsions:
  status: ('A' for Active; 'I' for Inactive)
    1  A    between atoms: C_2  and  N_40
    2  A    between atoms: N_7  and  N_25
    3  A    between atoms: N_8  and  C_39
    4  A    between atoms: C_9  and  N_28
    5  A    between atoms: C_9  and  C_42
    6  A    between atoms: C_23  and  C_39
    7  A    between atoms: N_25  and  N_38
    8  A    between atoms: C_33  and  C_35
    9  A    between atoms: N_38  and  C_41
   10  A    between atoms: C_41  and  C_42
                            x       y       z     vdW  Elec       q    Type
                         _______ _______ _______ _____ _____    ______ ____

>  <TORSDO>
F 10

$$$$
=
 OpenBabel11052411093D

 44 48  0  0  1  0  0  0  0  0999 V2000
  158.7350  213.8200  146.6430 N   0  0  0  0  0  0  0  0  0  0  0  0
  157.8760  214.2690  150.1270 C   0  0  0  0  0  3  0  0  0  0  0  0
  159.6580  213.3580  151.4720 C   0  0  0  0  0  3  0  0  0  0  0  0
  159.8260  213.2690  149.1010 C   0  0  0  0  0  0  0  0  0  0  0  0
  160.5270  212.9110  147.9410 C   0  0  0  0  0  0  0  0  0  0  0  0
  160.3320  213.0130  150.3410 N   0  0  0  0  0  0  0  0  0  0  0  0
  158.5810  213.9070  148.9790 C   0  0  0  0  0  0  0  0  0  0  0  0
  159.9410  213.1850  146.6790 C   0  0  0  0  0  0  0  0  0  0  0  0
  158.4160  213.9930  151.3850 C   0  0  0  0  0  3  0  0  0  0  0  0
  158.0770  214.1680  147.7490 N   0  0  0  0  0  0  0  0  0  0  0  0
  161.3680  211.9000  142.4420 C   0  0  0  0  0  0  0  0  0  0  0  0
  160.2310  211.7650  143.1160 C   0  0  0  0  0  3  0  0  0  0  0  0
  161.9600  213.2950  145.1920 C   0  0  0  0  0  3  0  0  0  0  0  0
  159.8610  212.1970  144.4630 C   0  0  0  0  0  3  0  0  0  0  0  0
  162.5200  212.5320  142.9250 O   0  0  0  0  0  0  0  0  0  0  0  0
  160.5800  212.8340  145.3840 C   0  0  0  0  0  0  0  0  0  0  0  0
  162.7700  213.1590  144.1480 C   0  0  0  0  0  3  0  0  0  0  0  0
  160.9610  211.2700  138.8120 N   0  0  0  0  0  0  0  0  0  0  0  0
  160.4200  211.7410  137.6010 N   0  0  0  0  0  2  0  0  0  0  0  0
  160.0180  213.1890  139.9810 C   0  0  0  0  0  2  0  0  0  0  0  0
  160.0230  213.9000  138.6320 C   0  0  0  0  0  2  0  0  0  0  0  0
  160.8250  211.9150  139.9330 C   0  0  0  0  0  0  0  0  0  0  0  0
  159.5690  212.9240  137.5600 C   0  0  0  0  0  2  0  0  0  0  0  0
  161.3860  211.3430  141.1220 N   0  0  0  0  0  2  0  0  0  0  0  0
  161.8750  212.2640  148.0660 C   0  0  0  0  0  2  0  0  0  0  0  0
  161.7090  210.8510  148.3700 N   0  0  0  0  0  2  0  0  0  0  0  0
  162.7260  211.0000  150.4640 O   0  0  0  0  0  0  0  0  0  0  0  0
  162.1820  210.2750  149.5880 C   0  0  0  0  0  0  0  0  0  0  0  0
  162.0600  208.8680  149.8210 N   0  0  0  0  0  2  0  0  0  0  0  0
  162.5090  207.2590  148.0290 C   0  0  0  0  0  1  0  0  0  0  0  0
  161.4500  207.9230  148.8890 C   0  0  1  0  0  3  0  0  0  0  0  0
  160.6250  206.8660  149.6180 C   0  0  0  0  0  2  0  0  0  0  0  0
  160.6890  204.4450  150.1170 C   0  0  0  0  0  1  0  0  0  0  0  0
  161.4950  205.7270  150.1250 C   0  0  2  0  0  3  0  0  0  0  0  0
  161.9390  206.0040  151.4810 N   0  0  0  0  0  2  0  0  0  0  0  0
  160.8010  206.3620  152.2150 N   0  0  0  0  0  2  0  0  0  0  0  0
  161.2220  206.5770  153.5330 N   0  0  0  0  0  2  0  0  0  0  0  0
  160.9070  210.8940  154.5620 O   0  0  0  0  0  0  0  0  0  0  0  0
  161.1240  207.8700  154.1270 C   0  0  0  0  0  0  0  0  0  0  0  0
  161.8720  210.4550  155.4700 C   0  0  0  0  0  2  0  0  0  0  0  0
  161.5050  208.0170  155.3630 N   0  0  0  0  0  0  0  0  0  0  0  0
  160.6190  208.9310  153.3640 O   0  0  0  0  0  0  0  0  0  0  0  0
  161.3520  209.2180  156.1810 C   0  0  0  0  0  2  0  0  0  0  0  0
  161.2010  210.2300  153.3690 C   0  0  0  0  0  2  0  0  0  0  0  0
  1  8  2  0  0  0  0
  1 10  1  0  0  0  0
  2  9  2  0  0  0  0
  4  6  1  0  0  0  0
  5 25  1  0  0  0  0
  5  4  2  0  0  0  0
  6  3  2  0  0  0  0
  7  4  1  0  0  0  0
  7  2  1  0  0  0  0
  8  5  1  0  0  0  0
  9  3  1  0  0  0  0
 10  7  2  0  0  0  0
 11 15  1  0  0  0  0
 11 12  2  0  0  0  0
 12 14  1  0  0  0  0
 13 16  1  0  0  0  0
 14 16  2  0  0  0  0
 15 17  1  0  0  0  0
 16  8  1  0  0  0  0
 17 13  2  0  0  0  0
 18 22  2  0  0  0  0
 19 18  1  0  0  0  0
 21 20  1  0  0  0  0
 22 20  1  0  0  0  0
 22 24  1  0  0  0  0
 23 19  1  0  0  0  0
 23 21  1  0  0  0  0
 24 11  1  0  0  0  0
 25 26  1  0  0  0  0
 26 28  1  0  0  0  0
 28 29  1  0  0  0  0
 28 27  2  0  0  0  0
 31 30  1  1  0  0  0
 31 32  1  0  0  0  0
 31 29  1  0  0  0  0
 32 34  1  0  0  0  0
 34 33  1  1  0  0  0
 34 35  1  0  0  0  0
 35 36  1  0  0  0  0
 36 37  1  0  0  0  0
 37 39  1  0  0  0  0
 38 40  1  0  0  0  0
 39 41  2  0  0  0  0
 40 43  1  0  0  0  0
 41 43  1  0  0  0  0
 42 44  1  0  0  0  0
 42 39  1  0  0  0  0
 44 38  1  0  0  0  0
M  END
>  <MODEL>
2

>  <REMARK>
 VINA RESULT:      -7.9      2.840      5.485
  Name = 
  10 active torsions:
  status: ('A' for Active; 'I' for Inactive)
    1  A    between atoms: C_2  and  N_40
    2  A    between atoms: N_7  and  N_25
    3  A    between atoms: N_8  and  C_39
    4  A    between atoms: C_9  and  N_28
    5  A    between atoms: C_9  and  C_42
    6  A    between atoms: C_23  and  C_39
    7  A    between atoms: N_25  and  N_38
    8  A    between atoms: C_33  and  C_35
    9  A    between atoms: N_38  and  C_41
   10  A    between atoms: C_41  and  C_42
                            x       y       z     vdW  Elec       q    Type
                         _______ _______ _______ _____ _____    ______ ____

>  <TORSDO>
F 10

$$$$
=
 OpenBabel11052411093D

 44 48  0  0  1  0  0  0  0  0999 V2000
  160.8150  206.7130  152.6800 N   0  0  0  0  0  0  0  0  0  0  0  0
  160.8100  208.8190  155.6200 C   0  0  0  0  0  3  0  0  0  0  0  0
  161.6950  210.9770  155.0100 C   0  0  0  0  0  3  0  0  0  0  0  0
  161.5200  209.2790  153.3530 C   0  0  0  0  0  0  0  0  0  0  0  0
  161.6920  208.8420  152.0320 C   0  0  0  0  0  0  0  0  0  0  0  0
  161.8580  210.5450  153.7300 N   0  0  0  0  0  0  0  0  0  0  0  0
  160.9870  208.3930  154.3030 C   0  0  0  0  0  0  0  0  0  0  0  0
  161.3400  207.5080  151.7050 C   0  0  0  0  0  0  0  0  0  0  0  0
  161.1670  210.1200  155.9790 C   0  0  0  0  0  3  0  0  0  0  0  0
  160.6440  207.1360  153.9330 N   0  0  0  0  0  0  0  0  0  0  0  0
  161.3940  205.2720  147.6260 C   0  0  0  0  0  0  0  0  0  0  0  0
  160.8350  205.0290  148.8070 C   0  0  0  0  0  3  0  0  0  0  0  0
  162.2800  207.7160  149.3860 C   0  0  0  0  0  3  0  0  0  0  0  0
  160.8730  205.7890  150.0560 C   0  0  0  0  0  3  0  0  0  0  0  0
  162.1860  206.3870  147.3230 O   0  0  0  0  0  0  0  0  0  0  0  0
  161.4960  206.9290  150.3450 C   0  0  0  0  0  0  0  0  0  0  0  0
  162.5660  207.4750  148.1120 C   0  0  0  0  0  3  0  0  0  0  0  0
  160.8880  202.1400  145.7100 N   0  0  0  0  0  0  0  0  0  0  0  0
  160.8950  200.7330  145.7540 N   0  0  0  0  0  2  0  0  0  0  0  0
  161.5450  202.2170  148.0550 C   0  0  0  0  0  2  0  0  0  0  0  0
  160.9460  200.8200  148.1770 C   0  0  0  0  0  2  0  0  0  0  0  0
  161.1560  202.8700  146.7520 C   0  0  0  0  0  0  0  0  0  0  0  0
  161.3250  200.0130  146.9470 C   0  0  0  0  0  2  0  0  0  0  0  0
  161.1520  204.2970  146.6050 N   0  0  0  0  0  2  0  0  0  0  0  0
  162.2250  209.7970  151.0050 C   0  0  0  0  0  2  0  0  0  0  0  0
  161.2750  210.8810  150.8100 N   0  0  0  0  0  2  0  0  0  0  0  0
  162.4470  211.8260  149.0280 O   0  0  0  0  0  0  0  0  0  0  0  0
  161.4600  211.8820  149.8090 C   0  0  0  0  0  0  0  0  0  0  0  0
  160.5370  212.9700  149.6920 N   0  0  0  0  0  2  0  0  0  0  0  0
  159.7310  213.1070  152.0020 C   0  0  0  0  0  1  0  0  0  0  0  0
  159.3550  213.1500  150.5330 C   0  0  1  0  0  3  0  0  0  0  0  0
  158.6290  214.4530  150.2120 C   0  0  0  0  0  2  0  0  0  0  0  0
  157.0390  212.9670  149.0390 C   0  0  0  0  0  1  0  0  0  0  0  0
  157.7340  214.3110  148.9920 C   0  0  2  0  0  3  0  0  0  0  0  0
  158.5290  214.3950  147.7770 N   0  0  0  0  0  2  0  0  0  0  0  0
  158.4370  213.1480  147.1460 N   0  0  0  0  0  2  0  0  0  0  0  0
  158.6050  213.3770  145.7750 N   0  0  0  0  0  2  0  0  0  0  0  0
  162.8970  213.0030  144.6670 O   0  0  0  0  0  0  0  0  0  0  0  0
  159.8820  213.2200  145.1610 C   0  0  0  0  0  0  0  0  0  0  0  0
  162.4100  213.8170  143.6430 C   0  0  0  0  0  2  0  0  0  0  0  0
  159.9850  213.4190  143.8780 N   0  0  0  0  0  0  0  0  0  0  0  0
  160.9770  212.8530  145.9550 O   0  0  0  0  0  0  0  0  0  0  0  0
  161.1660  213.1730  143.0540 C   0  0  0  0  0  2  0  0  0  0  0  0
  162.2610  213.4550  145.8250 C   0  0  0  0  0  2  0  0  0  0  0  0
  1 10  1  0  0  0  0
  2  9  2  0  0  0  0
  3  9  1  0  0  0  0
  4  6  1  0  0  0  0
  4  7  1  0  0  0  0
  5  4  2  0  0  0  0
  6  3  2  0  0  0  0
  7  2  1  0  0  0  0
  8  5  1  0  0  0  0
  8  1  2  0  0  0  0
 10  7  2  0  0  0  0
 11 12  2  0  0  0  0
 12 14  1  0  0  0  0
 13 16  1  0  0  0  0
 14 16  2  0  0  0  0
 15 11  1  0  0  0  0
 15 17  1  0  0  0  0
 16  8  1  0  0  0  0
 17 13  2  0  0  0  0
 18 19  1  0  0  0  0
 18 22  2  0  0  0  0
 19 23  1  0  0  0  0
 20 21  1  0  0  0  0
 22 20  1  0  0  0  0
 23 21  1  0  0  0  0
 24 22  1  0  0  0  0
 24 11  1  0  0  0  0
 25  5  1  0  0  0  0
 26 25  1  0  0  0  0
 27 28  2  0  0  0  0
 28 26  1  0  0  0  0
 29 28  1  0  0  0  0
 29 31  1  0  0  0  0
 31 30  1  1  0  0  0
 32 31  1  0  0  0  0
 34 33  1  1  0  0  0
 34 32  1  0  0  0  0
 35 34  1  0  0  0  0
 36 35  1  0  0  0  0
 37 36  1  0  0  0  0
 38 44  1  0  0  0  0
 39 37  1  0  0  0  0
 39 42  1  0  0  0  0
 40 38  1  0  0  0  0
 41 39  2  0  0  0  0
 43 40  1  0  0  0  0
 43 41  1  0  0  0  0
 44 42  1  0  0  0  0
M  END
>  <MODEL>
3

>  <REMARK>
 VINA RESULT:      -7.8      2.129      8.062
  Name = 
  10 active torsions:
  status: ('A' for Active; 'I' for Inactive)
    1  A    between atoms: C_2  and  N_40
    2  A    between atoms: N_7  and  N_25
    3  A    between atoms: N_8  and  C_39
    4  A    between atoms: C_9  and  N_28
    5  A    between atoms: C_9  and  C_42
    6  A    between atoms: C_23  and  C_39
    7  A    between atoms: N_25  and  N_38
    8  A    between atoms: C_33  and  C_35
    9  A    between atoms: N_38  and  C_41
   10  A    between atoms: C_41  and  C_42
                            x       y       z     vdW  Elec       q    Type
                         _______ _______ _______ _____ _____    ______ ____

>  <TORSDO>
F 10

$$$$
=
 OpenBabel11052411093D

 44 48  0  0  1  0  0  0  0  0999 V2000
  160.4650  206.8160  154.7070 N   0  0  0  0  0  0  0  0  0  0  0  0
  160.3390  209.5160  157.1090 C   0  0  0  0  0  3  0  0  0  0  0  0
  160.9210  211.5660  155.9800 C   0  0  0  0  0  3  0  0  0  0  0  0
  160.8800  209.5300  154.7510 C   0  0  0  0  0  0  0  0  0  0  0  0
  161.0420  208.8280  153.5480 C   0  0  0  0  0  0  0  0  0  0  0  0
  161.0760  210.8770  154.8170 N   0  0  0  0  0  0  0  0  0  0  0  0
  160.5040  208.8270  155.9080 C   0  0  0  0  0  0  0  0  0  0  0  0
  160.8420  207.4240  153.5460 C   0  0  0  0  0  0  0  0  0  0  0  0
  160.5490  210.8960  157.1490 C   0  0  0  0  0  3  0  0  0  0  0  0
  160.3020  207.4890  155.8460 N   0  0  0  0  0  0  0  0  0  0  0  0
  161.3250  205.3010  149.4350 C   0  0  0  0  0  0  0  0  0  0  0  0
  161.0490  206.5470  149.8060 C   0  0  0  0  0  3  0  0  0  0  0  0
  161.3390  205.1650  152.5710 C   0  0  0  0  0  3  0  0  0  0  0  0
  160.9070  207.1380  151.1360 C   0  0  0  0  0  3  0  0  0  0  0  0
  161.5530  204.2320  150.3100 O   0  0  0  0  0  0  0  0  0  0  0  0
  161.0040  206.5750  152.3380 C   0  0  0  0  0  0  0  0  0  0  0  0
  161.5670  204.1840  151.7050 C   0  0  0  0  0  3  0  0  0  0  0  0
  161.2360  203.8060  146.0440 N   0  0  0  0  0  0  0  0  0  0  0  0
  161.0610  202.6280  145.2950 N   0  0  0  0  0  2  0  0  0  0  0  0
  160.9410  202.5400  148.1050 C   0  0  0  0  0  2  0  0  0  0  0  0
  160.1830  201.5190  147.2640 C   0  0  0  0  0  2  0  0  0  0  0  0
  161.1640  203.8230  147.3430 C   0  0  0  0  0  0  0  0  0  0  0  0
  160.9100  201.3310  145.9440 C   0  0  0  0  0  2  0  0  0  0  0  0
  161.3840  205.0650  148.0230 N   0  0  0  0  0  2  0  0  0  0  0  0
  161.4050  209.5790  152.3020 C   0  0  0  0  0  2  0  0  0  0  0  0
  160.5020  210.7070  152.1340 N   0  0  0  0  0  2  0  0  0  0  0  0
  161.7010  211.6330  150.3610 O   0  0  0  0  0  0  0  0  0  0  0  0
  160.7230  211.7190  151.1500 C   0  0  0  0  0  0  0  0  0  0  0  0
  159.8480  212.8480  151.0610 N   0  0  0  0  0  2  0  0  0  0  0  0
  158.7360  214.4360  152.5600 C   0  0  0  0  0  1  0  0  0  0  0  0
  158.6810  213.0640  151.9150 C   0  0  1  0  0  3  0  0  0  0  0  0
  157.3780  212.8980  151.1400 C   0  0  0  0  0  2  0  0  0  0  0  0
  155.4780  214.4450  150.8080 C   0  0  0  0  0  1  0  0  0  0  0  0
  156.9390  214.2030  150.4940 C   0  0  2  0  0  3  0  0  0  0  0  0
  157.1120  214.1290  149.0530 N   0  0  0  0  0  2  0  0  0  0  0  0
  157.0830  212.7700  148.7100 N   0  0  0  0  0  2  0  0  0  0  0  0
  157.2660  212.7000  147.3240 N   0  0  0  0  0  2  0  0  0  0  0  0
  161.6020  212.8260  146.3360 O   0  0  0  0  0  0  0  0  0  0  0  0
  158.5750  212.6280  146.7650 C   0  0  0  0  0  0  0  0  0  0  0  0
  161.0270  213.2830  145.1490 C   0  0  0  0  0  2  0  0  0  0  0  0
  158.6950  212.5390  145.4710 N   0  0  0  0  0  0  0  0  0  0  0  0
  159.6830  212.6490  147.6230 O   0  0  0  0  0  0  0  0  0  0  0  0
  159.9340  212.3150  144.7280 C   0  0  0  0  0  2  0  0  0  0  0  0
  160.8520  213.4170  147.3550 C   0  0  0  0  0  2  0  0  0  0  0  0
  1 10  1  0  0  0  0
  2  9  2  0  0  0  0
  3  9  1  0  0  0  0
  4  6  1  0  0  0  0
  4  7  1  0  0  0  0
  5  4  2  0  0  0  0
  6  3  2  0  0  0  0
  7  2  1  0  0  0  0
  8  5  1  0  0  0  0
  8  1  2  0  0  0  0
 10  7  2  0  0  0  0
 11 12  2  0  0  0  0
 11 15  1  0  0  0  0
 12 14  1  0  0  0  0
 14 16  2  0  0  0  0
 15 17  1  0  0  0  0
 16 13  1  0  0  0  0
 16  8  1  0  0  0  0
 17 13  2  0  0  0  0
 18 22  2  0  0  0  0
 19 23  1  0  0  0  0
 19 18  1  0  0  0  0
 21 20  1  0  0  0  0
 22 24  1  0  0  0  0
 22 20  1  0  0  0  0
 23 21  1  0  0  0  0
 24 11  1  0  0  0  0
 25  5  1  0  0  0  0
 26 25  1  0  0  0  0
 27 28  2  0  0  0  0
 28 26  1  0  0  0  0
 29 28  1  0  0  0  0
 29 31  1  0  0  0  0
 31 30  1  6  0  0  0
 32 31  1  0  0  0  0
 34 33  1  6  0  0  0
 34 32  1  0  0  0  0
 35 34  1  0  0  0  0
 36 35  1  0  0  0  0
 37 36  1  0  0  0  0
 38 44  1  0  0  0  0
 39 37  1  0  0  0  0
 39 42  1  0  0  0  0
 40 38  1  0  0  0  0
 41 39  2  0  0  0  0
 43 40  1  0  0  0  0
 43 41  1  0  0  0  0
 44 42  1  0  0  0  0
M  END
>  <MODEL>
4

>  <REMARK>
 VINA RESULT:      -7.7      2.339      8.050
  Name = 
  10 active torsions:
  status: ('A' for Active; 'I' for Inactive)
    1  A    between atoms: C_2  and  N_40
    2  A    between atoms: N_7  and  N_25
    3  A    between atoms: N_8  and  C_39
    4  A    between atoms: C_9  and  N_28
    5  A    between atoms: C_9  and  C_42
    6  A    between atoms: C_23  and  C_39
    7  A    between atoms: N_25  and  N_38
    8  A    between atoms: C_33  and  C_35
    9  A    between atoms: N_38  and  C_41
   10  A    between atoms: C_41  and  C_42
                            x       y       z     vdW  Elec       q    Type
                         _______ _______ _______ _____ _____    ______ ____

>  <TORSDO>
F 10

$$$$
=
 OpenBabel11052411093D

 44 48  0  0  1  0  0  0  0  0999 V2000
  160.6820  206.5800  154.6660 N   0  0  0  0  0  0  0  0  0  0  0  0
  160.7950  209.7120  156.4700 C   0  0  0  0  0  3  0  0  0  0  0  0
  161.2050  211.4850  154.8880 C   0  0  0  0  0  3  0  0  0  0  0  0
  161.0530  209.2430  154.1100 C   0  0  0  0  0  0  0  0  0  0  0  0
  161.0840  208.3100  153.0630 C   0  0  0  0  0  0  0  0  0  0  0  0
  161.2330  210.5740  153.8780 N   0  0  0  0  0  0  0  0  0  0  0  0
  160.8290  208.7920  155.4210 C   0  0  0  0  0  0  0  0  0  0  0  0
  160.9090  206.9370  153.3690 C   0  0  0  0  0  0  0  0  0  0  0  0
  160.9850  211.0690  156.2040 C   0  0  0  0  0  3  0  0  0  0  0  0
  160.6440  207.4710  155.6560 N   0  0  0  0  0  0  0  0  0  0  0  0
  161.0280  204.0240  149.7440 C   0  0  0  0  0  0  0  0  0  0  0  0
  160.8880  205.3400  149.8690 C   0  0  0  0  0  3  0  0  0  0  0  0
  161.1470  204.4940  152.8450 C   0  0  0  0  0  3  0  0  0  0  0  0
  160.8550  206.1870  151.0600 C   0  0  0  0  0  3  0  0  0  0  0  0
  161.1830  203.1260  150.8060 O   0  0  0  0  0  0  0  0  0  0  0  0
  160.9420  205.8590  152.3470 C   0  0  0  0  0  0  0  0  0  0  0  0
  161.2450  203.3460  152.1830 C   0  0  0  0  0  3  0  0  0  0  0  0
  161.2400  203.6060  146.0660 N   0  0  0  0  0  0  0  0  0  0  0  0
  161.4660  204.2430  144.8330 N   0  0  0  0  0  2  0  0  0  0  0  0
  161.5220  205.7340  147.2190 C   0  0  0  0  0  2  0  0  0  0  0  0
  162.3280  206.1830  146.0050 C   0  0  0  0  0  2  0  0  0  0  0  0
  161.2810  204.2450  147.1980 C   0  0  0  0  0  0  0  0  0  0  0  0
  161.6380  205.6890  144.7460 C   0  0  0  0  0  2  0  0  0  0  0  0
  161.0100  203.5170  148.4040 N   0  0  0  0  0  2  0  0  0  0  0  0
  161.2840  208.7910  151.6560 C   0  0  0  0  0  2  0  0  0  0  0  0
  160.7690  210.1450  151.5280 N   0  0  0  0  0  2  0  0  0  0  0  0
  162.0820  210.6580  149.6690 O   0  0  0  0  0  0  0  0  0  0  0  0
  161.2320  211.0410  150.5160 C   0  0  0  0  0  0  0  0  0  0  0  0
  160.7490  212.3880  150.4650 N   0  0  0  0  0  2  0  0  0  0  0  0
  160.0220  214.4330  151.6020 C   0  0  0  0  0  1  0  0  0  0  0  0
  159.7650  212.9530  151.3860 C   0  0  1  0  0  3  0  0  0  0  0  0
  158.3390  212.7330  150.8910 C   0  0  0  0  0  2  0  0  0  0  0  0
  156.3000  214.1290  150.9760 C   0  0  0  0  0  1  0  0  0  0  0  0
  157.7030  214.0310  150.4170 C   0  0  2  0  0  3  0  0  0  0  0  0
  157.6420  214.0550  148.9650 N   0  0  0  0  0  2  0  0  0  0  0  0
  157.2060  212.7880  148.5570 N   0  0  0  0  0  2  0  0  0  0  0  0
  157.2800  212.7670  147.1590 N   0  0  0  0  0  2  0  0  0  0  0  0
  161.5270  212.5930  145.8470 O   0  0  0  0  0  0  0  0  0  0  0  0
  158.5340  212.6160  146.4980 C   0  0  0  0  0  0  0  0  0  0  0  0
  160.9060  213.1480  144.7260 C   0  0  0  0  0  2  0  0  0  0  0  0
  158.5510  212.5780  145.1970 N   0  0  0  0  0  0  0  0  0  0  0  0
  159.7000  212.5110  147.2690 O   0  0  0  0  0  0  0  0  0  0  0  0
  159.7090  212.2910  144.3520 C   0  0  0  0  0  2  0  0  0  0  0  0
  160.9050  213.1940  146.9430 C   0  0  0  0  0  2  0  0  0  0  0  0
  1 10  1  0  0  0  0
  3  9  1  0  0  0  0
  4  7  1  0  0  0  0
  5  8  1  0  0  0  0
  5  4  2  0  0  0  0
  6  4  1  0  0  0  0
  6  3  2  0  0  0  0
  7 10  2  0  0  0  0
  7  2  1  0  0  0  0
  8  1  2  0  0  0  0
  9  2  2  0  0  0  0
 11 12  2  0  0  0  0
 11 15  1  0  0  0  0
 12 14  1  0  0  0  0
 14 16  2  0  0  0  0
 15 17  1  0  0  0  0
 16 13  1  0  0  0  0
 16  8  1  0  0  0  0
 17 13  2  0  0  0  0
 18 22  2  0  0  0  0
 19 18  1  0  0  0  0
 21 20  1  0  0  0  0
 22 20  1  0  0  0  0
 22 24  1  0  0  0  0
 23 19  1  0  0  0  0
 23 21  1  0  0  0  0
 24 11  1  0  0  0  0
 25  5  1  0  0  0  0
 26 25  1  0  0  0  0
 27 28  2  0  0  0  0
 28 26  1  0  0  0  0
 29 28  1  0  0  0  0
 29 31  1  0  0  0  0
 31 30  1  6  0  0  0
 32 31  1  0  0  0  0
 34 32  1  0  0  0  0
 34 33  1  1  0  0  0
 35 34  1  0  0  0  0
 36 35  1  0  0  0  0
 37 36  1  0  0  0  0
 38 44  1  0  0  0  0
 39 37  1  0  0  0  0
 39 42  1  0  0  0  0
 40 38  1  0  0  0  0
 41 39  2  0  0  0  0
 43 40  1  0  0  0  0
 43 41  1  0  0  0  0
 44 42  1  0  0  0  0
M  END
>  <MODEL>
5

>  <REMARK>
 VINA RESULT:      -7.0      2.279      7.786
  Name = 
  10 active torsions:
  status: ('A' for Active; 'I' for Inactive)
    1  A    between atoms: C_2  and  N_40
    2  A    between atoms: N_7  and  N_25
    3  A    between atoms: N_8  and  C_39
    4  A    between atoms: C_9  and  N_28
    5  A    between atoms: C_9  and  C_42
    6  A    between atoms: C_23  and  C_39
    7  A    between atoms: N_25  and  N_38
    8  A    between atoms: C_33  and  C_35
    9  A    between atoms: N_38  and  C_41
   10  A    between atoms: C_41  and  C_42
                            x       y       z     vdW  Elec       q    Type
                         _______ _______ _______ _____ _____    ______ ____

>  <TORSDO>
F 10

$$$$
=
 OpenBabel11052411093D

 44 48  0  0  1  0  0  0  0  0999 V2000
  161.4440  210.4750  155.9390 N   0  0  0  0  0  0  0  0  0  0  0  0
  159.9330  213.5160  157.1820 C   0  0  0  0  0  3  0  0  0  0  0  0
  157.9370  213.9510  155.9020 C   0  0  0  0  0  3  0  0  0  0  0  0
  159.2430  212.0260  155.4050 C   0  0  0  0  0  0  0  0  0  0  0  0
  159.4680  210.8670  154.6490 C   0  0  0  0  0  0  0  0  0  0  0  0
  158.1630  212.8250  155.1730 N   0  0  0  0  0  0  0  0  0  0  0  0
  160.1490  212.3660  156.4230 C   0  0  0  0  0  0  0  0  0  0  0  0
  160.6190  210.0870  154.9250 C   0  0  0  0  0  0  0  0  0  0  0  0
  158.8200  214.3180  156.9210 C   0  0  0  0  0  3  0  0  0  0  0  0
  161.2210  211.5730  156.6620 N   0  0  0  0  0  0  0  0  0  0  0  0
  161.3830  205.9120  153.0210 C   0  0  0  0  0  0  0  0  0  0  0  0
  160.8290  206.3230  154.1570 C   0  0  0  0  0  3  0  0  0  0  0  0
  161.6110  209.0390  152.8710 C   0  0  0  0  0  3  0  0  0  0  0  0
  160.6310  207.6710  154.6890 C   0  0  0  0  0  3  0  0  0  0  0  0
  161.9230  206.7500  152.0380 O   0  0  0  0  0  0  0  0  0  0  0  0
  160.9710  208.8520  154.1780 C   0  0  0  0  0  0  0  0  0  0  0  0
  162.0110  208.1420  151.9770 C   0  0  0  0  0  3  0  0  0  0  0  0
  161.2650  202.4910  151.5970 N   0  0  0  0  0  0  0  0  0  0  0  0
  161.0080  201.7150  150.4520 N   0  0  0  0  0  2  0  0  0  0  0  0
  160.7020  204.5100  150.3540 C   0  0  0  0  0  2  0  0  0  0  0  0
  161.0450  203.7230  149.0940 C   0  0  0  0  0  2  0  0  0  0  0  0
  161.1630  203.7880  151.5960 C   0  0  0  0  0  0  0  0  0  0  0  0
  160.4920  202.3150  149.2270 C   0  0  0  0  0  2  0  0  0  0  0  0
  161.4170  204.4940  152.8180 N   0  0  0  0  0  2  0  0  0  0  0  0
  158.4820  210.4800  153.5870 C   0  0  0  0  0  2  0  0  0  0  0  0
  158.4920  211.4770  152.5280 N   0  0  0  0  0  2  0  0  0  0  0  0
  160.7900  211.8560  152.6630 O   0  0  0  0  0  0  0  0  0  0  0  0
  159.6880  212.1480  152.1270 C   0  0  0  0  0  0  0  0  0  0  0  0
  159.6450  213.1710  151.1270 N   0  0  0  0  0  2  0  0  0  0  0  0
  157.5380  214.4010  151.3600 C   0  0  0  0  0  1  0  0  0  0  0  0
  158.4340  213.6020  150.4310 C   0  0  1  0  0  3  0  0  0  0  0  0
  158.7610  214.4170  149.1840 C   0  0  0  0  0  2  0  0  0  0  0  0
  160.8940  213.7580  148.1210 C   0  0  0  0  0  1  0  0  0  0  0  0
  159.3940  213.5560  148.1020 C   0  0  2  0  0  3  0  0  0  0  0  0
  158.8770  213.9360  146.7970 N   0  0  0  0  0  2  0  0  0  0  0  0
  158.5710  212.7470  146.1210 N   0  0  0  0  0  2  0  0  0  0  0  0
  158.8020  212.9860  144.7610 N   0  0  0  0  0  2  0  0  0  0  0  0
  163.1730  213.0900  143.9390 O   0  0  0  0  0  0  0  0  0  0  0  0
  160.1270  212.9700  144.2330 C   0  0  0  0  0  0  0  0  0  0  0  0
  162.6660  213.8390  142.8750 C   0  0  0  0  0  2  0  0  0  0  0  0
  160.2910  213.1730  142.9580 N   0  0  0  0  0  0  0  0  0  0  0  0
  161.2010  212.7320  145.1020 O   0  0  0  0  0  0  0  0  0  0  0  0
  161.5440  213.0560  142.2150 C   0  0  0  0  0  2  0  0  0  0  0  0
  162.4150  213.4740  145.0470 C   0  0  0  0  0  2  0  0  0  0  0  0
  1 10  1  0  0  0  0
  3  9  1  0  0  0  0
  4  7  1  0  0  0  0
  5  8  1  0  0  0  0
  5  4  2  0  0  0  0
  6  4  1  0  0  0  0
  6  3  2  0  0  0  0
  7 10  2  0  0  0  0
  7  2  1  0  0  0  0
  8  1  2  0  0  0  0
  9  2  2  0  0  0  0
 11 12  2  0  0  0  0
 12 14  1  0  0  0  0
 13 16  1  0  0  0  0
 15 11  1  0  0  0  0
 16 14  2  0  0  0  0
 16  8  1  0  0  0  0
 17 15  1  0  0  0  0
 17 13  2  0  0  0  0
 19 18  1  0  0  0  0
 20 22  1  0  0  0  0
 21 23  1  0  0  0  0
 21 20  1  0  0  0  0
 22 18  2  0  0  0  0
 22 24  1  0  0  0  0
 23 19  1  0  0  0  0
 24 11  1  0  0  0  0
 25  5  1  0  0  0  0
 26 25  1  0  0  0  0
 28 26  1  0  0  0  0
 28 27  2  0  0  0  0
 29 28  1  0  0  0  0
 31 29  1  0  0  0  0
 31 30  1  1  0  0  0
 32 31  1  0  0  0  0
 34 33  1  6  0  0  0
 34 32  1  0  0  0  0
 35 34  1  0  0  0  0
 36 35  1  0  0  0  0
 37 36  1  0  0  0  0
 38 44  1  0  0  0  0
 39 37  1  0  0  0  0
 39 42  1  0  0  0  0
 40 38  1  0  0  0  0
 41 39  2  0  0  0  0
 43 40  1  0  0  0  0
 43 41  1  0  0  0  0
 44 42  1  0  0  0  0
M  END
>  <MODEL>
6

>  <REMARK>
 VINA RESULT:      -6.3      2.552      8.545
  Name = 
  10 active torsions:
  status: ('A' for Active; 'I' for Inactive)
    1  A    between atoms: C_2  and  N_40
    2  A    between atoms: N_7  and  N_25
    3  A    between atoms: N_8  and  C_39
    4  A    between atoms: C_9  and  N_28
    5  A    between atoms: C_9  and  C_42
    6  A    between atoms: C_23  and  C_39
    7  A    between atoms: N_25  and  N_38
    8  A    between atoms: C_33  and  C_35
    9  A    between atoms: N_38  and  C_41
   10  A    between atoms: C_41  and  C_42
                            x       y       z     vdW  Elec       q    Type
                         _______ _______ _______ _____ _____    ______ ____

>  <TORSDO>
F 10

$$$$
=
 OpenBabel11052411093D

 44 48  0  0  1  0  0  0  0  0999 V2000
  160.2010  206.4870  154.1620 N   0  0  0  0  0  0  0  0  0  0  0  0
  160.5980  209.5670  156.0150 C   0  0  0  0  0  3  0  0  0  0  0  0
  161.9360  211.0800  154.6970 C   0  0  0  0  0  3  0  0  0  0  0  0
  161.4300  208.9210  153.8360 C   0  0  0  0  0  0  0  0  0  0  0  0
  161.5270  207.9600  152.8200 C   0  0  0  0  0  0  0  0  0  0  0  0
  162.0250  210.1410  153.7160 N   0  0  0  0  0  0  0  0  0  0  0  0
  160.7020  208.6170  154.9980 C   0  0  0  0  0  0  0  0  0  0  0  0
  160.9020  206.7010  153.0110 C   0  0  0  0  0  0  0  0  0  0  0  0
  161.2200  210.8080  155.8660 C   0  0  0  0  0  3  0  0  0  0  0  0
  160.1040  207.4080  155.1210 N   0  0  0  0  0  0  0  0  0  0  0  0
  161.1010  203.7090  149.4550 C   0  0  0  0  0  0  0  0  0  0  0  0
  160.9760  205.0290  149.5480 C   0  0  0  0  0  3  0  0  0  0  0  0
  161.1210  204.2440  152.5480 C   0  0  0  0  0  3  0  0  0  0  0  0
  160.9160  205.9020  150.7190 C   0  0  0  0  0  3  0  0  0  0  0  0
  161.2070  202.8310  150.5410 O   0  0  0  0  0  0  0  0  0  0  0  0
  160.9530  205.6000  152.0140 C   0  0  0  0  0  0  0  0  0  0  0  0
  161.2250  203.0810  151.9150 C   0  0  0  0  0  3  0  0  0  0  0  0
  161.2840  203.2370  145.7830 N   0  0  0  0  0  0  0  0  0  0  0  0
  161.3940  203.8700  144.5310 N   0  0  0  0  0  2  0  0  0  0  0  0
  161.3030  205.4100  146.8850 C   0  0  0  0  0  2  0  0  0  0  0  0
  162.0130  205.9350  145.6420 C   0  0  0  0  0  2  0  0  0  0  0  0
  161.2640  203.9020  146.9000 C   0  0  0  0  0  0  0  0  0  0  0  0
  161.3680  205.3230  144.4110 C   0  0  0  0  0  2  0  0  0  0  0  0
  161.1210  203.1720  148.1270 N   0  0  0  0  0  2  0  0  0  0  0  0
  162.2710  208.2930  151.5610 C   0  0  0  0  0  2  0  0  0  0  0  0
  161.6880  209.4790  150.9530 N   0  0  0  0  0  2  0  0  0  0  0  0
  162.6690  209.1100  148.8690 O   0  0  0  0  0  0  0  0  0  0  0  0
  161.9490  209.8440  149.5960 C   0  0  0  0  0  0  0  0  0  0  0  0
  161.4100  211.0540  149.0550 N   0  0  0  0  0  2  0  0  0  0  0  0
  161.1450  212.2740  151.1630 C   0  0  0  0  0  1  0  0  0  0  0  0
  160.5620  211.9890  149.7920 C   0  0  1  0  0  3  0  0  0  0  0  0
  160.3600  213.2920  149.0240 C   0  0  0  0  0  2  0  0  0  0  0  0
  161.7840  214.4520  147.3680 C   0  0  0  0  0  1  0  0  0  0  0  0
  160.9490  213.2150  147.6240 C   0  0  2  0  0  3  0  0  0  0  0  0
  159.8830  213.1440  146.6380 N   0  0  0  0  0  2  0  0  0  0  0  0
  160.4390  212.5840  145.4800 N   0  0  0  0  0  2  0  0  0  0  0  0
  159.6230  212.9750  144.4120 N   0  0  0  0  0  2  0  0  0  0  0  0
  161.4160  211.6780  140.5520 O   0  0  0  0  0  0  0  0  0  0  0  0
  159.9380  212.5900  143.0750 C   0  0  0  0  0  0  0  0  0  0  0  0
  160.6080  212.7420  140.1470 C   0  0  0  0  0  2  0  0  0  0  0  0
  159.1360  212.9560  142.1170 N   0  0  0  0  0  0  0  0  0  0  0  0
  161.0930  211.8310  142.8420 O   0  0  0  0  0  0  0  0  0  0  0  0
  159.2140  212.5450  140.7170 C   0  0  0  0  0  2  0  0  0  0  0  0
  161.9810  212.0910  141.7610 C   0  0  0  0  0  2  0  0  0  0  0  0
  1 10  1  0  0  0  0
  3  9  1  0  0  0  0
  4  7  1  0  0  0  0
  5  8  1  0  0  0  0
  5  4  2  0  0  0  0
  6  4  1  0  0  0  0
  6  3  2  0  0  0  0
  7 10  2  0  0  0  0
  7  2  1  0  0  0  0
  8  1  2  0  0  0  0
  9  2  2  0  0  0  0
 11 12  2  0  0  0  0
 11 15  1  0  0  0  0
 12 14  1  0  0  0  0
 14 16  2  0  0  0  0
 15 17  1  0  0  0  0
 16 13  1  0  0  0  0
 16  8  1  0  0  0  0
 17 13  2  0  0  0  0
 18 22  2  0  0  0  0
 19 18  1  0  0  0  0
 20 22  1  0  0  0  0
 21 20  1  0  0  0  0
 22 24  1  0  0  0  0
 23 19  1  0  0  0  0
 23 21  1  0  0  0  0
 24 11  1  0  0  0  0
 25  5  1  0  0  0  0
 26 25  1  0  0  0  0
 27 28  2  0  0  0  0
 28 26  1  0  0  0  0
 29 28  1  0  0  0  0
 29 31  1  0  0  0  0
 31 30  1  1  0  0  0
 32 31  1  0  0  0  0
 34 33  1  6  0  0  0
 34 32  1  0  0  0  0
 35 34  1  0  0  0  0
 36 35  1  0  0  0  0
 37 36  1  0  0  0  0
 38 44  1  0  0  0  0
 39 37  1  0  0  0  0
 40 38  1  0  0  0  0
 40 43  1  0  0  0  0
 41 39  2  0  0  0  0
 42 39  1  0  0  0  0
 43 41  1  0  0  0  0
 44 42  1  0  0  0  0
M  END
>  <MODEL>
7

>  <REMARK>
 VINA RESULT:      -6.1      2.097      7.898
  Name = 
  10 active torsions:
  status: ('A' for Active; 'I' for Inactive)
    1  A    between atoms: C_2  and  N_40
    2  A    between atoms: N_7  and  N_25
    3  A    between atoms: N_8  and  C_39
    4  A    between atoms: C_9  and  N_28
    5  A    between atoms: C_9  and  C_42
    6  A    between atoms: C_23  and  C_39
    7  A    between atoms: N_25  and  N_38
    8  A    between atoms: C_33  and  C_35
    9  A    between atoms: N_38  and  C_41
   10  A    between atoms: C_41  and  C_42
                            x       y       z     vdW  Elec       q    Type
                         _______ _______ _______ _____ _____    ______ ____

>  <TORSDO>
F 10

$$$$
=
 OpenBabel11052411093D

 44 48  0  0  1  0  0  0  0  0999 V2000
  160.3850  205.9170  149.0890 N   0  0  0  0  0  0  0  0  0  0  0  0
  160.3710  202.3700  149.7930 C   0  0  0  0  0  3  0  0  0  0  0  0
  161.8780  201.9550  151.6290 C   0  0  0  0  0  3  0  0  0  0  0  0
  161.5860  204.1800  150.8430 C   0  0  0  0  0  0  0  0  0  0  0  0
  161.8840  205.5490  150.9160 C   0  0  0  0  0  0  0  0  0  0  0  0
  162.1610  203.2840  151.6940 N   0  0  0  0  0  0  0  0  0  0  0  0
  160.6760  203.7290  149.8730 C   0  0  0  0  0  0  0  0  0  0  0  0
  161.2690  206.4300  149.9910 C   0  0  0  0  0  0  0  0  0  0  0  0
  160.9760  201.4740  150.6760 C   0  0  0  0  0  3  0  0  0  0  0  0
  160.0970  204.6170  149.0290 N   0  0  0  0  0  0  0  0  0  0  0  0
  162.1300  210.9450  149.2730 C   0  0  0  0  0  0  0  0  0  0  0  0
  162.1880  209.8590  148.5090 C   0  0  0  0  0  3  0  0  0  0  0  0
  161.2530  208.6290  151.2020 C   0  0  0  0  0  3  0  0  0  0  0  0
  161.9030  208.4580  148.8170 C   0  0  0  0  0  3  0  0  0  0  0  0
  161.7570  210.9610  150.6220 O   0  0  0  0  0  0  0  0  0  0  0  0
  161.5220  207.8940  149.9610 C   0  0  0  0  0  0  0  0  0  0  0  0
  161.3580  209.9250  151.4690 C   0  0  0  0  0  3  0  0  0  0  0  0
  162.3850  213.8660  147.0050 N   0  0  0  0  0  0  0  0  0  0  0  0
  161.9380  214.4530  145.8070 N   0  0  0  0  0  2  0  0  0  0  0  0
  160.9790  211.9220  146.5780 C   0  0  0  0  0  2  0  0  0  0  0  0
  160.1310  212.8390  145.7030 C   0  0  0  0  0  2  0  0  0  0  0  0
  161.9530  212.7110  147.4180 C   0  0  0  0  0  0  0  0  0  0  0  0
  161.0520  213.7390  144.8960 C   0  0  0  0  0  2  0  0  0  0  0  0
  162.4870  212.1780  148.6380 N   0  0  0  0  0  2  0  0  0  0  0  0
  162.8270  206.0400  151.9740 C   0  0  0  0  0  2  0  0  0  0  0  0
  162.0860  206.7990  152.9700 N   0  0  0  0  0  2  0  0  0  0  0  0
  161.0380  204.9240  153.8790 O   0  0  0  0  0  0  0  0  0  0  0  0
  161.1840  206.1750  153.8850 C   0  0  0  0  0  0  0  0  0  0  0  0
  160.4240  206.9640  154.8050 N   0  0  0  0  0  2  0  0  0  0  0  0
  159.1290  209.0120  155.1740 C   0  0  0  0  0  1  0  0  0  0  0  0
  160.5020  208.4200  154.9130 C   0  0  1  0  0  3  0  0  0  0  0  0
  161.4780  208.8520  156.0030 C   0  0  0  0  0  2  0  0  0  0  0  0
  163.0880  210.6920  156.3730 C   0  0  0  0  0  1  0  0  0  0  0  0
  161.6500  210.3630  156.0350 C   0  0  2  0  0  3  0  0  0  0  0  0
  160.7770  210.9430  157.0420 N   0  0  0  0  0  2  0  0  0  0  0  0
  160.8060  212.3310  156.8530 N   0  0  0  0  0  2  0  0  0  0  0  0
  160.2010  212.5810  155.6150 N   0  0  0  0  0  2  0  0  0  0  0  0
  155.7720  212.4580  156.0120 O   0  0  0  0  0  0  0  0  0  0  0  0
  158.7840  212.6890  155.5040 C   0  0  0  0  0  0  0  0  0  0  0  0
  155.9430  212.1830  154.6540 C   0  0  0  0  0  2  0  0  0  0  0  0
  158.2690  212.9470  154.3370 N   0  0  0  0  0  0  0  0  0  0  0  0
  157.9980  212.5180  156.6520 O   0  0  0  0  0  0  0  0  0  0  0  0
  156.8630  213.2310  154.0520 C   0  0  0  0  0  2  0  0  0  0  0  0
  156.7940  211.7580  156.6570 C   0  0  0  0  0  2  0  0  0  0  0  0
  1  8  1  0  0  0  0
  2  7  2  0  0  0  0
  2  9  1  0  0  0  0
  3  6  1  0  0  0  0
  4  5  1  0  0  0  0
  4  6  2  0  0  0  0
  5 25  1  0  0  0  0
  7  4  1  0  0  0  0
  8  5  2  0  0  0  0
  9  3  2  0  0  0  0
 10  1  2  0  0  0  0
 10  7  1  0  0  0  0
 11 15  1  0  0  0  0
 12 14  1  0  0  0  0
 12 11  2  0  0  0  0
 13 17  2  0  0  0  0
 14 16  2  0  0  0  0
 15 17  1  0  0  0  0
 16  8  1  0  0  0  0
 16 13  1  0  0  0  0
 18 22  2  0  0  0  0
 19 18  1  0  0  0  0
 20 22  1  0  0  0  0
 21 20  1  0  0  0  0
 22 24  1  0  0  0  0
 23 21  1  0  0  0  0
 23 19  1  0  0  0  0
 24 11  1  0  0  0  0
 25 26  1  0  0  0  0
 26 28  1  0  0  0  0
 27 28  2  0  0  0  0
 28 29  1  0  0  0  0
 29 31  1  0  0  0  0
 31 30  1  1  0  0  0
 31 32  1  0  0  0  0
 32 34  1  0  0  0  0
 34 33  1  1  0  0  0
 34 35  1  0  0  0  0
 36 35  1  0  0  0  0
 37 36  1  0  0  0  0
 38 44  1  0  0  0  0
 39 37  1  0  0  0  0
 39 42  1  0  0  0  0
 40 38  1  0  0  0  0
 41 39  2  0  0  0  0
 42 44  1  0  0  0  0
 43 41  1  0  0  0  0
 43 40  1  0  0  0  0
M  END
>  <MODEL>
8

>  <REMARK>
 VINA RESULT:      -5.8      3.126      8.083
  Name = 
  10 active torsions:
  status: ('A' for Active; 'I' for Inactive)
    1  A    between atoms: C_2  and  N_40
    2  A    between atoms: N_7  and  N_25
    3  A    between atoms: N_8  and  C_39
    4  A    between atoms: C_9  and  N_28
    5  A    between atoms: C_9  and  C_42
    6  A    between atoms: C_23  and  C_39
    7  A    between atoms: N_25  and  N_38
    8  A    between atoms: C_33  and  C_35
    9  A    between atoms: N_38  and  C_41
   10  A    between atoms: C_41  and  C_42
                            x       y       z     vdW  Elec       q    Type
                         _______ _______ _______ _____ _____    ______ ____

>  <TORSDO>
F 10

$$$$
=
 OpenBabel11052411093D

 44 48  0  0  1  0  0  0  0  0999 V2000
  160.4420  205.9360  149.0440 N   0  0  0  0  0  0  0  0  0  0  0  0
  160.3360  202.4290  149.9190 C   0  0  0  0  0  3  0  0  0  0  0  0
  161.7260  202.0880  151.8600 C   0  0  0  0  0  3  0  0  0  0  0  0
  161.5140  204.2750  150.9490 C   0  0  0  0  0  0  0  0  0  0  0  0
  161.8260  205.6420  150.9730 C   0  0  0  0  0  0  0  0  0  0  0  0
  162.0250  203.4160  151.8760 N   0  0  0  0  0  0  0  0  0  0  0  0
  160.6550  203.7870  149.9510 C   0  0  0  0  0  0  0  0  0  0  0  0
  161.2800  206.4830  149.9720 C   0  0  0  0  0  0  0  0  0  0  0  0
  160.8760  201.5700  150.8790 C   0  0  0  0  0  3  0  0  0  0  0  0
  160.1400  204.6380  149.0310 N   0  0  0  0  0  0  0  0  0  0  0  0
  162.2070  210.9530  149.0800 C   0  0  0  0  0  0  0  0  0  0  0  0
  162.2460  209.8390  148.3580 C   0  0  0  0  0  3  0  0  0  0  0  0
  161.3010  208.7260  151.0980 C   0  0  0  0  0  3  0  0  0  0  0  0
  161.9410  208.4550  148.7190 C   0  0  0  0  0  3  0  0  0  0  0  0
  161.8390  211.0270  150.4290 O   0  0  0  0  0  0  0  0  0  0  0  0
  161.5550  207.9410  149.8850 C   0  0  0  0  0  0  0  0  0  0  0  0
  161.4270  210.0300  151.3160 C   0  0  0  0  0  3  0  0  0  0  0  0
  162.4310  213.8380  146.7620 N   0  0  0  0  0  0  0  0  0  0  0  0
  161.9070  214.4470  145.6070 N   0  0  0  0  0  2  0  0  0  0  0  0
  160.8620  211.9920  146.5000 C   0  0  0  0  0  2  0  0  0  0  0  0
  159.9950  212.9590  145.7020 C   0  0  0  0  0  2  0  0  0  0  0  0
  161.9660  212.7170  147.2300 C   0  0  0  0  0  0  0  0  0  0  0  0
  160.8890  213.7890  144.7970 C   0  0  0  0  0  2  0  0  0  0  0  0
  162.5820  212.1560  148.3980 N   0  0  0  0  0  2  0  0  0  0  0  0
  162.7120  206.1740  152.0600 C   0  0  0  0  0  2  0  0  0  0  0  0
  161.9230  206.9810  152.9780 N   0  0  0  0  0  2  0  0  0  0  0  0
  161.0450  205.1460  154.1190 O   0  0  0  0  0  0  0  0  0  0  0  0
  161.0870  206.3970  153.9780 C   0  0  0  0  0  0  0  0  0  0  0  0
  160.2740  207.2240  154.8180 N   0  0  0  0  0  2  0  0  0  0  0  0
  159.0480  209.2190  155.5390 C   0  0  0  0  0  1  0  0  0  0  0  0
  160.2320  208.6830  154.7560 C   0  0  1  0  0  3  0  0  0  0  0  0
  161.5280  209.3060  155.2670 C   0  0  0  0  0  2  0  0  0  0  0  0
  161.2860  211.4790  156.4220 C   0  0  0  0  0  1  0  0  0  0  0  0
  161.5340  210.8160  155.0840 C   0  0  2  0  0  3  0  0  0  0  0  0
  160.4890  211.2100  154.1540 N   0  0  0  0  0  2  0  0  0  0  0  0
  160.1930  212.5530  154.4220 N   0  0  0  0  0  2  0  0  0  0  0  0
  158.9670  212.8260  153.8050 N   0  0  0  0  0  2  0  0  0  0  0  0
  159.5830  213.7370  149.4940 O   0  0  0  0  0  0  0  0  0  0  0  0
  158.8930  213.0540  152.3990 C   0  0  0  0  0  0  0  0  0  0  0  0
  158.3670  214.3750  149.7480 C   0  0  0  0  0  2  0  0  0  0  0  0
  157.7270  213.2800  151.8660 N   0  0  0  0  0  0  0  0  0  0  0  0
  160.0730  213.0230  151.6430 O   0  0  0  0  0  0  0  0  0  0  0  0
  157.4330  213.3960  150.4390 C   0  0  0  0  0  2  0  0  0  0  0  0
  160.3630  213.9760  150.6270 C   0  0  0  0  0  2  0  0  0  0  0  0
  1  8  1  0  0  0  0
  2  7  2  0  0  0  0
  2  9  1  0  0  0  0
  3  6  1  0  0  0  0
  4  5  1  0  0  0  0
  4  6  2  0  0  0  0
  5 25  1  0  0  0  0
  7  4  1  0  0  0  0
  8  5  2  0  0  0  0
  9  3  2  0  0  0  0
 10  1  2  0  0  0  0
 10  7  1  0  0  0  0
 11 15  1  0  0  0  0
 12 14  1  0  0  0  0
 12 11  2  0  0  0  0
 13 17  2  0  0  0  0
 14 16  2  0  0  0  0
 15 17  1  0  0  0  0
 16  8  1  0  0  0  0
 16 13  1  0  0  0  0
 18 22  2  0  0  0  0
 19 18  1  0  0  0  0
 20 22  1  0  0  0  0
 21 20  1  0  0  0  0
 22 24  1  0  0  0  0
 23 19  1  0  0  0  0
 23 21  1  0  0  0  0
 24 11  1  0  0  0  0
 25 26  1  0  0  0  0
 26 28  1  0  0  0  0
 28 27  2  0  0  0  0
 28 29  1  0  0  0  0
 31 29  1  0  0  0  0
 31 32  1  0  0  0  0
 31 30  1  1  0  0  0
 34 32  1  0  0  0  0
 34 33  1  1  0  0  0
 35 36  1  0  0  0  0
 35 34  1  0  0  0  0
 37 36  1  0  0  0  0
 38 40  1  0  0  0  0
 38 44  1  0  0  0  0
 39 37  1  0  0  0  0
 40 43  1  0  0  0  0
 41 39  2  0  0  0  0
 42 39  1  0  0  0  0
 43 41  1  0  0  0  0
 44 42  1  0  0  0  0
M  END
>  <MODEL>
9

>  <REMARK>
 VINA RESULT:      -5.4      2.740      7.319
  Name = 
  10 active torsions:
  status: ('A' for Active; 'I' for Inactive)
    1  A    between atoms: C_2  and  N_40
    2  A    between atoms: N_7  and  N_25
    3  A    between atoms: N_8  and  C_39
    4  A    between atoms: C_9  and  N_28
    5  A    between atoms: C_9  and  C_42
    6  A    between atoms: C_23  and  C_39
    7  A    between atoms: N_25  and  N_38
    8  A    between atoms: C_33  and  C_35
    9  A    between atoms: N_38  and  C_41
   10  A    between atoms: C_41  and  C_42
                            x       y       z     vdW  Elec       q    Type
                         _______ _______ _______ _____ _____    ______ ____

>  <TORSDO>
F 10

$$$$
