=
 OpenBabel11042421083D

 36 39  0  0  1  0  0  0  0  0999 V2000
  160.6960  208.0650  156.2980 S   0  0  0  0  0  0  0  0  0  0  0  0
  159.4540  210.3650  157.2150 N   0  0  0  0  0  1  0  0  0  0  0  0
  160.9450  207.9190  154.6430 C   0  0  0  0  0  0  0  0  0  0  0  0
  161.3240  207.6700  152.4190 C   0  0  0  0  0  0  0  0  0  0  0  0
  159.9050  209.9770  154.7910 C   0  0  0  0  0  0  0  0  0  0  0  0
  160.6660  208.9400  152.5880 N   0  0  0  0  0  0  0  0  0  0  0  0
  159.9540  209.5910  156.1320 C   0  0  0  0  0  0  0  0  0  0  0  0
  161.6860  207.1960  151.2150 C   0  0  2  0  0  3  0  0  0  0  0  0
  159.3780  211.1390  154.3360 F   0  0  0  0  0  0  0  0  0  0  0  0
  161.5460  206.9290  153.7260 C   0  0  0  0  0  3  0  0  0  0  0  0
  160.4770  208.9990  153.9880 C   0  0  1  0  0  3  0  0  0  0  0  0
  160.7530  207.2400  148.8690 C   0  0  0  0  0  1  0  0  0  0  0  0
  161.8590  209.2570  149.8500 C   0  0  0  0  0  0  0  0  0  0  0  0
  161.4380  207.9720  149.9780 C   0  0  0  0  0  0  0  0  0  0  0  0
  162.6530  209.9010  150.9410 C   0  0  0  0  0  1  0  0  0  0  0  0
  161.6360  210.1260  148.6690 C   0  0  0  0  0  3  0  0  0  0  0  0
  161.9570  212.7160  148.5750 C   0  0  0  0  0  3  0  0  0  0  0  0
  161.7970  211.4220  148.6280 C   0  0  0  0  0  0  0  0  0  0  0  0
  162.3390  212.7190  143.4810 C   0  0  0  0  0  3  0  0  0  0  0  0
  163.0530  213.6770  145.7520 C   0  0  0  0  0  3  0  0  0  0  0  0
  160.8690  212.6950  145.3850 C   0  0  0  0  0  0  0  0  0  0  0  0
  161.2380  213.5250  147.5480 C   0  0  1  0  0  3  0  0  0  0  0  0
  160.1090  211.7640  143.1070 C   0  0  0  0  0  1  0  0  0  0  0  0
  159.7710  212.5000  146.0260 N   0  0  0  0  0  2  0  0  0  0  0  0
  163.4390  213.3660  144.3170 C   0  0  0  0  0  3  0  0  0  0  0  0
  161.8550  213.3240  146.2120 C   0  0  0  0  0  0  0  0  0  0  0  0
  159.9380  212.9710  147.3150 O   0  0  0  0  0  0  0  0  0  0  0  0
  161.1380  212.3940  143.9780 C   0  0  0  0  0  0  0  0  0  0  0  0
  162.2930  205.8320  151.0900 C   0  0  0  0  0  2  0  0  0  0  0  0
  161.2280  204.7590  151.2460 C   0  0  0  0  0  2  0  0  0  0  0  0
  161.4420  203.6490  150.2280 C   0  0  2  0  0  3  0  0  0  0  0  0
  160.8820  204.0380  148.9440 N   0  0  0  0  0  1  0  0  0  0  0  0
  160.8570  202.3130  150.6930 C   0  0  0  0  0  2  0  0  0  0  0  0
  159.2460  201.3070  149.2460 O   0  0  0  0  0  1  0  0  0  0  0  0
  160.4590  201.4260  149.5570 C   0  0  0  0  0  0  0  0  0  0  0  0
  161.4290  200.7530  148.8270 O   0  0  0  0  0  0  0  0  0  0  0  0
  3  1  1  0  0  0  0
  4  6  2  0  0  0  0
  4 10  1  0  0  0  0
  5  7  2  0  0  0  0
  7  1  1  0  0  0  0
  7  2  1  0  0  0  0
  8 29  1  6  0  0  0
  8  4  1  0  0  0  0
  9  5  1  0  0  0  0
 10  3  2  0  0  0  0
 11  6  1  1  0  0  0
 11  3  1  0  0  0  0
 11  5  1  0  0  0  0
 12 14  1  0  0  0  0
 13 14  2  0  0  0  0
 13 15  1  0  0  0  0
 14  8  1  0  0  0  0
 16 13  1  0  0  0  0
 17 18  2  0  0  0  0
 18 16  2  0  0  0  0
 19 28  2  0  0  0  0
 19 25  1  0  0  0  0
 20 26  1  0  0  0  0
 21 24  1  0  0  0  0
 21 26  2  0  0  0  0
 22 17  1  1  0  0  0
 23 28  1  0  0  0  0
 24 27  1  0  0  0  0
 25 20  2  0  0  0  0
 26 22  1  0  0  0  0
 27 22  1  0  0  0  0
 28 21  1  0  0  0  0
 29 30  1  0  0  0  0
 31 32  1  6  0  0  0
 31 33  1  0  0  0  0
 31 30  1  0  0  0  0
 34 35  1  0  0  0  0
 35 33  1  0  0  0  0
 36 35  2  0  0  0  0
M  END
>  <MODEL>
1

>  <REMARK>
 VINA RESULT:      -7.9      0.000      0.000
  Name = 
  8 active torsions:
  status: ('A' for Active; 'I' for Inactive)
    1  A    between atoms: C_7  and  C_19
    2  A    between atoms: C_9  and  C_16
    3  A    between atoms: C_14  and  C_21
    4  A    between atoms: C_14  and  C_24
    5  A    between atoms: C_15  and  C_26
    6  A    between atoms: C_21  and  C_32
    7  A    between atoms: C_24  and  C_25
    8  A    between atoms: C_25  and  C_26
                            x       y       z     vdW  Elec       q    Type
                         _______ _______ _______ _____ _____    ______ ____

>  <TORSDO>
F 8

$$$$
=
 OpenBabel11042421083D

 36 39  0  0  1  0  0  0  0  0999 V2000
  161.2040  202.3410  151.0170 S   0  0  0  0  0  0  0  0  0  0  0  0
  160.8240  200.6160  148.8830 N   0  0  0  0  0  1  0  0  0  0  0  0
  161.3520  203.9800  150.6780 C   0  0  0  0  0  0  0  0  0  0  0  0
  161.5420  206.2080  150.2880 C   0  0  0  0  0  0  0  0  0  0  0  0
  161.0640  203.0800  148.5710 C   0  0  0  0  0  0  0  0  0  0  0  0
  161.3660  205.5750  149.0060 N   0  0  0  0  0  0  0  0  0  0  0  0
  161.0130  201.9380  149.3710 C   0  0  0  0  0  0  0  0  0  0  0  0
  161.7020  207.5340  150.4270 C   0  0  0  0  0  0  0  0  0  0  0  0
  160.9420  203.0890  147.2210 F   0  0  0  0  0  0  0  0  0  0  0  0
  161.5470  205.2260  151.4480 C   0  0  0  0  0  2  0  0  0  0  0  0
  161.2580  204.2100  149.3540 C   0  0  0  0  0  0  0  0  0  0  0  0
  161.4770  207.7810  147.9240 C   0  0  0  0  0  1  0  0  0  0  0  0
  161.9070  209.7710  149.3770 C   0  0  1  0  0  3  0  0  0  0  0  0
  161.6880  208.4360  149.2510 C   0  0  0  0  0  0  0  0  0  0  0  0
  162.2410  210.3550  150.7120 C   0  0  0  0  0  1  0  0  0  0  0  0
  161.8860  210.7580  148.2710 C   0  0  0  0  0  3  0  0  0  0  0  0
  161.3660  213.3090  148.4870 C   0  0  0  0  0  3  0  0  0  0  0  0
  161.6230  212.0330  148.3840 C   0  0  0  0  0  0  0  0  0  0  0  0
  162.3430  212.7350  143.5060 C   0  0  0  0  0  3  0  0  0  0  0  0
  162.8940  213.8440  145.7540 C   0  0  0  0  0  3  0  0  0  0  0  0
  160.6660  213.0700  145.1990 C   0  0  0  0  0  0  0  0  0  0  0  0
  160.8750  214.0780  147.3080 C   0  0  1  0  0  3  0  0  0  0  0  0
  160.0740  211.9910  142.9370 C   0  0  0  0  0  1  0  0  0  0  0  0
  159.4850  213.0620  145.7090 N   0  0  0  0  0  2  0  0  0  0  0  0
  163.4060  213.3450  144.4150 C   0  0  0  0  0  3  0  0  0  0  0  0
  161.6160  213.6720  146.0860 C   0  0  0  0  0  0  0  0  0  0  0  0
  159.5550  213.6450  146.9600 O   0  0  0  0  0  0  0  0  0  0  0  0
  161.0610  212.5960  143.8720 C   0  0  0  0  0  0  0  0  0  0  0  0
  161.9630  208.1300  151.7760 C   0  0  0  0  0  2  0  0  0  0  0  0
  160.6810  208.1830  152.5910 C   0  0  0  0  0  2  0  0  0  0  0  0
  160.9970  208.1370  154.0780 C   0  0  2  0  0  3  0  0  0  0  0  0
  160.4780  206.9090  154.6580 N   0  0  0  0  0  1  0  0  0  0  0  0
  160.4580  209.3600  154.8250 C   0  0  0  0  0  2  0  0  0  0  0  0
  160.7930  211.5090  153.8390 O   0  0  0  0  0  0  0  0  0  0  0  0
  161.2590  210.5960  154.5690 C   0  0  0  0  0  0  0  0  0  0  0  0
  162.5070  210.7510  155.1580 O   0  0  0  0  0  1  0  0  0  0  0  0
  2  7  1  0  0  0  0
  3  1  1  0  0  0  0
  3 10  1  0  0  0  0
  4  8  1  0  0  0  0
  4 10  1  0  0  0  0
  5 11  1  0  0  0  0
  5  7  2  0  0  0  0
  6 11  1  0  0  0  0
  6  4  2  0  0  0  0
  7  1  1  0  0  0  0
  8 29  1  0  0  0  0
  9  5  1  0  0  0  0
 11  3  2  0  0  0  0
 12 14  1  0  0  0  0
 13 15  1  6  0  0  0
 14 13  1  0  0  0  0
 14  8  2  0  0  0  0
 16 18  2  0  0  0  0
 16 13  1  0  0  0  0
 18 17  2  0  0  0  0
 19 28  2  0  0  0  0
 19 25  1  0  0  0  0
 20 26  1  0  0  0  0
 21 24  1  0  0  0  0
 21 26  2  0  0  0  0
 22 17  1  1  0  0  0
 23 28  1  0  0  0  0
 24 27  1  0  0  0  0
 25 20  2  0  0  0  0
 26 22  1  0  0  0  0
 27 22  1  0  0  0  0
 28 21  1  0  0  0  0
 29 30  1  0  0  0  0
 30 31  1  0  0  0  0
 31 32  1  1  0  0  0
 31 33  1  0  0  0  0
 34 35  2  0  0  0  0
 35 33  1  0  0  0  0
 35 36  1  0  0  0  0
M  END
>  <MODEL>
2

>  <REMARK>
 VINA RESULT:      -7.8      3.715      5.782
  Name = 
  8 active torsions:
  status: ('A' for Active; 'I' for Inactive)
    1  A    between atoms: C_7  and  C_19
    2  A    between atoms: C_9  and  C_16
    3  A    between atoms: C_14  and  C_21
    4  A    between atoms: C_14  and  C_24
    5  A    between atoms: C_15  and  C_26
    6  A    between atoms: C_21  and  C_32
    7  A    between atoms: C_24  and  C_25
    8  A    between atoms: C_25  and  C_26
                            x       y       z     vdW  Elec       q    Type
                         _______ _______ _______ _____ _____    ______ ____

>  <TORSDO>
F 8

$$$$
=
 OpenBabel11042421083D

 36 39  0  0  1  0  0  0  0  0999 V2000
  160.8880  203.9330  151.4510 S   0  0  0  0  0  0  0  0  0  0  0  0
  161.2070  203.2140  148.7950 N   0  0  0  0  0  1  0  0  0  0  0  0
  160.9410  205.5700  151.8280 C   0  0  0  0  0  0  0  0  0  0  0  0
  160.9870  207.7660  152.4000 C   0  0  0  0  0  0  0  0  0  0  0  0
  161.2570  205.5960  149.5400 C   0  0  0  0  0  0  0  0  0  0  0  0
  161.1860  207.7030  150.9750 N   0  0  0  0  0  0  0  0  0  0  0  0
  161.1360  204.2280  149.7900 C   0  0  0  0  0  0  0  0  0  0  0  0
  160.9700  208.9240  153.0800 C   0  0  2  0  0  3  0  0  0  0  0  0
  161.4590  206.1480  148.3190 F   0  0  0  0  0  0  0  0  0  0  0  0
  160.8180  206.4000  153.0440 C   0  0  0  0  0  2  0  0  0  0  0  0
  161.1410  206.3140  150.7230 C   0  0  0  0  0  0  0  0  0  0  0  0
  162.4660  210.4450  151.7290 C   0  0  0  0  0  1  0  0  0  0  0  0
  160.1690  211.1690  152.4020 C   0  0  0  0  0  0  0  0  0  0  0  0
  161.1430  210.2230  152.3880 C   0  0  0  0  0  0  0  0  0  0  0  0
  158.9150  210.9470  153.1850 C   0  0  0  0  0  1  0  0  0  0  0  0
  160.2320  212.4840  151.7190 C   0  0  0  0  0  3  0  0  0  0  0  0
  158.6110  213.3360  149.8560 C   0  0  0  0  0  3  0  0  0  0  0  0
  159.4190  212.9050  150.7860 C   0  0  0  0  0  0  0  0  0  0  0  0
  162.2870  213.3180  146.3090 C   0  0  0  0  0  3  0  0  0  0  0  0
  161.5350  213.8220  148.7100 C   0  0  0  0  0  3  0  0  0  0  0  0
  160.0040  213.8640  146.8330 C   0  0  0  0  0  0  0  0  0  0  0  0
  159.0500  214.4010  148.9080 C   0  0  1  0  0  3  0  0  0  0  0  0
  160.7380  213.4040  144.4070 C   0  0  0  0  0  1  0  0  0  0  0  0
  158.7690  214.1330  146.5910 N   0  0  0  0  0  2  0  0  0  0  0  0
  162.6670  213.4170  147.7830 C   0  0  0  0  0  3  0  0  0  0  0  0
  160.3060  213.9950  148.2260 C   0  0  0  0  0  0  0  0  0  0  0  0
  158.1590  214.4530  147.7890 O   0  0  0  0  0  0  0  0  0  0  0  0
  161.0410  213.5170  145.8600 C   0  0  0  0  0  0  0  0  0  0  0  0
  160.8410  208.9250  154.5720 C   0  0  0  0  0  2  0  0  0  0  0  0
  161.9880  209.6970  155.2060 C   0  0  0  0  0  2  0  0  0  0  0  0
  161.4500  210.7910  156.1140 C   0  0  2  0  0  3  0  0  0  0  0  0
  162.3980  211.0590  157.1830 N   0  0  0  0  0  1  0  0  0  0  0  0
  160.0720  210.4470  156.6850 C   0  0  0  0  0  2  0  0  0  0  0  0
  157.8990  211.4340  156.7550 O   0  0  0  0  0  1  0  0  0  0  0  0
  159.1420  211.6190  156.7050 C   0  0  0  0  0  0  0  0  0  0  0  0
  159.6500  212.9100  156.6940 O   0  0  0  0  0  0  0  0  0  0  0  0
  1  3  1  0  0  0  0
  2  7  1  0  0  0  0
  3 10  1  0  0  0  0
  4 10  1  0  0  0  0
  4  8  1  0  0  0  0
  5  7  2  0  0  0  0
  5 11  1  0  0  0  0
  6  4  2  0  0  0  0
  7  1  1  0  0  0  0
  8 29  1  1  0  0  0
  9  5  1  0  0  0  0
 11  6  1  0  0  0  0
 11  3  2  0  0  0  0
 12 14  1  0  0  0  0
 13 15  1  0  0  0  0
 14 13  2  0  0  0  0
 14  8  1  0  0  0  0
 16 13  1  0  0  0  0
 17 18  2  0  0  0  0
 18 16  2  0  0  0  0
 19 25  1  0  0  0  0
 21 26  2  0  0  0  0
 22 17  1  1  0  0  0
 23 28  1  0  0  0  0
 24 21  1  0  0  0  0
 24 27  1  0  0  0  0
 25 20  2  0  0  0  0
 26 20  1  0  0  0  0
 26 22  1  0  0  0  0
 27 22  1  0  0  0  0
 28 19  2  0  0  0  0
 28 21  1  0  0  0  0
 29 30  1  0  0  0  0
 30 31  1  0  0  0  0
 31 33  1  0  0  0  0
 31 32  1  1  0  0  0
 33 35  1  0  0  0  0
 35 34  1  0  0  0  0
 36 35  2  0  0  0  0
M  END
>  <MODEL>
3

>  <REMARK>
 VINA RESULT:      -7.7      3.919      6.401
  Name = 
  8 active torsions:
  status: ('A' for Active; 'I' for Inactive)
    1  A    between atoms: C_7  and  C_19
    2  A    between atoms: C_9  and  C_16
    3  A    between atoms: C_14  and  C_21
    4  A    between atoms: C_14  and  C_24
    5  A    between atoms: C_15  and  C_26
    6  A    between atoms: C_21  and  C_32
    7  A    between atoms: C_24  and  C_25
    8  A    between atoms: C_25  and  C_26
                            x       y       z     vdW  Elec       q    Type
                         _______ _______ _______ _____ _____    ______ ____

>  <TORSDO>
F 8

$$$$
=
 OpenBabel11042421083D

 36 39  0  0  1  0  0  0  0  0999 V2000
  160.9950  203.2440  150.0740 S   0  0  0  0  0  0  0  0  0  0  0  0
  161.2360  203.1360  147.3160 N   0  0  0  0  0  1  0  0  0  0  0  0
  161.0130  204.7590  150.8000 C   0  0  0  0  0  0  0  0  0  0  0  0
  161.0140  206.7770  151.8400 C   0  0  0  0  0  0  0  0  0  0  0  0
  161.2430  205.2970  148.5660 C   0  0  0  0  0  0  0  0  0  0  0  0
  161.1620  207.0350  150.4300 N   0  0  0  0  0  0  0  0  0  0  0  0
  161.1720  203.9040  148.5120 C   0  0  0  0  0  0  0  0  0  0  0  0
  160.9880  207.7570  152.7580 C   0  0  2  0  0  3  0  0  0  0  0  0
  161.3820  206.1110  147.4910 F   0  0  0  0  0  0  0  0  0  0  0  0
  160.9100  205.2980  152.1720 C   0  0  0  0  0  2  0  0  0  0  0  0
  161.1490  205.7340  149.8810 C   0  0  0  0  0  0  0  0  0  0  0  0
  162.2840  209.5450  151.5340 C   0  0  0  0  0  1  0  0  0  0  0  0
  160.1890  210.1030  152.7810 C   0  0  0  0  0  0  0  0  0  0  0  0
  161.0950  209.1810  152.3640 C   0  0  0  0  0  0  0  0  0  0  0  0
  159.0910  209.7100  153.7170 C   0  0  0  0  0  1  0  0  0  0  0  0
  160.1920  211.5420  152.4200 C   0  0  0  0  0  3  0  0  0  0  0  0
  158.2040  212.8750  151.3760 C   0  0  0  0  0  3  0  0  0  0  0  0
  159.1940  212.2040  151.8970 C   0  0  0  0  0  0  0  0  0  0  0  0
  160.7820  213.6110  147.0280 C   0  0  0  0  0  3  0  0  0  0  0  0
  160.7440  213.5550  149.5930 C   0  0  0  0  0  3  0  0  0  0  0  0
  158.7760  214.0670  148.2760 C   0  0  0  0  0  0  0  0  0  0  0  0
  158.4610  214.1220  150.6000 C   0  0  1  0  0  3  0  0  0  0  0  0
  158.7930  214.1700  145.7020 C   0  0  0  0  0  1  0  0  0  0  0  0
  157.5490  214.4100  148.4540 N   0  0  0  0  0  2  0  0  0  0  0  0
  161.5490  213.3550  148.3210 C   0  0  0  0  0  3  0  0  0  0  0  0
  159.4500  213.8610  149.5220 C   0  0  0  0  0  0  0  0  0  0  0  0
  157.3110  214.4530  149.8150 O   0  0  0  0  0  0  0  0  0  0  0  0
  159.4820  213.9350  147.0000 C   0  0  0  0  0  0  0  0  0  0  0  0
  160.9140  207.4260  154.2170 C   0  0  0  0  0  2  0  0  0  0  0  0
  161.8430  208.3280  155.0150 C   0  0  0  0  0  2  0  0  0  0  0  0
  161.5050  208.2580  156.4960 C   0  0  2  0  0  3  0  0  0  0  0  0
  160.1640  207.7280  156.6750 N   0  0  0  0  0  1  0  0  0  0  0  0
  161.6490  209.6160  157.1890 C   0  0  0  0  0  2  0  0  0  0  0  0
  163.3320  210.7590  155.9380 O   0  0  0  0  0  1  0  0  0  0  0  0
  162.1180  210.6930  156.2640 C   0  0  0  0  0  0  0  0  0  0  0  0
  161.2120  211.6070  155.7430 O   0  0  0  0  0  0  0  0  0  0  0  0
  1  3  1  0  0  0  0
  2  7  1  0  0  0  0
  3 10  1  0  0  0  0
  4 10  1  0  0  0  0
  4  8  1  0  0  0  0
  5 11  1  0  0  0  0
  6  4  2  0  0  0  0
  7  5  2  0  0  0  0
  7  1  1  0  0  0  0
  8 29  1  1  0  0  0
  9  5  1  0  0  0  0
 11  6  1  0  0  0  0
 11  3  2  0  0  0  0
 12 14  1  0  0  0  0
 13 15  1  0  0  0  0
 14  8  1  0  0  0  0
 14 13  2  0  0  0  0
 16 13  1  0  0  0  0
 17 18  2  0  0  0  0
 18 16  2  0  0  0  0
 19 25  1  0  0  0  0
 21 24  1  0  0  0  0
 21 26  2  0  0  0  0
 22 17  1  6  0  0  0
 23 28  1  0  0  0  0
 24 27  1  0  0  0  0
 25 20  2  0  0  0  0
 26 20  1  0  0  0  0
 26 22  1  0  0  0  0
 27 22  1  0  0  0  0
 28 19  2  0  0  0  0
 28 21  1  0  0  0  0
 29 30  1  0  0  0  0
 30 31  1  0  0  0  0
 31 32  1  6  0  0  0
 31 33  1  0  0  0  0
 34 35  1  0  0  0  0
 35 33  1  0  0  0  0
 36 35  2  0  0  0  0
M  END
>  <MODEL>
4

>  <REMARK>
 VINA RESULT:      -7.2      4.138      6.487
  Name = 
  8 active torsions:
  status: ('A' for Active; 'I' for Inactive)
    1  A    between atoms: C_7  and  C_19
    2  A    between atoms: C_9  and  C_16
    3  A    between atoms: C_14  and  C_21
    4  A    between atoms: C_14  and  C_24
    5  A    between atoms: C_15  and  C_26
    6  A    between atoms: C_21  and  C_32
    7  A    between atoms: C_24  and  C_25
    8  A    between atoms: C_25  and  C_26
                            x       y       z     vdW  Elec       q    Type
                         _______ _______ _______ _____ _____    ______ ____

>  <TORSDO>
F 8

$$$$
=
 OpenBabel11042421083D

 36 39  0  0  1  0  0  0  0  0999 V2000
  161.4970  204.6820  150.9040 S   0  0  0  0  0  0  0  0  0  0  0  0
  160.8340  203.2520  148.6260 N   0  0  0  0  0  1  0  0  0  0  0  0
  161.6120  206.3530  150.7710 C   0  0  0  0  0  0  0  0  0  0  0  0
  161.7670  208.6150  150.6600 C   0  0  0  0  0  0  0  0  0  0  0  0
  161.0500  205.7390  148.6170 C   0  0  0  0  0  0  0  0  0  0  0  0
  161.4230  208.1560  149.3380 N   0  0  0  0  0  0  0  0  0  0  0  0
  161.0930  204.5000  149.2580 C   0  0  0  0  0  0  0  0  0  0  0  0
  161.9530  209.9120  150.9520 C   0  0  2  0  0  3  0  0  0  0  0  0
  160.7550  205.9260  147.3070 F   0  0  0  0  0  0  0  0  0  0  0  0
  161.9140  207.4870  151.6680 C   0  0  0  0  0  2  0  0  0  0  0  0
  161.3510  206.7560  149.5130 C   0  0  0  0  0  0  0  0  0  0  0  0
  162.6660  210.8310  148.7110 C   0  0  0  0  0  1  0  0  0  0  0  0
  160.9430  212.0060  150.0910 C   0  0  0  0  0  0  0  0  0  0  0  0
  161.7950  210.9620  149.9190 C   0  0  0  0  0  0  0  0  0  0  0  0
  160.1910  212.1590  151.3740 C   0  0  0  0  0  1  0  0  0  0  0  0
  160.6930  213.0880  149.1090 C   0  0  0  0  0  3  0  0  0  0  0  0
  159.1610  212.9330  146.9980 C   0  0  0  0  0  3  0  0  0  0  0  0
  159.9260  213.0050  148.0530 C   0  0  0  0  0  0  0  0  0  0  0  0
  162.7090  212.8770  143.3240 C   0  0  0  0  0  3  0  0  0  0  0  0
  161.9220  213.6980  145.6240 C   0  0  0  0  0  3  0  0  0  0  0  0
  160.3740  213.1000  143.8580 C   0  0  0  0  0  0  0  0  0  0  0  0
  159.3780  213.8530  145.8440 C   0  0  1  0  0  3  0  0  0  0  0  0
  161.1350  212.3130  141.5270 C   0  0  0  0  0  1  0  0  0  0  0  0
  159.1070  213.0930  143.6380 N   0  0  0  0  0  2  0  0  0  0  0  0
  163.0920  213.3280  144.7300 C   0  0  0  0  0  3  0  0  0  0  0  0
  160.6740  213.5520  145.1840 C   0  0  0  0  0  0  0  0  0  0  0  0
  158.4710  213.5270  144.7860 O   0  0  0  0  0  0  0  0  0  0  0  0
  161.4390  212.7600  142.9130 C   0  0  0  0  0  0  0  0  0  0  0  0
  162.3900  210.3250  152.3240 C   0  0  0  0  0  2  0  0  0  0  0  0
  161.2970  210.0330  153.3410 C   0  0  0  0  0  2  0  0  0  0  0  0
  161.6160  210.7040  154.6670 C   0  0  2  0  0  3  0  0  0  0  0  0
  161.9530  209.7010  155.6640 N   0  0  0  0  0  1  0  0  0  0  0  0
  160.4700  211.5930  155.1590 C   0  0  0  0  0  2  0  0  0  0  0  0
  158.8330  209.9620  155.7610 O   0  0  0  0  0  1  0  0  0  0  0  0
  159.1310  210.9400  155.0270 C   0  0  0  0  0  0  0  0  0  0  0  0
  158.2060  211.4270  154.1150 O   0  0  0  0  0  0  0  0  0  0  0  0
  2  7  1  0  0  0  0
  3  1  1  0  0  0  0
  3 10  1  0  0  0  0
  4  8  1  0  0  0  0
  4 10  1  0  0  0  0
  5  7  2  0  0  0  0
  5 11  1  0  0  0  0
  6 11  1  0  0  0  0
  6  4  2  0  0  0  0
  7  1  1  0  0  0  0
  8 29  1  6  0  0  0
  9  5  1  0  0  0  0
 11  3  2  0  0  0  0
 12 14  1  0  0  0  0
 13 15  1  0  0  0  0
 14 13  2  0  0  0  0
 14  8  1  0  0  0  0
 16 13  1  0  0  0  0
 17 18  2  0  0  0  0
 18 16  2  0  0  0  0
 19 25  1  0  0  0  0
 21 26  2  0  0  0  0
 22 17  1  1  0  0  0
 23 28  1  0  0  0  0
 24 21  1  0  0  0  0
 24 27  1  0  0  0  0
 25 20  2  0  0  0  0
 26 20  1  0  0  0  0
 26 22  1  0  0  0  0
 27 22  1  0  0  0  0
 28 19  2  0  0  0  0
 28 21  1  0  0  0  0
 29 30  1  0  0  0  0
 30 31  1  0  0  0  0
 31 33  1  0  0  0  0
 31 32  1  1  0  0  0
 35 33  1  0  0  0  0
 35 34  1  0  0  0  0
 36 35  2  0  0  0  0
M  END
>  <MODEL>
5

>  <REMARK>
 VINA RESULT:      -6.8      3.624      5.906
  Name = 
  8 active torsions:
  status: ('A' for Active; 'I' for Inactive)
    1  A    between atoms: C_7  and  C_19
    2  A    between atoms: C_9  and  C_16
    3  A    between atoms: C_14  and  C_21
    4  A    between atoms: C_14  and  C_24
    5  A    between atoms: C_15  and  C_26
    6  A    between atoms: C_21  and  C_32
    7  A    between atoms: C_24  and  C_25
    8  A    between atoms: C_25  and  C_26
                            x       y       z     vdW  Elec       q    Type
                         _______ _______ _______ _____ _____    ______ ____

>  <TORSDO>
F 8

$$$$
=
 OpenBabel11042421083D

 36 39  0  0  1  0  0  0  0  0999 V2000
  161.2070  201.7580  149.1470 S   0  0  0  0  0  0  0  0  0  0  0  0
  160.8040  200.5880  146.6690 N   0  0  0  0  0  1  0  0  0  0  0  0
  161.3740  203.4290  149.2030 C   0  0  0  0  0  0  0  0  0  0  0  0
  161.5910  205.6840  149.3480 C   0  0  0  0  0  0  0  0  0  0  0  0
  161.0730  203.0540  146.9440 C   0  0  0  0  0  0  0  0  0  0  0  0
  161.4050  205.3730  147.9530 N   0  0  0  0  0  0  0  0  0  0  0  0
  161.0090  201.7560  147.4530 C   0  0  0  0  0  0  0  0  0  0  0  0
  161.7660  206.9390  149.7940 C   0  0  0  0  0  0  0  0  0  0  0  0
  160.9480  203.3820  145.6350 F   0  0  0  0  0  0  0  0  0  0  0  0
  161.5860  204.4560  150.2440 C   0  0  0  0  0  2  0  0  0  0  0  0
  161.2810  203.9650  147.9710 C   0  0  0  0  0  0  0  0  0  0  0  0
  161.5620  207.7680  147.4180 C   0  0  0  0  0  1  0  0  0  0  0  0
  161.9780  209.3590  149.3020 C   0  0  1  0  0  3  0  0  0  0  0  0
  161.7620  208.0920  148.8630 C   0  0  0  0  0  0  0  0  0  0  0  0
  162.3010  209.6130  150.7400 C   0  0  0  0  0  1  0  0  0  0  0  0
  161.9650  210.5790  148.4590 C   0  0  0  0  0  3  0  0  0  0  0  0
  161.0510  212.9250  149.1540 C   0  0  0  0  0  3  0  0  0  0  0  0
  161.5050  211.7510  148.8120 C   0  0  0  0  0  0  0  0  0  0  0  0
  161.8810  212.9900  144.1140 C   0  0  0  0  0  3  0  0  0  0  0  0
  162.5790  213.7020  146.4790 C   0  0  0  0  0  3  0  0  0  0  0  0
  160.2760  213.2360  145.8890 C   0  0  0  0  0  0  0  0  0  0  0  0
  160.6200  213.9020  148.1120 C   0  0  1  0  0  3  0  0  0  0  0  0
  159.5400  212.5600  143.5150 C   0  0  0  0  0  1  0  0  0  0  0  0
  159.1080  213.2690  146.4290 N   0  0  0  0  0  2  0  0  0  0  0  0
  163.0160  213.3550  145.0670 C   0  0  0  0  0  3  0  0  0  0  0  0
  161.2960  213.6080  146.8220 C   0  0  0  0  0  0  0  0  0  0  0  0
  159.2580  213.6540  147.7470 O   0  0  0  0  0  0  0  0  0  0  0  0
  160.5980  212.9240  144.4960 C   0  0  0  0  0  0  0  0  0  0  0  0
  162.0370  207.1960  151.2440 C   0  0  0  0  0  2  0  0  0  0  0  0
  160.8370  206.7980  152.0880 C   0  0  0  0  0  2  0  0  0  0  0  0
  161.2880  206.3370  153.4650 C   0  0  2  0  0  3  0  0  0  0  0  0
  161.2060  204.8880  153.5550 N   0  0  0  0  0  1  0  0  0  0  0  0
  160.4860  206.9960  154.5900 C   0  0  0  0  0  2  0  0  0  0  0  0
  161.6220  208.0890  156.3840 O   0  0  0  0  0  1  0  0  0  0  0  0
  161.1950  208.1620  155.2030 C   0  0  0  0  0  0  0  0  0  0  0  0
  161.4060  209.3160  154.4620 O   0  0  0  0  0  0  0  0  0  0  0  0
  1  3  1  0  0  0  0
  2  7  1  0  0  0  0
  3 10  1  0  0  0  0
  4  8  1  0  0  0  0
  4 10  1  0  0  0  0
  5  7  2  0  0  0  0
  5 11  1  0  0  0  0
  6 11  1  0  0  0  0
  6  4  2  0  0  0  0
  7  1  1  0  0  0  0
  8 29  1  0  0  0  0
  9  5  1  0  0  0  0
 11  3  2  0  0  0  0
 12 14  1  0  0  0  0
 13 15  1  6  0  0  0
 14 13  1  0  0  0  0
 14  8  2  0  0  0  0
 16 18  2  0  0  0  0
 16 13  1  0  0  0  0
 18 17  2  0  0  0  0
 19 28  2  0  0  0  0
 19 25  1  0  0  0  0
 20 26  1  0  0  0  0
 21 24  1  0  0  0  0
 21 26  2  0  0  0  0
 22 17  1  1  0  0  0
 23 28  1  0  0  0  0
 24 27  1  0  0  0  0
 25 20  2  0  0  0  0
 26 22  1  0  0  0  0
 27 22  1  0  0  0  0
 28 21  1  0  0  0  0
 29 30  1  0  0  0  0
 30 31  1  0  0  0  0
 31 32  1  6  0  0  0
 31 33  1  0  0  0  0
 33 35  1  0  0  0  0
 35 34  1  0  0  0  0
 36 35  2  0  0  0  0
M  END
>  <MODEL>
6

>  <REMARK>
 VINA RESULT:      -6.7      3.867      5.899
  Name = 
  8 active torsions:
  status: ('A' for Active; 'I' for Inactive)
    1  A    between atoms: C_7  and  C_19
    2  A    between atoms: C_9  and  C_16
    3  A    between atoms: C_14  and  C_21
    4  A    between atoms: C_14  and  C_24
    5  A    between atoms: C_15  and  C_26
    6  A    between atoms: C_21  and  C_32
    7  A    between atoms: C_24  and  C_25
    8  A    between atoms: C_25  and  C_26
                            x       y       z     vdW  Elec       q    Type
                         _______ _______ _______ _____ _____    ______ ____

>  <TORSDO>
F 8

$$$$
=
 OpenBabel11042421083D

 36 39  0  0  1  0  0  0  0  0999 V2000
  161.1990  202.4770  151.0940 S   0  0  0  0  0  0  0  0  0  0  0  0
  160.7140  201.6710  148.4880 N   0  0  0  0  0  1  0  0  0  0  0  0
  161.2040  204.1270  151.4120 C   0  0  0  0  0  0  0  0  0  0  0  0
  161.2080  206.3410  151.9100 C   0  0  0  0  0  0  0  0  0  0  0  0
  160.7600  204.0790  149.1460 C   0  0  0  0  0  0  0  0  0  0  0  0
  160.9420  206.2330  150.4980 N   0  0  0  0  0  0  0  0  0  0  0  0
  160.8660  202.7180  149.4390 C   0  0  0  0  0  0  0  0  0  0  0  0
  161.2950  207.5220  152.5440 C   0  0  2  0  0  3  0  0  0  0  0  0
  160.4990  204.5910  147.9190 F   0  0  0  0  0  0  0  0  0  0  0  0
  161.3960  204.9960  152.5910 C   0  0  0  0  0  2  0  0  0  0  0  0
  160.9600  204.8350  150.2930 C   0  0  0  0  0  0  0  0  0  0  0  0
  160.0740  209.7270  152.3810 C   0  0  0  0  0  1  0  0  0  0  0  0
  161.7860  209.0780  150.6780 C   0  0  0  0  0  0  0  0  0  0  0  0
  161.1020  208.7990  151.8170 C   0  0  0  0  0  0  0  0  0  0  0  0
  162.7080  208.0600  150.0860 C   0  0  0  0  0  1  0  0  0  0  0  0
  161.6860  210.3340  149.8950 C   0  0  0  0  0  3  0  0  0  0  0  0
  160.8530  212.6440  150.7840 C   0  0  0  0  0  3  0  0  0  0  0  0
  161.2670  211.4870  150.3450 C   0  0  0  0  0  0  0  0  0  0  0  0
  161.4920  213.1580  145.7420 C   0  0  0  0  0  3  0  0  0  0  0  0
  162.2240  213.7340  148.1340 C   0  0  0  0  0  3  0  0  0  0  0  0
  159.9390  213.1480  147.5800 C   0  0  0  0  0  0  0  0  0  0  0  0
  160.3160  213.6640  149.8370 C   0  0  1  0  0  3  0  0  0  0  0  0
  159.1660  212.6050  145.1840 C   0  0  0  0  0  1  0  0  0  0  0  0
  158.7930  213.0540  148.1560 N   0  0  0  0  0  2  0  0  0  0  0  0
  162.6320  213.5300  146.6850 C   0  0  0  0  0  3  0  0  0  0  0  0
  160.9640  213.5200  148.5080 C   0  0  0  0  0  0  0  0  0  0  0  0
  158.9620  213.3460  149.4960 O   0  0  0  0  0  0  0  0  0  0  0  0
  160.2310  212.9690  146.1570 C   0  0  0  0  0  0  0  0  0  0  0  0
  161.6540  207.5780  153.9970 C   0  0  0  0  0  2  0  0  0  0  0  0
  160.4420  207.2590  154.8580 C   0  0  0  0  0  2  0  0  0  0  0  0
  160.5640  207.9350  156.2140 C   0  0  2  0  0  3  0  0  0  0  0  0
  160.1100  207.0340  157.2610 N   0  0  0  0  0  1  0  0  0  0  0  0
  159.8030  209.2610  156.2730 C   0  0  0  0  0  2  0  0  0  0  0  0
  161.9430  210.3160  156.3770 O   0  0  0  0  0  1  0  0  0  0  0  0
  160.7040  210.4520  156.2010 C   0  0  0  0  0  0  0  0  0  0  0  0
  160.1800  211.7060  155.9160 O   0  0  0  0  0  0  0  0  0  0  0  0
  1  3  1  0  0  0  0
  2  7  1  0  0  0  0
  3 10  1  0  0  0  0
  4  8  1  0  0  0  0
  4 10  1  0  0  0  0
  5  7  2  0  0  0  0
  5 11  1  0  0  0  0
  6  4  2  0  0  0  0
  7  1  1  0  0  0  0
  8 29  1  6  0  0  0
  9  5  1  0  0  0  0
 11  6  1  0  0  0  0
 11  3  2  0  0  0  0
 13 14  2  0  0  0  0
 14 12  1  0  0  0  0
 14  8  1  0  0  0  0
 15 13  1  0  0  0  0
 16 18  2  0  0  0  0
 16 13  1  0  0  0  0
 18 17  2  0  0  0  0
 19 28  2  0  0  0  0
 19 25  1  0  0  0  0
 20 26  1  0  0  0  0
 21 24  1  0  0  0  0
 21 26  2  0  0  0  0
 22 17  1  1  0  0  0
 23 28  1  0  0  0  0
 24 27  1  0  0  0  0
 25 20  2  0  0  0  0
 26 22  1  0  0  0  0
 27 22  1  0  0  0  0
 28 21  1  0  0  0  0
 29 30  1  0  0  0  0
 30 31  1  0  0  0  0
 31 33  1  0  0  0  0
 31 32  1  1  0  0  0
 35 33  1  0  0  0  0
 35 34  1  0  0  0  0
 36 35  2  0  0  0  0
M  END
>  <MODEL>
7

>  <REMARK>
 VINA RESULT:      -6.5      3.835      6.047
  Name = 
  8 active torsions:
  status: ('A' for Active; 'I' for Inactive)
    1  A    between atoms: C_7  and  C_19
    2  A    between atoms: C_9  and  C_16
    3  A    between atoms: C_14  and  C_21
    4  A    between atoms: C_14  and  C_24
    5  A    between atoms: C_15  and  C_26
    6  A    between atoms: C_21  and  C_32
    7  A    between atoms: C_24  and  C_25
    8  A    between atoms: C_25  and  C_26
                            x       y       z     vdW  Elec       q    Type
                         _______ _______ _______ _____ _____    ______ ____

>  <TORSDO>
F 8

$$$$
=
 OpenBabel11042421083D

 36 39  0  0  1  0  0  0  0  0999 V2000
  160.0810  212.3440  154.9410 S   0  0  0  0  0  0  0  0  0  0  0  0
  158.5450  211.9700  157.2160 N   0  0  0  0  0  1  0  0  0  0  0  0
  160.5170  210.9810  154.0610 C   0  0  0  0  0  0  0  0  0  0  0  0
  161.1250  209.1810  152.8180 C   0  0  0  0  0  0  0  0  0  0  0  0
  159.2860  210.0630  155.7850 C   0  0  0  0  0  0  0  0  0  0  0  0
  160.3520  208.6800  153.9270 N   0  0  0  0  0  0  0  0  0  0  0  0
  159.2270  211.4230  156.0940 C   0  0  0  0  0  0  0  0  0  0  0  0
  161.6580  208.3780  151.8840 C   0  0  2  0  0  3  0  0  0  0  0  0
  158.7030  209.0760  156.5090 F   0  0  0  0  0  0  0  0  0  0  0  0
  161.2840  210.6930  152.8310 C   0  0  0  0  0  3  0  0  0  0  0  0
  160.0260  209.8630  154.6280 C   0  0  1  0  0  3  0  0  0  0  0  0
  161.9140  206.2290  153.1850 C   0  0  0  0  0  1  0  0  0  0  0  0
  160.9550  206.2250  150.8760 C   0  0  0  0  0  0  0  0  0  0  0  0
  161.4640  206.9100  151.9330 C   0  0  0  0  0  0  0  0  0  0  0  0
  160.6410  206.9370  149.5990 C   0  0  0  0  0  1  0  0  0  0  0  0
  160.6960  204.7660  150.8350 C   0  0  0  0  0  3  0  0  0  0  0  0
  161.2020  203.1630  148.8350 C   0  0  0  0  0  3  0  0  0  0  0  0
  160.9500  203.9680  149.8310 C   0  0  0  0  0  0  0  0  0  0  0  0
  160.4670  200.1690  144.7620 C   0  0  0  0  0  3  0  0  0  0  0  0
  159.6640  202.0800  146.2750 C   0  0  0  0  0  3  0  0  0  0  0  0
  161.0720  200.2840  147.0870 C   0  0  0  0  0  0  0  0  0  0  0  0
  160.4590  201.8770  148.6980 C   0  0  1  0  0  3  0  0  0  0  0  0
  161.8600  198.3320  145.6040 C   0  0  0  0  0  1  0  0  0  0  0  0
  161.5970  199.8840  148.1920 N   0  0  0  0  0  2  0  0  0  0  0  0
  159.6930  201.4780  144.8810 C   0  0  0  0  0  3  0  0  0  0  0  0
  160.3410  201.5030  147.2640 C   0  0  0  0  0  0  0  0  0  0  0  0
  161.2670  200.7960  149.1770 O   0  0  0  0  0  0  0  0  0  0  0  0
  161.1220  199.6110  145.7890 C   0  0  0  0  0  0  0  0  0  0  0  0
  162.5210  208.9450  150.7990 C   0  0  0  0  0  2  0  0  0  0  0  0
  162.0660  210.3510  150.4380 C   0  0  0  0  0  2  0  0  0  0  0  0
  161.7810  210.4470  148.9470 C   0  0  2  0  0  3  0  0  0  0  0  0
  162.3320  209.2910  148.2600 N   0  0  0  0  0  1  0  0  0  0  0  0
  162.3160  211.7460  148.3370 C   0  0  0  0  0  2  0  0  0  0  0  0
  160.7270  213.2080  149.3580 O   0  0  0  0  0  1  0  0  0  0  0  0
  161.2900  212.8340  148.2970 C   0  0  0  0  0  0  0  0  0  0  0  0
  160.9770  213.4510  147.0940 O   0  0  0  0  0  0  0  0  0  0  0  0
  1  7  1  0  0  0  0
  3 11  1  0  0  0  0
  3  1  1  0  0  0  0
  4 10  1  0  0  0  0
  4  6  2  0  0  0  0
  5  7  2  0  0  0  0
  5  9  1  0  0  0  0
  7  2  1  0  0  0  0
  8 29  1  1  0  0  0
  8 14  1  0  0  0  0
  8  4  1  0  0  0  0
 10  3  2  0  0  0  0
 11  6  1  6  0  0  0
 11  5  1  0  0  0  0
 13 14  2  0  0  0  0
 14 12  1  0  0  0  0
 15 13  1  0  0  0  0
 16 13  1  0  0  0  0
 17 18  2  0  0  0  0
 18 16  2  0  0  0  0
 19 25  2  0  0  0  0
 19 28  1  0  0  0  0
 20 26  2  0  0  0  0
 21 26  1  0  0  0  0
 21 24  1  0  0  0  0
 22 17  1  6  0  0  0
 22 27  1  0  0  0  0
 23 28  1  0  0  0  0
 24 27  1  0  0  0  0
 25 20  1  0  0  0  0
 26 22  1  0  0  0  0
 28 21  2  0  0  0  0
 30 29  1  0  0  0  0
 31 32  1  6  0  0  0
 31 30  1  0  0  0  0
 33 31  1  0  0  0  0
 35 33  1  0  0  0  0
 35 34  1  0  0  0  0
 36 35  2  0  0  0  0
M  END
>  <MODEL>
8

>  <REMARK>
 VINA RESULT:      -6.1      2.493      8.406
  Name = 
  8 active torsions:
  status: ('A' for Active; 'I' for Inactive)
    1  A    between atoms: C_7  and  C_19
    2  A    between atoms: C_9  and  C_16
    3  A    between atoms: C_14  and  C_21
    4  A    between atoms: C_14  and  C_24
    5  A    between atoms: C_15  and  C_26
    6  A    between atoms: C_21  and  C_32
    7  A    between atoms: C_24  and  C_25
    8  A    between atoms: C_25  and  C_26
                            x       y       z     vdW  Elec       q    Type
                         _______ _______ _______ _____ _____    ______ ____

>  <TORSDO>
F 8

$$$$
=
 OpenBabel11042421083D

 36 39  0  0  1  0  0  0  0  0999 V2000
  161.2960  203.6670  146.7580 S   0  0  0  0  0  0  0  0  0  0  0  0
  160.4520  204.1700  144.1680 N   0  0  0  0  0  1  0  0  0  0  0  0
  161.4960  204.9830  147.7830 C   0  0  0  0  0  0  0  0  0  0  0  0
  161.7690  206.7170  149.2220 C   0  0  0  0  0  0  0  0  0  0  0  0
  160.8030  206.0000  145.8290 C   0  0  0  0  0  0  0  0  0  0  0  0
  161.3400  207.2810  147.9670 N   0  0  0  0  0  0  0  0  0  0  0  0
  160.8080  204.6550  145.4570 C   0  0  0  0  0  0  0  0  0  0  0  0
  162.0390  207.4700  150.3010 C   0  0  2  0  0  3  0  0  0  0  0  0
  160.4590  207.0290  145.0170 F   0  0  0  0  0  0  0  0  0  0  0  0
  161.9000  205.2030  149.1870 C   0  0  0  0  0  2  0  0  0  0  0  0
  161.2000  206.1350  147.1520 C   0  0  0  0  0  0  0  0  0  0  0  0
  162.4790  209.6340  149.0770 C   0  0  0  0  0  1  0  0  0  0  0  0
  161.3010  209.6230  151.2830 C   0  0  0  0  0  0  0  0  0  0  0  0
  161.8910  208.9430  150.2650 C   0  0  0  0  0  0  0  0  0  0  0  0
  160.8460  208.8960  152.5080 C   0  0  0  0  0  1  0  0  0  0  0  0
  161.0800  211.0880  151.3300 C   0  0  0  0  0  3  0  0  0  0  0  0
  159.2280  212.3280  152.6930 C   0  0  0  0  0  3  0  0  0  0  0  0
  160.1500  211.7030  152.0130 C   0  0  0  0  0  0  0  0  0  0  0  0
  156.6860  213.8720  148.5400 C   0  0  0  0  0  3  0  0  0  0  0  0
  158.9170  213.4520  149.7380 C   0  0  0  0  0  3  0  0  0  0  0  0
  156.8790  213.9860  150.9350 C   0  0  0  0  0  0  0  0  0  0  0  0
  158.7770  213.6890  152.2810 C   0  0  1  0  0  3  0  0  0  0  0  0
  154.6360  214.4520  149.7580 C   0  0  0  0  0  1  0  0  0  0  0  0
  156.4890  214.2020  152.1420 N   0  0  0  0  0  2  0  0  0  0  0  0
  158.1610  213.4980  148.4220 C   0  0  0  0  0  3  0  0  0  0  0  0
  158.2730  213.6610  150.8840 C   0  0  0  0  0  0  0  0  0  0  0  0
  157.5750  214.0340  152.9790 O   0  0  0  0  0  0  0  0  0  0  0  0
  156.0790  214.0920  149.7140 C   0  0  0  0  0  0  0  0  0  0  0  0
  162.5600  206.8370  151.5550 C   0  0  0  0  0  2  0  0  0  0  0  0
  162.2000  205.3600  151.5950 C   0  0  0  0  0  2  0  0  0  0  0  0
  161.0080  205.1320  152.5100 C   0  0  2  0  0  3  0  0  0  0  0  0
  161.2290  205.7880  153.7880 N   0  0  0  0  0  1  0  0  0  0  0  0
  160.7060  203.6440  152.7100 C   0  0  0  0  0  2  0  0  0  0  0  0
  162.2930  202.1820  151.6870 O   0  0  0  0  0  1  0  0  0  0  0  0
  161.1990  202.7950  151.5820 C   0  0  0  0  0  0  0  0  0  0  0  0
  160.4390  202.6600  150.4290 O   0  0  0  0  0  0  0  0  0  0  0  0
  1  3  1  0  0  0  0
  2  7  1  0  0  0  0
  3 10  1  0  0  0  0
  4  8  1  0  0  0  0
  5 11  1  0  0  0  0
  6  4  2  0  0  0  0
  7  5  2  0  0  0  0
  7  1  1  0  0  0  0
  8 29  1  6  0  0  0
  9  5  1  0  0  0  0
 10  4  1  0  0  0  0
 11  3  2  0  0  0  0
 11  6  1  0  0  0  0
 12 14  1  0  0  0  0
 13 16  1  0  0  0  0
 13 15  1  0  0  0  0
 14  8  1  0  0  0  0
 14 13  2  0  0  0  0
 16 18  2  0  0  0  0
 18 17  2  0  0  0  0
 19 28  1  0  0  0  0
 20 26  2  0  0  0  0
 21 24  1  0  0  0  0
 22 17  1  1  0  0  0
 22 27  1  0  0  0  0
 24 27  1  0  0  0  0
 25 19  2  0  0  0  0
 25 20  1  0  0  0  0
 26 21  1  0  0  0  0
 26 22  1  0  0  0  0
 28 23  1  0  0  0  0
 28 21  2  0  0  0  0
 29 30  1  0  0  0  0
 30 31  1  0  0  0  0
 31 33  1  0  0  0  0
 31 32  1  1  0  0  0
 35 34  1  0  0  0  0
 35 33  1  0  0  0  0
 36 35  2  0  0  0  0
M  END
>  <MODEL>
9

>  <REMARK>
 VINA RESULT:      -6.0      4.232      6.353
  Name = 
  8 active torsions:
  status: ('A' for Active; 'I' for Inactive)
    1  A    between atoms: C_7  and  C_19
    2  A    between atoms: C_9  and  C_16
    3  A    between atoms: C_14  and  C_21
    4  A    between atoms: C_14  and  C_24
    5  A    between atoms: C_15  and  C_26
    6  A    between atoms: C_21  and  C_32
    7  A    between atoms: C_24  and  C_25
    8  A    between atoms: C_25  and  C_26
                            x       y       z     vdW  Elec       q    Type
                         _______ _______ _______ _____ _____    ______ ____

>  <TORSDO>
F 8

$$$$
