=
 OpenBabel11052410253D

 36 40  0  0  1  0  0  0  0  0999 V2000
  162.0870  207.4100  148.7460 C   0  0  0  0  0  1  0  0  0  0  0  0
  160.8940  207.8540  150.8070 C   0  0  2  0  0  3  0  0  0  0  0  0
  161.3380  206.4250  150.8450 N   0  0  1  0  0  0  0  0  0  0  0  0
  160.4660  209.6770  152.4910 C   0  0  0  0  0  3  0  0  0  0  0  0
  162.1880  207.4780  150.2570 C   0  0  1  0  0  3  0  0  0  0  0  0
  160.4680  209.6820  153.9940 C   0  0  2  0  0  0  0  0  0  0  0  0
  160.9660  208.4940  152.1530 C   0  0  0  0  0  0  0  0  0  0  0  0
  159.3710  210.1370  156.2830 C   0  0  0  0  0  1  0  0  0  0  0  0
  162.1200  205.9520  152.0120 C   0  0  1  0  0  3  0  0  0  0  0  0
  161.2230  207.7210  153.3350 C   0  0  0  0  0  0  0  0  0  0  0  0
  159.6850  210.6290  154.8790 C   0  0  1  0  0  0  0  0  0  0  0  0
  161.1720  210.8650  154.6330 C   0  0  0  0  0  2  0  0  0  0  0  0
  161.6740  206.5160  153.2920 N   0  0  0  0  0  0  0  0  0  0  0  0
  160.9080  208.4240  154.4800 O   0  0  0  0  0  0  0  0  0  0  0  0
  162.0760  204.4350  152.0700 C   0  0  0  0  0  2  0  0  0  0  0  0
  160.8510  203.9150  151.3440 C   0  0  0  0  0  2  0  0  0  0  0  0
  161.1330  202.6630  150.7980 O   0  0  0  0  0  0  0  0  0  0  0  0
  160.7650  201.3510  148.8450 C   0  0  0  0  0  2  0  0  0  0  0  0
  160.8630  201.7010  147.3790 C   0  0  0  0  0  2  0  0  0  0  0  0
  161.1210  203.7460  148.6670 C   0  0  0  0  0  2  0  0  0  0  0  0
  161.4590  203.0920  147.3380 C   0  0  0  0  0  2  0  0  0  0  0  0
  160.5130  202.6680  149.5470 C   0  0  0  0  0  3  0  0  0  0  0  0
  158.7690  211.6360  154.1730 C   0  0  2  0  0  3  0  0  0  0  0  0
  159.2900  213.0690  154.2630 C   0  0  0  0  0  2  0  0  0  0  0  0
  158.7700  213.8870  153.0970 C   0  0  0  0  0  2  0  0  0  0  0  0
  158.8330  213.0580  151.8330 C   0  0  0  0  0  2  0  0  0  0  0  0
  159.8390  213.6690  150.8790 C   0  0  0  0  0  2  0  0  0  0  0  0
  158.1520  213.3100  149.4300 O   0  0  0  0  0  1  0  0  0  0  0  0
  159.1490  214.1820  149.7090 N   0  0  0  0  0  0  0  0  0  0  0  0
  160.0940  214.1120  148.6030 C   0  0  0  0  0  2  0  0  0  0  0  0
  161.2170  213.1380  148.9270 C   0  0  0  0  0  2  0  0  0  0  0  0
  163.2290  212.3940  147.7630 N   0  0  0  0  0  1  0  0  0  0  0  0
  161.7830  212.5090  147.6620 C   0  0  0  0  0  2  0  0  0  0  0  0
  157.3680  211.5130  154.5930 N   0  0  0  0  0  2  0  0  0  0  0  0
  157.0830  212.3810  155.7310 C   0  0  0  0  0  2  0  0  0  0  0  0
  155.6550  212.8760  155.6400 C   0  0  0  0  0  1  0  0  0  0  0  0
  1  5  1  0  0  0  0
  2  3  1  0  0  0  0
  2  7  1  1  0  0  0
  3  9  1  0  0  0  0
  4  6  1  0  0  0  0
  5  2  1  0  0  0  0
  5  3  1  0  0  0  0
  6 14  1  0  0  0  0
  6 12  1  0  0  0  0
  6 11  1  0  0  0  0
  7  4  2  0  0  0  0
  7 10  1  0  0  0  0
  9 15  1  0  0  0  0
  9 13  1  0  0  0  0
 10 14  1  0  0  0  0
 11  8  1  0  0  0  0
 12 11  1  0  0  0  0
 13 10  2  0  0  0  0
 16 15  1  0  0  0  0
 17 16  1  0  0  0  0
 18 22  1  0  0  0  0
 19 18  1  0  0  0  0
 20 22  1  0  0  0  0
 21 19  1  0  0  0  0
 21 20  1  0  0  0  0
 22 17  1  0  0  0  0
 23 24  1  0  0  0  0
 23 34  1  0  0  0  0
 23 11  1  0  0  0  0
 25 24  1  0  0  0  0
 26 25  1  0  0  0  0
 27 26  1  0  0  0  0
 28 29  1  0  0  0  0
 29 27  1  0  0  0  0
 30 31  1  0  0  0  0
 30 29  1  0  0  0  0
 33 32  1  0  0  0  0
 33 31  1  0  0  0  0
 34 35  1  0  0  0  0
 36 35  1  0  0  0  0
M  END
>  <MODEL>
1

>  <REMARK>
 VINA RESULT:      -6.9      0.000      0.000
  Name = 
  15 active torsions:
  status: ('A' for Active; 'I' for Inactive)
    1  A    between atoms: C_1  and  C_16
    2  A    between atoms: C_1  and  C_29
    3  A    between atoms: C_2  and  C_12
    4  A    between atoms: C_2  and  N_17
    5  A    between atoms: C_4  and  C_24
    6  A    between atoms: C_4  and  C_28
    7  A    between atoms: C_8  and  C_14
    8  A    between atoms: C_8  and  N_17
    9  A    between atoms: C_10  and  N_33
   10  A    between atoms: C_12  and  C_29
   11  A    between atoms: C_14  and  C_35
   12  A    between atoms: C_16  and  C_27
   13  A    between atoms: C_16  and  N_33
   14  A    between atoms: O_26  and  C_28
   15  A    between atoms: O_26  and  C_31
                            x       y       z     vdW  Elec       q    Type
                         _______ _______ _______ _____ _____    ______ ____

>  <TORSDO>
F 15

$$$$
=
 OpenBabel11052410253D

 36 40  0  0  1  0  0  0  0  0999 V2000
  160.2620  207.0060  157.2600 C   0  0  0  0  0  1  0  0  0  0  0  0
  160.1770  207.7130  154.9440 C   0  0  2  0  0  3  0  0  0  0  0  0
  160.1560  208.9480  155.7900 N   0  0  1  0  0  0  0  0  0  0  0  0
  161.0150  207.0850  152.6530 C   0  0  0  0  0  3  0  0  0  0  0  0
  160.9710  207.7750  156.1620 C   0  0  1  0  0  3  0  0  0  0  0  0
  161.6150  207.8990  151.5410 C   0  0  2  0  0  0  0  0  0  0  0  0
  160.9640  207.9110  153.6910 C   0  0  0  0  0  0  0  0  0  0  0  0
  161.7090  208.7240  149.1000 C   0  0  0  0  0  1  0  0  0  0  0  0
  161.1600  210.0070  155.5310 C   0  0  1  0  0  3  0  0  0  0  0  0
  161.4300  209.2110  153.3000 C   0  0  0  0  0  0  0  0  0  0  0  0
  161.5670  207.5590  150.0670 C   0  0  1  0  0  0  0  0  0  0  0  0
  162.8320  207.2810  150.8760 C   0  0  0  0  0  2  0  0  0  0  0  0
  161.4480  210.2140  154.1070 N   0  0  0  0  0  0  0  0  0  0  0  0
  161.8200  209.2340  151.9770 O   0  0  0  0  0  0  0  0  0  0  0  0
  160.6960  211.3080  156.1620 C   0  0  0  0  0  2  0  0  0  0  0  0
  159.9440  212.1470  155.1480 C   0  0  0  0  0  2  0  0  0  0  0  0
  159.2590  213.1680  155.8090 O   0  0  0  0  0  0  0  0  0  0  0  0
  156.9500  213.1260  156.3880 C   0  0  0  0  0  2  0  0  0  0  0  0
  155.8080  212.2890  155.8610 C   0  0  0  0  0  2  0  0  0  0  0  0
  157.7610  211.8660  154.4770 C   0  0  0  0  0  2  0  0  0  0  0  0
  156.4490  211.2630  154.9510 C   0  0  0  0  0  2  0  0  0  0  0  0
  157.9710  213.1440  155.2700 C   0  0  0  0  0  3  0  0  0  0  0  0
  160.7900  206.2970  149.6740 C   0  0  2  0  0  3  0  0  0  0  0  0
  161.4980  205.0120  150.0960 C   0  0  0  0  0  2  0  0  0  0  0  0
  160.4790  203.9400  150.4290 C   0  0  0  0  0  2  0  0  0  0  0  0
  161.1720  202.7880  151.1250 C   0  0  0  0  0  2  0  0  0  0  0  0
  160.7630  201.4840  150.4710 C   0  0  0  0  0  2  0  0  0  0  0  0
  158.8620  201.1420  149.3110 O   0  0  0  0  0  1  0  0  0  0  0  0
  160.0630  201.7630  149.2290 N   0  0  0  0  0  0  0  0  0  0  0  0
  160.8120  201.0990  148.1710 C   0  0  0  0  0  2  0  0  0  0  0  0
  160.9340  202.0100  146.9570 C   0  0  0  0  0  2  0  0  0  0  0  0
  159.6960  201.8720  144.8590 N   0  0  0  0  0  1  0  0  0  0  0  0
  160.7260  201.2350  145.6650 C   0  0  0  0  0  2  0  0  0  0  0  0
  160.4020  206.2940  148.2590 N   0  0  0  0  0  2  0  0  0  0  0  0
  161.5320  205.9400  147.4050 C   0  0  0  0  0  2  0  0  0  0  0  0
  161.0610  205.8220  145.9710 C   0  0  0  0  0  1  0  0  0  0  0  0
  2  7  1  6  0  0  0
  2  3  1  0  0  0  0
  2  5  1  0  0  0  0
  3  5  1  0  0  0  0
  4  7  2  0  0  0  0
  5  1  1  0  0  0  0
  6 14  1  0  0  0  0
  6  4  1  0  0  0  0
  8 11  1  0  0  0  0
  9  3  1  0  0  0  0
  9 15  1  0  0  0  0
 10  7  1  0  0  0  0
 10 13  2  0  0  0  0
 11 12  1  0  0  0  0
 11  6  1  0  0  0  0
 12  6  1  0  0  0  0
 13  9  1  0  0  0  0
 14 10  1  0  0  0  0
 16 17  1  0  0  0  0
 16 15  1  0  0  0  0
 19 18  1  0  0  0  0
 20 21  1  0  0  0  0
 20 22  1  0  0  0  0
 21 19  1  0  0  0  0
 22 17  1  0  0  0  0
 22 18  1  0  0  0  0
 23 11  1  0  0  0  0
 23 24  1  0  0  0  0
 24 25  1  0  0  0  0
 25 26  1  0  0  0  0
 27 26  1  0  0  0  0
 29 28  1  0  0  0  0
 29 27  1  0  0  0  0
 30 29  1  0  0  0  0
 31 30  1  0  0  0  0
 32 33  1  0  0  0  0
 33 31  1  0  0  0  0
 34 23  1  0  0  0  0
 35 34  1  0  0  0  0
 36 35  1  0  0  0  0
M  END
>  <MODEL>
2

>  <REMARK>
 VINA RESULT:      -6.7      2.973      9.478
  Name = 
  15 active torsions:
  status: ('A' for Active; 'I' for Inactive)
    1  A    between atoms: C_1  and  C_16
    2  A    between atoms: C_1  and  C_29
    3  A    between atoms: C_2  and  C_12
    4  A    between atoms: C_2  and  N_17
    5  A    between atoms: C_4  and  C_24
    6  A    between atoms: C_4  and  C_28
    7  A    between atoms: C_8  and  C_14
    8  A    between atoms: C_8  and  N_17
    9  A    between atoms: C_10  and  N_33
   10  A    between atoms: C_12  and  C_29
   11  A    between atoms: C_14  and  C_35
   12  A    between atoms: C_16  and  C_27
   13  A    between atoms: C_16  and  N_33
   14  A    between atoms: O_26  and  C_28
   15  A    between atoms: O_26  and  C_31
                            x       y       z     vdW  Elec       q    Type
                         _______ _______ _______ _____ _____    ______ ____

>  <TORSDO>
F 15

$$$$
=
 OpenBabel11052410253D

 36 40  0  0  1  0  0  0  0  0999 V2000
  160.2680  206.9820  157.1540 C   0  0  0  0  0  1  0  0  0  0  0  0
  160.2140  207.6500  154.8250 C   0  0  2  0  0  3  0  0  0  0  0  0
  160.0870  208.8920  155.6510 N   0  0  1  0  0  0  0  0  0  0  0  0
  161.1630  207.0450  152.5720 C   0  0  0  0  0  3  0  0  0  0  0  0
  160.9620  207.7790  156.0670 C   0  0  1  0  0  3  0  0  0  0  0  0
  161.7470  207.8790  151.4670 C   0  0  2  0  0  0  0  0  0  0  0  0
  161.0270  207.8800  153.5950 C   0  0  0  0  0  0  0  0  0  0  0  0
  161.8670  208.6750  149.0170 C   0  0  0  0  0  1  0  0  0  0  0  0
  161.0300  210.0090  155.4070 C   0  0  1  0  0  3  0  0  0  0  0  0
  161.4220  209.2010  153.1980 C   0  0  0  0  0  0  0  0  0  0  0  0
  161.7680  207.5160  149.9980 C   0  0  1  0  0  0  0  0  0  0  0  0
  163.0210  207.3310  150.8510 C   0  0  0  0  0  2  0  0  0  0  0  0
  161.3500  210.2140  153.9890 N   0  0  0  0  0  0  0  0  0  0  0  0
  161.8530  209.2310  151.8870 O   0  0  0  0  0  0  0  0  0  0  0  0
  160.4650  211.2870  156.0020 C   0  0  0  0  0  2  0  0  0  0  0  0
  159.5190  211.9520  155.0220 C   0  0  0  0  0  2  0  0  0  0  0  0
  158.3110  211.2550  154.9970 O   0  0  0  0  0  0  0  0  0  0  0  0
  158.6510  212.2050  152.8400 C   0  0  0  0  0  2  0  0  0  0  0  0
  157.9890  213.3780  152.1550 C   0  0  0  0  0  2  0  0  0  0  0  0
  156.8010  212.9410  154.2300 C   0  0  0  0  0  2  0  0  0  0  0  0
  157.1230  214.0250  153.2150 C   0  0  0  0  0  2  0  0  0  0  0  0
  157.6440  211.7320  153.8670 C   0  0  0  0  0  3  0  0  0  0  0  0
  161.0850  206.2020  149.6010 C   0  0  2  0  0  3  0  0  0  0  0  0
  160.1930  206.3500  148.3700 C   0  0  0  0  0  2  0  0  0  0  0  0
  160.9920  206.0790  147.1110 C   0  0  0  0  0  2  0  0  0  0  0  0
  161.9640  204.9480  147.3660 C   0  0  0  0  0  2  0  0  0  0  0  0
  162.4500  204.3930  146.0430 C   0  0  0  0  0  2  0  0  0  0  0  0
  160.6880  203.6800  144.8320 O   0  0  0  0  0  1  0  0  0  0  0  0
  161.6490  203.2370  145.6770 N   0  0  0  0  0  0  0  0  0  0  0  0
  160.9760  202.7960  146.8900 C   0  0  0  0  0  2  0  0  0  0  0  0
  160.9310  201.2760  146.9490 C   0  0  0  0  0  2  0  0  0  0  0  0
  160.1970  201.1170  149.2710 N   0  0  0  0  0  1  0  0  0  0  0  0
  161.2630  200.7680  148.3440 C   0  0  0  0  0  2  0  0  0  0  0  0
  160.3970  205.5640  150.7280 N   0  0  0  0  0  2  0  0  0  0  0  0
  160.5080  204.1100  150.6560 C   0  0  0  0  0  2  0  0  0  0  0  0
  161.6700  203.6510  151.5130 C   0  0  0  0  0  1  0  0  0  0  0  0
  2  7  1  6  0  0  0
  2  3  1  0  0  0  0
  2  5  1  0  0  0  0
  3  5  1  0  0  0  0
  4  7  2  0  0  0  0
  5  1  1  0  0  0  0
  6 14  1  0  0  0  0
  6  4  1  0  0  0  0
  8 11  1  0  0  0  0
  9  3  1  0  0  0  0
  9 15  1  0  0  0  0
 10  7  1  0  0  0  0
 10 13  2  0  0  0  0
 11 12  1  0  0  0  0
 11  6  1  0  0  0  0
 12  6  1  0  0  0  0
 13  9  1  0  0  0  0
 14 10  1  0  0  0  0
 16 15  1  0  0  0  0
 17 16  1  0  0  0  0
 18 22  1  0  0  0  0
 19 18  1  0  0  0  0
 19 21  1  0  0  0  0
 21 20  1  0  0  0  0
 22 20  1  0  0  0  0
 22 17  1  0  0  0  0
 23 11  1  0  0  0  0
 23 34  1  0  0  0  0
 24 23  1  0  0  0  0
 25 26  1  0  0  0  0
 25 24  1  0  0  0  0
 27 26  1  0  0  0  0
 28 29  1  0  0  0  0
 29 27  1  0  0  0  0
 29 30  1  0  0  0  0
 30 31  1  0  0  0  0
 31 33  1  0  0  0  0
 33 32  1  0  0  0  0
 35 34  1  0  0  0  0
 35 36  1  0  0  0  0
M  END
>  <MODEL>
3

>  <REMARK>
 VINA RESULT:      -6.3      2.842      8.971
  Name = 
  15 active torsions:
  status: ('A' for Active; 'I' for Inactive)
    1  A    between atoms: C_1  and  C_16
    2  A    between atoms: C_1  and  C_29
    3  A    between atoms: C_2  and  C_12
    4  A    between atoms: C_2  and  N_17
    5  A    between atoms: C_4  and  C_24
    6  A    between atoms: C_4  and  C_28
    7  A    between atoms: C_8  and  C_14
    8  A    between atoms: C_8  and  N_17
    9  A    between atoms: C_10  and  N_33
   10  A    between atoms: C_12  and  C_29
   11  A    between atoms: C_14  and  C_35
   12  A    between atoms: C_16  and  C_27
   13  A    between atoms: C_16  and  N_33
   14  A    between atoms: O_26  and  C_28
   15  A    between atoms: O_26  and  C_31
                            x       y       z     vdW  Elec       q    Type
                         _______ _______ _______ _____ _____    ______ ____

>  <TORSDO>
F 15

$$$$
=
 OpenBabel11052410253D

 36 40  0  0  1  0  0  0  0  0999 V2000
  161.1950  207.7710  157.1710 C   0  0  0  0  0  1  0  0  0  0  0  0
  160.5350  207.5500  154.8500 C   0  0  2  0  0  3  0  0  0  0  0  0
  160.0060  208.8600  155.3430 N   0  0  1  0  0  0  0  0  0  0  0  0
  161.3270  206.6130  152.6500 C   0  0  0  0  0  3  0  0  0  0  0  0
  161.3220  208.3510  155.7760 C   0  0  1  0  0  3  0  0  0  0  0  0
  161.3370  207.1790  151.2580 C   0  0  2  0  0  0  0  0  0  0  0  0
  160.9910  207.6320  153.4310 C   0  0  0  0  0  0  0  0  0  0  0  0
  160.7610  207.0910  148.7460 C   0  0  0  0  0  1  0  0  0  0  0  0
  160.3360  210.0920  154.5870 C   0  0  1  0  0  3  0  0  0  0  0  0
  160.7230  208.7910  152.6270 C   0  0  0  0  0  0  0  0  0  0  0  0
  161.3060  206.3780  149.9740 C   0  0  1  0  0  0  0  0  0  0  0  0
  162.6230  206.9580  150.4830 C   0  0  0  0  0  2  0  0  0  0  0  0
  160.3370  209.9110  153.1310 N   0  0  0  0  0  0  0  0  0  0  0  0
  160.9120  208.5330  151.2850 O   0  0  0  0  0  0  0  0  0  0  0  0
  159.3680  211.1960  154.9730 C   0  0  0  0  0  2  0  0  0  0  0  0
  158.8270  211.8810  153.7340 C   0  0  0  0  0  2  0  0  0  0  0  0
  159.4760  213.1020  153.5570 O   0  0  0  0  0  0  0  0  0  0  0  0
  157.7350  213.9990  154.9110 C   0  0  0  0  0  2  0  0  0  0  0  0
  156.2970  214.3330  154.5890 C   0  0  0  0  0  2  0  0  0  0  0  0
  157.4220  213.7450  152.5170 C   0  0  0  0  0  2  0  0  0  0  0  0
  156.0630  213.7950  153.1930 C   0  0  0  0  0  2  0  0  0  0  0  0
  158.4580  214.0570  153.5820 C   0  0  0  0  0  3  0  0  0  0  0  0
  161.2020  204.8540  150.1120 C   0  0  2  0  0  3  0  0  0  0  0  0
  161.1270  204.1430  148.7630 C   0  0  0  0  0  2  0  0  0  0  0  0
  161.4220  202.6660  148.9350 C   0  0  0  0  0  2  0  0  0  0  0  0
  160.3570  201.8560  148.2280 C   0  0  0  0  0  2  0  0  0  0  0  0
  160.9090  201.3300  146.9190 C   0  0  0  0  0  2  0  0  0  0  0  0
  160.0600  201.1070  144.8430 O   0  0  0  0  0  1  0  0  0  0  0  0
  160.2800  202.0290  145.8110 N   0  0  0  0  0  0  0  0  0  0  0  0
  161.2690  202.9610  145.2910 C   0  0  0  0  0  2  0  0  0  0  0  0
  160.6140  204.2930  144.9510 C   0  0  0  0  0  2  0  0  0  0  0  0
  162.7830  205.0770  145.7490 N   0  0  0  0  0  1  0  0  0  0  0  0
  161.6390  205.4180  144.9180 C   0  0  0  0  0  2  0  0  0  0  0  0
  160.1320  204.4450  151.0300 N   0  0  0  0  0  2  0  0  0  0  0  0
  160.5250  203.2720  151.8050 C   0  0  0  0  0  2  0  0  0  0  0  0
  162.0020  203.3560  152.1310 C   0  0  0  0  0  1  0  0  0  0  0  0
  2  7  1  6  0  0  0
  2  3  1  0  0  0  0
  2  5  1  0  0  0  0
  3  5  1  0  0  0  0
  4  7  2  0  0  0  0
  5  1  1  0  0  0  0
  6 14  1  0  0  0  0
  6  4  1  0  0  0  0
  8 11  1  0  0  0  0
  9 15  1  0  0  0  0
  9  3  1  0  0  0  0
 10 13  2  0  0  0  0
 10  7  1  0  0  0  0
 11 23  1  0  0  0  0
 11 12  1  0  0  0  0
 11  6  1  0  0  0  0
 12  6  1  0  0  0  0
 13  9  1  0  0  0  0
 14 10  1  0  0  0  0
 16 15  1  0  0  0  0
 17 22  1  0  0  0  0
 17 16  1  0  0  0  0
 19 18  1  0  0  0  0
 20 21  1  0  0  0  0
 20 22  1  0  0  0  0
 21 19  1  0  0  0  0
 22 18  1  0  0  0  0
 23 34  1  0  0  0  0
 24 25  1  0  0  0  0
 24 23  1  0  0  0  0
 26 25  1  0  0  0  0
 27 26  1  0  0  0  0
 28 29  1  0  0  0  0
 29 27  1  0  0  0  0
 30 29  1  0  0  0  0
 31 30  1  0  0  0  0
 33 31  1  0  0  0  0
 33 32  1  0  0  0  0
 34 35  1  0  0  0  0
 35 36  1  0  0  0  0
M  END
>  <MODEL>
4

>  <REMARK>
 VINA RESULT:      -6.1      2.841      9.390
  Name = 
  15 active torsions:
  status: ('A' for Active; 'I' for Inactive)
    1  A    between atoms: C_1  and  C_16
    2  A    between atoms: C_1  and  C_29
    3  A    between atoms: C_2  and  C_12
    4  A    between atoms: C_2  and  N_17
    5  A    between atoms: C_4  and  C_24
    6  A    between atoms: C_4  and  C_28
    7  A    between atoms: C_8  and  C_14
    8  A    between atoms: C_8  and  N_17
    9  A    between atoms: C_10  and  N_33
   10  A    between atoms: C_12  and  C_29
   11  A    between atoms: C_14  and  C_35
   12  A    between atoms: C_16  and  C_27
   13  A    between atoms: C_16  and  N_33
   14  A    between atoms: O_26  and  C_28
   15  A    between atoms: O_26  and  C_31
                            x       y       z     vdW  Elec       q    Type
                         _______ _______ _______ _____ _____    ______ ____

>  <TORSDO>
F 15

$$$$
=
 OpenBabel11052410253D

 36 40  0  0  1  0  0  0  0  0999 V2000
  161.5230  206.6190  148.0830 C   0  0  0  0  0  1  0  0  0  0  0  0
  160.6110  206.7310  150.3260 C   0  0  2  0  0  3  0  0  0  0  0  0
  160.6320  205.2900  149.9220 N   0  0  1  0  0  0  0  0  0  0  0  0
  160.8060  208.0260  152.4770 C   0  0  0  0  0  3  0  0  0  0  0  0
  161.7160  206.2130  149.5310 C   0  0  1  0  0  3  0  0  0  0  0  0
  160.8860  207.5900  153.9130 C   0  0  2  0  0  0  0  0  0  0  0  0
  160.9310  206.9070  151.7730 C   0  0  0  0  0  0  0  0  0  0  0  0
  160.0810  207.6200  156.3630 C   0  0  0  0  0  1  0  0  0  0  0  0
  161.3060  204.3110  150.8080 C   0  0  1  0  0  3  0  0  0  0  0  0
  161.0180  205.7830  152.6610 C   0  0  0  0  0  0  0  0  0  0  0  0
  160.4500  208.4040  155.1130 C   0  0  1  0  0  0  0  0  0  0  0  0
  161.9290  208.3090  154.7470 C   0  0  0  0  0  2  0  0  0  0  0  0
  161.1040  204.5700  152.2380 N   0  0  0  0  0  0  0  0  0  0  0  0
  160.9750  206.1760  153.9830 O   0  0  0  0  0  0  0  0  0  0  0  0
  160.8350  202.9090  150.4630 C   0  0  0  0  0  2  0  0  0  0  0  0
  160.6190  202.7770  148.9680 C   0  0  0  0  0  2  0  0  0  0  0  0
  161.1320  201.5560  148.5320 O   0  0  0  0  0  0  0  0  0  0  0  0
  161.6480  203.2920  146.9870 C   0  0  0  0  0  2  0  0  0  0  0  0
  161.2990  203.4610  145.5270 C   0  0  0  0  0  2  0  0  0  0  0  0
  160.6090  201.2360  146.2210 C   0  0  0  0  0  2  0  0  0  0  0  0
  160.3310  202.3390  145.2150 C   0  0  0  0  0  2  0  0  0  0  0  0
  161.5890  201.8000  147.2350 C   0  0  0  0  0  3  0  0  0  0  0  0
  159.8250  209.7740  154.8280 C   0  0  2  0  0  3  0  0  0  0  0  0
  160.8700  210.8640  154.5990 C   0  0  0  0  0  2  0  0  0  0  0  0
  160.6550  211.5190  153.2490 C   0  0  0  0  0  2  0  0  0  0  0  0
  159.5290  212.5250  153.3520 C   0  0  0  0  0  2  0  0  0  0  0  0
  158.6410  212.4130  152.1300 C   0  0  0  0  0  2  0  0  0  0  0  0
  157.1740  214.0670  151.6910 O   0  0  0  0  0  1  0  0  0  0  0  0
  158.4750  213.7260  151.5290 N   0  0  0  0  0  0  0  0  0  0  0  0
  158.6950  213.5610  150.0990 C   0  0  0  0  0  2  0  0  0  0  0  0
  160.1840  213.4710  149.7990 C   0  0  0  0  0  2  0  0  0  0  0  0
  161.4090  212.3130  148.0340 N   0  0  0  0  0  1  0  0  0  0  0  0
  160.4390  213.3630  148.3030 C   0  0  0  0  0  2  0  0  0  0  0  0
  158.8190  210.1520  155.8280 N   0  0  0  0  0  2  0  0  0  0  0  0
  159.3720  211.0900  156.8000 C   0  0  0  0  0  2  0  0  0  0  0  0
  158.3670  212.1920  157.0640 C   0  0  0  0  0  1  0  0  0  0  0  0
  1  5  1  0  0  0  0
  2  7  1  1  0  0  0
  3  2  1  0  0  0  0
  3  9  1  0  0  0  0
  4  6  1  0  0  0  0
  5  3  1  0  0  0  0
  5  2  1  0  0  0  0
  6 14  1  0  0  0  0
  6 12  1  0  0  0  0
  6 11  1  0  0  0  0
  7  4  2  0  0  0  0
  7 10  1  0  0  0  0
  9 13  1  0  0  0  0
 10 14  1  0  0  0  0
 11  8  1  0  0  0  0
 12 11  1  0  0  0  0
 13 10  2  0  0  0  0
 15  9  1  0  0  0  0
 16 15  1  0  0  0  0
 17 16  1  0  0  0  0
 18 22  1  0  0  0  0
 19 18  1  0  0  0  0
 20 22  1  0  0  0  0
 21 19  1  0  0  0  0
 21 20  1  0  0  0  0
 22 17  1  0  0  0  0
 23 11  1  0  0  0  0
 23 34  1  0  0  0  0
 24 23  1  0  0  0  0
 25 26  1  0  0  0  0
 25 24  1  0  0  0  0
 27 26  1  0  0  0  0
 29 28  1  0  0  0  0
 29 27  1  0  0  0  0
 30 29  1  0  0  0  0
 31 30  1  0  0  0  0
 32 33  1  0  0  0  0
 33 31  1  0  0  0  0
 34 35  1  0  0  0  0
 35 36  1  0  0  0  0
M  END
>  <MODEL>
5

>  <REMARK>
 VINA RESULT:      -6.1      1.564      2.321
  Name = 
  15 active torsions:
  status: ('A' for Active; 'I' for Inactive)
    1  A    between atoms: C_1  and  C_16
    2  A    between atoms: C_1  and  C_29
    3  A    between atoms: C_2  and  C_12
    4  A    between atoms: C_2  and  N_17
    5  A    between atoms: C_4  and  C_24
    6  A    between atoms: C_4  and  C_28
    7  A    between atoms: C_8  and  C_14
    8  A    between atoms: C_8  and  N_17
    9  A    between atoms: C_10  and  N_33
   10  A    between atoms: C_12  and  C_29
   11  A    between atoms: C_14  and  C_35
   12  A    between atoms: C_16  and  C_27
   13  A    between atoms: C_16  and  N_33
   14  A    between atoms: O_26  and  C_28
   15  A    between atoms: O_26  and  C_31
                            x       y       z     vdW  Elec       q    Type
                         _______ _______ _______ _____ _____    ______ ____

>  <TORSDO>
F 15

$$$$
=
 OpenBabel11052410253D

 36 40  0  0  1  0  0  0  0  0999 V2000
  160.0630  211.5510  152.2960 C   0  0  0  0  0  1  0  0  0  0  0  0
  161.0970  209.3670  152.1160 C   0  0  2  0  0  3  0  0  0  0  0  0
  161.4540  209.9220  153.4590 N   0  0  1  0  0  0  0  0  0  0  0  0
  160.7290  207.0800  151.1250 C   0  0  0  0  0  3  0  0  0  0  0  0
  160.1220  210.1470  152.8640 C   0  0  1  0  0  3  0  0  0  0  0  0
  160.9040  205.6980  151.6880 C   0  0  2  0  0  0  0  0  0  0  0  0
  160.8690  207.8930  152.1660 C   0  0  0  0  0  0  0  0  0  0  0  0
  161.8780  203.3110  151.6350 C   0  0  0  0  0  1  0  0  0  0  0  0
  161.1690  209.1090  154.6650 C   0  0  1  0  0  3  0  0  0  0  0  0
  161.1850  207.1280  153.3390 C   0  0  0  0  0  0  0  0  0  0  0  0
  161.1920  204.4450  150.8890 C   0  0  1  0  0  0  0  0  0  0  0  0
  159.7760  204.7310  151.3810 C   0  0  0  0  0  2  0  0  0  0  0  0
  161.4120  207.6730  154.4830 N   0  0  0  0  0  0  0  0  0  0  0  0
  161.2300  205.7760  153.0670 O   0  0  0  0  0  0  0  0  0  0  0  0
  161.9880  209.6310  155.8320 C   0  0  0  0  0  2  0  0  0  0  0  0
  161.1380  210.5170  156.7200 C   0  0  0  0  0  2  0  0  0  0  0  0
  161.0640  211.7950  156.1650 O   0  0  0  0  0  0  0  0  0  0  0  0
  158.8240  211.0850  156.5520 C   0  0  0  0  0  2  0  0  0  0  0  0
  157.5070  211.6320  156.0540 C   0  0  0  0  0  2  0  0  0  0  0  0
  159.2680  213.1710  155.3930 C   0  0  0  0  0  2  0  0  0  0  0  0
  157.8730  212.6890  155.0340 C   0  0  0  0  0  2  0  0  0  0  0  0
  159.7850  212.2530  156.4870 C   0  0  0  0  0  3  0  0  0  0  0  0
  161.3720  204.6160  149.3760 C   0  0  2  0  0  3  0  0  0  0  0  0
  161.6730  203.2990  148.6650 C   0  0  0  0  0  2  0  0  0  0  0  0
  160.4820  202.3660  148.7680 C   0  0  0  0  0  2  0  0  0  0  0  0
  160.6840  201.1890  147.8380 C   0  0  0  0  0  2  0  0  0  0  0  0
  161.1030  201.6920  146.4720 C   0  0  0  0  0  2  0  0  0  0  0  0
  160.0800  200.6290  144.7680 O   0  0  0  0  0  1  0  0  0  0  0  0
  159.9530  201.7030  145.5840 N   0  0  0  0  0  0  0  0  0  0  0  0
  160.0830  202.8880  144.7480 C   0  0  0  0  0  2  0  0  0  0  0  0
  161.2110  203.7740  145.2570 C   0  0  0  0  0  2  0  0  0  0  0  0
  160.3520  206.0380  144.9540 N   0  0  0  0  0  1  0  0  0  0  0  0
  161.3060  205.0620  144.4510 C   0  0  0  0  0  2  0  0  0  0  0  0
  162.3310  205.6750  149.0400 N   0  0  0  0  0  2  0  0  0  0  0  0
  161.8020  206.5530  148.0020 C   0  0  0  0  0  2  0  0  0  0  0  0
  162.3290  207.9570  148.2130 C   0  0  0  0  0  1  0  0  0  0  0  0
  1  5  1  0  0  0  0
  2  7  1  1  0  0  0
  2  5  1  0  0  0  0
  2  3  1  0  0  0  0
  3  9  1  0  0  0  0
  4  6  1  0  0  0  0
  4  7  2  0  0  0  0
  5  3  1  0  0  0  0
  6 14  1  0  0  0  0
  7 10  1  0  0  0  0
  9 15  1  0  0  0  0
 10 13  2  0  0  0  0
 11 12  1  0  0  0  0
 11  8  1  0  0  0  0
 11  6  1  0  0  0  0
 12  6  1  0  0  0  0
 13  9  1  0  0  0  0
 14 10  1  0  0  0  0
 15 16  1  0  0  0  0
 17 22  1  0  0  0  0
 17 16  1  0  0  0  0
 19 18  1  0  0  0  0
 20 22  1  0  0  0  0
 21 20  1  0  0  0  0
 21 19  1  0  0  0  0
 22 18  1  0  0  0  0
 23 11  1  0  0  0  0
 24 25  1  0  0  0  0
 24 23  1  0  0  0  0
 26 25  1  0  0  0  0
 27 26  1  0  0  0  0
 28 29  1  0  0  0  0
 29 27  1  0  0  0  0
 30 31  1  0  0  0  0
 30 29  1  0  0  0  0
 33 32  1  0  0  0  0
 33 31  1  0  0  0  0
 34 23  1  0  0  0  0
 35 36  1  0  0  0  0
 35 34  1  0  0  0  0
M  END
>  <MODEL>
6

>  <REMARK>
 VINA RESULT:      -5.9      2.858      9.238
  Name = 
  15 active torsions:
  status: ('A' for Active; 'I' for Inactive)
    1  A    between atoms: C_1  and  C_16
    2  A    between atoms: C_1  and  C_29
    3  A    between atoms: C_2  and  C_12
    4  A    between atoms: C_2  and  N_17
    5  A    between atoms: C_4  and  C_24
    6  A    between atoms: C_4  and  C_28
    7  A    between atoms: C_8  and  C_14
    8  A    between atoms: C_8  and  N_17
    9  A    between atoms: C_10  and  N_33
   10  A    between atoms: C_12  and  C_29
   11  A    between atoms: C_14  and  C_35
   12  A    between atoms: C_16  and  C_27
   13  A    between atoms: C_16  and  N_33
   14  A    between atoms: O_26  and  C_28
   15  A    between atoms: O_26  and  C_31
                            x       y       z     vdW  Elec       q    Type
                         _______ _______ _______ _____ _____    ______ ____

>  <TORSDO>
F 15

$$$$
=
 OpenBabel11052410253D

 36 40  0  0  1  0  0  0  0  0999 V2000
  161.2230  204.2130  151.4320 C   0  0  0  0  0  1  0  0  0  0  0  0
  161.6110  206.4760  152.2060 C   0  0  2  0  0  3  0  0  0  0  0  0
  162.1280  206.3870  150.8040 N   0  0  1  0  0  0  0  0  0  0  0  0
  160.6100  208.2630  153.6720 C   0  0  0  0  0  3  0  0  0  0  0  0
  160.9010  205.6790  151.2160 C   0  0  1  0  0  3  0  0  0  0  0  0
  160.4050  209.7370  153.4670 C   0  0  2  0  0  0  0  0  0  0  0  0
  160.9850  207.8020  152.4840 C   0  0  0  0  0  0  0  0  0  0  0  0
  160.6800  212.2060  154.1600 C   0  0  0  0  0  1  0  0  0  0  0  0
  161.6490  207.3700  149.8030 C   0  0  1  0  0  3  0  0  0  0  0  0
  161.0960  208.8900  151.5550 C   0  0  0  0  0  0  0  0  0  0  0  0
  160.3230  210.7820  154.5590 C   0  0  1  0  0  0  0  0  0  0  0  0
  159.0480  210.2640  153.8970 C   0  0  0  0  0  2  0  0  0  0  0  0
  161.4830  208.7270  150.3380 N   0  0  0  0  0  0  0  0  0  0  0  0
  160.7610  210.0940  152.1400 O   0  0  0  0  0  0  0  0  0  0  0  0
  162.5990  207.3910  148.6190 C   0  0  0  0  0  2  0  0  0  0  0  0
  162.3440  206.2000  147.7170 C   0  0  0  0  0  2  0  0  0  0  0  0
  161.7750  206.6380  146.5210 O   0  0  0  0  0  0  0  0  0  0  0  0
  160.6770  205.2620  144.9170 C   0  0  0  0  0  2  0  0  0  0  0  0
  160.7160  203.7690  144.6950 C   0  0  0  0  0  2  0  0  0  0  0  0
  162.3860  204.3320  146.3690 C   0  0  0  0  0  2  0  0  0  0  0  0
  161.4940  203.2090  145.8680 C   0  0  0  0  0  2  0  0  0  0  0  0
  161.9770  205.5890  145.6220 C   0  0  0  0  0  3  0  0  0  0  0  0
  160.5190  210.2930  155.9990 C   0  0  2  0  0  3  0  0  0  0  0  0
  160.1210  211.3400  157.0370 C   0  0  0  0  0  2  0  0  0  0  0  0
  158.6200  211.3170  157.2510 C   0  0  0  0  0  2  0  0  0  0  0  0
  158.0250  212.6260  156.7790 C   0  0  0  0  0  2  0  0  0  0  0  0
  156.5360  212.4520  156.5570 C   0  0  0  0  0  2  0  0  0  0  0  0
  155.4800  212.3240  154.5710 O   0  0  0  0  0  1  0  0  0  0  0  0
  156.1310  213.1960  155.3770 N   0  0  0  0  0  0  0  0  0  0  0  0
  157.3530  213.5800  154.6860 C   0  0  0  0  0  2  0  0  0  0  0  0
  157.0980  213.7110  153.1910 C   0  0  0  0  0  2  0  0  0  0  0  0
  158.4630  213.5970  151.1700 N   0  0  0  0  0  1  0  0  0  0  0  0
  158.3260  214.2430  152.4670 C   0  0  0  0  0  2  0  0  0  0  0  0
  161.8620  209.7470  156.2290 N   0  0  0  0  0  2  0  0  0  0  0  0
  161.8350  208.6950  157.2400 C   0  0  0  0  0  2  0  0  0  0  0  0
  160.5800  207.8660  157.0700 C   0  0  0  0  0  1  0  0  0  0  0  0
  2  7  1  6  0  0  0
  3  5  1  0  0  0  0
  3  2  1  0  0  0  0
  5  1  1  0  0  0  0
  5  2  1  0  0  0  0
  6  4  1  0  0  0  0
  6 12  1  0  0  0  0
  6 11  1  0  0  0  0
  7  4  2  0  0  0  0
  8 11  1  0  0  0  0
  9 13  1  0  0  0  0
  9  3  1  0  0  0  0
 10 14  1  0  0  0  0
 10  7  1  0  0  0  0
 11 23  1  0  0  0  0
 12 11  1  0  0  0  0
 13 10  2  0  0  0  0
 14  6  1  0  0  0  0
 15  9  1  0  0  0  0
 16 15  1  0  0  0  0
 17 16  1  0  0  0  0
 18 22  1  0  0  0  0
 19 18  1  0  0  0  0
 19 21  1  0  0  0  0
 21 20  1  0  0  0  0
 22 20  1  0  0  0  0
 22 17  1  0  0  0  0
 23 34  1  0  0  0  0
 23 24  1  0  0  0  0
 24 25  1  0  0  0  0
 26 25  1  0  0  0  0
 27 26  1  0  0  0  0
 28 29  1  0  0  0  0
 29 27  1  0  0  0  0
 30 29  1  0  0  0  0
 31 30  1  0  0  0  0
 32 33  1  0  0  0  0
 33 31  1  0  0  0  0
 34 35  1  0  0  0  0
 36 35  1  0  0  0  0
M  END
>  <MODEL>
7

>  <REMARK>
 VINA RESULT:      -5.8      2.539      4.400
  Name = 
  15 active torsions:
  status: ('A' for Active; 'I' for Inactive)
    1  A    between atoms: C_1  and  C_16
    2  A    between atoms: C_1  and  C_29
    3  A    between atoms: C_2  and  C_12
    4  A    between atoms: C_2  and  N_17
    5  A    between atoms: C_4  and  C_24
    6  A    between atoms: C_4  and  C_28
    7  A    between atoms: C_8  and  C_14
    8  A    between atoms: C_8  and  N_17
    9  A    between atoms: C_10  and  N_33
   10  A    between atoms: C_12  and  C_29
   11  A    between atoms: C_14  and  C_35
   12  A    between atoms: C_16  and  C_27
   13  A    between atoms: C_16  and  N_33
   14  A    between atoms: O_26  and  C_28
   15  A    between atoms: O_26  and  C_31
                            x       y       z     vdW  Elec       q    Type
                         _______ _______ _______ _____ _____    ______ ____

>  <TORSDO>
F 15

$$$$
=
 OpenBabel11052410253D

 36 40  0  0  1  0  0  0  0  0999 V2000
  162.4690  206.1350  147.7610 C   0  0  0  0  0  1  0  0  0  0  0  0
  161.5970  208.3340  148.2870 C   0  0  2  0  0  3  0  0  0  0  0  0
  161.5080  207.5070  149.5310 N   0  0  1  0  0  0  0  0  0  0  0  0
  161.9140  210.7700  147.7340 C   0  0  0  0  0  3  0  0  0  0  0  0
  162.6500  207.3800  148.6050 C   0  0  1  0  0  3  0  0  0  0  0  0
  161.9800  211.9990  148.5960 C   0  0  2  0  0  0  0  0  0  0  0  0
  161.9480  209.7530  148.5870 C   0  0  0  0  0  0  0  0  0  0  0  0
  161.2120  214.3670  149.2710 C   0  0  0  0  0  1  0  0  0  0  0  0
  162.1200  208.0250  150.7780 C   0  0  1  0  0  3  0  0  0  0  0  0
  161.9640  210.2490  149.9330 C   0  0  0  0  0  0  0  0  0  0  0  0
  161.6210  213.4060  148.1650 C   0  0  1  0  0  0  0  0  0  0  0  0
  163.0840  212.9770  148.2390 C   0  0  0  0  0  2  0  0  0  0  0  0
  161.9570  209.4730  150.9590 N   0  0  0  0  0  0  0  0  0  0  0  0
  161.9670  211.6290  149.9660 O   0  0  0  0  0  0  0  0  0  0  0  0
  161.5440  207.2840  151.9710 C   0  0  0  0  0  2  0  0  0  0  0  0
  161.9460  205.8230  151.9280 C   0  0  0  0  0  2  0  0  0  0  0  0
  160.8900  205.0660  151.4200 O   0  0  0  0  0  0  0  0  0  0  0  0
  160.8220  203.8060  149.4010 C   0  0  0  0  0  2  0  0  0  0  0  0
  160.8790  202.3160  149.1560 C   0  0  0  0  0  2  0  0  0  0  0  0
  161.3170  202.7160  151.5140 C   0  0  0  0  0  2  0  0  0  0  0  0
  160.8000  201.6810  150.5290 C   0  0  0  0  0  2  0  0  0  0  0  0
  161.4990  204.0100  150.7400 C   0  0  0  0  0  3  0  0  0  0  0  0
  161.0930  213.5770  146.7360 C   0  0  2  0  0  3  0  0  0  0  0  0
  159.8810  212.6950  146.4450 C   0  0  0  0  0  2  0  0  0  0  0  0
  158.6050  213.5050  146.5620 C   0  0  0  0  0  2  0  0  0  0  0  0
  157.7530  212.9430  147.6790 C   0  0  0  0  0  2  0  0  0  0  0  0
  157.4850  214.0270  148.7030 C   0  0  0  0  0  2  0  0  0  0  0  0
  155.5570  213.9470  149.8670 O   0  0  0  0  0  1  0  0  0  0  0  0
  156.8170  213.4500  149.8570 N   0  0  0  0  0  0  0  0  0  0  0  0
  157.4900  213.9780  151.0350 C   0  0  0  0  0  2  0  0  0  0  0  0
  158.7760  213.2090  151.3010 C   0  0  0  0  0  2  0  0  0  0  0  0
  159.2660  212.5620  153.6020 N   0  0  0  0  0  1  0  0  0  0  0  0
  158.5770  212.1610  152.3860 C   0  0  0  0  0  2  0  0  0  0  0  0
  162.1500  213.4420  145.7270 N   0  0  0  0  0  2  0  0  0  0  0  0
  161.5910  213.0830  144.4270 C   0  0  0  0  0  2  0  0  0  0  0  0
  162.7170  212.8700  143.4370 C   0  0  0  0  0  1  0  0  0  0  0  0
  1  5  1  0  0  0  0
  2  7  1  1  0  0  0
  2  5  1  0  0  0  0
  2  3  1  0  0  0  0
  3  9  1  0  0  0  0
  4  7  2  0  0  0  0
  4  6  1  0  0  0  0
  5  3  1  0  0  0  0
  6 14  1  0  0  0  0
  7 10  1  0  0  0  0
  9 13  1  0  0  0  0
  9 15  1  0  0  0  0
 10 14  1  0  0  0  0
 10 13  2  0  0  0  0
 11 12  1  0  0  0  0
 11  6  1  0  0  0  0
 11  8  1  0  0  0  0
 12  6  1  0  0  0  0
 16 15  1  0  0  0  0
 17 16  1  0  0  0  0
 18 22  1  0  0  0  0
 19 18  1  0  0  0  0
 19 21  1  0  0  0  0
 21 20  1  0  0  0  0
 22 17  1  0  0  0  0
 22 20  1  0  0  0  0
 23 11  1  0  0  0  0
 24 25  1  0  0  0  0
 24 23  1  0  0  0  0
 25 26  1  0  0  0  0
 26 27  1  0  0  0  0
 27 29  1  0  0  0  0
 29 28  1  0  0  0  0
 29 30  1  0  0  0  0
 30 31  1  0  0  0  0
 31 33  1  0  0  0  0
 33 32  1  0  0  0  0
 34 23  1  0  0  0  0
 35 34  1  0  0  0  0
 36 35  1  0  0  0  0
M  END
>  <MODEL>
8

>  <REMARK>
 VINA RESULT:      -5.7      2.359      5.692
  Name = 
  15 active torsions:
  status: ('A' for Active; 'I' for Inactive)
    1  A    between atoms: C_1  and  C_16
    2  A    between atoms: C_1  and  C_29
    3  A    between atoms: C_2  and  C_12
    4  A    between atoms: C_2  and  N_17
    5  A    between atoms: C_4  and  C_24
    6  A    between atoms: C_4  and  C_28
    7  A    between atoms: C_8  and  C_14
    8  A    between atoms: C_8  and  N_17
    9  A    between atoms: C_10  and  N_33
   10  A    between atoms: C_12  and  C_29
   11  A    between atoms: C_14  and  C_35
   12  A    between atoms: C_16  and  C_27
   13  A    between atoms: C_16  and  N_33
   14  A    between atoms: O_26  and  C_28
   15  A    between atoms: O_26  and  C_31
                            x       y       z     vdW  Elec       q    Type
                         _______ _______ _______ _____ _____    ______ ____

>  <TORSDO>
F 15

$$$$
=
 OpenBabel11052410253D

 36 40  0  0  1  0  0  0  0  0999 V2000
  162.2850  210.1220  152.8980 C   0  0  0  0  0  1  0  0  0  0  0  0
  161.4430  208.9680  150.9410 C   0  0  2  0  0  3  0  0  0  0  0  0
  161.4210  210.4340  150.6410 N   0  0  1  0  0  0  0  0  0  0  0  0
  161.7290  206.8400  149.6250 C   0  0  0  0  0  3  0  0  0  0  0  0
  162.5120  209.8280  151.4290 C   0  0  1  0  0  3  0  0  0  0  0  0
  161.8420  206.5740  148.1510 C   0  0  2  0  0  0  0  0  0  0  0  0
  161.8090  208.1600  149.7410 C   0  0  0  0  0  0  0  0  0  0  0  0
  161.1110  205.4010  145.9730 C   0  0  0  0  0  1  0  0  0  0  0  0
  162.0990  210.9220  149.4160 C   0  0  1  0  0  3  0  0  0  0  0  0
  161.8980  208.7570  148.4390 C   0  0  0  0  0  0  0  0  0  0  0  0
  161.4600  205.2880  147.4490 C   0  0  1  0  0  0  0  0  0  0  0  0
  162.9250  205.5870  147.7550 C   0  0  0  0  0  2  0  0  0  0  0  0
  161.9450  210.0310  148.2600 N   0  0  0  0  0  0  0  0  0  0  0  0
  161.9020  207.8020  147.4420 O   0  0  0  0  0  0  0  0  0  0  0  0
  161.5880  212.3100  149.0740 C   0  0  0  0  0  2  0  0  0  0  0  0
  161.1950  212.3820  147.6120 C   0  0  0  0  0  2  0  0  0  0  0  0
  162.1840  213.0580  146.8980 O   0  0  0  0  0  0  0  0  0  0  0  0
  160.3560  212.6030  145.4420 C   0  0  0  0  0  2  0  0  0  0  0  0
  160.2830  212.5160  143.9350 C   0  0  0  0  0  2  0  0  0  0  0  0
  162.4940  213.3220  144.5420 C   0  0  0  0  0  2  0  0  0  0  0  0
  161.7180  212.5920  143.4590 C   0  0  0  0  0  2  0  0  0  0  0  0
  161.5560  213.4820  145.7260 C   0  0  0  0  0  3  0  0  0  0  0  0
  160.8560  204.1800  148.3190 C   0  0  2  0  0  3  0  0  0  0  0  0
  160.6780  204.6040  149.7760 C   0  0  0  0  0  2  0  0  0  0  0  0
  161.0380  203.4580  150.7010 C   0  0  0  0  0  2  0  0  0  0  0  0
  161.8130  203.9930  151.8860 C   0  0  0  0  0  2  0  0  0  0  0  0
  160.8510  204.6110  152.8800 C   0  0  0  0  0  2  0  0  0  0  0  0
  162.5120  206.1280  152.7470 O   0  0  0  0  0  1  0  0  0  0  0  0
  161.2120  206.0000  153.1050 N   0  0  0  0  0  0  0  0  0  0  0  0
  161.1450  206.2200  154.5430 C   0  0  0  0  0  2  0  0  0  0  0  0
  160.4940  207.5630  154.8440 C   0  0  0  0  0  2  0  0  0  0  0  0
  160.5600  207.1250  157.2430 N   0  0  0  0  0  1  0  0  0  0  0  0
  159.6970  207.5110  156.1380 C   0  0  0  0  0  2  0  0  0  0  0  0
  161.5700  202.9050  148.1820 N   0  0  0  0  0  2  0  0  0  0  0  0
  160.6960  201.8690  147.6390 C   0  0  0  0  0  2  0  0  0  0  0  0
  161.3350  200.5120  147.8450 C   0  0  0  0  0  1  0  0  0  0  0  0
  2  7  1  6  0  0  0
  2  5  1  0  0  0  0
  3  2  1  0  0  0  0
  3  5  1  0  0  0  0
  4  7  2  0  0  0  0
  5  1  1  0  0  0  0
  6  4  1  0  0  0  0
  8 11  1  0  0  0  0
  9  3  1  0  0  0  0
 10  7  1  0  0  0  0
 11 12  1  0  0  0  0
 11  6  1  0  0  0  0
 11 23  1  0  0  0  0
 12  6  1  0  0  0  0
 13 10  2  0  0  0  0
 13  9  1  0  0  0  0
 14  6  1  0  0  0  0
 14 10  1  0  0  0  0
 15  9  1  0  0  0  0
 16 15  1  0  0  0  0
 17 16  1  0  0  0  0
 18 22  1  0  0  0  0
 19 18  1  0  0  0  0
 20 22  1  0  0  0  0
 21 19  1  0  0  0  0
 21 20  1  0  0  0  0
 22 17  1  0  0  0  0
 23 24  1  0  0  0  0
 24 25  1  0  0  0  0
 25 26  1  0  0  0  0
 26 27  1  0  0  0  0
 27 29  1  0  0  0  0
 28 29  1  0  0  0  0
 29 30  1  0  0  0  0
 30 31  1  0  0  0  0
 31 33  1  0  0  0  0
 33 32  1  0  0  0  0
 34 23  1  0  0  0  0
 35 36  1  0  0  0  0
 35 34  1  0  0  0  0
M  END
>  <MODEL>
9

>  <REMARK>
 VINA RESULT:      -5.7      3.058      9.232
  Name = 
  15 active torsions:
  status: ('A' for Active; 'I' for Inactive)
    1  A    between atoms: C_1  and  C_16
    2  A    between atoms: C_1  and  C_29
    3  A    between atoms: C_2  and  C_12
    4  A    between atoms: C_2  and  N_17
    5  A    between atoms: C_4  and  C_24
    6  A    between atoms: C_4  and  C_28
    7  A    between atoms: C_8  and  C_14
    8  A    between atoms: C_8  and  N_17
    9  A    between atoms: C_10  and  N_33
   10  A    between atoms: C_12  and  C_29
   11  A    between atoms: C_14  and  C_35
   12  A    between atoms: C_16  and  C_27
   13  A    between atoms: C_16  and  N_33
   14  A    between atoms: O_26  and  C_28
   15  A    between atoms: O_26  and  C_31
                            x       y       z     vdW  Elec       q    Type
                         _______ _______ _______ _____ _____    ______ ____

>  <TORSDO>
F 15

$$$$
