=
 OpenBabel11052410493D

 28 30  0  0  1  0  0  0  0  0999 V2000
  162.4000  207.1780  150.1230 N   0  0  0  0  0  2  0  0  0  0  0  0
  160.8070  207.3750  154.0410 C   0  0  0  0  0  0  0  0  0  0  0  0
  162.0180  206.1510  152.3360 C   0  0  0  0  0  3  0  0  0  0  0  0
  160.6670  208.4550  153.1620 C   0  0  0  0  0  3  0  0  0  0  0  0
  161.4890  206.2240  153.6280 C   0  0  0  0  0  3  0  0  0  0  0  0
  161.8740  207.2320  151.4520 C   0  0  0  0  0  0  0  0  0  0  0  0
  161.1950  208.3810  151.8700 C   0  0  0  0  0  3  0  0  0  0  0  0
  160.2590  207.4650  155.4200 C   0  0  0  0  0  2  0  0  0  0  0  0
  160.1210  208.8620  155.8080 N   0  0  0  0  0  2  0  0  0  0  0  0
  161.3290  211.3150  155.0350 O   0  0  0  0  0  0  0  0  0  0  0  0
  161.3380  209.2670  156.3770 N   0  0  0  0  0  0  0  0  0  0  0  0
  161.9510  210.4990  155.9750 C   0  0  0  0  0  0  0  0  0  0  0  0
  162.0390  208.3490  157.2600 C   0  0  0  0  0  1  0  0  0  0  0  0
  163.0550  210.8550  156.4670 O   0  0  0  0  0  1  0  0  0  0  0  0
  161.6520  207.5780  148.9380 C   0  0  2  0  0  3  0  0  0  0  0  0
  161.4480  206.5740  146.7140 N   0  0  0  0  0  0  0  0  0  0  0  0
  161.3350  204.3550  147.3740 C   0  0  0  0  0  0  0  0  0  0  0  0
  161.2370  202.9260  147.3550 N   0  0  0  0  0  0  0  0  0  0  0  0
  161.2120  200.6800  148.0790 C   0  0  0  0  0  2  0  0  0  0  0  0
  161.0860  202.1510  146.1430 C   0  0  0  0  0  2  0  0  0  0  0  0
  160.8550  200.7220  146.5990 C   0  0  0  0  0  2  0  0  0  0  0  0
  161.2400  202.1190  148.5560 C   0  0  0  0  0  2  0  0  0  0  0  0
  161.5170  206.4180  148.0030 C   0  0  0  0  0  0  0  0  0  0  0  0
  161.3260  205.2460  146.2370 C   0  0  0  0  0  0  0  0  0  0  0  0
  161.2400  204.9310  145.0210 O   0  0  0  0  0  0  0  0  0  0  0  0
  161.4540  205.0530  148.4520 N   0  0  0  0  0  0  0  0  0  0  0  0
  161.9390  210.0550  148.8470 C   0  0  0  0  0  1  0  0  0  0  0  0
  162.3730  208.7280  148.2540 C   0  0  0  0  0  2  0  0  0  0  0  0
  1  6  1  0  0  0  0
  2  8  1  0  0  0  0
  3  5  2  0  0  0  0
  4  2  2  0  0  0  0
  5  2  1  0  0  0  0
  6  7  2  0  0  0  0
  6  3  1  0  0  0  0
  7  4  1  0  0  0  0
  8  9  1  0  0  0  0
  9 11  1  0  0  0  0
 10 12  2  0  0  0  0
 11 13  1  0  0  0  0
 12 11  1  0  0  0  0
 12 14  1  0  0  0  0
 15 28  1  6  0  0  0
 15  1  1  0  0  0  0
 16 23  2  0  0  0  0
 17 26  2  0  0  0  0
 18 17  1  0  0  0  0
 18 22  1  0  0  0  0
 19 22  1  0  0  0  0
 20 21  1  0  0  0  0
 20 18  1  0  0  0  0
 21 19  1  0  0  0  0
 23 26  1  0  0  0  0
 23 15  1  0  0  0  0
 24 16  1  0  0  0  0
 24 17  1  0  0  0  0
 25 24  2  0  0  0  0
 28 27  1  0  0  0  0
M  END
>  <MODEL>
1

>  <REMARK>
 VINA RESULT:      -7.7      0.000      0.000
  Name = 
  7 active torsions:
  status: ('A' for Active; 'I' for Inactive)
    1  A    between atoms: C_2  and  C_15
    2  A    between atoms: N_6  and  C_15
    3  A    between atoms: N_6  and  N_16
    4  A    between atoms: N_11  and  C_23
    5  A    between atoms: N_11  and  C_27
    6  A    between atoms: C_18  and  C_27
    7  A    between atoms: C_19  and  C_27
                            x       y       z     vdW  Elec       q    Type
                         _______ _______ _______ _____ _____    ______ ____

>  <TORSDO>
F 7

$$$$
=
 OpenBabel11052410493D

 28 30  0  0  1  0  0  0  0  0999 V2000
  161.9540  207.4770  150.8400 N   0  0  0  0  0  2  0  0  0  0  0  0
  161.1210  209.7040  154.3430 C   0  0  0  0  0  0  0  0  0  0  0  0
  161.9230  209.6240  152.0580 C   0  0  0  0  0  3  0  0  0  0  0  0
  160.8660  208.3290  154.2990 C   0  0  0  0  0  3  0  0  0  0  0  0
  161.6450  210.3520  153.2190 C   0  0  0  0  0  3  0  0  0  0  0  0
  161.6710  208.2440  152.0130 C   0  0  0  0  0  0  0  0  0  0  0  0
  161.1450  207.6010  153.1380 C   0  0  0  0  0  3  0  0  0  0  0  0
  160.8070  210.4770  155.5740 C   0  0  0  0  0  2  0  0  0  0  0  0
  160.1600  211.7320  155.2170 N   0  0  0  0  0  2  0  0  0  0  0  0
  158.3340  211.6440  153.0410 O   0  0  0  0  0  0  0  0  0  0  0  0
  158.7840  211.5800  155.4470 N   0  0  0  0  0  0  0  0  0  0  0  0
  157.8650  211.5500  154.3470 C   0  0  0  0  0  0  0  0  0  0  0  0
  158.2940  211.6110  156.8160 C   0  0  0  0  0  1  0  0  0  0  0  0
  156.6260  211.4370  154.5510 O   0  0  0  0  0  1  0  0  0  0  0  0
  160.9280  206.9610  149.9420 C   0  0  2  0  0  3  0  0  0  0  0  0
  160.9870  204.7630  151.0200 N   0  0  0  0  0  0  0  0  0  0  0  0
  161.0230  203.4660  149.1010 C   0  0  0  0  0  0  0  0  0  0  0  0
  161.0510  202.3480  148.2060 N   0  0  0  0  0  0  0  0  0  0  0  0
  161.0020  201.0750  146.2190 C   0  0  0  0  0  2  0  0  0  0  0  0
  161.1130  200.9710  148.6480 C   0  0  0  0  0  2  0  0  0  0  0  0
  161.2950  200.1460  147.3890 C   0  0  0  0  0  2  0  0  0  0  0  0
  161.0620  202.4880  146.7660 C   0  0  0  0  0  2  0  0  0  0  0  0
  160.9670  205.4650  149.9270 C   0  0  0  0  0  0  0  0  0  0  0  0
  161.0240  203.4300  150.5450 C   0  0  0  0  0  0  0  0  0  0  0  0
  161.0420  202.4110  151.2820 O   0  0  0  0  0  0  0  0  0  0  0  0
  160.9840  204.6960  148.7120 N   0  0  0  0  0  0  0  0  0  0  0  0
  162.6360  207.7800  148.3190 C   0  0  0  0  0  1  0  0  0  0  0  0
  161.1610  207.5110  148.5450 C   0  0  0  0  0  2  0  0  0  0  0  0
  1  6  1  0  0  0  0
  2  8  1  0  0  0  0
  3  5  1  0  0  0  0
  4  2  1  0  0  0  0
  5  2  2  0  0  0  0
  6  3  2  0  0  0  0
  6  7  1  0  0  0  0
  7  4  2  0  0  0  0
  9 11  1  0  0  0  0
  9  8  1  0  0  0  0
 10 12  2  0  0  0  0
 11 13  1  0  0  0  0
 12 14  1  0  0  0  0
 12 11  1  0  0  0  0
 15 28  1  6  0  0  0
 15  1  1  0  0  0  0
 17 24  1  0  0  0  0
 18 20  1  0  0  0  0
 18 17  1  0  0  0  0
 19 22  1  0  0  0  0
 19 21  1  0  0  0  0
 21 20  1  0  0  0  0
 22 18  1  0  0  0  0
 23 15  1  0  0  0  0
 23 16  2  0  0  0  0
 24 16  1  0  0  0  0
 24 25  2  0  0  0  0
 26 17  2  0  0  0  0
 26 23  1  0  0  0  0
 27 28  1  0  0  0  0
M  END
>  <MODEL>
2

>  <REMARK>
 VINA RESULT:      -7.6      2.492      3.283
  Name = 
  7 active torsions:
  status: ('A' for Active; 'I' for Inactive)
    1  A    between atoms: C_2  and  C_15
    2  A    between atoms: N_6  and  C_15
    3  A    between atoms: N_6  and  N_16
    4  A    between atoms: N_11  and  C_23
    5  A    between atoms: N_11  and  C_27
    6  A    between atoms: C_18  and  C_27
    7  A    between atoms: C_19  and  C_27
                            x       y       z     vdW  Elec       q    Type
                         _______ _______ _______ _____ _____    ______ ____

>  <TORSDO>
F 7

$$$$
=
 OpenBabel11052410493D

 28 30  0  0  1  0  0  0  0  0999 V2000
  160.8530  207.1090  151.6240 N   0  0  0  0  0  2  0  0  0  0  0  0
  162.1090  210.4950  149.4140 C   0  0  0  0  0  0  0  0  0  0  0  0
  161.5610  208.1360  149.4930 C   0  0  0  0  0  3  0  0  0  0  0  0
  161.8170  210.6060  150.7780 C   0  0  0  0  0  3  0  0  0  0  0  0
  161.9750  209.2590  148.7710 C   0  0  0  0  0  3  0  0  0  0  0  0
  161.2720  208.2450  150.8620 C   0  0  0  0  0  0  0  0  0  0  0  0
  161.4040  209.4830  151.5000 C   0  0  0  0  0  3  0  0  0  0  0  0
  162.5310  211.6960  148.6460 C   0  0  0  0  0  2  0  0  0  0  0  0
  161.4470  212.6690  148.6140 N   0  0  0  0  0  2  0  0  0  0  0  0
  159.9350  212.2020  146.2530 O   0  0  0  0  0  1  0  0  0  0  0  0
  161.6320  213.4720  147.4790 N   0  0  0  0  0  0  0  0  0  0  0  0
  160.8760  213.2250  146.2850 C   0  0  0  0  0  0  0  0  0  0  0  0
  162.7050  214.4530  147.4810 C   0  0  0  0  0  1  0  0  0  0  0  0
  161.0560  213.9310  145.2560 O   0  0  0  0  0  0  0  0  0  0  0  0
  161.7340  206.0040  151.9810 C   0  0  2  0  0  3  0  0  0  0  0  0
  161.0080  203.6850  151.6850 N   0  0  0  0  0  0  0  0  0  0  0  0
  161.1550  203.5960  149.3740 C   0  0  0  0  0  0  0  0  0  0  0  0
  161.1080  203.1390  148.0170 N   0  0  0  0  0  0  0  0  0  0  0  0
  161.1950  203.1330  145.6580 C   0  0  0  0  0  2  0  0  0  0  0  0
  160.7290  201.7950  147.6380 C   0  0  0  0  0  2  0  0  0  0  0  0
  160.9810  201.7060  146.1450 C   0  0  0  0  0  2  0  0  0  0  0  0
  161.4760  203.9700  146.8910 C   0  0  0  0  0  2  0  0  0  0  0  0
  161.4070  204.8010  151.1530 C   0  0  0  0  0  0  0  0  0  0  0  0
  160.8230  202.8430  150.5610 C   0  0  0  0  0  0  0  0  0  0  0  0
  160.4240  201.6510  150.6220 O   0  0  0  0  0  0  0  0  0  0  0  0
  161.5070  204.7890  149.7190 N   0  0  0  0  0  0  0  0  0  0  0  0
  160.8500  206.8220  154.1670 C   0  0  0  0  0  1  0  0  0  0  0  0
  161.5700  205.6900  153.4590 C   0  0  0  0  0  2  0  0  0  0  0  0
  1 15  1  0  0  0  0
  2  4  1  0  0  0  0
  3  6  2  0  0  0  0
  4  7  2  0  0  0  0
  5  2  2  0  0  0  0
  5  3  1  0  0  0  0
  6  7  1  0  0  0  0
  6  1  1  0  0  0  0
  8  2  1  0  0  0  0
  9  8  1  0  0  0  0
 10 12  1  0  0  0  0
 11 13  1  0  0  0  0
 11  9  1  0  0  0  0
 12 11  1  0  0  0  0
 14 12  2  0  0  0  0
 15 28  1  1  0  0  0
 17 26  2  0  0  0  0
 17 24  1  0  0  0  0
 18 17  1  0  0  0  0
 19 21  1  0  0  0  0
 19 22  1  0  0  0  0
 20 18  1  0  0  0  0
 21 20  1  0  0  0  0
 22 18  1  0  0  0  0
 23 16  2  0  0  0  0
 23 15  1  0  0  0  0
 24 25  2  0  0  0  0
 24 16  1  0  0  0  0
 26 23  1  0  0  0  0
 28 27  1  0  0  0  0
M  END
>  <MODEL>
3

>  <REMARK>
 VINA RESULT:      -7.6      3.591      6.026
  Name = 
  7 active torsions:
  status: ('A' for Active; 'I' for Inactive)
    1  A    between atoms: C_2  and  C_15
    2  A    between atoms: N_6  and  C_15
    3  A    between atoms: N_6  and  N_16
    4  A    between atoms: N_11  and  C_23
    5  A    between atoms: N_11  and  C_27
    6  A    between atoms: C_18  and  C_27
    7  A    between atoms: C_19  and  C_27
                            x       y       z     vdW  Elec       q    Type
                         _______ _______ _______ _____ _____    ______ ____

>  <TORSDO>
F 7

$$$$
=
 OpenBabel11052410493D

 28 30  0  0  1  0  0  0  0  0999 V2000
  162.3530  208.0670  150.5600 N   0  0  0  0  0  2  0  0  0  0  0  0
  160.9080  209.5000  154.2730 C   0  0  0  0  0  0  0  0  0  0  0  0
  161.2250  207.6680  152.7200 C   0  0  0  0  0  3  0  0  0  0  0  0
  161.5510  210.3640  153.3810 C   0  0  0  0  0  3  0  0  0  0  0  0
  160.7510  208.1490  153.9440 C   0  0  0  0  0  3  0  0  0  0  0  0
  161.8660  208.5350  151.8220 C   0  0  0  0  0  0  0  0  0  0  0  0
  162.0240  209.8830  152.1560 C   0  0  0  0  0  3  0  0  0  0  0  0
  160.4230  210.0130  155.5820 C   0  0  0  0  0  2  0  0  0  0  0  0
  160.0320  211.4090  155.4530 N   0  0  0  0  0  2  0  0  0  0  0  0
  158.2900  211.6030  153.2160 O   0  0  0  0  0  0  0  0  0  0  0  0
  158.6430  211.4800  155.6350 N   0  0  0  0  0  0  0  0  0  0  0  0
  157.7680  211.5920  154.5050 C   0  0  0  0  0  0  0  0  0  0  0  0
  158.1180  211.5960  156.9870 C   0  0  0  0  0  1  0  0  0  0  0  0
  156.5210  211.6790  154.6670 O   0  0  0  0  0  1  0  0  0  0  0  0
  161.6010  208.1620  149.3160 C   0  0  2  0  0  3  0  0  0  0  0  0
  161.5640  206.6470  147.3920 N   0  0  0  0  0  0  0  0  0  0  0  0
  161.2560  204.6650  148.5510 C   0  0  0  0  0  0  0  0  0  0  0  0
  161.0780  203.2790  148.8680 N   0  0  0  0  0  0  0  0  0  0  0  0
  160.8490  201.2820  150.1050 C   0  0  0  0  0  2  0  0  0  0  0  0
  161.0050  202.2330  147.8700 C   0  0  0  0  0  2  0  0  0  0  0  0
  160.6470  200.9700  148.6290 C   0  0  0  0  0  2  0  0  0  0  0  0
  160.9130  202.7920  150.2210 C   0  0  0  0  0  2  0  0  0  0  0  0
  161.4930  206.8110  148.6790 C   0  0  0  0  0  0  0  0  0  0  0  0
  161.4140  205.2480  147.2390 C   0  0  0  0  0  0  0  0  0  0  0  0
  161.4340  204.6460  146.1340 O   0  0  0  0  0  0  0  0  0  0  0  0
  161.3070  205.6030  149.4360 N   0  0  0  0  0  0  0  0  0  0  0  0
  161.9160  210.5630  148.7140 C   0  0  0  0  0  1  0  0  0  0  0  0
  162.3000  209.1330  148.3800 C   0  0  0  0  0  2  0  0  0  0  0  0
  1  6  1  0  0  0  0
  2  8  1  0  0  0  0
  3  5  2  0  0  0  0
  4  2  2  0  0  0  0
  5  2  1  0  0  0  0
  6  7  2  0  0  0  0
  6  3  1  0  0  0  0
  7  4  1  0  0  0  0
  9  8  1  0  0  0  0
  9 11  1  0  0  0  0
 10 12  2  0  0  0  0
 11 13  1  0  0  0  0
 12 14  1  0  0  0  0
 12 11  1  0  0  0  0
 15 28  1  6  0  0  0
 15  1  1  0  0  0  0
 16 23  2  0  0  0  0
 17 18  1  0  0  0  0
 17 26  2  0  0  0  0
 18 22  1  0  0  0  0
 19 22  1  0  0  0  0
 20 21  1  0  0  0  0
 20 18  1  0  0  0  0
 21 19  1  0  0  0  0
 23 15  1  0  0  0  0
 23 26  1  0  0  0  0
 24 16  1  0  0  0  0
 24 17  1  0  0  0  0
 25 24  2  0  0  0  0
 28 27  1  0  0  0  0
M  END
>  <MODEL>
4

>  <REMARK>
 VINA RESULT:      -7.6      2.085      2.529
  Name = 
  7 active torsions:
  status: ('A' for Active; 'I' for Inactive)
    1  A    between atoms: C_2  and  C_15
    2  A    between atoms: N_6  and  C_15
    3  A    between atoms: N_6  and  N_16
    4  A    between atoms: N_11  and  C_23
    5  A    between atoms: N_11  and  C_27
    6  A    between atoms: C_18  and  C_27
    7  A    between atoms: C_19  and  C_27
                            x       y       z     vdW  Elec       q    Type
                         _______ _______ _______ _____ _____    ______ ____

>  <TORSDO>
F 7

$$$$
=
 OpenBabel11052410493D

 28 30  0  0  1  0  0  0  0  0999 V2000
  161.8060  206.2840  152.9400 N   0  0  0  0  0  2  0  0  0  0  0  0
  160.8370  203.6270  149.7890 C   0  0  0  0  0  0  0  0  0  0  0  0
  161.3180  205.8750  150.5540 C   0  0  0  0  0  3  0  0  0  0  0  0
  161.0080  203.1490  151.0930 C   0  0  0  0  0  3  0  0  0  0  0  0
  160.9980  204.9910  149.5190 C   0  0  0  0  0  3  0  0  0  0  0  0
  161.4850  205.3980  151.8640 C   0  0  0  0  0  0  0  0  0  0  0  0
  161.3260  204.0340  152.1270 C   0  0  0  0  0  3  0  0  0  0  0  0
  160.5160  202.6800  148.6890 C   0  0  0  0  0  2  0  0  0  0  0  0
  161.6710  202.5270  147.8150 N   0  0  0  0  0  2  0  0  0  0  0  0
  162.1000  204.9880  146.4600 O   0  0  0  0  0  1  0  0  0  0  0  0
  161.2300  202.6990  146.4950 N   0  0  0  0  0  0  0  0  0  0  0  0
  161.4360  203.9470  145.8190 C   0  0  0  0  0  0  0  0  0  0  0  0
  160.4270  201.6530  145.8800 C   0  0  0  0  0  1  0  0  0  0  0  0
  161.0210  204.1140  144.6400 O   0  0  0  0  0  0  0  0  0  0  0  0
  160.8520  207.2090  153.5390 C   0  0  2  0  0  3  0  0  0  0  0  0
  161.8260  208.8050  151.9590 N   0  0  0  0  0  0  0  0  0  0  0  0
  160.3350  210.5450  152.3020 C   0  0  0  0  0  0  0  0  0  0  0  0
  159.6640  211.8080  152.2160 N   0  0  0  0  0  0  0  0  0  0  0  0
  158.0670  213.5150  152.5430 C   0  0  0  0  0  2  0  0  0  0  0  0
  160.1000  212.8890  151.3600 C   0  0  0  0  0  2  0  0  0  0  0  0
  159.2140  214.0700  151.7100 C   0  0  0  0  0  2  0  0  0  0  0  0
  158.5010  212.1400  153.0110 C   0  0  0  0  0  2  0  0  0  0  0  0
  160.9080  208.5290  152.8360 C   0  0  0  0  0  0  0  0  0  0  0  0
  161.5050  210.1260  151.5650 C   0  0  0  0  0  0  0  0  0  0  0  0
  162.1440  210.7890  150.7060 O   0  0  0  0  0  0  0  0  0  0  0  0
  159.9600  209.5830  153.0740 N   0  0  0  0  0  0  0  0  0  0  0  0
  159.9260  207.2220  155.8570 C   0  0  0  0  0  1  0  0  0  0  0  0
  161.1770  207.3800  155.0130 C   0  0  0  0  0  2  0  0  0  0  0  0
  1 15  1  0  0  0  0
  2  4  1  0  0  0  0
  3  6  2  0  0  0  0
  4  7  2  0  0  0  0
  5  2  2  0  0  0  0
  5  3  1  0  0  0  0
  6  7  1  0  0  0  0
  6  1  1  0  0  0  0
  8  2  1  0  0  0  0
  9  8  1  0  0  0  0
 11  9  1  0  0  0  0
 12 10  1  0  0  0  0
 12 11  1  0  0  0  0
 13 11  1  0  0  0  0
 14 12  2  0  0  0  0
 15 28  1  1  0  0  0
 16 23  2  0  0  0  0
 17 26  2  0  0  0  0
 18 17  1  0  0  0  0
 18 22  1  0  0  0  0
 19 22  1  0  0  0  0
 20 21  1  0  0  0  0
 20 18  1  0  0  0  0
 21 19  1  0  0  0  0
 23 26  1  0  0  0  0
 23 15  1  0  0  0  0
 24 16  1  0  0  0  0
 24 17  1  0  0  0  0
 25 24  2  0  0  0  0
 28 27  1  0  0  0  0
M  END
>  <MODEL>
5

>  <REMARK>
 VINA RESULT:      -7.5      2.735      8.983
  Name = 
  7 active torsions:
  status: ('A' for Active; 'I' for Inactive)
    1  A    between atoms: C_2  and  C_15
    2  A    between atoms: N_6  and  C_15
    3  A    between atoms: N_6  and  N_16
    4  A    between atoms: N_11  and  C_23
    5  A    between atoms: N_11  and  C_27
    6  A    between atoms: C_18  and  C_27
    7  A    between atoms: C_19  and  C_27
                            x       y       z     vdW  Elec       q    Type
                         _______ _______ _______ _____ _____    ______ ____

>  <TORSDO>
F 7

$$$$
=
 OpenBabel11052410493D

 28 30  0  0  1  0  0  0  0  0999 V2000
  161.8020  207.4480  152.3770 N   0  0  0  0  0  2  0  0  0  0  0  0
  160.9700  204.0180  150.0380 C   0  0  0  0  0  0  0  0  0  0  0  0
  161.5710  204.9980  152.1710 C   0  0  0  0  0  3  0  0  0  0  0  0
  160.9110  205.2950  149.4710 C   0  0  0  0  0  3  0  0  0  0  0  0
  161.2950  203.8700  151.3920 C   0  0  0  0  0  3  0  0  0  0  0  0
  161.5160  206.2800  151.6020 C   0  0  0  0  0  0  0  0  0  0  0  0
  161.1880  206.4220  150.2500 C   0  0  0  0  0  3  0  0  0  0  0  0
  160.6570  202.8230  149.2100 C   0  0  0  0  0  2  0  0  0  0  0  0
  161.2980  202.9410  147.9080 N   0  0  0  0  0  2  0  0  0  0  0  0
  160.4550  202.9280  145.1940 O   0  0  0  0  0  0  0  0  0  0  0  0
  161.1060  201.7300  147.2280 N   0  0  0  0  0  0  0  0  0  0  0  0
  160.6670  201.7270  145.8630 C   0  0  0  0  0  0  0  0  0  0  0  0
  161.2070  200.4840  147.9720 C   0  0  0  0  0  1  0  0  0  0  0  0
  160.4710  200.6400  145.2560 O   0  0  0  0  0  1  0  0  0  0  0  0
  160.7800  208.2550  153.0310 C   0  0  2  0  0  3  0  0  0  0  0  0
  160.0330  210.5840  152.9120 N   0  0  0  0  0  0  0  0  0  0  0  0
  161.0580  211.1470  150.9110 C   0  0  0  0  0  0  0  0  0  0  0  0
  161.5060  211.8750  149.7620 N   0  0  0  0  0  0  0  0  0  0  0  0
  162.6410  212.4170  147.7640 C   0  0  0  0  0  2  0  0  0  0  0  0
  161.1520  213.2520  149.4990 C   0  0  0  0  0  2  0  0  0  0  0  0
  161.6950  213.5570  148.1160 C   0  0  0  0  0  2  0  0  0  0  0  0
  162.3300  211.2870  148.7270 C   0  0  0  0  0  2  0  0  0  0  0  0
  160.7030  209.6030  152.3850 C   0  0  0  0  0  0  0  0  0  0  0  0
  160.2260  211.6370  151.9860 C   0  0  0  0  0  0  0  0  0  0  0  0
  159.7510  212.7960  152.1150 O   0  0  0  0  0  0  0  0  0  0  0  0
  161.3580  209.9140  151.1430 N   0  0  0  0  0  0  0  0  0  0  0  0
  160.5660  207.2220  155.2930 C   0  0  0  0  0  1  0  0  0  0  0  0
  161.1190  208.3950  154.5060 C   0  0  0  0  0  2  0  0  0  0  0  0
  1 15  1  0  0  0  0
  2  5  1  0  0  0  0
  4  2  2  0  0  0  0
  4  7  1  0  0  0  0
  5  3  2  0  0  0  0
  6  3  1  0  0  0  0
  6  1  1  0  0  0  0
  7  6  2  0  0  0  0
  8  2  1  0  0  0  0
  9  8  1  0  0  0  0
 10 12  2  0  0  0  0
 11  9  1  0  0  0  0
 11 13  1  0  0  0  0
 12 11  1  0  0  0  0
 14 12  1  0  0  0  0
 15 28  1  1  0  0  0
 17 26  2  0  0  0  0
 17 24  1  0  0  0  0
 18 17  1  0  0  0  0
 19 21  1  0  0  0  0
 19 22  1  0  0  0  0
 20 18  1  0  0  0  0
 21 20  1  0  0  0  0
 22 18  1  0  0  0  0
 23 16  2  0  0  0  0
 23 15  1  0  0  0  0
 24 25  2  0  0  0  0
 24 16  1  0  0  0  0
 26 23  1  0  0  0  0
 28 27  1  0  0  0  0
M  END
>  <MODEL>
6

>  <REMARK>
 VINA RESULT:      -7.5      2.431      8.863
  Name = 
  7 active torsions:
  status: ('A' for Active; 'I' for Inactive)
    1  A    between atoms: C_2  and  C_15
    2  A    between atoms: N_6  and  C_15
    3  A    between atoms: N_6  and  N_16
    4  A    between atoms: N_11  and  C_23
    5  A    between atoms: N_11  and  C_27
    6  A    between atoms: C_18  and  C_27
    7  A    between atoms: C_19  and  C_27
                            x       y       z     vdW  Elec       q    Type
                         _______ _______ _______ _____ _____    ______ ____

>  <TORSDO>
F 7

$$$$
=
 OpenBabel11052410493D

 28 30  0  0  1  0  0  0  0  0999 V2000
  160.9680  207.6330  151.4420 N   0  0  0  0  0  2  0  0  0  0  0  0
  161.8440  206.2950  147.5210 C   0  0  0  0  0  0  0  0  0  0  0  0
  162.3310  207.7630  149.3860 C   0  0  0  0  0  3  0  0  0  0  0  0
  160.8000  205.7180  148.2510 C   0  0  0  0  0  3  0  0  0  0  0  0
  162.6130  207.3150  148.0920 C   0  0  0  0  0  3  0  0  0  0  0  0
  161.2810  207.1870  150.1190 C   0  0  0  0  0  0  0  0  0  0  0  0
  160.5170  206.1660  149.5440 C   0  0  0  0  0  3  0  0  0  0  0  0
  162.1520  205.8030  146.1520 C   0  0  0  0  0  2  0  0  0  0  0  0
  162.2320  204.3500  146.1550 N   0  0  0  0  0  2  0  0  0  0  0  0
  161.2050  201.7210  146.4920 O   0  0  0  0  0  1  0  0  0  0  0  0
  161.2190  203.8670  145.3130 N   0  0  0  0  0  0  0  0  0  0  0  0
  160.7130  202.5350  145.4770 C   0  0  0  0  0  0  0  0  0  0  0  0
  160.8040  204.6780  144.1790 C   0  0  0  0  0  1  0  0  0  0  0  0
  159.8190  202.0910  144.7080 O   0  0  0  0  0  0  0  0  0  0  0  0
  160.8280  206.7410  152.5850 C   0  0  2  0  0  3  0  0  0  0  0  0
  161.1660  206.9870  154.9980 N   0  0  0  0  0  0  0  0  0  0  0  0
  160.6940  209.2500  155.1580 C   0  0  0  0  0  0  0  0  0  0  0  0
  160.4880  210.5710  155.6720 N   0  0  0  0  0  0  0  0  0  0  0  0
  160.0790  212.8940  155.7620 C   0  0  0  0  0  2  0  0  0  0  0  0
  160.6150  210.9140  157.0720 C   0  0  0  0  0  2  0  0  0  0  0  0
  160.1510  212.3530  157.1840 C   0  0  0  0  0  2  0  0  0  0  0  0
  160.0920  211.6890  154.8420 C   0  0  0  0  0  2  0  0  0  0  0  0
  160.8620  207.5300  153.8560 C   0  0  0  0  0  0  0  0  0  0  0  0
  161.0730  208.0720  155.9020 C   0  0  0  0  0  0  0  0  0  0  0  0
  161.3020  207.9910  157.1380 O   0  0  0  0  0  0  0  0  0  0  0  0
  160.5660  208.9360  153.9130 N   0  0  0  0  0  0  0  0  0  0  0  0
  161.4060  204.3290  152.3020 C   0  0  0  0  0  1  0  0  0  0  0  0
  161.9530  205.7200  152.5650 C   0  0  0  0  0  2  0  0  0  0  0  0
  1 15  1  0  0  0  0
  2  5  2  0  0  0  0
  2  4  1  0  0  0  0
  3  6  2  0  0  0  0
  4  7  2  0  0  0  0
  5  3  1  0  0  0  0
  6  1  1  0  0  0  0
  7  6  1  0  0  0  0
  8  9  1  0  0  0  0
  8  2  1  0  0  0  0
 11 12  1  0  0  0  0
 11  9  1  0  0  0  0
 12 10  1  0  0  0  0
 13 11  1  0  0  0  0
 14 12  2  0  0  0  0
 15 28  1  1  0  0  0
 15 23  1  0  0  0  0
 16 24  1  0  0  0  0
 17 18  1  0  0  0  0
 17 24  1  0  0  0  0
 18 20  1  0  0  0  0
 19 21  1  0  0  0  0
 20 21  1  0  0  0  0
 22 18  1  0  0  0  0
 22 19  1  0  0  0  0
 23 26  1  0  0  0  0
 23 16  2  0  0  0  0
 24 25  2  0  0  0  0
 26 17  2  0  0  0  0
 27 28  1  0  0  0  0
M  END
>  <MODEL>
7

>  <REMARK>
 VINA RESULT:      -7.3      2.057      9.904
  Name = 
  7 active torsions:
  status: ('A' for Active; 'I' for Inactive)
    1  A    between atoms: C_2  and  C_15
    2  A    between atoms: N_6  and  C_15
    3  A    between atoms: N_6  and  N_16
    4  A    between atoms: N_11  and  C_23
    5  A    between atoms: N_11  and  C_27
    6  A    between atoms: C_18  and  C_27
    7  A    between atoms: C_19  and  C_27
                            x       y       z     vdW  Elec       q    Type
                         _______ _______ _______ _____ _____    ______ ____

>  <TORSDO>
F 7

$$$$
=
 OpenBabel11052410493D

 28 30  0  0  1  0  0  0  0  0999 V2000
  160.8420  208.2310  151.2350 N   0  0  0  0  0  2  0  0  0  0  0  0
  161.1160  204.3800  149.4970 C   0  0  0  0  0  0  0  0  0  0  0  0
  161.1270  205.7900  151.4670 C   0  0  0  0  0  3  0  0  0  0  0  0
  160.9140  205.5080  148.6940 C   0  0  0  0  0  3  0  0  0  0  0  0
  161.2170  204.5210  150.8860 C   0  0  0  0  0  3  0  0  0  0  0  0
  160.9290  206.9230  150.6630 C   0  0  0  0  0  0  0  0  0  0  0  0
  160.8260  206.7760  149.2760 C   0  0  0  0  0  3  0  0  0  0  0  0
  161.1910  203.0310  148.8750 C   0  0  0  0  0  2  0  0  0  0  0  0
  161.5880  203.1510  147.4790 N   0  0  0  0  0  2  0  0  0  0  0  0
  160.4470  203.3290  144.8830 O   0  0  0  0  0  0  0  0  0  0  0  0
  161.1510  201.9970  146.8130 N   0  0  0  0  0  0  0  0  0  0  0  0
  160.5630  202.0920  145.5080 C   0  0  0  0  0  0  0  0  0  0  0  0
  161.1600  200.7290  147.5260 C   0  0  0  0  0  1  0  0  0  0  0  0
  160.1480  201.0590  144.9160 O   0  0  0  0  0  1  0  0  0  0  0  0
  161.7750  208.7450  152.2290 C   0  0  2  0  0  3  0  0  0  0  0  0
  161.1970  208.6750  154.6070 N   0  0  0  0  0  0  0  0  0  0  0  0
  159.6460  210.3970  154.6100 C   0  0  0  0  0  0  0  0  0  0  0  0
  158.6700  211.3580  155.0300 N   0  0  0  0  0  0  0  0  0  0  0  0
  157.1620  213.1740  154.9910 C   0  0  0  0  0  2  0  0  0  0  0  0
  158.1800  211.4590  156.3880 C   0  0  0  0  0  2  0  0  0  0  0  0
  157.0570  212.4770  156.3410 C   0  0  0  0  0  2  0  0  0  0  0  0
  158.0480  212.2990  154.1240 C   0  0  0  0  0  2  0  0  0  0  0  0
  161.0280  209.2150  153.4370 C   0  0  0  0  0  0  0  0  0  0  0  0
  160.3110  209.4110  155.4300 C   0  0  0  0  0  0  0  0  0  0  0  0
  160.1620  209.2210  156.6660 O   0  0  0  0  0  0  0  0  0  0  0  0
  160.0760  210.2920  153.3980 N   0  0  0  0  0  0  0  0  0  0  0  0
  161.9590  210.3290  150.3090 C   0  0  0  0  0  1  0  0  0  0  0  0
  162.5740  209.8870  151.6230 C   0  0  0  0  0  2  0  0  0  0  0  0
  1 15  1  0  0  0  0
  2  5  1  0  0  0  0
  4  7  1  0  0  0  0
  4  2  2  0  0  0  0
  5  3  2  0  0  0  0
  6  1  1  0  0  0  0
  6  3  1  0  0  0  0
  7  6  2  0  0  0  0
  8  2  1  0  0  0  0
  9  8  1  0  0  0  0
 10 12  2  0  0  0  0
 11  9  1  0  0  0  0
 11 13  1  0  0  0  0
 12 11  1  0  0  0  0
 14 12  1  0  0  0  0
 15 28  1  6  0  0  0
 15 23  1  0  0  0  0
 16 24  1  0  0  0  0
 17 18  1  0  0  0  0
 17 24  1  0  0  0  0
 18 20  1  0  0  0  0
 19 21  1  0  0  0  0
 21 20  1  0  0  0  0
 22 19  1  0  0  0  0
 22 18  1  0  0  0  0
 23 16  2  0  0  0  0
 24 25  2  0  0  0  0
 26 23  1  0  0  0  0
 26 17  2  0  0  0  0
 27 28  1  0  0  0  0
M  END
>  <MODEL>
8

>  <REMARK>
 VINA RESULT:      -7.3      2.580      9.680
  Name = 
  7 active torsions:
  status: ('A' for Active; 'I' for Inactive)
    1  A    between atoms: C_2  and  C_15
    2  A    between atoms: N_6  and  C_15
    3  A    between atoms: N_6  and  N_16
    4  A    between atoms: N_11  and  C_23
    5  A    between atoms: N_11  and  C_27
    6  A    between atoms: C_18  and  C_27
    7  A    between atoms: C_19  and  C_27
                            x       y       z     vdW  Elec       q    Type
                         _______ _______ _______ _____ _____    ______ ____

>  <TORSDO>
F 7

$$$$
=
 OpenBabel11052410493D

 28 30  0  0  1  0  0  0  0  0999 V2000
  161.3740  207.9340  154.4460 N   0  0  0  0  0  2  0  0  0  0  0  0
  161.1150  205.3260  151.1200 C   0  0  0  0  0  0  0  0  0  0  0  0
  161.2500  205.6490  153.5170 C   0  0  0  0  0  3  0  0  0  0  0  0
  161.1400  206.7120  150.9340 C   0  0  0  0  0  3  0  0  0  0  0  0
  161.1650  204.7950  152.4140 C   0  0  0  0  0  3  0  0  0  0  0  0
  161.2800  207.0400  153.3330 C   0  0  0  0  0  0  0  0  0  0  0  0
  161.2270  207.5660  152.0380 C   0  0  0  0  0  3  0  0  0  0  0  0
  161.0050  204.4220  149.9450 C   0  0  0  0  0  2  0  0  0  0  0  0
  161.3130  205.1560  148.7250 N   0  0  0  0  0  2  0  0  0  0  0  0
  162.0740  205.9990  146.1200 O   0  0  0  0  0  1  0  0  0  0  0  0
  161.5210  204.2160  147.7050 N   0  0  0  0  0  0  0  0  0  0  0  0
  161.8920  204.6470  146.3880 C   0  0  0  0  0  0  0  0  0  0  0  0
  161.2050  202.8200  147.9620 C   0  0  0  0  0  1  0  0  0  0  0  0
  162.0580  203.8060  145.4630 O   0  0  0  0  0  0  0  0  0  0  0  0
  160.2870  208.1740  155.3860 C   0  0  2  0  0  3  0  0  0  0  0  0
  158.9510  210.1170  156.0460 N   0  0  0  0  0  0  0  0  0  0  0  0
  159.2970  211.4020  154.1490 C   0  0  0  0  0  0  0  0  0  0  0  0
  159.2590  212.4700  153.1950 N   0  0  0  0  0  0  0  0  0  0  0  0
  159.7140  213.7690  151.2770 C   0  0  0  0  0  2  0  0  0  0  0  0
  158.5050  213.6900  153.3890 C   0  0  0  0  0  2  0  0  0  0  0  0
  158.6120  214.4480  152.0800 C   0  0  0  0  0  2  0  0  0  0  0  0
  159.9420  212.4150  151.9200 C   0  0  0  0  0  2  0  0  0  0  0  0
  159.7110  209.5380  155.1650 C   0  0  0  0  0  0  0  0  0  0  0  0
  158.6410  211.3560  155.4350 C   0  0  0  0  0  0  0  0  0  0  0  0
  157.9230  212.2480  155.9580 O   0  0  0  0  0  0  0  0  0  0  0  0
  159.9540  210.3060  153.9740 N   0  0  0  0  0  0  0  0  0  0  0  0
  162.1220  208.8030  156.9570 C   0  0  0  0  0  1  0  0  0  0  0  0
  160.8150  208.0460  156.8050 C   0  0  0  0  0  2  0  0  0  0  0  0
  1 15  1  0  0  0  0
  2  5  1  0  0  0  0
  4  2  2  0  0  0  0
  4  7  1  0  0  0  0
  5  3  2  0  0  0  0
  6  3  1  0  0  0  0
  6  1  1  0  0  0  0
  7  6  2  0  0  0  0
  8  2  1  0  0  0  0
  9  8  1  0  0  0  0
 10 12  1  0  0  0  0
 11 13  1  0  0  0  0
 11  9  1  0  0  0  0
 12 11  1  0  0  0  0
 14 12  2  0  0  0  0
 15 28  1  1  0  0  0
 17 24  1  0  0  0  0
 18 20  1  0  0  0  0
 18 17  1  0  0  0  0
 19 22  1  0  0  0  0
 19 21  1  0  0  0  0
 21 20  1  0  0  0  0
 22 18  1  0  0  0  0
 23 15  1  0  0  0  0
 23 16  2  0  0  0  0
 24 25  2  0  0  0  0
 24 16  1  0  0  0  0
 26 17  2  0  0  0  0
 26 23  1  0  0  0  0
 28 27  1  0  0  0  0
M  END
>  <MODEL>
9

>  <REMARK>
 VINA RESULT:      -7.2      2.754      9.373
  Name = 
  7 active torsions:
  status: ('A' for Active; 'I' for Inactive)
    1  A    between atoms: C_2  and  C_15
    2  A    between atoms: N_6  and  C_15
    3  A    between atoms: N_6  and  N_16
    4  A    between atoms: N_11  and  C_23
    5  A    between atoms: N_11  and  C_27
    6  A    between atoms: C_18  and  C_27
    7  A    between atoms: C_19  and  C_27
                            x       y       z     vdW  Elec       q    Type
                         _______ _______ _______ _____ _____    ______ ____

>  <TORSDO>
F 7

$$$$
