=
 OpenBabel11052409503D

 26 29  0  0  0  0  0  0  0  0999 V2000
  161.7280  207.1140  150.2270 C   0  0  0  0  0  0  0  0  0  0  0  0
  160.7250  201.6050  149.2850 C   0  0  0  0  0  3  0  0  0  0  0  0
  161.1820  203.7680  149.3410 C   0  0  0  0  0  0  0  0  0  0  0  0
  161.2660  205.1730  151.2330 N   0  0  0  0  0  0  0  0  0  0  0  0
  161.7430  206.0630  147.5560 S   0  0  0  0  0  0  0  0  0  0  0  0
  161.2310  203.4500  148.0050 C   0  0  0  0  0  0  0  0  0  0  0  0
  161.3710  204.9950  149.9160 C   0  0  0  0  0  0  0  0  0  0  0  0
  160.8780  202.6990  150.1190 C   0  0  0  0  0  0  0  0  0  0  0  0
  161.4770  206.4920  151.4680 C   0  0  0  0  0  3  0  0  0  0  0  0
  160.9530  202.0690  147.9700 C   0  0  0  0  0  0  0  0  0  0  0  0
  160.9650  204.1380  152.0780 C   0  0  0  0  0  3  0  0  0  0  0  0
  160.7600  202.8380  151.5210 C   0  0  0  0  0  3  0  0  0  0  0  0
  161.6420  206.1310  149.2540 C   0  0  0  0  0  0  0  0  0  0  0  0
  161.4770  204.4350  147.0050 C   0  0  0  0  0  0  0  0  0  0  0  0
  160.3330  201.4930  145.7410 O   0  0  0  0  0  0  0  0  0  0  0  0
  161.5690  199.9400  146.8660 O   0  0  0  0  0  1  0  0  0  0  0  0
  160.9100  201.1640  146.8070 C   0  0  0  0  0  0  0  0  0  0  0  0
  161.4620  204.1220  145.6110 N   0  0  0  0  0  2  0  0  0  0  0  0
  161.1330  205.0990  144.5860 C   0  0  0  0  0  1  0  0  0  0  0  0
  161.9450  208.5690  149.9990 C   0  0  0  0  0  2  0  0  0  0  0  0
  162.3660  209.2000  151.2370 N   0  0  0  0  0  2  0  0  0  0  0  0
  161.4940  210.3440  151.4410 C   0  0  0  0  0  2  0  0  0  0  0  0
  160.4310  209.1130  154.8900 N   0  0  0  0  0  1  0  0  0  0  0  0
  159.5240  210.6460  152.7420 O   0  0  0  0  0  0  0  0  0  0  0  0
  161.1840  209.3380  153.7310 N   0  0  0  0  0  2  0  0  0  0  0  0
  160.6740  210.1360  152.6650 C   0  0  0  0  0  0  0  0  0  0  0  0
  1  9  2  0  0  0  0
  2  8  1  0  0  0  0
  3  7  1  0  0  0  0
  3  8  2  0  0  0  0
  4  9  1  0  0  0  0
  4 11  1  0  0  0  0
  5 13  1  0  0  0  0
  6  3  1  0  0  0  0
  7  4  1  0  0  0  0
  8 12  1  0  0  0  0
 10  6  1  0  0  0  0
 10  2  2  0  0  0  0
 12 11  2  0  0  0  0
 13  7  2  0  0  0  0
 13  1  1  0  0  0  0
 14  5  1  0  0  0  0
 14  6  2  0  0  0  0
 15 17  2  0  0  0  0
 17 16  1  0  0  0  0
 17 10  1  0  0  0  0
 18 14  1  0  0  0  0
 19 18  1  0  0  0  0
 20  1  1  0  0  0  0
 20 21  1  0  0  0  0
 21 22  1  0  0  0  0
 22 26  1  0  0  0  0
 25 23  1  0  0  0  0
 26 24  2  0  0  0  0
 26 25  1  0  0  0  0
M  END
>  <MODEL>
1

>  <REMARK>
 VINA RESULT:      -8.9      0.000      0.000
  Name = 
  6 active torsions:
  status: ('A' for Active; 'I' for Inactive)
    1  A    between atoms: N_3  and  C_25
    2  A    between atoms: C_5  and  C_10
    3  A    between atoms: C_9  and  C_16
    4  A    between atoms: C_9  and  N_26
    5  A    between atoms: C_10  and  N_26
    6  A    between atoms: C_18  and  C_21
                            x       y       z     vdW  Elec       q    Type
                         _______ _______ _______ _____ _____    ______ ____

>  <TORSDO>
F 6

$$$$
=
 OpenBabel11052409503D

 26 29  0  0  0  0  0  0  0  0999 V2000
  161.9240  208.5910  149.5610 C   0  0  0  0  0  0  0  0  0  0  0  0
  160.8130  203.3230  151.3640 C   0  0  0  0  0  3  0  0  0  0  0  0
  161.2710  205.2440  150.3730 C   0  0  0  0  0  0  0  0  0  0  0  0
  161.5940  207.3480  151.3890 N   0  0  0  0  0  0  0  0  0  0  0  0
  161.6010  206.4430  147.6850 S   0  0  0  0  0  0  0  0  0  0  0  0
  161.1510  204.3530  149.3340 C   0  0  0  0  0  0  0  0  0  0  0  0
  161.5320  206.5850  150.2960 C   0  0  0  0  0  0  0  0  0  0  0  0
  161.0690  204.6640  151.5820 C   0  0  0  0  0  0  0  0  0  0  0  0
  161.8320  208.6150  150.9680 C   0  0  0  0  0  3  0  0  0  0  0  0
  160.8710  203.1250  149.9670 C   0  0  0  0  0  0  0  0  0  0  0  0
  161.4030  206.8280  152.6420 C   0  0  0  0  0  3  0  0  0  0  0  0
  161.1290  205.4320  152.7680 C   0  0  0  0  0  3  0  0  0  0  0  0
  161.7150  207.2800  149.1620 C   0  0  0  0  0  0  0  0  0  0  0  0
  161.2680  204.7610  147.9730 C   0  0  0  0  0  0  0  0  0  0  0  0
  161.6610  201.1040  148.9760 O   0  0  0  0  0  0  0  0  0  0  0  0
  159.4020  201.2630  149.2570 O   0  0  0  0  0  1  0  0  0  0  0  0
  160.6830  201.7940  149.3600 C   0  0  0  0  0  0  0  0  0  0  0  0
  161.0760  203.8510  146.8890 N   0  0  0  0  0  2  0  0  0  0  0  0
  161.7640  203.9840  145.6140 C   0  0  0  0  0  1  0  0  0  0  0  0
  162.1090  209.7690  148.6700 C   0  0  0  0  0  2  0  0  0  0  0  0
  162.2210  210.9740  149.4710 N   0  0  0  0  0  2  0  0  0  0  0  0
  161.5250  212.0230  148.7470 C   0  0  0  0  0  2  0  0  0  0  0  0
  162.6670  213.3790  145.3710 N   0  0  0  0  0  1  0  0  0  0  0  0
  163.6390  212.7230  147.9030 O   0  0  0  0  0  0  0  0  0  0  0  0
  161.8600  212.8800  146.4010 N   0  0  0  0  0  2  0  0  0  0  0  0
  162.4080  212.5660  147.6800 C   0  0  0  0  0  0  0  0  0  0  0  0
  1  9  2  0  0  0  0
  2  8  1  0  0  0  0
  3  8  2  0  0  0  0
  4 11  1  0  0  0  0
  5 14  1  0  0  0  0
  5 13  1  0  0  0  0
  6 10  1  0  0  0  0
  6  3  1  0  0  0  0
  7  3  1  0  0  0  0
  7  4  1  0  0  0  0
  8 12  1  0  0  0  0
  9  4  1  0  0  0  0
 10  2  2  0  0  0  0
 11 12  2  0  0  0  0
 13  1  1  0  0  0  0
 13  7  2  0  0  0  0
 14  6  2  0  0  0  0
 15 17  2  0  0  0  0
 16 17  1  0  0  0  0
 17 10  1  0  0  0  0
 18 14  1  0  0  0  0
 19 18  1  0  0  0  0
 20 21  1  0  0  0  0
 20  1  1  0  0  0  0
 22 21  1  0  0  0  0
 23 25  1  0  0  0  0
 25 26  1  0  0  0  0
 26 24  2  0  0  0  0
 26 22  1  0  0  0  0
M  END
>  <MODEL>
2

>  <REMARK>
 VINA RESULT:      -8.9      2.833      3.787
  Name = 
  6 active torsions:
  status: ('A' for Active; 'I' for Inactive)
    1  A    between atoms: N_3  and  C_25
    2  A    between atoms: C_5  and  C_10
    3  A    between atoms: C_9  and  C_16
    4  A    between atoms: C_9  and  N_26
    5  A    between atoms: C_10  and  N_26
    6  A    between atoms: C_18  and  C_21
                            x       y       z     vdW  Elec       q    Type
                         _______ _______ _______ _____ _____    ______ ____

>  <TORSDO>
F 6

$$$$
=
 OpenBabel11052409503D

 26 29  0  0  0  0  0  0  0  0999 V2000
  161.3690  207.6510  151.3910 C   0  0  0  0  0  0  0  0  0  0  0  0
  161.0350  202.5580  148.9030 C   0  0  0  0  0  3  0  0  0  0  0  0
  161.2270  204.6530  149.5810 C   0  0  0  0  0  0  0  0  0  0  0  0
  161.1510  205.4640  151.7940 N   0  0  0  0  0  0  0  0  0  0  0  0
  161.4970  207.4100  148.5340 S   0  0  0  0  0  0  0  0  0  0  0  0
  161.3070  204.7360  148.2110 C   0  0  0  0  0  0  0  0  0  0  0  0
  161.2700  205.6800  150.4840 C   0  0  0  0  0  0  0  0  0  0  0  0
  161.0590  203.3800  150.0160 C   0  0  0  0  0  0  0  0  0  0  0  0
  161.2020  206.6770  152.3980 C   0  0  0  0  0  3  0  0  0  0  0  0
  161.1980  203.3990  147.7800 C   0  0  0  0  0  0  0  0  0  0  0  0
  160.9820  204.2030  152.3040 C   0  0  0  0  0  3  0  0  0  0  0  0
  160.9330  203.1010  151.3960 C   0  0  0  0  0  3  0  0  0  0  0  0
  161.3970  206.9820  150.1780 C   0  0  0  0  0  0  0  0  0  0  0  0
  161.4270  205.9860  147.5380 C   0  0  0  0  0  0  0  0  0  0  0  0
  162.0400  203.3460  145.5500 O   0  0  0  0  0  0  0  0  0  0  0  0
  160.4790  201.7640  146.0660 O   0  0  0  0  0  1  0  0  0  0  0  0
  161.2590  202.8630  146.4080 C   0  0  0  0  0  0  0  0  0  0  0  0
  161.4410  206.0820  146.1130 N   0  0  0  0  0  2  0  0  0  0  0  0
  160.2330  206.2350  145.3180 C   0  0  0  0  0  1  0  0  0  0  0  0
  161.4060  209.1260  151.5900 C   0  0  0  0  0  2  0  0  0  0  0  0
  160.3900  209.5150  152.5500 N   0  0  0  0  0  2  0  0  0  0  0  0
  161.0850  210.1310  153.6670 C   0  0  0  0  0  2  0  0  0  0  0  0
  161.1920  207.8960  156.7560 N   0  0  0  0  0  1  0  0  0  0  0  0
  159.5430  209.7180  155.4340 O   0  0  0  0  0  0  0  0  0  0  0  0
  161.5540  208.5430  155.5680 N   0  0  0  0  0  2  0  0  0  0  0  0
  160.6740  209.4710  154.9370 C   0  0  0  0  0  0  0  0  0  0  0  0
  1 20  1  0  0  0  0
  1  9  2  0  0  0  0
  2  8  1  0  0  0  0
  3  8  2  0  0  0  0
  3  7  1  0  0  0  0
  4 11  1  0  0  0  0
  4  9  1  0  0  0  0
  5 13  1  0  0  0  0
  6  3  1  0  0  0  0
  7  4  1  0  0  0  0
  8 12  1  0  0  0  0
 10  6  1  0  0  0  0
 10  2  2  0  0  0  0
 12 11  2  0  0  0  0
 13  7  2  0  0  0  0
 13  1  1  0  0  0  0
 14  6  2  0  0  0  0
 14  5  1  0  0  0  0
 15 17  2  0  0  0  0
 16 17  1  0  0  0  0
 17 10  1  0  0  0  0
 18 14  1  0  0  0  0
 19 18  1  0  0  0  0
 20 21  1  0  0  0  0
 21 22  1  0  0  0  0
 22 26  1  0  0  0  0
 25 23  1  0  0  0  0
 26 24  2  0  0  0  0
 26 25  1  0  0  0  0
M  END
>  <MODEL>
3

>  <REMARK>
 VINA RESULT:      -8.8      1.456      1.712
  Name = 
  6 active torsions:
  status: ('A' for Active; 'I' for Inactive)
    1  A    between atoms: N_3  and  C_25
    2  A    between atoms: C_5  and  C_10
    3  A    between atoms: C_9  and  C_16
    4  A    between atoms: C_9  and  N_26
    5  A    between atoms: C_10  and  N_26
    6  A    between atoms: C_18  and  C_21
                            x       y       z     vdW  Elec       q    Type
                         _______ _______ _______ _____ _____    ______ ____

>  <TORSDO>
F 6

$$$$
=
 OpenBabel11052409503D

 26 29  0  0  0  0  0  0  0  0999 V2000
  161.2440  204.8760  152.5660 C   0  0  0  0  0  0  0  0  0  0  0  0
  161.1370  203.5710  147.0410 C   0  0  0  0  0  3  0  0  0  0  0  0
  161.2620  204.3710  149.0970 C   0  0  0  0  0  0  0  0  0  0  0  0
  161.0090  203.1870  151.1210 N   0  0  0  0  0  0  0  0  0  0  0  0
  161.5950  206.9150  150.5760 S   0  0  0  0  0  0  0  0  0  0  0  0
  161.4480  205.4730  148.2980 C   0  0  0  0  0  0  0  0  0  0  0  0
  161.2280  204.3270  150.4640 C   0  0  0  0  0  0  0  0  0  0  0  0
  161.0680  203.2360  148.3810 C   0  0  0  0  0  0  0  0  0  0  0  0
  161.0050  203.4910  152.4420 C   0  0  0  0  0  3  0  0  0  0  0  0
  161.3810  204.9610  146.9870 C   0  0  0  0  0  0  0  0  0  0  0  0
  160.8080  202.0030  150.4620 C   0  0  0  0  0  3  0  0  0  0  0  0
  160.8360  202.0030  149.0330 C   0  0  0  0  0  3  0  0  0  0  0  0
  161.3700  205.3830  151.2820 C   0  0  0  0  0  0  0  0  0  0  0  0
  161.6120  206.7800  148.8430 C   0  0  0  0  0  0  0  0  0  0  0  0
  162.6840  205.8010  145.1750 O   0  0  0  0  0  1  0  0  0  0  0  0
  160.4360  206.1660  145.0420 O   0  0  0  0  0  0  0  0  0  0  0  0
  161.5530  205.6730  145.7070 C   0  0  0  0  0  0  0  0  0  0  0  0
  161.7370  207.9370  148.0150 N   0  0  0  0  0  2  0  0  0  0  0  0
  162.0100  209.2630  148.5450 C   0  0  0  0  0  1  0  0  0  0  0  0
  161.2560  205.6590  153.8310 C   0  0  0  0  0  2  0  0  0  0  0  0
  160.5950  206.9340  153.6230 N   0  0  0  0  0  2  0  0  0  0  0  0
  161.0690  207.8260  154.6670 C   0  0  0  0  0  2  0  0  0  0  0  0
  160.5490  210.8370  152.3860 N   0  0  0  0  0  1  0  0  0  0  0  0
  161.7630  210.1000  154.7880 O   0  0  0  0  0  0  0  0  0  0  0  0
  160.4970  209.5390  152.9100 N   0  0  0  0  0  2  0  0  0  0  0  0
  161.1310  209.2180  154.1460 C   0  0  0  0  0  0  0  0  0  0  0  0
  1 20  1  0  0  0  0
  2  8  1  0  0  0  0
  3  7  1  0  0  0  0
  4  9  1  0  0  0  0
  5 13  1  0  0  0  0
  6 14  2  0  0  0  0
  6  3  1  0  0  0  0
  7  4  1  0  0  0  0
  7 13  2  0  0  0  0
  8 12  1  0  0  0  0
  8  3  2  0  0  0  0
  9  1  2  0  0  0  0
 10  2  2  0  0  0  0
 10  6  1  0  0  0  0
 11  4  1  0  0  0  0
 12 11  2  0  0  0  0
 13  1  1  0  0  0  0
 14  5  1  0  0  0  0
 15 17  1  0  0  0  0
 16 17  2  0  0  0  0
 17 10  1  0  0  0  0
 18 19  1  0  0  0  0
 18 14  1  0  0  0  0
 21 20  1  0  0  0  0
 21 22  1  0  0  0  0
 23 25  1  0  0  0  0
 25 26  1  0  0  0  0
 26 22  1  0  0  0  0
 26 24  2  0  0  0  0
M  END
>  <MODEL>
4

>  <REMARK>
 VINA RESULT:      -8.7      2.384      3.461
  Name = 
  6 active torsions:
  status: ('A' for Active; 'I' for Inactive)
    1  A    between atoms: N_3  and  C_25
    2  A    between atoms: C_5  and  C_10
    3  A    between atoms: C_9  and  C_16
    4  A    between atoms: C_9  and  N_26
    5  A    between atoms: C_10  and  N_26
    6  A    between atoms: C_18  and  C_21
                            x       y       z     vdW  Elec       q    Type
                         _______ _______ _______ _____ _____    ______ ____

>  <TORSDO>
F 6

$$$$
=
 OpenBabel11052409503D

 26 29  0  0  0  0  0  0  0  0999 V2000
  161.5810  205.8740  148.3250 C   0  0  0  0  0  0  0  0  0  0  0  0
  160.9060  205.8500  153.9630 C   0  0  0  0  0  3  0  0  0  0  0  0
  161.1760  206.1760  151.7930 C   0  0  0  0  0  0  0  0  0  0  0  0
  161.1730  204.5540  150.0810 N   0  0  0  0  0  0  0  0  0  0  0  0
  161.7650  208.3120  149.8280 S   0  0  0  0  0  0  0  0  0  0  0  0
  161.2970  207.4330  152.3380 C   0  0  0  0  0  0  0  0  0  0  0  0
  161.2840  205.8230  150.4760 C   0  0  0  0  0  0  0  0  0  0  0  0
  160.9520  205.2230  152.7310 C   0  0  0  0  0  0  0  0  0  0  0  0
  161.3600  204.5440  148.7390 C   0  0  0  0  0  3  0  0  0  0  0  0
  161.1120  207.2260  153.7200 C   0  0  0  0  0  0  0  0  0  0  0  0
  160.9440  203.5400  150.9740 C   0  0  0  0  0  3  0  0  0  0  0  0
  160.8240  203.8640  152.3600 C   0  0  0  0  0  3  0  0  0  0  0  0
  161.5380  206.6660  149.4620 C   0  0  0  0  0  0  0  0  0  0  0  0
  161.5920  208.5750  151.5390 C   0  0  0  0  0  0  0  0  0  0  0  0
  160.2740  209.1760  154.8070 O   0  0  0  0  0  0  0  0  0  0  0  0
  161.9550  208.0740  155.8880 O   0  0  0  0  0  1  0  0  0  0  0  0
  161.0910  208.2210  154.8080 C   0  0  0  0  0  0  0  0  0  0  0  0
  161.7860  209.8700  152.1090 N   0  0  0  0  0  2  0  0  0  0  0  0
  160.8000  210.9340  152.0090 C   0  0  0  0  0  1  0  0  0  0  0  0
  161.9010  206.3260  146.9430 C   0  0  0  0  0  2  0  0  0  0  0  0
  162.4960  205.2320  146.1970 N   0  0  0  0  0  2  0  0  0  0  0  0
  161.8060  205.1720  144.9210 C   0  0  0  0  0  2  0  0  0  0  0  0
  160.4210  201.6900  145.6270 N   0  0  0  0  0  1  0  0  0  0  0  0
  159.8560  204.0160  144.1920 O   0  0  0  0  0  0  0  0  0  0  0  0
  161.2430  202.8240  145.6420 N   0  0  0  0  0  2  0  0  0  0  0  0
  160.9030  203.9900  144.8940 C   0  0  0  0  0  0  0  0  0  0  0  0
  1  9  2  0  0  0  0
  1 13  1  0  0  0  0
  3  6  1  0  0  0  0
  3  8  2  0  0  0  0
  4  7  1  0  0  0  0
  4 11  1  0  0  0  0
  5 14  1  0  0  0  0
  6 10  1  0  0  0  0
  7  3  1  0  0  0  0
  8  2  1  0  0  0  0
  9  4  1  0  0  0  0
 10  2  2  0  0  0  0
 10 17  1  0  0  0  0
 11 12  2  0  0  0  0
 12  8  1  0  0  0  0
 13  5  1  0  0  0  0
 13  7  2  0  0  0  0
 14 18  1  0  0  0  0
 14  6  2  0  0  0  0
 15 17  2  0  0  0  0
 17 16  1  0  0  0  0
 19 18  1  0  0  0  0
 20  1  1  0  0  0  0
 21 20  1  0  0  0  0
 22 21  1  0  0  0  0
 23 25  1  0  0  0  0
 24 26  2  0  0  0  0
 26 22  1  0  0  0  0
 26 25  1  0  0  0  0
M  END
>  <MODEL>
5

>  <REMARK>
 VINA RESULT:      -8.6      2.080      7.302
  Name = 
  6 active torsions:
  status: ('A' for Active; 'I' for Inactive)
    1  A    between atoms: N_3  and  C_25
    2  A    between atoms: C_5  and  C_10
    3  A    between atoms: C_9  and  C_16
    4  A    between atoms: C_9  and  N_26
    5  A    between atoms: C_10  and  N_26
    6  A    between atoms: C_18  and  C_21
                            x       y       z     vdW  Elec       q    Type
                         _______ _______ _______ _____ _____    ______ ____

>  <TORSDO>
F 6

$$$$
=
 OpenBabel11052409503D

 26 29  0  0  0  0  0  0  0  0999 V2000
  161.2990  207.0190  151.4950 C   0  0  0  0  0  0  0  0  0  0  0  0
  160.9860  202.2240  148.4700 C   0  0  0  0  0  3  0  0  0  0  0  0
  161.1680  204.2340  149.3710 C   0  0  0  0  0  0  0  0  0  0  0  0
  161.0910  204.8000  151.6590 N   0  0  0  0  0  0  0  0  0  0  0  0
  161.4240  207.0900  148.6280 S   0  0  0  0  0  0  0  0  0  0  0  0
  161.2470  204.4650  148.0180 C   0  0  0  0  0  0  0  0  0  0  0  0
  161.2080  205.1580  150.3790 C   0  0  0  0  0  0  0  0  0  0  0  0
  161.0060  202.9200  149.6650 C   0  0  0  0  0  0  0  0  0  0  0  0
  161.1370  205.9410  152.3900 C   0  0  0  0  0  3  0  0  0  0  0  0
  161.1430  203.1820  147.4450 C   0  0  0  0  0  0  0  0  0  0  0  0
  160.9290  203.4900  152.0290 C   0  0  0  0  0  3  0  0  0  0  0  0
  160.8830  202.4930  151.0070 C   0  0  0  0  0  3  0  0  0  0  0  0
  161.3280  206.4850  150.2160 C   0  0  0  0  0  0  0  0  0  0  0  0
  161.3600  205.7820  147.4840 C   0  0  0  0  0  0  0  0  0  0  0  0
  162.0470  203.3090  145.2420 O   0  0  0  0  0  0  0  0  0  0  0  0
  160.3530  201.8100  145.5410 O   0  0  0  0  0  1  0  0  0  0  0  0
  161.2050  202.7980  146.0220 C   0  0  0  0  0  0  0  0  0  0  0  0
  161.3720  206.0320  146.0780 N   0  0  0  0  0  2  0  0  0  0  0  0
  160.1590  206.2020  145.2940 C   0  0  0  0  0  1  0  0  0  0  0  0
  161.3300  208.4630  151.8520 C   0  0  0  0  0  2  0  0  0  0  0  0
  162.3240  209.1450  151.0430 N   0  0  0  0  0  2  0  0  0  0  0  0
  161.8940  210.5270  150.9290 C   0  0  0  0  0  2  0  0  0  0  0  0
  161.6020  212.7080  147.8140 N   0  0  0  0  0  1  0  0  0  0  0  0
  162.3320  210.1380  148.6210 O   0  0  0  0  0  0  0  0  0  0  0  0
  161.5660  212.2790  149.1460 N   0  0  0  0  0  2  0  0  0  0  0  0
  161.9570  210.9550  149.5050 C   0  0  0  0  0  0  0  0  0  0  0  0
  1 20  1  0  0  0  0
  1  9  2  0  0  0  0
  2  8  1  0  0  0  0
  3  8  2  0  0  0  0
  3  7  1  0  0  0  0
  4 11  1  0  0  0  0
  4  9  1  0  0  0  0
  5 13  1  0  0  0  0
  6  3  1  0  0  0  0
  7  4  1  0  0  0  0
  8 12  1  0  0  0  0
 10  6  1  0  0  0  0
 10  2  2  0  0  0  0
 12 11  2  0  0  0  0
 13  7  2  0  0  0  0
 13  1  1  0  0  0  0
 14  6  2  0  0  0  0
 14  5  1  0  0  0  0
 15 17  2  0  0  0  0
 16 17  1  0  0  0  0
 17 10  1  0  0  0  0
 18 14  1  0  0  0  0
 19 18  1  0  0  0  0
 21 20  1  0  0  0  0
 22 21  1  0  0  0  0
 23 25  1  0  0  0  0
 24 26  2  0  0  0  0
 25 26  1  0  0  0  0
 26 22  1  0  0  0  0
M  END
>  <MODEL>
6

>  <REMARK>
 VINA RESULT:      -8.6      1.956      2.582
  Name = 
  6 active torsions:
  status: ('A' for Active; 'I' for Inactive)
    1  A    between atoms: N_3  and  C_25
    2  A    between atoms: C_5  and  C_10
    3  A    between atoms: C_9  and  C_16
    4  A    between atoms: C_9  and  N_26
    5  A    between atoms: C_10  and  N_26
    6  A    between atoms: C_18  and  C_21
                            x       y       z     vdW  Elec       q    Type
                         _______ _______ _______ _____ _____    ______ ____

>  <TORSDO>
F 6

$$$$
=
 OpenBabel11052409503D

 26 29  0  0  0  0  0  0  0  0999 V2000
  161.4300  206.9370  153.6250 C   0  0  0  0  0  0  0  0  0  0  0  0
  161.1110  204.3270  148.5920 C   0  0  0  0  0  3  0  0  0  0  0  0
  161.3230  205.6000  150.3860 C   0  0  0  0  0  0  0  0  0  0  0  0
  161.1030  204.9560  152.6440 N   0  0  0  0  0  0  0  0  0  0  0  0
  161.7740  208.4150  151.1880 S   0  0  0  0  0  0  0  0  0  0  0  0
  161.5140  206.4670  149.3370 C   0  0  0  0  0  0  0  0  0  0  0  0
  161.3320  205.8920  151.7230 C   0  0  0  0  0  0  0  0  0  0  0  0
  161.0760  204.3320  149.9750 C   0  0  0  0  0  0  0  0  0  0  0  0
  161.1490  205.5740  153.8500 C   0  0  0  0  0  3  0  0  0  0  0  0
  161.3910  205.6530  148.1930 C   0  0  0  0  0  0  0  0  0  0  0  0
  160.8480  203.6540  152.3000 C   0  0  0  0  0  3  0  0  0  0  0  0
  160.8310  203.3050  150.9150 C   0  0  0  0  0  3  0  0  0  0  0  0
  161.5300  207.1100  152.2530 C   0  0  0  0  0  0  0  0  0  0  0  0
  161.7320  207.8600  149.5410 C   0  0  0  0  0  0  0  0  0  0  0  0
  162.6160  205.8240  146.1550 O   0  0  0  0  0  1  0  0  0  0  0  0
  160.4560  206.5560  146.0860 O   0  0  0  0  0  0  0  0  0  0  0  0
  161.5410  206.0240  146.7740 C   0  0  0  0  0  0  0  0  0  0  0  0
  161.8620  208.7750  148.4520 N   0  0  0  0  0  2  0  0  0  0  0  0
  161.9600  210.2150  148.6350 C   0  0  0  0  0  1  0  0  0  0  0  0
  161.5050  208.0040  154.6590 C   0  0  0  0  0  2  0  0  0  0  0  0
  160.1970  208.6100  154.8310 N   0  0  0  0  0  2  0  0  0  0  0  0
  160.4100  209.8810  155.5020 C   0  0  0  0  0  2  0  0  0  0  0  0
  159.2430  211.7460  152.3870 N   0  0  0  0  0  1  0  0  0  0  0  0
  159.9920  212.1790  155.0400 O   0  0  0  0  0  0  0  0  0  0  0  0
  159.6260  210.7180  153.2570 N   0  0  0  0  0  2  0  0  0  0  0  0
  159.9940  210.9950  154.6070 C   0  0  0  0  0  0  0  0  0  0  0  0
  1  9  2  0  0  0  0
  1 20  1  0  0  0  0
  2  8  1  0  0  0  0
  3  7  1  0  0  0  0
  4  9  1  0  0  0  0
  5 13  1  0  0  0  0
  6 14  2  0  0  0  0
  6  3  1  0  0  0  0
  7 13  2  0  0  0  0
  7  4  1  0  0  0  0
  8  3  2  0  0  0  0
  8 12  1  0  0  0  0
 10  2  2  0  0  0  0
 10  6  1  0  0  0  0
 11  4  1  0  0  0  0
 12 11  2  0  0  0  0
 13  1  1  0  0  0  0
 14  5  1  0  0  0  0
 15 17  1  0  0  0  0
 16 17  2  0  0  0  0
 17 10  1  0  0  0  0
 18 19  1  0  0  0  0
 18 14  1  0  0  0  0
 20 21  1  0  0  0  0
 21 22  1  0  0  0  0
 23 25  1  0  0  0  0
 25 26  1  0  0  0  0
 26 24  2  0  0  0  0
 26 22  1  0  0  0  0
M  END
>  <MODEL>
7

>  <REMARK>
 VINA RESULT:      -8.3      2.649      3.765
  Name = 
  6 active torsions:
  status: ('A' for Active; 'I' for Inactive)
    1  A    between atoms: N_3  and  C_25
    2  A    between atoms: C_5  and  C_10
    3  A    between atoms: C_9  and  C_16
    4  A    between atoms: C_9  and  N_26
    5  A    between atoms: C_10  and  N_26
    6  A    between atoms: C_18  and  C_21
                            x       y       z     vdW  Elec       q    Type
                         _______ _______ _______ _____ _____    ______ ____

>  <TORSDO>
F 6

$$$$
=
 OpenBabel11052409503D

 26 29  0  0  0  0  0  0  0  0999 V2000
  161.2840  206.5720  152.3830 C   0  0  0  0  0  0  0  0  0  0  0  0
  161.8130  206.3230  146.7350 C   0  0  0  0  0  3  0  0  0  0  0  0
  161.5000  206.1210  148.9140 C   0  0  0  0  0  0  0  0  0  0  0  0
  161.7610  207.7830  150.5670 N   0  0  0  0  0  0  0  0  0  0  0  0
  160.8390  204.1060  150.9810 S   0  0  0  0  0  0  0  0  0  0  0  0
  161.2490  204.8620  148.4220 C   0  0  0  0  0  0  0  0  0  0  0  0
  161.4660  206.5300  150.2190 C   0  0  0  0  0  0  0  0  0  0  0  0
  161.8430  207.0010  147.9410 C   0  0  0  0  0  0  0  0  0  0  0  0
  161.6650  207.8470  151.9180 C   0  0  0  0  0  3  0  0  0  0  0  0
  161.4360  204.9950  147.0310 C   0  0  0  0  0  0  0  0  0  0  0  0
  162.1130  208.7250  149.6360 C   0  0  0  0  0  3  0  0  0  0  0  0
  162.1610  208.3410  148.2610 C   0  0  0  0  0  3  0  0  0  0  0  0
  161.1760  205.7490  151.2720 C   0  0  0  0  0  0  0  0  0  0  0  0
  160.9270  203.7690  149.2770 C   0  0  0  0  0  0  0  0  0  0  0  0
  161.6710  202.8010  146.1260 O   0  0  0  0  0  1  0  0  0  0  0  0
  160.5870  204.3140  144.8070 O   0  0  0  0  0  0  0  0  0  0  0  0
  161.2630  203.9800  145.9750 C   0  0  0  0  0  0  0  0  0  0  0  0
  160.7330  202.4460  148.7770 N   0  0  0  0  0  2  0  0  0  0  0  0
  160.9090  201.2570  149.5960 C   0  0  0  0  0  1  0  0  0  0  0  0
  161.1260  206.1630  153.8050 C   0  0  0  0  0  2  0  0  0  0  0  0
  160.3580  207.1670  154.5190 N   0  0  0  0  0  2  0  0  0  0  0  0
  161.1680  207.5890  155.6480 C   0  0  0  0  0  2  0  0  0  0  0  0
  160.8660  211.2320  154.5610 N   0  0  0  0  0  1  0  0  0  0  0  0
  162.3350  209.5740  156.2570 O   0  0  0  0  0  0  0  0  0  0  0  0
  160.6430  209.8540  154.6740 N   0  0  0  0  0  2  0  0  0  0  0  0
  161.4210  209.0540  155.5630 C   0  0  0  0  0  0  0  0  0  0  0  0
  1 20  1  0  0  0  0
  2 10  2  0  0  0  0
  2  8  1  0  0  0  0
  3  7  1  0  0  0  0
  4  9  1  0  0  0  0
  5 13  1  0  0  0  0
  6  3  1  0  0  0  0
  6 14  2  0  0  0  0
  7  4  1  0  0  0  0
  7 13  2  0  0  0  0
  8 12  1  0  0  0  0
  8  3  2  0  0  0  0
  9  1  2  0  0  0  0
 10  6  1  0  0  0  0
 11  4  1  0  0  0  0
 12 11  2  0  0  0  0
 13  1  1  0  0  0  0
 14  5  1  0  0  0  0
 16 17  2  0  0  0  0
 17 15  1  0  0  0  0
 17 10  1  0  0  0  0
 18 14  1  0  0  0  0
 18 19  1  0  0  0  0
 20 21  1  0  0  0  0
 21 22  1  0  0  0  0
 23 25  1  0  0  0  0
 25 26  1  0  0  0  0
 26 22  1  0  0  0  0
 26 24  2  0  0  0  0
M  END
>  <MODEL>
8

>  <REMARK>
 VINA RESULT:      -8.2      2.190      3.823
  Name = 
  6 active torsions:
  status: ('A' for Active; 'I' for Inactive)
    1  A    between atoms: N_3  and  C_25
    2  A    between atoms: C_5  and  C_10
    3  A    between atoms: C_9  and  C_16
    4  A    between atoms: C_9  and  N_26
    5  A    between atoms: C_10  and  N_26
    6  A    between atoms: C_18  and  C_21
                            x       y       z     vdW  Elec       q    Type
                         _______ _______ _______ _____ _____    ______ ____

>  <TORSDO>
F 6

$$$$
=
 OpenBabel11052409503D

 26 29  0  0  0  0  0  0  0  0999 V2000
  161.1170  204.1460  150.3990 C   0  0  0  0  0  0  0  0  0  0  0  0
  161.6660  209.7560  151.0810 C   0  0  0  0  0  3  0  0  0  0  0  0
  161.4730  207.5540  151.1320 C   0  0  0  0  0  0  0  0  0  0  0  0
  161.3640  206.0750  149.2990 N   0  0  0  0  0  0  0  0  0  0  0  0
  161.1270  205.3030  153.0250 S   0  0  0  0  0  0  0  0  0  0  0  0
  161.4570  207.9220  152.4570 C   0  0  0  0  0  0  0  0  0  0  0  0
  161.3620  206.2930  150.6150 C   0  0  0  0  0  0  0  0  0  0  0  0
  161.5880  208.6180  150.2990 C   0  0  0  0  0  0  0  0  0  0  0  0
  161.2060  204.7400  149.1230 C   0  0  0  0  0  3  0  0  0  0  0  0
  161.5920  209.3250  152.4240 C   0  0  0  0  0  0  0  0  0  0  0  0
  161.4790  207.1020  148.3990 C   0  0  0  0  0  3  0  0  0  0  0  0
  161.5990  208.4360  148.8970 C   0  0  0  0  0  3  0  0  0  0  0  0
  161.2090  205.1670  151.3310 C   0  0  0  0  0  0  0  0  0  0  0  0
  161.2860  206.9680  153.5010 C   0  0  0  0  0  0  0  0  0  0  0  0
  162.7000  210.3210  154.2870 O   0  0  0  0  0  1  0  0  0  0  0  0
  160.6420  211.1670  153.7780 O   0  0  0  0  0  0  0  0  0  0  0  0
  161.6810  210.2710  153.5520 C   0  0  0  0  0  0  0  0  0  0  0  0
  161.2000  207.3540  154.8740 N   0  0  0  0  0  2  0  0  0  0  0  0
  159.9340  207.5560  155.5600 C   0  0  0  0  0  1  0  0  0  0  0  0
  160.8710  202.7060  150.6850 C   0  0  0  0  0  2  0  0  0  0  0  0
  160.2610  202.0750  149.5280 N   0  0  0  0  0  2  0  0  0  0  0  0
  161.1550  201.0080  149.1140 C   0  0  0  0  0  2  0  0  0  0  0  0
  160.4680  201.7950  145.4460 N   0  0  0  0  0  1  0  0  0  0  0  0
  161.5790  199.8310  147.0880 O   0  0  0  0  0  0  0  0  0  0  0  0
  160.5310  201.9020  146.8410 N   0  0  0  0  0  2  0  0  0  0  0  0
  161.1170  200.8700  147.6330 C   0  0  0  0  0  0  0  0  0  0  0  0
  1 20  1  0  0  0  0
  1 13  1  0  0  0  0
  2 10  2  0  0  0  0
  3  6  1  0  0  0  0
  4  7  1  0  0  0  0
  5 14  1  0  0  0  0
  6 14  2  0  0  0  0
  7  3  1  0  0  0  0
  7 13  2  0  0  0  0
  8  2  1  0  0  0  0
  8  3  2  0  0  0  0
  9  4  1  0  0  0  0
  9  1  2  0  0  0  0
 10  6  1  0  0  0  0
 10 17  1  0  0  0  0
 11 12  2  0  0  0  0
 11  4  1  0  0  0  0
 12  8  1  0  0  0  0
 13  5  1  0  0  0  0
 14 18  1  0  0  0  0
 17 16  2  0  0  0  0
 17 15  1  0  0  0  0
 18 19  1  0  0  0  0
 21 20  1  0  0  0  0
 22 21  1  0  0  0  0
 23 25  1  0  0  0  0
 24 26  2  0  0  0  0
 25 26  1  0  0  0  0
 26 22  1  0  0  0  0
M  END
>  <MODEL>
9

>  <REMARK>
 VINA RESULT:      -8.1      2.137      8.296
  Name = 
  6 active torsions:
  status: ('A' for Active; 'I' for Inactive)
    1  A    between atoms: N_3  and  C_25
    2  A    between atoms: C_5  and  C_10
    3  A    between atoms: C_9  and  C_16
    4  A    between atoms: C_9  and  N_26
    5  A    between atoms: C_10  and  N_26
    6  A    between atoms: C_18  and  C_21
                            x       y       z     vdW  Elec       q    Type
                         _______ _______ _______ _____ _____    ______ ____

>  <TORSDO>
F 6

$$$$
