=
 OpenBabel11052410163D

 25 28  0  0  1  0  0  0  0  0999 V2000
  161.2180  207.1170  152.9550 C   0  0  0  0  0  0  0  0  0  0  0  0
  160.8450  202.3770  149.6020 C   0  0  0  0  0  0  0  0  0  0  0  0
  162.2610  209.5250  151.4030 C   0  0  0  0  0  2  0  0  0  0  0  0
  161.5790  207.3650  150.4200 C   0  0  0  0  0  0  0  0  0  0  0  0
  161.1850  210.9990  153.0810 C   0  0  0  0  0  1  0  0  0  0  0  0
  160.5910  208.7160  154.5580 O   0  0  0  0  0  0  0  0  0  0  0  0
  161.0700  203.0340  150.7420 C   0  0  0  0  0  3  0  0  0  0  0  0
  161.0760  208.5190  153.4100 C   0  0  0  0  0  0  0  0  0  0  0  0
  160.9480  206.0160  153.8370 N   0  0  0  0  0  2  0  0  0  0  0  0
  161.2890  204.3530  148.1810 C   0  0  0  0  0  0  0  0  0  0  0  0
  161.4410  208.8620  150.3170 C   0  0  2  0  0  3  0  0  0  0  0  0
  161.3610  205.2350  151.7870 C   0  0  0  0  0  0  0  0  0  0  0  0
  161.0190  204.9120  153.1620 C   0  0  0  0  0  3  0  0  0  0  0  0
  161.4020  204.4650  150.7010 C   0  0  1  0  0  3  0  0  0  0  0  0
  161.6530  206.5930  149.3160 C   0  0  0  0  0  3  0  0  0  0  0  0
  160.4910  200.9350  149.6470 C   0  0  0  0  0  1  0  0  0  0  0  0
  161.4730  206.6710  151.7240 C   0  0  0  0  0  0  0  0  0  0  0  0
  160.8730  203.0790  148.3010 C   0  0  0  0  0  3  0  0  0  0  0  0
  161.4700  209.6510  152.6140 N   0  0  0  0  0  0  0  0  0  0  0  0
  161.8970  209.4130  148.9720 C   0  0  0  0  0  1  0  0  0  0  0  0
  161.8360  205.0850  149.3840 C   0  0  2  0  0  3  0  0  0  0  0  0
  161.2880  205.0000  146.9360 O   0  0  0  0  0  0  0  0  0  0  0  0
  161.7710  204.4030  145.7370 C   0  0  0  0  0  2  0  0  0  0  0  0
  161.1130  205.0470  144.5310 C   0  0  0  0  0  2  0  0  0  0  0  0
  160.3240  206.1160  144.9480 O   0  0  0  0  0  1  0  0  0  0  0  0
  1  8  1  0  0  0  0
  1  9  1  0  0  0  0
  2 16  1  0  0  0  0
  2  7  2  0  0  0  0
  3 19  1  0  0  0  0
  4 17  1  0  0  0  0
  8  6  2  0  0  0  0
 10 18  2  0  0  0  0
 10 21  1  0  0  0  0
 11 20  1  6  0  0  0
 11  4  1  0  0  0  0
 11  3  1  0  0  0  0
 12 13  2  0  0  0  0
 13  9  1  0  0  0  0
 14  7  1  1  0  0  0
 14 12  1  0  0  0  0
 15  4  2  0  0  0  0
 17 12  1  0  0  0  0
 17  1  2  0  0  0  0
 18  2  1  0  0  0  0
 19  5  1  0  0  0  0
 19  8  1  0  0  0  0
 21 15  1  1  0  0  0
 21 14  1  0  0  0  0
 22 10  1  0  0  0  0
 23 22  1  0  0  0  0
 24 25  1  0  0  0  0
 24 23  1  0  0  0  0
M  END
>  <MODEL>
1

>  <REMARK>
 VINA RESULT:      -9.3      0.000      0.000
  Name = 
  3 active torsions:
  status: ('A' for Active; 'I' for Inactive)
    1  A    between atoms: C_3  and  C_10
    2  A    between atoms: C_10  and  O_16
    3  A    between atoms: C_12  and  O_16
                            x       y       z     vdW  Elec       q    Type
                         _______ _______ _______ _____ _____    ______ ____

>  <TORSDO>
F 3

$$$$
=
 OpenBabel11052410163D

 25 28  0  0  1  0  0  0  0  0999 V2000
  161.6280  208.8400  151.1980 C   0  0  0  0  0  0  0  0  0  0  0  0
  161.8610  205.4010  146.5110 C   0  0  0  0  0  0  0  0  0  0  0  0
  160.5610  207.3590  153.6390 C   0  0  0  0  0  2  0  0  0  0  0  0
  161.1940  206.3220  151.4910 C   0  0  0  0  0  0  0  0  0  0  0  0
  161.6980  209.0280  155.0770 C   0  0  0  0  0  1  0  0  0  0  0  0
  162.3160  210.4490  152.7660 O   0  0  0  0  0  0  0  0  0  0  0  0
  161.6760  206.5580  147.1510 C   0  0  0  0  0  3  0  0  0  0  0  0
  161.7960  209.3130  152.5910 C   0  0  0  0  0  0  0  0  0  0  0  0
  161.9150  209.6960  150.0810 N   0  0  0  0  0  0  0  0  0  0  0  0
  161.3930  204.0270  148.5130 C   0  0  0  0  0  0  0  0  0  0  0  0
  161.3420  206.2380  152.9880 C   0  0  2  0  0  3  0  0  0  0  0  0
  161.4350  207.6460  149.3370 C   0  0  0  0  0  0  0  0  0  0  0  0
  161.8140  209.0050  148.9890 C   0  0  0  0  0  3  0  0  0  0  0  0
  161.3550  206.5500  148.5850 C   0  0  1  0  0  3  0  0  0  0  0  0
  161.0810  205.2080  150.7380 C   0  0  0  0  0  2  0  0  0  0  0  0
  162.2040  205.4120  145.0660 C   0  0  0  0  0  1  0  0  0  0  0  0
  161.3330  207.6100  150.7740 C   0  0  0  0  0  0  0  0  0  0  0  0
  161.8010  204.1130  147.2350 C   0  0  0  0  0  3  0  0  0  0  0  0
  161.3880  208.5470  153.7400 N   0  0  0  0  0  0  0  0  0  0  0  0
  160.8520  204.9170  153.5650 C   0  0  0  0  0  1  0  0  0  0  0  0
  160.8870  205.2570  149.2300 C   0  0  2  0  0  3  0  0  0  0  0  0
  161.3620  202.7930  149.1810 O   0  0  0  0  0  0  0  0  0  0  0  0
  160.4720  201.7340  148.8410 C   0  0  0  0  0  2  0  0  0  0  0  0
  161.2460  200.5700  148.2500 C   0  0  0  0  0  2  0  0  0  0  0  0
  161.2390  200.6660  146.8610 O   0  0  0  0  0  1  0  0  0  0  0  0
  1  8  1  0  0  0  0
  2  7  2  0  0  0  0
  2 18  1  0  0  0  0
  3 19  1  0  0  0  0
  4 11  1  0  0  0  0
  8  6  2  0  0  0  0
  8 19  1  0  0  0  0
  9  1  2  0  0  0  0
 10 22  1  0  0  0  0
 10 21  1  0  0  0  0
 11 20  1  1  0  0  0
 11  3  1  0  0  0  0
 12 17  1  0  0  0  0
 13 12  2  0  0  0  0
 13  9  1  0  0  0  0
 14  7  1  6  0  0  0
 14 21  1  0  0  0  0
 14 12  1  0  0  0  0
 15  4  1  0  0  0  0
 16  2  1  0  0  0  0
 17  1  1  0  0  0  0
 17  4  2  0  0  0  0
 18 10  2  0  0  0  0
 19  5  1  0  0  0  0
 21 15  1  1  0  0  0
 23 22  1  0  0  0  0
 24 23  1  0  0  0  0
 25 24  1  0  0  0  0
M  END
>  <MODEL>
2

>  <REMARK>
 VINA RESULT:      -9.2      1.811      3.896
  Name = 
  3 active torsions:
  status: ('A' for Active; 'I' for Inactive)
    1  A    between atoms: C_3  and  C_10
    2  A    between atoms: C_10  and  O_16
    3  A    between atoms: C_12  and  O_16
                            x       y       z     vdW  Elec       q    Type
                         _______ _______ _______ _____ _____    ______ ____

>  <TORSDO>
F 3

$$$$
=
 OpenBabel11052410163D

 25 28  0  0  1  0  0  0  0  0999 V2000
  160.9480  202.9060  150.3720 C   0  0  0  0  0  0  0  0  0  0  0  0
  161.4810  208.3040  152.4750 C   0  0  0  0  0  0  0  0  0  0  0  0
  160.7780  202.8860  147.3280 C   0  0  0  0  0  2  0  0  0  0  0  0
  161.3530  204.8390  148.7250 C   0  0  0  0  0  0  0  0  0  0  0  0
  161.5630  200.5340  147.3580 C   0  0  0  0  0  1  0  0  0  0  0  0
  161.3500  200.6030  150.1320 O   0  0  0  0  0  0  0  0  0  0  0  0
  161.0550  207.0400  152.4920 C   0  0  0  0  0  3  0  0  0  0  0  0
  161.1790  201.7040  149.5390 C   0  0  0  0  0  0  0  0  0  0  0  0
  160.7820  202.8050  151.7950 N   0  0  0  0  0  2  0  0  0  0  0  0
  161.7730  208.3490  150.0190 C   0  0  0  0  0  0  0  0  0  0  0  0
  161.7510  204.0290  147.5180 C   0  0  2  0  0  3  0  0  0  0  0  0
  160.8390  204.9590  151.2090 C   0  0  0  0  0  0  0  0  0  0  0  0
  160.7270  204.0000  152.2950 C   0  0  0  0  0  3  0  0  0  0  0  0
  160.9800  206.2820  151.2340 C   0  0  1  0  0  3  0  0  0  0  0  0
  161.4680  206.1830  148.7310 C   0  0  0  0  0  3  0  0  0  0  0  0
  161.5740  209.0610  153.7490 C   0  0  0  0  0  1  0  0  0  0  0  0
  160.9790  204.1860  150.0000 C   0  0  0  0  0  0  0  0  0  0  0  0
  161.9290  208.9390  151.2160 C   0  0  0  0  0  3  0  0  0  0  0  0
  161.2090  201.7340  148.1000 N   0  0  0  0  0  0  0  0  0  0  0  0
  161.7840  204.8460  146.2330 C   0  0  0  0  0  1  0  0  0  0  0  0
  161.0350  207.0340  149.9150 C   0  0  2  0  0  3  0  0  0  0  0  0
  162.2240  208.9670  148.8420 O   0  0  0  0  0  0  0  0  0  0  0  0
  161.5980  210.1060  148.2600 C   0  0  0  0  0  2  0  0  0  0  0  0
  162.3320  211.3710  148.6650 C   0  0  0  0  0  2  0  0  0  0  0  0
  162.4270  212.2230  147.5670 O   0  0  0  0  0  1  0  0  0  0  0  0
  1  9  1  0  0  0  0
  2  7  2  0  0  0  0
  2 16  1  0  0  0  0
  3 11  1  0  0  0  0
  3 19  1  0  0  0  0
  4 15  2  0  0  0  0
  4 17  1  0  0  0  0
  5 19  1  0  0  0  0
  8  6  2  0  0  0  0
  8  1  1  0  0  0  0
  9 13  1  0  0  0  0
 10 18  2  0  0  0  0
 11 20  1  6  0  0  0
 11  4  1  0  0  0  0
 12 14  1  0  0  0  0
 12 13  2  0  0  0  0
 14  7  1  1  0  0  0
 17  1  2  0  0  0  0
 17 12  1  0  0  0  0
 18  2  1  0  0  0  0
 19  8  1  0  0  0  0
 21 15  1  6  0  0  0
 21 10  1  0  0  0  0
 21 14  1  0  0  0  0
 22 10  1  0  0  0  0
 23 24  1  0  0  0  0
 23 22  1  0  0  0  0
 25 24  1  0  0  0  0
M  END
>  <MODEL>
3

>  <REMARK>
 VINA RESULT:      -8.9      2.737      6.136
  Name = 
  3 active torsions:
  status: ('A' for Active; 'I' for Inactive)
    1  A    between atoms: C_3  and  C_10
    2  A    between atoms: C_10  and  O_16
    3  A    between atoms: C_12  and  O_16
                            x       y       z     vdW  Elec       q    Type
                         _______ _______ _______ _____ _____    ______ ____

>  <TORSDO>
F 3

$$$$
=
 OpenBabel11052410163D

 25 28  0  0  1  0  0  0  0  0999 V2000
  161.5040  204.4230  146.7210 C   0  0  0  0  0  0  0  0  0  0  0  0
  161.8290  208.8470  150.4850 C   0  0  0  0  0  0  0  0  0  0  0  0
  161.3620  201.7300  148.1450 C   0  0  0  0  0  2  0  0  0  0  0  0
  161.1660  203.9420  149.2250 C   0  0  0  0  0  0  0  0  0  0  0  0
  160.3110  200.7760  146.1120 C   0  0  0  0  0  1  0  0  0  0  0  0
  160.8110  203.2000  144.8380 O   0  0  0  0  0  0  0  0  0  0  0  0
  162.1020  208.2120  149.3430 C   0  0  0  0  0  3  0  0  0  0  0  0
  161.0490  203.1690  146.0760 C   0  0  0  0  0  0  0  0  0  0  0  0
  161.8000  205.5940  145.9450 N   0  0  0  0  0  0  0  0  0  0  0  0
  161.2980  206.7650  151.7110 C   0  0  0  0  0  0  0  0  0  0  0  0
  160.5550  202.5690  149.1120 C   0  0  2  0  0  3  0  0  0  0  0  0
  161.9400  206.0920  148.1170 C   0  0  0  0  0  0  0  0  0  0  0  0
  162.0460  206.5780  146.7510 C   0  0  0  0  0  3  0  0  0  0  0  0
  161.9590  206.7500  149.2740 C   0  0  1  0  0  3  0  0  0  0  0  0
  161.2120  204.5900  150.4070 C   0  0  0  0  0  2  0  0  0  0  0  0
  161.9560  210.3250  150.5460 C   0  0  0  0  0  1  0  0  0  0  0  0
  161.5870  204.6970  148.0230 C   0  0  0  0  0  0  0  0  0  0  0  0
  161.3340  208.1090  151.6670 C   0  0  0  0  0  3  0  0  0  0  0  0
  160.8780  201.9310  146.7910 N   0  0  0  0  0  0  0  0  0  0  0  0
  160.4900  201.8310  150.4430 C   0  0  0  0  0  1  0  0  0  0  0  0
  161.8600  205.9560  150.5650 C   0  0  2  0  0  3  0  0  0  0  0  0
  160.8060  206.0910  152.8390 O   0  0  0  0  0  0  0  0  0  0  0  0
  161.3810  206.2030  154.1370 C   0  0  0  0  0  2  0  0  0  0  0  0
  160.4560  206.9820  155.0540 C   0  0  0  0  0  2  0  0  0  0  0  0
  160.8750  208.3090  155.1180 O   0  0  0  0  0  1  0  0  0  0  0  0
  1 17  1  0  0  0  0
  2 16  1  0  0  0  0
  2 18  1  0  0  0  0
  3 11  1  0  0  0  0
  4 15  1  0  0  0  0
  5 19  1  0  0  0  0
  6  8  2  0  0  0  0
  7  2  2  0  0  0  0
  8  1  1  0  0  0  0
  8 19  1  0  0  0  0
  9  1  2  0  0  0  0
  9 13  1  0  0  0  0
 10 22  1  0  0  0  0
 11  4  1  0  0  0  0
 11 20  1  1  0  0  0
 12 14  1  0  0  0  0
 13 12  2  0  0  0  0
 14  7  1  1  0  0  0
 14 21  1  0  0  0  0
 17 12  1  0  0  0  0
 17  4  2  0  0  0  0
 18 10  2  0  0  0  0
 19  3  1  0  0  0  0
 21 15  1  6  0  0  0
 21 10  1  0  0  0  0
 22 23  1  0  0  0  0
 23 24  1  0  0  0  0
 24 25  1  0  0  0  0
M  END
>  <MODEL>
4

>  <REMARK>
 VINA RESULT:      -8.7      2.735      7.481
  Name = 
  3 active torsions:
  status: ('A' for Active; 'I' for Inactive)
    1  A    between atoms: C_3  and  C_10
    2  A    between atoms: C_10  and  O_16
    3  A    between atoms: C_12  and  O_16
                            x       y       z     vdW  Elec       q    Type
                         _______ _______ _______ _____ _____    ______ ____

>  <TORSDO>
F 3

$$$$
=
 OpenBabel11052410163D

 25 28  0  0  1  0  0  0  0  0999 V2000
  161.4210  205.9610  148.6190 C   0  0  0  0  0  0  0  0  0  0  0  0
  160.9280  209.9530  152.8220 C   0  0  0  0  0  0  0  0  0  0  0  0
  161.7340  203.1500  149.7560 C   0  0  0  0  0  2  0  0  0  0  0  0
  161.1440  205.1680  151.0500 C   0  0  0  0  0  0  0  0  0  0  0  0
  160.8890  202.2490  147.6060 C   0  0  0  0  0  1  0  0  0  0  0  0
  160.9730  204.8430  146.6020 O   0  0  0  0  0  0  0  0  0  0  0  0
  161.3200  209.4980  151.6310 C   0  0  0  0  0  3  0  0  0  0  0  0
  161.1990  204.7230  147.8370 C   0  0  0  0  0  0  0  0  0  0  0  0
  161.5180  207.2410  147.9760 N   0  0  0  0  0  0  0  0  0  0  0  0
  160.7530  207.6930  153.8140 C   0  0  0  0  0  0  0  0  0  0  0  0
  160.7820  203.7300  150.7800 C   0  0  2  0  0  3  0  0  0  0  0  0
  161.5430  207.5240  150.1900 C   0  0  0  0  0  0  0  0  0  0  0  0
  161.5790  208.1630  148.8850 C   0  0  0  0  0  3  0  0  0  0  0  0
  161.4350  208.0500  151.4090 C   0  0  1  0  0  3  0  0  0  0  0  0
  161.0630  205.6850  152.2930 C   0  0  0  0  0  2  0  0  0  0  0  0
  160.7940  211.4160  153.0380 C   0  0  0  0  0  1  0  0  0  0  0  0
  161.4400  206.1070  149.9450 C   0  0  0  0  0  0  0  0  0  0  0  0
  160.5550  209.0200  153.9080 C   0  0  0  0  0  3  0  0  0  0  0  0
  161.2380  203.4060  148.4160 N   0  0  0  0  0  0  0  0  0  0  0  0
  160.8320  202.8560  152.0260 C   0  0  0  0  0  1  0  0  0  0  0  0
  161.4610  207.1180  152.6090 C   0  0  2  0  0  3  0  0  0  0  0  0
  160.3740  206.8300  154.8520 O   0  0  0  0  0  0  0  0  0  0  0  0
  159.6290  207.2470  155.9930 C   0  0  0  0  0  2  0  0  0  0  0  0
  160.4680  207.0970  157.2480 C   0  0  0  0  0  2  0  0  0  0  0  0
  161.4660  208.0690  157.2580 O   0  0  0  0  0  1  0  0  0  0  0  0
  1 17  1  0  0  0  0
  2 16  1  0  0  0  0
  2 18  1  0  0  0  0
  3 11  1  0  0  0  0
  4 15  1  0  0  0  0
  5 19  1  0  0  0  0
  6  8  2  0  0  0  0
  7  2  2  0  0  0  0
  8 19  1  0  0  0  0
  8  1  1  0  0  0  0
  9  1  2  0  0  0  0
  9 13  1  0  0  0  0
 10 18  2  0  0  0  0
 10 22  1  0  0  0  0
 11  4  1  0  0  0  0
 11 20  1  1  0  0  0
 12 14  1  0  0  0  0
 13 12  2  0  0  0  0
 14  7  1  1  0  0  0
 14 21  1  0  0  0  0
 17 12  1  0  0  0  0
 17  4  2  0  0  0  0
 19  3  1  0  0  0  0
 21 15  1  6  0  0  0
 21 10  1  0  0  0  0
 22 23  1  0  0  0  0
 23 24  1  0  0  0  0
 24 25  1  0  0  0  0
M  END
>  <MODEL>
5

>  <REMARK>
 VINA RESULT:      -8.7      2.182      7.487
  Name = 
  3 active torsions:
  status: ('A' for Active; 'I' for Inactive)
    1  A    between atoms: C_3  and  C_10
    2  A    between atoms: C_10  and  O_16
    3  A    between atoms: C_12  and  O_16
                            x       y       z     vdW  Elec       q    Type
                         _______ _______ _______ _____ _____    ______ ____

>  <TORSDO>
F 3

$$$$
=
 OpenBabel11052410163D

 25 28  0  0  1  0  0  0  0  0999 V2000
  160.2530  209.0360  155.5020 C   0  0  0  0  0  0  0  0  0  0  0  0
  161.1880  204.5700  151.8920 C   0  0  0  0  0  0  0  0  0  0  0  0
  160.6630  211.7200  154.1150 C   0  0  0  0  0  2  0  0  0  0  0  0
  160.5840  209.5200  152.9970 C   0  0  0  0  0  0  0  0  0  0  0  0
  159.2100  212.7630  155.8320 C   0  0  0  0  0  1  0  0  0  0  0  0
  159.2030  210.3210  157.1650 O   0  0  0  0  0  0  0  0  0  0  0  0
  161.2130  205.1930  153.0720 C   0  0  0  0  0  3  0  0  0  0  0  0
  159.7430  210.3240  156.0260 C   0  0  0  0  0  0  0  0  0  0  0  0
  160.2630  207.8530  156.3150 N   0  0  0  0  0  2  0  0  0  0  0  0
  161.1280  206.6750  150.5940 C   0  0  0  0  0  0  0  0  0  0  0  0
  160.0640  210.9340  152.9680 C   0  0  2  0  0  3  0  0  0  0  0  0
  160.9020  207.3290  154.2410 C   0  0  0  0  0  0  0  0  0  0  0  0
  160.6310  206.8470  155.5850 C   0  0  0  0  0  3  0  0  0  0  0  0
  161.1620  206.6620  153.1180 C   0  0  1  0  0  3  0  0  0  0  0  0
  160.8760  208.8610  151.8570 C   0  0  0  0  0  3  0  0  0  0  0  0
  161.2200  203.0860  151.8490 C   0  0  0  0  0  1  0  0  0  0  0  0
  160.6380  208.7460  154.2580 C   0  0  0  0  0  0  0  0  0  0  0  0
  161.0560  205.3320  150.6320 C   0  0  0  0  0  3  0  0  0  0  0  0
  159.8440  211.5660  155.3040 N   0  0  0  0  0  0  0  0  0  0  0  0
  160.3840  211.6640  151.6710 C   0  0  0  0  0  1  0  0  0  0  0  0
  161.4440  207.4510  151.8510 C   0  0  2  0  0  3  0  0  0  0  0  0
  160.9820  207.3730  149.3850 O   0  0  0  0  0  0  0  0  0  0  0  0
  162.0500  207.5990  148.4710 C   0  0  0  0  0  2  0  0  0  0  0  0
  161.9850  206.5990  147.3330 C   0  0  0  0  0  2  0  0  0  0  0  0
  160.6540  206.3060  147.0470 O   0  0  0  0  0  1  0  0  0  0  0  0
  1  8  1  0  0  0  0
  1  9  1  0  0  0  0
  2  7  2  0  0  0  0
  3 19  1  0  0  0  0
  4 17  1  0  0  0  0
  8  6  2  0  0  0  0
 10 18  2  0  0  0  0
 10 21  1  0  0  0  0
 11 20  1  6  0  0  0
 11  4  1  0  0  0  0
 11  3  1  0  0  0  0
 12 17  1  0  0  0  0
 12 13  2  0  0  0  0
 13  9  1  0  0  0  0
 14  7  1  1  0  0  0
 14 12  1  0  0  0  0
 15  4  2  0  0  0  0
 16  2  1  0  0  0  0
 17  1  2  0  0  0  0
 18  2  1  0  0  0  0
 19  5  1  0  0  0  0
 19  8  1  0  0  0  0
 21 15  1  1  0  0  0
 21 14  1  0  0  0  0
 22 10  1  0  0  0  0
 23 22  1  0  0  0  0
 24 23  1  0  0  0  0
 25 24  1  0  0  0  0
M  END
>  <MODEL>
6

>  <REMARK>
 VINA RESULT:      -8.5      2.116      3.412
  Name = 
  3 active torsions:
  status: ('A' for Active; 'I' for Inactive)
    1  A    between atoms: C_3  and  C_10
    2  A    between atoms: C_10  and  O_16
    3  A    between atoms: C_12  and  O_16
                            x       y       z     vdW  Elec       q    Type
                         _______ _______ _______ _____ _____    ______ ____

>  <TORSDO>
F 3

$$$$
=
 OpenBabel11052410163D

 25 28  0  0  1  0  0  0  0  0999 V2000
  161.4350  204.5270  148.1790 C   0  0  0  0  0  0  0  0  0  0  0  0
  162.0140  210.2010  149.3230 C   0  0  0  0  0  0  0  0  0  0  0  0
  161.4090  202.8520  150.7270 C   0  0  0  0  0  2  0  0  0  0  0  0
  161.2820  205.3160  150.6220 C   0  0  0  0  0  0  0  0  0  0  0  0
  160.2170  201.0740  149.4760 C   0  0  0  0  0  1  0  0  0  0  0  0
  160.6110  202.5730  147.1660 O   0  0  0  0  0  0  0  0  0  0  0  0
  162.2050  209.0880  148.6120 C   0  0  0  0  0  3  0  0  0  0  0  0
  160.9400  203.1330  148.2470 C   0  0  0  0  0  0  0  0  0  0  0  0
  161.6680  205.1730  146.9180 N   0  0  0  0  0  0  0  0  0  0  0  0
  161.5820  208.9800  151.4310 C   0  0  0  0  0  0  0  0  0  0  0  0
  160.6710  204.0770  151.2230 C   0  0  2  0  0  3  0  0  0  0  0  0
  161.9630  206.6470  148.5690 C   0  0  0  0  0  0  0  0  0  0  0  0
  161.9680  206.4150  147.1340 C   0  0  0  0  0  3  0  0  0  0  0  0
  162.0640  207.7780  149.2630 C   0  0  1  0  0  3  0  0  0  0  0  0
  161.4120  206.4490  151.3420 C   0  0  0  0  0  2  0  0  0  0  0  0
  162.1380  211.5240  148.6590 C   0  0  0  0  0  1  0  0  0  0  0  0
  161.6120  205.3890  149.1800 C   0  0  0  0  0  0  0  0  0  0  0  0
  161.6090  210.1360  150.7450 C   0  0  0  0  0  3  0  0  0  0  0  0
  160.8270  202.3940  149.4780 N   0  0  0  0  0  0  0  0  0  0  0  0
  160.7060  204.0700  152.7460 C   0  0  0  0  0  1  0  0  0  0  0  0
  162.0630  207.7030  150.7810 C   0  0  2  0  0  3  0  0  0  0  0  0
  161.1770  208.9450  152.7740 O   0  0  0  0  0  0  0  0  0  0  0  0
  160.4200  209.9790  153.3960 C   0  0  0  0  0  2  0  0  0  0  0  0
  160.9710  210.2700  154.7800 C   0  0  0  0  0  2  0  0  0  0  0  0
  162.3050  210.6570  154.6760 O   0  0  0  0  0  1  0  0  0  0  0  0
  1  8  1  0  0  0  0
  1 17  1  0  0  0  0
  2 18  1  0  0  0  0
  3 11  1  0  0  0  0
  4 11  1  0  0  0  0
  4 15  1  0  0  0  0
  5 19  1  0  0  0  0
  6  8  2  0  0  0  0
  7  2  2  0  0  0  0
  8 19  1  0  0  0  0
  9 13  1  0  0  0  0
  9  1  2  0  0  0  0
 10 22  1  0  0  0  0
 11 20  1  1  0  0  0
 12 17  1  0  0  0  0
 12 14  1  0  0  0  0
 13 12  2  0  0  0  0
 14  7  1  6  0  0  0
 14 21  1  0  0  0  0
 16  2  1  0  0  0  0
 17  4  2  0  0  0  0
 18 10  2  0  0  0  0
 19  3  1  0  0  0  0
 21 15  1  6  0  0  0
 21 10  1  0  0  0  0
 22 23  1  0  0  0  0
 23 24  1  0  0  0  0
 25 24  1  0  0  0  0
M  END
>  <MODEL>
7

>  <REMARK>
 VINA RESULT:      -8.3      2.401      7.238
  Name = 
  3 active torsions:
  status: ('A' for Active; 'I' for Inactive)
    1  A    between atoms: C_3  and  C_10
    2  A    between atoms: C_10  and  O_16
    3  A    between atoms: C_12  and  O_16
                            x       y       z     vdW  Elec       q    Type
                         _______ _______ _______ _____ _____    ______ ____

>  <TORSDO>
F 3

$$$$
=
 OpenBabel11052410163D

 25 28  0  0  1  0  0  0  0  0999 V2000
  161.0880  204.4290  150.1900 C   0  0  0  0  0  0  0  0  0  0  0  0
  161.2070  207.6150  155.0560 C   0  0  0  0  0  0  0  0  0  0  0  0
  160.8270  206.1690  147.7000 C   0  0  0  0  0  2  0  0  0  0  0  0
  161.2710  206.9860  149.9870 C   0  0  0  0  0  0  0  0  0  0  0  0
  161.8170  204.3210  146.3760 C   0  0  0  0  0  1  0  0  0  0  0  0
  161.6830  202.7440  148.6640 O   0  0  0  0  0  0  0  0  0  0  0  0
  160.8950  206.5450  154.3220 C   0  0  0  0  0  3  0  0  0  0  0  0
  161.3990  203.9630  148.8190 C   0  0  0  0  0  0  0  0  0  0  0  0
  160.9750  203.5040  151.2830 N   0  0  0  0  0  2  0  0  0  0  0  0
  161.4180  209.1070  153.0940 C   0  0  0  0  0  0  0  0  0  0  0  0
  161.7010  207.0700  148.5460 C   0  0  2  0  0  3  0  0  0  0  0  0
  160.8240  205.5910  152.0620 C   0  0  0  0  0  0  0  0  0  0  0  0
  160.8300  204.1730  152.3830 C   0  0  0  0  0  3  0  0  0  0  0  0
  160.8490  206.6590  152.8570 C   0  0  1  0  0  3  0  0  0  0  0  0
  161.2670  208.0790  150.7780 C   0  0  0  0  0  3  0  0  0  0  0  0
  161.2720  207.4930  156.5340 C   0  0  0  0  0  1  0  0  0  0  0  0
  160.9950  205.6830  150.6330 C   0  0  0  0  0  0  0  0  0  0  0  0
  161.5590  208.9010  154.4150 C   0  0  0  0  0  3  0  0  0  0  0  0
  161.3810  204.8280  147.6680 N   0  0  0  0  0  0  0  0  0  0  0  0
  161.6220  208.4810  147.9780 C   0  0  0  0  0  1  0  0  0  0  0  0
  160.7970  208.0390  152.2240 C   0  0  2  0  0  3  0  0  0  0  0  0
  161.7770  210.3320  152.5100 O   0  0  0  0  0  0  0  0  0  0  0  0
  160.8340  211.2640  151.9900 C   0  0  0  0  0  2  0  0  0  0  0  0
  160.0020  211.8490  153.1160 C   0  0  0  0  0  2  0  0  0  0  0  0
  158.7120  211.3260  153.0590 O   0  0  0  0  0  1  0  0  0  0  0  0
  1 17  2  0  0  0  0
  1  9  1  0  0  0  0
  2 16  1  0  0  0  0
  3 11  1  0  0  0  0
  4 17  1  0  0  0  0
  4 15  2  0  0  0  0
  5 19  1  0  0  0  0
  6  8  2  0  0  0  0
  7  2  2  0  0  0  0
  8  1  1  0  0  0  0
  9 13  1  0  0  0  0
 10 18  2  0  0  0  0
 11 20  1  6  0  0  0
 11  4  1  0  0  0  0
 12 13  2  0  0  0  0
 12 14  1  0  0  0  0
 14  7  1  1  0  0  0
 17 12  1  0  0  0  0
 18  2  1  0  0  0  0
 19  3  1  0  0  0  0
 19  8  1  0  0  0  0
 21 15  1  6  0  0  0
 21 14  1  0  0  0  0
 21 10  1  0  0  0  0
 22 10  1  0  0  0  0
 23 22  1  0  0  0  0
 23 24  1  0  0  0  0
 25 24  1  0  0  0  0
M  END
>  <MODEL>
8

>  <REMARK>
 VINA RESULT:      -8.0      2.318      6.345
  Name = 
  3 active torsions:
  status: ('A' for Active; 'I' for Inactive)
    1  A    between atoms: C_3  and  C_10
    2  A    between atoms: C_10  and  O_16
    3  A    between atoms: C_12  and  O_16
                            x       y       z     vdW  Elec       q    Type
                         _______ _______ _______ _____ _____    ______ ____

>  <TORSDO>
F 3

$$$$
=
 OpenBabel11052410163D

 25 28  0  0  1  0  0  0  0  0999 V2000
  160.8470  206.9260  154.2250 C   0  0  0  0  0  0  0  0  0  0  0  0
  161.5950  205.5800  148.6150 C   0  0  0  0  0  0  0  0  0  0  0  0
  161.3150  209.8920  154.7530 C   0  0  0  0  0  2  0  0  0  0  0  0
  161.1550  208.8330  152.5280 C   0  0  0  0  0  0  0  0  0  0  0  0
  159.9200  209.6900  156.7920 C   0  0  0  0  0  1  0  0  0  0  0  0
  159.8590  206.9420  156.3570 O   0  0  0  0  0  0  0  0  0  0  0  0
  161.6560  205.3530  149.9280 C   0  0  0  0  0  3  0  0  0  0  0  0
  160.3830  207.6330  155.4410 C   0  0  0  0  0  0  0  0  0  0  0  0
  160.8330  205.4920  154.1470 N   0  0  0  0  0  2  0  0  0  0  0  0
  161.5790  208.0410  148.8730 C   0  0  0  0  0  0  0  0  0  0  0  0
  160.6770  209.9780  153.3830 C   0  0  2  0  0  3  0  0  0  0  0  0
  161.4260  206.3340  152.1660 C   0  0  0  0  0  0  0  0  0  0  0  0
  161.1600  205.1360  152.9440 C   0  0  0  0  0  3  0  0  0  0  0  0
  161.6490  206.4880  150.8620 C   0  0  1  0  0  3  0  0  0  0  0  0
  161.4110  209.0040  151.2140 C   0  0  0  0  0  3  0  0  0  0  0  0
  161.5830  204.4310  147.6740 C   0  0  0  0  0  1  0  0  0  0  0  0
  161.2050  207.4490  153.0520 C   0  0  0  0  0  0  0  0  0  0  0  0
  161.4680  206.9560  148.0860 C   0  0  0  0  0  3  0  0  0  0  0  0
  160.5100  209.0550  155.6240 N   0  0  0  0  0  0  0  0  0  0  0  0
  161.0000  211.3440  152.7920 C   0  0  0  0  0  1  0  0  0  0  0  0
  161.9370  207.8820  150.3320 C   0  0  2  0  0  3  0  0  0  0  0  0
  161.4360  209.3340  148.3470 O   0  0  0  0  0  0  0  0  0  0  0  0
  162.3290  210.4050  148.6350 C   0  0  0  0  0  2  0  0  0  0  0  0
  161.7050  211.7280  148.2340 C   0  0  0  0  0  2  0  0  0  0  0  0
  162.6890  212.5680  147.7150 O   0  0  0  0  0  1  0  0  0  0  0  0
  1  8  1  0  0  0  0
  2  7  2  0  0  0  0
  3 19  1  0  0  0  0
  4 17  1  0  0  0  0
  4 11  1  0  0  0  0
  8 19  1  0  0  0  0
  8  6  2  0  0  0  0
  9  1  1  0  0  0  0
 10 21  1  0  0  0  0
 11 20  1  6  0  0  0
 11  3  1  0  0  0  0
 12 13  2  0  0  0  0
 12 17  1  0  0  0  0
 13  9  1  0  0  0  0
 14  7  1  1  0  0  0
 14 12  1  0  0  0  0
 15  4  2  0  0  0  0
 16  2  1  0  0  0  0
 17  1  2  0  0  0  0
 18  2  1  0  0  0  0
 18 10  2  0  0  0  0
 19  5  1  0  0  0  0
 21 14  1  0  0  0  0
 21 15  1  1  0  0  0
 22 23  1  0  0  0  0
 22 10  1  0  0  0  0
 24 23  1  0  0  0  0
 25 24  1  0  0  0  0
M  END
>  <MODEL>
9

>  <REMARK>
 VINA RESULT:      -7.3      2.333      3.804
  Name = 
  3 active torsions:
  status: ('A' for Active; 'I' for Inactive)
    1  A    between atoms: C_3  and  C_10
    2  A    between atoms: C_10  and  O_16
    3  A    between atoms: C_12  and  O_16
                            x       y       z     vdW  Elec       q    Type
                         _______ _______ _______ _____ _____    ______ ____

>  <TORSDO>
F 3

$$$$
