=
 OpenBabel11052412073D

 50 51  0  0  1  0  0  0  0  0999 V2000
  160.6280  212.7140  148.4020 C   0  0  1  0  0  3  0  0  0  0  0  0
  160.9680  213.1520  146.9660 C   0  0  1  0  0  3  0  0  0  0  0  0
  162.4540  213.0060  146.6550 C   0  0  0  0  0  1  0  0  0  0  0  0
  160.2040  212.3100  145.9450 C   0  0  0  0  0  2  0  0  0  0  0  0
  157.9390  212.1370  145.2270 F   0  0  0  0  0  0  0  0  0  0  0  0
  158.6210  214.1030  146.1020 F   0  0  0  0  0  0  0  0  0  0  0  0
  159.0000  213.0190  145.3290 C   0  0  0  0  0  0  0  0  0  0  0  0
  159.3510  213.4930  143.9260 C   0  0  0  0  0  2  0  0  0  0  0  0
  160.1080  212.4770  143.2090 N   0  0  0  0  0  2  0  0  0  0  0  0
  161.1160  213.1450  142.5070 N   0  0  0  0  0  2  0  0  0  0  0  0
  162.0100  212.1300  141.9780 C   0  0  0  0  0  2  0  0  0  0  0  0
  160.8150  212.2320  139.9300 O   0  0  0  0  0  0  0  0  0  0  0  0
  161.4180  211.5100  140.7660 C   0  0  0  0  0  0  0  0  0  0  0  0
  161.5350  210.1000  140.5620 N   0  0  0  0  0  2  0  0  0  0  0  0
  161.3830  207.8690  139.1670 O   0  0  0  0  0  0  0  0  0  0  0  0
  161.0040  209.3230  139.1060 S   0  0  0  0  0  0  0  0  0  0  0  0
  161.7960  210.0780  137.7020 C   0  0  0  0  0  1  0  0  0  0  0  0
  159.5060  209.4380  138.9740 O   0  0  0  0  0  0  0  0  0  0  0  0
  161.8580  212.1540  149.1220 C   0  0  0  0  0  2  0  0  0  0  0  0
  161.5050  210.9190  149.9320 C   0  0  0  0  0  2  0  0  0  0  0  0
  162.4330  209.7760  149.5460 C   0  0  0  0  0  2  0  0  0  0  0  0
  161.7120  208.7690  148.7050 C   0  0  0  0  0  3  0  0  0  0  0  0
  162.3330  207.6920  148.2270 C   0  0  0  0  0  3  0  0  0  0  0  0
  161.5890  206.7150  147.3800 C   0  0  0  0  0  2  0  0  0  0  0  0
  162.5280  205.6630  146.8130 C   0  0  0  0  0  2  0  0  0  0  0  0
  162.0880  204.2610  147.2080 C   0  0  0  0  0  2  0  0  0  0  0  0
  160.8290  204.3100  148.0560 C   0  0  0  0  0  2  0  0  0  0  0  0
  160.8870  203.6320  150.4600 C   0  0  0  0  0  0  0  0  0  0  0  0
  161.0650  202.4080  151.2900 C   0  0  0  0  0  3  0  0  0  0  0  0
  161.0890  201.9690  148.9890 O   0  0  0  0  0  0  0  0  0  0  0  0
  161.1800  201.2970  150.2380 C   0  0  0  0  0  3  0  0  0  0  0  0
  160.9320  203.3300  149.1780 C   0  0  0  0  0  0  0  0  0  0  0  0
  160.8020  205.0160  151.0120 C   0  0  0  0  0  2  0  0  0  0  0  0
  161.6860  205.1520  152.1600 N   0  0  0  0  0  2  0  0  0  0  0  0
  161.5740  206.5260  152.6200 C   0  0  0  0  0  2  0  0  0  0  0  0
  160.7940  206.5820  153.9260 C   0  0  0  0  0  2  0  0  0  0  0  0
  161.3880  207.6480  154.8310 C   0  0  0  0  0  2  0  0  0  0  0  0
  161.4290  210.8920  155.6870 C   0  0  0  0  0  2  0  0  0  0  0  0
  160.8550  209.6590  153.7420 C   0  0  0  0  0  2  0  0  0  0  0  0
  160.5090  208.8090  154.8780 N   0  0  0  0  0  0  0  0  0  0  0  0
  160.8360  209.5580  156.0890 C   0  0  0  0  0  2  0  0  0  0  0  0
  161.0230  211.0690  154.2530 C   0  0  0  0  0  2  0  0  0  0  0  0
  160.1370  213.8410  149.1220 O   0  0  0  0  0  0  0  0  0  0  0  0
  157.8530  213.4670  149.1740 O   0  0  0  0  0  0  0  0  0  0  0  0
  158.8970  213.8550  149.7640 C   0  0  0  0  0  0  0  0  0  0  0  0
  158.8120  214.3630  151.1600 C   0  0  0  0  0  2  0  0  0  0  0  0
  158.8190  213.2030  152.1360 C   0  0  0  0  0  2  0  0  0  0  0  0
  157.0460  214.4020  153.1620 O   0  0  0  0  0  0  0  0  0  0  0  0
  157.3100  212.2390  153.8660 O   0  0  0  0  0  1  0  0  0  0  0  0
  157.6730  213.3180  153.0740 C   0  0  0  0  0  0  0  0  0  0  0  0
  1 43  1  0  0  0  0
  1 19  1  1  0  0  0
  2  3  1  6  0  0  0
  2  1  1  0  0  0  0
  4  2  1  0  0  0  0
  5  7  1  0  0  0  0
  7  4  1  0  0  0  0
  7  6  1  0  0  0  0
  8  7  1  0  0  0  0
  9  8  1  0  0  0  0
 10  9  1  0  0  0  0
 11 10  1  0  0  0  0
 12 13  2  0  0  0  0
 13 11  1  0  0  0  0
 14 13  1  0  0  0  0
 16 15  2  0  0  0  0
 16 14  1  0  0  0  0
 17 16  1  0  0  0  0
 18 16  2  0  0  0  0
 19 20  1  0  0  0  0
 21 20  1  0  0  0  0
 22 21  1  0  0  0  0
 23 22  2  0  0  0  0
 24 23  1  0  0  0  0
 25 26  1  0  0  0  0
 25 24  1  0  0  0  0
 26 27  1  0  0  0  0
 27 32  1  0  0  0  0
 28 33  1  0  0  0  0
 28 29  1  0  0  0  0
 30 32  1  0  0  0  0
 30 31  1  0  0  0  0
 31 29  2  0  0  0  0
 32 28  2  0  0  0  0
 33 34  1  0  0  0  0
 34 35  1  0  0  0  0
 35 36  1  0  0  0  0
 36 37  1  0  0  0  0
 37 40  1  0  0  0  0
 38 41  1  0  0  0  0
 39 42  1  0  0  0  0
 39 40  1  0  0  0  0
 40 41  1  0  0  0  0
 42 38  1  0  0  0  0
 43 45  1  0  0  0  0
 44 45  2  0  0  0  0
 45 46  1  0  0  0  0
 46 47  1  0  0  0  0
 47 50  1  0  0  0  0
 50 48  2  0  0  0  0
 50 49  1  0  0  0  0
M  END
>  <MODEL>
1

>  <REMARK>
 VINA RESULT:      -5.6      0.000      0.000
  Name = 
  29 active torsions:
  status: ('A' for Active; 'I' for Inactive)
    1  A    between atoms: C_2  and  N_22
    2  A    between atoms: C_2  and  C_46
    3  A    between atoms: N_3  and  C_10
    4  A    between atoms: N_3  and  N_27
    5  A    between atoms: C_5  and  C_14
    6  A    between atoms: C_10  and  C_50
    7  A    between atoms: C_11  and  C_30
    8  A    between atoms: C_11  and  C_41
    9  A    between atoms: C_12  and  C_20
   10  A    between atoms: C_13  and  C_17
   11  A    between atoms: C_13  and  C_47
   12  A    between atoms: C_14  and  C_48
   13  A    between atoms: C_15  and  C_30
   14  A    between atoms: C_15  and  C_35
   15  A    between atoms: C_17  and  C_36
   16  A    between atoms: O_18  and  C_19
   17  A    between atoms: O_18  and  C_36
   18  A    between atoms: C_19  and  C_21
   19  A    between atoms: C_19  and  C_28
   20  A    between atoms: C_20  and  N_22
   21  A    between atoms: C_21  and  C_43
   22  A    between atoms: C_26  and  N_29
   23  A    between atoms: C_26  and  C_46
   24  A    between atoms: N_27  and  C_37
   25  A    between atoms: C_28  and  C_48
   26  A    between atoms: C_32  and  C_35
   27  A    between atoms: S_33  and  N_44
   28  A    between atoms: C_37  and  C_42
   29  A    between atoms: C_43  and  C_50
                            x       y       z     vdW  Elec       q    Type
                         _______ _______ _______ _____ _____    ______ ____

>  <TORSDO>
F 29

$$$$
=
 OpenBabel11052412073D

 50 51  0  0  1  0  0  0  0  0999 V2000
  161.3750  206.7750  148.7420 C   0  0  1  0  0  3  0  0  0  0  0  0
  161.9290  206.1200  150.0190 C   0  0  1  0  0  3  0  0  0  0  0  0
  162.8110  207.0720  150.8200 C   0  0  0  0  0  1  0  0  0  0  0  0
  160.7920  205.6710  150.9360 C   0  0  0  0  0  2  0  0  0  0  0  0
  160.2780  203.4180  151.5160 F   0  0  0  0  0  0  0  0  0  0  0  0
  162.4400  204.0610  151.5950 F   0  0  0  0  0  0  0  0  0  0  0  0
  161.1330  204.4650  151.8080 C   0  0  0  0  0  0  0  0  0  0  0  0
  160.9460  204.8270  153.2740 C   0  0  0  0  0  2  0  0  0  0  0  0
  161.7220  206.0090  153.6200 N   0  0  0  0  0  2  0  0  0  0  0  0
  160.8870  206.8320  154.3820 N   0  0  0  0  0  2  0  0  0  0  0  0
  160.9920  208.1710  153.8310 C   0  0  0  0  0  2  0  0  0  0  0  0
  160.8850  208.9320  156.0770 O   0  0  0  0  0  0  0  0  0  0  0  0
  160.6440  209.1770  154.8650 C   0  0  0  0  0  0  0  0  0  0  0  0
  160.0370  210.4120  154.4780 N   0  0  0  0  0  2  0  0  0  0  0  0
  158.6790  211.2530  156.5750 O   0  0  0  0  0  0  0  0  0  0  0  0
  159.7380  211.6960  155.6040 S   0  0  0  0  0  0  0  0  0  0  0  0
  159.1650  213.1370  154.7280 C   0  0  0  0  0  1  0  0  0  0  0  0
  160.9990  212.0240  156.3630 O   0  0  0  0  0  0  0  0  0  0  0  0
  161.0650  208.2580  148.9630 C   0  0  0  0  0  2  0  0  0  0  0  0
  162.0930  209.1430  148.2810 C   0  0  0  0  0  2  0  0  0  0  0  0
  162.3800  210.3550  149.1550 C   0  0  0  0  0  2  0  0  0  0  0  0
  161.6570  211.5620  148.6420 C   0  0  0  0  0  3  0  0  0  0  0  0
  162.2970  212.5240  147.9790 C   0  0  0  0  0  3  0  0  0  0  0  0
  161.5500  213.7200  147.4930 C   0  0  0  0  0  2  0  0  0  0  0  0
  161.8610  213.9980  146.0320 C   0  0  0  0  0  2  0  0  0  0  0  0
  163.0600  213.1890  145.5580 C   0  0  0  0  0  2  0  0  0  0  0  0
  163.2900  213.3890  144.0710 C   0  0  0  0  0  2  0  0  0  0  0  0
  161.8340  213.2440  142.0460 C   0  0  0  0  0  0  0  0  0  0  0  0
  160.5250  212.6680  141.6280 C   0  0  0  0  0  3  0  0  0  0  0  0
  161.0880  212.1580  143.8440 O   0  0  0  0  0  0  0  0  0  0  0  0
  160.0660  211.9200  142.8870 C   0  0  0  0  0  3  0  0  0  0  0  0
  162.0870  212.9460  143.3040 C   0  0  0  0  0  0  0  0  0  0  0  0
  162.6680  214.1400  141.1930 C   0  0  0  0  0  2  0  0  0  0  0  0
  162.1930  214.1070  139.8170 N   0  0  0  0  0  2  0  0  0  0  0  0
  163.3220  214.4510  138.9700 C   0  0  0  0  0  2  0  0  0  0  0  0
  163.5580  213.3590  137.9370 C   0  0  0  0  0  2  0  0  0  0  0  0
  162.2960  213.1470  137.1180 C   0  0  0  0  0  2  0  0  0  0  0  0
  162.1980  210.4270  139.0790 C   0  0  0  0  0  2  0  0  0  0  0  0
  160.6590  211.5560  137.6670 C   0  0  0  0  0  2  0  0  0  0  0  0
  161.9740  211.7280  137.0550 N   0  0  0  0  0  0  0  0  0  0  0  0
  162.9360  211.0230  137.8980 C   0  0  0  0  0  2  0  0  0  0  0  0
  160.7570  210.4230  138.6610 C   0  0  0  0  0  2  0  0  0  0  0  0
  162.3430  206.6490  147.7040 O   0  0  0  0  0  0  0  0  0  0  0  0
  162.5770  206.0600  145.4770 O   0  0  0  0  0  0  0  0  0  0  0  0
  162.2110  205.7500  146.6430 C   0  0  0  0  0  0  0  0  0  0  0  0
  161.6030  204.4160  146.8980 C   0  0  0  0  0  2  0  0  0  0  0  0
  161.5720  203.6070  145.6170 C   0  0  0  0  0  2  0  0  0  0  0  0
  160.0300  201.9370  144.9340 O   0  0  0  0  0  0  0  0  0  0  0  0
  160.9450  201.6420  147.0120 O   0  0  0  0  0  1  0  0  0  0  0  0
  160.8110  202.3490  145.8260 C   0  0  0  0  0  0  0  0  0  0  0  0
  1 19  1  1  0  0  0
  1  2  1  0  0  0  0
  2  3  1  1  0  0  0
  2  4  1  0  0  0  0
  4  7  1  0  0  0  0
  5  7  1  0  0  0  0
  6  7  1  0  0  0  0
  7  8  1  0  0  0  0
  8  9  1  0  0  0  0
  9 10  1  0  0  0  0
 11 10  1  0  0  0  0
 11 13  1  0  0  0  0
 13 12  2  0  0  0  0
 14 13  1  0  0  0  0
 14 16  1  0  0  0  0
 16 18  2  0  0  0  0
 16 15  2  0  0  0  0
 17 16  1  0  0  0  0
 20 19  1  0  0  0  0
 20 21  1  0  0  0  0
 22 21  1  0  0  0  0
 23 22  2  0  0  0  0
 24 23  1  0  0  0  0
 25 24  1  0  0  0  0
 26 25  1  0  0  0  0
 27 26  1  0  0  0  0
 28 32  2  0  0  0  0
 29 28  1  0  0  0  0
 29 31  2  0  0  0  0
 31 30  1  0  0  0  0
 32 30  1  0  0  0  0
 32 27  1  0  0  0  0
 33 28  1  0  0  0  0
 34 33  1  0  0  0  0
 35 34  1  0  0  0  0
 36 35  1  0  0  0  0
 37 36  1  0  0  0  0
 39 42  1  0  0  0  0
 40 37  1  0  0  0  0
 40 39  1  0  0  0  0
 40 41  1  0  0  0  0
 41 38  1  0  0  0  0
 42 38  1  0  0  0  0
 43  1  1  0  0  0  0
 44 45  2  0  0  0  0
 45 46  1  0  0  0  0
 45 43  1  0  0  0  0
 47 50  1  0  0  0  0
 47 46  1  0  0  0  0
 48 50  2  0  0  0  0
 50 49  1  0  0  0  0
M  END
>  <MODEL>
2

>  <REMARK>
 VINA RESULT:      -5.0      4.285     12.777
  Name = 
  29 active torsions:
  status: ('A' for Active; 'I' for Inactive)
    1  A    between atoms: C_2  and  N_22
    2  A    between atoms: C_2  and  C_46
    3  A    between atoms: N_3  and  C_10
    4  A    between atoms: N_3  and  N_27
    5  A    between atoms: C_5  and  C_14
    6  A    between atoms: C_10  and  C_50
    7  A    between atoms: C_11  and  C_30
    8  A    between atoms: C_11  and  C_41
    9  A    between atoms: C_12  and  C_20
   10  A    between atoms: C_13  and  C_17
   11  A    between atoms: C_13  and  C_47
   12  A    between atoms: C_14  and  C_48
   13  A    between atoms: C_15  and  C_30
   14  A    between atoms: C_15  and  C_35
   15  A    between atoms: C_17  and  C_36
   16  A    between atoms: O_18  and  C_19
   17  A    between atoms: O_18  and  C_36
   18  A    between atoms: C_19  and  C_21
   19  A    between atoms: C_19  and  C_28
   20  A    between atoms: C_20  and  N_22
   21  A    between atoms: C_21  and  C_43
   22  A    between atoms: C_26  and  N_29
   23  A    between atoms: C_26  and  C_46
   24  A    between atoms: N_27  and  C_37
   25  A    between atoms: C_28  and  C_48
   26  A    between atoms: C_32  and  C_35
   27  A    between atoms: S_33  and  N_44
   28  A    between atoms: C_37  and  C_42
   29  A    between atoms: C_43  and  C_50
                            x       y       z     vdW  Elec       q    Type
                         _______ _______ _______ _____ _____    ______ ____

>  <TORSDO>
F 29

$$$$
=
 OpenBabel11052412073D

 50 51  0  0  1  0  0  0  0  0999 V2000
  161.3620  205.1310  147.8150 C   0  0  1  0  0  3  0  0  0  0  0  0
  161.7550  206.3550  148.6610 C   0  0  1  0  0  3  0  0  0  0  0  0
  161.8270  207.6310  147.8310 C   0  0  0  0  0  1  0  0  0  0  0  0
  160.7380  206.5930  149.7770 C   0  0  0  0  0  2  0  0  0  0  0  0
  160.8910  206.2200  152.1250 F   0  0  0  0  0  0  0  0  0  0  0  0
  162.7390  206.9430  151.0490 F   0  0  0  0  0  0  0  0  0  0  0  0
  161.3580  207.0270  151.1030 C   0  0  0  0  0  0  0  0  0  0  0  0
  160.9480  208.4590  151.4130 C   0  0  0  0  0  2  0  0  0  0  0  0
  161.9460  209.1170  152.2430 N   0  0  0  0  0  2  0  0  0  0  0  0
  161.4460  210.3870  152.5450 N   0  0  0  0  0  2  0  0  0  0  0  0
  160.7810  210.2880  153.8330 C   0  0  0  0  0  2  0  0  0  0  0  0
  158.8100  211.0450  152.7470 O   0  0  0  0  0  0  0  0  0  0  0  0
  159.4970  211.0320  153.8030 C   0  0  0  0  0  0  0  0  0  0  0  0
  159.0550  211.7290  154.9700 N   0  0  0  0  0  2  0  0  0  0  0  0
  157.4650  213.6390  154.0900 O   0  0  0  0  0  0  0  0  0  0  0  0
  157.5020  212.4950  155.0640 S   0  0  0  0  0  0  0  0  0  0  0  0
  157.2420  213.1170  156.7120 C   0  0  0  0  0  1  0  0  0  0  0  0
  156.4160  211.5090  154.7100 O   0  0  0  0  0  0  0  0  0  0  0  0
  161.9950  205.1880  146.4220 C   0  0  0  0  0  2  0  0  0  0  0  0
  160.9590  204.9520  145.3370 C   0  0  0  0  0  2  0  0  0  0  0  0
  161.0350  206.0730  144.3100 C   0  0  0  0  0  2  0  0  0  0  0  0
  161.6730  205.5900  143.0450 C   0  0  0  0  0  3  0  0  0  0  0  0
  161.7550  206.3710  141.9680 C   0  0  0  0  0  3  0  0  0  0  0  0
  162.3850  205.8560  140.7180 C   0  0  0  0  0  2  0  0  0  0  0  0
  162.2770  206.8730  139.5950 C   0  0  0  0  0  2  0  0  0  0  0  0
  161.7780  208.2140  140.1120 C   0  0  0  0  0  2  0  0  0  0  0  0
  160.6910  208.7690  139.2070 C   0  0  0  0  0  2  0  0  0  0  0  0
  160.7270  211.2180  138.7150 C   0  0  0  0  0  0  0  0  0  0  0  0
  161.4200  212.1850  137.8180 C   0  0  0  0  0  3  0  0  0  0  0  0
  162.1890  209.9860  137.5670 O   0  0  0  0  0  0  0  0  0  0  0  0
  162.4220  211.2970  137.0690 C   0  0  0  0  0  3  0  0  0  0  0  0
  161.1820  209.9980  138.5140 C   0  0  0  0  0  0  0  0  0  0  0  0
  159.5900  211.5720  139.6140 C   0  0  0  0  0  2  0  0  0  0  0  0
  160.0430  212.4750  140.6610 N   0  0  0  0  0  2  0  0  0  0  0  0
  160.7720  211.6710  141.6270 C   0  0  0  0  0  2  0  0  0  0  0  0
  160.2660  211.9500  143.0350 C   0  0  0  0  0  2  0  0  0  0  0  0
  161.2870  212.7850  143.7900 C   0  0  0  0  0  2  0  0  0  0  0  0
  159.1180  214.4520  145.7330 C   0  0  0  0  0  2  0  0  0  0  0  0
  159.6460  212.1690  145.3530 C   0  0  0  0  0  2  0  0  0  0  0  0
  160.8950  212.9070  145.1880 N   0  0  0  0  0  0  0  0  0  0  0  0
  160.5970  214.3150  145.4380 C   0  0  0  0  0  2  0  0  0  0  0  0
  158.6730  213.0620  146.0850 C   0  0  0  0  0  2  0  0  0  0  0  0
  161.8020  203.9510  148.4810 O   0  0  0  0  0  0  0  0  0  0  0  0
  160.8720  203.3830  150.5240 O   0  0  0  0  0  0  0  0  0  0  0  0
  160.9660  203.1720  149.2850 C   0  0  0  0  0  0  0  0  0  0  0  0
  160.1990  202.0590  148.6630 C   0  0  0  0  0  2  0  0  0  0  0  0
  161.1140  200.8780  148.4050 C   0  0  0  0  0  2  0  0  0  0  0  0
  161.5900  199.4630  146.5610 O   0  0  0  0  0  1  0  0  0  0  0  0
  160.7490  201.5250  146.0290 O   0  0  0  0  0  0  0  0  0  0  0  0
  161.1600  200.5750  146.9520 C   0  0  0  0  0  0  0  0  0  0  0  0
  1 19  1  6  0  0  0
  1 43  1  0  0  0  0
  1  2  1  0  0  0  0
  2  3  1  6  0  0  0
  2  4  1  0  0  0  0
  4  7  1  0  0  0  0
  6  7  1  0  0  0  0
  7  8  1  0  0  0  0
  7  5  1  0  0  0  0
  8  9  1  0  0  0  0
  9 10  1  0  0  0  0
 10 11  1  0  0  0  0
 12 13  2  0  0  0  0
 13 11  1  0  0  0  0
 13 14  1  0  0  0  0
 14 16  1  0  0  0  0
 15 16  2  0  0  0  0
 16 17  1  0  0  0  0
 18 16  2  0  0  0  0
 20 19  1  0  0  0  0
 21 20  1  0  0  0  0
 22 21  1  0  0  0  0
 23 22  2  0  0  0  0
 24 23  1  0  0  0  0
 25 26  1  0  0  0  0
 25 24  1  0  0  0  0
 27 26  1  0  0  0  0
 28 33  1  0  0  0  0
 29 28  1  0  0  0  0
 30 32  1  0  0  0  0
 31 30  1  0  0  0  0
 31 29  2  0  0  0  0
 32 28  2  0  0  0  0
 32 27  1  0  0  0  0
 33 34  1  0  0  0  0
 34 35  1  0  0  0  0
 35 36  1  0  0  0  0
 36 37  1  0  0  0  0
 37 40  1  0  0  0  0
 38 42  1  0  0  0  0
 39 42  1  0  0  0  0
 40 39  1  0  0  0  0
 40 41  1  0  0  0  0
 41 38  1  0  0  0  0
 43 45  1  0  0  0  0
 45 44  2  0  0  0  0
 46 45  1  0  0  0  0
 47 46  1  0  0  0  0
 48 50  1  0  0  0  0
 49 50  2  0  0  0  0
 50 47  1  0  0  0  0
M  END
>  <MODEL>
3

>  <REMARK>
 VINA RESULT:      -5.0      3.849     11.765
  Name = 
  29 active torsions:
  status: ('A' for Active; 'I' for Inactive)
    1  A    between atoms: C_2  and  N_22
    2  A    between atoms: C_2  and  C_46
    3  A    between atoms: N_3  and  C_10
    4  A    between atoms: N_3  and  N_27
    5  A    between atoms: C_5  and  C_14
    6  A    between atoms: C_10  and  C_50
    7  A    between atoms: C_11  and  C_30
    8  A    between atoms: C_11  and  C_41
    9  A    between atoms: C_12  and  C_20
   10  A    between atoms: C_13  and  C_17
   11  A    between atoms: C_13  and  C_47
   12  A    between atoms: C_14  and  C_48
   13  A    between atoms: C_15  and  C_30
   14  A    between atoms: C_15  and  C_35
   15  A    between atoms: C_17  and  C_36
   16  A    between atoms: O_18  and  C_19
   17  A    between atoms: O_18  and  C_36
   18  A    between atoms: C_19  and  C_21
   19  A    between atoms: C_19  and  C_28
   20  A    between atoms: C_20  and  N_22
   21  A    between atoms: C_21  and  C_43
   22  A    between atoms: C_26  and  N_29
   23  A    between atoms: C_26  and  C_46
   24  A    between atoms: N_27  and  C_37
   25  A    between atoms: C_28  and  C_48
   26  A    between atoms: C_32  and  C_35
   27  A    between atoms: S_33  and  N_44
   28  A    between atoms: C_37  and  C_42
   29  A    between atoms: C_43  and  C_50
                            x       y       z     vdW  Elec       q    Type
                         _______ _______ _______ _____ _____    ______ ____

>  <TORSDO>
F 29

$$$$
=
 OpenBabel11052412073D

 50 51  0  0  1  0  0  0  0  0999 V2000
  161.3820  206.5820  150.0830 C   0  0  1  0  0  3  0  0  0  0  0  0
  161.0410  206.1800  151.5300 C   0  0  1  0  0  3  0  0  0  0  0  0
  161.5290  204.7760  151.8680 C   0  0  0  0  0  1  0  0  0  0  0  0
  161.6880  207.1400  152.5270 C   0  0  0  0  0  2  0  0  0  0  0  0
  159.9540  206.4560  154.0100 F   0  0  0  0  0  0  0  0  0  0  0  0
  162.0860  206.0050  154.5990 F   0  0  0  0  0  0  0  0  0  0  0  0
  161.2560  206.9210  153.9750 C   0  0  0  0  0  0  0  0  0  0  0  0
  161.3020  208.2430  154.7260 C   0  0  0  0  0  2  0  0  0  0  0  0
  159.9640  208.6690  155.1100 N   0  0  0  0  0  2  0  0  0  0  0  0
  160.0310  209.0480  156.4540 N   0  0  0  0  0  2  0  0  0  0  0  0
  160.6430  210.3650  156.4940 C   0  0  0  0  0  2  0  0  0  0  0  0
  160.1760  212.4340  155.4270 O   0  0  0  0  0  0  0  0  0  0  0  0
  159.7140  211.3770  155.9330 C   0  0  0  0  0  0  0  0  0  0  0  0
  158.3040  211.1460  155.9760 N   0  0  0  0  0  2  0  0  0  0  0  0
  157.5380  212.3600  153.7640 O   0  0  0  0  0  0  0  0  0  0  0  0
  157.1630  212.2050  155.2120 S   0  0  0  0  0  0  0  0  0  0  0  0
  157.2040  213.7990  156.0040 C   0  0  0  0  0  1  0  0  0  0  0  0
  155.7740  211.6230  155.3030 O   0  0  0  0  0  0  0  0  0  0  0  0
  162.2990  207.8070  150.0450 C   0  0  0  0  0  2  0  0  0  0  0  0
  161.5310  209.0580  149.6600 C   0  0  0  0  0  2  0  0  0  0  0  0
  162.2390  209.7560  148.5080 C   0  0  0  0  0  2  0  0  0  0  0  0
  162.1370  211.2430  148.6460 C   0  0  0  0  0  3  0  0  0  0  0  0
  161.0530  211.9040  148.2430 C   0  0  0  0  0  3  0  0  0  0  0  0
  160.9880  213.3880  148.3810 C   0  0  0  0  0  2  0  0  0  0  0  0
  159.9650  213.9790  147.4250 C   0  0  0  0  0  2  0  0  0  0  0  0
  159.4800  212.9400  146.4250 C   0  0  0  0  0  2  0  0  0  0  0  0
  159.5160  213.4950  145.0120 C   0  0  0  0  0  2  0  0  0  0  0  0
  161.0790  212.8940  143.1570 C   0  0  0  0  0  0  0  0  0  0  0  0
  162.5370  212.7070  142.9170 C   0  0  0  0  0  3  0  0  0  0  0  0
  162.0460  213.3950  145.1030 O   0  0  0  0  0  0  0  0  0  0  0  0
  163.1550  213.0800  144.2720 C   0  0  0  0  0  3  0  0  0  0  0  0
  160.8610  213.2570  144.4050 C   0  0  0  0  0  0  0  0  0  0  0  0
  160.0170  212.5840  142.1560 C   0  0  0  0  0  2  0  0  0  0  0  0
  160.5370  211.6860  141.1360 N   0  0  0  0  0  2  0  0  0  0  0  0
  159.5000  211.5450  140.1270 C   0  0  0  0  0  2  0  0  0  0  0  0
  160.0870  210.9750  138.8440 C   0  0  0  0  0  2  0  0  0  0  0  0
  161.2990  210.1190  139.1720 C   0  0  0  0  0  2  0  0  0  0  0  0
  161.9010  207.1580  137.7140 C   0  0  0  0  0  2  0  0  0  0  0  0
  162.0050  208.0110  139.9270 C   0  0  0  0  0  2  0  0  0  0  0  0
  160.9100  208.7190  139.2700 N   0  0  0  0  0  0  0  0  0  0  0  0
  160.8140  208.1940  137.9100 C   0  0  0  0  0  2  0  0  0  0  0  0
  162.3220  206.7850  139.1050 C   0  0  0  0  0  2  0  0  0  0  0  0
  162.0340  205.4890  149.4440 O   0  0  0  0  0  0  0  0  0  0  0  0
  160.5800  204.2000  148.1840 O   0  0  0  0  0  0  0  0  0  0  0  0
  161.5980  204.9420  148.2340 C   0  0  0  0  0  0  0  0  0  0  0  0
  162.3710  205.2240  146.9940 C   0  0  0  0  0  2  0  0  0  0  0  0
  161.7450  204.5010  145.8180 C   0  0  0  0  0  2  0  0  0  0  0  0
  161.4480  205.5070  143.6890 O   0  0  0  0  0  0  0  0  0  0  0  0
  160.1610  206.3700  145.3750 O   0  0  0  0  0  1  0  0  0  0  0  0
  161.1100  205.4780  144.8970 C   0  0  0  0  0  0  0  0  0  0  0  0
  1 19  1  1  0  0  0
  1  2  1  0  0  0  0
  2  3  1  1  0  0  0
  2  4  1  0  0  0  0
  4  7  1  0  0  0  0
  7  5  1  0  0  0  0
  7  6  1  0  0  0  0
  7  8  1  0  0  0  0
  8  9  1  0  0  0  0
  9 10  1  0  0  0  0
 10 11  1  0  0  0  0
 12 13  2  0  0  0  0
 13 14  1  0  0  0  0
 13 11  1  0  0  0  0
 15 16  2  0  0  0  0
 16 18  2  0  0  0  0
 16 14  1  0  0  0  0
 16 17  1  0  0  0  0
 20 19  1  0  0  0  0
 21 22  1  0  0  0  0
 21 20  1  0  0  0  0
 23 24  1  0  0  0  0
 23 22  2  0  0  0  0
 25 24  1  0  0  0  0
 26 25  1  0  0  0  0
 27 26  1  0  0  0  0
 28 32  2  0  0  0  0
 29 28  1  0  0  0  0
 29 31  2  0  0  0  0
 31 30  1  0  0  0  0
 32 27  1  0  0  0  0
 32 30  1  0  0  0  0
 33 28  1  0  0  0  0
 34 33  1  0  0  0  0
 35 34  1  0  0  0  0
 36 37  1  0  0  0  0
 36 35  1  0  0  0  0
 37 40  1  0  0  0  0
 38 41  1  0  0  0  0
 38 42  1  0  0  0  0
 40 39  1  0  0  0  0
 41 40  1  0  0  0  0
 42 39  1  0  0  0  0
 43  1  1  0  0  0  0
 44 45  2  0  0  0  0
 45 43  1  0  0  0  0
 46 45  1  0  0  0  0
 47 46  1  0  0  0  0
 48 50  2  0  0  0  0
 50 49  1  0  0  0  0
 50 47  1  0  0  0  0
M  END
>  <MODEL>
4

>  <REMARK>
 VINA RESULT:      -5.0      4.068     12.406
  Name = 
  29 active torsions:
  status: ('A' for Active; 'I' for Inactive)
    1  A    between atoms: C_2  and  N_22
    2  A    between atoms: C_2  and  C_46
    3  A    between atoms: N_3  and  C_10
    4  A    between atoms: N_3  and  N_27
    5  A    between atoms: C_5  and  C_14
    6  A    between atoms: C_10  and  C_50
    7  A    between atoms: C_11  and  C_30
    8  A    between atoms: C_11  and  C_41
    9  A    between atoms: C_12  and  C_20
   10  A    between atoms: C_13  and  C_17
   11  A    between atoms: C_13  and  C_47
   12  A    between atoms: C_14  and  C_48
   13  A    between atoms: C_15  and  C_30
   14  A    between atoms: C_15  and  C_35
   15  A    between atoms: C_17  and  C_36
   16  A    between atoms: O_18  and  C_19
   17  A    between atoms: O_18  and  C_36
   18  A    between atoms: C_19  and  C_21
   19  A    between atoms: C_19  and  C_28
   20  A    between atoms: C_20  and  N_22
   21  A    between atoms: C_21  and  C_43
   22  A    between atoms: C_26  and  N_29
   23  A    between atoms: C_26  and  C_46
   24  A    between atoms: N_27  and  C_37
   25  A    between atoms: C_28  and  C_48
   26  A    between atoms: C_32  and  C_35
   27  A    between atoms: S_33  and  N_44
   28  A    between atoms: C_37  and  C_42
   29  A    between atoms: C_43  and  C_50
                            x       y       z     vdW  Elec       q    Type
                         _______ _______ _______ _____ _____    ______ ____

>  <TORSDO>
F 29

$$$$
=
 OpenBabel11052412073D

 50 51  0  0  1  0  0  0  0  0999 V2000
  161.8070  209.4040  151.3310 C   0  0  1  0  0  3  0  0  0  0  0  0
  162.2610  210.1900  150.0880 C   0  0  1  0  0  3  0  0  0  0  0  0
  162.1650  209.3610  148.8130 C   0  0  0  0  0  1  0  0  0  0  0  0
  161.4000  211.4370  149.8890 C   0  0  0  0  0  2  0  0  0  0  0  0
  163.1540  212.3800  148.5830 F   0  0  0  0  0  0  0  0  0  0  0  0
  161.2970  211.6810  147.5070 F   0  0  0  0  0  0  0  0  0  0  0  0
  161.7790  212.2680  148.6650 C   0  0  0  0  0  0  0  0  0  0  0  0
  161.2020  213.6690  148.8030 C   0  0  0  0  0  2  0  0  0  0  0  0
  159.7850  213.6810  148.4690 N   0  0  0  0  0  2  0  0  0  0  0  0
  159.1460  214.4470  149.4490 N   0  0  0  0  0  2  0  0  0  0  0  0
  158.0670  213.6360  149.9850 C   0  0  0  0  0  2  0  0  0  0  0  0
  159.3110  213.4970  152.0030 O   0  0  0  0  0  0  0  0  0  0  0  0
  158.1740  213.5570  151.4640 C   0  0  0  0  0  0  0  0  0  0  0  0
  156.9880  213.5460  152.2610 N   0  0  0  0  0  2  0  0  0  0  0  0
  157.1920  212.2080  154.5240 O   0  0  0  0  0  0  0  0  0  0  0  0
  157.0290  213.6060  153.9930 S   0  0  0  0  0  0  0  0  0  0  0  0
  155.5030  214.2920  154.6040 C   0  0  0  0  0  1  0  0  0  0  0  0
  158.1920  214.4480  154.4550 O   0  0  0  0  0  0  0  0  0  0  0  0
  162.2960  207.9540  151.2840 C   0  0  0  0  0  2  0  0  0  0  0  0
  161.1980  206.9890  151.6960 C   0  0  0  0  0  2  0  0  0  0  0  0
  161.7350  206.0270  152.7460 C   0  0  0  0  0  2  0  0  0  0  0  0
  161.4380  204.6090  152.3670 C   0  0  0  0  0  3  0  0  0  0  0  0
  160.4030  204.3020  151.5880 C   0  0  0  0  0  3  0  0  0  0  0  0
  160.1270  202.8780  151.2400 C   0  0  0  0  0  2  0  0  0  0  0  0
  161.3420  202.2300  150.5970 C   0  0  0  0  0  2  0  0  0  0  0  0
  160.9330  201.1490  149.6080 C   0  0  0  0  0  2  0  0  0  0  0  0
  160.7310  201.7360  148.2220 C   0  0  0  0  0  2  0  0  0  0  0  0
  160.4770  200.6960  145.9640 C   0  0  0  0  0  0  0  0  0  0  0  0
  160.8980  199.4740  145.2240 C   0  0  0  0  0  3  0  0  0  0  0  0
  161.7700  199.5780  147.3960 O   0  0  0  0  0  0  0  0  0  0  0  0
  161.7950  198.7530  146.2390 C   0  0  0  0  0  3  0  0  0  0  0  0
  160.9760  200.6900  147.1840 C   0  0  0  0  0  0  0  0  0  0  0  0
  159.5190  201.7100  145.4350 C   0  0  0  0  0  2  0  0  0  0  0  0
  160.2370  202.7370  144.6940 N   0  0  0  0  0  2  0  0  0  0  0  0
  161.1420  203.3810  145.6310 C   0  0  0  0  0  2  0  0  0  0  0  0
  162.0300  204.3810  144.9050 C   0  0  0  0  0  2  0  0  0  0  0  0
  161.4090  205.7660  144.9780 C   0  0  0  0  0  2  0  0  0  0  0  0
  160.5220  205.8850  148.2120 C   0  0  0  0  0  2  0  0  0  0  0  0
  162.5240  205.4360  147.0180 C   0  0  0  0  0  2  0  0  0  0  0  0
  161.7890  206.4170  146.2250 N   0  0  0  0  0  0  0  0  0  0  0  0
  160.5600  206.7240  146.9510 C   0  0  0  0  0  2  0  0  0  0  0  0
  161.9400  205.4370  148.4100 C   0  0  0  0  0  2  0  0  0  0  0  0
  162.3320  210.0380  152.4930 O   0  0  0  0  0  0  0  0  0  0  0  0
  160.8330  211.4650  153.5310 O   0  0  0  0  0  0  0  0  0  0  0  0
  161.5390  210.4210  153.5770 C   0  0  0  0  0  0  0  0  0  0  0  0
  161.5550  209.5930  154.8140 C   0  0  0  0  0  2  0  0  0  0  0  0
  160.3490  208.6750  154.8380 C   0  0  0  0  0  2  0  0  0  0  0  0
  159.8040  207.0510  156.4800 O   0  0  0  0  0  0  0  0  0  0  0  0
  160.0390  209.1930  157.2540 O   0  0  0  0  0  1  0  0  0  0  0  0
  160.0560  208.2550  156.2320 C   0  0  0  0  0  0  0  0  0  0  0  0
  1 19  1  6  0  0  0
  1 43  1  0  0  0  0
  2  3  1  6  0  0  0
  2  1  1  0  0  0  0
  4  2  1  0  0  0  0
  5  7  1  0  0  0  0
  6  7  1  0  0  0  0
  7  8  1  0  0  0  0
  7  4  1  0  0  0  0
  9  8  1  0  0  0  0
  9 10  1  0  0  0  0
 10 11  1  0  0  0  0
 11 13  1  0  0  0  0
 13 12  2  0  0  0  0
 13 14  1  0  0  0  0
 14 16  1  0  0  0  0
 16 18  2  0  0  0  0
 16 15  2  0  0  0  0
 16 17  1  0  0  0  0
 19 20  1  0  0  0  0
 20 21  1  0  0  0  0
 22 21  1  0  0  0  0
 23 22  2  0  0  0  0
 24 23  1  0  0  0  0
 25 24  1  0  0  0  0
 26 25  1  0  0  0  0
 27 26  1  0  0  0  0
 28 32  2  0  0  0  0
 29 28  1  0  0  0  0
 29 31  2  0  0  0  0
 31 30  1  0  0  0  0
 32 30  1  0  0  0  0
 32 27  1  0  0  0  0
 33 28  1  0  0  0  0
 34 33  1  0  0  0  0
 34 35  1  0  0  0  0
 36 37  1  0  0  0  0
 36 35  1  0  0  0  0
 37 40  1  0  0  0  0
 38 42  1  0  0  0  0
 39 42  1  0  0  0  0
 40 41  1  0  0  0  0
 40 39  1  0  0  0  0
 41 38  1  0  0  0  0
 43 45  1  0  0  0  0
 44 45  2  0  0  0  0
 45 46  1  0  0  0  0
 46 47  1  0  0  0  0
 47 50  1  0  0  0  0
 50 48  2  0  0  0  0
 50 49  1  0  0  0  0
M  END
>  <MODEL>
5

>  <REMARK>
 VINA RESULT:      -4.9      4.973      8.130
  Name = 
  29 active torsions:
  status: ('A' for Active; 'I' for Inactive)
    1  A    between atoms: C_2  and  N_22
    2  A    between atoms: C_2  and  C_46
    3  A    between atoms: N_3  and  C_10
    4  A    between atoms: N_3  and  N_27
    5  A    between atoms: C_5  and  C_14
    6  A    between atoms: C_10  and  C_50
    7  A    between atoms: C_11  and  C_30
    8  A    between atoms: C_11  and  C_41
    9  A    between atoms: C_12  and  C_20
   10  A    between atoms: C_13  and  C_17
   11  A    between atoms: C_13  and  C_47
   12  A    between atoms: C_14  and  C_48
   13  A    between atoms: C_15  and  C_30
   14  A    between atoms: C_15  and  C_35
   15  A    between atoms: C_17  and  C_36
   16  A    between atoms: O_18  and  C_19
   17  A    between atoms: O_18  and  C_36
   18  A    between atoms: C_19  and  C_21
   19  A    between atoms: C_19  and  C_28
   20  A    between atoms: C_20  and  N_22
   21  A    between atoms: C_21  and  C_43
   22  A    between atoms: C_26  and  N_29
   23  A    between atoms: C_26  and  C_46
   24  A    between atoms: N_27  and  C_37
   25  A    between atoms: C_28  and  C_48
   26  A    between atoms: C_32  and  C_35
   27  A    between atoms: S_33  and  N_44
   28  A    between atoms: C_37  and  C_42
   29  A    between atoms: C_43  and  C_50
                            x       y       z     vdW  Elec       q    Type
                         _______ _______ _______ _____ _____    ______ ____

>  <TORSDO>
F 29

$$$$
=
 OpenBabel11052412073D

 50 51  0  0  1  0  0  0  0  0999 V2000
  161.4250  209.6480  151.2920 C   0  0  1  0  0  3  0  0  0  0  0  0
  162.1430  210.2080  150.0510 C   0  0  1  0  0  3  0  0  0  0  0  0
  161.9280  209.3360  148.8190 C   0  0  0  0  0  1  0  0  0  0  0  0
  161.6330  211.6080  149.7140 C   0  0  0  0  0  2  0  0  0  0  0  0
  163.1860  211.8060  147.9190 F   0  0  0  0  0  0  0  0  0  0  0  0
  161.0450  211.3050  147.4100 F   0  0  0  0  0  0  0  0  0  0  0  0
  161.8650  212.0250  148.2640 C   0  0  0  0  0  0  0  0  0  0  0  0
  161.5800  213.5110  148.1080 C   0  0  0  0  0  2  0  0  0  0  0  0
  162.0730  214.0030  146.8300 N   0  0  0  0  0  2  0  0  0  0  0  0
  161.2170  213.5000  145.8460 N   0  0  0  0  0  2  0  0  0  0  0  0
  161.2890  214.4080  144.7150 C   0  0  0  0  0  2  0  0  0  0  0  0
  162.6780  212.8390  143.5970 O   0  0  0  0  0  0  0  0  0  0  0  0
  161.7430  213.6790  143.5040 C   0  0  0  0  0  0  0  0  0  0  0  0
  161.1210  213.9400  142.2440 N   0  0  0  0  0  2  0  0  0  0  0  0
  161.4190  211.5630  141.1440 O   0  0  0  0  0  0  0  0  0  0  0  0
  161.4900  213.0280  140.8160 S   0  0  0  0  0  0  0  0  0  0  0  0
  163.1340  213.4270  140.2600 C   0  0  0  0  0  1  0  0  0  0  0  0
  160.4910  213.3400  139.7290 O   0  0  0  0  0  0  0  0  0  0  0  0
  162.1500  208.4210  151.8510 C   0  0  0  0  0  2  0  0  0  0  0  0
  161.2660  207.1890  151.8000 C   0  0  0  0  0  2  0  0  0  0  0  0
  161.8180  206.1270  152.7400 C   0  0  0  0  0  2  0  0  0  0  0  0
  161.5850  204.7550  152.1870 C   0  0  0  0  0  3  0  0  0  0  0  0
  160.3700  204.3550  151.8140 C   0  0  0  0  0  3  0  0  0  0  0  0
  160.1690  202.9770  151.2800 C   0  0  0  0  0  2  0  0  0  0  0  0
  161.4490  202.4430  150.6580 C   0  0  0  0  0  2  0  0  0  0  0  0
  161.1560  201.3400  149.6520 C   0  0  0  0  0  2  0  0  0  0  0  0
  160.5710  201.9190  148.3750 C   0  0  0  0  0  2  0  0  0  0  0  0
  160.4430  201.1940  145.9870 C   0  0  0  0  0  0  0  0  0  0  0  0
  160.8200  200.0350  145.1320 C   0  0  0  0  0  3  0  0  0  0  0  0
  161.4830  199.7820  147.3640 O   0  0  0  0  0  0  0  0  0  0  0  0
  161.5450  199.1070  146.1150 C   0  0  0  0  0  3  0  0  0  0  0  0
  160.8190  200.9870  147.2340 C   0  0  0  0  0  0  0  0  0  0  0  0
  159.6380  202.3590  145.5170 C   0  0  0  0  0  2  0  0  0  0  0  0
  160.5020  203.3370  144.8730 N   0  0  0  0  0  2  0  0  0  0  0  0
  161.7640  203.3270  145.5930 C   0  0  0  0  0  2  0  0  0  0  0  0
  162.5270  204.6190  145.3400 C   0  0  0  0  0  2  0  0  0  0  0  0
  161.5490  205.7760  145.2230 C   0  0  0  0  0  2  0  0  0  0  0  0
  160.5940  205.6110  148.4340 C   0  0  0  0  0  2  0  0  0  0  0  0
  162.6300  206.0350  147.2910 C   0  0  0  0  0  2  0  0  0  0  0  0
  161.5690  206.5710  146.4430 N   0  0  0  0  0  0  0  0  0  0  0  0
  160.3050  206.3380  147.1380 C   0  0  0  0  0  2  0  0  0  0  0  0
  162.0590  205.8300  148.6730 C   0  0  0  0  0  2  0  0  0  0  0  0
  161.3810  210.6620  152.2930 O   0  0  0  0  0  0  0  0  0  0  0  0
  159.0870  210.9450  152.4370 O   0  0  0  0  0  0  0  0  0  0  0  0
  160.2180  210.9920  152.9930 C   0  0  0  0  0  0  0  0  0  0  0  0
  160.3280  211.4300  154.4110 C   0  0  0  0  0  2  0  0  0  0  0  0
  159.3180  210.6880  155.2630 C   0  0  0  0  0  2  0  0  0  0  0  0
  160.9470  210.1280  156.8960 O   0  0  0  0  0  1  0  0  0  0  0  0
  159.6450  208.3920  156.1670 O   0  0  0  0  0  0  0  0  0  0  0  0
  160.0120  209.7290  156.1590 C   0  0  0  0  0  0  0  0  0  0  0  0
  1 19  1  1  0  0  0
  1 43  1  0  0  0  0
  2  3  1  6  0  0  0
  2  1  1  0  0  0  0
  4  2  1  0  0  0  0
  5  7  1  0  0  0  0
  6  7  1  0  0  0  0
  7  4  1  0  0  0  0
  8  7  1  0  0  0  0
  9  8  1  0  0  0  0
 10  9  1  0  0  0  0
 11 10  1  0  0  0  0
 13 12  2  0  0  0  0
 13 11  1  0  0  0  0
 14 13  1  0  0  0  0
 16 15  2  0  0  0  0
 16 14  1  0  0  0  0
 17 16  1  0  0  0  0
 18 16  2  0  0  0  0
 20 19  1  0  0  0  0
 20 21  1  0  0  0  0
 22 21  1  0  0  0  0
 23 22  2  0  0  0  0
 24 23  1  0  0  0  0
 25 24  1  0  0  0  0
 26 25  1  0  0  0  0
 27 26  1  0  0  0  0
 28 32  2  0  0  0  0
 29 28  1  0  0  0  0
 29 31  2  0  0  0  0
 31 30  1  0  0  0  0
 32 30  1  0  0  0  0
 32 27  1  0  0  0  0
 33 28  1  0  0  0  0
 34 33  1  0  0  0  0
 34 35  1  0  0  0  0
 36 35  1  0  0  0  0
 37 36  1  0  0  0  0
 37 40  1  0  0  0  0
 38 42  1  0  0  0  0
 39 42  1  0  0  0  0
 40 41  1  0  0  0  0
 40 39  1  0  0  0  0
 41 38  1  0  0  0  0
 43 45  1  0  0  0  0
 44 45  2  0  0  0  0
 45 46  1  0  0  0  0
 46 47  1  0  0  0  0
 47 50  1  0  0  0  0
 50 49  2  0  0  0  0
 50 48  1  0  0  0  0
M  END
>  <MODEL>
6

>  <REMARK>
 VINA RESULT:      -4.6      2.949      5.532
  Name = 
  29 active torsions:
  status: ('A' for Active; 'I' for Inactive)
    1  A    between atoms: C_2  and  N_22
    2  A    between atoms: C_2  and  C_46
    3  A    between atoms: N_3  and  C_10
    4  A    between atoms: N_3  and  N_27
    5  A    between atoms: C_5  and  C_14
    6  A    between atoms: C_10  and  C_50
    7  A    between atoms: C_11  and  C_30
    8  A    between atoms: C_11  and  C_41
    9  A    between atoms: C_12  and  C_20
   10  A    between atoms: C_13  and  C_17
   11  A    between atoms: C_13  and  C_47
   12  A    between atoms: C_14  and  C_48
   13  A    between atoms: C_15  and  C_30
   14  A    between atoms: C_15  and  C_35
   15  A    between atoms: C_17  and  C_36
   16  A    between atoms: O_18  and  C_19
   17  A    between atoms: O_18  and  C_36
   18  A    between atoms: C_19  and  C_21
   19  A    between atoms: C_19  and  C_28
   20  A    between atoms: C_20  and  N_22
   21  A    between atoms: C_21  and  C_43
   22  A    between atoms: C_26  and  N_29
   23  A    between atoms: C_26  and  C_46
   24  A    between atoms: N_27  and  C_37
   25  A    between atoms: C_28  and  C_48
   26  A    between atoms: C_32  and  C_35
   27  A    between atoms: S_33  and  N_44
   28  A    between atoms: C_37  and  C_42
   29  A    between atoms: C_43  and  C_50
                            x       y       z     vdW  Elec       q    Type
                         _______ _______ _______ _____ _____    ______ ____

>  <TORSDO>
F 29

$$$$
=
 OpenBabel11052412073D

 50 51  0  0  1  0  0  0  0  0999 V2000
  161.1890  211.3380  149.5070 C   0  0  1  0  0  3  0  0  0  0  0  0
  161.6950  212.2760  148.3960 C   0  0  1  0  0  3  0  0  0  0  0  0
  163.1220  211.9510  147.9720 C   0  0  0  0  0  1  0  0  0  0  0  0
  160.8130  212.1700  147.1530 C   0  0  0  0  0  2  0  0  0  0  0  0
  159.2860  213.9480  146.7300 F   0  0  0  0  0  0  0  0  0  0  0  0
  161.4820  214.4530  146.8620 F   0  0  0  0  0  0  0  0  0  0  0  0
  160.5640  213.5020  146.4490 C   0  0  0  0  0  0  0  0  0  0  0  0
  160.6730  213.3110  144.9440 C   0  0  0  0  0  2  0  0  0  0  0  0
  159.4680  212.6920  144.4100 N   0  0  0  0  0  2  0  0  0  0  0  0
  159.6980  212.4690  143.0490 N   0  0  0  0  0  2  0  0  0  0  0  0
  161.0530  211.9610  142.9250 C   0  0  0  0  0  2  0  0  0  0  0  0
  160.8050  211.2030  140.6880 O   0  0  0  0  0  0  0  0  0  0  0  0
  161.4530  211.9200  141.4960 C   0  0  0  0  0  0  0  0  0  0  0  0
  162.5720  212.6900  141.0510 N   0  0  0  0  0  2  0  0  0  0  0  0
  164.1610  213.7740  139.2480 O   0  0  0  0  0  0  0  0  0  0  0  0
  163.0120  212.8140  139.3780 S   0  0  0  0  0  0  0  0  0  0  0  0
  161.6270  213.4240  138.4400 C   0  0  0  0  0  1  0  0  0  0  0  0
  163.4340  211.4640  138.8520 O   0  0  0  0  0  0  0  0  0  0  0  0
  162.2250  210.2620  149.8440 C   0  0  0  0  0  2  0  0  0  0  0  0
  161.6130  208.8730  149.7880 C   0  0  0  0  0  2  0  0  0  0  0  0
  162.6980  207.8530  149.4750 C   0  0  0  0  0  2  0  0  0  0  0  0
  162.7110  207.5240  148.0140 C   0  0  0  0  0  3  0  0  0  0  0  0
  161.9580  206.5440  147.5170 C   0  0  0  0  0  3  0  0  0  0  0  0
  162.0030  206.2330  146.0590 C   0  0  0  0  0  2  0  0  0  0  0  0
  162.2290  204.7480  145.8270 C   0  0  0  0  0  2  0  0  0  0  0  0
  162.2800  203.9850  147.1430 C   0  0  0  0  0  2  0  0  0  0  0  0
  160.9500  203.3080  147.4230 C   0  0  0  0  0  2  0  0  0  0  0  0
  160.7490  203.2350  149.9130 C   0  0  0  0  0  0  0  0  0  0  0  0
  160.9220  202.2740  151.0370 C   0  0  0  0  0  3  0  0  0  0  0  0
  161.2860  201.3040  148.9360 O   0  0  0  0  0  0  0  0  0  0  0  0
  161.2690  200.9640  150.3160 C   0  0  0  0  0  3  0  0  0  0  0  0
  160.9880  202.6420  148.7600 C   0  0  0  0  0  0  0  0  0  0  0  0
  160.4730  204.6910  150.0870 C   0  0  0  0  0  2  0  0  0  0  0  0
  160.5670  205.0530  151.4930 N   0  0  0  0  0  2  0  0  0  0  0  0
  161.9570  205.3870  151.7530 C   0  0  0  0  0  2  0  0  0  0  0  0
  162.0460  206.5640  152.7140 C   0  0  0  0  0  2  0  0  0  0  0  0
  161.2920  206.2390  153.9920 C   0  0  0  0  0  2  0  0  0  0  0  0
  160.0660  207.5650  156.8200 C   0  0  0  0  0  2  0  0  0  0  0  0
  161.5540  208.2840  155.1160 C   0  0  0  0  0  2  0  0  0  0  0  0
  160.5770  207.4180  154.4630 N   0  0  0  0  0  0  0  0  0  0  0  0
  159.6370  206.9790  155.4910 C   0  0  0  0  0  2  0  0  0  0  0  0
  160.9890  208.6910  156.4560 C   0  0  0  0  0  2  0  0  0  0  0  0
  160.9210  212.1110  150.6740 O   0  0  0  0  0  0  0  0  0  0  0  0
  160.9600  210.5120  152.3490 O   0  0  0  0  0  0  0  0  0  0  0  0
  160.4420  211.5540  151.8630 C   0  0  0  0  0  0  0  0  0  0  0  0
  159.2850  212.1950  152.5460 C   0  0  0  0  0  2  0  0  0  0  0  0
  158.9590  211.4470  153.8230 C   0  0  0  0  0  2  0  0  0  0  0  0
  160.3430  212.3450  155.5290 O   0  0  0  0  0  0  0  0  0  0  0  0
  158.1750  213.0800  155.5310 O   0  0  0  0  0  1  0  0  0  0  0  0
  159.2050  212.3170  155.0010 C   0  0  0  0  0  0  0  0  0  0  0  0
  1 19  1  1  0  0  0
  1 43  1  0  0  0  0
  2  3  1  6  0  0  0
  2  1  1  0  0  0  0
  4  2  1  0  0  0  0
  7  5  1  0  0  0  0
  7  6  1  0  0  0  0
  7  4  1  0  0  0  0
  8  7  1  0  0  0  0
  9  8  1  0  0  0  0
 10  9  1  0  0  0  0
 11 10  1  0  0  0  0
 12 13  2  0  0  0  0
 13 11  1  0  0  0  0
 14 13  1  0  0  0  0
 15 16  2  0  0  0  0
 16 14  1  0  0  0  0
 17 16  1  0  0  0  0
 18 16  2  0  0  0  0
 20 19  1  0  0  0  0
 21 20  1  0  0  0  0
 22 21  1  0  0  0  0
 23 22  2  0  0  0  0
 24 23  1  0  0  0  0
 25 24  1  0  0  0  0
 25 26  1  0  0  0  0
 26 27  1  0  0  0  0
 27 32  1  0  0  0  0
 28 33  1  0  0  0  0
 28 29  1  0  0  0  0
 30 31  1  0  0  0  0
 31 29  2  0  0  0  0
 32 30  1  0  0  0  0
 32 28  2  0  0  0  0
 33 34  1  0  0  0  0
 34 35  1  0  0  0  0
 35 36  1  0  0  0  0
 36 37  1  0  0  0  0
 37 40  1  0  0  0  0
 39 42  1  0  0  0  0
 40 39  1  0  0  0  0
 40 41  1  0  0  0  0
 41 38  1  0  0  0  0
 42 38  1  0  0  0  0
 43 45  1  0  0  0  0
 45 44  2  0  0  0  0
 45 46  1  0  0  0  0
 46 47  1  0  0  0  0
 47 50  1  0  0  0  0
 50 48  2  0  0  0  0
 50 49  1  0  0  0  0
M  END
>  <MODEL>
7

>  <REMARK>
 VINA RESULT:      -4.5      1.837      2.483
  Name = 
  29 active torsions:
  status: ('A' for Active; 'I' for Inactive)
    1  A    between atoms: C_2  and  N_22
    2  A    between atoms: C_2  and  C_46
    3  A    between atoms: N_3  and  C_10
    4  A    between atoms: N_3  and  N_27
    5  A    between atoms: C_5  and  C_14
    6  A    between atoms: C_10  and  C_50
    7  A    between atoms: C_11  and  C_30
    8  A    between atoms: C_11  and  C_41
    9  A    between atoms: C_12  and  C_20
   10  A    between atoms: C_13  and  C_17
   11  A    between atoms: C_13  and  C_47
   12  A    between atoms: C_14  and  C_48
   13  A    between atoms: C_15  and  C_30
   14  A    between atoms: C_15  and  C_35
   15  A    between atoms: C_17  and  C_36
   16  A    between atoms: O_18  and  C_19
   17  A    between atoms: O_18  and  C_36
   18  A    between atoms: C_19  and  C_21
   19  A    between atoms: C_19  and  C_28
   20  A    between atoms: C_20  and  N_22
   21  A    between atoms: C_21  and  C_43
   22  A    between atoms: C_26  and  N_29
   23  A    between atoms: C_26  and  C_46
   24  A    between atoms: N_27  and  C_37
   25  A    between atoms: C_28  and  C_48
   26  A    between atoms: C_32  and  C_35
   27  A    between atoms: S_33  and  N_44
   28  A    between atoms: C_37  and  C_42
   29  A    between atoms: C_43  and  C_50
                            x       y       z     vdW  Elec       q    Type
                         _______ _______ _______ _____ _____    ______ ____

>  <TORSDO>
F 29

$$$$
=
 OpenBabel11052412073D

 50 51  0  0  1  0  0  0  0  0999 V2000
  161.2230  204.4590  147.7320 C   0  0  1  0  0  3  0  0  0  0  0  0
  161.5900  205.7600  148.4670 C   0  0  1  0  0  3  0  0  0  0  0  0
  160.8620  206.9720  147.8950 C   0  0  0  0  0  1  0  0  0  0  0  0
  161.2270  205.6680  149.9490 C   0  0  0  0  0  2  0  0  0  0  0  0
  163.0850  206.1990  151.3420 F   0  0  0  0  0  0  0  0  0  0  0  0
  162.1950  207.8550  150.0930 F   0  0  0  0  0  0  0  0  0  0  0  0
  161.9100  206.7140  150.8250 C   0  0  0  0  0  0  0  0  0  0  0  0
  161.0030  207.0730  151.9920 C   0  0  0  0  0  2  0  0  0  0  0  0
  160.6380  208.4820  151.9520 N   0  0  0  0  0  2  0  0  0  0  0  0
  161.6970  209.1900  152.5270 N   0  0  0  0  0  2  0  0  0  0  0  0
  161.1770  209.8430  153.7150 C   0  0  0  0  0  2  0  0  0  0  0  0
  159.0260  210.8280  153.9110 O   0  0  0  0  0  0  0  0  0  0  0  0
  160.1480  210.8440  153.3380 C   0  0  0  0  0  0  0  0  0  0  0  0
  160.4370  211.8120  152.3280 N   0  0  0  0  0  2  0  0  0  0  0  0
  158.0710  212.5160  151.4020 O   0  0  0  0  0  0  0  0  0  0  0  0
  159.3480  213.1040  151.9360 S   0  0  0  0  0  0  0  0  0  0  0  0
  160.0800  214.1470  150.6930 C   0  0  0  0  0  1  0  0  0  0  0  0
  159.0400  213.9140  153.1710 O   0  0  0  0  0  0  0  0  0  0  0  0
  161.9540  204.3500  146.3900 C   0  0  0  0  0  2  0  0  0  0  0  0
  160.9820  204.4230  145.2260 C   0  0  0  0  0  2  0  0  0  0  0  0
  161.1860  205.7310  144.4760 C   0  0  0  0  0  2  0  0  0  0  0  0
  161.6060  205.4710  143.0620 C   0  0  0  0  0  3  0  0  0  0  0  0
  161.9090  206.4700  142.2340 C   0  0  0  0  0  3  0  0  0  0  0  0
  162.3110  206.1780  140.8270 C   0  0  0  0  0  2  0  0  0  0  0  0
  161.8950  207.3060  139.8980 C   0  0  0  0  0  2  0  0  0  0  0  0
  162.3190  208.6590  140.4490 C   0  0  0  0  0  2  0  0  0  0  0  0
  161.3380  209.7410  140.0330 C   0  0  0  0  0  2  0  0  0  0  0  0
  161.5480  211.7290  138.5340 C   0  0  0  0  0  0  0  0  0  0  0  0
  162.5820  212.6950  138.0690 C   0  0  0  0  0  3  0  0  0  0  0  0
  163.4020  211.1530  139.6300 O   0  0  0  0  0  0  0  0  0  0  0  0
  163.8260  212.2700  138.8610 C   0  0  0  0  0  3  0  0  0  0  0  0
  162.0700  210.8740  139.3900 C   0  0  0  0  0  0  0  0  0  0  0  0
  160.1570  211.6670  138.0000 C   0  0  0  0  0  2  0  0  0  0  0  0
  159.2080  212.0720  139.0270 N   0  0  0  0  0  2  0  0  0  0  0  0
  159.7680  213.2430  139.6820 C   0  0  0  0  0  2  0  0  0  0  0  0
  159.2220  213.3670  141.0970 C   0  0  0  0  0  2  0  0  0  0  0  0
  160.1810  212.7100  142.0750 C   0  0  0  0  0  2  0  0  0  0  0  0
  162.0510  213.2650  144.8040 C   0  0  0  0  0  2  0  0  0  0  0  0
  162.4440  213.2040  142.4640 C   0  0  0  0  0  2  0  0  0  0  0  0
  161.0840  213.7070  142.6350 N   0  0  0  0  0  0  0  0  0  0  0  0
  160.8270  213.7720  144.0720 C   0  0  0  0  0  2  0  0  0  0  0  0
  163.1550  213.3330  143.7900 C   0  0  0  0  0  2  0  0  0  0  0  0
  161.5810  203.3510  148.5520 O   0  0  0  0  0  0  0  0  0  0  0  0
  159.5410  202.6330  149.3770 O   0  0  0  0  0  0  0  0  0  0  0  0
  160.6790  202.3480  148.9160 C   0  0  0  0  0  0  0  0  0  0  0  0
  161.0880  200.9240  148.7790 C   0  0  0  0  0  2  0  0  0  0  0  0
  161.9530  200.7490  147.5460 C   0  0  0  0  0  2  0  0  0  0  0  0
  161.2130  199.1380  145.9690 O   0  0  0  0  0  1  0  0  0  0  0  0
  160.2590  201.2110  145.7810 O   0  0  0  0  0  0  0  0  0  0  0  0
  161.1200  200.3140  146.3960 C   0  0  0  0  0  0  0  0  0  0  0  0
  1 19  1  6  0  0  0
  1  2  1  0  0  0  0
  1 43  1  0  0  0  0
  2  3  1  6  0  0  0
  2  4  1  0  0  0  0
  4  7  1  0  0  0  0
  6  7  1  0  0  0  0
  7  5  1  0  0  0  0
  7  8  1  0  0  0  0
  9  8  1  0  0  0  0
  9 10  1  0  0  0  0
 10 11  1  0  0  0  0
 13 11  1  0  0  0  0
 13 12  2  0  0  0  0
 14 13  1  0  0  0  0
 15 16  2  0  0  0  0
 16 14  1  0  0  0  0
 16 18  2  0  0  0  0
 17 16  1  0  0  0  0
 20 19  1  0  0  0  0
 21 20  1  0  0  0  0
 22 21  1  0  0  0  0
 23 22  2  0  0  0  0
 24 23  1  0  0  0  0
 25 26  1  0  0  0  0
 25 24  1  0  0  0  0
 27 26  1  0  0  0  0
 28 32  2  0  0  0  0
 29 28  1  0  0  0  0
 29 31  2  0  0  0  0
 31 30  1  0  0  0  0
 32 30  1  0  0  0  0
 32 27  1  0  0  0  0
 33 28  1  0  0  0  0
 33 34  1  0  0  0  0
 34 35  1  0  0  0  0
 35 36  1  0  0  0  0
 36 37  1  0  0  0  0
 37 40  1  0  0  0  0
 39 40  1  0  0  0  0
 39 42  1  0  0  0  0
 40 41  1  0  0  0  0
 41 38  1  0  0  0  0
 42 38  1  0  0  0  0
 43 45  1  0  0  0  0
 45 44  2  0  0  0  0
 46 45  1  0  0  0  0
 47 46  1  0  0  0  0
 48 50  1  0  0  0  0
 49 50  2  0  0  0  0
 50 47  1  0  0  0  0
M  END
>  <MODEL>
8

>  <REMARK>
 VINA RESULT:      -4.1      3.587     11.877
  Name = 
  29 active torsions:
  status: ('A' for Active; 'I' for Inactive)
    1  A    between atoms: C_2  and  N_22
    2  A    between atoms: C_2  and  C_46
    3  A    between atoms: N_3  and  C_10
    4  A    between atoms: N_3  and  N_27
    5  A    between atoms: C_5  and  C_14
    6  A    between atoms: C_10  and  C_50
    7  A    between atoms: C_11  and  C_30
    8  A    between atoms: C_11  and  C_41
    9  A    between atoms: C_12  and  C_20
   10  A    between atoms: C_13  and  C_17
   11  A    between atoms: C_13  and  C_47
   12  A    between atoms: C_14  and  C_48
   13  A    between atoms: C_15  and  C_30
   14  A    between atoms: C_15  and  C_35
   15  A    between atoms: C_17  and  C_36
   16  A    between atoms: O_18  and  C_19
   17  A    between atoms: O_18  and  C_36
   18  A    between atoms: C_19  and  C_21
   19  A    between atoms: C_19  and  C_28
   20  A    between atoms: C_20  and  N_22
   21  A    between atoms: C_21  and  C_43
   22  A    between atoms: C_26  and  N_29
   23  A    between atoms: C_26  and  C_46
   24  A    between atoms: N_27  and  C_37
   25  A    between atoms: C_28  and  C_48
   26  A    between atoms: C_32  and  C_35
   27  A    between atoms: S_33  and  N_44
   28  A    between atoms: C_37  and  C_42
   29  A    between atoms: C_43  and  C_50
                            x       y       z     vdW  Elec       q    Type
                         _______ _______ _______ _____ _____    ______ ____

>  <TORSDO>
F 29

$$$$
=
 OpenBabel11052412073D

 50 51  0  0  1  0  0  0  0  0999 V2000
  160.9080  204.5440  147.6960 C   0  0  1  0  0  3  0  0  0  0  0  0
  160.7640  205.8100  148.5580 C   0  0  1  0  0  3  0  0  0  0  0  0
  160.1340  205.5170  149.9150 C   0  0  0  0  0  1  0  0  0  0  0  0
  162.1280  206.4500  148.8170 C   0  0  0  0  0  2  0  0  0  0  0  0
  163.0870  208.4270  147.8990 F   0  0  0  0  0  0  0  0  0  0  0  0
  160.8810  208.4480  148.3750 F   0  0  0  0  0  0  0  0  0  0  0  0
  162.1190  207.9760  148.7770 C   0  0  0  0  0  0  0  0  0  0  0  0
  162.4470  208.5240  150.1580 C   0  0  0  0  0  2  0  0  0  0  0  0
  161.3580  208.2710  151.0890 N   0  0  0  0  0  2  0  0  0  0  0  0
  161.7350  208.8310  152.3130 N   0  0  0  0  0  2  0  0  0  0  0  0
  160.8470  209.9540  152.5580 C   0  0  0  0  0  2  0  0  0  0  0  0
  160.4220  208.8440  154.6130 O   0  0  0  0  0  0  0  0  0  0  0  0
  160.3490  209.9160  153.9550 C   0  0  0  0  0  0  0  0  0  0  0  0
  159.7870  211.0940  154.5400 N   0  0  0  0  0  2  0  0  0  0  0  0
  157.8200  211.1160  156.2950 O   0  0  0  0  0  0  0  0  0  0  0  0
  159.3200  211.1730  156.2080 S   0  0  0  0  0  0  0  0  0  0  0  0
  159.8920  212.7040  156.9160 C   0  0  0  0  0  1  0  0  0  0  0  0
  159.9040  210.0070  156.9660 O   0  0  0  0  0  0  0  0  0  0  0  0
  161.7890  204.7990  146.4700 C   0  0  0  0  0  2  0  0  0  0  0  0
  160.9820  204.7180  145.1870 C   0  0  0  0  0  2  0  0  0  0  0  0
  161.2100  205.9760  144.3620 C   0  0  0  0  0  2  0  0  0  0  0  0
  161.6280  205.6280  142.9670 C   0  0  0  0  0  3  0  0  0  0  0  0
  161.9890  206.5690  142.0960 C   0  0  0  0  0  3  0  0  0  0  0  0
  162.3870  206.1900  140.7090 C   0  0  0  0  0  2  0  0  0  0  0  0
  161.7970  207.1520  139.6920 C   0  0  0  0  0  2  0  0  0  0  0  0
  162.4630  208.5180  139.7720 C   0  0  0  0  0  2  0  0  0  0  0  0
  161.4370  209.6010  140.0540 C   0  0  0  0  0  2  0  0  0  0  0  0
  161.4450  212.1000  140.0510 C   0  0  0  0  0  0  0  0  0  0  0  0
  162.3190  213.2310  139.6320 C   0  0  0  0  0  3  0  0  0  0  0  0
  163.2950  211.1320  139.2670 O   0  0  0  0  0  0  0  0  0  0  0  0
  163.5780  212.5170  139.1210 C   0  0  0  0  0  3  0  0  0  0  0  0
  162.0340  210.9470  139.8010 C   0  0  0  0  0  0  0  0  0  0  0  0
  160.0510  212.2580  140.5570 C   0  0  0  0  0  2  0  0  0  0  0  0
  159.9100  213.5330  141.2450 N   0  0  0  0  0  2  0  0  0  0  0  0
  158.9030  213.3490  142.2770 C   0  0  0  0  0  2  0  0  0  0  0  0
  159.5400  213.4360  143.6560 C   0  0  0  0  0  2  0  0  0  0  0  0
  158.4770  213.7680  144.6900 C   0  0  0  0  0  2  0  0  0  0  0  0
  158.2490  214.2200  148.0070 C   0  0  0  0  0  2  0  0  0  0  0  0
  157.4960  212.5810  146.4640 C   0  0  0  0  0  2  0  0  0  0  0  0
  158.7660  213.0780  145.9410 N   0  0  0  0  0  0  0  0  0  0  0  0
  159.2580  214.0760  146.8870 C   0  0  0  0  0  2  0  0  0  0  0  0
  157.4050  212.9830  147.9160 C   0  0  0  0  0  2  0  0  0  0  0  0
  161.4950  203.5140  148.4870 O   0  0  0  0  0  0  0  0  0  0  0  0
  161.1510  201.3950  147.6200 O   0  0  0  0  0  0  0  0  0  0  0  0
  160.9770  202.2180  148.5590 C   0  0  0  0  0  0  0  0  0  0  0  0
  160.1850  201.8220  149.7550 C   0  0  0  0  0  2  0  0  0  0  0  0
  161.1090  201.5890  150.9340 C   0  0  0  0  0  2  0  0  0  0  0  0
  160.2630  203.1690  152.4890 O   0  0  0  0  0  1  0  0  0  0  0  0
  162.3590  203.6080  151.6800 O   0  0  0  0  0  0  0  0  0  0  0  0
  161.2170  202.8250  151.7500 C   0  0  0  0  0  0  0  0  0  0  0  0
  1 19  1  6  0  0  0
  1 43  1  0  0  0  0
  1  2  1  0  0  0  0
  2  4  1  0  0  0  0
  2  3  1  1  0  0  0
  5  7  1  0  0  0  0
  6  7  1  0  0  0  0
  7  4  1  0  0  0  0
  7  8  1  0  0  0  0
  8  9  1  0  0  0  0
  9 10  1  0  0  0  0
 10 11  1  0  0  0  0
 11 13  1  0  0  0  0
 13 14  1  0  0  0  0
 13 12  2  0  0  0  0
 14 16  1  0  0  0  0
 16 15  2  0  0  0  0
 16 17  1  0  0  0  0
 16 18  2  0  0  0  0
 20 19  1  0  0  0  0
 21 20  1  0  0  0  0
 22 21  1  0  0  0  0
 23 22  2  0  0  0  0
 24 23  1  0  0  0  0
 25 26  1  0  0  0  0
 25 24  1  0  0  0  0
 26 27  1  0  0  0  0
 28 33  1  0  0  0  0
 29 28  1  0  0  0  0
 30 32  1  0  0  0  0
 31 30  1  0  0  0  0
 31 29  2  0  0  0  0
 32 28  2  0  0  0  0
 32 27  1  0  0  0  0
 33 34  1  0  0  0  0
 34 35  1  0  0  0  0
 35 36  1  0  0  0  0
 36 37  1  0  0  0  0
 37 40  1  0  0  0  0
 39 42  1  0  0  0  0
 40 39  1  0  0  0  0
 40 41  1  0  0  0  0
 41 38  1  0  0  0  0
 42 38  1  0  0  0  0
 43 45  1  0  0  0  0
 44 45  2  0  0  0  0
 45 46  1  0  0  0  0
 46 47  1  0  0  0  0
 47 50  1  0  0  0  0
 49 50  2  0  0  0  0
 50 48  1  0  0  0  0
M  END
>  <MODEL>
9

>  <REMARK>
 VINA RESULT:      -4.0      3.894     11.434
  Name = 
  29 active torsions:
  status: ('A' for Active; 'I' for Inactive)
    1  A    between atoms: C_2  and  N_22
    2  A    between atoms: C_2  and  C_46
    3  A    between atoms: N_3  and  C_10
    4  A    between atoms: N_3  and  N_27
    5  A    between atoms: C_5  and  C_14
    6  A    between atoms: C_10  and  C_50
    7  A    between atoms: C_11  and  C_30
    8  A    between atoms: C_11  and  C_41
    9  A    between atoms: C_12  and  C_20
   10  A    between atoms: C_13  and  C_17
   11  A    between atoms: C_13  and  C_47
   12  A    between atoms: C_14  and  C_48
   13  A    between atoms: C_15  and  C_30
   14  A    between atoms: C_15  and  C_35
   15  A    between atoms: C_17  and  C_36
   16  A    between atoms: O_18  and  C_19
   17  A    between atoms: O_18  and  C_36
   18  A    between atoms: C_19  and  C_21
   19  A    between atoms: C_19  and  C_28
   20  A    between atoms: C_20  and  N_22
   21  A    between atoms: C_21  and  C_43
   22  A    between atoms: C_26  and  N_29
   23  A    between atoms: C_26  and  C_46
   24  A    between atoms: N_27  and  C_37
   25  A    between atoms: C_28  and  C_48
   26  A    between atoms: C_32  and  C_35
   27  A    between atoms: S_33  and  N_44
   28  A    between atoms: C_37  and  C_42
   29  A    between atoms: C_43  and  C_50
                            x       y       z     vdW  Elec       q    Type
                         _______ _______ _______ _____ _____    ______ ____

>  <TORSDO>
F 29

$$$$
