=
 OpenBabel11042423143D

 35 39  0  0  1  0  0  0  0  0999 V2000
  159.5940  213.2390  151.0770 C   0  0  0  0  0  0  0  0  0  0  0  0
  160.1830  212.0220  151.4370 C   0  0  0  0  0  3  0  0  0  0  0  0
  158.9640  214.0100  152.0610 C   0  0  0  0  0  3  0  0  0  0  0  0
  159.5270  212.3560  153.7520 C   0  0  0  0  0  0  0  0  0  0  0  0
  160.1650  211.5680  152.7650 C   0  0  0  0  0  0  0  0  0  0  0  0
  158.9250  213.5690  153.3840 C   0  0  0  0  0  3  0  0  0  0  0  0
  158.1990  213.4570  157.2610 N   0  0  0  0  0  0  0  0  0  0  0  0
  160.2010  212.7120  156.1250 C   0  0  0  0  0  3  0  0  0  0  0  0
  159.6220  213.4570  157.0740 C   0  0  0  0  0  3  0  0  0  0  0  0
  159.3970  211.8650  155.1690 C   0  0  1  0  0  3  0  0  0  0  0  0
  157.4100  212.6710  156.5910 C   0  0  0  0  0  0  0  0  0  0  0  0
  157.9530  211.7540  155.5770 C   0  0  0  0  0  0  0  0  0  0  0  0
  155.9980  212.7160  156.7910 N   0  0  0  0  0  0  0  0  0  0  0  0
  155.7510  210.7270  155.3660 C   0  0  0  0  0  2  0  0  0  0  0  0
  157.1600  210.9080  154.9910 N   0  0  0  0  0  0  0  0  0  0  0  0
  155.2130  211.8580  156.2110 C   0  0  0  0  0  3  0  0  0  0  0  0
  160.7620  209.2570  152.0470 C   0  0  0  0  0  2  0  0  0  0  0  0
  160.9310  207.2990  153.6010 C   0  0  2  0  0  3  0  0  0  0  0  0
  160.9460  209.0530  155.1900 C   0  0  0  0  0  2  0  0  0  0  0  0
  160.7740  210.3050  153.0800 N   0  0  0  0  0  0  0  0  0  0  0  0
  161.5240  210.1720  154.3320 C   0  0  0  0  0  2  0  0  0  0  0  0
  161.5560  208.0050  152.4080 C   0  0  0  0  0  2  0  0  0  0  0  0
  161.5500  207.7780  154.8300 N   0  0  0  0  0  2  0  0  0  0  0  0
  161.1660  205.8070  153.4680 C   0  0  0  0  0  2  0  0  0  0  0  0
  161.8730  205.5360  152.2640 O   0  0  0  0  0  0  0  0  0  0  0  0
  160.9560  202.2220  150.8480 C   0  0  0  0  0  3  0  0  0  0  0  0
  161.4810  204.5380  151.3680 C   0  0  0  0  0  0  0  0  0  0  0  0
  160.8240  203.9110  149.1180 C   0  0  0  0  0  3  0  0  0  0  0  0
  160.6930  202.5800  149.5220 C   0  0  0  0  0  3  0  0  0  0  0  0
  161.2180  204.8860  150.0390 C   0  0  0  0  0  3  0  0  0  0  0  0
  161.3480  203.1980  151.7690 C   0  0  0  0  0  3  0  0  0  0  0  0
  160.8170  213.7820  147.4540 C   0  0  0  0  0  1  0  0  0  0  0  0
  160.7350  213.3500  148.8390 N   0  0  0  0  0  2  0  0  0  0  0  0
  159.6320  213.7010  149.6790 C   0  0  0  0  0  0  0  0  0  0  0  0
  158.6900  214.4050  149.2200 O   0  0  0  0  0  0  0  0  0  0  0  0
  1  2  2  0  0  0  0
  1  3  1  0  0  0  0
  2  5  1  0  0  0  0
  3  6  2  0  0  0  0
  5 20  1  0  0  0  0
  5  4  2  0  0  0  0
  6  4  1  0  0  0  0
  8  9  2  0  0  0  0
  9  7  1  0  0  0  0
 10  4  1  6  0  0  0
 10 12  1  0  0  0  0
 10  8  1  0  0  0  0
 11 13  1  0  0  0  0
 11  7  2  0  0  0  0
 12 11  1  0  0  0  0
 14 16  1  0  0  0  0
 15 14  1  0  0  0  0
 15 12  2  0  0  0  0
 16 13  2  0  0  0  0
 17 22  1  0  0  0  0
 17 20  1  0  0  0  0
 18 24  1  6  0  0  0
 18 23  1  0  0  0  0
 20 21  1  0  0  0  0
 21 19  1  0  0  0  0
 22 18  1  0  0  0  0
 23 19  1  0  0  0  0
 25 24  1  0  0  0  0
 26 31  1  0  0  0  0
 27 31  2  0  0  0  0
 27 25  1  0  0  0  0
 28 29  1  0  0  0  0
 28 30  2  0  0  0  0
 29 26  2  0  0  0  0
 30 27  1  0  0  0  0
 32 33  1  0  0  0  0
 33 34  1  0  0  0  0
 34  1  1  0  0  0  0
 35 34  2  0  0  0  0
M  END
>  <MODEL>
1

>  <REMARK>
 VINA RESULT:      -7.7      0.000      0.000
  Name = 
  6 active torsions:
  status: ('A' for Active; 'I' for Inactive)
    1  A    between atoms: C_3  and  O_24
    2  A    between atoms: C_6  and  C_21
    3  A    between atoms: C_10  and  C_18
    4  A    between atoms: C_12  and  C_23
    5  A    between atoms: N_14  and  C_26
    6  A    between atoms: C_18  and  O_24
                            x       y       z     vdW  Elec       q    Type
                         _______ _______ _______ _____ _____    ______ ____

>  <TORSDO>
F 6

$$$$
=
 OpenBabel11042423143D

 35 39  0  0  1  0  0  0  0  0999 V2000
  161.3450  211.6980  150.0070 C   0  0  0  0  0  0  0  0  0  0  0  0
  161.6150  210.3950  150.4390 C   0  0  0  0  0  3  0  0  0  0  0  0
  160.7490  212.6020  150.8940 C   0  0  0  0  0  3  0  0  0  0  0  0
  160.7140  210.9050  152.6370 C   0  0  0  0  0  0  0  0  0  0  0  0
  161.3130  209.9830  151.7460 C   0  0  0  0  0  0  0  0  0  0  0  0
  160.4310  212.2070  152.1940 C   0  0  0  0  0  3  0  0  0  0  0  0
  160.2640  212.2970  156.2630 N   0  0  0  0  0  0  0  0  0  0  0  0
  161.4180  210.5810  155.0050 C   0  0  0  0  0  3  0  0  0  0  0  0
  161.3950  211.4440  156.0280 C   0  0  0  0  0  3  0  0  0  0  0  0
  160.2820  210.4820  154.0150 C   0  0  1  0  0  3  0  0  0  0  0  0
  159.1730  212.2130  155.5620 C   0  0  0  0  0  0  0  0  0  0  0  0
  159.0630  211.2420  154.4630 C   0  0  0  0  0  0  0  0  0  0  0  0
  158.0780  213.0930  155.8140 N   0  0  0  0  0  0  0  0  0  0  0  0
  156.6970  211.7920  154.2490 C   0  0  0  0  0  2  0  0  0  0  0  0
  157.9300  211.1060  153.8410 N   0  0  0  0  0  0  0  0  0  0  0  0
  156.9450  212.9430  155.1970 C   0  0  0  0  0  3  0  0  0  0  0  0
  162.0840  207.7030  151.1020 C   0  0  0  0  0  2  0  0  0  0  0  0
  161.3090  205.5900  152.2040 C   0  0  2  0  0  3  0  0  0  0  0  0
  160.5680  207.1580  153.8150 C   0  0  0  0  0  2  0  0  0  0  0  0
  161.6000  208.6300  152.1370 N   0  0  0  0  0  0  0  0  0  0  0  0
  161.5670  208.2800  153.5590 C   0  0  0  0  0  2  0  0  0  0  0  0
  162.5030  206.3330  151.6290 C   0  0  0  0  0  2  0  0  0  0  0  0
  161.2070  205.8620  153.6320 N   0  0  0  0  0  2  0  0  0  0  0  0
  161.5040  204.1020  151.9890 C   0  0  0  0  0  2  0  0  0  0  0  0
  160.4920  203.6030  151.1230 O   0  0  0  0  0  0  0  0  0  0  0  0
  160.8150  201.5710  148.0250 C   0  0  0  0  0  3  0  0  0  0  0  0
  160.7470  203.2300  149.8000 C   0  0  0  0  0  0  0  0  0  0  0  0
  161.4760  203.8550  147.5720 C   0  0  0  0  0  3  0  0  0  0  0  0
  161.2770  202.5430  147.1340 C   0  0  0  0  0  3  0  0  0  0  0  0
  161.2110  204.1970  148.9020 C   0  0  0  0  0  3  0  0  0  0  0  0
  160.5490  201.9130  149.3550 C   0  0  0  0  0  3  0  0  0  0  0  0
  160.9120  212.8490  146.3450 C   0  0  0  0  0  1  0  0  0  0  0  0
  160.6340  212.4370  147.7110 N   0  0  0  0  0  2  0  0  0  0  0  0
  161.6770  212.1110  148.6330 C   0  0  0  0  0  0  0  0  0  0  0  0
  162.8840  212.1780  148.2680 O   0  0  0  0  0  0  0  0  0  0  0  0
  1  2  2  0  0  0  0
  1  3  1  0  0  0  0
  2  5  1  0  0  0  0
  3  6  2  0  0  0  0
  5 20  1  0  0  0  0
  5  4  2  0  0  0  0
  6  4  1  0  0  0  0
  8  9  2  0  0  0  0
  9  7  1  0  0  0  0
 10  4  1  6  0  0  0
 10 12  1  0  0  0  0
 10  8  1  0  0  0  0
 11 13  1  0  0  0  0
 11  7  2  0  0  0  0
 12 11  1  0  0  0  0
 14 16  1  0  0  0  0
 15 14  1  0  0  0  0
 15 12  2  0  0  0  0
 16 13  2  0  0  0  0
 17 22  1  0  0  0  0
 17 20  1  0  0  0  0
 18 24  1  1  0  0  0
 18 23  1  0  0  0  0
 20 21  1  0  0  0  0
 21 19  1  0  0  0  0
 22 18  1  0  0  0  0
 23 19  1  0  0  0  0
 25 24  1  0  0  0  0
 26 31  1  0  0  0  0
 27 25  1  0  0  0  0
 28 30  2  0  0  0  0
 29 28  1  0  0  0  0
 29 26  2  0  0  0  0
 30 27  1  0  0  0  0
 31 27  2  0  0  0  0
 32 33  1  0  0  0  0
 33 34  1  0  0  0  0
 34  1  1  0  0  0  0
 35 34  2  0  0  0  0
M  END
>  <MODEL>
2

>  <REMARK>
 VINA RESULT:      -6.7      1.750      2.369
  Name = 
  6 active torsions:
  status: ('A' for Active; 'I' for Inactive)
    1  A    between atoms: C_3  and  O_24
    2  A    between atoms: C_6  and  C_21
    3  A    between atoms: C_10  and  C_18
    4  A    between atoms: C_12  and  C_23
    5  A    between atoms: N_14  and  C_26
    6  A    between atoms: C_18  and  O_24
                            x       y       z     vdW  Elec       q    Type
                         _______ _______ _______ _____ _____    ______ ____

>  <TORSDO>
F 6

$$$$
=
 OpenBabel11042423143D

 35 39  0  0  1  0  0  0  0  0999 V2000
  159.0830  212.6710  152.7420 C   0  0  0  0  0  0  0  0  0  0  0  0
  159.8160  211.8230  151.9040 C   0  0  0  0  0  3  0  0  0  0  0  0
  159.3410  212.6620  154.1170 C   0  0  0  0  0  3  0  0  0  0  0  0
  161.0670  210.9770  153.8070 C   0  0  0  0  0  0  0  0  0  0  0  0
  160.8120  210.9770  152.4150 C   0  0  0  0  0  0  0  0  0  0  0  0
  160.3190  211.8180  154.6450 C   0  0  0  0  0  3  0  0  0  0  0  0
  162.2340  209.5630  157.2600 N   0  0  0  0  0  0  0  0  0  0  0  0
  163.0460  210.7300  155.3020 C   0  0  0  0  0  3  0  0  0  0  0  0
  163.0970  210.5170  156.6220 C   0  0  0  0  0  3  0  0  0  0  0  0
  162.0550  210.0170  154.4120 C   0  0  1  0  0  3  0  0  0  0  0  0
  161.4330  208.7920  156.5880 C   0  0  0  0  0  0  0  0  0  0  0  0
  161.3560  208.8900  155.1220 C   0  0  0  0  0  0  0  0  0  0  0  0
  160.5760  207.8700  157.2610 N   0  0  0  0  0  0  0  0  0  0  0  0
  159.9440  206.9020  155.0900 C   0  0  0  0  0  2  0  0  0  0  0  0
  160.6230  208.0430  154.4630 N   0  0  0  0  0  0  0  0  0  0  0  0
  159.8550  207.0190  156.5940 C   0  0  0  0  0  3  0  0  0  0  0  0
  161.5190  210.4590  150.0820 C   0  0  0  0  0  2  0  0  0  0  0  0
  161.9310  208.1450  149.2160 C   0  0  2  0  0  3  0  0  0  0  0  0
  161.9320  207.6920  151.5390 C   0  0  0  0  0  2  0  0  0  0  0  0
  161.5290  210.1170  151.5130 N   0  0  0  0  0  0  0  0  0  0  0  0
  162.3700  209.0530  152.0660 C   0  0  0  0  0  2  0  0  0  0  0  0
  162.4210  209.5830  149.2180 C   0  0  0  0  0  2  0  0  0  0  0  0
  162.5980  207.4010  150.2770 N   0  0  0  0  0  2  0  0  0  0  0  0
  162.2600  207.5140  147.8770 C   0  0  0  0  0  2  0  0  0  0  0  0
  161.1760  206.7000  147.4480 O   0  0  0  0  0  0  0  0  0  0  0  0
  161.2900  203.0860  146.5820 C   0  0  0  0  0  3  0  0  0  0  0  0
  161.1860  205.3080  147.5620 C   0  0  0  0  0  0  0  0  0  0  0  0
  161.1060  203.3420  148.9820 C   0  0  0  0  0  3  0  0  0  0  0  0
  161.2020  202.5190  147.8570 C   0  0  0  0  0  3  0  0  0  0  0  0
  161.0980  204.7320  148.8340 C   0  0  0  0  0  3  0  0  0  0  0  0
  161.2820  204.4760  146.4340 C   0  0  0  0  0  3  0  0  0  0  0  0
  156.7510  214.3880  150.1850 C   0  0  0  0  0  1  0  0  0  0  0  0
  157.7630  213.5320  150.7820 N   0  0  0  0  0  2  0  0  0  0  0  0
  158.0470  213.5570  152.1840 C   0  0  0  0  0  0  0  0  0  0  0  0
  157.4090  214.3400  152.9420 O   0  0  0  0  0  0  0  0  0  0  0  0
  1  3  1  0  0  0  0
  2  5  1  0  0  0  0
  2  1  2  0  0  0  0
  3  6  2  0  0  0  0
  4  6  1  0  0  0  0
  5  4  2  0  0  0  0
  8  9  2  0  0  0  0
  9  7  1  0  0  0  0
 10  4  1  1  0  0  0
 10 12  1  0  0  0  0
 10  8  1  0  0  0  0
 11  7  2  0  0  0  0
 11 13  1  0  0  0  0
 12 11  1  0  0  0  0
 14 16  1  0  0  0  0
 15 14  1  0  0  0  0
 15 12  2  0  0  0  0
 16 13  2  0  0  0  0
 17 20  1  0  0  0  0
 18 24  1  6  0  0  0
 18 22  1  0  0  0  0
 18 23  1  0  0  0  0
 19 21  1  0  0  0  0
 20 21  1  0  0  0  0
 20  5  1  0  0  0  0
 22 17  1  0  0  0  0
 23 19  1  0  0  0  0
 25 27  1  0  0  0  0
 25 24  1  0  0  0  0
 26 29  1  0  0  0  0
 27 30  2  0  0  0  0
 29 28  2  0  0  0  0
 30 28  1  0  0  0  0
 31 26  2  0  0  0  0
 31 27  1  0  0  0  0
 32 33  1  0  0  0  0
 33 34  1  0  0  0  0
 34  1  1  0  0  0  0
 34 35  2  0  0  0  0
M  END
>  <MODEL>
3

>  <REMARK>
 VINA RESULT:      -6.7      2.858      4.039
  Name = 
  6 active torsions:
  status: ('A' for Active; 'I' for Inactive)
    1  A    between atoms: C_3  and  O_24
    2  A    between atoms: C_6  and  C_21
    3  A    between atoms: C_10  and  C_18
    4  A    between atoms: C_12  and  C_23
    5  A    between atoms: N_14  and  C_26
    6  A    between atoms: C_18  and  O_24
                            x       y       z     vdW  Elec       q    Type
                         _______ _______ _______ _____ _____    ______ ____

>  <TORSDO>
F 6

$$$$
=
 OpenBabel11042423143D

 35 39  0  0  1  0  0  0  0  0999 V2000
  161.2330  206.9300  151.5590 C   0  0  0  0  0  0  0  0  0  0  0  0
  161.4390  208.1050  150.8260 C   0  0  0  0  0  3  0  0  0  0  0  0
  160.8190  207.0210  152.8920 C   0  0  0  0  0  3  0  0  0  0  0  0
  160.8030  209.4490  152.7470 C   0  0  0  0  0  0  0  0  0  0  0  0
  161.2250  209.3680  151.3980 C   0  0  0  0  0  0  0  0  0  0  0  0
  160.6130  208.2690  153.4820 C   0  0  0  0  0  3  0  0  0  0  0  0
  159.3570  211.0710  155.9980 N   0  0  0  0  0  0  0  0  0  0  0  0
  159.2040  211.1670  153.5840 C   0  0  0  0  0  3  0  0  0  0  0  0
  158.6190  211.2770  154.7830 C   0  0  0  0  0  3  0  0  0  0  0  0
  160.6560  210.7800  153.4330 C   0  0  1  0  0  3  0  0  0  0  0  0
  160.6390  210.8640  156.0040 C   0  0  0  0  0  0  0  0  0  0  0  0
  161.3940  210.8040  154.7440 C   0  0  0  0  0  0  0  0  0  0  0  0
  161.3340  210.6440  157.2320 N   0  0  0  0  0  0  0  0  0  0  0  0
  163.4710  210.7470  156.0200 C   0  0  0  0  0  2  0  0  0  0  0  0
  162.6890  210.6960  154.7780 N   0  0  0  0  0  0  0  0  0  0  0  0
  162.6290  210.5500  157.2600 C   0  0  0  0  0  3  0  0  0  0  0  0
  160.4380  211.6010  150.6240 C   0  0  0  0  0  2  0  0  0  0  0  0
  160.9920  212.5930  148.3900 C   0  0  2  0  0  3  0  0  0  0  0  0
  162.6060  210.8620  148.4540 C   0  0  0  0  0  2  0  0  0  0  0  0
  161.4600  210.5430  150.6060 N   0  0  0  0  0  0  0  0  0  0  0  0
  162.7650  210.7150  149.9620 C   0  0  0  0  0  2  0  0  0  0  0  0
  160.8330  212.8720  149.8760 C   0  0  0  0  0  2  0  0  0  0  0  0
  162.3820  212.2580  148.1040 N   0  0  0  0  0  2  0  0  0  0  0  0
  160.6040  213.8350  147.6110 C   0  0  0  0  0  2  0  0  0  0  0  0
  161.5020  214.0230  146.5250 O   0  0  0  0  0  0  0  0  0  0  0  0
  159.9600  212.2170  143.6630 C   0  0  0  0  0  3  0  0  0  0  0  0
  161.3310  213.3950  145.2880 C   0  0  0  0  0  0  0  0  0  0  0  0
  162.2800  212.6960  143.1670 C   0  0  0  0  0  3  0  0  0  0  0  0
  161.0520  212.1460  142.7930 C   0  0  0  0  0  3  0  0  0  0  0  0
  162.4190  213.3180  144.4120 C   0  0  0  0  0  3  0  0  0  0  0  0
  160.0980  212.8400  144.9070 C   0  0  0  0  0  3  0  0  0  0  0  0
  161.2110  204.0900  148.9400 C   0  0  0  0  0  1  0  0  0  0  0  0
  161.0140  205.3720  149.5970 N   0  0  0  0  0  2  0  0  0  0  0  0
  161.4570  205.6140  150.9350 C   0  0  0  0  0  0  0  0  0  0  0  0
  162.0390  204.7000  151.5820 O   0  0  0  0  0  0  0  0  0  0  0  0
  1  3  1  0  0  0  0
  2  5  1  0  0  0  0
  2  1  2  0  0  0  0
  3  6  2  0  0  0  0
  4  6  1  0  0  0  0
  5  4  2  0  0  0  0
  7 11  2  0  0  0  0
  8  9  2  0  0  0  0
  9  7  1  0  0  0  0
 10  4  1  1  0  0  0
 10  8  1  0  0  0  0
 10 12  1  0  0  0  0
 11 13  1  0  0  0  0
 12 15  2  0  0  0  0
 12 11  1  0  0  0  0
 13 16  2  0  0  0  0
 14 16  1  0  0  0  0
 15 14  1  0  0  0  0
 18 24  1  6  0  0  0
 18 22  1  0  0  0  0
 19 21  1  0  0  0  0
 20 17  1  0  0  0  0
 20  5  1  0  0  0  0
 21 20  1  0  0  0  0
 22 17  1  0  0  0  0
 23 18  1  0  0  0  0
 23 19  1  0  0  0  0
 25 24  1  0  0  0  0
 26 31  1  0  0  0  0
 27 25  1  0  0  0  0
 28 30  2  0  0  0  0
 29 28  1  0  0  0  0
 29 26  2  0  0  0  0
 30 27  1  0  0  0  0
 31 27  2  0  0  0  0
 32 33  1  0  0  0  0
 33 34  1  0  0  0  0
 34  1  1  0  0  0  0
 34 35  2  0  0  0  0
M  END
>  <MODEL>
4

>  <REMARK>
 VINA RESULT:      -5.9      2.608      7.477
  Name = 
  6 active torsions:
  status: ('A' for Active; 'I' for Inactive)
    1  A    between atoms: C_3  and  O_24
    2  A    between atoms: C_6  and  C_21
    3  A    between atoms: C_10  and  C_18
    4  A    between atoms: C_12  and  C_23
    5  A    between atoms: N_14  and  C_26
    6  A    between atoms: C_18  and  O_24
                            x       y       z     vdW  Elec       q    Type
                         _______ _______ _______ _____ _____    ______ ____

>  <TORSDO>
F 6

$$$$
=
 OpenBabel11042423143D

 35 39  0  0  1  0  0  0  0  0999 V2000
  157.8620  213.7650  150.9000 C   0  0  0  0  0  0  0  0  0  0  0  0
  158.7540  212.7880  151.3560 C   0  0  0  0  0  3  0  0  0  0  0  0
  157.0710  214.4530  151.8270 C   0  0  0  0  0  3  0  0  0  0  0  0
  158.0770  213.2000  153.6520 C   0  0  0  0  0  0  0  0  0  0  0  0
  158.8790  212.4960  152.7230 C   0  0  0  0  0  0  0  0  0  0  0  0
  157.1730  214.1680  153.1890 C   0  0  0  0  0  3  0  0  0  0  0  0
  155.8700  213.3590  156.8760 N   0  0  0  0  0  0  0  0  0  0  0  0
  157.9970  214.0880  155.9800 C   0  0  0  0  0  3  0  0  0  0  0  0
  156.9420  214.3090  156.7720 C   0  0  0  0  0  3  0  0  0  0  0  0
  158.1060  212.8530  155.1170 C   0  0  1  0  0  3  0  0  0  0  0  0
  155.9090  212.2010  156.2870 C   0  0  0  0  0  0  0  0  0  0  0  0
  157.0610  211.8240  155.4540 C   0  0  0  0  0  0  0  0  0  0  0  0
  154.8140  211.2930  156.3980 N   0  0  0  0  0  0  0  0  0  0  0  0
  156.1580  209.5660  155.2740 C   0  0  0  0  0  2  0  0  0  0  0  0
  157.1240  210.6250  154.9570 N   0  0  0  0  0  0  0  0  0  0  0  0
  154.8910  210.0910  155.9090 C   0  0  0  0  0  3  0  0  0  0  0  0
  159.8600  210.2360  152.3470 C   0  0  0  0  0  2  0  0  0  0  0  0
  160.7200  208.7530  154.1740 C   0  0  2  0  0  3  0  0  0  0  0  0
  160.5950  210.7950  155.3640 C   0  0  0  0  0  2  0  0  0  0  0  0
  159.8030  211.4760  153.1380 N   0  0  0  0  0  0  0  0  0  0  0  0
  160.7570  211.7760  154.2090 C   0  0  0  0  0  2  0  0  0  0  0  0
  160.9660  209.2710  152.7660 C   0  0  0  0  0  2  0  0  0  0  0  0
  161.4070  209.6070  155.1350 N   0  0  0  0  0  2  0  0  0  0  0  0
  161.2630  207.3410  154.2800 C   0  0  0  0  0  2  0  0  0  0  0  0
  161.9420  206.9940  153.0800 O   0  0  0  0  0  0  0  0  0  0  0  0
  160.5870  205.3900  150.0110 C   0  0  0  0  0  3  0  0  0  0  0  0
  161.4550  206.0350  152.1880 C   0  0  0  0  0  0  0  0  0  0  0  0
  160.8650  203.7230  151.7450 C   0  0  0  0  0  3  0  0  0  0  0  0
  160.4850  204.0650  150.4450 C   0  0  0  0  0  3  0  0  0  0  0  0
  161.3490  204.7060  152.6130 C   0  0  0  0  0  3  0  0  0  0  0  0
  161.0710  206.3730  150.8790 C   0  0  0  0  0  3  0  0  0  0  0  0
  158.8300  214.1830  147.1840 C   0  0  0  0  0  1  0  0  0  0  0  0
  158.8890  213.9030  148.6090 N   0  0  0  0  0  2  0  0  0  0  0  0
  157.7520  214.0610  149.4610 C   0  0  0  0  0  0  0  0  0  0  0  0
  156.6530  214.4530  148.9790 O   0  0  0  0  0  0  0  0  0  0  0  0
  1  2  2  0  0  0  0
  1  3  1  0  0  0  0
  2  5  1  0  0  0  0
  3  6  2  0  0  0  0
  5 20  1  0  0  0  0
  5  4  2  0  0  0  0
  6  4  1  0  0  0  0
  8  9  2  0  0  0  0
  9  7  1  0  0  0  0
 10  4  1  6  0  0  0
 10 12  1  0  0  0  0
 10  8  1  0  0  0  0
 11 13  1  0  0  0  0
 11  7  2  0  0  0  0
 12 11  1  0  0  0  0
 14 16  1  0  0  0  0
 15 14  1  0  0  0  0
 15 12  2  0  0  0  0
 16 13  2  0  0  0  0
 17 22  1  0  0  0  0
 17 20  1  0  0  0  0
 18 24  1  6  0  0  0
 18 23  1  0  0  0  0
 20 21  1  0  0  0  0
 21 19  1  0  0  0  0
 22 18  1  0  0  0  0
 23 19  1  0  0  0  0
 25 24  1  0  0  0  0
 26 29  2  0  0  0  0
 26 31  1  0  0  0  0
 27 30  1  0  0  0  0
 27 25  1  0  0  0  0
 28 30  2  0  0  0  0
 29 28  1  0  0  0  0
 31 27  2  0  0  0  0
 32 33  1  0  0  0  0
 33 34  1  0  0  0  0
 34  1  1  0  0  0  0
 35 34  2  0  0  0  0
M  END
>  <MODEL>
5

>  <REMARK>
 VINA RESULT:      -5.3      1.472      1.965
  Name = 
  6 active torsions:
  status: ('A' for Active; 'I' for Inactive)
    1  A    between atoms: C_3  and  O_24
    2  A    between atoms: C_6  and  C_21
    3  A    between atoms: C_10  and  C_18
    4  A    between atoms: C_12  and  C_23
    5  A    between atoms: N_14  and  C_26
    6  A    between atoms: C_18  and  O_24
                            x       y       z     vdW  Elec       q    Type
                         _______ _______ _______ _____ _____    ______ ____

>  <TORSDO>
F 6

$$$$
=
 OpenBabel11042423143D

 35 39  0  0  1  0  0  0  0  0999 V2000
  161.5500  207.6390  149.5870 C   0  0  0  0  0  0  0  0  0  0  0  0
  161.7040  208.8900  148.9770 C   0  0  0  0  0  3  0  0  0  0  0  0
  161.2640  207.5770  150.9550 C   0  0  0  0  0  3  0  0  0  0  0  0
  161.2690  210.0050  151.0910 C   0  0  0  0  0  0  0  0  0  0  0  0
  161.5620  210.0790  149.7090 C   0  0  0  0  0  0  0  0  0  0  0  0
  161.1310  208.7480  151.7010 C   0  0  0  0  0  3  0  0  0  0  0  0
  158.9700  211.8360  153.6700 N   0  0  0  0  0  0  0  0  0  0  0  0
  160.0550  212.1370  151.5270 C   0  0  0  0  0  3  0  0  0  0  0  0
  159.0210  212.3790  152.3410 C   0  0  0  0  0  3  0  0  0  0  0  0
  161.2060  211.2490  151.9360 C   0  0  1  0  0  3  0  0  0  0  0  0
  159.9580  211.1680  154.1850 C   0  0  0  0  0  0  0  0  0  0  0  0
  161.1770  210.9120  153.4020 C   0  0  0  0  0  0  0  0  0  0  0  0
  159.8610  210.6270  155.5020 N   0  0  0  0  0  0  0  0  0  0  0  0
  162.2380  210.0040  155.4020 C   0  0  0  0  0  2  0  0  0  0  0  0
  162.1890  210.3280  153.9700 N   0  0  0  0  0  0  0  0  0  0  0  0
  160.8820  210.0550  156.0670 C   0  0  0  0  0  3  0  0  0  0  0  0
  160.5440  212.0110  148.5090 C   0  0  0  0  0  2  0  0  0  0  0  0
  161.7060  213.3310  146.7240 C   0  0  2  0  0  3  0  0  0  0  0  0
  163.5720  212.2030  147.6440 C   0  0  0  0  0  2  0  0  0  0  0  0
  161.7410  211.3370  149.0380 N   0  0  0  0  0  0  0  0  0  0  0  0
  163.0610  211.9730  149.0610 C   0  0  0  0  0  2  0  0  0  0  0  0
  160.8030  213.4050  147.9440 C   0  0  0  0  0  2  0  0  0  0  0  0
  163.0960  213.4820  147.1370 N   0  0  0  0  0  2  0  0  0  0  0  0
  161.3400  214.4530  145.7720 C   0  0  0  0  0  2  0  0  0  0  0  0
  160.4500  213.9680  144.7750 O   0  0  0  0  0  0  0  0  0  0  0  0
  162.5340  212.6920  141.9720 C   0  0  0  0  0  3  0  0  0  0  0  0
  160.8830  213.2210  143.6760 C   0  0  0  0  0  0  0  0  0  0  0  0
  160.4570  211.4530  142.0700 C   0  0  0  0  0  3  0  0  0  0  0  0
  161.6970  211.6900  141.4720 C   0  0  0  0  0  3  0  0  0  0  0  0
  160.0510  212.2180  143.1680 C   0  0  0  0  0  3  0  0  0  0  0  0
  162.1300  213.4550  143.0710 C   0  0  0  0  0  3  0  0  0  0  0  0
  161.2320  203.9390  148.5240 C   0  0  0  0  0  1  0  0  0  0  0  0
  161.1150  205.1830  149.2660 N   0  0  0  0  0  2  0  0  0  0  0  0
  161.6960  206.4030  148.7980 C   0  0  0  0  0  0  0  0  0  0  0  0
  162.3320  206.4210  147.7080 O   0  0  0  0  0  0  0  0  0  0  0  0
  1  3  1  0  0  0  0
  2  1  2  0  0  0  0
  2  5  1  0  0  0  0
  3  6  2  0  0  0  0
  4  6  1  0  0  0  0
  5  4  2  0  0  0  0
  7 11  2  0  0  0  0
  8 10  1  0  0  0  0
  8  9  2  0  0  0  0
  9  7  1  0  0  0  0
 10  4  1  6  0  0  0
 10 12  1  0  0  0  0
 11 13  1  0  0  0  0
 12 15  2  0  0  0  0
 12 11  1  0  0  0  0
 13 16  2  0  0  0  0
 14 16  1  0  0  0  0
 15 14  1  0  0  0  0
 17 20  1  0  0  0  0
 18 24  1  6  0  0  0
 18 23  1  0  0  0  0
 18 22  1  0  0  0  0
 19 21  1  0  0  0  0
 20 21  1  0  0  0  0
 20  5  1  0  0  0  0
 22 17  1  0  0  0  0
 23 19  1  0  0  0  0
 25 24  1  0  0  0  0
 26 31  1  0  0  0  0
 27 25  1  0  0  0  0
 28 30  2  0  0  0  0
 29 26  2  0  0  0  0
 29 28  1  0  0  0  0
 30 27  1  0  0  0  0
 31 27  2  0  0  0  0
 32 33  1  0  0  0  0
 34 33  1  0  0  0  0
 34  1  1  0  0  0  0
 35 34  2  0  0  0  0
M  END
>  <MODEL>
6

>  <REMARK>
 VINA RESULT:      -4.8      3.182      7.928
  Name = 
  6 active torsions:
  status: ('A' for Active; 'I' for Inactive)
    1  A    between atoms: C_3  and  O_24
    2  A    between atoms: C_6  and  C_21
    3  A    between atoms: C_10  and  C_18
    4  A    between atoms: C_12  and  C_23
    5  A    between atoms: N_14  and  C_26
    6  A    between atoms: C_18  and  O_24
                            x       y       z     vdW  Elec       q    Type
                         _______ _______ _______ _____ _____    ______ ____

>  <TORSDO>
F 6

$$$$
