=
 OpenBabel11042422413D

 66 71  0  0  1  0  0  0  0  0999 V2000
  162.0470  211.8510  150.3530 C   0  0  0  0  0  1  0  0  0  0  0  0
  159.1290  213.6710  147.3990 C   0  0  1  0  0  3  0  0  0  0  0  0
  160.7820  211.8330  149.4990 C   0  0  2  0  0  3  0  0  0  0  0  0
  159.3550  212.4560  146.4850 C   0  0  2  0  0  3  0  0  0  0  0  0
  158.1010  214.4530  146.8770 O   0  0  0  0  0  1  0  0  0  0  0  0
  158.7730  213.2710  148.8220 C   0  0  0  0  0  2  0  0  0  0  0  0
  161.1590  211.5410  148.0320 C   0  0  2  0  0  3  0  0  0  0  0  0
  160.0340  213.1720  149.6800 C   0  0  1  0  0  3  0  0  0  0  0  0
  159.9270  211.2210  147.1890 C   0  0  0  0  0  2  0  0  0  0  0  0
  159.6600  212.4510  143.9520 N   0  0  0  0  0  2  0  0  0  0  0  0
  161.2610  213.3850  145.3880 O   0  0  0  0  0  0  0  0  0  0  0  0
  160.1530  212.7930  145.2550 C   0  0  0  0  0  0  0  0  0  0  0  0
  161.7400  211.7820  142.2230 S   0  0  0  0  0  0  0  0  0  0  0  0
  160.3550  212.6120  142.7070 C   0  0  0  0  0  0  0  0  0  0  0  0
  159.9460  213.4590  141.6750 C   0  0  0  0  0  0  0  0  0  0  0  0
  160.7770  213.3960  140.5460 C   0  0  0  0  0  3  0  0  0  0  0  0
  161.8340  212.5080  140.7060 C   0  0  0  0  0  0  0  0  0  0  0  0
  158.7000  214.3050  141.6870 C   0  0  2  0  0  3  0  0  0  0  0  0
  158.1740  214.4130  142.9780 O   0  0  0  0  0  1  0  0  0  0  0  0
  157.9820  214.1180  139.2520 C   0  0  0  0  0  1  0  0  0  0  0  0
  157.6180  213.8410  140.7020 C   0  0  0  0  0  3  0  0  0  0  0  0
  156.2670  214.4510  141.0320 C   0  0  0  0  0  1  0  0  0  0  0  0
  162.8440  212.1960  139.6530 C   0  0  0  0  0  2  0  0  0  0  0  0
  163.1540  211.6460  137.3570 O   0  0  0  0  0  1  0  0  0  0  0  0
  162.1840  211.9950  138.3010 C   0  0  1  0  0  3  0  0  0  0  0  0
  161.1580  210.8840  138.4120 C   0  0  0  0  0  2  0  0  0  0  0  0
  161.8410  209.5690  138.7320 C   0  0  0  0  0  1  0  0  0  0  0  0
  159.6190  213.3440  151.1360 C   0  0  0  0  0  2  0  0  0  0  0  0
  158.6090  211.9300  151.6690 S   0  0  0  0  0  0  0  0  0  0  0  0
  158.8530  211.6840  155.4510 C   0  0  2  0  0  3  0  0  0  0  0  0
  157.0530  212.0620  153.9110 C   0  0  0  0  0  2  0  0  0  0  0  0
  157.5280  211.1160  154.9940 C   0  0  0  0  0  2  0  0  0  0  0  0
  158.3040  212.6680  153.2980 C   0  0  1  0  0  3  0  0  0  0  0  0
  159.4600  212.3350  154.2280 C   0  0  0  0  0  2  0  0  0  0  0  0
  159.7760  210.5930  155.9700 C   0  0  0  0  0  2  0  0  0  0  0  0
  160.7630  208.3720  155.1720 C   0  0  1  0  0  3  0  0  0  0  0  0
  161.1900  207.4680  153.9830 C   0  0  1  0  0  3  0  0  0  0  0  0
  161.9390  210.5820  152.8640 C   0  0  0  0  0  2  0  0  0  0  0  0
  162.2260  208.0850  153.0140 C   0  0  2  0  0  3  0  0  0  0  0  0
  161.6490  210.6640  154.3600 C   0  0  2  0  0  3  0  0  0  0  0  0
  161.6020  209.2340  152.2380 C   0  0  0  0  0  2  0  0  0  0  0  0
  162.9020  210.4120  155.1880 C   0  0  0  0  0  1  0  0  0  0  0  0
  160.4290  209.8450  154.8100 C   0  0  2  0  0  3  0  0  0  0  0  0
  162.7460  207.0880  152.0230 C   0  0  0  0  0  0  0  0  0  0  0  0
  162.9320  207.4390  150.8280 O   0  0  0  0  0  0  0  0  0  0  0  0
  163.0200  205.7830  152.4140 O   0  0  0  0  0  1  0  0  0  0  0  0
  159.6120  207.7240  155.8910 C   0  0  0  0  0  0  0  0  0  0  0  0
  159.8390  206.9170  156.9990 O   0  0  0  0  0  1  0  0  0  0  0  0
  158.4350  207.9130  155.4850 O   0  0  0  0  0  0  0  0  0  0  0  0
  161.6450  206.0930  154.4990 C   0  0  0  0  0  2  0  0  0  0  0  0
  160.6870  204.9780  154.0840 C   0  0  0  0  0  2  0  0  0  0  0  0
  160.2500  205.5500  151.7960 O   0  0  0  0  0  1  0  0  0  0  0  0
  160.8650  204.6050  152.6190 C   0  0  0  0  0  3  0  0  0  0  0  0
  160.3310  203.3390  152.3700 O   0  0  0  0  0  1  0  0  0  0  0  0
  162.1140  210.4790  147.9150 O   0  0  0  0  0  0  0  0  0  0  0  0
  160.7110  204.0250  147.2000 C   0  0  0  0  0  2  0  0  0  0  0  0
  160.8060  208.7240  148.9120 C   0  0  0  0  0  3  0  0  0  0  0  0
  161.9550  203.7030  146.5110 N   0  0  0  0  0  2  0  0  0  0  0  0
  163.0470  205.8820  146.5530 C   0  0  0  0  0  2  0  0  0  0  0  0
  160.9840  204.9360  148.3890 C   0  0  0  0  0  2  0  0  0  0  0  0
  160.6190  207.2660  149.2100 C   0  0  0  0  0  2  0  0  0  0  0  0
  161.8690  209.1270  148.2070 C   0  0  0  0  0  0  0  0  0  0  0  0
  162.3460  204.8430  145.6920 C   0  0  0  0  0  2  0  0  0  0  0  0
  162.8300  208.0930  147.7040 C   0  0  0  0  0  2  0  0  0  0  0  0
  160.8910  206.4010  147.9710 C   0  0  1  0  0  3  0  0  0  0  0  0
  162.0610  206.9290  147.0720 C   0  0  2  0  0  3  0  0  0  0  0  0
  2  5  1  6  0  0  0
  2  6  1  0  0  0  0
  3  8  1  0  0  0  0
  3  1  1  1  0  0  0
  4 12  1  6  0  0  0
  4  9  1  0  0  0  0
  4  2  1  0  0  0  0
  6  8  1  0  0  0  0
  7 55  1  1  0  0  0
  7  3  1  0  0  0  0
  8 28  1  1  0  0  0
  9  7  1  0  0  0  0
 10 12  1  0  0  0  0
 12 11  2  0  0  0  0
 13 14  1  0  0  0  0
 14 10  1  0  0  0  0
 15 18  1  0  0  0  0
 15 14  2  0  0  0  0
 16 17  2  0  0  0  0
 16 15  1  0  0  0  0
 17 13  1  0  0  0  0
 18 19  1  1  0  0  0
 20 21  1  0  0  0  0
 21 22  1  0  0  0  0
 21 18  1  0  0  0  0
 23 17  1  0  0  0  0
 25 24  1  6  0  0  0
 25 26  1  0  0  0  0
 25 23  1  0  0  0  0
 26 27  1  0  0  0  0
 28 29  1  0  0  0  0
 30 35  1  6  0  0  0
 31 32  1  0  0  0  0
 32 30  1  0  0  0  0
 33 29  1  6  0  0  0
 33 31  1  0  0  0  0
 33 34  1  0  0  0  0
 34 30  1  0  0  0  0
 36 47  1  6  0  0  0
 37 50  1  1  0  0  0
 37 36  1  0  0  0  0
 38 40  1  0  0  0  0
 39 44  1  6  0  0  0
 39 37  1  0  0  0  0
 40 43  1  0  0  0  0
 40 42  1  1  0  0  0
 41 38  1  0  0  0  0
 41 39  1  0  0  0  0
 43 36  1  0  0  0  0
 43 35  1  1  0  0  0
 44 46  1  0  0  0  0
 45 44  2  0  0  0  0
 47 48  1  0  0  0  0
 49 47  2  0  0  0  0
 51 50  1  0  0  0  0
 52 53  1  0  0  0  0
 53 51  1  0  0  0  0
 54 53  1  0  0  0  0
 55 62  1  0  0  0  0
 56 60  1  0  0  0  0
 57 61  1  0  0  0  0
 58 56  1  0  0  0  0
 62 57  2  0  0  0  0
 63 58  1  0  0  0  0
 63 59  1  0  0  0  0
 64 62  1  0  0  0  0
 65 60  1  1  0  0  0
 65 61  1  0  0  0  0
 66 59  1  1  0  0  0
 66 64  1  0  0  0  0
 66 65  1  0  0  0  0
M  END
>  <MODEL>
1

>  <REMARK>
 VINA RESULT:       0.1      0.000      0.000
  Name = 
  19 active torsions:
  status: ('A' for Active; 'I' for Inactive)
    1  A    between atoms: C_1  and  C_32
    2  A    between atoms: C_2  and  C_37
    3  A    between atoms: C_2  and  C_47
    4  A    between atoms: C_3  and  C_13
    5  A    between atoms: C_10  and  C_59
    6  A    between atoms: N_12  and  C_36
    7  A    between atoms: C_13  and  C_60
    8  A    between atoms: C_14  and  C_21
    9  A    between atoms: C_18  and  C_54
   10  A    between atoms: C_19  and  C_47
   11  A    between atoms: C_29  and  C_49
   12  A    between atoms: C_31  and  S_57
   13  A    between atoms: C_33  and  O_46
   14  A    between atoms: C_38  and  C_49
   15  A    between atoms: C_42  and  O_46
   16  A    between atoms: C_53  and  C_55
   17  A    between atoms: C_53  and  S_57
   18  A    between atoms: C_59  and  C_61
   19  A    between atoms: C_61  and  C_66
                            x       y       z     vdW  Elec       q    Type
                         _______ _______ _______ _____ _____    ______ ____

>  <TORSDO>
F 19

$$$$
=
 OpenBabel11042422413D

 66 71  0  0  1  0  0  0  0  0999 V2000
  163.3070  210.4310  152.0970 C   0  0  0  0  0  1  0  0  0  0  0  0
  161.6150  208.5470  148.3370 C   0  0  1  0  0  3  0  0  0  0  0  0
  162.1710  210.0800  151.1410 C   0  0  2  0  0  3  0  0  0  0  0  0
  160.6730  207.7160  149.2230 C   0  0  2  0  0  3  0  0  0  0  0  0
  161.2740  208.3550  146.9990 O   0  0  0  0  0  1  0  0  0  0  0  0
  161.5530  210.0330  148.6550 C   0  0  0  0  0  2  0  0  0  0  0  0
  161.7720  208.6040  151.3420 C   0  0  2  0  0  3  0  0  0  0  0  0
  162.6120  210.3990  149.6950 C   0  0  1  0  0  3  0  0  0  0  0  0
  160.4600  208.2750  150.6340 C   0  0  0  0  0  2  0  0  0  0  0  0
  160.8530  205.4190  148.1270 N   0  0  0  0  0  2  0  0  0  0  0  0
  161.5530  205.7940  150.3330 O   0  0  0  0  0  0  0  0  0  0  0  0
  161.0520  206.2610  149.2720 C   0  0  0  0  0  0  0  0  0  0  0  0
  161.0970  202.9380  149.3700 S   0  0  0  0  0  0  0  0  0  0  0  0
  161.0660  204.0020  148.0620 C   0  0  0  0  0  0  0  0  0  0  0  0
  161.2300  203.2770  146.8800 C   0  0  0  0  0  0  0  0  0  0  0  0
  161.3770  201.8980  147.0920 C   0  0  0  0  0  3  0  0  0  0  0  0
  161.3350  201.5550  148.4380 C   0  0  0  0  0  0  0  0  0  0  0  0
  161.1720  203.8570  145.4910 C   0  0  2  0  0  3  0  0  0  0  0  0
  160.5350  202.9840  144.6040 O   0  0  0  0  0  1  0  0  0  0  0  0
  163.5750  204.5070  146.0240 C   0  0  0  0  0  1  0  0  0  0  0  0
  162.5360  204.2900  144.9360 C   0  0  0  0  0  3  0  0  0  0  0  0
  162.4140  205.5300  144.0670 C   0  0  0  0  0  1  0  0  0  0  0  0
  161.4110  200.1580  148.9570 C   0  0  0  0  0  2  0  0  0  0  0  0
  160.8280  199.7890  151.2360 O   0  0  0  0  0  1  0  0  0  0  0  0
  160.2940  199.8790  149.9480 C   0  0  1  0  0  3  0  0  0  0  0  0
  159.2890  201.0120  149.8910 C   0  0  0  0  0  2  0  0  0  0  0  0
  158.3500  200.8220  148.7150 C   0  0  0  0  0  1  0  0  0  0  0  0
  162.9010  211.8890  149.5570 C   0  0  0  0  0  2  0  0  0  0  0  0
  161.3540  212.8380  149.6510 S   0  0  0  0  0  0  0  0  0  0  0  0
  160.1740  213.1480  146.0540 C   0  0  2  0  0  3  0  0  0  0  0  0
  159.1950  212.2890  148.0690 C   0  0  0  0  0  2  0  0  0  0  0  0
  158.9980  213.3300  146.9880 C   0  0  0  0  0  2  0  0  0  0  0  0
  160.6920  212.0470  148.1580 C   0  0  1  0  0  3  0  0  0  0  0  0
  161.3190  212.6860  146.9290 C   0  0  0  0  0  2  0  0  0  0  0  0
  160.5420  214.4500  145.3630 C   0  0  0  0  0  2  0  0  0  0  0  0
  160.5290  213.0760  143.2050 C   0  0  1  0  0  3  0  0  0  0  0  0
  161.0220  212.9130  141.7400 C   0  0  1  0  0  3  0  0  0  0  0  0
  163.6990  214.3170  143.2790 C   0  0  0  0  0  2  0  0  0  0  0  0
  162.5560  212.8860  141.5510 C   0  0  2  0  0  3  0  0  0  0  0  0
  162.7160  213.8540  144.3500 C   0  0  2  0  0  3  0  0  0  0  0  0
  163.1490  214.2510  141.8590 C   0  0  0  0  0  2  0  0  0  0  0  0
  162.9610  212.4040  144.7460 C   0  0  0  0  0  1  0  0  0  0  0  0
  161.2470  214.1750  144.0360 C   0  0  2  0  0  3  0  0  0  0  0  0
  162.9540  212.5150  140.1550 C   0  0  0  0  0  0  0  0  0  0  0  0
  162.6840  213.2950  139.2030 O   0  0  0  0  0  0  0  0  0  0  0  0
  163.6130  211.3170  139.9040 O   0  0  0  0  0  1  0  0  0  0  0  0
  159.0420  213.2950  143.2000 C   0  0  0  0  0  0  0  0  0  0  0  0
  158.4500  214.0900  142.2250 O   0  0  0  0  0  0  0  0  0  0  0  0
  158.3270  212.7560  144.0850 O   0  0  0  0  0  1  0  0  0  0  0  0
  160.3480  211.6950  141.0880 C   0  0  0  0  0  2  0  0  0  0  0  0
  159.7750  212.0240  139.7110 C   0  0  0  0  0  2  0  0  0  0  0  0
  159.7200  209.6270  139.6650 O   0  0  0  0  0  1  0  0  0  0  0  0
  159.2890  210.7730  138.9940 C   0  0  0  0  0  3  0  0  0  0  0  0
  159.7510  210.7540  137.6770 O   0  0  0  0  0  1  0  0  0  0  0  0
  161.6750  208.2480  152.7270 O   0  0  0  0  0  0  0  0  0  0  0  0
  159.3530  213.3310  156.3170 C   0  0  0  0  0  2  0  0  0  0  0  0
  161.3330  208.9280  155.0070 C   0  0  0  0  0  3  0  0  0  0  0  0
  158.4720  213.8320  155.2690 N   0  0  0  0  0  2  0  0  0  0  0  0
  158.8590  212.1530  153.5440 C   0  0  0  0  0  2  0  0  0  0  0  0
  159.2510  211.8150  156.4170 C   0  0  0  0  0  2  0  0  0  0  0  0
  160.5520  209.7230  156.0120 C   0  0  0  0  0  2  0  0  0  0  0  0
  161.0000  208.9850  153.7130 C   0  0  0  0  0  0  0  0  0  0  0  0
  159.0990  213.5920  153.9760 C   0  0  0  0  0  2  0  0  0  0  0  0
  159.8690  209.8770  153.3010 C   0  0  0  0  0  2  0  0  0  0  0  0
  160.2870  211.1510  155.5140 C   0  0  1  0  0  3  0  0  0  0  0  0
  160.0110  211.2460  153.9740 C   0  0  2  0  0  3  0  0  0  0  0  0
  2  5  1  6  0  0  0
  2  6  1  0  0  0  0
  2  4  1  0  0  0  0
  3  7  1  0  0  0  0
  3  1  1  1  0  0  0
  4 12  1  1  0  0  0
  4  9  1  0  0  0  0
  6  8  1  0  0  0  0
  7 55  1  1  0  0  0
  8 28  1  1  0  0  0
  8  3  1  0  0  0  0
  9  7  1  0  0  0  0
 10 12  1  0  0  0  0
 12 11  2  0  0  0  0
 14 10  1  0  0  0  0
 14 13  1  0  0  0  0
 15 16  1  0  0  0  0
 15 14  2  0  0  0  0
 16 17  2  0  0  0  0
 17 23  1  0  0  0  0
 17 13  1  0  0  0  0
 18 19  1  6  0  0  0
 18 15  1  0  0  0  0
 21 18  1  0  0  0  0
 21 20  1  0  0  0  0
 22 21  1  0  0  0  0
 23 25  1  0  0  0  0
 25 24  1  1  0  0  0
 26 25  1  0  0  0  0
 27 26  1  0  0  0  0
 28 29  1  0  0  0  0
 30 35  1  1  0  0  0
 30 34  1  0  0  0  0
 30 32  1  0  0  0  0
 31 33  1  0  0  0  0
 32 31  1  0  0  0  0
 33 29  1  1  0  0  0
 34 33  1  0  0  0  0
 36 47  1  6  0  0  0
 36 43  1  0  0  0  0
 37 50  1  1  0  0  0
 37 36  1  0  0  0  0
 38 40  1  0  0  0  0
 39 44  1  6  0  0  0
 39 37  1  0  0  0  0
 39 41  1  0  0  0  0
 40 42  1  6  0  0  0
 41 38  1  0  0  0  0
 43 40  1  0  0  0  0
 43 35  1  1  0  0  0
 45 44  2  0  0  0  0
 46 44  1  0  0  0  0
 47 49  1  0  0  0  0
 48 47  2  0  0  0  0
 51 50  1  0  0  0  0
 53 52  1  0  0  0  0
 53 51  1  0  0  0  0
 54 53  1  0  0  0  0
 55 62  1  0  0  0  0
 56 60  1  0  0  0  0
 57 61  1  0  0  0  0
 58 56  1  0  0  0  0
 59 66  1  0  0  0  0
 59 63  1  0  0  0  0
 62 57  2  0  0  0  0
 63 58  1  0  0  0  0
 64 62  1  0  0  0  0
 65 61  1  1  0  0  0
 65 60  1  0  0  0  0
 66 64  1  1  0  0  0
 66 65  1  0  0  0  0
M  END
>  <MODEL>
2

>  <REMARK>
 VINA RESULT:       2.8      2.976     11.022
  Name = 
  19 active torsions:
  status: ('A' for Active; 'I' for Inactive)
    1  A    between atoms: C_1  and  C_32
    2  A    between atoms: C_2  and  C_37
    3  A    between atoms: C_2  and  C_47
    4  A    between atoms: C_3  and  C_13
    5  A    between atoms: C_10  and  C_59
    6  A    between atoms: N_12  and  C_36
    7  A    between atoms: C_13  and  C_60
    8  A    between atoms: C_14  and  C_21
    9  A    between atoms: C_18  and  C_54
   10  A    between atoms: C_19  and  C_47
   11  A    between atoms: C_29  and  C_49
   12  A    between atoms: C_31  and  S_57
   13  A    between atoms: C_33  and  O_46
   14  A    between atoms: C_38  and  C_49
   15  A    between atoms: C_42  and  O_46
   16  A    between atoms: C_53  and  C_55
   17  A    between atoms: C_53  and  S_57
   18  A    between atoms: C_59  and  C_61
   19  A    between atoms: C_61  and  C_66
                            x       y       z     vdW  Elec       q    Type
                         _______ _______ _______ _____ _____    ______ ____

>  <TORSDO>
F 19

$$$$
