=
 OpenBabel11052409453D

 31 35  0  0  1  0  0  0  0  0999 V2000
  159.5420  210.6170  152.5200 O   0  0  0  0  0  1  0  0  0  0  0  0
  159.1480  210.5340  153.8590 C   0  0  2  0  0  3  0  0  0  0  0  0
  162.5950  209.8030  156.7220 C   0  0  0  0  0  3  0  0  0  0  0  0
  158.8990  211.9250  154.4520 C   0  0  1  0  0  3  0  0  0  0  0  0
  160.8520  210.9790  155.3950 C   0  0  0  0  0  0  0  0  0  0  0  0
  162.1350  210.8960  156.1200 C   0  0  0  0  0  3  0  0  0  0  0  0
  160.1590  212.2850  155.2280 C   0  0  2  0  0  3  0  0  0  0  0  0
  160.8050  208.6130  154.5080 C   0  0  0  0  0  0  0  0  0  0  0  0
  161.8080  208.5400  156.8000 C   0  0  0  0  0  2  0  0  0  0  0  0
  159.7930  212.8250  156.5270 N   0  0  0  0  0  1  0  0  0  0  0  0
  160.2830  210.0050  154.6730 C   0  0  0  0  0  0  0  0  0  0  0  0
  161.5250  207.9870  155.4430 C   0  0  0  0  0  3  0  0  0  0  0  0
  160.5590  207.8960  153.2960 N   0  0  0  0  0  2  0  0  0  0  0  0
  162.3390  208.8060  152.0880 O   0  0  0  0  0  0  0  0  0  0  0  0
  161.4140  207.9510  152.1470 C   0  0  0  0  0  0  0  0  0  0  0  0
  160.9360  203.6100  150.9770 C   0  0  0  0  0  2  0  0  0  0  0  0
  161.1980  207.0280  151.0240 C   0  0  0  0  0  0  0  0  0  0  0  0
  161.1460  204.4890  152.1080 C   0  0  0  0  0  2  0  0  0  0  0  0
  160.8580  206.5550  148.6010 C   0  0  0  0  0  3  0  0  0  0  0  0
  160.9120  204.8000  150.0850 C   0  0  0  0  0  0  0  0  0  0  0  0
  161.1150  205.6560  151.1840 C   0  0  0  0  0  0  0  0  0  0  0  0
  160.7810  205.1970  148.8060 N   0  0  0  0  0  0  0  0  0  0  0  0
  161.0630  207.4750  149.6810 C   0  0  0  0  0  3  0  0  0  0  0  0
  158.4600  212.9990  153.4430 C   0  0  2  0  0  3  0  0  0  0  0  0
  159.0610  214.2250  153.7450 O   0  0  0  0  0  1  0  0  0  0  0  0
  156.5710  214.3610  152.8070 O   0  0  0  0  0  1  0  0  0  0  0  0
  156.9320  213.1550  153.4170 C   0  0  2  0  0  3  0  0  0  0  0  0
  156.4920  214.0910  155.8600 C   0  0  0  0  0  2  0  0  0  0  0  0
  155.8390  211.6770  155.2910 C   0  0  0  0  0  1  0  0  0  0  0  0
  156.2460  213.0470  154.7900 C   0  0  0  0  0  0  0  0  0  0  0  0
  155.2000  214.1090  155.0590 C   0  0  0  0  0  2  0  0  0  0  0  0
  2  1  1  6  0  0  0
  2  4  1  0  0  0  0
  2 11  1  0  0  0  0
  3  9  1  0  0  0  0
  4 24  1  6  0  0  0
  4  7  1  0  0  0  0
  5  6  1  0  0  0  0
  6  3  2  0  0  0  0
  7  5  1  0  0  0  0
  7 10  1  1  0  0  0
  8 11  1  0  0  0  0
  8 12  2  0  0  0  0
 11  5  2  0  0  0  0
 12  9  1  0  0  0  0
 13  8  1  0  0  0  0
 14 15  2  0  0  0  0
 15 13  1  0  0  0  0
 16 18  1  0  0  0  0
 17 21  1  0  0  0  0
 17 15  1  0  0  0  0
 19 22  2  0  0  0  0
 19 23  1  0  0  0  0
 20 16  1  0  0  0  0
 20 21  2  0  0  0  0
 21 18  1  0  0  0  0
 22 20  1  0  0  0  0
 23 17  2  0  0  0  0
 24 25  1  1  0  0  0
 27 26  1  1  0  0  0
 27 24  1  0  0  0  0
 27 30  1  0  0  0  0
 30 31  1  0  0  0  0
 30 29  1  0  0  0  0
 30 28  1  0  0  0  0
 31 28  1  0  0  0  0
M  END
>  <MODEL>
1

>  <REMARK>
 VINA RESULT:      -7.4      0.000      0.000
  Name = 
  5 active torsions:
  status: ('A' for Active; 'I' for Inactive)
    1  A    between atoms: C_3  and  C_20
    2  A    between atoms: C_4  and  C_12
    3  A    between atoms: C_4  and  C_22
    4  A    between atoms: N_15  and  C_21
    5  A    between atoms: C_22  and  C_25
                            x       y       z     vdW  Elec       q    Type
                         _______ _______ _______ _____ _____    ______ ____

>  <TORSDO>
F 5

$$$$
=
 OpenBabel11052409453D

 31 35  0  0  1  0  0  0  0  0999 V2000
  160.5930  211.0360  152.8880 O   0  0  0  0  0  1  0  0  0  0  0  0
  159.5730  210.5000  153.6810 C   0  0  2  0  0  3  0  0  0  0  0  0
  161.1000  208.0770  157.2040 C   0  0  0  0  0  3  0  0  0  0  0  0
  158.9820  211.5610  154.6160 C   0  0  1  0  0  3  0  0  0  0  0  0
  160.2230  209.9800  155.8640 C   0  0  0  0  0  0  0  0  0  0  0  0
  160.9560  209.3830  156.9990 C   0  0  0  0  0  3  0  0  0  0  0  0
  159.6450  211.3470  155.9710 C   0  0  2  0  0  3  0  0  0  0  0  0
  160.7640  208.2140  154.1400 C   0  0  0  0  0  0  0  0  0  0  0  0
  160.4530  207.0540  156.3360 C   0  0  0  0  0  2  0  0  0  0  0  0
  158.6370  211.3820  157.0170 N   0  0  0  0  0  1  0  0  0  0  0  0
  160.1580  209.4940  154.6180 C   0  0  0  0  0  0  0  0  0  0  0  0
  160.9350  207.1470  154.9270 C   0  0  0  0  0  3  0  0  0  0  0  0
  161.2120  208.0950  152.7870 N   0  0  0  0  0  2  0  0  0  0  0  0
  160.9680  205.7770  152.6340 O   0  0  0  0  0  0  0  0  0  0  0  0
  161.2000  206.8680  152.0460 C   0  0  0  0  0  0  0  0  0  0  0  0
  161.2270  204.3780  148.2720 C   0  0  0  0  0  2  0  0  0  0  0  0
  161.4830  206.8780  150.6040 C   0  0  0  0  0  0  0  0  0  0  0  0
  160.9350  204.3310  149.6900 C   0  0  0  0  0  2  0  0  0  0  0  0
  162.2250  208.0210  148.5170 C   0  0  0  0  0  3  0  0  0  0  0  0
  161.6070  205.8080  148.4210 C   0  0  0  0  0  0  0  0  0  0  0  0
  161.3220  205.7640  149.7990 C   0  0  0  0  0  0  0  0  0  0  0  0
  162.0500  206.8900  147.7530 N   0  0  0  0  0  0  0  0  0  0  0  0
  161.9500  208.0360  149.9240 C   0  0  0  0  0  3  0  0  0  0  0  0
  159.0650  213.0070  154.1030 C   0  0  2  0  0  3  0  0  0  0  0  0
  159.6140  213.8410  155.0830 O   0  0  0  0  0  1  0  0  0  0  0  0
  156.6900  212.5970  153.9690 O   0  0  0  0  0  1  0  0  0  0  0  0
  157.6860  213.5340  153.6770 C   0  0  2  0  0  3  0  0  0  0  0  0
  158.8030  214.4450  151.4500 C   0  0  0  0  0  2  0  0  0  0  0  0
  156.2490  214.4530  151.6820 C   0  0  0  0  0  1  0  0  0  0  0  0
  157.5810  213.9550  152.2010 C   0  0  0  0  0  0  0  0  0  0  0  0
  158.2860  213.0320  151.2290 C   0  0  0  0  0  2  0  0  0  0  0  0
  2  1  1  6  0  0  0
  2  4  1  0  0  0  0
  2 11  1  0  0  0  0
  4 24  1  6  0  0  0
  4  7  1  0  0  0  0
  5  7  1  0  0  0  0
  5  6  1  0  0  0  0
  6  3  2  0  0  0  0
  7 10  1  1  0  0  0
  8 11  1  0  0  0  0
  8 12  2  0  0  0  0
  9  3  1  0  0  0  0
 11  5  2  0  0  0  0
 12  9  1  0  0  0  0
 13  8  1  0  0  0  0
 15 14  2  0  0  0  0
 15 13  1  0  0  0  0
 16 20  1  0  0  0  0
 16 18  1  0  0  0  0
 17 15  1  0  0  0  0
 18 21  1  0  0  0  0
 19 23  2  0  0  0  0
 20 21  1  0  0  0  0
 21 17  2  0  0  0  0
 22 20  2  0  0  0  0
 22 19  1  0  0  0  0
 23 17  1  0  0  0  0
 24 25  1  1  0  0  0
 27 26  1  6  0  0  0
 27 24  1  0  0  0  0
 28 30  1  0  0  0  0
 29 30  1  0  0  0  0
 30 27  1  0  0  0  0
 31 28  1  0  0  0  0
 31 30  1  0  0  0  0
M  END
>  <MODEL>
2

>  <REMARK>
 VINA RESULT:      -7.4      1.647      2.258
  Name = 
  5 active torsions:
  status: ('A' for Active; 'I' for Inactive)
    1  A    between atoms: C_3  and  C_20
    2  A    between atoms: C_4  and  C_12
    3  A    between atoms: C_4  and  C_22
    4  A    between atoms: N_15  and  C_21
    5  A    between atoms: C_22  and  C_25
                            x       y       z     vdW  Elec       q    Type
                         _______ _______ _______ _____ _____    ______ ____

>  <TORSDO>
F 5

$$$$
=
 OpenBabel11052409453D

 31 35  0  0  1  0  0  0  0  0999 V2000
  160.8970  207.6550  147.7200 O   0  0  0  0  0  1  0  0  0  0  0  0
  161.9290  207.3650  148.6170 C   0  0  2  0  0  3  0  0  0  0  0  0
  161.3230  209.1880  152.7300 C   0  0  0  0  0  3  0  0  0  0  0  0
  161.7910  205.9470  149.1830 C   0  0  1  0  0  3  0  0  0  0  0  0
  161.3280  207.5400  150.8680 C   0  0  0  0  0  0  0  0  0  0  0  0
  160.8350  208.0990  152.1430 C   0  0  0  0  0  3  0  0  0  0  0  0
  161.1410  206.0990  150.5510 C   0  0  2  0  0  3  0  0  0  0  0  0
  161.9620  209.7200  149.7600 C   0  0  0  0  0  0  0  0  0  0  0  0
  162.4990  209.9280  152.1950 C   0  0  0  0  0  2  0  0  0  0  0  0
  161.8490  205.2790  151.5200 N   0  0  0  0  0  1  0  0  0  0  0  0
  161.7910  208.2360  149.8220 C   0  0  0  0  0  0  0  0  0  0  0  0
  162.2300  210.4720  150.8310 C   0  0  0  0  0  3  0  0  0  0  0  0
  161.8190  210.4050  148.5120 N   0  0  0  0  0  2  0  0  0  0  0  0
  161.0080  212.4060  149.4050 O   0  0  0  0  0  0  0  0  0  0  0  0
  161.4330  211.7800  148.3950 C   0  0  0  0  0  0  0  0  0  0  0  0
  159.0720  213.0840  144.7660 C   0  0  0  0  0  2  0  0  0  0  0  0
  161.5100  212.4580  147.0940 C   0  0  0  0  0  0  0  0  0  0  0  0
  158.9560  212.4140  146.0440 C   0  0  0  0  0  2  0  0  0  0  0  0
  162.7780  213.6400  145.3020 C   0  0  0  0  0  3  0  0  0  0  0  0
  160.5230  213.2790  145.0240 C   0  0  0  0  0  0  0  0  0  0  0  0
  160.4130  212.6280  146.2690 C   0  0  0  0  0  0  0  0  0  0  0  0
  161.6600  213.7880  144.5140 N   0  0  0  0  0  0  0  0  0  0  0  0
  162.7250  212.9870  146.5780 C   0  0  0  0  0  3  0  0  0  0  0  0
  161.0810  204.9400  148.2630 C   0  0  2  0  0  3  0  0  0  0  0  0
  160.6210  203.8450  149.0020 O   0  0  0  0  0  1  0  0  0  0  0  0
  163.1150  205.3010  147.0140 O   0  0  0  0  0  1  0  0  0  0  0  0
  162.0040  204.4610  147.1330 C   0  0  2  0  0  3  0  0  0  0  0  0
  160.5270  205.4520  145.1640 C   0  0  0  0  0  2  0  0  0  0  0  0
  160.9340  202.9230  145.2940 C   0  0  0  0  0  1  0  0  0  0  0  0
  161.3240  204.3090  145.7610 C   0  0  0  0  0  0  0  0  0  0  0  0
  161.9300  205.1550  144.6590 C   0  0  0  0  0  2  0  0  0  0  0  0
  2  1  1  6  0  0  0
  2  4  1  0  0  0  0
  2 11  1  0  0  0  0
  4 24  1  6  0  0  0
  4  7  1  0  0  0  0
  5  6  1  0  0  0  0
  6  3  2  0  0  0  0
  7  5  1  0  0  0  0
  7 10  1  1  0  0  0
  8 11  1  0  0  0  0
  8 12  2  0  0  0  0
  9  3  1  0  0  0  0
 11  5  2  0  0  0  0
 12  9  1  0  0  0  0
 13  8  1  0  0  0  0
 15 13  1  0  0  0  0
 15 14  2  0  0  0  0
 16 20  1  0  0  0  0
 16 18  1  0  0  0  0
 17 15  1  0  0  0  0
 18 21  1  0  0  0  0
 19 23  2  0  0  0  0
 20 21  1  0  0  0  0
 21 17  2  0  0  0  0
 22 20  2  0  0  0  0
 22 19  1  0  0  0  0
 23 17  1  0  0  0  0
 24 25  1  1  0  0  0
 27 26  1  6  0  0  0
 27 24  1  0  0  0  0
 28 30  1  0  0  0  0
 29 30  1  0  0  0  0
 30 27  1  0  0  0  0
 31 28  1  0  0  0  0
 31 30  1  0  0  0  0
M  END
>  <MODEL>
3

>  <REMARK>
 VINA RESULT:      -7.4      4.756      9.104
  Name = 
  5 active torsions:
  status: ('A' for Active; 'I' for Inactive)
    1  A    between atoms: C_3  and  C_20
    2  A    between atoms: C_4  and  C_12
    3  A    between atoms: C_4  and  C_22
    4  A    between atoms: N_15  and  C_21
    5  A    between atoms: C_22  and  C_25
                            x       y       z     vdW  Elec       q    Type
                         _______ _______ _______ _____ _____    ______ ____

>  <TORSDO>
F 5

$$$$
=
 OpenBabel11052409453D

 31 35  0  0  1  0  0  0  0  0999 V2000
  160.3500  210.2230  151.5860 O   0  0  0  0  0  1  0  0  0  0  0  0
  159.5960  210.2220  152.7640 C   0  0  2  0  0  3  0  0  0  0  0  0
  162.1020  209.7610  156.5210 C   0  0  0  0  0  3  0  0  0  0  0  0
  159.1880  211.6440  153.1630 C   0  0  1  0  0  3  0  0  0  0  0  0
  160.7990  210.8070  154.6790 C   0  0  0  0  0  0  0  0  0  0  0  0
  161.8280  210.8010  155.7390 C   0  0  0  0  0  3  0  0  0  0  0  0
  160.1790  212.0830  154.2340 C   0  0  2  0  0  3  0  0  0  0  0  0
  161.0090  208.3860  153.9850 C   0  0  0  0  0  0  0  0  0  0  0  0
  161.3280  208.4900  156.4650 C   0  0  0  0  0  2  0  0  0  0  0  0
  159.4620  212.7010  155.3360 N   0  0  0  0  0  1  0  0  0  0  0  0
  160.4590  209.7740  153.8980 C   0  0  0  0  0  0  0  0  0  0  0  0
  161.4390  207.8400  155.1260 C   0  0  0  0  0  3  0  0  0  0  0  0
  161.1140  207.5830  152.8060 N   0  0  0  0  0  2  0  0  0  0  0  0
  161.3900  205.5410  153.9060 O   0  0  0  0  0  0  0  0  0  0  0  0
  161.2030  206.1530  152.8190 C   0  0  0  0  0  0  0  0  0  0  0  0
  160.9240  206.4940  148.3190 C   0  0  0  0  0  2  0  0  0  0  0  0
  161.1010  205.3980  151.5620 C   0  0  0  0  0  0  0  0  0  0  0  0
  161.0280  207.2720  149.5360 C   0  0  0  0  0  2  0  0  0  0  0  0
  160.9450  203.2620  150.2880 C   0  0  0  0  0  3  0  0  0  0  0  0
  160.9370  205.2530  149.1380 C   0  0  0  0  0  0  0  0  0  0  0  0
  161.0400  206.0080  150.3220 C   0  0  0  0  0  0  0  0  0  0  0  0
  160.8880  203.9090  149.0750 N   0  0  0  0  0  0  0  0  0  0  0  0
  161.0500  203.9780  151.5260 C   0  0  0  0  0  3  0  0  0  0  0  0
  159.0470  212.6380  151.9990 C   0  0  2  0  0  3  0  0  0  0  0  0
  160.2290  213.3680  151.8350 O   0  0  0  0  0  1  0  0  0  0  0  0
  156.9830  213.0800  153.1690 O   0  0  0  0  0  1  0  0  0  0  0  0
  157.8650  213.5940  152.2140 C   0  0  2  0  0  3  0  0  0  0  0  0
  157.8170  214.4500  149.7030 C   0  0  0  0  0  2  0  0  0  0  0  0
  155.6470  214.4090  151.0700 C   0  0  0  0  0  1  0  0  0  0  0  0
  157.0870  213.9600  150.9380 C   0  0  0  0  0  0  0  0  0  0  0  0
  157.3070  213.0180  149.7720 C   0  0  0  0  0  2  0  0  0  0  0  0
  2  1  1  6  0  0  0
  2  4  1  0  0  0  0
  2 11  1  0  0  0  0
  4 24  1  6  0  0  0
  4  7  1  0  0  0  0
  5  6  1  0  0  0  0
  6  3  2  0  0  0  0
  7  5  1  0  0  0  0
  7 10  1  1  0  0  0
  8 12  2  0  0  0  0
  9  3  1  0  0  0  0
 11  8  1  0  0  0  0
 11  5  2  0  0  0  0
 12  9  1  0  0  0  0
 13 15  1  0  0  0  0
 13  8  1  0  0  0  0
 15 14  2  0  0  0  0
 16 20  1  0  0  0  0
 16 18  1  0  0  0  0
 17 15  1  0  0  0  0
 18 21  1  0  0  0  0
 19 23  2  0  0  0  0
 20 21  1  0  0  0  0
 21 17  2  0  0  0  0
 22 20  2  0  0  0  0
 22 19  1  0  0  0  0
 23 17  1  0  0  0  0
 24 25  1  1  0  0  0
 24 27  1  0  0  0  0
 27 26  1  1  0  0  0
 28 31  1  0  0  0  0
 28 30  1  0  0  0  0
 30 29  1  0  0  0  0
 30 27  1  0  0  0  0
 31 30  1  0  0  0  0
M  END
>  <MODEL>
4

>  <REMARK>
 VINA RESULT:      -7.0      1.751      2.682
  Name = 
  5 active torsions:
  status: ('A' for Active; 'I' for Inactive)
    1  A    between atoms: C_3  and  C_20
    2  A    between atoms: C_4  and  C_12
    3  A    between atoms: C_4  and  C_22
    4  A    between atoms: N_15  and  C_21
    5  A    between atoms: C_22  and  C_25
                            x       y       z     vdW  Elec       q    Type
                         _______ _______ _______ _____ _____    ______ ____

>  <TORSDO>
F 5

$$$$
=
 OpenBabel11052409453D

 31 35  0  0  1  0  0  0  0  0999 V2000
  161.7040  210.7060  153.5580 O   0  0  0  0  0  1  0  0  0  0  0  0
  160.6450  209.8030  153.4210 C   0  0  2  0  0  3  0  0  0  0  0  0
  161.9430  205.6840  152.0200 C   0  0  0  0  0  3  0  0  0  0  0  0
  160.2110  209.2460  154.7810 C   0  0  1  0  0  3  0  0  0  0  0  0
  161.2760  207.5550  153.5160 C   0  0  0  0  0  0  0  0  0  0  0  0
  161.9560  206.2810  153.2080 C   0  0  0  0  0  3  0  0  0  0  0  0
  160.8730  207.8810  154.9100 C   0  0  2  0  0  3  0  0  0  0  0  0
  161.5560  208.6480  151.2550 C   0  0  0  0  0  0  0  0  0  0  0  0
  161.1560  206.2080  150.8690 C   0  0  0  0  0  2  0  0  0  0  0  0
  159.9010  206.9120  155.3880 N   0  0  0  0  0  1  0  0  0  0  0  0
  161.1230  208.5940  152.6850 C   0  0  0  0  0  0  0  0  0  0  0  0
  161.6130  207.5700  150.4670 C   0  0  0  0  0  3  0  0  0  0  0  0
  161.9550  209.8930  150.6750 N   0  0  0  0  0  2  0  0  0  0  0  0
  161.7460  209.2200  148.4470 O   0  0  0  0  0  0  0  0  0  0  0  0
  161.9370  210.1600  149.2660 C   0  0  0  0  0  0  0  0  0  0  0  0
  160.4490  214.4280  149.3930 C   0  0  0  0  0  2  0  0  0  0  0  0
  162.1650  211.5260  148.7740 C   0  0  0  0  0  0  0  0  0  0  0  0
  160.1950  213.0960  149.9020 C   0  0  0  0  0  2  0  0  0  0  0  0
  163.4280  213.1890  147.4140 C   0  0  0  0  0  3  0  0  0  0  0  0
  161.6100  213.8920  148.6350 C   0  0  0  0  0  0  0  0  0  0  0  0
  161.3650  212.5960  149.1300 C   0  0  0  0  0  0  0  0  0  0  0  0
  162.6070  214.2260  147.7950 N   0  0  0  0  0  0  0  0  0  0  0  0
  163.2270  211.8500  147.8860 C   0  0  0  0  0  3  0  0  0  0  0  0
  160.4580  210.1760  155.9800 C   0  0  2  0  0  3  0  0  0  0  0  0
  160.8820  209.4370  157.0900 O   0  0  0  0  0  1  0  0  0  0  0  0
  158.0680  210.4190  155.7430 O   0  0  0  0  0  1  0  0  0  0  0  0
  159.2020  210.9840  156.3350 C   0  0  2  0  0  3  0  0  0  0  0  0
  159.0920  212.9480  154.5540 C   0  0  0  0  0  2  0  0  0  0  0  0
  160.0850  213.3970  156.8760 C   0  0  0  0  0  1  0  0  0  0  0  0
  159.2730  212.4810  155.9850 C   0  0  0  0  0  0  0  0  0  0  0  0
  157.9550  213.0920  155.5540 C   0  0  0  0  0  2  0  0  0  0  0  0
  2  1  1  1  0  0  0
  2  4  1  0  0  0  0
  3  6  2  0  0  0  0
  4  7  1  0  0  0  0
  4 24  1  1  0  0  0
  5  7  1  0  0  0  0
  6  5  1  0  0  0  0
  7 10  1  6  0  0  0
  8 11  1  0  0  0  0
  9  3  1  0  0  0  0
 11  2  1  0  0  0  0
 11  5  2  0  0  0  0
 12  9  1  0  0  0  0
 12  8  2  0  0  0  0
 13  8  1  0  0  0  0
 14 15  2  0  0  0  0
 15 13  1  0  0  0  0
 16 18  1  0  0  0  0
 17 21  1  0  0  0  0
 17 15  1  0  0  0  0
 19 22  2  0  0  0  0
 19 23  1  0  0  0  0
 20 21  2  0  0  0  0
 20 16  1  0  0  0  0
 21 18  1  0  0  0  0
 22 20  1  0  0  0  0
 23 17  2  0  0  0  0
 24 27  1  0  0  0  0
 24 25  1  1  0  0  0
 27 26  1  6  0  0  0
 28 31  1  0  0  0  0
 28 30  1  0  0  0  0
 30 27  1  0  0  0  0
 30 29  1  0  0  0  0
 31 30  1  0  0  0  0
M  END
>  <MODEL>
5

>  <REMARK>
 VINA RESULT:      -6.7      3.470      5.579
  Name = 
  5 active torsions:
  status: ('A' for Active; 'I' for Inactive)
    1  A    between atoms: C_3  and  C_20
    2  A    between atoms: C_4  and  C_12
    3  A    between atoms: C_4  and  C_22
    4  A    between atoms: N_15  and  C_21
    5  A    between atoms: C_22  and  C_25
                            x       y       z     vdW  Elec       q    Type
                         _______ _______ _______ _____ _____    ______ ____

>  <TORSDO>
F 5

$$$$
=
 OpenBabel11052409453D

 31 35  0  0  1  0  0  0  0  0999 V2000
  160.4470  207.0310  149.1460 O   0  0  0  0  0  1  0  0  0  0  0  0
  161.5340  206.5110  149.8550 C   0  0  2  0  0  3  0  0  0  0  0  0
  160.8140  206.2230  154.3280 C   0  0  0  0  0  3  0  0  0  0  0  0
  161.6000  204.9850  149.7280 C   0  0  1  0  0  3  0  0  0  0  0  0
  160.9810  205.5890  151.9290 C   0  0  0  0  0  0  0  0  0  0  0  0
  160.4570  205.4550  153.3030 C   0  0  0  0  0  3  0  0  0  0  0  0
  160.9760  204.4270  151.0000 C   0  0  2  0  0  3  0  0  0  0  0  0
  161.2910  208.0970  151.9240 C   0  0  0  0  0  0  0  0  0  0  0  0
  161.8670  207.2710  154.2150 C   0  0  0  0  0  2  0  0  0  0  0  0
  161.8140  203.3640  151.5270 N   0  0  0  0  0  1  0  0  0  0  0  0
  161.3180  206.7310  151.3160 C   0  0  0  0  0  0  0  0  0  0  0  0
  161.4890  208.3230  153.2260 C   0  0  0  0  0  3  0  0  0  0  0  0
  161.0220  209.2390  151.1050 N   0  0  0  0  0  2  0  0  0  0  0  0
  163.0500  210.3280  151.5050 O   0  0  0  0  0  0  0  0  0  0  0  0
  161.9740  210.2790  150.8480 C   0  0  0  0  0  0  0  0  0  0  0  0
  159.6580  214.0640  149.9780 C   0  0  0  0  0  2  0  0  0  0  0  0
  161.6870  211.3050  149.8360 C   0  0  0  0  0  0  0  0  0  0  0  0
  159.9190  213.0750  151.0030 C   0  0  0  0  0  2  0  0  0  0  0  0
  161.9670  212.2870  147.5620 C   0  0  0  0  0  3  0  0  0  0  0  0
  160.5750  213.3300  149.0670 C   0  0  0  0  0  0  0  0  0  0  0  0
  160.8310  212.3670  150.0630 C   0  0  0  0  0  0  0  0  0  0  0  0
  161.1090  213.3290  147.8320 N   0  0  0  0  0  0  0  0  0  0  0  0
  162.2650  211.2790  148.5370 C   0  0  0  0  0  3  0  0  0  0  0  0
  161.0010  204.4080  148.4350 C   0  0  2  0  0  3  0  0  0  0  0  0
  160.6390  203.0690  148.6210 O   0  0  0  0  0  1  0  0  0  0  0  0
  162.7620  205.6810  147.3830 O   0  0  0  0  0  1  0  0  0  0  0  0
  161.9810  204.5280  147.2580 C   0  0  2  0  0  3  0  0  0  0  0  0
  160.5200  205.6780  145.3650 C   0  0  0  0  0  2  0  0  0  0  0  0
  160.9700  203.1550  145.2610 C   0  0  0  0  0  1  0  0  0  0  0  0
  161.3280  204.4970  145.8650 C   0  0  0  0  0  0  0  0  0  0  0  0
  161.9370  205.4540  144.8600 C   0  0  0  0  0  2  0  0  0  0  0  0
  2  1  1  6  0  0  0
  2 11  1  0  0  0  0
  4 24  1  6  0  0  0
  4  2  1  0  0  0  0
  4  7  1  0  0  0  0
  5  6  1  0  0  0  0
  6  3  2  0  0  0  0
  7 10  1  1  0  0  0
  7  5  1  0  0  0  0
  8 12  2  0  0  0  0
  9  3  1  0  0  0  0
 11  8  1  0  0  0  0
 11  5  2  0  0  0  0
 12  9  1  0  0  0  0
 13  8  1  0  0  0  0
 15 13  1  0  0  0  0
 15 14  2  0  0  0  0
 16 18  1  0  0  0  0
 17 21  1  0  0  0  0
 17 15  1  0  0  0  0
 19 22  2  0  0  0  0
 19 23  1  0  0  0  0
 20 16  1  0  0  0  0
 20 21  2  0  0  0  0
 21 18  1  0  0  0  0
 22 20  1  0  0  0  0
 23 17  2  0  0  0  0
 24 25  1  1  0  0  0
 27 26  1  1  0  0  0
 27 24  1  0  0  0  0
 28 30  1  0  0  0  0
 29 30  1  0  0  0  0
 30 27  1  0  0  0  0
 31 28  1  0  0  0  0
 31 30  1  0  0  0  0
M  END
>  <MODEL>
6

>  <REMARK>
 VINA RESULT:      -6.6      3.805      8.597
  Name = 
  5 active torsions:
  status: ('A' for Active; 'I' for Inactive)
    1  A    between atoms: C_3  and  C_20
    2  A    between atoms: C_4  and  C_12
    3  A    between atoms: C_4  and  C_22
    4  A    between atoms: N_15  and  C_21
    5  A    between atoms: C_22  and  C_25
                            x       y       z     vdW  Elec       q    Type
                         _______ _______ _______ _____ _____    ______ ____

>  <TORSDO>
F 5

$$$$
=
 OpenBabel11052409453D

 31 35  0  0  1  0  0  0  0  0999 V2000
  160.8310  207.5950  148.5410 O   0  0  0  0  0  1  0  0  0  0  0  0
  161.8360  207.2750  149.4590 C   0  0  2  0  0  3  0  0  0  0  0  0
  161.4000  209.4130  153.4410 C   0  0  0  0  0  3  0  0  0  0  0  0
  161.5760  205.9150  150.1160 C   0  0  1  0  0  3  0  0  0  0  0  0
  161.2570  207.6510  151.6910 C   0  0  0  0  0  0  0  0  0  0  0  0
  160.8170  208.3340  152.9240 C   0  0  0  0  0  3  0  0  0  0  0  0
  160.9440  206.2140  151.4700 C   0  0  2  0  0  3  0  0  0  0  0  0
  162.0770  209.6900  150.4430 C   0  0  0  0  0  0  0  0  0  0  0  0
  162.6350  210.0110  152.8620 C   0  0  0  0  0  2  0  0  0  0  0  0
  161.5800  205.4010  152.4930 N   0  0  0  0  0  1  0  0  0  0  0  0
  161.7770  208.2340  150.6030 C   0  0  0  0  0  0  0  0  0  0  0  0
  162.4120  210.4840  151.4640 C   0  0  0  0  0  3  0  0  0  0  0  0
  161.9910  210.3000  149.1530 N   0  0  0  0  0  2  0  0  0  0  0  0
  161.0220  212.3000  149.8750 O   0  0  0  0  0  0  0  0  0  0  0  0
  161.5480  211.6460  148.9340 C   0  0  0  0  0  0  0  0  0  0  0  0
  159.3500  212.8080  145.1570 C   0  0  0  0  0  2  0  0  0  0  0  0
  161.6860  212.2580  147.6050 C   0  0  0  0  0  0  0  0  0  0  0  0
  159.1740  212.2030  146.4610 C   0  0  0  0  0  2  0  0  0  0  0  0
  163.0420  213.3310  145.8090 C   0  0  0  0  0  3  0  0  0  0  0  0
  160.7930  212.9930  145.4620 C   0  0  0  0  0  0  0  0  0  0  0  0
  160.6240  212.4050  146.7310 C   0  0  0  0  0  0  0  0  0  0  0  0
  161.9570  213.4590  144.9720 N   0  0  0  0  0  0  0  0  0  0  0  0
  162.9290  212.7420  147.1120 C   0  0  0  0  0  3  0  0  0  0  0  0
  160.7780  204.9160  149.2620 C   0  0  2  0  0  3  0  0  0  0  0  0
  159.5700  204.5950  149.8900 O   0  0  0  0  0  1  0  0  0  0  0  0
  161.7510  203.4430  147.6160 O   0  0  0  0  0  1  0  0  0  0  0  0
  161.5850  203.6380  148.9910 C   0  0  2  0  0  3  0  0  0  0  0  0
  159.8090  201.6670  149.0110 C   0  0  0  0  0  2  0  0  0  0  0  0
  161.2060  202.1350  151.1100 C   0  0  0  0  0  1  0  0  0  0  0  0
  161.0080  202.3610  149.6260 C   0  0  0  0  0  0  0  0  0  0  0  0
  161.2060  201.1020  148.8050 C   0  0  0  0  0  2  0  0  0  0  0  0
  2  1  1  6  0  0  0
  2  4  1  0  0  0  0
  2 11  1  0  0  0  0
  4 24  1  6  0  0  0
  4  7  1  0  0  0  0
  5  6  1  0  0  0  0
  6  3  2  0  0  0  0
  7  5  1  0  0  0  0
  7 10  1  1  0  0  0
  8 11  1  0  0  0  0
  8 12  2  0  0  0  0
  9  3  1  0  0  0  0
 11  5  2  0  0  0  0
 12  9  1  0  0  0  0
 13  8  1  0  0  0  0
 15 13  1  0  0  0  0
 15 14  2  0  0  0  0
 16 20  1  0  0  0  0
 16 18  1  0  0  0  0
 17 15  1  0  0  0  0
 18 21  1  0  0  0  0
 19 23  2  0  0  0  0
 20 21  1  0  0  0  0
 21 17  2  0  0  0  0
 22 20  2  0  0  0  0
 22 19  1  0  0  0  0
 23 17  1  0  0  0  0
 24 25  1  1  0  0  0
 27 26  1  6  0  0  0
 27 24  1  0  0  0  0
 27 30  1  0  0  0  0
 28 30  1  0  0  0  0
 30 29  1  0  0  0  0
 31 28  1  0  0  0  0
 31 30  1  0  0  0  0
M  END
>  <MODEL>
7

>  <REMARK>
 VINA RESULT:      -6.5      4.360      8.626
  Name = 
  5 active torsions:
  status: ('A' for Active; 'I' for Inactive)
    1  A    between atoms: C_3  and  C_20
    2  A    between atoms: C_4  and  C_12
    3  A    between atoms: C_4  and  C_22
    4  A    between atoms: N_15  and  C_21
    5  A    between atoms: C_22  and  C_25
                            x       y       z     vdW  Elec       q    Type
                         _______ _______ _______ _____ _____    ______ ____

>  <TORSDO>
F 5

$$$$
=
 OpenBabel11052409453D

 31 35  0  0  1  0  0  0  0  0999 V2000
  161.1290  210.5600  151.4210 O   0  0  0  0  0  1  0  0  0  0  0  0
  160.0560  210.2970  152.2790 C   0  0  2  0  0  3  0  0  0  0  0  0
  161.2830  208.2640  156.1470 C   0  0  0  0  0  3  0  0  0  0  0  0
  159.6270  211.5610  153.0330 C   0  0  1  0  0  3  0  0  0  0  0  0
  160.6570  210.0370  154.5220 C   0  0  0  0  0  0  0  0  0  0  0  0
  161.3160  209.5290  155.7410 C   0  0  0  0  0  3  0  0  0  0  0  0
  160.2710  211.4700  154.4100 C   0  0  2  0  0  3  0  0  0  0  0  0
  160.9300  207.9690  153.0970 C   0  0  0  0  0  0  0  0  0  0  0  0
  160.4920  207.2160  155.4430 C   0  0  0  0  0  2  0  0  0  0  0  0
  159.2910  211.8040  155.4290 N   0  0  0  0  0  1  0  0  0  0  0  0
  160.5100  209.3780  153.3650 C   0  0  0  0  0  0  0  0  0  0  0  0
  160.9650  207.0240  154.0400 C   0  0  0  0  0  3  0  0  0  0  0  0
  161.3410  207.5830  151.7820 N   0  0  0  0  0  2  0  0  0  0  0  0
  160.8460  205.3110  152.0120 O   0  0  0  0  0  0  0  0  0  0  0  0
  161.1850  206.2600  151.2530 C   0  0  0  0  0  0  0  0  0  0  0  0
  161.1500  203.1150  148.0040 C   0  0  0  0  0  2  0  0  0  0  0  0
  161.4430  206.0020  149.8300 C   0  0  0  0  0  0  0  0  0  0  0  0
  160.8820  203.3320  149.4100 C   0  0  0  0  0  2  0  0  0  0  0  0
  162.1490  206.7390  147.5550 C   0  0  0  0  0  3  0  0  0  0  0  0
  161.5310  204.5470  147.8790 C   0  0  0  0  0  0  0  0  0  0  0  0
  161.2700  204.7600  149.2470 C   0  0  0  0  0  0  0  0  0  0  0  0
  161.9620  205.4870  147.0170 N   0  0  0  0  0  0  0  0  0  0  0  0
  161.8980  207.0140  148.9400 C   0  0  0  0  0  3  0  0  0  0  0  0
  159.8990  212.8850  152.3030 C   0  0  2  0  0  3  0  0  0  0  0  0
  159.3670  213.9590  153.0260 O   0  0  0  0  0  1  0  0  0  0  0  0
  160.2110  213.4700  149.9820 O   0  0  0  0  0  1  0  0  0  0  0  0
  159.3210  212.8730  150.8800 C   0  0  2  0  0  3  0  0  0  0  0  0
  157.6310  214.4530  149.5810 C   0  0  0  0  0  2  0  0  0  0  0  0
  157.1000  213.7340  151.9840 C   0  0  0  0  0  1  0  0  0  0  0  0
  157.9330  213.5220  150.7380 C   0  0  0  0  0  0  0  0  0  0  0  0
  157.1190  213.0210  149.5620 C   0  0  0  0  0  2  0  0  0  0  0  0
  2  1  1  6  0  0  0
  2  4  1  0  0  0  0
  2 11  1  0  0  0  0
  4 24  1  6  0  0  0
  4  7  1  0  0  0  0
  5  6  1  0  0  0  0
  6  3  2  0  0  0  0
  7  5  1  0  0  0  0
  7 10  1  1  0  0  0
  8 11  1  0  0  0  0
  8 12  2  0  0  0  0
  9  3  1  0  0  0  0
 11  5  2  0  0  0  0
 12  9  1  0  0  0  0
 13  8  1  0  0  0  0
 15 13  1  0  0  0  0
 15 14  2  0  0  0  0
 16 18  1  0  0  0  0
 17 15  1  0  0  0  0
 19 23  1  0  0  0  0
 20 16  1  0  0  0  0
 20 21  2  0  0  0  0
 21 18  1  0  0  0  0
 21 17  1  0  0  0  0
 22 19  2  0  0  0  0
 22 20  1  0  0  0  0
 23 17  2  0  0  0  0
 24 25  1  1  0  0  0
 27 26  1  6  0  0  0
 27 24  1  0  0  0  0
 28 30  1  0  0  0  0
 30 27  1  0  0  0  0
 30 29  1  0  0  0  0
 31 28  1  0  0  0  0
 31 30  1  0  0  0  0
M  END
>  <MODEL>
8

>  <REMARK>
 VINA RESULT:      -6.5      2.096      2.819
  Name = 
  5 active torsions:
  status: ('A' for Active; 'I' for Inactive)
    1  A    between atoms: C_3  and  C_20
    2  A    between atoms: C_4  and  C_12
    3  A    between atoms: C_4  and  C_22
    4  A    between atoms: N_15  and  C_21
    5  A    between atoms: C_22  and  C_25
                            x       y       z     vdW  Elec       q    Type
                         _______ _______ _______ _____ _____    ______ ____

>  <TORSDO>
F 5

$$$$
=
 OpenBabel11052409453D

 31 35  0  0  1  0  0  0  0  0999 V2000
  160.4530  204.9250  147.8810 O   0  0  0  0  0  1  0  0  0  0  0  0
  161.4900  204.0120  148.1030 C   0  0  2  0  0  3  0  0  0  0  0  0
  160.6440  201.0960  151.4780 C   0  0  0  0  0  3  0  0  0  0  0  0
  161.4660  202.8820  147.0680 C   0  0  1  0  0  3  0  0  0  0  0  0
  160.8310  202.0520  149.1900 C   0  0  0  0  0  0  0  0  0  0  0  0
  160.2660  201.1390  150.2040 C   0  0  0  0  0  3  0  0  0  0  0  0
  160.7780  201.7040  147.7450 C   0  0  2  0  0  3  0  0  0  0  0  0
  161.2930  204.0140  150.7140 C   0  0  0  0  0  0  0  0  0  0  0  0
  161.7620  201.9250  152.0110 C   0  0  0  0  0  2  0  0  0  0  0  0
  161.5360  200.4890  147.4960 N   0  0  0  0  0  1  0  0  0  0  0  0
  161.2520  203.3060  149.3980 C   0  0  0  0  0  0  0  0  0  0  0  0
  161.4730  203.3830  151.8780 C   0  0  0  0  0  3  0  0  0  0  0  0
  161.1140  205.4320  150.7700 N   0  0  0  0  0  2  0  0  0  0  0  0
  162.7060  205.8290  152.4320 O   0  0  0  0  0  0  0  0  0  0  0  0
  161.9160  206.3070  151.5740 C   0  0  0  0  0  0  0  0  0  0  0  0
  162.1150  209.7270  148.6220 C   0  0  0  0  0  2  0  0  0  0  0  0
  161.8000  207.7630  151.4150 C   0  0  0  0  0  0  0  0  0  0  0  0
  162.2330  208.2880  148.7390 C   0  0  0  0  0  2  0  0  0  0  0  0
  161.4180  210.0500  152.3280 C   0  0  0  0  0  3  0  0  0  0  0  0
  161.8450  209.8000  150.0820 C   0  0  0  0  0  0  0  0  0  0  0  0
  161.9580  208.4010  150.1980 C   0  0  0  0  0  0  0  0  0  0  0  0
  161.5820  210.6440  151.0980 N   0  0  0  0  0  0  0  0  0  0  0  0
  161.5210  208.6310  152.5060 C   0  0  0  0  0  3  0  0  0  0  0  0
  160.8650  203.2550  145.7030 C   0  0  2  0  0  3  0  0  0  0  0  0
  160.4080  202.1090  145.0420 O   0  0  0  0  0  1  0  0  0  0  0  0
  163.1370  204.0270  145.4400 O   0  0  0  0  0  1  0  0  0  0  0  0
  161.8820  203.9980  144.8240 C   0  0  2  0  0  3  0  0  0  0  0  0
  160.4560  206.1960  145.2460 C   0  0  0  0  0  2  0  0  0  0  0  0
  161.5810  205.8320  142.9700 C   0  0  0  0  0  1  0  0  0  0  0  0
  161.4710  205.4260  144.4240 C   0  0  0  0  0  0  0  0  0  0  0  0
  161.9390  206.5080  145.3760 C   0  0  0  0  0  2  0  0  0  0  0  0
  2  1  1  6  0  0  0
  2 11  1  0  0  0  0
  3  9  1  0  0  0  0
  4 24  1  6  0  0  0
  4  7  1  0  0  0  0
  4  2  1  0  0  0  0
  5 11  2  0  0  0  0
  5  6  1  0  0  0  0
  6  3  2  0  0  0  0
  7 10  1  1  0  0  0
  7  5  1  0  0  0  0
  8 13  1  0  0  0  0
  8 12  2  0  0  0  0
 11  8  1  0  0  0  0
 12  9  1  0  0  0  0
 13 15  1  0  0  0  0
 15 14  2  0  0  0  0
 16 18  1  0  0  0  0
 16 20  1  0  0  0  0
 17 15  1  0  0  0  0
 17 23  1  0  0  0  0
 18 21  1  0  0  0  0
 19 23  2  0  0  0  0
 20 21  1  0  0  0  0
 20 22  2  0  0  0  0
 21 17  2  0  0  0  0
 22 19  1  0  0  0  0
 24 25  1  6  0  0  0
 27 26  1  1  0  0  0
 27 24  1  0  0  0  0
 28 31  1  0  0  0  0
 29 30  1  0  0  0  0
 30 27  1  0  0  0  0
 30 28  1  0  0  0  0
 30 31  1  0  0  0  0
M  END
>  <MODEL>
9

>  <REMARK>
 VINA RESULT:      -6.3      4.673      9.883
  Name = 
  5 active torsions:
  status: ('A' for Active; 'I' for Inactive)
    1  A    between atoms: C_3  and  C_20
    2  A    between atoms: C_4  and  C_12
    3  A    between atoms: C_4  and  C_22
    4  A    between atoms: N_15  and  C_21
    5  A    between atoms: C_22  and  C_25
                            x       y       z     vdW  Elec       q    Type
                         _______ _______ _______ _____ _____    ______ ____

>  <TORSDO>
F 5

$$$$
