=
 OpenBabel11052409513D

 26 30  0  0  1  0  0  0  0  0999 V2000
  161.6510  207.2680  148.5050 C   0  0  0  0  0  0  0  0  0  0  0  0
  162.5760  209.9230  150.5700 C   0  0  0  0  0  3  0  0  0  0  0  0
  162.3580  208.4260  148.6340 N   0  0  0  0  0  0  0  0  0  0  0  0
  162.1050  208.8010  149.8990 C   0  0  0  0  0  0  0  0  0  0  0  0
  161.2820  207.9100  150.5110 C   0  0  0  0  0  0  0  0  0  0  0  0
  161.3540  209.2160  152.5040 C   0  0  0  0  0  3  0  0  0  0  0  0
  162.1840  210.1020  151.8670 N   0  0  0  0  0  0  0  0  0  0  0  0
  160.8720  208.0780  151.8320 C   0  0  0  0  0  3  0  0  0  0  0  0
  160.9770  206.9270  149.6430 N   0  0  0  0  0  0  0  0  0  0  0  0
  160.6810  202.3180  148.8220 C   0  0  0  0  0  2  0  0  0  0  0  0
  160.5400  203.6140  150.7490 C   0  0  1  0  0  3  0  0  0  0  0  0
  161.0440  203.6070  149.3950 N   0  0  2  0  0  0  0  0  0  0  0  0
  160.3240  204.7040  148.7730 C   0  0  0  0  0  2  0  0  0  0  0  0
  162.0000  201.6530  150.7970 O   0  0  0  0  0  0  0  0  0  0  0  0
  160.0190  200.5730  150.3290 F   0  0  0  0  0  0  0  0  0  0  0  0
  161.1340  201.1780  149.7690 C   0  0  0  0  0  0  0  0  0  0  0  0
  161.3730  202.6560  151.5950 C   0  0  0  0  0  2  0  0  0  0  0  0
  160.5060  205.0550  151.1780 C   0  0  0  0  0  2  0  0  0  0  0  0
  160.1350  205.7510  149.8740 C   0  0  1  0  0  3  0  0  0  0  0  0
  161.8100  200.2330  149.0220 F   0  0  0  0  0  0  0  0  0  0  0  0
  160.5650  206.6270  146.3550 C   0  0  0  0  0  3  0  0  0  0  0  0
  162.7010  205.6360  146.8930 C   0  0  0  0  0  3  0  0  0  0  0  0
  160.5340  205.9120  145.1550 C   0  0  0  0  0  3  0  0  0  0  0  0
  161.5880  205.0580  144.8230 C   0  0  0  0  0  3  0  0  0  0  0  0
  161.6490  206.4970  147.2380 C   0  0  0  0  0  0  0  0  0  0  0  0
  162.6720  204.9210  145.6940 C   0  0  0  0  0  3  0  0  0  0  0  0
  1  3  2  0  0  0  0
  1  9  1  0  0  0  0
  2  7  1  0  0  0  0
  3  4  1  0  0  0  0
  4  5  1  0  0  0  0
  4  2  2  0  0  0  0
  5  8  2  0  0  0  0
  7  6  2  0  0  0  0
  8  6  1  0  0  0  0
  9 19  1  0  0  0  0
  9  5  1  0  0  0  0
 10 12  1  0  0  0  0
 10 16  1  0  0  0  0
 11 18  1  1  0  0  0
 11 17  1  0  0  0  0
 12 13  1  6  0  0  0
 12 11  1  0  0  0  0
 14 17  1  0  0  0  0
 16 15  1  0  0  0  0
 16 14  1  0  0  0  0
 19 13  1  6  0  0  0
 19 18  1  0  0  0  0
 20 16  1  0  0  0  0
 21 25  1  0  0  0  0
 22 25  2  0  0  0  0
 23 21  2  0  0  0  0
 24 23  1  0  0  0  0
 24 26  2  0  0  0  0
 25  1  1  0  0  0  0
 26 22  1  0  0  0  0
M  END
>  <MODEL>
1

>  <REMARK>
 VINA RESULT:      -8.7      0.000      0.000
  Name = 
  2 active torsions:
  status: ('A' for Active; 'I' for Inactive)
    1  A    between atoms: C_1  and  C_19
    2  A    between atoms: C_21  and  N_26
                            x       y       z     vdW  Elec       q    Type
                         _______ _______ _______ _____ _____    ______ ____

>  <TORSDO>
F 2

$$$$
=
 OpenBabel11052409513D

 26 30  0  0  1  0  0  0  0  0999 V2000
  161.3780  206.0130  151.2640 C   0  0  0  0  0  0  0  0  0  0  0  0
  161.0530  202.5580  151.6220 C   0  0  0  0  0  3  0  0  0  0  0  0
  161.2980  204.9520  152.1160 N   0  0  0  0  0  0  0  0  0  0  0  0
  161.1730  203.9010  151.2880 C   0  0  0  0  0  0  0  0  0  0  0  0
  161.1760  204.3060  149.9910 C   0  0  0  0  0  0  0  0  0  0  0  0
  160.9390  202.0420  149.2860 C   0  0  0  0  0  3  0  0  0  0  0  0
  160.9370  201.6550  150.6020 N   0  0  0  0  0  0  0  0  0  0  0  0
  161.0600  203.3990  148.9390 C   0  0  0  0  0  3  0  0  0  0  0  0
  161.3040  205.6460  149.9500 N   0  0  0  0  0  0  0  0  0  0  0  0
  162.4380  205.6750  145.3980 C   0  0  0  0  0  2  0  0  0  0  0  0
  160.5430  206.3250  146.5810 C   0  0  1  0  0  3  0  0  0  0  0  0
  161.7170  205.4860  146.6500 N   0  0  2  0  0  0  0  0  0  0  0  0
  162.4410  206.0300  147.7850 C   0  0  0  0  0  2  0  0  0  0  0  0
  160.2300  204.9080  144.6120 O   0  0  0  0  0  0  0  0  0  0  0  0
  161.2580  206.6890  143.5730 F   0  0  0  0  0  0  0  0  0  0  0  0
  161.4730  205.4730  144.2030 C   0  0  0  0  0  0  0  0  0  0  0  0
  159.5660  205.7310  145.5710 C   0  0  0  0  0  2  0  0  0  0  0  0
  160.0550  206.4820  147.9950 C   0  0  0  0  0  2  0  0  0  0  0  0
  161.3680  206.5090  148.7680 C   0  0  1  0  0  3  0  0  0  0  0  0
  162.0720  204.6160  143.2990 F   0  0  0  0  0  0  0  0  0  0  0  0
  160.9730  207.7500  153.0050 C   0  0  0  0  0  3  0  0  0  0  0  0
  162.2130  208.3820  151.0300 C   0  0  0  0  0  3  0  0  0  0  0  0
  161.0990  209.0500  153.5010 C   0  0  0  0  0  3  0  0  0  0  0  0
  161.7820  210.0180  152.7610 C   0  0  0  0  0  3  0  0  0  0  0  0
  161.5290  207.4010  151.7640 C   0  0  0  0  0  0  0  0  0  0  0  0
  162.3390  209.6820  151.5240 C   0  0  0  0  0  3  0  0  0  0  0  0
  1 25  1  0  0  0  0
  1  3  2  0  0  0  0
  4  2  1  0  0  0  0
  4  3  1  0  0  0  0
  5  4  2  0  0  0  0
  6  7  1  0  0  0  0
  7  2  2  0  0  0  0
  8  6  2  0  0  0  0
  8  5  1  0  0  0  0
  9  5  1  0  0  0  0
  9  1  1  0  0  0  0
 11 17  1  6  0  0  0
 11 12  1  0  0  0  0
 11 18  1  0  0  0  0
 12 10  1  6  0  0  0
 12 13  1  0  0  0  0
 14 17  1  0  0  0  0
 15 16  1  0  0  0  0
 16 14  1  0  0  0  0
 16 10  1  0  0  0  0
 18 19  1  0  0  0  0
 19 13  1  6  0  0  0
 19  9  1  0  0  0  0
 20 16  1  0  0  0  0
 21 23  1  0  0  0  0
 22 26  2  0  0  0  0
 22 25  1  0  0  0  0
 24 23  2  0  0  0  0
 25 21  2  0  0  0  0
 26 24  1  0  0  0  0
M  END
>  <MODEL>
2

>  <REMARK>
 VINA RESULT:      -8.3      3.011      6.169
  Name = 
  2 active torsions:
  status: ('A' for Active; 'I' for Inactive)
    1  A    between atoms: C_1  and  C_19
    2  A    between atoms: C_21  and  N_26
                            x       y       z     vdW  Elec       q    Type
                         _______ _______ _______ _____ _____    ______ ____

>  <TORSDO>
F 2

$$$$
=
 OpenBabel11052409513D

 26 30  0  0  1  0  0  0  0  0999 V2000
  160.2680  210.4070  154.3180 C   0  0  0  0  0  0  0  0  0  0  0  0
  158.6970  213.2770  153.1100 C   0  0  0  0  0  3  0  0  0  0  0  0
  159.3980  211.4270  154.5650 N   0  0  0  0  0  0  0  0  0  0  0  0
  159.4100  212.1260  153.4170 C   0  0  0  0  0  0  0  0  0  0  0  0
  160.2490  211.5550  152.5140 C   0  0  0  0  0  0  0  0  0  0  0  0
  159.7090  213.2610  150.9400 C   0  0  0  0  0  3  0  0  0  0  0  0
  158.8680  213.8200  151.8670 N   0  0  0  0  0  0  0  0  0  0  0  0
  160.4350  212.0950  151.2430 C   0  0  0  0  0  3  0  0  0  0  0  0
  160.8090  210.4610  153.0650 N   0  0  0  0  0  0  0  0  0  0  0  0
  161.1040  206.7320  150.2340 C   0  0  0  0  0  2  0  0  0  0  0  0
  162.1400  208.8160  150.2530 C   0  0  1  0  0  3  0  0  0  0  0  0
  160.9780  208.0980  150.7250 N   0  0  2  0  0  0  0  0  0  0  0  0
  161.1130  208.1740  152.1690 C   0  0  0  0  0  2  0  0  0  0  0  0
  161.1700  208.0410  148.1450 O   0  0  0  0  0  0  0  0  0  0  0  0
  162.6710  206.3230  148.4650 F   0  0  0  0  0  0  0  0  0  0  0  0
  161.3740  206.7480  148.7080 C   0  0  0  0  0  0  0  0  0  0  0  0
  162.0190  209.0190  148.7450 C   0  0  0  0  0  2  0  0  0  0  0  0
  162.2470  210.0500  151.1030 C   0  0  0  0  0  2  0  0  0  0  0  0
  161.7610  209.5320  152.4530 C   0  0  1  0  0  3  0  0  0  0  0  0
  160.5060  205.8590  148.1030 F   0  0  0  0  0  0  0  0  0  0  0  0
  159.6720  208.2980  155.5050 C   0  0  0  0  0  3  0  0  0  0  0  0
  161.7030  209.4340  156.1500 C   0  0  0  0  0  3  0  0  0  0  0  0
  159.9210  207.3080  156.4600 C   0  0  0  0  0  3  0  0  0  0  0  0
  161.0630  207.3810  157.2610 C   0  0  0  0  0  3  0  0  0  0  0  0
  160.5600  209.3710  155.3390 C   0  0  0  0  0  0  0  0  0  0  0  0
  161.9540  208.4460  157.1050 C   0  0  0  0  0  3  0  0  0  0  0  0
  1  3  2  0  0  0  0
  1 25  1  0  0  0  0
  2  4  1  0  0  0  0
  4  3  1  0  0  0  0
  5  9  1  0  0  0  0
  5  4  2  0  0  0  0
  6  8  2  0  0  0  0
  6  7  1  0  0  0  0
  7  2  2  0  0  0  0
  8  5  1  0  0  0  0
  9  1  1  0  0  0  0
 11 17  1  6  0  0  0
 11 12  1  0  0  0  0
 11 18  1  0  0  0  0
 12 10  1  6  0  0  0
 12 13  1  0  0  0  0
 13 19  1  0  0  0  0
 14 16  1  0  0  0  0
 14 17  1  0  0  0  0
 15 16  1  0  0  0  0
 16 10  1  0  0  0  0
 19 18  1  6  0  0  0
 19  9  1  0  0  0  0
 20 16  1  0  0  0  0
 21 23  1  0  0  0  0
 22 26  2  0  0  0  0
 23 24  2  0  0  0  0
 25 21  2  0  0  0  0
 25 22  1  0  0  0  0
 26 24  1  0  0  0  0
M  END
>  <MODEL>
3

>  <REMARK>
 VINA RESULT:      -7.7      3.695      7.129
  Name = 
  2 active torsions:
  status: ('A' for Active; 'I' for Inactive)
    1  A    between atoms: C_1  and  C_19
    2  A    between atoms: C_21  and  N_26
                            x       y       z     vdW  Elec       q    Type
                         _______ _______ _______ _____ _____    ______ ____

>  <TORSDO>
F 2

$$$$
=
 OpenBabel11052409513D

 26 30  0  0  1  0  0  0  0  0999 V2000
  161.1560  207.5240  151.3570 C   0  0  0  0  0  0  0  0  0  0  0  0
  160.4610  209.5780  154.0890 C   0  0  0  0  0  3  0  0  0  0  0  0
  160.7860  208.7600  151.7950 N   0  0  0  0  0  0  0  0  0  0  0  0
  160.7720  208.6210  153.1320 C   0  0  0  0  0  0  0  0  0  0  0  0
  161.1180  207.3560  153.4890 C   0  0  0  0  0  0  0  0  0  0  0  0
  160.8610  207.9380  155.7860 C   0  0  0  0  0  3  0  0  0  0  0  0
  160.5140  209.2080  155.4030 N   0  0  0  0  0  0  0  0  0  0  0  0
  161.1770  206.9610  154.8240 C   0  0  0  0  0  3  0  0  0  0  0  0
  161.3650  206.6390  152.3760 N   0  0  0  0  0  0  0  0  0  0  0  0
  159.8760  202.3680  151.1320 C   0  0  0  0  0  2  0  0  0  0  0  0
  161.7370  203.6450  150.5640 C   0  0  1  0  0  3  0  0  0  0  0  0
  160.3910  203.7310  151.0810 N   0  0  2  0  0  0  0  0  0  0  0  0
  160.5870  204.2900  152.4070 C   0  0  0  0  0  2  0  0  0  0  0  0
  160.4630  202.6120  148.7490 O   0  0  0  0  0  0  0  0  0  0  0  0
  161.0420  200.6890  149.8770 F   0  0  0  0  0  0  0  0  0  0  0  0
  160.0810  201.6810  149.7580 C   0  0  0  0  0  0  0  0  0  0  0  0
  161.6770  203.2840  149.0810 C   0  0  0  0  0  2  0  0  0  0  0  0
  162.4100  204.9390  150.9260 C   0  0  0  0  0  2  0  0  0  0  0  0
  161.7830  205.2380  152.2830 C   0  0  1  0  0  3  0  0  0  0  0  0
  158.8900  201.0880  149.3860 F   0  0  0  0  0  0  0  0  0  0  0  0
  162.4820  207.5970  149.2480 C   0  0  0  0  0  3  0  0  0  0  0  0
  160.2930  206.5780  149.1830 C   0  0  0  0  0  3  0  0  0  0  0  0
  162.6480  207.3280  147.8860 C   0  0  0  0  0  3  0  0  0  0  0  0
  161.6350  206.6850  147.1720 C   0  0  0  0  0  3  0  0  0  0  0  0
  161.3030  207.2240  149.9120 C   0  0  0  0  0  0  0  0  0  0  0  0
  160.4560  206.3100  147.8220 C   0  0  0  0  0  3  0  0  0  0  0  0
  1  3  2  0  0  0  0
  1  9  1  0  0  0  0
  2  7  1  0  0  0  0
  3  4  1  0  0  0  0
  4  5  1  0  0  0  0
  4  2  2  0  0  0  0
  5  8  2  0  0  0  0
  7  6  2  0  0  0  0
  8  6  1  0  0  0  0
  9  5  1  0  0  0  0
 11 17  1  6  0  0  0
 11 18  1  0  0  0  0
 11 12  1  0  0  0  0
 12 10  1  1  0  0  0
 12 13  1  0  0  0  0
 14 17  1  0  0  0  0
 14 16  1  0  0  0  0
 16 15  1  0  0  0  0
 16 10  1  0  0  0  0
 19 18  1  6  0  0  0
 19  9  1  0  0  0  0
 19 13  1  0  0  0  0
 20 16  1  0  0  0  0
 21 25  1  0  0  0  0
 22 25  2  0  0  0  0
 23 21  2  0  0  0  0
 24 26  2  0  0  0  0
 24 23  1  0  0  0  0
 25  1  1  0  0  0  0
 26 22  1  0  0  0  0
M  END
>  <MODEL>
4

>  <REMARK>
 VINA RESULT:      -7.4      1.918      3.009
  Name = 
  2 active torsions:
  status: ('A' for Active; 'I' for Inactive)
    1  A    between atoms: C_1  and  C_19
    2  A    between atoms: C_21  and  N_26
                            x       y       z     vdW  Elec       q    Type
                         _______ _______ _______ _____ _____    ______ ____

>  <TORSDO>
F 2

$$$$
=
 OpenBabel11052409513D

 26 30  0  0  1  0  0  0  0  0999 V2000
  161.8650  210.1520  149.4650 C   0  0  0  0  0  0  0  0  0  0  0  0
  161.5840  206.6800  149.2800 C   0  0  0  0  0  3  0  0  0  0  0  0
  161.8650  209.0440  148.6720 N   0  0  0  0  0  0  0  0  0  0  0  0
  161.6710  208.0410  149.5450 C   0  0  0  0  0  0  0  0  0  0  0  0
  161.5570  208.5190  150.8110 C   0  0  0  0  0  0  0  0  0  0  0  0
  161.2620  206.2970  151.6210 C   0  0  0  0  0  3  0  0  0  0  0  0
  161.3800  205.8360  150.3350 N   0  0  0  0  0  0  0  0  0  0  0  0
  161.3500  207.6730  151.8990 C   0  0  0  0  0  3  0  0  0  0  0  0
  161.6790  209.8600  150.7870 N   0  0  0  0  0  0  0  0  0  0  0  0
  158.8360  211.4220  154.1750 C   0  0  0  0  0  2  0  0  0  0  0  0
  160.9990  210.5650  154.1670 C   0  0  1  0  0  3  0  0  0  0  0  0
  159.7700  210.6050  153.4100 N   0  0  2  0  0  0  0  0  0  0  0  0
  160.1700  211.2490  152.1720 C   0  0  0  0  0  2  0  0  0  0  0  0
  159.4130  209.6480  155.7870 O   0  0  0  0  0  0  0  0  0  0  0  0
  159.3520  211.8440  156.4790 F   0  0  0  0  0  0  0  0  0  0  0  0
  158.7700  210.9100  155.6360 C   0  0  0  0  0  0  0  0  0  0  0  0
  160.7890  209.7060  155.4120 C   0  0  0  0  0  2  0  0  0  0  0  0
  162.0700  210.1270  153.2070 C   0  0  0  0  0  2  0  0  0  0  0  0
  161.6090  210.7910  151.9150 C   0  0  1  0  0  3  0  0  0  0  0  0
  157.4410  210.7750  155.9910 F   0  0  0  0  0  0  0  0  0  0  0  0
  163.2360  211.8160  148.2150 C   0  0  0  0  0  3  0  0  0  0  0  0
  161.0710  212.5070  149.0330 C   0  0  0  0  0  3  0  0  0  0  0  0
  163.4390  213.0880  147.6730 C   0  0  0  0  0  3  0  0  0  0  0  0
  162.4570  214.0710  147.8120 C   0  0  0  0  0  3  0  0  0  0  0  0
  162.0500  211.5110  148.9000 C   0  0  0  0  0  0  0  0  0  0  0  0
  161.2720  213.7800  148.4920 C   0  0  0  0  0  3  0  0  0  0  0  0
  1  9  1  0  0  0  0
  2  4  2  0  0  0  0
  2  7  1  0  0  0  0
  3  1  2  0  0  0  0
  3  4  1  0  0  0  0
  4  5  1  0  0  0  0
  5  8  2  0  0  0  0
  6  8  1  0  0  0  0
  7  6  2  0  0  0  0
  9  5  1  0  0  0  0
 10 16  1  0  0  0  0
 11 18  1  6  0  0  0
 11 17  1  0  0  0  0
 12 13  1  6  0  0  0
 12 11  1  0  0  0  0
 12 10  1  0  0  0  0
 16 14  1  0  0  0  0
 16 20  1  0  0  0  0
 16 15  1  0  0  0  0
 17 14  1  0  0  0  0
 19  9  1  6  0  0  0
 19 13  1  0  0  0  0
 19 18  1  0  0  0  0
 21 25  1  0  0  0  0
 23 24  1  0  0  0  0
 23 21  2  0  0  0  0
 24 26  2  0  0  0  0
 25 22  2  0  0  0  0
 25  1  1  0  0  0  0
 26 22  1  0  0  0  0
M  END
>  <MODEL>
5

>  <REMARK>
 VINA RESULT:      -7.3      4.789      7.418
  Name = 
  2 active torsions:
  status: ('A' for Active; 'I' for Inactive)
    1  A    between atoms: C_1  and  C_19
    2  A    between atoms: C_21  and  N_26
                            x       y       z     vdW  Elec       q    Type
                         _______ _______ _______ _____ _____    ______ ____

>  <TORSDO>
F 2

$$$$
=
 OpenBabel11052409513D

 26 30  0  0  1  0  0  0  0  0999 V2000
  161.2480  205.5570  150.9670 C   0  0  0  0  0  0  0  0  0  0  0  0
  160.8310  208.4130  152.9250 C   0  0  0  0  0  3  0  0  0  0  0  0
  160.7810  206.0890  152.1310 N   0  0  0  0  0  0  0  0  0  0  0  0
  161.0830  207.3930  152.0170 C   0  0  0  0  0  0  0  0  0  0  0  0
  161.7070  207.6410  150.8360 C   0  0  0  0  0  0  0  0  0  0  0  0
  161.8630  209.9500  151.4070 C   0  0  0  0  0  3  0  0  0  0  0  0
  161.2320  209.6770  152.5930 N   0  0  0  0  0  0  0  0  0  0  0  0
  162.1220  208.9230  150.4810 C   0  0  0  0  0  3  0  0  0  0  0  0
  161.8260  206.4880  150.1510 N   0  0  0  0  0  0  0  0  0  0  0  0
  161.4380  203.9380  146.2330 C   0  0  0  0  0  2  0  0  0  0  0  0
  161.5450  206.2240  146.6530 C   0  0  1  0  0  3  0  0  0  0  0  0
  161.2280  204.9510  147.2590 N   0  0  2  0  0  0  0  0  0  0  0  0
  162.2000  204.8510  148.3330 C   0  0  0  0  0  2  0  0  0  0  0  0
  159.7780  205.4170  145.1660 O   0  0  0  0  0  0  0  0  0  0  0  0
  161.5900  204.6710  143.9550 F   0  0  0  0  0  0  0  0  0  0  0  0
  160.6770  204.3340  144.9420 C   0  0  0  0  0  0  0  0  0  0  0  0
  160.4560  206.5780  145.6430 C   0  0  0  0  0  2  0  0  0  0  0  0
  161.7660  207.1860  147.7860 C   0  0  0  0  0  2  0  0  0  0  0  0
  162.4180  206.2830  148.8270 C   0  0  1  0  0  3  0  0  0  0  0  0
  159.9540  203.2400  144.5090 F   0  0  0  0  0  0  0  0  0  0  0  0
  161.9560  203.1930  151.3230 C   0  0  0  0  0  3  0  0  0  0  0  0
  160.1810  203.6270  149.7420 C   0  0  0  0  0  3  0  0  0  0  0  0
  161.8570  201.8240  151.0590 C   0  0  0  0  0  3  0  0  0  0  0  0
  160.9190  201.3560  150.1360 C   0  0  0  0  0  3  0  0  0  0  0  0
  161.1190  204.1100  150.6670 C   0  0  0  0  0  0  0  0  0  0  0  0
  160.0810  202.2590  149.4770 C   0  0  0  0  0  3  0  0  0  0  0  0
  1  3  2  0  0  0  0
  4  3  1  0  0  0  0
  4  2  2  0  0  0  0
  5  4  1  0  0  0  0
  6  7  2  0  0  0  0
  7  2  1  0  0  0  0
  8  5  2  0  0  0  0
  8  6  1  0  0  0  0
  9  5  1  0  0  0  0
  9  1  1  0  0  0  0
 11 17  1  6  0  0  0
 11 12  1  0  0  0  0
 11 18  1  0  0  0  0
 12 10  1  6  0  0  0
 12 13  1  0  0  0  0
 13 19  1  0  0  0  0
 14 17  1  0  0  0  0
 15 16  1  0  0  0  0
 16 14  1  0  0  0  0
 16 10  1  0  0  0  0
 19 18  1  6  0  0  0
 19  9  1  0  0  0  0
 20 16  1  0  0  0  0
 22 25  1  0  0  0  0
 23 21  1  0  0  0  0
 24 23  2  0  0  0  0
 25  1  1  0  0  0  0
 25 21  2  0  0  0  0
 26 22  2  0  0  0  0
 26 24  1  0  0  0  0
M  END
>  <MODEL>
6

>  <REMARK>
 VINA RESULT:      -7.2      2.515      4.612
  Name = 
  2 active torsions:
  status: ('A' for Active; 'I' for Inactive)
    1  A    between atoms: C_1  and  C_19
    2  A    between atoms: C_21  and  N_26
                            x       y       z     vdW  Elec       q    Type
                         _______ _______ _______ _____ _____    ______ ____

>  <TORSDO>
F 2

$$$$
=
 OpenBabel11052409513D

 26 30  0  0  1  0  0  0  0  0999 V2000
  161.4540  207.3790  150.3710 C   0  0  0  0  0  0  0  0  0  0  0  0
  162.3850  210.0820  148.3730 C   0  0  0  0  0  3  0  0  0  0  0  0
  161.9460  207.8020  149.1720 N   0  0  0  0  0  0  0  0  0  0  0  0
  161.9680  209.1390  149.3030 C   0  0  0  0  0  0  0  0  0  0  0  0
  161.5110  209.5110  150.5270 C   0  0  0  0  0  0  0  0  0  0  0  0
  161.8620  211.7990  149.9580 C   0  0  0  0  0  3  0  0  0  0  0  0
  162.3200  211.4000  148.7280 N   0  0  0  0  0  0  0  0  0  0  0  0
  161.4370  210.8500  150.9050 C   0  0  0  0  0  3  0  0  0  0  0  0
  161.1750  208.4090  151.2240 N   0  0  0  0  0  0  0  0  0  0  0  0
  162.0330  209.7450  155.6380 C   0  0  0  0  0  2  0  0  0  0  0  0
  160.1850  209.9340  154.2370 C   0  0  1  0  0  3  0  0  0  0  0  0
  161.6170  209.7450  154.2420 N   0  0  2  0  0  0  0  0  0  0  0  0
  161.7750  208.4400  153.6250 C   0  0  0  0  0  2  0  0  0  0  0  0
  160.9250  211.9380  155.4280 O   0  0  0  0  0  0  0  0  0  0  0  0
  160.4930  210.6110  157.2610 F   0  0  0  0  0  0  0  0  0  0  0  0
  161.4660  210.9980  156.3530 C   0  0  0  0  0  0  0  0  0  0  0  0
  159.8720  211.3700  154.6510 C   0  0  0  0  0  2  0  0  0  0  0  0
  159.7060  209.4920  152.8830 C   0  0  0  0  0  2  0  0  0  0  0  0
  160.6520  208.3330  152.5900 C   0  0  1  0  0  3  0  0  0  0  0  0
  162.4940  211.6040  157.0500 F   0  0  0  0  0  0  0  0  0  0  0  0
  161.4450  205.4750  151.9800 C   0  0  0  0  0  3  0  0  0  0  0  0
  160.9010  205.0200  149.6710 C   0  0  0  0  0  3  0  0  0  0  0  0
  161.2720  204.1230  152.2880 C   0  0  0  0  0  3  0  0  0  0  0  0
  160.9130  203.2180  151.2870 C   0  0  0  0  0  3  0  0  0  0  0  0
  161.2610  205.9390  150.6670 C   0  0  0  0  0  0  0  0  0  0  0  0
  160.7270  203.6680  149.9770 C   0  0  0  0  0  3  0  0  0  0  0  0
  1 25  1  0  0  0  0
  1  9  1  0  0  0  0
  2  7  2  0  0  0  0
  2  4  1  0  0  0  0
  3  4  1  0  0  0  0
  3  1  2  0  0  0  0
  4  5  2  0  0  0  0
  5  8  1  0  0  0  0
  5  9  1  0  0  0  0
  6  8  2  0  0  0  0
  7  6  1  0  0  0  0
 10 16  1  0  0  0  0
 11 18  1  6  0  0  0
 11 12  1  0  0  0  0
 11 17  1  0  0  0  0
 12 13  1  1  0  0  0
 12 10  1  0  0  0  0
 14 16  1  0  0  0  0
 16 20  1  0  0  0  0
 16 15  1  0  0  0  0
 17 14  1  0  0  0  0
 19  9  1  6  0  0  0
 19 18  1  0  0  0  0
 19 13  1  0  0  0  0
 21 23  1  0  0  0  0
 22 26  2  0  0  0  0
 22 25  1  0  0  0  0
 24 23  2  0  0  0  0
 25 21  2  0  0  0  0
 26 24  1  0  0  0  0
M  END
>  <MODEL>
7

>  <REMARK>
 VINA RESULT:      -6.9      4.806      6.866
  Name = 
  2 active torsions:
  status: ('A' for Active; 'I' for Inactive)
    1  A    between atoms: C_1  and  C_19
    2  A    between atoms: C_21  and  N_26
                            x       y       z     vdW  Elec       q    Type
                         _______ _______ _______ _____ _____    ______ ____

>  <TORSDO>
F 2

$$$$
=
 OpenBabel11052409513D

 26 30  0  0  1  0  0  0  0  0999 V2000
  161.5240  208.9120  150.8290 C   0  0  0  0  0  0  0  0  0  0  0  0
  161.7800  206.7200  153.5290 C   0  0  0  0  0  3  0  0  0  0  0  0
  161.7800  208.7580  152.1580 N   0  0  0  0  0  0  0  0  0  0  0  0
  161.6330  207.4360  152.3480 C   0  0  0  0  0  0  0  0  0  0  0  0
  161.3020  206.8160  151.1860 C   0  0  0  0  0  0  0  0  0  0  0  0
  161.2460  204.7220  152.3230 C   0  0  0  0  0  3  0  0  0  0  0  0
  161.5810  205.3680  153.4840 N   0  0  0  0  0  0  0  0  0  0  0  0
  161.0950  205.4390  151.1220 C   0  0  0  0  0  3  0  0  0  0  0  0
  161.2250  207.7350  150.2040 N   0  0  0  0  0  0  0  0  0  0  0  0
  162.9050  205.8570  146.2480 C   0  0  0  0  0  2  0  0  0  0  0  0
  160.9000  205.6260  147.4060 C   0  0  1  0  0  3  0  0  0  0  0  0
  162.2830  206.0180  147.5550 N   0  0  2  0  0  0  0  0  0  0  0  0
  162.1850  207.4130  147.9460 C   0  0  0  0  0  2  0  0  0  0  0  0
  162.0510  203.5880  146.6960 O   0  0  0  0  0  0  0  0  0  0  0  0
  161.7490  204.5320  144.6170 F   0  0  0  0  0  0  0  0  0  0  0  0
  162.6110  204.4380  145.6990 C   0  0  0  0  0  0  0  0  0  0  0  0
  160.8310  204.1130  147.2160 C   0  0  0  0  0  2  0  0  0  0  0  0
  160.1690  206.2020  148.5860 C   0  0  0  0  0  2  0  0  0  0  0  0
  160.9120  207.5170  148.7900 C   0  0  1  0  0  3  0  0  0  0  0  0
  163.7990  203.8860  145.2610 F   0  0  0  0  0  0  0  0  0  0  0  0
  160.8560  211.3120  150.7320 C   0  0  0  0  0  3  0  0  0  0  0  0
  162.3310  210.4690  149.0150 C   0  0  0  0  0  3  0  0  0  0  0  0
  160.8880  212.5770  150.1390 C   0  0  0  0  0  3  0  0  0  0  0  0
  161.6410  212.7880  148.9820 C   0  0  0  0  0  3  0  0  0  0  0  0
  161.5780  210.2440  150.1770 C   0  0  0  0  0  0  0  0  0  0  0  0
  162.3640  211.7320  148.4200 C   0  0  0  0  0  3  0  0  0  0  0  0
  1  3  2  0  0  0  0
  3  4  1  0  0  0  0
  4  2  2  0  0  0  0
  5  4  1  0  0  0  0
  6  7  2  0  0  0  0
  7  2  1  0  0  0  0
  8  5  2  0  0  0  0
  8  6  1  0  0  0  0
  9  1  1  0  0  0  0
  9  5  1  0  0  0  0
 11 17  1  1  0  0  0
 11 12  1  0  0  0  0
 11 18  1  0  0  0  0
 12 10  1  6  0  0  0
 12 13  1  0  0  0  0
 14 17  1  0  0  0  0
 15 16  1  0  0  0  0
 16 10  1  0  0  0  0
 16 14  1  0  0  0  0
 18 19  1  0  0  0  0
 19 13  1  6  0  0  0
 19  9  1  0  0  0  0
 20 16  1  0  0  0  0
 22 25  2  0  0  0  0
 23 21  2  0  0  0  0
 24 23  1  0  0  0  0
 25 21  1  0  0  0  0
 25  1  1  0  0  0  0
 26 24  2  0  0  0  0
 26 22  1  0  0  0  0
M  END
>  <MODEL>
8

>  <REMARK>
 VINA RESULT:      -6.8      2.604      4.906
  Name = 
  2 active torsions:
  status: ('A' for Active; 'I' for Inactive)
    1  A    between atoms: C_1  and  C_19
    2  A    between atoms: C_21  and  N_26
                            x       y       z     vdW  Elec       q    Type
                         _______ _______ _______ _____ _____    ______ ____

>  <TORSDO>
F 2

$$$$
=
 OpenBabel11052409513D

 26 30  0  0  1  0  0  0  0  0999 V2000
  161.2940  207.9070  153.0790 C   0  0  0  0  0  0  0  0  0  0  0  0
  162.1410  206.6250  149.9480 C   0  0  0  0  0  3  0  0  0  0  0  0
  161.5950  206.8060  152.3360 N   0  0  0  0  0  0  0  0  0  0  0  0
  161.8000  207.3100  151.1070 C   0  0  0  0  0  0  0  0  0  0  0  0
  161.6320  208.6580  151.1050 C   0  0  0  0  0  0  0  0  0  0  0  0
  162.1370  208.7140  148.7760 C   0  0  0  0  0  3  0  0  0  0  0  0
  162.3010  207.3530  148.8020 N   0  0  0  0  0  0  0  0  0  0  0  0
  161.7920  209.4150  149.9460 C   0  0  0  0  0  3  0  0  0  0  0  0
  161.3080  209.0620  152.3480 N   0  0  0  0  0  0  0  0  0  0  0  0
  158.1710  211.7080  154.6190 C   0  0  0  0  0  2  0  0  0  0  0  0
  160.4540  211.3470  154.8850 C   0  0  1  0  0  3  0  0  0  0  0  0
  159.2510  210.7740  154.3280 N   0  0  2  0  0  0  0  0  0  0  0  0
  159.5480  210.7090  152.9080 C   0  0  0  0  0  2  0  0  0  0  0  0
  159.0360  211.1980  156.8720 O   0  0  0  0  0  0  0  0  0  0  0  0
  158.5630  213.3780  156.2960 F   0  0  0  0  0  0  0  0  0  0  0  0
  158.1750  212.0570  156.1290 C   0  0  0  0  0  0  0  0  0  0  0  0
  160.3830  211.2690  156.4080 C   0  0  0  0  0  2  0  0  0  0  0  0
  161.6030  210.6450  154.2160 C   0  0  0  0  0  2  0  0  0  0  0  0
  161.0500  210.4260  152.8130 C   0  0  1  0  0  3  0  0  0  0  0  0
  156.8880  211.9190  156.6110 F   0  0  0  0  0  0  0  0  0  0  0  0
  159.7060  207.4240  154.9380 C   0  0  0  0  0  3  0  0  0  0  0  0
  161.9570  208.0910  155.5060 C   0  0  0  0  0  3  0  0  0  0  0  0
  159.3920  207.3230  156.2970 C   0  0  0  0  0  3  0  0  0  0  0  0
  160.3620  207.6070  157.2610 C   0  0  0  0  0  3  0  0  0  0  0  0
  160.9920  207.8080  154.5280 C   0  0  0  0  0  0  0  0  0  0  0  0
  161.6460  207.9920  156.8640 C   0  0  0  0  0  3  0  0  0  0  0  0
  1 25  1  0  0  0  0
  2  4  1  0  0  0  0
  3  1  2  0  0  0  0
  4  3  1  0  0  0  0
  5  4  2  0  0  0  0
  5  9  1  0  0  0  0
  6  7  1  0  0  0  0
  6  8  2  0  0  0  0
  7  2  2  0  0  0  0
  8  5  1  0  0  0  0
  9  1  1  0  0  0  0
 10 16  1  0  0  0  0
 11 18  1  6  0  0  0
 11 17  1  0  0  0  0
 12 13  1  6  0  0  0
 12 10  1  0  0  0  0
 12 11  1  0  0  0  0
 16 15  1  0  0  0  0
 16 20  1  0  0  0  0
 16 14  1  0  0  0  0
 17 14  1  0  0  0  0
 19  9  1  1  0  0  0
 19 13  1  0  0  0  0
 19 18  1  0  0  0  0
 21 23  1  0  0  0  0
 22 26  2  0  0  0  0
 23 24  2  0  0  0  0
 25 21  2  0  0  0  0
 25 22  1  0  0  0  0
 26 24  1  0  0  0  0
M  END
>  <MODEL>
9

>  <REMARK>
 VINA RESULT:      -6.7      5.448      8.714
  Name = 
  2 active torsions:
  status: ('A' for Active; 'I' for Inactive)
    1  A    between atoms: C_1  and  C_19
    2  A    between atoms: C_21  and  N_26
                            x       y       z     vdW  Elec       q    Type
                         _______ _______ _______ _____ _____    ______ ____

>  <TORSDO>
F 2

$$$$
