=
 OpenBabel11052410453D

 35 39  0  0  1  0  0  0  0  0999 V2000
  161.5270  209.1090  153.5090 C   0  0  0  0  0  0  0  0  0  0  0  0
  161.6190  208.6730  149.8280 N   0  0  0  0  0  0  0  0  0  0  0  0
  161.8480  209.5460  148.8290 C   0  0  0  0  0  3  0  0  0  0  0  0
  161.7860  210.5060  153.9620 C   0  0  0  0  0  1  0  0  0  0  0  0
  161.1500  206.6050  150.9600 C   0  0  0  0  0  0  0  0  0  0  0  0
  162.0630  210.7880  149.4090 C   0  0  0  0  0  0  0  0  0  0  0  0
  161.3550  207.3280  149.7540 C   0  0  2  0  0  3  0  0  0  0  0  0
  161.2930  206.7040  148.5730 C   0  0  0  0  0  3  0  0  0  0  0  0
  160.4900  203.0530  149.4760 C   0  0  0  0  0  2  0  0  0  0  0  0
  160.8420  205.1280  150.9510 C   0  0  0  0  0  3  0  0  0  0  0  0
  161.6970  209.3510  150.9940 C   0  0  0  0  0  0  0  0  0  0  0  0
  161.9070  202.6790  145.8900 C   0  0  0  0  0  1  0  0  0  0  0  0
  161.5040  208.6730  152.1950 C   0  0  0  0  0  0  0  0  0  0  0  0
  161.3620  201.2060  148.2420 O   0  0  0  0  0  0  0  0  0  0  0  0
  160.8160  204.5170  149.5740 C   0  0  0  0  0  0  0  0  0  0  0  0
  160.9410  204.6530  147.0960 C   0  0  0  0  0  2  0  0  0  0  0  0
  161.0860  206.9040  153.4780 C   0  0  0  0  0  0  0  0  0  0  0  0
  161.0230  205.2620  148.4670 C   0  0  0  0  0  0  0  0  0  0  0  0
  161.2650  208.0010  154.3190 C   0  0  0  0  0  0  0  0  0  0  0  0
  161.1060  202.4380  148.2580 C   0  0  0  0  0  0  0  0  0  0  0  0
  160.8050  205.6030  153.8830 O   0  0  0  0  0  1  0  0  0  0  0  0
  161.9780  210.6870  150.7910 C   0  0  0  0  0  3  0  0  0  0  0  0
  161.2340  207.3220  152.1700 C   0  0  0  0  0  0  0  0  0  0  0  0
  161.3690  203.2570  147.1100 N   0  0  0  0  0  0  0  0  0  0  0  0
  162.2280  208.1910  156.4860 O   0  0  0  0  0  0  0  0  0  0  0  0
  161.1920  207.9950  155.7980 C   0  0  0  0  0  0  0  0  0  0  0  0
  159.9030  207.7600  156.5060 C   0  0  0  0  0  1  0  0  0  0  0  0
  162.3920  212.0330  148.6620 C   0  0  0  0  0  2  0  0  0  0  0  0
  161.1010  213.2880  148.9230 S   0  0  0  0  0  0  0  0  0  0  0  0
  161.3590  214.0630  147.2940 C   0  0  0  0  0  2  0  0  0  0  0  0
  162.1190  213.1360  146.3590 C   0  0  0  0  0  2  0  0  0  0  0  0
  161.8130  213.4530  144.9010 C   0  0  0  0  0  2  0  0  0  0  0  0
  162.2950  212.5010  142.8210 C   0  0  0  0  0  1  0  0  0  0  0  0
  163.6480  214.1940  143.6700 C   0  0  0  0  0  1  0  0  0  0  0  0
  162.8980  213.0080  144.0410 N   0  0  0  0  0  0  0  0  0  0  0  0
  1  4  1  0  0  0  0
  1 19  1  0  0  0  0
  2 11  1  0  0  0  0
  3  6  2  0  0  0  0
  3  2  1  0  0  0  0
  5 23  2  0  0  0  0
  6 22  1  0  0  0  0
  7  8  1  1  0  0  0
  7  2  1  0  0  0  0
  7  5  1  0  0  0  0
  9 15  1  0  0  0  0
 10  5  1  0  0  0  0
 11 13  1  0  0  0  0
 12 24  1  0  0  0  0
 13  1  2  0  0  0  0
 14 20  2  0  0  0  0
 15 10  2  0  0  0  0
 16 24  1  0  0  0  0
 16 18  1  0  0  0  0
 17 21  1  0  0  0  0
 17 19  2  0  0  0  0
 18  8  2  0  0  0  0
 18 15  1  0  0  0  0
 19 26  1  0  0  0  0
 20  9  1  0  0  0  0
 22 11  2  0  0  0  0
 23 13  1  0  0  0  0
 23 17  1  0  0  0  0
 24 20  1  0  0  0  0
 26 25  2  0  0  0  0
 26 27  1  0  0  0  0
 28 29  1  0  0  0  0
 28  6  1  0  0  0  0
 30 29  1  0  0  0  0
 31 30  1  0  0  0  0
 32 31  1  0  0  0  0
 33 35  1  0  0  0  0
 34 35  1  0  0  0  0
 35 32  1  0  0  0  0
M  END
>  <MODEL>
1

>  <REMARK>
 VINA RESULT:      -9.0      0.000      0.000
  Name = 
  7 active torsions:
  status: ('A' for Active; 'I' for Inactive)
    1  A    between atoms: C_3  and  S_9
    2  A    between atoms: C_3  and  C_13
    3  A    between atoms: C_8  and  C_24
    4  A    between atoms: S_9  and  C_24
    5  A    between atoms: C_11  and  C_30
    6  A    between atoms: C_13  and  C_29
    7  A    between atoms: N_27  and  C_29
                            x       y       z     vdW  Elec       q    Type
                         _______ _______ _______ _____ _____    ______ ____

>  <TORSDO>
F 7

$$$$
=
 OpenBabel11052410453D

 35 39  0  0  1  0  0  0  0  0999 V2000
  161.5330  209.0240  153.5430 C   0  0  0  0  0  0  0  0  0  0  0  0
  161.6220  208.6150  149.8590 N   0  0  0  0  0  0  0  0  0  0  0  0
  161.8540  209.4950  148.8670 C   0  0  0  0  0  3  0  0  0  0  0  0
  161.7980  210.4170  154.0070 C   0  0  0  0  0  1  0  0  0  0  0  0
  161.1480  206.5400  150.9760 C   0  0  0  0  0  0  0  0  0  0  0  0
  162.0730  210.7310  149.4550 C   0  0  0  0  0  0  0  0  0  0  0  0
  161.3540  207.2720  149.7750 C   0  0  2  0  0  3  0  0  0  0  0  0
  161.2900  206.6570  148.5890 C   0  0  0  0  0  3  0  0  0  0  0  0
  160.4750  203.0010  149.4660 C   0  0  0  0  0  2  0  0  0  0  0  0
  160.8350  205.0650  150.9560 C   0  0  0  0  0  3  0  0  0  0  0  0
  161.7030  209.2840  151.0300 C   0  0  0  0  0  0  0  0  0  0  0  0
  161.8890  202.6490  145.8770 C   0  0  0  0  0  1  0  0  0  0  0  0
  161.5080  208.5980  152.2260 C   0  0  0  0  0  0  0  0  0  0  0  0
  161.3410  201.1610  148.2180 O   0  0  0  0  0  0  0  0  0  0  0  0
  160.8060  204.4640  149.5750 C   0  0  0  0  0  0  0  0  0  0  0  0
  160.9300  204.6170  147.0980 C   0  0  0  0  0  2  0  0  0  0  0  0
  161.0850  206.8200  153.4960 C   0  0  0  0  0  0  0  0  0  0  0  0
  161.0150  205.2160  148.4740 C   0  0  0  0  0  0  0  0  0  0  0  0
  161.2680  207.9110  154.3460 C   0  0  0  0  0  0  0  0  0  0  0  0
  161.0880  202.3940  148.2430 C   0  0  0  0  0  0  0  0  0  0  0  0
  160.8000  205.5170  153.8910 O   0  0  0  0  0  1  0  0  0  0  0  0
  161.9890  210.6210  150.8370 C   0  0  0  0  0  3  0  0  0  0  0  0
  161.2340  207.2480  152.1910 C   0  0  0  0  0  0  0  0  0  0  0  0
  161.3540  203.2200  147.1010 N   0  0  0  0  0  0  0  0  0  0  0  0
  162.1710  208.2930  156.5130 O   0  0  0  0  0  0  0  0  0  0  0  0
  161.1950  207.8940  155.8240 C   0  0  0  0  0  0  0  0  0  0  0  0
  159.9770  207.4110  156.5320 C   0  0  0  0  0  1  0  0  0  0  0  0
  162.4060  211.9810  148.7180 C   0  0  0  0  0  2  0  0  0  0  0  0
  160.9670  212.5580  147.7660 S   0  0  0  0  0  0  0  0  0  0  0  0
  160.7710  214.0750  148.7550 C   0  0  0  0  0  2  0  0  0  0  0  0
  159.4640  214.0590  149.5320 C   0  0  0  0  0  2  0  0  0  0  0  0
  159.6590  213.4730  150.9240 C   0  0  0  0  0  2  0  0  0  0  0  0
  158.8180  211.9330  152.4690 C   0  0  0  0  0  1  0  0  0  0  0  0
  157.6060  213.8540  151.9600 C   0  0  0  0  0  1  0  0  0  0  0  0
  158.4430  212.8190  151.3810 N   0  0  0  0  0  0  0  0  0  0  0  0
  1  4  1  0  0  0  0
  1 19  1  0  0  0  0
  2 11  1  0  0  0  0
  3  6  2  0  0  0  0
  3  2  1  0  0  0  0
  5 23  2  0  0  0  0
  6 22  1  0  0  0  0
  7  8  1  1  0  0  0
  7  2  1  0  0  0  0
  7  5  1  0  0  0  0
  9 15  1  0  0  0  0
 10  5  1  0  0  0  0
 11 13  1  0  0  0  0
 12 24  1  0  0  0  0
 13  1  2  0  0  0  0
 14 20  2  0  0  0  0
 15 10  2  0  0  0  0
 16 24  1  0  0  0  0
 16 18  1  0  0  0  0
 17 21  1  0  0  0  0
 17 19  2  0  0  0  0
 18  8  2  0  0  0  0
 18 15  1  0  0  0  0
 19 26  1  0  0  0  0
 20  9  1  0  0  0  0
 22 11  2  0  0  0  0
 23 13  1  0  0  0  0
 23 17  1  0  0  0  0
 24 20  1  0  0  0  0
 26 25  2  0  0  0  0
 26 27  1  0  0  0  0
 28  6  1  0  0  0  0
 29 28  1  0  0  0  0
 29 30  1  0  0  0  0
 30 31  1  0  0  0  0
 31 32  1  0  0  0  0
 32 35  1  0  0  0  0
 35 34  1  0  0  0  0
 35 33  1  0  0  0  0
M  END
>  <MODEL>
2

>  <REMARK>
 VINA RESULT:      -8.9      2.068      3.154
  Name = 
  7 active torsions:
  status: ('A' for Active; 'I' for Inactive)
    1  A    between atoms: C_3  and  S_9
    2  A    between atoms: C_3  and  C_13
    3  A    between atoms: C_8  and  C_24
    4  A    between atoms: S_9  and  C_24
    5  A    between atoms: C_11  and  C_30
    6  A    between atoms: C_13  and  C_29
    7  A    between atoms: N_27  and  C_29
                            x       y       z     vdW  Elec       q    Type
                         _______ _______ _______ _____ _____    ______ ____

>  <TORSDO>
F 7

$$$$
=
 OpenBabel11052410453D

 35 39  0  0  1  0  0  0  0  0999 V2000
  161.5110  209.0910  153.5340 C   0  0  0  0  0  0  0  0  0  0  0  0
  161.6040  208.6600  149.8530 N   0  0  0  0  0  0  0  0  0  0  0  0
  161.8320  209.5340  148.8560 C   0  0  0  0  0  3  0  0  0  0  0  0
  161.7670  210.4880  153.9900 C   0  0  0  0  0  1  0  0  0  0  0  0
  161.1400  206.5890  150.9830 C   0  0  0  0  0  0  0  0  0  0  0  0
  162.0440  210.7760  149.4370 C   0  0  0  0  0  0  0  0  0  0  0  0
  161.3440  207.3150  149.7770 C   0  0  2  0  0  3  0  0  0  0  0  0
  161.2830  206.6920  148.5950 C   0  0  0  0  0  3  0  0  0  0  0  0
  160.4870  203.0380  149.4940 C   0  0  0  0  0  2  0  0  0  0  0  0
  160.8350  205.1120  150.9720 C   0  0  0  0  0  3  0  0  0  0  0  0
  161.6800  209.3360  151.0200 C   0  0  0  0  0  0  0  0  0  0  0  0
  161.9060  202.6710  145.9070 C   0  0  0  0  0  1  0  0  0  0  0  0
  161.4890  208.6570  152.2200 C   0  0  0  0  0  0  0  0  0  0  0  0
  161.3640  201.1940  148.2580 O   0  0  0  0  0  0  0  0  0  0  0  0
  160.8110  204.5030  149.5940 C   0  0  0  0  0  0  0  0  0  0  0  0
  160.9350  204.6420  147.1160 C   0  0  0  0  0  2  0  0  0  0  0  0
  161.0740  206.8850  153.5000 C   0  0  0  0  0  0  0  0  0  0  0  0
  161.0160  205.2490  148.4880 C   0  0  0  0  0  0  0  0  0  0  0  0
  161.2510  207.9820  154.3440 C   0  0  0  0  0  0  0  0  0  0  0  0
  161.1050  202.4260  148.2750 C   0  0  0  0  0  0  0  0  0  0  0  0
  160.7960  205.5820  153.9040 O   0  0  0  0  0  1  0  0  0  0  0  0
  161.9590  210.6730  150.8190 C   0  0  0  0  0  3  0  0  0  0  0  0
  161.2220  207.3050  152.1930 C   0  0  0  0  0  0  0  0  0  0  0  0
  161.3660  203.2470  147.1280 N   0  0  0  0  0  0  0  0  0  0  0  0
  162.1780  208.3050  156.5100 O   0  0  0  0  0  0  0  0  0  0  0  0
  161.1770  207.9730  155.8220 C   0  0  0  0  0  0  0  0  0  0  0  0
  159.9290  207.5770  156.5310 C   0  0  0  0  0  1  0  0  0  0  0  0
  162.3710  212.0230  148.6920 C   0  0  0  0  0  2  0  0  0  0  0  0
  161.1330  213.3110  149.0380 S   0  0  0  0  0  0  0  0  0  0  0  0
  161.2220  214.0150  147.3610 C   0  0  0  0  0  2  0  0  0  0  0  0
  160.4280  213.1770  146.3710 C   0  0  0  0  0  2  0  0  0  0  0  0
  159.1320  212.6730  146.9920 C   0  0  0  0  0  2  0  0  0  0  0  0
  157.1640  213.3100  145.9030 C   0  0  0  0  0  1  0  0  0  0  0  0
  157.3840  213.6350  148.1970 C   0  0  0  0  0  1  0  0  0  0  0  0
  158.1040  213.7010  146.9390 N   0  0  0  0  0  0  0  0  0  0  0  0
  1  4  1  0  0  0  0
  1 19  1  0  0  0  0
  2 11  1  0  0  0  0
  3  6  2  0  0  0  0
  3  2  1  0  0  0  0
  5 23  2  0  0  0  0
  6 22  1  0  0  0  0
  7  8  1  1  0  0  0
  7  2  1  0  0  0  0
  7  5  1  0  0  0  0
  9 15  1  0  0  0  0
 10  5  1  0  0  0  0
 11 13  1  0  0  0  0
 12 24  1  0  0  0  0
 13  1  2  0  0  0  0
 14 20  2  0  0  0  0
 15 10  2  0  0  0  0
 16 24  1  0  0  0  0
 16 18  1  0  0  0  0
 17 21  1  0  0  0  0
 17 19  2  0  0  0  0
 18  8  2  0  0  0  0
 18 15  1  0  0  0  0
 19 26  1  0  0  0  0
 20  9  1  0  0  0  0
 22 11  2  0  0  0  0
 23 13  1  0  0  0  0
 23 17  1  0  0  0  0
 24 20  1  0  0  0  0
 26 25  2  0  0  0  0
 26 27  1  0  0  0  0
 28 29  1  0  0  0  0
 28  6  1  0  0  0  0
 30 29  1  0  0  0  0
 31 32  1  0  0  0  0
 31 30  1  0  0  0  0
 33 35  1  0  0  0  0
 35 32  1  0  0  0  0
 35 34  1  0  0  0  0
M  END
>  <MODEL>
3

>  <REMARK>
 VINA RESULT:      -8.6      1.496      2.025
  Name = 
  7 active torsions:
  status: ('A' for Active; 'I' for Inactive)
    1  A    between atoms: C_3  and  S_9
    2  A    between atoms: C_3  and  C_13
    3  A    between atoms: C_8  and  C_24
    4  A    between atoms: S_9  and  C_24
    5  A    between atoms: C_11  and  C_30
    6  A    between atoms: C_13  and  C_29
    7  A    between atoms: N_27  and  C_29
                            x       y       z     vdW  Elec       q    Type
                         _______ _______ _______ _____ _____    ______ ____

>  <TORSDO>
F 7

$$$$
=
 OpenBabel11052410453D

 35 39  0  0  1  0  0  0  0  0999 V2000
  161.5700  206.1190  148.0220 C   0  0  0  0  0  0  0  0  0  0  0  0
  161.7470  209.0660  150.2630 N   0  0  0  0  0  0  0  0  0  0  0  0
  161.9550  210.3720  150.0100 C   0  0  0  0  0  3  0  0  0  0  0  0
  161.7710  206.4390  146.5790 C   0  0  0  0  0  1  0  0  0  0  0  0
  161.3230  207.0400  151.4860 C   0  0  0  0  0  0  0  0  0  0  0  0
  162.1280  210.5030  148.6400 C   0  0  0  0  0  0  0  0  0  0  0  0
  161.5250  208.4470  151.4680 C   0  0  0  0  0  0  0  0  0  0  0  0
  161.4950  209.1490  152.6060 C   0  0  0  0  0  3  0  0  0  0  0  0
  160.8500  206.5060  155.3260 C   0  0  0  0  0  2  0  0  0  0  0  0
  161.0890  206.2940  152.7750 C   0  0  0  0  0  3  0  0  0  0  0  0
  161.7820  208.4070  149.0850 C   0  0  0  0  0  0  0  0  0  0  0  0
  159.8070  209.7670  157.1390 C   0  0  0  0  0  1  0  0  0  0  0  0
  161.5860  207.0290  149.0650 C   0  0  2  0  0  3  0  0  0  0  0  0
  159.5270  206.9550  157.2600 O   0  0  0  0  0  0  0  0  0  0  0  0
  161.0530  207.1770  153.9950 C   0  0  0  0  0  0  0  0  0  0  0  0
  161.2650  209.3730  155.1380 C   0  0  0  0  0  2  0  0  0  0  0  0
  161.2050  205.0230  149.9530 C   0  0  0  0  0  0  0  0  0  0  0  0
  161.2490  208.5100  153.9080 C   0  0  0  0  0  0  0  0  0  0  0  0
  161.3310  204.8570  148.5730 C   0  0  0  0  0  0  0  0  0  0  0  0
  160.1990  207.4300  156.3070 C   0  0  0  0  0  0  0  0  0  0  0  0
  160.9600  204.0130  150.8770 O   0  0  0  0  0  1  0  0  0  0  0  0
  162.0150  209.2620  148.0270 C   0  0  0  0  0  3  0  0  0  0  0  0
  161.3620  206.3630  150.2510 C   0  0  0  0  0  0  0  0  0  0  0  0
  160.3730  208.8470  156.1670 N   0  0  0  0  0  0  0  0  0  0  0  0
  161.5630  203.5230  146.6180 O   0  0  0  0  0  0  0  0  0  0  0  0
  161.2300  203.5810  147.8310 C   0  0  0  0  0  0  0  0  0  0  0  0
  160.7360  202.3400  148.4900 C   0  0  0  0  0  1  0  0  0  0  0  0
  162.3460  211.7910  147.9260 C   0  0  0  0  0  2  0  0  0  0  0  0
  160.8170  212.3200  147.0920 S   0  0  0  0  0  0  0  0  0  0  0  0
  161.4520  213.9890  146.7300 C   0  0  0  0  0  2  0  0  0  0  0  0
  162.3100  213.9900  145.4750 C   0  0  0  0  0  2  0  0  0  0  0  0
  161.5830  213.3310  144.3110 C   0  0  0  0  0  2  0  0  0  0  0  0
  161.7620  212.2050  142.2700 C   0  0  0  0  0  1  0  0  0  0  0  0
  163.1340  214.0310  142.7180 C   0  0  0  0  0  1  0  0  0  0  0  0
  162.5310  212.8540  143.3170 N   0  0  0  0  0  0  0  0  0  0  0  0
  1 19  2  0  0  0  0
  2  7  1  0  0  0  0
  3  2  1  0  0  0  0
  4  1  1  0  0  0  0
  5 10  1  0  0  0  0
  6  3  2  0  0  0  0
  7  5  2  0  0  0  0
  7  8  1  0  0  0  0
  8 18  2  0  0  0  0
  9 20  1  0  0  0  0
 10 15  2  0  0  0  0
 11  2  1  0  0  0  0
 13  1  1  1  0  0  0
 13 11  1  0  0  0  0
 13 23  1  0  0  0  0
 15  9  1  0  0  0  0
 16 24  1  0  0  0  0
 17 23  2  0  0  0  0
 17 21  1  0  0  0  0
 18 15  1  0  0  0  0
 18 16  1  0  0  0  0
 19 17  1  0  0  0  0
 20 14  2  0  0  0  0
 22  6  1  0  0  0  0
 22 11  2  0  0  0  0
 23  5  1  0  0  0  0
 24 20  1  0  0  0  0
 24 12  1  0  0  0  0
 25 26  2  0  0  0  0
 26 27  1  0  0  0  0
 26 19  1  0  0  0  0
 28  6  1  0  0  0  0
 29 28  1  0  0  0  0
 30 29  1  0  0  0  0
 31 30  1  0  0  0  0
 32 31  1  0  0  0  0
 33 35  1  0  0  0  0
 34 35  1  0  0  0  0
 35 32  1  0  0  0  0
M  END
>  <MODEL>
4

>  <REMARK>
 VINA RESULT:      -7.9      1.732      5.994
  Name = 
  7 active torsions:
  status: ('A' for Active; 'I' for Inactive)
    1  A    between atoms: C_3  and  S_9
    2  A    between atoms: C_3  and  C_13
    3  A    between atoms: C_8  and  C_24
    4  A    between atoms: S_9  and  C_24
    5  A    between atoms: C_11  and  C_30
    6  A    between atoms: C_13  and  C_29
    7  A    between atoms: N_27  and  C_29
                            x       y       z     vdW  Elec       q    Type
                         _______ _______ _______ _____ _____    ______ ____

>  <TORSDO>
F 7

$$$$
=
 OpenBabel11052410453D

 35 39  0  0  1  0  0  0  0  0999 V2000
  161.5630  206.1800  147.9830 C   0  0  0  0  0  0  0  0  0  0  0  0
  161.7890  209.1130  150.2380 N   0  0  0  0  0  0  0  0  0  0  0  0
  161.9980  210.4190  149.9890 C   0  0  0  0  0  3  0  0  0  0  0  0
  161.7410  206.5080  146.5380 C   0  0  0  0  0  1  0  0  0  0  0  0
  161.3800  207.0810  151.4560 C   0  0  0  0  0  0  0  0  0  0  0  0
  162.1480  210.5580  148.6170 C   0  0  0  0  0  0  0  0  0  0  0  0
  161.5860  208.4880  151.4430 C   0  0  0  0  0  0  0  0  0  0  0  0
  161.5790  209.1820  152.5860 C   0  0  0  0  0  3  0  0  0  0  0  0
  160.9710  206.5260  155.3000 C   0  0  0  0  0  2  0  0  0  0  0  0
  161.1650  206.3280  152.7450 C   0  0  0  0  0  3  0  0  0  0  0  0
  161.8020  208.4610  149.0560 C   0  0  0  0  0  0  0  0  0  0  0  0
  159.9720  209.7790  157.1510 C   0  0  0  0  0  1  0  0  0  0  0  0
  161.6010  207.0830  149.0310 C   0  0  2  0  0  3  0  0  0  0  0  0
  159.6830  206.9680  157.2600 O   0  0  0  0  0  0  0  0  0  0  0  0
  161.1540  207.2040  153.9710 C   0  0  0  0  0  0  0  0  0  0  0  0
  161.3930  209.3920  155.1220 C   0  0  0  0  0  2  0  0  0  0  0  0
  161.2270  205.0740  149.9130 C   0  0  0  0  0  0  0  0  0  0  0  0
  161.3530  208.5360  153.8880 C   0  0  0  0  0  0  0  0  0  0  0  0
  161.3290  204.9160  148.5310 C   0  0  0  0  0  0  0  0  0  0  0  0
  160.3400  207.4460  156.2980 C   0  0  0  0  0  0  0  0  0  0  0  0
  160.9950  204.0590  150.8360 O   0  0  0  0  0  1  0  0  0  0  0  0
  162.0200  209.3210  147.9990 C   0  0  0  0  0  3  0  0  0  0  0  0
  161.3950  206.4110  150.2170 C   0  0  0  0  0  0  0  0  0  0  0  0
  160.5170  208.8630  156.1630 N   0  0  0  0  0  0  0  0  0  0  0  0
  161.3830  203.6220  146.5350 O   0  0  0  0  0  0  0  0  0  0  0  0
  161.2100  203.6440  147.7820 C   0  0  0  0  0  0  0  0  0  0  0  0
  160.8870  202.3670  148.4760 C   0  0  0  0  0  1  0  0  0  0  0  0
  162.3580  211.8500  147.9070 C   0  0  0  0  0  2  0  0  0  0  0  0
  161.2450  213.1270  148.5720 S   0  0  0  0  0  0  0  0  0  0  0  0
  159.9460  212.8060  147.3360 C   0  0  0  0  0  2  0  0  0  0  0  0
  158.5950  213.3150  147.8150 C   0  0  0  0  0  2  0  0  0  0  0  0
  158.7560  214.3080  148.9590 C   0  0  0  0  0  2  0  0  0  0  0  0
  156.6560  213.3350  149.2910 C   0  0  0  0  0  1  0  0  0  0  0  0
  158.1920  213.4160  151.0370 C   0  0  0  0  0  1  0  0  0  0  0  0
  157.6680  214.1700  149.9140 N   0  0  0  0  0  0  0  0  0  0  0  0
  1 19  2  0  0  0  0
  2  7  1  0  0  0  0
  3  2  1  0  0  0  0
  4  1  1  0  0  0  0
  5 10  1  0  0  0  0
  6  3  2  0  0  0  0
  7  5  2  0  0  0  0
  7  8  1  0  0  0  0
  8 18  2  0  0  0  0
  9 20  1  0  0  0  0
 10 15  2  0  0  0  0
 11  2  1  0  0  0  0
 13  1  1  1  0  0  0
 13 11  1  0  0  0  0
 13 23  1  0  0  0  0
 15  9  1  0  0  0  0
 16 24  1  0  0  0  0
 17 23  2  0  0  0  0
 17 21  1  0  0  0  0
 18 15  1  0  0  0  0
 18 16  1  0  0  0  0
 19 17  1  0  0  0  0
 20 14  2  0  0  0  0
 22  6  1  0  0  0  0
 22 11  2  0  0  0  0
 23  5  1  0  0  0  0
 24 20  1  0  0  0  0
 24 12  1  0  0  0  0
 25 26  2  0  0  0  0
 26 27  1  0  0  0  0
 26 19  1  0  0  0  0
 28 29  1  0  0  0  0
 28  6  1  0  0  0  0
 30 31  1  0  0  0  0
 30 29  1  0  0  0  0
 31 32  1  0  0  0  0
 32 35  1  0  0  0  0
 33 35  1  0  0  0  0
 35 34  1  0  0  0  0
M  END
>  <MODEL>
5

>  <REMARK>
 VINA RESULT:      -7.8      2.504      6.582
  Name = 
  7 active torsions:
  status: ('A' for Active; 'I' for Inactive)
    1  A    between atoms: C_3  and  S_9
    2  A    between atoms: C_3  and  C_13
    3  A    between atoms: C_8  and  C_24
    4  A    between atoms: S_9  and  C_24
    5  A    between atoms: C_11  and  C_30
    6  A    between atoms: C_13  and  C_29
    7  A    between atoms: N_27  and  C_29
                            x       y       z     vdW  Elec       q    Type
                         _______ _______ _______ _____ _____    ______ ____

>  <TORSDO>
F 7

$$$$
=
 OpenBabel11052410453D

 35 39  0  0  1  0  0  0  0  0999 V2000
  161.5890  210.2990  151.1000 C   0  0  0  0  0  0  0  0  0  0  0  0
  161.0930  206.9910  152.6970 N   0  0  0  0  0  0  0  0  0  0  0  0
  160.8560  206.6410  153.9750 C   0  0  0  0  0  3  0  0  0  0  0  0
  161.5170  211.4490  152.0480 C   0  0  0  0  0  1  0  0  0  0  0  0
  161.4590  206.7930  150.3290 C   0  0  0  0  0  0  0  0  0  0  0  0
  160.8250  207.8080  154.7230 C   0  0  0  0  0  0  0  0  0  0  0  0
  161.2110  206.1870  151.5910 C   0  0  0  0  0  0  0  0  0  0  0  0
  161.0940  204.8580  151.6910 C   0  0  0  0  0  3  0  0  0  0  0  0
  161.6090  203.5920  148.0960 C   0  0  0  0  0  2  0  0  0  0  0  0
  161.6140  205.9690  149.0760 C   0  0  0  0  0  3  0  0  0  0  0  0
  161.1980  208.3360  152.6510 C   0  0  0  0  0  0  0  0  0  0  0  0
  159.8170  200.5760  149.7390 C   0  0  0  0  0  1  0  0  0  0  0  0
  161.4390  208.9640  151.4310 C   0  0  2  0  0  3  0  0  0  0  0  0
  160.4380  201.7060  147.2210 O   0  0  0  0  0  0  0  0  0  0  0  0
  161.4440  204.4880  149.2930 C   0  0  0  0  0  0  0  0  0  0  0  0
  161.0910  202.4930  150.7320 C   0  0  0  0  0  2  0  0  0  0  0  0
  161.8010  209.0560  149.2370 C   0  0  0  0  0  0  0  0  0  0  0  0
  161.2060  203.9770  150.5190 C   0  0  0  0  0  0  0  0  0  0  0  0
  161.8160  210.3640  149.7220 C   0  0  0  0  0  0  0  0  0  0  0  0
  160.8180  202.3300  148.2470 C   0  0  0  0  0  0  0  0  0  0  0  0
  161.9870  208.6760  147.9120 O   0  0  0  0  0  1  0  0  0  0  0  0
  161.0340  208.9060  153.8980 C   0  0  0  0  0  3  0  0  0  0  0  0
  161.5670  208.1970  150.2940 C   0  0  0  0  0  0  0  0  0  0  0  0
  160.5270  201.8310  149.5600 N   0  0  0  0  0  0  0  0  0  0  0  0
  163.1140  211.7640  148.3030 O   0  0  0  0  0  0  0  0  0  0  0  0
  162.0330  211.5930  148.9260 C   0  0  0  0  0  0  0  0  0  0  0  0
  160.9890  212.6520  148.8400 C   0  0  0  0  0  1  0  0  0  0  0  0
  160.5510  207.8790  156.1840 C   0  0  0  0  0  2  0  0  0  0  0  0
  161.5030  209.2330  156.9430 S   0  0  0  0  0  0  0  0  0  0  0  0
  160.0510  210.3200  157.1080 C   0  0  0  0  0  2  0  0  0  0  0  0
  160.2300  211.6010  156.3080 C   0  0  0  0  0  2  0  0  0  0  0  0
  158.8870  212.1590  155.8550 C   0  0  0  0  0  2  0  0  0  0  0  0
  156.7390  211.3060  155.5040 C   0  0  0  0  0  1  0  0  0  0  0  0
  158.2220  211.5010  153.7210 C   0  0  0  0  0  1  0  0  0  0  0  0
  158.1330  211.1520  155.1270 N   0  0  0  0  0  0  0  0  0  0  0  0
  1 13  1  0  0  0  0
  1  4  1  0  0  0  0
  2  3  1  0  0  0  0
  3  6  2  0  0  0  0
  5  7  1  0  0  0  0
  6 28  1  0  0  0  0
  7  8  2  0  0  0  0
  7  2  1  0  0  0  0
  9 20  1  0  0  0  0
  9 15  1  0  0  0  0
 10 15  1  0  0  0  0
 10  5  2  0  0  0  0
 11  2  1  0  0  0  0
 11 22  2  0  0  0  0
 13 23  1  1  0  0  0
 13 11  1  0  0  0  0
 14 20  2  0  0  0  0
 15 18  2  0  0  0  0
 17 19  1  0  0  0  0
 17 23  2  0  0  0  0
 18 16  1  0  0  0  0
 18  8  1  0  0  0  0
 19  1  2  0  0  0  0
 20 24  1  0  0  0  0
 21 17  1  0  0  0  0
 22  6  1  0  0  0  0
 23  5  1  0  0  0  0
 24 12  1  0  0  0  0
 24 16  1  0  0  0  0
 25 26  2  0  0  0  0
 26 19  1  0  0  0  0
 27 26  1  0  0  0  0
 28 29  1  0  0  0  0
 29 30  1  0  0  0  0
 31 30  1  0  0  0  0
 32 31  1  0  0  0  0
 34 35  1  0  0  0  0
 35 33  1  0  0  0  0
 35 32  1  0  0  0  0
M  END
>  <MODEL>
6

>  <REMARK>
 VINA RESULT:      -7.7      3.645      6.575
  Name = 
  7 active torsions:
  status: ('A' for Active; 'I' for Inactive)
    1  A    between atoms: C_3  and  S_9
    2  A    between atoms: C_3  and  C_13
    3  A    between atoms: C_8  and  C_24
    4  A    between atoms: S_9  and  C_24
    5  A    between atoms: C_11  and  C_30
    6  A    between atoms: C_13  and  C_29
    7  A    between atoms: N_27  and  C_29
                            x       y       z     vdW  Elec       q    Type
                         _______ _______ _______ _____ _____    ______ ____

>  <TORSDO>
F 7

$$$$
=
 OpenBabel11052410453D

 35 39  0  0  1  0  0  0  0  0999 V2000
  161.3670  209.2880  153.4940 C   0  0  0  0  0  0  0  0  0  0  0  0
  161.5910  208.8040  149.8250 N   0  0  0  0  0  0  0  0  0  0  0  0
  161.8540  209.6650  148.8240 C   0  0  0  0  0  3  0  0  0  0  0  0
  161.6070  210.6920  153.9380 C   0  0  0  0  0  1  0  0  0  0  0  0
  161.0870  206.7500  150.9670 C   0  0  0  0  0  0  0  0  0  0  0  0
  162.0450  210.9140  149.3940 C   0  0  0  0  0  0  0  0  0  0  0  0
  161.3330  207.4580  149.7590 C   0  0  2  0  0  3  0  0  0  0  0  0
  161.3150  206.8190  148.5840 C   0  0  0  0  0  3  0  0  0  0  0  0
  160.4880  203.1770  149.5070 C   0  0  0  0  0  2  0  0  0  0  0  0
  160.7830  205.2720  150.9660 C   0  0  0  0  0  3  0  0  0  0  0  0
  161.6260  209.4970  150.9840 C   0  0  0  0  0  0  0  0  0  0  0  0
  162.0320  202.7600  145.9780 C   0  0  0  0  0  1  0  0  0  0  0  0
  161.3920  208.8350  152.1860 C   0  0  0  0  0  0  0  0  0  0  0  0
  161.4080  201.3170  148.3290 O   0  0  0  0  0  0  0  0  0  0  0  0
  160.8070  204.6440  149.5970 C   0  0  0  0  0  0  0  0  0  0  0  0
  161.0200  204.7470  147.1230 C   0  0  0  0  0  2  0  0  0  0  0  0
  160.9320  207.0810  153.4760 C   0  0  0  0  0  0  0  0  0  0  0  0
  161.0510  205.3750  148.4890 C   0  0  0  0  0  0  0  0  0  0  0  0
  161.0780  208.1900  154.3090 C   0  0  0  0  0  0  0  0  0  0  0  0
  161.1480  202.5490  148.3190 C   0  0  0  0  0  0  0  0  0  0  0  0
  160.6400  205.7850  153.8880 O   0  0  0  0  0  1  0  0  0  0  0  0
  161.9110  210.8320  150.7740 C   0  0  0  0  0  3  0  0  0  0  0  0
  161.1260  207.4830  152.1690 C   0  0  0  0  0  0  0  0  0  0  0  0
  161.4500  203.3530  147.1700 N   0  0  0  0  0  0  0  0  0  0  0  0
  159.8300  208.3900  156.3240 O   0  0  0  0  0  0  0  0  0  0  0  0
  160.9520  208.2030  155.7840 C   0  0  0  0  0  0  0  0  0  0  0  0
  162.1370  207.9960  156.6620 C   0  0  0  0  0  1  0  0  0  0  0  0
  162.3980  212.1510  148.6430 C   0  0  0  0  0  2  0  0  0  0  0  0
  161.4540  212.2410  147.0900 S   0  0  0  0  0  0  0  0  0  0  0  0
  160.7740  213.8890  147.4610 C   0  0  0  0  0  2  0  0  0  0  0  0
  160.6070  214.0900  148.9590 C   0  0  0  0  0  2  0  0  0  0  0  0
  159.3230  213.4430  149.4610 C   0  0  0  0  0  2  0  0  0  0  0  0
  157.0870  213.0920  148.8780 C   0  0  0  0  0  1  0  0  0  0  0  0
  158.5000  214.2520  147.4370 C   0  0  0  0  0  1  0  0  0  0  0  0
  158.4400  213.1260  148.3510 N   0  0  0  0  0  0  0  0  0  0  0  0
  1  4  1  0  0  0  0
  1 19  1  0  0  0  0
  2 11  1  0  0  0  0
  3  6  2  0  0  0  0
  3  2  1  0  0  0  0
  5 23  2  0  0  0  0
  6 22  1  0  0  0  0
  7  8  1  1  0  0  0
  7  2  1  0  0  0  0
  7  5  1  0  0  0  0
  9 15  1  0  0  0  0
 10  5  1  0  0  0  0
 11 13  1  0  0  0  0
 12 24  1  0  0  0  0
 13  1  2  0  0  0  0
 15 10  2  0  0  0  0
 16 24  1  0  0  0  0
 16 18  1  0  0  0  0
 17 21  1  0  0  0  0
 17 19  2  0  0  0  0
 18  8  2  0  0  0  0
 18 15  1  0  0  0  0
 19 26  1  0  0  0  0
 20 14  2  0  0  0  0
 20  9  1  0  0  0  0
 22 11  2  0  0  0  0
 23 13  1  0  0  0  0
 23 17  1  0  0  0  0
 24 20  1  0  0  0  0
 26 25  2  0  0  0  0
 26 27  1  0  0  0  0
 28  6  1  0  0  0  0
 29 30  1  0  0  0  0
 29 28  1  0  0  0  0
 30 31  1  0  0  0  0
 31 32  1  0  0  0  0
 34 35  1  0  0  0  0
 35 33  1  0  0  0  0
 35 32  1  0  0  0  0
M  END
>  <MODEL>
7

>  <REMARK>
 VINA RESULT:      -6.4      1.787      2.372
  Name = 
  7 active torsions:
  status: ('A' for Active; 'I' for Inactive)
    1  A    between atoms: C_3  and  S_9
    2  A    between atoms: C_3  and  C_13
    3  A    between atoms: C_8  and  C_24
    4  A    between atoms: S_9  and  C_24
    5  A    between atoms: C_11  and  C_30
    6  A    between atoms: C_13  and  C_29
    7  A    between atoms: N_27  and  C_29
                            x       y       z     vdW  Elec       q    Type
                         _______ _______ _______ _____ _____    ______ ____

>  <TORSDO>
F 7

$$$$
=
 OpenBabel11052410453D

 35 39  0  0  1  0  0  0  0  0999 V2000
  161.8420  207.0450  150.1670 C   0  0  0  0  0  0  0  0  0  0  0  0
  161.3720  210.6660  150.8100 N   0  0  0  0  0  0  0  0  0  0  0  0
  161.6280  211.7490  150.0530 C   0  0  0  0  0  3  0  0  0  0  0  0
  162.4250  206.7360  148.8280 C   0  0  0  0  0  1  0  0  0  0  0  0
  160.6530  209.3280  152.6730 C   0  0  0  0  0  0  0  0  0  0  0  0
  162.1660  211.2990  148.8570 C   0  0  0  0  0  0  0  0  0  0  0  0
  160.8380  210.6030  152.0720 C   0  0  2  0  0  3  0  0  0  0  0  0
  160.4930  211.7160  152.7290 C   0  0  0  0  0  3  0  0  0  0  0  0
  159.1590  210.4440  156.1050 C   0  0  0  0  0  2  0  0  0  0  0  0
  160.0850  209.1870  154.0630 C   0  0  0  0  0  3  0  0  0  0  0  0
  161.7330  209.5740  150.1010 C   0  0  0  0  0  0  0  0  0  0  0  0
  157.6300  214.0000  155.9480 C   0  0  0  0  0  1  0  0  0  0  0  0
  161.5640  208.3090  150.6580 C   0  0  0  0  0  0  0  0  0  0  0  0
  157.3560  211.5050  157.2520 O   0  0  0  0  0  0  0  0  0  0  0  0
  159.7100  210.4960  154.7060 C   0  0  0  0  0  0  0  0  0  0  0  0
  159.5810  212.9770  154.7510 C   0  0  0  0  0  2  0  0  0  0  0  0
  160.9770  206.8510  152.2340 C   0  0  0  0  0  0  0  0  0  0  0  0
  159.9090  211.6740  154.0780 C   0  0  0  0  0  0  0  0  0  0  0  0
  161.4750  206.1250  151.1520 C   0  0  0  0  0  0  0  0  0  0  0  0
  158.2560  211.6060  156.3780 C   0  0  0  0  0  0  0  0  0  0  0  0
  160.5000  206.3160  153.4260 O   0  0  0  0  0  1  0  0  0  0  0  0
  162.2370  209.9120  148.8610 C   0  0  0  0  0  3  0  0  0  0  0  0
  161.0330  208.1970  151.9250 C   0  0  0  0  0  0  0  0  0  0  0  0
  158.4480  212.8340  155.6610 N   0  0  0  0  0  0  0  0  0  0  0  0
  162.3350  204.0250  151.8640 O   0  0  0  0  0  0  0  0  0  0  0  0
  161.5920  204.6520  151.0640 C   0  0  0  0  0  0  0  0  0  0  0  0
  160.8420  203.8780  150.0360 C   0  0  0  0  0  1  0  0  0  0  0  0
  162.5570  212.1700  147.7140 C   0  0  0  0  0  2  0  0  0  0  0  0
  161.0970  213.0200  147.0370 S   0  0  0  0  0  0  0  0  0  0  0  0
  161.9850  213.6230  145.5650 C   0  0  0  0  0  2  0  0  0  0  0  0
  161.2250  213.2880  144.2900 C   0  0  0  0  0  2  0  0  0  0  0  0
  162.1220  212.5760  143.2860 C   0  0  0  0  0  2  0  0  0  0  0  0
  160.7650  213.3950  141.5680 C   0  0  0  0  0  1  0  0  0  0  0  0
  162.3310  211.7320  141.1240 C   0  0  0  0  0  1  0  0  0  0  0  0
  161.3650  212.1880  142.1070 N   0  0  0  0  0  0  0  0  0  0  0  0
  1 13  2  0  0  0  0
  1 19  1  0  0  0  0
  2  7  1  0  0  0  0
  3  2  1  0  0  0  0
  4  1  1  0  0  0  0
  5 10  1  0  0  0  0
  6 22  1  0  0  0  0
  6  3  2  0  0  0  0
  7  5  1  0  0  0  0
  7  8  1  6  0  0  0
  8 18  2  0  0  0  0
  9 20  1  0  0  0  0
 10 15  2  0  0  0  0
 11 13  1  0  0  0  0
 11  2  1  0  0  0  0
 13 23  1  0  0  0  0
 15  9  1  0  0  0  0
 16 24  1  0  0  0  0
 17 21  1  0  0  0  0
 18 15  1  0  0  0  0
 18 16  1  0  0  0  0
 19 17  2  0  0  0  0
 20 14  2  0  0  0  0
 22 11  2  0  0  0  0
 23 17  1  0  0  0  0
 23  5  2  0  0  0  0
 24 12  1  0  0  0  0
 24 20  1  0  0  0  0
 26 19  1  0  0  0  0
 26 25  2  0  0  0  0
 27 26  1  0  0  0  0
 28  6  1  0  0  0  0
 29 28  1  0  0  0  0
 30 29  1  0  0  0  0
 31 30  1  0  0  0  0
 32 31  1  0  0  0  0
 33 35  1  0  0  0  0
 34 35  1  0  0  0  0
 35 32  1  0  0  0  0
M  END
>  <MODEL>
8

>  <REMARK>
 VINA RESULT:      -6.3      2.580      6.573
  Name = 
  7 active torsions:
  status: ('A' for Active; 'I' for Inactive)
    1  A    between atoms: C_3  and  S_9
    2  A    between atoms: C_3  and  C_13
    3  A    between atoms: C_8  and  C_24
    4  A    between atoms: S_9  and  C_24
    5  A    between atoms: C_11  and  C_30
    6  A    between atoms: C_13  and  C_29
    7  A    between atoms: N_27  and  C_29
                            x       y       z     vdW  Elec       q    Type
                         _______ _______ _______ _____ _____    ______ ____

>  <TORSDO>
F 7

$$$$
=
 OpenBabel11052410453D

 35 39  0  0  1  0  0  0  0  0999 V2000
  161.2080  204.9050  150.8930 C   0  0  0  0  0  0  0  0  0  0  0  0
  161.3350  208.4040  152.1130 N   0  0  0  0  0  0  0  0  0  0  0  0
  161.3220  208.9180  153.3570 C   0  0  0  0  0  3  0  0  0  0  0  0
  161.1230  203.8850  151.9780 C   0  0  0  0  0  1  0  0  0  0  0  0
  161.4130  208.2930  149.7130 C   0  0  0  0  0  0  0  0  0  0  0  0
  161.2350  207.8540  154.2420 C   0  0  0  0  0  0  0  0  0  0  0  0
  161.4100  209.0600  150.9100 C   0  0  0  0  0  0  0  0  0  0  0  0
  161.4820  210.3940  150.8580 C   0  0  0  0  0  3  0  0  0  0  0  0
  161.6230  211.1840  147.0960 C   0  0  0  0  0  2  0  0  0  0  0  0
  161.4800  208.9490  148.3560 C   0  0  0  0  0  3  0  0  0  0  0  0
  161.2650  207.0600  152.2220 C   0  0  0  0  0  0  0  0  0  0  0  0
  163.0190  214.4530  148.6360 C   0  0  0  0  0  1  0  0  0  0  0  0
  161.2680  206.2770  151.0710 C   0  0  2  0  0  3  0  0  0  0  0  0
  162.9010  212.9970  146.2140 O   0  0  0  0  0  0  0  0  0  0  0  0
  161.5790  210.4510  148.4080 C   0  0  0  0  0  0  0  0  0  0  0  0
  161.6190  212.6210  149.6190 C   0  0  0  0  0  2  0  0  0  0  0  0
  161.3250  205.9000  148.8780 C   0  0  0  0  0  0  0  0  0  0  0  0
  161.5740  211.1190  149.5810 C   0  0  0  0  0  0  0  0  0  0  0  0
  161.2430  204.6620  149.5170 C   0  0  0  0  0  0  0  0  0  0  0  0
  162.3480  212.4880  147.2250 C   0  0  0  0  0  0  0  0  0  0  0  0
  161.3820  206.1060  147.5040 O   0  0  0  0  0  1  0  0  0  0  0  0
  161.2040  206.6560  153.5410 C   0  0  0  0  0  3  0  0  0  0  0  0
  161.3400  206.8920  149.8400 C   0  0  0  0  0  0  0  0  0  0  0  0
  162.3790  213.1570  148.4930 N   0  0  0  0  0  0  0  0  0  0  0  0
  161.8840  203.1190  147.8240 O   0  0  0  0  0  0  0  0  0  0  0  0
  161.2020  203.3360  148.8600 C   0  0  0  0  0  0  0  0  0  0  0  0
  160.3620  202.2320  149.4010 C   0  0  0  0  0  1  0  0  0  0  0  0
  161.2320  207.9760  155.7260 C   0  0  0  0  0  2  0  0  0  0  0  0
  161.7120  209.6590  156.2250 S   0  0  0  0  0  0  0  0  0  0  0  0
  160.0450  210.0840  156.8230 C   0  0  0  0  0  2  0  0  0  0  0  0
  159.2390  210.7930  155.7460 C   0  0  0  0  0  2  0  0  0  0  0  0
  160.0000  211.9880  155.1870 C   0  0  0  0  0  2  0  0  0  0  0  0
  158.7960  211.5710  153.2270 C   0  0  0  0  0  1  0  0  0  0  0  0
  158.0520  213.1830  154.7320 C   0  0  0  0  0  1  0  0  0  0  0  0
  159.2440  212.6250  154.1210 N   0  0  0  0  0  0  0  0  0  0  0  0
  1 13  1  0  0  0  0
  1  4  1  0  0  0  0
  2 11  1  0  0  0  0
  2  3  1  0  0  0  0
  3  6  2  0  0  0  0
  5 23  1  0  0  0  0
  5  7  1  0  0  0  0
  6 28  1  0  0  0  0
  7  2  1  0  0  0  0
  8  7  2  0  0  0  0
  9 20  1  0  0  0  0
  9 15  1  0  0  0  0
 10 15  1  0  0  0  0
 10  5  2  0  0  0  0
 11 22  2  0  0  0  0
 13 23  1  6  0  0  0
 13 11  1  0  0  0  0
 14 20  2  0  0  0  0
 15 18  2  0  0  0  0
 17 19  1  0  0  0  0
 17 23  2  0  0  0  0
 18 16  1  0  0  0  0
 18  8  1  0  0  0  0
 19  1  2  0  0  0  0
 20 24  1  0  0  0  0
 21 17  1  0  0  0  0
 22  6  1  0  0  0  0
 24 12  1  0  0  0  0
 24 16  1  0  0  0  0
 25 26  2  0  0  0  0
 26 27  1  0  0  0  0
 26 19  1  0  0  0  0
 28 29  1  0  0  0  0
 29 30  1  0  0  0  0
 31 30  1  0  0  0  0
 32 31  1  0  0  0  0
 33 35  1  0  0  0  0
 35 34  1  0  0  0  0
 35 32  1  0  0  0  0
M  END
>  <MODEL>
9

>  <REMARK>
 VINA RESULT:      -6.1      3.181      7.813
  Name = 
  7 active torsions:
  status: ('A' for Active; 'I' for Inactive)
    1  A    between atoms: C_3  and  S_9
    2  A    between atoms: C_3  and  C_13
    3  A    between atoms: C_8  and  C_24
    4  A    between atoms: S_9  and  C_24
    5  A    between atoms: C_11  and  C_30
    6  A    between atoms: C_13  and  C_29
    7  A    between atoms: N_27  and  C_29
                            x       y       z     vdW  Elec       q    Type
                         _______ _______ _______ _____ _____    ______ ____

>  <TORSDO>
F 7

$$$$
