=
 OpenBabel11052409523D

 26 29  0  0  1  0  0  0  0  0999 V2000
  161.8420  206.3640  150.6450 N   0  0  0  0  0  0  0  0  0  0  0  0
  160.8020  204.4280  149.5250 C   0  0  0  0  0  3  0  0  0  0  0  0
  162.2790  207.5090  148.6940 C   0  0  0  0  0  0  0  0  0  0  0  0
  161.5770  206.0770  152.0590 C   0  0  0  0  0  2  0  0  0  0  0  0
  160.6300  207.0160  155.2390 C   0  0  0  0  0  3  0  0  0  0  0  0
  161.6470  206.3030  148.2830 N   0  0  0  0  0  2  0  0  0  0  0  0
  162.6820  208.3760  147.8740 O   0  0  0  0  0  0  0  0  0  0  0  0
  161.2160  207.3540  152.7380 C   0  0  0  0  0  0  0  0  0  0  0  0
  160.8560  207.6360  154.0310 C   0  0  0  0  0  0  0  0  0  0  0  0
  160.0770  208.0960  157.2610 O   0  0  0  0  0  0  0  0  0  0  0  0
  160.4230  209.3300  155.3510 N   0  0  0  0  0  2  0  0  0  0  0  0
  160.9850  209.5540  153.0360 O   0  0  0  0  0  0  0  0  0  0  0  0
  162.4350  207.6220  150.1740 C   0  0  1  0  0  3  0  0  0  0  0  0
  160.3540  208.1540  156.0340 C   0  0  0  0  0  0  0  0  0  0  0  0
  160.7250  208.9270  154.1400 N   0  0  0  0  0  0  0  0  0  0  0  0
  161.2960  208.6200  152.1450 C   0  0  0  0  0  0  0  0  0  0  0  0
  161.3920  205.6260  149.5040 C   0  0  0  0  0  0  0  0  0  0  0  0
  161.6500  208.8340  150.7080 C   0  0  0  0  0  2  0  0  0  0  0  0
  160.5190  203.6530  150.7650 C   0  0  0  0  0  2  0  0  0  0  0  0
  160.9830  202.2220  150.5860 C   0  0  0  0  0  2  0  0  0  0  0  0
  159.2210  201.3100  149.2740 O   0  0  0  0  0  0  0  0  0  0  0  0
  160.4280  201.6670  149.3220 C   0  0  0  0  0  0  0  0  0  0  0  0
  161.2790  201.5150  148.1850 N   0  0  0  0  0  2  0  0  0  0  0  0
  160.8020  200.9870  146.9160 C   0  0  0  0  0  2  0  0  0  0  0  0
  160.8540  201.9840  145.9420 O   0  0  0  0  0  0  0  0  0  0  0  0
  160.0020  201.5320  144.9350 C   0  0  0  0  0  1  0  0  0  0  0  0
  1  4  1  0  0  0  0
  2 19  1  0  0  0  0
  3 13  1  0  0  0  0
  4  8  1  0  0  0  0
  5 14  1  0  0  0  0
  6  3  1  0  0  0  0
  6 17  1  0  0  0  0
  7  3  2  0  0  0  0
  8  9  1  0  0  0  0
  9 15  1  0  0  0  0
  9  5  2  0  0  0  0
 11 14  1  0  0  0  0
 12 15  1  0  0  0  0
 13  1  1  0  0  0  0
 13 18  1  1  0  0  0
 14 10  2  0  0  0  0
 15 11  1  0  0  0  0
 16  8  2  0  0  0  0
 16 12  1  0  0  0  0
 17  2  2  0  0  0  0
 17  1  1  0  0  0  0
 18 16  1  0  0  0  0
 20 19  1  0  0  0  0
 21 22  2  0  0  0  0
 22 20  1  0  0  0  0
 23 22  1  0  0  0  0
 24 23  1  0  0  0  0
 25 24  1  0  0  0  0
 26 25  1  0  0  0  0
M  END
>  <MODEL>
1

>  <REMARK>
 VINA RESULT:      -8.3      0.000      0.000
  Name = 
  5 active torsions:
  status: ('A' for Active; 'I' for Inactive)
    1  A    between atoms: C_2  and  C_20
    2  A    between atoms: O_4  and  C_9
    3  A    between atoms: C_7  and  C_10
    4  A    between atoms: C_7  and  C_20
    5  A    between atoms: C_9  and  N_21
                            x       y       z     vdW  Elec       q    Type
                         _______ _______ _______ _____ _____    ______ ____

>  <TORSDO>
F 5

$$$$
=
 OpenBabel11052409523D

 26 29  0  0  1  0  0  0  0  0999 V2000
  161.7070  207.7020  150.4400 N   0  0  0  0  0  0  0  0  0  0  0  0
  160.6960  206.2560  148.7160 C   0  0  0  0  0  3  0  0  0  0  0  0
  162.0890  209.4710  149.0130 C   0  0  0  0  0  0  0  0  0  0  0  0
  161.4690  206.9290  151.6640 C   0  0  0  0  0  2  0  0  0  0  0  0
  160.5470  206.6660  154.9760 C   0  0  0  0  0  3  0  0  0  0  0  0
  161.4790  208.4690  148.2080 N   0  0  0  0  0  2  0  0  0  0  0  0
  162.4600  210.5810  148.5490 O   0  0  0  0  0  0  0  0  0  0  0  0
  161.0880  207.8760  152.7500 C   0  0  0  0  0  0  0  0  0  0  0  0
  160.7410  207.6760  154.0620 C   0  0  0  0  0  0  0  0  0  0  0  0
  159.9990  206.9520  157.2510 O   0  0  0  0  0  0  0  0  0  0  0  0
  160.2880  208.7860  155.8950 N   0  0  0  0  0  2  0  0  0  0  0  0
  160.8110  209.8240  153.8040 O   0  0  0  0  0  0  0  0  0  0  0  0
  162.2640  209.0610  150.4380 C   0  0  1  0  0  3  0  0  0  0  0  0
  160.2560  207.4430  156.1220 C   0  0  0  0  0  0  0  0  0  0  0  0
  160.5820  208.8430  154.6180 N   0  0  0  0  0  0  0  0  0  0  0  0
  161.1300  209.2720  152.6400 C   0  0  0  0  0  0  0  0  0  0  0  0
  161.2570  207.4000  149.1140 C   0  0  0  0  0  0  0  0  0  0  0  0
  161.4580  209.9860  151.3680 C   0  0  0  0  0  2  0  0  0  0  0  0
  160.4490  205.0880  149.6060 C   0  0  0  0  0  2  0  0  0  0  0  0
  161.5060  204.0300  149.3590 C   0  0  0  0  0  2  0  0  0  0  0  0
  160.5270  202.1540  148.2730 O   0  0  0  0  0  0  0  0  0  0  0  0
  161.1550  203.2400  148.1500 C   0  0  0  0  0  0  0  0  0  0  0  0
  161.5620  203.7040  146.8610 N   0  0  0  0  0  2  0  0  0  0  0  0
  161.2460  202.9850  145.6350 C   0  0  0  0  0  2  0  0  0  0  0  0
  160.5390  203.8200  144.7690 O   0  0  0  0  0  0  0  0  0  0  0  0
  161.3040  204.9840  144.7060 C   0  0  0  0  0  1  0  0  0  0  0  0
  1  4  1  0  0  0  0
  2 17  2  0  0  0  0
  2 19  1  0  0  0  0
  3 13  1  0  0  0  0
  4  8  1  0  0  0  0
  5 14  1  0  0  0  0
  6  3  1  0  0  0  0
  6 17  1  0  0  0  0
  7  3  2  0  0  0  0
  8  9  1  0  0  0  0
  9 15  1  0  0  0  0
  9  5  2  0  0  0  0
 11 14  1  0  0  0  0
 12 15  1  0  0  0  0
 13  1  1  0  0  0  0
 13 18  1  1  0  0  0
 14 10  2  0  0  0  0
 15 11  1  0  0  0  0
 16  8  2  0  0  0  0
 16 12  1  0  0  0  0
 17  1  1  0  0  0  0
 18 16  1  0  0  0  0
 20 19  1  0  0  0  0
 22 21  2  0  0  0  0
 22 20  1  0  0  0  0
 23 22  1  0  0  0  0
 24 23  1  0  0  0  0
 25 24  1  0  0  0  0
 26 25  1  0  0  0  0
M  END
>  <MODEL>
2

>  <REMARK>
 VINA RESULT:      -8.2      1.561      1.753
  Name = 
  5 active torsions:
  status: ('A' for Active; 'I' for Inactive)
    1  A    between atoms: C_2  and  C_20
    2  A    between atoms: O_4  and  C_9
    3  A    between atoms: C_7  and  C_10
    4  A    between atoms: C_7  and  C_20
    5  A    between atoms: C_9  and  N_21
                            x       y       z     vdW  Elec       q    Type
                         _______ _______ _______ _____ _____    ______ ____

>  <TORSDO>
F 5

$$$$
=
 OpenBabel11052409523D

 26 29  0  0  1  0  0  0  0  0999 V2000
  160.8470  204.3350  149.5480 N   0  0  0  0  0  0  0  0  0  0  0  0
  162.1250  204.1540  147.4460 C   0  0  0  0  0  3  0  0  0  0  0  0
  160.7650  202.0620  149.9240 C   0  0  0  0  0  0  0  0  0  0  0  0
  160.8440  205.7830  149.7800 C   0  0  0  0  0  2  0  0  0  0  0  0
  161.1440  208.5490  151.8170 C   0  0  0  0  0  3  0  0  0  0  0  0
  161.4910  202.2130  148.7100 N   0  0  0  0  0  2  0  0  0  0  0  0
  160.5070  200.9360  150.4250 O   0  0  0  0  0  0  0  0  0  0  0  0
  161.0400  206.0260  151.2370 C   0  0  0  0  0  0  0  0  0  0  0  0
  161.1400  207.1820  151.9700 C   0  0  0  0  0  0  0  0  0  0  0  0
  161.2770  210.1310  153.5600 O   0  0  0  0  0  0  0  0  0  0  0  0
  161.2750  207.8820  154.0410 N   0  0  0  0  0  2  0  0  0  0  0  0
  161.1600  205.5740  153.4200 O   0  0  0  0  0  0  0  0  0  0  0  0
  160.3270  203.3610  150.5160 C   0  0  1  0  0  3  0  0  0  0  0  0
  161.2390  208.9330  153.1760 C   0  0  0  0  0  0  0  0  0  0  0  0
  161.2190  206.8540  153.2290 N   0  0  0  0  0  0  0  0  0  0  0  0
  161.0470  205.0250  152.2170 C   0  0  0  0  0  0  0  0  0  0  0  0
  161.5240  203.6170  148.5100 C   0  0  0  0  0  0  0  0  0  0  0  0
  160.9690  203.5660  151.9010 C   0  0  0  0  0  2  0  0  0  0  0  0
  162.1830  205.6160  147.1640 C   0  0  0  0  0  2  0  0  0  0  0  0
  162.1140  205.8460  145.6680 C   0  0  0  0  0  2  0  0  0  0  0  0
  159.8280  206.1030  145.0630 O   0  0  0  0  0  0  0  0  0  0  0  0
  160.8220  205.3330  145.1380 C   0  0  0  0  0  0  0  0  0  0  0  0
  160.7140  203.9620  144.7510 N   0  0  0  0  0  2  0  0  0  0  0  0
  159.4840  203.3950  144.2180 C   0  0  0  0  0  2  0  0  0  0  0  0
  159.4120  202.0390  144.5400 O   0  0  0  0  0  0  0  0  0  0  0  0
  160.5110  201.8190  145.3700 C   0  0  0  0  0  1  0  0  0  0  0  0
  1  4  1  0  0  0  0
  1 13  1  0  0  0  0
  2 17  2  0  0  0  0
  3  7  2  0  0  0  0
  3 13  1  0  0  0  0
  4  8  1  0  0  0  0
  5  9  2  0  0  0  0
  5 14  1  0  0  0  0
  6  3  1  0  0  0  0
  8  9  1  0  0  0  0
  8 16  2  0  0  0  0
  9 15  1  0  0  0  0
 13 18  1  1  0  0  0
 14 10  2  0  0  0  0
 14 11  1  0  0  0  0
 15 12  1  0  0  0  0
 15 11  1  0  0  0  0
 16 12  1  0  0  0  0
 17  6  1  0  0  0  0
 17  1  1  0  0  0  0
 18 16  1  0  0  0  0
 19  2  1  0  0  0  0
 20 19  1  0  0  0  0
 21 22  2  0  0  0  0
 22 20  1  0  0  0  0
 23 22  1  0  0  0  0
 24 25  1  0  0  0  0
 24 23  1  0  0  0  0
 25 26  1  0  0  0  0
M  END
>  <MODEL>
3

>  <REMARK>
 VINA RESULT:      -8.2      2.215      4.166
  Name = 
  5 active torsions:
  status: ('A' for Active; 'I' for Inactive)
    1  A    between atoms: C_2  and  C_20
    2  A    between atoms: O_4  and  C_9
    3  A    between atoms: C_7  and  C_10
    4  A    between atoms: C_7  and  C_20
    5  A    between atoms: C_9  and  N_21
                            x       y       z     vdW  Elec       q    Type
                         _______ _______ _______ _____ _____    ______ ____

>  <TORSDO>
F 5

$$$$
=
 OpenBabel11052409523D

 26 29  0  0  1  0  0  0  0  0999 V2000
  161.1920  207.2480  150.3810 N   0  0  0  0  0  0  0  0  0  0  0  0
  161.9530  207.7950  152.6630 C   0  0  0  0  0  3  0  0  0  0  0  0
  161.9020  209.2350  149.4550 C   0  0  0  0  0  0  0  0  0  0  0  0
  160.7940  205.8430  150.5210 C   0  0  0  0  0  2  0  0  0  0  0  0
  160.6790  202.5790  149.4150 C   0  0  0  0  0  3  0  0  0  0  0  0
  162.2520  209.3200  150.8320 N   0  0  0  0  0  2  0  0  0  0  0  0
  162.1250  210.1690  148.6400 O   0  0  0  0  0  0  0  0  0  0  0  0
  161.2300  205.1080  149.3000 C   0  0  0  0  0  0  0  0  0  0  0  0
  161.1320  203.7880  148.9390 C   0  0  0  0  0  0  0  0  0  0  0  0
  160.7070  200.5360  148.2380 O   0  0  0  0  0  0  0  0  0  0  0  0
  161.5080  202.4500  147.2460 N   0  0  0  0  0  2  0  0  0  0  0  0
  161.9740  204.7970  147.2190 O   0  0  0  0  0  0  0  0  0  0  0  0
  161.2310  207.9520  149.0930 C   0  0  1  0  0  3  0  0  0  0  0  0
  160.9550  201.7690  148.2880 C   0  0  0  0  0  0  0  0  0  0  0  0
  161.5900  203.6680  147.7250 N   0  0  0  0  0  0  0  0  0  0  0  0
  161.7660  205.7130  148.1560 C   0  0  0  0  0  0  0  0  0  0  0  0
  161.8040  208.0860  151.3680 C   0  0  0  0  0  0  0  0  0  0  0  0
  162.0740  207.1730  148.0660 C   0  0  0  0  0  2  0  0  0  0  0  0
  161.4910  206.5290  153.2980 C   0  0  0  0  0  2  0  0  0  0  0  0
  160.4530  206.8420  154.3560 C   0  0  0  0  0  2  0  0  0  0  0  0
  161.8150  207.8890  156.0000 O   0  0  0  0  0  0  0  0  0  0  0  0
  160.8880  208.0160  155.1570 C   0  0  0  0  0  0  0  0  0  0  0  0
  160.2250  209.2710  154.9860 N   0  0  0  0  0  2  0  0  0  0  0  0
  160.6030  210.4630  155.7300 C   0  0  0  0  0  2  0  0  0  0  0  0
  161.3510  211.3110  154.9130 O   0  0  0  0  0  0  0  0  0  0  0  0
  160.6480  211.3440  153.7090 C   0  0  0  0  0  1  0  0  0  0  0  0
  1  4  1  0  0  0  0
  1 17  1  0  0  0  0
  2 19  1  0  0  0  0
  3  6  1  0  0  0  0
  6 17  1  0  0  0  0
  7  3  2  0  0  0  0
  8  4  1  0  0  0  0
  9  8  1  0  0  0  0
  9  5  2  0  0  0  0
 10 14  2  0  0  0  0
 11 15  1  0  0  0  0
 11 14  1  0  0  0  0
 12 15  1  0  0  0  0
 12 16  1  0  0  0  0
 13 18  1  6  0  0  0
 13  3  1  0  0  0  0
 13  1  1  0  0  0  0
 14  5  1  0  0  0  0
 15  9  1  0  0  0  0
 16  8  2  0  0  0  0
 17  2  2  0  0  0  0
 18 16  1  0  0  0  0
 19 20  1  0  0  0  0
 20 22  1  0  0  0  0
 22 21  2  0  0  0  0
 23 22  1  0  0  0  0
 23 24  1  0  0  0  0
 25 24  1  0  0  0  0
 26 25  1  0  0  0  0
M  END
>  <MODEL>
4

>  <REMARK>
 VINA RESULT:      -8.0      1.738      7.666
  Name = 
  5 active torsions:
  status: ('A' for Active; 'I' for Inactive)
    1  A    between atoms: C_2  and  C_20
    2  A    between atoms: O_4  and  C_9
    3  A    between atoms: C_7  and  C_10
    4  A    between atoms: C_7  and  C_20
    5  A    between atoms: C_9  and  N_21
                            x       y       z     vdW  Elec       q    Type
                         _______ _______ _______ _____ _____    ______ ____

>  <TORSDO>
F 5

$$$$
=
 OpenBabel11052409523D

 26 29  0  0  1  0  0  0  0  0999 V2000
  160.6090  204.4530  149.5970 N   0  0  0  0  0  0  0  0  0  0  0  0
  161.5100  204.7990  147.3270 C   0  0  0  0  0  3  0  0  0  0  0  0
  160.8480  202.1610  149.5570 C   0  0  0  0  0  0  0  0  0  0  0  0
  160.4850  205.8300  150.0890 C   0  0  0  0  0  2  0  0  0  0  0  0
  160.8280  208.2420  152.5300 C   0  0  0  0  0  3  0  0  0  0  0  0
  161.3280  202.6080  148.2950 N   0  0  0  0  0  2  0  0  0  0  0  0
  160.8090  200.9440  149.8760 O   0  0  0  0  0  0  0  0  0  0  0  0
  160.9060  205.8570  151.5190 C   0  0  0  0  0  0  0  0  0  0  0  0
  161.0030  206.8810  152.4280 C   0  0  0  0  0  0  0  0  0  0  0  0
  161.0870  209.5210  154.4930 O   0  0  0  0  0  0  0  0  0  0  0  0
  161.4200  207.2470  154.5460 N   0  0  0  0  0  2  0  0  0  0  0  0
  161.4560  205.0780  153.5360 O   0  0  0  0  0  0  0  0  0  0  0  0
  160.3780  203.2710  150.4380 C   0  0  1  0  0  3  0  0  0  0  0  0
  161.1160  208.4090  153.9050 C   0  0  0  0  0  0  0  0  0  0  0  0
  161.3370  206.3670  153.5770 N   0  0  0  0  0  0  0  0  0  0  0  0
  161.1950  204.7210  152.2850 C   0  0  0  0  0  0  0  0  0  0  0  0
  161.1680  204.0160  148.3540 C   0  0  0  0  0  0  0  0  0  0  0  0
  161.2260  203.3360  151.7220 C   0  0  0  0  0  2  0  0  0  0  0  0
  161.3540  206.2800  147.3130 C   0  0  0  0  0  2  0  0  0  0  0  0
  162.7070  206.9350  147.5050 C   0  0  0  0  0  2  0  0  0  0  0  0
  163.0130  207.7060  149.7340 O   0  0  0  0  0  0  0  0  0  0  0  0
  162.6190  207.9710  148.5670 C   0  0  0  0  0  0  0  0  0  0  0  0
  162.0560  209.2480  148.2610 N   0  0  0  0  0  2  0  0  0  0  0  0
  161.9450  210.3120  149.2490 C   0  0  0  0  0  2  0  0  0  0  0  0
  162.5660  211.4660  148.7700 O   0  0  0  0  0  0  0  0  0  0  0  0
  161.5270  212.2160  148.2190 C   0  0  0  0  0  1  0  0  0  0  0  0
  1  4  1  0  0  0  0
  1 13  1  0  0  0  0
  2 17  2  0  0  0  0
  3  7  2  0  0  0  0
  3 13  1  0  0  0  0
  4  8  1  0  0  0  0
  5 14  1  0  0  0  0
  6 17  1  0  0  0  0
  6  3  1  0  0  0  0
  8 16  2  0  0  0  0
  8  9  1  0  0  0  0
  9  5  2  0  0  0  0
  9 15  1  0  0  0  0
 12 15  1  0  0  0  0
 13 18  1  1  0  0  0
 14 10  2  0  0  0  0
 14 11  1  0  0  0  0
 15 11  1  0  0  0  0
 16 12  1  0  0  0  0
 17  1  1  0  0  0  0
 18 16  1  0  0  0  0
 19  2  1  0  0  0  0
 19 20  1  0  0  0  0
 20 22  1  0  0  0  0
 22 21  2  0  0  0  0
 23 22  1  0  0  0  0
 23 24  1  0  0  0  0
 25 24  1  0  0  0  0
 26 25  1  0  0  0  0
M  END
>  <MODEL>
5

>  <REMARK>
 VINA RESULT:      -7.9      2.062      5.551
  Name = 
  5 active torsions:
  status: ('A' for Active; 'I' for Inactive)
    1  A    between atoms: C_2  and  C_20
    2  A    between atoms: O_4  and  C_9
    3  A    between atoms: C_7  and  C_10
    4  A    between atoms: C_7  and  C_20
    5  A    between atoms: C_9  and  N_21
                            x       y       z     vdW  Elec       q    Type
                         _______ _______ _______ _____ _____    ______ ____

>  <TORSDO>
F 5

$$$$
=
 OpenBabel11052409523D

 26 29  0  0  1  0  0  0  0  0999 V2000
  162.0850  208.8610  150.3420 N   0  0  0  0  0  0  0  0  0  0  0  0
  161.5470  207.5630  148.3140 C   0  0  0  0  0  3  0  0  0  0  0  0
  162.1770  210.8920  149.2570 C   0  0  0  0  0  0  0  0  0  0  0  0
  161.9310  207.8550  151.3980 C   0  0  0  0  0  2  0  0  0  0  0  0
  160.8440  206.8350  154.5070 C   0  0  0  0  0  3  0  0  0  0  0  0
  161.8630  209.9440  148.2440 N   0  0  0  0  0  2  0  0  0  0  0  0
  162.3300  212.1180  149.0130 O   0  0  0  0  0  0  0  0  0  0  0  0
  161.2720  208.5010  152.5680 C   0  0  0  0  0  0  0  0  0  0  0  0
  160.8790  208.0080  153.7880 C   0  0  0  0  0  0  0  0  0  0  0  0
  160.0770  206.6030  156.7250 O   0  0  0  0  0  0  0  0  0  0  0  0
  160.0590  208.6650  155.7090 N   0  0  0  0  0  2  0  0  0  0  0  0
  160.4980  210.1370  153.8740 O   0  0  0  0  0  0  0  0  0  0  0  0
  162.3300  210.2840  150.6110 C   0  0  1  0  0  3  0  0  0  0  0  0
  160.3040  207.3260  155.7200 C   0  0  0  0  0  0  0  0  0  0  0  0
  160.4280  209.0030  154.4970 N   0  0  0  0  0  0  0  0  0  0  0  0
  161.0160  209.8730  152.6810 C   0  0  0  0  0  0  0  0  0  0  0  0
  161.8130  208.7100  148.9440 C   0  0  0  0  0  0  0  0  0  0  0  0
  161.2740  210.8500  151.5790 C   0  0  0  0  0  2  0  0  0  0  0  0
  161.4960  206.2320  148.9800 C   0  0  0  0  0  2  0  0  0  0  0  0
  161.2130  205.1590  147.9480 C   0  0  0  0  0  2  0  0  0  0  0  0
  161.4830  202.7960  147.9240 O   0  0  0  0  0  0  0  0  0  0  0  0
  161.2060  203.8230  148.6000 C   0  0  0  0  0  0  0  0  0  0  0  0
  160.8520  203.7130  149.9800 N   0  0  0  0  0  2  0  0  0  0  0  0
  160.8310  202.4390  150.6830 C   0  0  0  0  0  2  0  0  0  0  0  0
  161.2080  202.6290  152.0130 O   0  0  0  0  0  0  0  0  0  0  0  0
  160.8310  203.9410  152.2980 C   0  0  0  0  0  1  0  0  0  0  0  0
  1 13  1  0  0  0  0
  1  4  1  0  0  0  0
  2 17  2  0  0  0  0
  2 19  1  0  0  0  0
  3 13  1  0  0  0  0
  4  8  1  0  0  0  0
  5 14  1  0  0  0  0
  6 17  1  0  0  0  0
  6  3  1  0  0  0  0
  7  3  2  0  0  0  0
  8 16  2  0  0  0  0
  8  9  1  0  0  0  0
  9 15  1  0  0  0  0
  9  5  2  0  0  0  0
 11 14  1  0  0  0  0
 12 15  1  0  0  0  0
 13 18  1  1  0  0  0
 14 10  2  0  0  0  0
 15 11  1  0  0  0  0
 16 12  1  0  0  0  0
 17  1  1  0  0  0  0
 18 16  1  0  0  0  0
 20 22  1  0  0  0  0
 20 19  1  0  0  0  0
 21 22  2  0  0  0  0
 22 23  1  0  0  0  0
 23 24  1  0  0  0  0
 24 25  1  0  0  0  0
 25 26  1  0  0  0  0
M  END
>  <MODEL>
6

>  <REMARK>
 VINA RESULT:      -7.9      2.031      3.152
  Name = 
  5 active torsions:
  status: ('A' for Active; 'I' for Inactive)
    1  A    between atoms: C_2  and  C_20
    2  A    between atoms: O_4  and  C_9
    3  A    between atoms: C_7  and  C_10
    4  A    between atoms: C_7  and  C_20
    5  A    between atoms: C_9  and  N_21
                            x       y       z     vdW  Elec       q    Type
                         _______ _______ _______ _____ _____    ______ ____

>  <TORSDO>
F 5

$$$$
=
 OpenBabel11052409523D

 26 29  0  0  1  0  0  0  0  0999 V2000
  160.7990  204.1280  149.2100 N   0  0  0  0  0  0  0  0  0  0  0  0
  161.9050  204.1940  147.0050 C   0  0  0  0  0  3  0  0  0  0  0  0
  160.9110  201.8350  149.4170 C   0  0  0  0  0  0  0  0  0  0  0  0
  160.7130  205.5520  149.5500 C   0  0  0  0  0  2  0  0  0  0  0  0
  160.9880  208.1840  151.7610 C   0  0  0  0  0  3  0  0  0  0  0  0
  161.5190  202.1260  148.1640 N   0  0  0  0  0  2  0  0  0  0  0  0
  160.7770  200.6600  149.8490 O   0  0  0  0  0  0  0  0  0  0  0  0
  161.0150  205.7060  151.0020 C   0  0  0  0  0  0  0  0  0  0  0  0
  161.0940  206.8120  151.8100 C   0  0  0  0  0  0  0  0  0  0  0  0
  161.1550  209.6450  153.6040 O   0  0  0  0  0  0  0  0  0  0  0  0
  161.3540  207.3750  153.9110 N   0  0  0  0  0  2  0  0  0  0  0  0
  161.3510  205.1140  153.1270 O   0  0  0  0  0  0  0  0  0  0  0  0
  160.4330  203.0510  150.1390 C   0  0  1  0  0  3  0  0  0  0  0  0
  161.1700  208.4780  153.1340 C   0  0  0  0  0  0  0  0  0  0  0  0
  161.3020  206.4040  153.0300 N   0  0  0  0  0  0  0  0  0  0  0  0
  161.1750  204.6430  151.8990 C   0  0  0  0  0  0  0  0  0  0  0  0
  161.4350  203.5390  148.0700 C   0  0  0  0  0  0  0  0  0  0  0  0
  161.1740  203.2080  151.4800 C   0  0  0  0  0  2  0  0  0  0  0  0
  161.8340  205.6720  146.8310 C   0  0  0  0  0  2  0  0  0  0  0  0
  160.6150  206.0270  146.0030 C   0  0  0  0  0  2  0  0  0  0  0  0
  160.2970  204.3720  144.3240 O   0  0  0  0  0  0  0  0  0  0  0  0
  160.7740  205.5000  144.6220 C   0  0  0  0  0  0  0  0  0  0  0  0
  161.4950  206.2650  143.6540 N   0  0  0  0  0  2  0  0  0  0  0  0
  161.6810  205.8140  142.2830 C   0  0  0  0  0  2  0  0  0  0  0  0
  161.6690  206.9110  141.4210 O   0  0  0  0  0  0  0  0  0  0  0  0
  162.3930  206.4870  140.3070 C   0  0  0  0  0  1  0  0  0  0  0  0
  1  4  1  0  0  0  0
  1 13  1  0  0  0  0
  2 17  2  0  0  0  0
  3  7  2  0  0  0  0
  3 13  1  0  0  0  0
  4  8  1  0  0  0  0
  5  9  2  0  0  0  0
  5 14  1  0  0  0  0
  6  3  1  0  0  0  0
  8  9  1  0  0  0  0
  8 16  2  0  0  0  0
  9 15  1  0  0  0  0
 13 18  1  1  0  0  0
 14 10  2  0  0  0  0
 14 11  1  0  0  0  0
 15 12  1  0  0  0  0
 15 11  1  0  0  0  0
 16 12  1  0  0  0  0
 17  6  1  0  0  0  0
 17  1  1  0  0  0  0
 18 16  1  0  0  0  0
 19  2  1  0  0  0  0
 20 19  1  0  0  0  0
 21 22  2  0  0  0  0
 22 20  1  0  0  0  0
 23 22  1  0  0  0  0
 24 23  1  0  0  0  0
 25 24  1  0  0  0  0
 26 25  1  0  0  0  0
M  END
>  <MODEL>
7

>  <REMARK>
 VINA RESULT:      -7.8      3.095      4.892
  Name = 
  5 active torsions:
  status: ('A' for Active; 'I' for Inactive)
    1  A    between atoms: C_2  and  C_20
    2  A    between atoms: O_4  and  C_9
    3  A    between atoms: C_7  and  C_10
    4  A    between atoms: C_7  and  C_20
    5  A    between atoms: C_9  and  N_21
                            x       y       z     vdW  Elec       q    Type
                         _______ _______ _______ _____ _____    ______ ____

>  <TORSDO>
F 5

$$$$
=
 OpenBabel11052409523D

 26 29  0  0  1  0  0  0  0  0999 V2000
  162.0790  208.2710  150.4820 N   0  0  0  0  0  0  0  0  0  0  0  0
  161.5800  210.6750  150.2330 C   0  0  0  0  0  3  0  0  0  0  0  0
  161.3800  208.1520  152.6750 C   0  0  0  0  0  0  0  0  0  0  0  0
  162.4170  207.8870  149.1070 C   0  0  0  0  0  2  0  0  0  0  0  0
  162.2550  205.7440  146.4100 C   0  0  0  0  0  3  0  0  0  0  0  0
  161.1760  209.5060  152.2930 N   0  0  0  0  0  2  0  0  0  0  0  0
  161.1250  207.7270  153.8330 O   0  0  0  0  0  0  0  0  0  0  0  0
  161.8240  206.5460  148.8360 C   0  0  0  0  0  0  0  0  0  0  0  0
  161.8190  205.7550  147.7150 C   0  0  0  0  0  0  0  0  0  0  0  0
  162.0050  203.9610  144.8880 O   0  0  0  0  0  0  0  0  0  0  0  0
  161.2060  203.7650  147.0350 N   0  0  0  0  0  2  0  0  0  0  0  0
  160.8590  204.5780  149.2580 O   0  0  0  0  0  0  0  0  0  0  0  0
  161.9470  207.3070  151.5810 C   0  0  1  0  0  3  0  0  0  0  0  0
  161.8270  204.4490  146.0340 C   0  0  0  0  0  0  0  0  0  0  0  0
  161.2350  204.6310  148.0200 N   0  0  0  0  0  0  0  0  0  0  0  0
  161.2060  205.7390  149.8000 C   0  0  0  0  0  0  0  0  0  0  0  0
  161.6130  209.5440  150.9440 C   0  0  0  0  0  0  0  0  0  0  0  0
  160.9660  206.1790  151.2080 C   0  0  0  0  0  2  0  0  0  0  0  0
  162.0390  210.7920  148.8210 C   0  0  0  0  0  2  0  0  0  0  0  0
  162.3520  212.2410  148.5080 C   0  0  0  0  0  2  0  0  0  0  0  0
  160.7250  212.1870  146.7740 O   0  0  0  0  0  0  0  0  0  0  0  0
  161.8640  212.5790  147.1450 C   0  0  0  0  0  0  0  0  0  0  0  0
  162.7060  213.3160  146.2570 N   0  0  0  0  0  2  0  0  0  0  0  0
  162.2900  213.6880  144.9130 C   0  0  0  0  0  2  0  0  0  0  0  0
  163.0500  212.9900  143.9750 O   0  0  0  0  0  0  0  0  0  0  0  0
  162.1270  212.5780  143.0140 C   0  0  0  0  0  1  0  0  0  0  0  0
  1 17  1  0  0  0  0
  1 13  1  0  0  0  0
  2 17  2  0  0  0  0
  3  7  2  0  0  0  0
  4  1  1  0  0  0  0
  5  9  2  0  0  0  0
  6  3  1  0  0  0  0
  8  4  1  0  0  0  0
  8 16  2  0  0  0  0
  9 15  1  0  0  0  0
  9  8  1  0  0  0  0
 10 14  2  0  0  0  0
 11 15  1  0  0  0  0
 12 16  1  0  0  0  0
 13 18  1  6  0  0  0
 13  3  1  0  0  0  0
 14  5  1  0  0  0  0
 14 11  1  0  0  0  0
 15 12  1  0  0  0  0
 16 18  1  0  0  0  0
 17  6  1  0  0  0  0
 19  2  1  0  0  0  0
 20 19  1  0  0  0  0
 21 22  2  0  0  0  0
 22 20  1  0  0  0  0
 23 22  1  0  0  0  0
 24 23  1  0  0  0  0
 25 24  1  0  0  0  0
 26 25  1  0  0  0  0
M  END
>  <MODEL>
8

>  <REMARK>
 VINA RESULT:      -7.5      3.654      8.315
  Name = 
  5 active torsions:
  status: ('A' for Active; 'I' for Inactive)
    1  A    between atoms: C_2  and  C_20
    2  A    between atoms: O_4  and  C_9
    3  A    between atoms: C_7  and  C_10
    4  A    between atoms: C_7  and  C_20
    5  A    between atoms: C_9  and  N_21
                            x       y       z     vdW  Elec       q    Type
                         _______ _______ _______ _____ _____    ______ ____

>  <TORSDO>
F 5

$$$$
=
 OpenBabel11052409523D

 26 29  0  0  1  0  0  0  0  0999 V2000
  162.2470  208.3120  150.4470 N   0  0  0  0  0  0  0  0  0  0  0  0
  161.8810  210.7280  150.1080 C   0  0  0  0  0  3  0  0  0  0  0  0
  161.5370  208.3120  152.6400 C   0  0  0  0  0  0  0  0  0  0  0  0
  162.5670  207.8580  149.0900 C   0  0  0  0  0  2  0  0  0  0  0  0
  162.2950  205.6290  146.4730 C   0  0  0  0  0  3  0  0  0  0  0  0
  161.4080  209.6610  152.2070 N   0  0  0  0  0  2  0  0  0  0  0  0
  161.2560  207.9460  153.8120 O   0  0  0  0  0  0  0  0  0  0  0  0
  161.9020  206.5430  148.8660 C   0  0  0  0  0  0  0  0  0  0  0  0
  161.8570  205.7120  147.7750 C   0  0  0  0  0  0  0  0  0  0  0  0
  161.9520  203.8070  145.0170 O   0  0  0  0  0  0  0  0  0  0  0  0
  161.1380  203.7340  147.1660 N   0  0  0  0  0  2  0  0  0  0  0  0
  160.8310  204.6480  149.3560 O   0  0  0  0  0  0  0  0  0  0  0  0
  162.0590  207.3980  151.5810 C   0  0  1  0  0  3  0  0  0  0  0  0
  161.7980  204.3460  146.1430 C   0  0  0  0  0  0  0  0  0  0  0  0
  161.2120  204.6330  148.1190 N   0  0  0  0  0  0  0  0  0  0  0  0
  161.2390  205.8070  149.8560 C   0  0  0  0  0  0  0  0  0  0  0  0
  161.8500  209.6250  150.8590 C   0  0  0  0  0  0  0  0  0  0  0  0
  161.0200  206.3120  151.2460 C   0  0  0  0  0  2  0  0  0  0  0  0
  162.3480  210.7670  148.6940 C   0  0  0  0  0  2  0  0  0  0  0  0
  162.6830  212.1940  148.3100 C   0  0  0  0  0  2  0  0  0  0  0  0
  162.4810  213.0640  146.1050 O   0  0  0  0  0  0  0  0  0  0  0  0
  161.8930  212.5930  147.1150 C   0  0  0  0  0  0  0  0  0  0  0  0
  160.4700  212.4690  147.1380 N   0  0  0  0  0  2  0  0  0  0  0  0
  159.6350  212.8330  146.0020 C   0  0  0  0  0  2  0  0  0  0  0  0
  159.7080  211.8390  145.0260 O   0  0  0  0  0  0  0  0  0  0  0  0
  159.7010  212.5360  143.8180 C   0  0  0  0  0  1  0  0  0  0  0  0
  1 17  1  0  0  0  0
  1 13  1  0  0  0  0
  2 17  2  0  0  0  0
  3  7  2  0  0  0  0
  4  1  1  0  0  0  0
  5  9  2  0  0  0  0
  6  3  1  0  0  0  0
  8  4  1  0  0  0  0
  8 16  2  0  0  0  0
  9 15  1  0  0  0  0
  9  8  1  0  0  0  0
 10 14  2  0  0  0  0
 11 15  1  0  0  0  0
 12 16  1  0  0  0  0
 13 18  1  6  0  0  0
 13  3  1  0  0  0  0
 14  5  1  0  0  0  0
 14 11  1  0  0  0  0
 15 12  1  0  0  0  0
 16 18  1  0  0  0  0
 17  6  1  0  0  0  0
 19  2  1  0  0  0  0
 20 19  1  0  0  0  0
 21 22  2  0  0  0  0
 22 23  1  0  0  0  0
 22 20  1  0  0  0  0
 24 23  1  0  0  0  0
 25 24  1  0  0  0  0
 26 25  1  0  0  0  0
M  END
>  <MODEL>
9

>  <REMARK>
 VINA RESULT:      -7.4      3.509      8.170
  Name = 
  5 active torsions:
  status: ('A' for Active; 'I' for Inactive)
    1  A    between atoms: C_2  and  C_20
    2  A    between atoms: O_4  and  C_9
    3  A    between atoms: C_7  and  C_10
    4  A    between atoms: C_7  and  C_20
    5  A    between atoms: C_9  and  N_21
                            x       y       z     vdW  Elec       q    Type
                         _______ _______ _______ _____ _____    ______ ____

>  <TORSDO>
F 5

$$$$
