=
 OpenBabel11042420123D

 30 33  0  0  1  0  0  0  0  0999 V2000
  161.3890  205.8540  150.4000 C   0  0  2  0  0  3  0  0  0  0  0  0
  161.3240  202.6950  151.3100 N   0  0  0  0  0  0  0  0  0  0  0  0
  160.0470  204.0080  150.0900 O   0  0  0  0  0  0  0  0  0  0  0  0
  160.4910  204.8930  151.0470 N   0  0  0  0  0  0  0  0  0  0  0  0
  160.5660  202.7520  150.2790 C   0  0  0  0  0  0  0  0  0  0  0  0
  161.3330  204.0300  151.9030 C   0  0  0  0  0  2  0  0  0  0  0  0
  159.1010  201.2800  149.1630 O   0  0  0  0  0  0  0  0  0  0  0  0
  160.2930  201.6160  149.3950 C   0  0  0  0  0  0  0  0  0  0  0  0
  161.4070  200.8520  148.7620 C   0  0  0  0  0  1  0  0  0  0  0  0
  162.0150  205.3550  149.2250 O   0  0  0  0  0  0  0  0  0  0  0  0
  161.5920  206.0070  148.0360 C   0  0  1  0  0  3  0  0  0  0  0  0
  163.3070  207.6100  148.4520 F   0  0  0  0  0  0  0  0  0  0  0  0
  162.1450  207.4050  147.7300 C   0  0  0  0  0  3  0  0  0  0  0  0
  161.2270  208.3720  148.1030 F   0  0  0  0  0  0  0  0  0  0  0  0
  161.4410  203.9010  147.0020 O   0  0  0  0  0  0  0  0  0  0  0  0
  161.2130  205.0960  146.8940 C   0  0  0  0  0  0  0  0  0  0  0  0
  161.5980  205.4640  144.4980 C   0  0  0  0  0  2  0  0  0  0  0  0
  160.6300  205.6150  145.6060 C   0  0  1  0  0  3  0  0  0  0  0  0
  160.5230  204.5750  144.6620 O   0  0  0  0  0  0  0  0  0  0  0  0
  162.3670  206.5270  151.3640 C   0  0  0  0  0  2  0  0  0  0  0  0
  161.8070  207.8540  151.8440 C   0  0  1  0  0  0  0  0  0  0  0  0
  162.1350  209.0680  151.0660 C   0  0  0  0  0  2  0  0  0  0  0  0
  160.8990  208.4000  150.9200 O   0  0  0  0  0  0  0  0  0  0  0  0
  160.9530  206.9170  154.0130 C   0  0  0  0  0  3  0  0  0  0  0  0
  160.4580  208.3740  155.8660 C   0  0  0  0  0  0  0  0  0  0  0  0
  160.8280  209.4450  155.1130 N   0  0  0  0  0  0  0  0  0  0  0  0
  159.9810  208.5730  157.2600 C   0  0  0  0  0  1  0  0  0  0  0  0
  161.3490  208.0260  153.2590 C   0  0  0  0  0  0  0  0  0  0  0  0
  161.2660  209.3000  153.8320 C   0  0  0  0  0  3  0  0  0  0  0  0
  160.5090  207.0860  155.3250 C   0  0  0  0  0  3  0  0  0  0  0  0
  1  4  1  0  0  0  0
  1 20  1  1  0  0  0
  2  6  1  0  0  0  0
  3  5  1  0  0  0  0
  3  4  1  0  0  0  0
  4  6  1  0  0  0  0
  5  2  2  0  0  0  0
  7  8  2  0  0  0  0
  8  5  1  0  0  0  0
  9  8  1  0  0  0  0
 10  1  1  0  0  0  0
 11 16  1  6  0  0  0
 11 10  1  0  0  0  0
 13 11  1  0  0  0  0
 13 14  1  0  0  0  0
 13 12  1  0  0  0  0
 16 15  2  0  0  0  0
 17 19  1  0  0  0  0
 17 18  1  0  0  0  0
 18 16  1  1  0  0  0
 19 18  1  0  0  0  0
 21 20  1  6  0  0  0
 21 28  1  0  0  0  0
 22 21  1  0  0  0  0
 23 22  1  0  0  0  0
 23 21  1  0  0  0  0
 24 30  1  0  0  0  0
 25 27  1  0  0  0  0
 26 25  1  0  0  0  0
 28 29  1  0  0  0  0
 28 24  2  0  0  0  0
 29 26  2  0  0  0  0
 30 25  2  0  0  0  0
M  END
>  <MODEL>
1

>  <REMARK>
 VINA RESULT:      -7.3      0.000      0.000
  Name = 
  10 active torsions:
  status: ('A' for Active; 'I' for Inactive)
    1  A    between atoms: O_3  and  C_23
    2  A    between atoms: O_3  and  C_26
    3  A    between atoms: C_8  and  C_23
    4  A    between atoms: C_10  and  C_19
    5  A    between atoms: C_10  and  C_22
    6  A    between atoms: N_13  and  C_26
    7  A    between atoms: C_14  and  C_15
    8  A    between atoms: C_16  and  C_29
    9  A    between atoms: C_19  and  C_26
   10  A    between atoms: C_23  and  C_29
                            x       y       z     vdW  Elec       q    Type
                         _______ _______ _______ _____ _____    ______ ____

>  <TORSDO>
F 10

$$$$
=
 OpenBabel11042420123D

 30 33  0  0  1  0  0  0  0  0999 V2000
  161.4260  206.2680  151.1320 C   0  0  2  0  0  3  0  0  0  0  0  0
  161.6350  202.9880  151.2150 N   0  0  0  0  0  0  0  0  0  0  0  0
  160.1720  204.4540  150.4710 O   0  0  0  0  0  0  0  0  0  0  0  0
  160.6530  205.1080  151.5830 N   0  0  0  0  0  0  0  0  0  0  0  0
  160.7800  203.2360  150.2950 C   0  0  0  0  0  0  0  0  0  0  0  0
  161.6220  204.1320  152.1240 C   0  0  0  0  0  2  0  0  0  0  0  0
  159.6550  201.4040  149.3250 O   0  0  0  0  0  0  0  0  0  0  0  0
  160.4910  202.3350  149.1760 C   0  0  0  0  0  0  0  0  0  0  0  0
  161.1720  202.5050  147.8590 C   0  0  0  0  0  1  0  0  0  0  0  0
  162.0670  206.9760  152.1850 O   0  0  0  0  0  0  0  0  0  0  0  0
  161.1960  207.8430  152.8990 C   0  0  1  0  0  3  0  0  0  0  0  0
  161.4730  208.1640  155.2450 F   0  0  0  0  0  0  0  0  0  0  0  0
  160.7550  207.4380  154.3120 C   0  0  0  0  0  3  0  0  0  0  0  0
  161.0060  206.0930  154.5220 F   0  0  0  0  0  0  0  0  0  0  0  0
  162.4000  209.7500  152.2330 O   0  0  0  0  0  0  0  0  0  0  0  0
  161.3060  209.3070  152.5490 C   0  0  0  0  0  0  0  0  0  0  0  0
  160.2060  211.0430  153.8920 C   0  0  0  0  0  2  0  0  0  0  0  0
  160.1360  210.2500  152.6440 C   0  0  1  0  0  3  0  0  0  0  0  0
  160.5820  211.5860  152.6520 O   0  0  0  0  0  0  0  0  0  0  0  0
  160.6620  207.1810  150.1720 C   0  0  0  0  0  2  0  0  0  0  0  0
  161.5350  207.5470  148.9840 C   0  0  1  0  0  0  0  0  0  0  0  0
  162.0900  208.9160  148.9260 C   0  0  0  0  0  2  0  0  0  0  0  0
  162.8570  207.8180  149.3750 O   0  0  0  0  0  0  0  0  0  0  0  0
  162.5880  206.0490  147.2630 C   0  0  0  0  0  3  0  0  0  0  0  0
  161.3400  205.3430  145.3270 C   0  0  0  0  0  0  0  0  0  0  0  0
  160.2670  206.0540  145.7680 N   0  0  0  0  0  0  0  0  0  0  0  0
  161.2600  204.5910  144.0470 C   0  0  0  0  0  1  0  0  0  0  0  0
  161.4690  206.7590  147.7120 C   0  0  0  0  0  0  0  0  0  0  0  0
  160.3070  206.7580  146.9330 C   0  0  0  0  0  3  0  0  0  0  0  0
  162.5260  205.3330  146.0670 C   0  0  0  0  0  3  0  0  0  0  0  0
  1 20  1  1  0  0  0
  1  4  1  0  0  0  0
  1 10  1  0  0  0  0
  2  6  1  0  0  0  0
  3  4  1  0  0  0  0
  4  6  1  0  0  0  0
  5  3  1  0  0  0  0
  5  2  2  0  0  0  0
  8  7  2  0  0  0  0
  8  5  1  0  0  0  0
  9  8  1  0  0  0  0
 11 10  1  1  0  0  0
 11 13  1  0  0  0  0
 13 14  1  0  0  0  0
 13 12  1  0  0  0  0
 15 16  2  0  0  0  0
 16 11  1  0  0  0  0
 18 16  1  1  0  0  0
 18 19  1  0  0  0  0
 18 17  1  0  0  0  0
 19 17  1  0  0  0  0
 21 23  1  0  0  0  0
 21 20  1  1  0  0  0
 22 21  1  0  0  0  0
 22 23  1  0  0  0  0
 24 28  1  0  0  0  0
 25 26  2  0  0  0  0
 25 30  1  0  0  0  0
 26 29  1  0  0  0  0
 27 25  1  0  0  0  0
 28 21  1  0  0  0  0
 29 28  2  0  0  0  0
 30 24  2  0  0  0  0
M  END
>  <MODEL>
2

>  <REMARK>
 VINA RESULT:      -7.2      2.671      6.507
  Name = 
  10 active torsions:
  status: ('A' for Active; 'I' for Inactive)
    1  A    between atoms: O_3  and  C_23
    2  A    between atoms: O_3  and  C_26
    3  A    between atoms: C_8  and  C_23
    4  A    between atoms: C_10  and  C_19
    5  A    between atoms: C_10  and  C_22
    6  A    between atoms: N_13  and  C_26
    7  A    between atoms: C_14  and  C_15
    8  A    between atoms: C_16  and  C_29
    9  A    between atoms: C_19  and  C_26
   10  A    between atoms: C_23  and  C_29
                            x       y       z     vdW  Elec       q    Type
                         _______ _______ _______ _____ _____    ______ ____

>  <TORSDO>
F 10

$$$$
=
 OpenBabel11042420123D

 30 33  0  0  1  0  0  0  0  0999 V2000
  161.5380  206.7040  150.5580 C   0  0  2  0  0  3  0  0  0  0  0  0
  161.0690  205.3560  153.5200 N   0  0  0  0  0  0  0  0  0  0  0  0
  162.0300  207.1830  152.7560 O   0  0  0  0  0  0  0  0  0  0  0  0
  162.3060  206.2980  151.7380 N   0  0  0  0  0  0  0  0  0  0  0  0
  161.3010  206.5930  153.7580 C   0  0  0  0  0  0  0  0  0  0  0  0
  161.6950  205.0480  152.2370 C   0  0  0  0  0  2  0  0  0  0  0  0
  159.9370  206.7880  155.6720 O   0  0  0  0  0  0  0  0  0  0  0  0
  160.8360  207.3020  154.9540 C   0  0  0  0  0  0  0  0  0  0  0  0
  161.4140  208.6240  155.3350 C   0  0  0  0  0  1  0  0  0  0  0  0
  160.9130  207.9750  150.6880 O   0  0  0  0  0  0  0  0  0  0  0  0
  161.7610  209.0620  150.3460 C   0  0  1  0  0  3  0  0  0  0  0  0
  162.9360  208.6780  148.3080 F   0  0  0  0  0  0  0  0  0  0  0  0
  161.9200  209.4320  148.8660 C   0  0  0  0  0  3  0  0  0  0  0  0
  162.2540  210.7700  148.7430 F   0  0  0  0  0  0  0  0  0  0  0  0
  162.9220  210.1930  152.0500 O   0  0  0  0  0  0  0  0  0  0  0  0
  161.8920  210.1400  151.3960 C   0  0  0  0  0  0  0  0  0  0  0  0
  159.8560  210.5200  152.7140 C   0  0  0  0  0  2  0  0  0  0  0  0
  160.7760  211.1000  151.7090 C   0  0  1  0  0  3  0  0  0  0  0  0
  160.8210  211.4780  153.0660 O   0  0  0  0  0  0  0  0  0  0  0  0
  160.5940  205.6200  150.0350 C   0  0  0  0  0  2  0  0  0  0  0  0
  160.9350  205.2720  148.5960 C   0  0  1  0  0  0  0  0  0  0  0  0
  160.7310  206.3110  147.5640 C   0  0  0  0  0  2  0  0  0  0  0  0
  162.0050  206.0460  148.1140 O   0  0  0  0  0  0  0  0  0  0  0  0
  160.8630  202.8080  149.0770 C   0  0  0  0  0  3  0  0  0  0  0  0
  161.2320  201.2060  147.3150 C   0  0  0  0  0  0  0  0  0  0  0  0
  161.4020  202.2270  146.4320 N   0  0  0  0  0  0  0  0  0  0  0  0
  161.3490  199.7970  146.8560 C   0  0  0  0  0  1  0  0  0  0  0  0
  161.0210  203.8450  148.1520 C   0  0  0  0  0  0  0  0  0  0  0  0
  161.3060  203.5290  146.8190 C   0  0  0  0  0  3  0  0  0  0  0  0
  160.9630  201.4790  148.6590 C   0  0  0  0  0  3  0  0  0  0  0  0
  1 20  1  1  0  0  0
  1 10  1  0  0  0  0
  1  4  1  0  0  0  0
  2  5  2  0  0  0  0
  3  5  1  0  0  0  0
  4  6  1  0  0  0  0
  4  3  1  0  0  0  0
  5  8  1  0  0  0  0
  6  2  1  0  0  0  0
  8  9  1  0  0  0  0
  8  7  2  0  0  0  0
 11 13  1  6  0  0  0
 11 10  1  0  0  0  0
 11 16  1  0  0  0  0
 12 13  1  0  0  0  0
 14 13  1  0  0  0  0
 16 15  2  0  0  0  0
 17 19  1  0  0  0  0
 18 16  1  1  0  0  0
 18 17  1  0  0  0  0
 18 19  1  0  0  0  0
 21 20  1  1  0  0  0
 22 23  1  0  0  0  0
 22 21  1  0  0  0  0
 23 21  1  0  0  0  0
 25 30  2  0  0  0  0
 26 29  2  0  0  0  0
 26 25  1  0  0  0  0
 27 25  1  0  0  0  0
 28 21  1  0  0  0  0
 28 24  2  0  0  0  0
 29 28  1  0  0  0  0
 30 24  1  0  0  0  0
M  END
>  <MODEL>
3

>  <REMARK>
 VINA RESULT:      -6.8      2.257      7.040
  Name = 
  10 active torsions:
  status: ('A' for Active; 'I' for Inactive)
    1  A    between atoms: O_3  and  C_23
    2  A    between atoms: O_3  and  C_26
    3  A    between atoms: C_8  and  C_23
    4  A    between atoms: C_10  and  C_19
    5  A    between atoms: C_10  and  C_22
    6  A    between atoms: N_13  and  C_26
    7  A    between atoms: C_14  and  C_15
    8  A    between atoms: C_16  and  C_29
    9  A    between atoms: C_19  and  C_26
   10  A    between atoms: C_23  and  C_29
                            x       y       z     vdW  Elec       q    Type
                         _______ _______ _______ _____ _____    ______ ____

>  <TORSDO>
F 10

$$$$
=
 OpenBabel11042420123D

 30 33  0  0  1  0  0  0  0  0999 V2000
  161.1430  204.4850  148.9330 C   0  0  2  0  0  3  0  0  0  0  0  0
  160.7390  206.5710  146.4230 N   0  0  0  0  0  0  0  0  0  0  0  0
  161.9040  204.7360  146.7740 O   0  0  0  0  0  0  0  0  0  0  0  0
  161.9410  205.3120  148.0240 N   0  0  0  0  0  0  0  0  0  0  0  0
  161.1860  205.4980  145.8860 C   0  0  0  0  0  0  0  0  0  0  0  0
  161.1880  206.5660  147.8140 C   0  0  0  0  0  2  0  0  0  0  0  0
  160.1030  204.2240  144.2220 O   0  0  0  0  0  0  0  0  0  0  0  0
  160.9510  205.1170  144.4900 C   0  0  0  0  0  0  0  0  0  0  0  0
  161.7000  205.7740  143.3800 C   0  0  0  0  0  1  0  0  0  0  0  0
  160.4180  203.4500  148.2810 O   0  0  0  0  0  0  0  0  0  0  0  0
  160.8600  202.1440  148.6260 C   0  0  1  0  0  3  0  0  0  0  0  0
  161.3890  200.6810  150.4330 F   0  0  0  0  0  0  0  0  0  0  0  0
  160.4190  201.5520  149.9700 C   0  0  0  0  0  3  0  0  0  0  0  0
  159.2400  200.8430  149.8150 F   0  0  0  0  0  0  0  0  0  0  0  0
  161.6070  200.1190  147.6920 O   0  0  0  0  0  0  0  0  0  0  0  0
  161.1270  201.2190  147.4630 C   0  0  0  0  0  0  0  0  0  0  0  0
  160.3090  200.5100  145.2600 C   0  0  0  0  0  2  0  0  0  0  0  0
  160.8890  201.6300  146.0340 C   0  0  1  0  0  3  0  0  0  0  0  0
  159.5150  201.5700  145.7290 O   0  0  0  0  0  0  0  0  0  0  0  0
  160.2880  205.2930  149.9100 C   0  0  0  0  0  2  0  0  0  0  0  0
  160.9680  205.3700  151.2670 C   0  0  1  0  0  0  0  0  0  0  0  0
  161.0700  204.1290  152.0630 C   0  0  0  0  0  2  0  0  0  0  0  0
  162.1530  204.6150  151.2980 O   0  0  0  0  0  0  0  0  0  0  0  0
  161.0260  206.7350  153.3750 C   0  0  0  0  0  3  0  0  0  0  0  0
  161.3280  209.1230  153.2800 C   0  0  0  0  0  0  0  0  0  0  0  0
  161.3890  209.0540  151.9230 N   0  0  0  0  0  0  0  0  0  0  0  0
  161.4440  210.4370  153.9650 C   0  0  0  0  0  1  0  0  0  0  0  0
  161.1100  206.6790  151.9800 C   0  0  0  0  0  0  0  0  0  0  0  0
  161.2810  207.8670  151.2620 C   0  0  0  0  0  3  0  0  0  0  0  0
  161.1400  207.9600  154.0330 C   0  0  0  0  0  3  0  0  0  0  0  0
  1 20  1  6  0  0  0
  2  6  1  0  0  0  0
  3  4  1  0  0  0  0
  4  1  1  0  0  0  0
  5  2  2  0  0  0  0
  5  3  1  0  0  0  0
  6  4  1  0  0  0  0
  7  8  2  0  0  0  0
  8  5  1  0  0  0  0
  9  8  1  0  0  0  0
 10 11  1  0  0  0  0
 10  1  1  0  0  0  0
 11 16  1  6  0  0  0
 11 13  1  0  0  0  0
 13 12  1  0  0  0  0
 14 13  1  0  0  0  0
 16 15  2  0  0  0  0
 17 19  1  0  0  0  0
 17 18  1  0  0  0  0
 18 16  1  1  0  0  0
 19 18  1  0  0  0  0
 21 20  1  6  0  0  0
 21 23  1  0  0  0  0
 21 28  1  0  0  0  0
 21 22  1  0  0  0  0
 23 22  1  0  0  0  0
 24 30  1  0  0  0  0
 25 27  1  0  0  0  0
 25 30  2  0  0  0  0
 26 25  1  0  0  0  0
 28 24  2  0  0  0  0
 29 26  2  0  0  0  0
 29 28  1  0  0  0  0
M  END
>  <MODEL>
4

>  <REMARK>
 VINA RESULT:      -6.7      2.799      4.550
  Name = 
  10 active torsions:
  status: ('A' for Active; 'I' for Inactive)
    1  A    between atoms: O_3  and  C_23
    2  A    between atoms: O_3  and  C_26
    3  A    between atoms: C_8  and  C_23
    4  A    between atoms: C_10  and  C_19
    5  A    between atoms: C_10  and  C_22
    6  A    between atoms: N_13  and  C_26
    7  A    between atoms: C_14  and  C_15
    8  A    between atoms: C_16  and  C_29
    9  A    between atoms: C_19  and  C_26
   10  A    between atoms: C_23  and  C_29
                            x       y       z     vdW  Elec       q    Type
                         _______ _______ _______ _____ _____    ______ ____

>  <TORSDO>
F 10

$$$$
=
 OpenBabel11042420123D

 30 33  0  0  1  0  0  0  0  0999 V2000
  161.2480  206.0320  149.6310 C   0  0  2  0  0  3  0  0  0  0  0  0
  160.8080  206.5520  146.4150 N   0  0  0  0  0  0  0  0  0  0  0  0
  162.2760  205.4710  147.6490 O   0  0  0  0  0  0  0  0  0  0  0  0
  161.9810  206.5380  148.4680 N   0  0  0  0  0  0  0  0  0  0  0  0
  161.5620  205.5200  146.4770 C   0  0  0  0  0  0  0  0  0  0  0  0
  161.0150  207.3020  147.6520 C   0  0  0  0  0  2  0  0  0  0  0  0
  162.7380  203.9000  145.2290 O   0  0  0  0  0  0  0  0  0  0  0  0
  161.6470  204.4990  145.4290 C   0  0  0  0  0  0  0  0  0  0  0  0
  160.4580  204.1550  144.5960 C   0  0  0  0  0  1  0  0  0  0  0  0
  160.4970  204.8530  149.3690 O   0  0  0  0  0  0  0  0  0  0  0  0
  161.0720  203.6790  149.9280 C   0  0  1  0  0  3  0  0  0  0  0  0
  161.9720  202.4530  151.7630 F   0  0  0  0  0  0  0  0  0  0  0  0
  161.3690  203.6520  151.4330 C   0  0  0  0  0  3  0  0  0  0  0  0
  160.1910  203.7580  152.1530 F   0  0  0  0  0  0  0  0  0  0  0  0
  159.8620  201.6770  149.6860 O   0  0  0  0  0  0  0  0  0  0  0  0
  160.7360  202.3900  149.2180 C   0  0  0  0  0  0  0  0  0  0  0  0
  161.3300  200.4600  147.8210 C   0  0  0  0  0  2  0  0  0  0  0  0
  161.4860  201.9210  147.9990 C   0  0  1  0  0  3  0  0  0  0  0  0
  160.5940  201.3770  147.0540 O   0  0  0  0  0  0  0  0  0  0  0  0
  160.4440  207.1050  150.3670 C   0  0  0  0  0  2  0  0  0  0  0  0
  161.3410  207.8740  151.3220 C   0  0  1  0  0  0  0  0  0  0  0  0
  162.6940  208.2440  150.8570 C   0  0  0  0  0  2  0  0  0  0  0  0
  161.6240  209.1650  150.8430 O   0  0  0  0  0  0  0  0  0  0  0  0
  160.9690  206.6460  153.4820 C   0  0  0  0  0  3  0  0  0  0  0  0
  160.5540  207.8570  155.5230 C   0  0  0  0  0  0  0  0  0  0  0  0
  160.6470  209.0290  154.8380 N   0  0  0  0  0  0  0  0  0  0  0  0
  160.2690  207.8690  156.9820 C   0  0  0  0  0  1  0  0  0  0  0  0
  161.0810  207.8600  152.7970 C   0  0  0  0  0  0  0  0  0  0  0  0
  160.9030  209.0560  153.5000 C   0  0  0  0  0  3  0  0  0  0  0  0
  160.7080  206.6400  154.8530 C   0  0  0  0  0  3  0  0  0  0  0  0
  1 20  1  6  0  0  0
  2  5  2  0  0  0  0
  2  6  1  0  0  0  0
  3  4  1  0  0  0  0
  4  1  1  0  0  0  0
  5  3  1  0  0  0  0
  6  4  1  0  0  0  0
  7  8  2  0  0  0  0
  8  5  1  0  0  0  0
  9  8  1  0  0  0  0
 10  1  1  0  0  0  0
 10 11  1  0  0  0  0
 11 16  1  1  0  0  0
 11 13  1  0  0  0  0
 13 12  1  0  0  0  0
 13 14  1  0  0  0  0
 16 15  2  0  0  0  0
 17 18  1  0  0  0  0
 18 16  1  1  0  0  0
 19 17  1  0  0  0  0
 19 18  1  0  0  0  0
 21 20  1  6  0  0  0
 21 28  1  0  0  0  0
 22 21  1  0  0  0  0
 23 22  1  0  0  0  0
 23 21  1  0  0  0  0
 24 30  1  0  0  0  0
 25 27  1  0  0  0  0
 26 25  1  0  0  0  0
 28 24  2  0  0  0  0
 28 29  1  0  0  0  0
 29 26  2  0  0  0  0
 30 25  2  0  0  0  0
M  END
>  <MODEL>
5

>  <REMARK>
 VINA RESULT:      -6.6      2.239      3.811
  Name = 
  10 active torsions:
  status: ('A' for Active; 'I' for Inactive)
    1  A    between atoms: O_3  and  C_23
    2  A    between atoms: O_3  and  C_26
    3  A    between atoms: C_8  and  C_23
    4  A    between atoms: C_10  and  C_19
    5  A    between atoms: C_10  and  C_22
    6  A    between atoms: N_13  and  C_26
    7  A    between atoms: C_14  and  C_15
    8  A    between atoms: C_16  and  C_29
    9  A    between atoms: C_19  and  C_26
   10  A    between atoms: C_23  and  C_29
                            x       y       z     vdW  Elec       q    Type
                         _______ _______ _______ _____ _____    ______ ____

>  <TORSDO>
F 10

$$$$
=
 OpenBabel11042420123D

 30 33  0  0  1  0  0  0  0  0999 V2000
  161.3650  206.3180  151.1390 C   0  0  2  0  0  3  0  0  0  0  0  0
  160.6700  207.0810  154.2610 N   0  0  0  0  0  0  0  0  0  0  0  0
  162.0410  207.8500  152.7200 O   0  0  0  0  0  0  0  0  0  0  0  0
  162.0440  206.5050  152.4240 N   0  0  0  0  0  0  0  0  0  0  0  0
  161.2220  208.1340  153.7840 C   0  0  0  0  0  0  0  0  0  0  0  0
  161.1510  205.9550  153.4650 C   0  0  0  0  0  2  0  0  0  0  0  0
  161.8580  210.3840  154.0950 O   0  0  0  0  0  0  0  0  0  0  0  0
  160.9970  209.4870  154.3010 C   0  0  0  0  0  0  0  0  0  0  0  0
  159.7590  209.8190  155.0660 C   0  0  0  0  0  1  0  0  0  0  0  0
  160.8320  207.5170  150.5900 O   0  0  0  0  0  0  0  0  0  0  0  0
  161.6160  208.0550  149.5340 C   0  0  1  0  0  3  0  0  0  0  0  0
  160.3340  206.6500  148.0980 F   0  0  0  0  0  0  0  0  0  0  0  0
  161.4410  207.4780  148.1240 C   0  0  0  0  0  3  0  0  0  0  0  0
  162.5510  206.7280  147.7740 F   0  0  0  0  0  0  0  0  0  0  0  0
  161.9740  209.9960  150.8120 O   0  0  0  0  0  0  0  0  0  0  0  0
  162.0240  209.4990  149.6970 C   0  0  0  0  0  0  0  0  0  0  0  0
  161.3320  211.3050  148.1850 C   0  0  0  0  0  2  0  0  0  0  0  0
  162.4200  210.3630  148.5290 C   0  0  1  0  0  3  0  0  0  0  0  0
  162.4600  211.7180  148.9120 O   0  0  0  0  0  0  0  0  0  0  0  0
  160.3670  205.1590  151.1340 C   0  0  0  0  0  2  0  0  0  0  0  0
  161.0750  203.8550  150.8110 C   0  0  1  0  0  0  0  0  0  0  0  0
  162.2040  203.4460  151.6730 C   0  0  0  0  0  2  0  0  0  0  0  0
  160.9090  202.9060  151.8340 O   0  0  0  0  0  0  0  0  0  0  0  0
  161.5170  203.8960  148.3380 C   0  0  0  0  0  3  0  0  0  0  0  0
  160.7270  202.1140  146.9230 C   0  0  0  0  0  0  0  0  0  0  0  0
  160.1860  201.5000  148.0100 N   0  0  0  0  0  0  0  0  0  0  0  0
  160.5870  201.5000  145.5760 C   0  0  0  0  0  1  0  0  0  0  0  0
  160.9710  203.2430  149.4480 C   0  0  0  0  0  0  0  0  0  0  0  0
  160.2900  202.0360  149.2580 C   0  0  0  0  0  3  0  0  0  0  0  0
  161.4000  203.3300  147.0670 C   0  0  0  0  0  3  0  0  0  0  0  0
  1 20  1  1  0  0  0
  1  4  1  0  0  0  0
  3  5  1  0  0  0  0
  4  3  1  0  0  0  0
  4  6  1  0  0  0  0
  5  2  2  0  0  0  0
  5  8  1  0  0  0  0
  6  2  1  0  0  0  0
  7  8  2  0  0  0  0
  8  9  1  0  0  0  0
 10  1  1  0  0  0  0
 11 13  1  6  0  0  0
 11 16  1  0  0  0  0
 11 10  1  0  0  0  0
 12 13  1  0  0  0  0
 14 13  1  0  0  0  0
 16 15  2  0  0  0  0
 17 18  1  0  0  0  0
 17 19  1  0  0  0  0
 18 19  1  0  0  0  0
 18 16  1  1  0  0  0
 21 20  1  1  0  0  0
 21 22  1  0  0  0  0
 21 23  1  0  0  0  0
 22 23  1  0  0  0  0
 24 28  1  0  0  0  0
 25 30  1  0  0  0  0
 25 26  2  0  0  0  0
 26 29  1  0  0  0  0
 27 25  1  0  0  0  0
 28 21  1  0  0  0  0
 29 28  2  0  0  0  0
 30 24  2  0  0  0  0
M  END
>  <MODEL>
6

>  <REMARK>
 VINA RESULT:      -6.5      2.455      6.932
  Name = 
  10 active torsions:
  status: ('A' for Active; 'I' for Inactive)
    1  A    between atoms: O_3  and  C_23
    2  A    between atoms: O_3  and  C_26
    3  A    between atoms: C_8  and  C_23
    4  A    between atoms: C_10  and  C_19
    5  A    between atoms: C_10  and  C_22
    6  A    between atoms: N_13  and  C_26
    7  A    between atoms: C_14  and  C_15
    8  A    between atoms: C_16  and  C_29
    9  A    between atoms: C_19  and  C_26
   10  A    between atoms: C_23  and  C_29
                            x       y       z     vdW  Elec       q    Type
                         _______ _______ _______ _____ _____    ______ ____

>  <TORSDO>
F 10

$$$$
=
 OpenBabel11042420123D

 30 33  0  0  1  0  0  0  0  0999 V2000
  161.2000  206.9940  150.7570 C   0  0  2  0  0  3  0  0  0  0  0  0
  161.5730  208.1840  147.7150 N   0  0  0  0  0  0  0  0  0  0  0  0
  162.0280  206.2840  148.7290 O   0  0  0  0  0  0  0  0  0  0  0  0
  162.2460  207.1830  149.7490 N   0  0  0  0  0  0  0  0  0  0  0  0
  161.6290  206.9120  147.5770 C   0  0  0  0  0  0  0  0  0  0  0  0
  161.9760  208.4770  149.0890 C   0  0  0  0  0  2  0  0  0  0  0  0
  160.1110  206.2350  145.9020 O   0  0  0  0  0  0  0  0  0  0  0  0
  161.2940  206.2050  146.3370 C   0  0  0  0  0  0  0  0  0  0  0  0
  162.3350  205.4510  145.5790 C   0  0  0  0  0  1  0  0  0  0  0  0
  161.6780  207.0270  152.0960 O   0  0  0  0  0  0  0  0  0  0  0  0
  160.9870  207.9550  152.9220 C   0  0  1  0  0  3  0  0  0  0  0  0
  161.5800  208.1940  155.2190 F   0  0  0  0  0  0  0  0  0  0  0  0
  160.6860  207.5610  154.3740 C   0  0  0  0  0  3  0  0  0  0  0  0
  160.8300  206.1940  154.5360 F   0  0  0  0  0  0  0  0  0  0  0  0
  162.3280  209.8010  152.3570 O   0  0  0  0  0  0  0  0  0  0  0  0
  161.1920  209.4100  152.5780 C   0  0  0  0  0  0  0  0  0  0  0  0
  160.0130  211.1530  153.8410 C   0  0  0  0  0  2  0  0  0  0  0  0
  160.0610  210.4040  152.5660 C   0  0  1  0  0  3  0  0  0  0  0  0
  160.5600  211.7160  152.6770 O   0  0  0  0  0  0  0  0  0  0  0  0
  160.2830  205.8030  150.4760 C   0  0  0  0  0  2  0  0  0  0  0  0
  160.9650  204.5050  150.8730 C   0  0  1  0  0  0  0  0  0  0  0  0
  161.9570  204.5500  151.9690 C   0  0  0  0  0  2  0  0  0  0  0  0
  160.6290  204.1190  152.1820 O   0  0  0  0  0  0  0  0  0  0  0  0
  160.8930  202.0350  150.4190 C   0  0  0  0  0  3  0  0  0  0  0  0
  161.1340  201.1950  148.1740 C   0  0  0  0  0  0  0  0  0  0  0  0
  161.2620  202.4710  147.7180 N   0  0  0  0  0  0  0  0  0  0  0  0
  161.2060  200.0550  147.2230 C   0  0  0  0  0  1  0  0  0  0  0  0
  161.0070  203.3410  149.9310 C   0  0  0  0  0  0  0  0  0  0  0  0
  161.2060  203.5400  148.5610 C   0  0  0  0  0  3  0  0  0  0  0  0
  160.9520  200.9540  149.5380 C   0  0  0  0  0  3  0  0  0  0  0  0
  1 20  1  6  0  0  0
  1 10  1  0  0  0  0
  2  6  1  0  0  0  0
  3  4  1  0  0  0  0
  4  1  1  0  0  0  0
  5  2  2  0  0  0  0
  5  3  1  0  0  0  0
  6  4  1  0  0  0  0
  7  8  2  0  0  0  0
  8  5  1  0  0  0  0
  9  8  1  0  0  0  0
 11 10  1  1  0  0  0
 11 13  1  0  0  0  0
 13 14  1  0  0  0  0
 13 12  1  0  0  0  0
 15 16  2  0  0  0  0
 16 11  1  0  0  0  0
 18 16  1  1  0  0  0
 18 19  1  0  0  0  0
 18 17  1  0  0  0  0
 19 17  1  0  0  0  0
 21 20  1  6  0  0  0
 21 22  1  0  0  0  0
 21 23  1  0  0  0  0
 22 23  1  0  0  0  0
 25 30  1  0  0  0  0
 26 25  2  0  0  0  0
 26 29  1  0  0  0  0
 27 25  1  0  0  0  0
 28 24  1  0  0  0  0
 28 21  1  0  0  0  0
 29 28  2  0  0  0  0
 30 24  2  0  0  0  0
M  END
>  <MODEL>
7

>  <REMARK>
 VINA RESULT:      -6.2      2.745      7.014
  Name = 
  10 active torsions:
  status: ('A' for Active; 'I' for Inactive)
    1  A    between atoms: O_3  and  C_23
    2  A    between atoms: O_3  and  C_26
    3  A    between atoms: C_8  and  C_23
    4  A    between atoms: C_10  and  C_19
    5  A    between atoms: C_10  and  C_22
    6  A    between atoms: N_13  and  C_26
    7  A    between atoms: C_14  and  C_15
    8  A    between atoms: C_16  and  C_29
    9  A    between atoms: C_19  and  C_26
   10  A    between atoms: C_23  and  C_29
                            x       y       z     vdW  Elec       q    Type
                         _______ _______ _______ _____ _____    ______ ____

>  <TORSDO>
F 10

$$$$
=
 OpenBabel11042420123D

 30 33  0  0  1  0  0  0  0  0999 V2000
  160.7650  210.0320  153.2430 C   0  0  2  0  0  3  0  0  0  0  0  0
  159.2240  212.8810  152.6720 N   0  0  0  0  0  0  0  0  0  0  0  0
  158.6050  210.8270  153.1680 O   0  0  0  0  0  0  0  0  0  0  0  0
  159.7110  210.5840  152.3860 N   0  0  0  0  0  0  0  0  0  0  0  0
  158.3720  212.1720  153.3130 C   0  0  0  0  0  0  0  0  0  0  0  0
  160.1360  211.9490  152.0110 C   0  0  0  0  0  2  0  0  0  0  0  0
  157.2420  213.9670  154.3450 O   0  0  0  0  0  0  0  0  0  0  0  0
  157.2810  212.7280  154.1190 C   0  0  0  0  0  0  0  0  0  0  0  0
  156.2120  211.8470  154.6730 C   0  0  0  0  0  1  0  0  0  0  0  0
  161.2080  210.9250  154.2570 O   0  0  0  0  0  0  0  0  0  0  0  0
  161.4820  210.2850  155.4960 C   0  0  1  0  0  3  0  0  0  0  0  0
  163.7410  211.0400  155.3860 F   0  0  0  0  0  0  0  0  0  0  0  0
  162.7360  210.7030  156.2750 C   0  0  0  0  0  3  0  0  0  0  0  0
  163.1830  209.6520  157.0570 F   0  0  0  0  0  0  0  0  0  0  0  0
  159.2760  210.4870  156.2820 O   0  0  0  0  0  0  0  0  0  0  0  0
  160.2750  209.7850  156.2510 C   0  0  0  0  0  0  0  0  0  0  0  0
  159.7060  207.3980  156.2060 C   0  0  0  0  0  2  0  0  0  0  0  0
  160.2830  208.4910  157.0200 C   0  0  1  0  0  3  0  0  0  0  0  0
  161.0940  207.5390  156.3700 O   0  0  0  0  0  0  0  0  0  0  0  0
  161.9130  209.3860  152.4670 C   0  0  0  0  0  2  0  0  0  0  0  0
  161.5830  207.9390  152.1430 C   0  0  1  0  0  0  0  0  0  0  0  0
  161.8630  206.9160  153.1730 C   0  0  0  0  0  2  0  0  0  0  0  0
  160.5660  207.4390  152.9740 O   0  0  0  0  0  0  0  0  0  0  0  0
  160.8310  206.2550  150.4370 C   0  0  0  0  0  3  0  0  0  0  0  0
  161.1970  206.6450  148.0880 C   0  0  0  0  0  0  0  0  0  0  0  0
  161.7940  207.8310  148.3850 N   0  0  0  0  0  0  0  0  0  0  0  0
  161.0810  206.2050  146.6730 C   0  0  0  0  0  1  0  0  0  0  0  0
  161.4300  207.4860  150.7240 C   0  0  0  0  0  0  0  0  0  0  0  0
  161.9220  208.2640  149.6700 C   0  0  0  0  0  3  0  0  0  0  0  0
  160.7080  205.8300  149.1130 C   0  0  0  0  0  3  0  0  0  0  0  0
  1 20  1  6  0  0  0
  1 10  1  0  0  0  0
  2  5  2  0  0  0  0
  3  5  1  0  0  0  0
  4  3  1  0  0  0  0
  4  1  1  0  0  0  0
  5  8  1  0  0  0  0
  6  4  1  0  0  0  0
  6  2  1  0  0  0  0
  8  7  2  0  0  0  0
  8  9  1  0  0  0  0
 11 10  1  1  0  0  0
 11 16  1  0  0  0  0
 11 13  1  0  0  0  0
 12 13  1  0  0  0  0
 13 14  1  0  0  0  0
 16 15  2  0  0  0  0
 17 19  1  0  0  0  0
 17 18  1  0  0  0  0
 18 16  1  6  0  0  0
 19 18  1  0  0  0  0
 21 20  1  1  0  0  0
 21 23  1  0  0  0  0
 21 22  1  0  0  0  0
 23 22  1  0  0  0  0
 24 28  1  0  0  0  0
 25 26  2  0  0  0  0
 25 30  1  0  0  0  0
 26 29  1  0  0  0  0
 27 25  1  0  0  0  0
 28 21  1  0  0  0  0
 29 28  2  0  0  0  0
 30 24  2  0  0  0  0
M  END
>  <MODEL>
8

>  <REMARK>
 VINA RESULT:      -6.1      4.084      8.745
  Name = 
  10 active torsions:
  status: ('A' for Active; 'I' for Inactive)
    1  A    between atoms: O_3  and  C_23
    2  A    between atoms: O_3  and  C_26
    3  A    between atoms: C_8  and  C_23
    4  A    between atoms: C_10  and  C_19
    5  A    between atoms: C_10  and  C_22
    6  A    between atoms: N_13  and  C_26
    7  A    between atoms: C_14  and  C_15
    8  A    between atoms: C_16  and  C_29
    9  A    between atoms: C_19  and  C_26
   10  A    between atoms: C_23  and  C_29
                            x       y       z     vdW  Elec       q    Type
                         _______ _______ _______ _____ _____    ______ ____

>  <TORSDO>
F 10

$$$$
=
 OpenBabel11042420123D

 30 33  0  0  1  0  0  0  0  0999 V2000
  161.5800  206.9370  150.3850 C   0  0  2  0  0  3  0  0  0  0  0  0
  161.4750  207.4130  147.1330 N   0  0  0  0  0  0  0  0  0  0  0  0
  162.7830  206.3150  148.5220 O   0  0  0  0  0  0  0  0  0  0  0  0
  162.4390  207.4030  149.2930 N   0  0  0  0  0  0  0  0  0  0  0  0
  162.1900  206.3620  147.2860 C   0  0  0  0  0  0  0  0  0  0  0  0
  161.5800  208.1780  148.3740 C   0  0  0  0  0  2  0  0  0  0  0  0
  163.4520  204.7220  146.1530 O   0  0  0  0  0  0  0  0  0  0  0  0
  162.3490  205.3210  146.2660 C   0  0  0  0  0  0  0  0  0  0  0  0
  161.2210  204.9570  145.3600 C   0  0  0  0  0  1  0  0  0  0  0  0
  160.7870  207.9610  150.9700 O   0  0  0  0  0  0  0  0  0  0  0  0
  161.4680  208.7040  151.9720 C   0  0  1  0  0  3  0  0  0  0  0  0
  163.0780  210.3260  152.6530 F   0  0  0  0  0  0  0  0  0  0  0  0
  162.5070  209.7450  151.5350 C   0  0  0  0  0  3  0  0  0  0  0  0
  161.8990  210.7410  150.7910 F   0  0  0  0  0  0  0  0  0  0  0  0
  160.1040  209.9700  153.4090 O   0  0  0  0  0  0  0  0  0  0  0  0
  160.7040  208.9170  153.2570 C   0  0  0  0  0  0  0  0  0  0  0  0
  161.5750  208.3750  155.4870 C   0  0  0  0  0  2  0  0  0  0  0  0
  160.7120  207.9110  154.3770 C   0  0  1  0  0  3  0  0  0  0  0  0
  160.1760  208.4790  155.5500 O   0  0  0  0  0  0  0  0  0  0  0  0
  162.3110  206.0780  151.4180 C   0  0  0  0  0  2  0  0  0  0  0  0
  161.4880  204.8470  151.7580 C   0  0  1  0  0  0  0  0  0  0  0  0
  161.1940  204.5810  153.1820 C   0  0  0  0  0  2  0  0  0  0  0  0
  160.2490  205.1900  152.3270 O   0  0  0  0  0  0  0  0  0  0  0  0
  161.0370  203.9520  149.4550 C   0  0  0  0  0  3  0  0  0  0  0  0
  161.1180  201.5830  149.0240 C   0  0  0  0  0  0  0  0  0  0  0  0
  161.4260  201.3630  150.3310 N   0  0  0  0  0  0  0  0  0  0  0  0
  160.9830  200.4360  148.0880 C   0  0  0  0  0  1  0  0  0  0  0  0
  161.3730  203.7100  150.7910 C   0  0  0  0  0  0  0  0  0  0  0  0
  161.5540  202.3900  151.2170 C   0  0  0  0  0  3  0  0  0  0  0  0
  160.9120  202.8860  148.5620 C   0  0  0  0  0  3  0  0  0  0  0  0
  1 10  1  0  0  0  0
  1 20  1  1  0  0  0
  2  5  2  0  0  0  0
  2  6  1  0  0  0  0
  3  4  1  0  0  0  0
  4  1  1  0  0  0  0
  5  3  1  0  0  0  0
  6  4  1  0  0  0  0
  7  8  2  0  0  0  0
  8  5  1  0  0  0  0
  9  8  1  0  0  0  0
 11 10  1  6  0  0  0
 11 16  1  0  0  0  0
 13 11  1  0  0  0  0
 13 12  1  0  0  0  0
 14 13  1  0  0  0  0
 16 15  2  0  0  0  0
 17 19  1  0  0  0  0
 18 16  1  6  0  0  0
 18 17  1  0  0  0  0
 18 19  1  0  0  0  0
 21 20  1  6  0  0  0
 21 23  1  0  0  0  0
 21 22  1  0  0  0  0
 23 22  1  0  0  0  0
 24 28  1  0  0  0  0
 25 26  2  0  0  0  0
 26 29  1  0  0  0  0
 27 25  1  0  0  0  0
 28 29  2  0  0  0  0
 28 21  1  0  0  0  0
 30 25  1  0  0  0  0
 30 24  2  0  0  0  0
M  END
>  <MODEL>
9

>  <REMARK>
 VINA RESULT:      -6.1      2.336      6.698
  Name = 
  10 active torsions:
  status: ('A' for Active; 'I' for Inactive)
    1  A    between atoms: O_3  and  C_23
    2  A    between atoms: O_3  and  C_26
    3  A    between atoms: C_8  and  C_23
    4  A    between atoms: C_10  and  C_19
    5  A    between atoms: C_10  and  C_22
    6  A    between atoms: N_13  and  C_26
    7  A    between atoms: C_14  and  C_15
    8  A    between atoms: C_16  and  C_29
    9  A    between atoms: C_19  and  C_26
   10  A    between atoms: C_23  and  C_29
                            x       y       z     vdW  Elec       q    Type
                         _______ _______ _______ _____ _____    ______ ____

>  <TORSDO>
F 10

$$$$
