=
 OpenBabel11052411513D

 32 35  0  0  1  0  0  0  0  0999 V2000
  161.3400  211.1250  152.0480 C   0  0  1  0  0  3  0  0  0  0  0  0
  162.4970  210.7810  154.1150 O   0  0  0  0  0  0  0  0  0  0  0  0
  159.0010  212.0130  152.4190 C   0  0  0  0  0  0  0  0  0  0  0  0
  160.1490  211.9480  151.6060 C   0  0  0  0  0  0  0  0  0  0  0  0
  160.2370  211.1630  154.3080 O   0  0  0  0  0  0  0  0  0  0  0  0
  158.9460  211.2430  153.7040 C   0  0  0  0  0  2  0  0  0  0  0  0
  159.0200  213.3690  150.0000 C   0  0  0  0  0  3  0  0  0  0  0  0
  161.3970  211.0060  153.5440 C   0  0  0  0  0  0  0  0  0  0  0  0
  160.1550  212.6410  150.3810 C   0  0  0  0  0  0  0  0  0  0  0  0
  157.9150  212.7250  152.0150 N   0  0  0  0  0  0  0  0  0  0  0  0
  157.9040  213.4010  150.8360 C   0  0  0  0  0  3  0  0  0  0  0  0
  161.3490  212.5840  149.4720 C   0  0  2  0  0  3  0  0  0  0  0  0
  161.8260  213.9890  149.0870 C   0  0  0  0  0  2  0  0  0  0  0  0
  160.5930  212.3210  147.0730 C   0  0  0  0  0  0  0  0  0  0  0  0
  162.7230  213.6260  146.7920 C   0  0  0  0  0  3  0  0  0  0  0  0
  161.8690  214.1220  144.1480 N   0  0  0  0  0  0  0  0  0  0  0  0
  159.3930  212.1390  146.7300 O   0  0  0  0  0  0  0  0  0  0  0  0
  161.1110  211.6290  148.2960 C   0  0  0  0  0  2  0  0  0  0  0  0
  161.4580  213.1580  146.2860 N   0  0  0  0  0  0  0  0  0  0  0  0
  161.1090  213.4130  144.9190 C   0  0  0  0  0  3  0  0  0  0  0  0
  162.9240  213.9740  148.0670 C   0  0  0  0  0  3  0  0  0  0  0  0
  161.5060  214.3710  142.7630 C   0  0  0  0  0  2  0  0  0  0  0  0
  163.2860  214.1280  141.1950 O   0  0  0  0  0  0  0  0  0  0  0  0
  162.1670  212.1640  141.7310 N   0  0  0  0  0  1  0  0  0  0  0  0
  162.3640  213.5690  141.8440 C   0  0  0  0  0  0  0  0  0  0  0  0
  160.8810  207.4020  151.9480 C   0  0  0  0  0  3  0  0  0  0  0  0
  160.6020  208.7040  152.0130 C   0  0  0  0  0  3  0  0  0  0  0  0
  162.0970  208.4430  149.3530 C   0  0  0  0  0  3  0  0  0  0  0  0
  161.3840  209.7830  151.3730 C   0  0  0  0  0  0  0  0  0  0  0  0
  162.0970  206.8640  151.2720 C   0  0  0  0  0  2  0  0  0  0  0  0
  162.1040  207.1940  149.8170 C   0  0  0  0  0  3  0  0  0  0  0  0
  161.9970  209.6610  150.1810 C   0  0  0  0  0  3  0  0  0  0  0  0
  1 29  1  6  0  0  0
  1  8  1  0  0  0  0
  3  6  1  0  0  0  0
  4  1  1  0  0  0  0
  4  3  2  0  0  0  0
  6  5  1  0  0  0  0
  7  9  2  0  0  0  0
  7 11  1  0  0  0  0
  8  2  2  0  0  0  0
  8  5  1  0  0  0  0
  9  4  1  0  0  0  0
 10  3  1  0  0  0  0
 11 10  2  0  0  0  0
 12  9  1  6  0  0  0
 13 12  1  0  0  0  0
 14 18  1  0  0  0  0
 15 21  2  0  0  0  0
 16 20  2  0  0  0  0
 17 14  2  0  0  0  0
 18 12  1  0  0  0  0
 19 15  1  0  0  0  0
 19 14  1  0  0  0  0
 20 19  1  0  0  0  0
 21 13  1  0  0  0  0
 22 16  1  0  0  0  0
 23 25  2  0  0  0  0
 24 25  1  0  0  0  0
 25 22  1  0  0  0  0
 26 27  2  0  0  0  0
 28 31  2  0  0  0  0
 28 32  1  0  0  0  0
 29 27  1  0  0  0  0
 30 26  1  0  0  0  0
 31 30  1  0  0  0  0
 32 29  2  0  0  0  0
M  END
>  <MODEL>
1

>  <REMARK>
 VINA RESULT:      -5.2      0.000      0.000
  Name = 
  4 active torsions:
  status: ('A' for Active; 'I' for Inactive)
    1  A    between atoms: C_1  and  C_21
    2  A    between atoms: C_2  and  C_19
    3  A    between atoms: N_14  and  C_18
    4  A    between atoms: C_18  and  C_23
                            x       y       z     vdW  Elec       q    Type
                         _______ _______ _______ _____ _____    ______ ____

>  <TORSDO>
F 4

$$$$
=
 OpenBabel11052411513D

 32 35  0  0  1  0  0  0  0  0999 V2000
  161.1340  210.4190  154.7130 C   0  0  1  0  0  3  0  0  0  0  0  0
  160.1150  212.5750  154.9240 O   0  0  0  0  0  0  0  0  0  0  0  0
  159.9240  208.6720  156.0840 C   0  0  0  0  0  0  0  0  0  0  0  0
  160.6890  208.9920  154.9450 C   0  0  0  0  0  0  0  0  0  0  0  0
  159.3980  210.9990  156.4390 O   0  0  0  0  0  0  0  0  0  0  0  0
  159.5790  209.7370  157.0810 C   0  0  0  0  0  2  0  0  0  0  0  0
  160.6270  206.6510  154.3190 C   0  0  0  0  0  3  0  0  0  0  0  0
  160.1960  211.3970  155.3620 C   0  0  0  0  0  0  0  0  0  0  0  0
  161.0390  207.9630  154.0510 C   0  0  0  0  0  0  0  0  0  0  0  0
  159.5450  207.3870  156.3160 N   0  0  0  0  0  0  0  0  0  0  0  0
  159.8750  206.3820  155.4630 C   0  0  0  0  0  3  0  0  0  0  0  0
  161.8700  208.2540  152.8340 C   0  0  2  0  0  3  0  0  0  0  0  0
  161.1510  209.2180  151.8840 C   0  0  0  0  0  2  0  0  0  0  0  0
  161.5000  206.4600  151.0900 C   0  0  0  0  0  0  0  0  0  0  0  0
  161.9760  208.4690  149.6560 C   0  0  0  0  0  3  0  0  0  0  0  0
  160.9750  206.9520  147.4960 N   0  0  0  0  0  0  0  0  0  0  0  0
  160.8130  205.4210  151.2850 O   0  0  0  0  0  0  0  0  0  0  0  0
  162.3860  206.9620  152.1880 C   0  0  0  0  0  2  0  0  0  0  0  0
  161.4520  207.1370  149.8220 N   0  0  0  0  0  0  0  0  0  0  0  0
  160.9990  206.4110  148.6720 C   0  0  0  0  0  3  0  0  0  0  0  0
  161.8840  209.4190  150.5920 C   0  0  0  0  0  3  0  0  0  0  0  0
  160.5160  206.2040  146.3380 C   0  0  0  0  0  2  0  0  0  0  0  0
  162.6830  205.8240  145.4190 O   0  0  0  0  0  0  0  0  0  0  0  0
  161.4310  203.9090  145.8170 N   0  0  0  0  0  1  0  0  0  0  0  0
  161.6020  205.3220  145.8200 C   0  0  0  0  0  0  0  0  0  0  0  0
  163.8390  210.9800  157.2520 C   0  0  0  0  0  3  0  0  0  0  0  0
  162.8730  210.3860  156.5520 C   0  0  0  0  0  3  0  0  0  0  0  0
  164.9340  211.1230  154.4100 C   0  0  0  0  0  3  0  0  0  0  0  0
  162.5600  210.6430  155.1300 C   0  0  0  0  0  0  0  0  0  0  0  0
  164.6950  212.0680  156.6970 C   0  0  0  0  0  2  0  0  0  0  0  0
  165.4900  211.5930  155.5270 C   0  0  0  0  0  3  0  0  0  0  0  0
  163.4880  210.9220  154.1960 C   0  0  0  0  0  3  0  0  0  0  0  0
  1  4  1  0  0  0  0
  1 29  1  1  0  0  0
  1  8  1  0  0  0  0
  2  8  2  0  0  0  0
  3 10  1  0  0  0  0
  3  6  1  0  0  0  0
  4  3  2  0  0  0  0
  5  6  1  0  0  0  0
  7 11  1  0  0  0  0
  8  5  1  0  0  0  0
  9  7  2  0  0  0  0
  9  4  1  0  0  0  0
 11 10  2  0  0  0  0
 12  9  1  1  0  0  0
 13 12  1  0  0  0  0
 14 17  2  0  0  0  0
 14 18  1  0  0  0  0
 15 19  1  0  0  0  0
 15 21  2  0  0  0  0
 16 20  2  0  0  0  0
 18 12  1  0  0  0  0
 19 14  1  0  0  0  0
 20 19  1  0  0  0  0
 21 13  1  0  0  0  0
 22 16  1  0  0  0  0
 23 25  2  0  0  0  0
 24 25  1  0  0  0  0
 25 22  1  0  0  0  0
 27 26  2  0  0  0  0
 28 31  2  0  0  0  0
 29 27  1  0  0  0  0
 30 26  1  0  0  0  0
 31 30  1  0  0  0  0
 32 28  1  0  0  0  0
 32 29  2  0  0  0  0
M  END
>  <MODEL>
2

>  <REMARK>
 VINA RESULT:      -4.0      5.005      6.593
  Name = 
  4 active torsions:
  status: ('A' for Active; 'I' for Inactive)
    1  A    between atoms: C_1  and  C_21
    2  A    between atoms: C_2  and  C_19
    3  A    between atoms: N_14  and  C_18
    4  A    between atoms: C_18  and  C_23
                            x       y       z     vdW  Elec       q    Type
                         _______ _______ _______ _____ _____    ______ ____

>  <TORSDO>
F 4

$$$$
=
 OpenBabel11052411513D

 32 35  0  0  1  0  0  0  0  0999 V2000
  160.4530  212.5360  155.7190 C   0  0  1  0  0  3  0  0  0  0  0  0
  161.3390  214.1470  157.2520 O   0  0  0  0  0  0  0  0  0  0  0  0
  158.0140  212.9700  155.2080 C   0  0  0  0  0  0  0  0  0  0  0  0
  159.2650  212.4820  154.7830 C   0  0  0  0  0  0  0  0  0  0  0  0
  159.0490  214.1520  157.0390 O   0  0  0  0  0  0  0  0  0  0  0  0
  157.8520  213.5110  156.5970 C   0  0  0  0  0  2  0  0  0  0  0  0
  158.2440  211.8810  152.6680 C   0  0  0  0  0  3  0  0  0  0  0  0
  160.3130  213.6500  156.7170 C   0  0  0  0  0  0  0  0  0  0  0  0
  159.3770  211.9340  153.4910 C   0  0  0  0  0  0  0  0  0  0  0  0
  156.9340  212.8970  154.3850 N   0  0  0  0  0  0  0  0  0  0  0  0
  157.0250  212.3720  153.1350 C   0  0  0  0  0  3  0  0  0  0  0  0
  160.6860  211.3840  153.0020 C   0  0  2  0  0  3  0  0  0  0  0  0
  160.6800  211.1970  151.4810 C   0  0  0  0  0  2  0  0  0  0  0  0
  160.6800  208.8610  153.1850 C   0  0  0  0  0  0  0  0  0  0  0  0
  162.1680  209.2220  151.1900 C   0  0  0  0  0  3  0  0  0  0  0  0
  161.8500  206.4650  150.6700 N   0  0  0  0  0  0  0  0  0  0  0  0
  159.7560  208.1980  153.7260 O   0  0  0  0  0  0  0  0  0  0  0  0
  161.1110  210.1520  153.8110 C   0  0  0  0  0  2  0  0  0  0  0  0
  161.3310  208.3720  151.9980 N   0  0  0  0  0  0  0  0  0  0  0  0
  161.2500  206.9720  151.6990 C   0  0  0  0  0  3  0  0  0  0  0  0
  161.9130  210.5150  150.9710 C   0  0  0  0  0  3  0  0  0  0  0  0
  161.7630  205.0440  150.3780 C   0  0  0  0  0  2  0  0  0  0  0  0
  161.1070  203.6620  148.5490 O   0  0  0  0  0  0  0  0  0  0  0  0
  160.6140  205.9190  148.3070 N   0  0  0  0  0  1  0  0  0  0  0  0
  161.1620  204.8230  149.0310 C   0  0  0  0  0  0  0  0  0  0  0  0
  162.6820  209.9020  157.1920 C   0  0  0  0  0  3  0  0  0  0  0  0
  162.0340  211.0540  157.0280 C   0  0  0  0  0  3  0  0  0  0  0  0
  159.7720  208.9930  157.1380 C   0  0  0  0  0  3  0  0  0  0  0  0
  160.7130  211.2130  156.3830 C   0  0  0  0  0  0  0  0  0  0  0  0
  162.1790  208.6030  156.6580 C   0  0  0  0  0  2  0  0  0  0  0  0
  160.8630  208.2380  157.2590 C   0  0  0  0  0  3  0  0  0  0  0  0
  159.7170  210.3140  156.4820 C   0  0  0  0  0  3  0  0  0  0  0  0
  1 29  1  1  0  0  0
  1  8  1  0  0  0  0
  3  6  1  0  0  0  0
  4  3  1  0  0  0  0
  4  1  1  0  0  0  0
  6  5  1  0  0  0  0
  7 11  2  0  0  0  0
  7  9  1  0  0  0  0
  8  5  1  0  0  0  0
  8  2  2  0  0  0  0
  9  4  2  0  0  0  0
 10  3  2  0  0  0  0
 11 10  1  0  0  0  0
 12  9  1  1  0  0  0
 12 18  1  0  0  0  0
 13 12  1  0  0  0  0
 14 17  2  0  0  0  0
 14 18  1  0  0  0  0
 15 19  1  0  0  0  0
 16 20  2  0  0  0  0
 19 14  1  0  0  0  0
 20 19  1  0  0  0  0
 21 15  2  0  0  0  0
 21 13  1  0  0  0  0
 22 16  1  0  0  0  0
 23 25  2  0  0  0  0
 24 25  1  0  0  0  0
 25 22  1  0  0  0  0
 27 26  2  0  0  0  0
 28 31  2  0  0  0  0
 29 32  2  0  0  0  0
 29 27  1  0  0  0  0
 30 26  1  0  0  0  0
 30 31  1  0  0  0  0
 32 28  1  0  0  0  0
M  END
>  <MODEL>
3

>  <REMARK>
 VINA RESULT:      -3.9      5.143      6.736
  Name = 
  4 active torsions:
  status: ('A' for Active; 'I' for Inactive)
    1  A    between atoms: C_1  and  C_21
    2  A    between atoms: C_2  and  C_19
    3  A    between atoms: N_14  and  C_18
    4  A    between atoms: C_18  and  C_23
                            x       y       z     vdW  Elec       q    Type
                         _______ _______ _______ _____ _____    ______ ____

>  <TORSDO>
F 4

$$$$
=
 OpenBabel11052411513D

 32 35  0  0  1  0  0  0  0  0999 V2000
  158.9000  211.2530  155.2920 C   0  0  1  0  0  3  0  0  0  0  0  0
  156.9290  211.9130  156.4810 O   0  0  0  0  0  0  0  0  0  0  0  0
  161.0060  211.9110  156.5300 C   0  0  0  0  0  0  0  0  0  0  0  0
  160.3490  211.0190  155.6590 C   0  0  0  0  0  0  0  0  0  0  0  0
  158.8940  212.8220  157.2590 O   0  0  0  0  0  0  0  0  0  0  0  0
  160.2790  213.1080  157.0660 C   0  0  0  0  0  2  0  0  0  0  0  0
  162.4170  209.7690  155.4780 C   0  0  0  0  0  3  0  0  0  0  0  0
  158.1790  212.0150  156.3680 C   0  0  0  0  0  0  0  0  0  0  0  0
  161.0700  209.9310  155.1310 C   0  0  0  0  0  0  0  0  0  0  0  0
  162.3160  211.7260  156.8400 N   0  0  0  0  0  0  0  0  0  0  0  0
  163.0260  210.6810  156.3400 C   0  0  0  0  0  3  0  0  0  0  0  0
  160.4170  208.9660  154.1840 C   0  0  2  0  0  3  0  0  0  0  0  0
  161.2150  207.6620  154.0780 C   0  0  0  0  0  2  0  0  0  0  0  0
  161.1510  209.4590  151.8140 C   0  0  0  0  0  0  0  0  0  0  0  0
  160.7830  206.9730  151.7240 C   0  0  0  0  0  3  0  0  0  0  0  0
  162.1850  207.0270  149.2750 N   0  0  0  0  0  0  0  0  0  0  0  0
  161.8590  210.4500  151.4890 O   0  0  0  0  0  0  0  0  0  0  0  0
  160.0810  209.6380  152.8460 C   0  0  0  0  0  2  0  0  0  0  0  0
  161.3510  208.1810  151.1820 N   0  0  0  0  0  0  0  0  0  0  0  0
  162.0150  208.1400  149.9130 C   0  0  0  0  0  3  0  0  0  0  0  0
  160.6770  206.7310  153.0340 C   0  0  0  0  0  3  0  0  0  0  0  0
  162.8570  206.9980  147.9860 C   0  0  0  0  0  2  0  0  0  0  0  0
  160.8070  206.5020  146.8740 O   0  0  0  0  0  0  0  0  0  0  0  0
  162.6510  205.3030  146.1260 N   0  0  0  0  0  1  0  0  0  0  0  0
  162.0370  206.2580  146.9840 C   0  0  0  0  0  0  0  0  0  0  0  0
  159.9710  213.5960  152.5640 C   0  0  0  0  0  3  0  0  0  0  0  0
  159.9630  212.5610  153.4020 C   0  0  0  0  0  3  0  0  0  0  0  0
  157.3060  212.2660  151.9060 C   0  0  0  0  0  3  0  0  0  0  0  0
  158.7540  211.9050  153.9450 C   0  0  0  0  0  0  0  0  0  0  0  0
  158.7290  214.2940  152.1200 C   0  0  0  0  0  2  0  0  0  0  0  0
  157.8230  213.3730  151.3730 C   0  0  0  0  0  3  0  0  0  0  0  0
  157.6110  211.7460  153.2540 C   0  0  0  0  0  3  0  0  0  0  0  0
  1 29  1  6  0  0  0
  1  4  1  0  0  0  0
  1  8  1  0  0  0  0
  3 10  1  0  0  0  0
  3  6  1  0  0  0  0
  4  3  2  0  0  0  0
  6  5  1  0  0  0  0
  7 11  1  0  0  0  0
  8  2  2  0  0  0  0
  8  5  1  0  0  0  0
  9  7  2  0  0  0  0
  9  4  1  0  0  0  0
 11 10  2  0  0  0  0
 12  9  1  1  0  0  0
 13 12  1  0  0  0  0
 14 18  1  0  0  0  0
 15 21  2  0  0  0  0
 16 20  2  0  0  0  0
 17 14  2  0  0  0  0
 18 12  1  0  0  0  0
 19 15  1  0  0  0  0
 19 14  1  0  0  0  0
 20 19  1  0  0  0  0
 21 13  1  0  0  0  0
 22 16  1  0  0  0  0
 23 25  2  0  0  0  0
 24 25  1  0  0  0  0
 25 22  1  0  0  0  0
 26 27  2  0  0  0  0
 27 29  1  0  0  0  0
 28 32  1  0  0  0  0
 30 26  1  0  0  0  0
 31 28  2  0  0  0  0
 31 30  1  0  0  0  0
 32 29  2  0  0  0  0
M  END
>  <MODEL>
4

>  <REMARK>
 VINA RESULT:      -3.6      4.861      6.761
  Name = 
  4 active torsions:
  status: ('A' for Active; 'I' for Inactive)
    1  A    between atoms: C_1  and  C_21
    2  A    between atoms: C_2  and  C_19
    3  A    between atoms: N_14  and  C_18
    4  A    between atoms: C_18  and  C_23
                            x       y       z     vdW  Elec       q    Type
                         _______ _______ _______ _____ _____    ______ ____

>  <TORSDO>
F 4

$$$$
=
 OpenBabel11052411513D

 32 35  0  0  1  0  0  0  0  0999 V2000
  160.8200  211.4610  155.3800 C   0  0  1  0  0  3  0  0  0  0  0  0
  161.7330  212.6270  157.2610 O   0  0  0  0  0  0  0  0  0  0  0  0
  158.6070  212.4460  154.6500 C   0  0  0  0  0  0  0  0  0  0  0  0
  159.8010  211.7800  154.3080 C   0  0  0  0  0  0  0  0  0  0  0  0
  159.5420  213.1240  156.7680 O   0  0  0  0  0  0  0  0  0  0  0  0
  158.3320  212.8070  156.0800 C   0  0  0  0  0  2  0  0  0  0  0  0
  159.0270  211.7020  152.0120 C   0  0  0  0  0  3  0  0  0  0  0  0
  160.7300  212.4280  156.5260 C   0  0  0  0  0  0  0  0  0  0  0  0
  160.0100  211.4090  152.9670 C   0  0  0  0  0  0  0  0  0  0  0  0
  157.6720  212.7090  153.6990 N   0  0  0  0  0  0  0  0  0  0  0  0
  157.8590  212.3580  152.4000 C   0  0  0  0  0  3  0  0  0  0  0  0
  161.2590  210.6800  152.5580 C   0  0  2  0  0  3  0  0  0  0  0  0
  161.5070  210.7990  151.0500 C   0  0  0  0  0  2  0  0  0  0  0  0
  160.7360  208.2400  152.1520 C   0  0  0  0  0  0  0  0  0  0  0  0
  162.6180  208.6320  150.5310 C   0  0  0  0  0  3  0  0  0  0  0  0
  161.8830  206.1760  149.3490 N   0  0  0  0  0  0  0  0  0  0  0  0
  159.6150  207.7120  152.3860 O   0  0  0  0  0  0  0  0  0  0  0  0
  161.2780  209.2510  153.1140 C   0  0  0  0  0  2  0  0  0  0  0  0
  161.4950  207.8550  150.9910 N   0  0  0  0  0  0  0  0  0  0  0  0
  161.2060  206.5970  150.3690 C   0  0  0  0  0  3  0  0  0  0  0  0
  162.6610  209.9660  150.5810 C   0  0  0  0  0  3  0  0  0  0  0  0
  161.5820  204.8970  148.7270 C   0  0  0  0  0  2  0  0  0  0  0  0
  161.9380  203.8750  146.6020 O   0  0  0  0  0  0  0  0  0  0  0  0
  162.0550  206.1950  146.6140 N   0  0  0  0  0  1  0  0  0  0  0  0
  161.8790  204.9420  147.2660 C   0  0  0  0  0  0  0  0  0  0  0  0
  162.2950  208.2190  156.5590 C   0  0  0  0  0  3  0  0  0  0  0  0
  161.9200  209.4970  156.5390 C   0  0  0  0  0  3  0  0  0  0  0  0
  159.2800  207.9900  156.1610 C   0  0  0  0  0  3  0  0  0  0  0  0
  160.7320  210.0330  155.8390 C   0  0  0  0  0  0  0  0  0  0  0  0
  161.5910  207.1520  155.7900 C   0  0  0  0  0  2  0  0  0  0  0  0
  160.1740  207.0040  156.2340 C   0  0  0  0  0  3  0  0  0  0  0  0
  159.5670  209.3700  155.7240 C   0  0  0  0  0  3  0  0  0  0  0  0
  1 29  1  1  0  0  0
  1  8  1  0  0  0  0
  3  6  1  0  0  0  0
  4  3  1  0  0  0  0
  4  1  1  0  0  0  0
  6  5  1  0  0  0  0
  7 11  2  0  0  0  0
  7  9  1  0  0  0  0
  8  5  1  0  0  0  0
  8  2  2  0  0  0  0
  9  4  2  0  0  0  0
 10  3  2  0  0  0  0
 11 10  1  0  0  0  0
 12  9  1  6  0  0  0
 12 18  1  0  0  0  0
 13 12  1  0  0  0  0
 14 17  2  0  0  0  0
 14 18  1  0  0  0  0
 15 21  2  0  0  0  0
 15 19  1  0  0  0  0
 16 20  2  0  0  0  0
 19 14  1  0  0  0  0
 20 19  1  0  0  0  0
 21 13  1  0  0  0  0
 22 16  1  0  0  0  0
 23 25  2  0  0  0  0
 24 25  1  0  0  0  0
 25 22  1  0  0  0  0
 27 26  2  0  0  0  0
 28 31  2  0  0  0  0
 29 27  1  0  0  0  0
 30 31  1  0  0  0  0
 30 26  1  0  0  0  0
 32 29  2  0  0  0  0
 32 28  1  0  0  0  0
M  END
>  <MODEL>
5

>  <REMARK>
 VINA RESULT:      -2.3      4.780      6.040
  Name = 
  4 active torsions:
  status: ('A' for Active; 'I' for Inactive)
    1  A    between atoms: C_1  and  C_21
    2  A    between atoms: C_2  and  C_19
    3  A    between atoms: N_14  and  C_18
    4  A    between atoms: C_18  and  C_23
                            x       y       z     vdW  Elec       q    Type
                         _______ _______ _______ _____ _____    ______ ____

>  <TORSDO>
F 4

$$$$
