=
 OpenBabel11052411333D

 58 64  0  0  1  0  0  0  0  0999 V2000
  161.7130  209.8890  150.7990 C   0  0  0  0  0  0  0  0  0  0  0  0
  161.5970  209.8110  152.1180 C   0  0  0  0  0  3  0  0  0  0  0  0
  161.3180  211.0060  152.9700 C   0  0  1  0  0  3  0  0  0  0  0  0
  159.5440  211.0790  153.3300 S   0  0  0  0  0  0  0  0  0  0  0  0
  161.7890  210.7540  154.3220 N   0  0  0  0  0  2  0  0  0  0  0  0
  160.4450  210.7120  154.8780 C   0  0  1  0  0  3  0  0  0  0  0  0
  160.3110  211.7900  155.9680 C   0  0  0  0  0  2  0  0  0  0  0  0
  157.7140  214.4440  154.5270 S   0  0  0  0  0  0  0  0  0  0  0  0
  159.0790  212.5620  155.8550 N   0  0  0  0  0  0  0  0  0  0  0  0
  159.0340  213.1800  154.5370 C   0  0  0  0  0  2  0  0  0  0  0  0
  156.6600  212.3720  156.0770 C   0  0  2  0  0  3  0  0  0  0  0  0
  155.0980  214.0860  155.1300 C   0  0  0  0  0  1  0  0  0  0  0  0
  157.9740  211.6210  155.8990 C   0  0  0  0  0  2  0  0  0  0  0  0
  155.5570  211.3480  156.3340 C   0  0  0  0  0  1  0  0  0  0  0  0
  156.3510  213.2690  154.8520 C   0  0  0  0  0  0  0  0  0  0  0  0
  156.1200  212.4420  153.5940 C   0  0  0  0  0  1  0  0  0  0  0  0
  162.2750  208.5810  148.7930 C   0  0  0  0  0  3  0  0  0  0  0  0
  161.9880  208.6380  150.0790 C   0  0  0  0  0  3  0  0  0  0  0  0
  162.4940  207.3050  148.1830 C   0  0  0  0  0  0  0  0  0  0  0  0
  162.6540  206.2240  147.6700 C   0  0  0  0  0  0  0  0  0  0  0  0
  162.7950  204.9180  147.0250 C   0  0  0  0  0  2  0  0  0  0  0  0
  161.7600  203.6250  145.1280 C   0  0  0  0  0  2  0  0  0  0  0  0
  161.4940  204.5710  146.2980 C   0  0  1  0  0  3  0  0  0  0  0  0
  160.6260  203.4900  146.9680 C   0  0  1  0  0  3  0  0  0  0  0  0
  160.8970  202.5620  145.7730 C   0  0  2  0  0  0  0  0  0  0  0  0
  161.6390  201.4200  146.0710 O   0  0  0  0  0  1  0  0  0  0  0  0
  161.0060  203.5390  150.7990 C   0  0  0  0  0  3  0  0  0  0  0  0
  161.1020  202.9820  148.3370 C   0  0  2  0  0  3  0  0  0  0  0  0
  160.3300  201.7260  148.7320 C   0  0  0  0  0  2  0  0  0  0  0  0
  160.9090  201.1740  150.0280 C   0  0  0  0  0  2  0  0  0  0  0  0
  160.8120  204.0500  149.3940 C   0  0  0  0  0  2  0  0  0  0  0  0
  160.9980  202.2330  151.0960 C   0  0  0  0  0  3  0  0  0  0  0  0
  159.0280  201.0260  145.1200 O   0  0  0  0  0  1  0  0  0  0  0  0
  159.2080  203.0980  144.1580 O   0  0  0  0  0  0  0  0  0  0  0  0
  159.6640  202.2560  144.9790 C   0  0  0  0  0  0  0  0  0  0  0  0
  161.5550  211.1400  150.1700 O   0  0  0  0  0  0  0  0  0  0  0  0
  162.3610  211.5840  149.0900 C   0  0  0  0  0  2  0  0  0  0  0  0
  161.6220  212.6500  148.3130 C   0  0  0  0  0  2  0  0  0  0  0  0
  162.6270  213.4770  147.5390 C   0  0  0  0  0  2  0  0  0  0  0  0
  161.9410  214.2260  146.4140 C   0  0  0  0  0  2  0  0  0  0  0  0
  161.0280  213.0290  145.4000 S   0  0  0  0  0  0  0  0  0  0  0  0
  162.4130  213.1460  143.7630 S   0  0  0  0  0  0  0  0  0  0  0  0
  161.7220  211.2750  141.9430 O   0  0  0  0  0  0  0  0  0  0  0  0
  161.1750  212.6570  140.1520 O   0  0  0  0  0  0  0  0  0  0  0  0
  161.2090  213.4560  141.2860 C   0  0  2  0  0  3  0  0  0  0  0  0
  161.3030  212.5050  142.4500 C   0  0  2  0  0  3  0  0  0  0  0  0
  161.7970  211.4600  140.5460 C   0  0  2  0  0  3  0  0  0  0  0  0
  159.0750  214.2150  140.1250 C   0  0  0  0  0  2  0  0  0  0  0  0
  159.1650  214.0340  142.5200 N   0  0  0  0  0  2  0  0  0  0  0  0
  157.8110  214.0770  142.1210 N   0  0  0  0  0  2  0  0  0  0  0  0
  159.9640  214.3540  141.3420 C   0  0  1  0  0  3  0  0  0  0  0  0
  156.6520  214.2950  140.0530 N   0  0  0  0  0  1  0  0  0  0  0  0
  157.7970  213.6980  140.7210 C   0  0  1  0  0  3  0  0  0  0  0  0
  162.1210  209.1000  139.8050 C   0  0  0  0  0  2  0  0  0  0  0  0
  161.8900  209.9130  138.5560 C   0  0  0  0  0  0  0  0  0  0  0  0
  161.1570  209.2670  137.5620 O   0  0  0  0  0  1  0  0  0  0  0  0
  161.1480  210.2810  139.8280 C   0  0  2  0  0  3  0  0  0  0  0  0
  162.9740  210.6970  138.1530 O   0  0  0  0  0  1  0  0  0  0  0  0
  1  2  2  0  0  0  0
  3  2  1  6  0  0  0
  3  4  1  0  0  0  0
  3  5  1  0  0  0  0
  4  6  1  0  0  0  0
  5  6  1  0  0  0  0
  6  7  1  1  0  0  0
  8 10  1  0  0  0  0
  8 15  1  0  0  0  0
  9 13  1  0  0  0  0
  9  7  1  0  0  0  0
 10  9  1  0  0  0  0
 11 14  1  6  0  0  0
 13 11  1  0  0  0  0
 15 12  1  0  0  0  0
 15 11  1  0  0  0  0
 16 15  1  0  0  0  0
 17 18  2  0  0  0  0
 18  1  1  0  0  0  0
 19 17  1  0  0  0  0
 20 19  3  0  0  0  0
 21 20  1  0  0  0  0
 22 25  1  0  0  0  0
 22 23  1  0  0  0  0
 23 24  1  0  0  0  0
 23 21  1  1  0  0  0
 24 28  1  1  0  0  0
 25 26  1  1  0  0  0
 25 24  1  0  0  0  0
 27 32  2  0  0  0  0
 28 29  1  1  0  0  0
 28 31  1  0  0  0  0
 29 30  1  0  0  0  0
 30 32  1  0  0  0  0
 31 27  1  0  0  0  0
 34 35  2  0  0  0  0
 35 33  1  0  0  0  0
 35 25  1  0  0  0  0
 36  1  1  0  0  0  0
 37 36  1  0  0  0  0
 38 37  1  0  0  0  0
 39 38  1  0  0  0  0
 40 39  1  0  0  0  0
 41 40  1  0  0  0  0
 42 41  1  0  0  0  0
 43 46  1  0  0  0  0
 45 44  1  6  0  0  0
 45 51  1  0  0  0  0
 45 46  1  0  0  0  0
 46 42  1  1  0  0  0
 47 44  1  1  0  0  0
 47 43  1  0  0  0  0
 48 53  1  0  0  0  0
 50 49  1  0  0  0  0
 51 48  1  6  0  0  0
 51 49  1  0  0  0  0
 53 52  1  6  0  0  0
 53 50  1  0  0  0  0
 55 54  1  0  0  0  0
 55 57  1  0  0  0  0
 56 55  1  0  0  0  0
 57 54  1  1  0  0  0
 57 47  1  0  0  0  0
 58 55  1  0  0  0  0
M  END
>  <MODEL>
1

>  <REMARK>
 VINA RESULT:      -6.7      0.000      0.000
  Name = 
  19 active torsions:
  status: ('A' for Active; 'I' for Inactive)
    1  A    between atoms: C_1  and  C_27
    2  A    between atoms: C_1  and  C_32
    3  A    between atoms: C_5  and  C_21
    4  A    between atoms: C_6  and  C_14
    5  A    between atoms: N_7  and  C_18
    6  A    between atoms: C_8  and  C_17
    7  A    between atoms: C_12  and  O_15
    8  A    between atoms: C_12  and  C_27
    9  A    between atoms: S_13  and  C_43
   10  A    between atoms: S_13  and  S_47
   11  A    between atoms: O_15  and  C_17
   12  A    between atoms: C_16  and  C_46
   13  A    between atoms: C_18  and  C_39
   14  A    between atoms: C_24  and  C_46
   15  A    between atoms: C_26  and  C_33
   16  A    between atoms: C_29  and  C_54
   17  A    between atoms: C_32  and  S_47
   18  A    between atoms: C_40  and  C_44
   19  A    between atoms: C_48  and  C_49
                            x       y       z     vdW  Elec       q    Type
                         _______ _______ _______ _____ _____    ______ ____

>  <TORSDO>
F 19

$$$$
=
 OpenBabel11052411333D

 58 64  0  0  1  0  0  0  0  0999 V2000
  160.4730  213.3340  149.0930 C   0  0  0  0  0  0  0  0  0  0  0  0
  159.5350  213.8890  149.8480 C   0  0  0  0  0  3  0  0  0  0  0  0
  159.4930  213.7130  151.3310 C   0  0  1  0  0  3  0  0  0  0  0  0
  157.9690  214.4530  151.9750 S   0  0  0  0  0  0  0  0  0  0  0  0
  159.1910  212.3260  151.6420 N   0  0  0  0  0  2  0  0  0  0  0  0
  157.8760  212.6390  152.1810 C   0  0  1  0  0  3  0  0  0  0  0  0
  157.7970  212.1630  153.6430 C   0  0  0  0  0  2  0  0  0  0  0  0
  160.7070  212.2610  156.3610 S   0  0  0  0  0  0  0  0  0  0  0  0
  159.1090  211.9350  154.2370 N   0  0  0  0  0  0  0  0  0  0  0  0
  159.0170  212.1600  155.6740 C   0  0  0  0  0  2  0  0  0  0  0  0
  160.8870  210.2770  154.4020 C   0  0  2  0  0  3  0  0  0  0  0  0
  162.6740  210.4110  156.1510 C   0  0  0  0  0  1  0  0  0  0  0  0
  159.4210  210.5270  154.0670 C   0  0  0  0  0  2  0  0  0  0  0  0
  161.2270  208.8430  154.0060 C   0  0  0  0  0  1  0  0  0  0  0  0
  161.1820  210.5560  155.8960 C   0  0  0  0  0  0  0  0  0  0  0  0
  160.4390  209.5870  156.8070 C   0  0  0  0  0  1  0  0  0  0  0  0
  160.1500  212.6520  146.7510 C   0  0  0  0  0  3  0  0  0  0  0  0
  160.3990  213.5880  147.6470 C   0  0  0  0  0  3  0  0  0  0  0  0
  160.1330  213.0010  145.3630 C   0  0  0  0  0  0  0  0  0  0  0  0
  160.1080  213.3180  144.1990 C   0  0  0  0  0  0  0  0  0  0  0  0
  160.0840  213.7580  142.8030 C   0  0  0  0  0  2  0  0  0  0  0  0
  158.0760  214.1180  141.3260 C   0  0  0  0  0  2  0  0  0  0  0  0
  158.9130  213.0870  142.0830 C   0  0  1  0  0  3  0  0  0  0  0  0
  159.2580  212.3980  140.7500 C   0  0  1  0  0  3  0  0  0  0  0  0
  158.4000  213.4380  140.0140 C   0  0  2  0  0  0  0  0  0  0  0  0
  159.1050  214.2880  139.1640 O   0  0  0  0  0  1  0  0  0  0  0  0
  162.7520  210.8230  140.3760 C   0  0  0  0  0  3  0  0  0  0  0  0
  160.7450  212.3570  140.3660 C   0  0  2  0  0  3  0  0  0  0  0  0
  160.8980  212.3220  138.8480 C   0  0  0  0  0  2  0  0  0  0  0  0
  162.3770  212.4120  138.4960 C   0  0  0  0  0  2  0  0  0  0  0  0
  161.3690  211.0740  140.9210 C   0  0  0  0  0  2  0  0  0  0  0  0
  163.1930  211.3910  139.2460 C   0  0  0  0  0  3  0  0  0  0  0  0
  155.9300  213.3790  139.5940 O   0  0  0  0  0  1  0  0  0  0  0  0
  157.3050  211.8330  138.6090 O   0  0  0  0  0  0  0  0  0  0  0  0
  157.1920  212.8410  139.3580 C   0  0  0  0  0  0  0  0  0  0  0  0
  161.4760  212.5590  149.7050 O   0  0  0  0  0  0  0  0  0  0  0  0
  162.0690  211.4200  149.0990 C   0  0  0  0  0  2  0  0  0  0  0  0
  162.3410  210.3710  150.1540 C   0  0  0  0  0  2  0  0  0  0  0  0
  161.9610  209.0130  149.6020 C   0  0  0  0  0  2  0  0  0  0  0  0
  162.0610  207.9550  150.6830 C   0  0  0  0  0  2  0  0  0  0  0  0
  160.5690  206.9230  150.6170 S   0  0  0  0  0  0  0  0  0  0  0  0
  161.6720  205.0810  150.6510 S   0  0  0  0  0  0  0  0  0  0  0  0
  160.6080  203.0350  149.2450 O   0  0  0  0  0  0  0  0  0  0  0  0
  161.8660  203.2100  147.2940 O   0  0  0  0  0  0  0  0  0  0  0  0
  162.0270  204.3990  147.9880 C   0  0  2  0  0  3  0  0  0  0  0  0
  161.0090  204.3640  149.0970 C   0  0  2  0  0  3  0  0  0  0  0  0
  161.2880  202.3320  148.2280 C   0  0  2  0  0  3  0  0  0  0  0  0
  162.3360  205.3240  145.6380 C   0  0  0  0  0  2  0  0  0  0  0  0
  160.4350  205.9630  146.9610 N   0  0  0  0  0  2  0  0  0  0  0  0
  160.1710  206.2780  145.6110 N   0  0  0  0  0  2  0  0  0  0  0  0
  161.8440  205.5960  147.0430 C   0  0  1  0  0  3  0  0  0  0  0  0
  161.3660  206.1110  143.5590 N   0  0  0  0  0  1  0  0  0  0  0  0
  161.0790  205.4620  144.8280 C   0  0  1  0  0  3  0  0  0  0  0  0
  161.1270  200.2680  146.8370 C   0  0  0  0  0  2  0  0  0  0  0  0
  160.5340  201.3850  146.0150 C   0  0  0  0  0  0  0  0  0  0  0  0
  159.4420  201.0210  145.2290 O   0  0  0  0  0  1  0  0  0  0  0  0
  160.3290  201.3820  147.5190 C   0  0  2  0  0  3  0  0  0  0  0  0
  161.4650  202.2670  145.4600 O   0  0  0  0  0  1  0  0  0  0  0  0
  1 36  1  0  0  0  0
  1  2  2  0  0  0  0
  3  2  1  6  0  0  0
  3  5  1  0  0  0  0
  3  4  1  0  0  0  0
  4  6  1  0  0  0  0
  5  6  1  0  0  0  0
  6  7  1  1  0  0  0
  7  9  1  0  0  0  0
  9 10  1  0  0  0  0
 10  8  1  0  0  0  0
 11 14  1  1  0  0  0
 11 15  1  0  0  0  0
 13  9  1  0  0  0  0
 13 11  1  0  0  0  0
 15 12  1  0  0  0  0
 15  8  1  0  0  0  0
 15 16  1  0  0  0  0
 17 18  2  0  0  0  0
 18  1  1  0  0  0  0
 19 17  1  0  0  0  0
 20 19  3  0  0  0  0
 21 20  1  0  0  0  0
 22 23  1  0  0  0  0
 23 21  1  6  0  0  0
 24 28  1  6  0  0  0
 24 23  1  0  0  0  0
 25 26  1  6  0  0  0
 25 24  1  0  0  0  0
 25 22  1  0  0  0  0
 27 31  1  0  0  0  0
 28 29  1  6  0  0  0
 28 31  1  0  0  0  0
 30 29  1  0  0  0  0
 30 32  1  0  0  0  0
 32 27  2  0  0  0  0
 34 35  2  0  0  0  0
 35 33  1  0  0  0  0
 35 25  1  0  0  0  0
 37 36  1  0  0  0  0
 37 38  1  0  0  0  0
 39 38  1  0  0  0  0
 39 40  1  0  0  0  0
 41 42  1  0  0  0  0
 41 40  1  0  0  0  0
 45 44  1  6  0  0  0
 45 46  1  0  0  0  0
 46 43  1  0  0  0  0
 46 42  1  1  0  0  0
 47 44  1  6  0  0  0
 47 43  1  0  0  0  0
 49 51  1  0  0  0  0
 50 49  1  0  0  0  0
 51 48  1  6  0  0  0
 51 45  1  0  0  0  0
 53 52  1  6  0  0  0
 53 50  1  0  0  0  0
 53 48  1  0  0  0  0
 55 54  1  0  0  0  0
 55 57  1  0  0  0  0
 56 55  1  0  0  0  0
 57 54  1  1  0  0  0
 57 47  1  0  0  0  0
 58 55  1  0  0  0  0
M  END
>  <MODEL>
2

>  <REMARK>
 VINA RESULT:      -6.5      3.323      9.396
  Name = 
  19 active torsions:
  status: ('A' for Active; 'I' for Inactive)
    1  A    between atoms: C_1  and  C_27
    2  A    between atoms: C_1  and  C_32
    3  A    between atoms: C_5  and  C_21
    4  A    between atoms: C_6  and  C_14
    5  A    between atoms: N_7  and  C_18
    6  A    between atoms: C_8  and  C_17
    7  A    between atoms: C_12  and  O_15
    8  A    between atoms: C_12  and  C_27
    9  A    between atoms: S_13  and  C_43
   10  A    between atoms: S_13  and  S_47
   11  A    between atoms: O_15  and  C_17
   12  A    between atoms: C_16  and  C_46
   13  A    between atoms: C_18  and  C_39
   14  A    between atoms: C_24  and  C_46
   15  A    between atoms: C_26  and  C_33
   16  A    between atoms: C_29  and  C_54
   17  A    between atoms: C_32  and  S_47
   18  A    between atoms: C_40  and  C_44
   19  A    between atoms: C_48  and  C_49
                            x       y       z     vdW  Elec       q    Type
                         _______ _______ _______ _____ _____    ______ ____

>  <TORSDO>
F 19

$$$$
=
 OpenBabel11052411333D

 58 64  0  0  1  0  0  0  0  0999 V2000
  159.1370  214.2690  147.2950 C   0  0  0  0  0  0  0  0  0  0  0  0
  157.9070  214.3160  147.7880 C   0  0  0  0  0  3  0  0  0  0  0  0
  157.6340  214.4530  149.2500 C   0  0  1  0  0  3  0  0  0  0  0  0
  156.6640  213.0290  149.8110 S   0  0  0  0  0  0  0  0  0  0  0  0
  158.8510  214.1750  149.9950 N   0  0  0  0  0  2  0  0  0  0  0  0
  158.3300  212.9400  150.5610 C   0  0  1  0  0  3  0  0  0  0  0  0
  158.3470  213.0350  152.0970 C   0  0  0  0  0  2  0  0  0  0  0  0
  160.4480  209.7240  152.7900 S   0  0  0  0  0  0  0  0  0  0  0  0
  158.7440  211.7890  152.7400 N   0  0  0  0  0  0  0  0  0  0  0  0
  160.0950  211.4510  152.3110 C   0  0  0  0  0  2  0  0  0  0  0  0
  158.9510  210.7280  154.9240 C   0  0  2  0  0  3  0  0  0  0  0  0
  160.3030  208.6490  155.2720 C   0  0  0  0  0  1  0  0  0  0  0  0
  158.8250  212.0450  154.1670 C   0  0  0  0  0  2  0  0  0  0  0  0
  158.8150  211.0220  156.4160 C   0  0  0  0  0  1  0  0  0  0  0  0
  160.2810  210.0080  154.5890 C   0  0  0  0  0  0  0  0  0  0  0  0
  161.4880  210.8070  155.0630 C   0  0  0  0  0  1  0  0  0  0  0  0
  158.2370  214.0930  145.0120 C   0  0  0  0  0  3  0  0  0  0  0  0
  159.2660  214.1320  145.8380 C   0  0  0  0  0  3  0  0  0  0  0  0
  158.4740  213.9240  143.6110 C   0  0  0  0  0  0  0  0  0  0  0  0
  158.6970  213.7930  142.4320 C   0  0  0  0  0  0  0  0  0  0  0  0
  159.0230  213.6280  141.0140 C   0  0  0  0  0  2  0  0  0  0  0  0
  157.5320  212.2610  139.5130 C   0  0  0  0  0  2  0  0  0  0  0  0
  158.6360  212.2170  140.5700 C   0  0  1  0  0  3  0  0  0  0  0  0
  159.5800  211.5600  139.5460 C   0  0  1  0  0  3  0  0  0  0  0  0
  158.4500  211.6040  138.5060 C   0  0  2  0  0  0  0  0  0  0  0  0
  158.6860  212.4390  137.4150 O   0  0  0  0  0  1  0  0  0  0  0  0
  163.3440  212.3680  139.6150 C   0  0  0  0  0  3  0  0  0  0  0  0
  160.8540  212.3410  139.1910 C   0  0  2  0  0  3  0  0  0  0  0  0
  161.2440  212.0840  137.7370 C   0  0  0  0  0  2  0  0  0  0  0  0
  162.4300  212.9670  137.3780 C   0  0  0  0  0  2  0  0  0  0  0  0
  162.0050  211.8450  140.0690 C   0  0  0  0  0  2  0  0  0  0  0  0
  163.5510  212.8310  138.3750 C   0  0  0  0  0  3  0  0  0  0  0  0
  156.6860  209.8260  138.4080 O   0  0  0  0  0  1  0  0  0  0  0  0
  158.7530  209.4530  137.4920 O   0  0  0  0  0  0  0  0  0  0  0  0
  157.9780  210.2420  138.0970 C   0  0  0  0  0  0  0  0  0  0  0  0
  160.2320  214.3640  148.1760 O   0  0  0  0  0  0  0  0  0  0  0  0
  161.5460  213.9420  147.8450 C   0  0  0  0  0  2  0  0  0  0  0  0
  161.6250  212.4330  147.9150 C   0  0  0  0  0  2  0  0  0  0  0  0
  163.0810  212.0170  147.8900 C   0  0  0  0  0  2  0  0  0  0  0  0
  163.2460  210.6340  148.4870 C   0  0  0  0  0  2  0  0  0  0  0  0
  161.5960  209.9350  148.7810 S   0  0  0  0  0  0  0  0  0  0  0  0
  162.3270  208.4000  150.0930 S   0  0  0  0  0  0  0  0  0  0  0  0
  160.9520  206.0980  150.4200 O   0  0  0  0  0  0  0  0  0  0  0  0
  161.7470  204.9060  148.5870 O   0  0  0  0  0  0  0  0  0  0  0  0
  162.0730  206.2380  148.3770 C   0  0  2  0  0  3  0  0  0  0  0  0
  161.3260  207.0100  149.4330 C   0  0  2  0  0  3  0  0  0  0  0  0
  161.3800  204.8430  149.9420 C   0  0  2  0  0  3  0  0  0  0  0  0
  162.3220  205.7760  145.8870 C   0  0  0  0  0  2  0  0  0  0  0  0
  160.2540  206.6190  146.7720 N   0  0  0  0  0  2  0  0  0  0  0  0
  160.0100  206.0860  145.4880 N   0  0  0  0  0  2  0  0  0  0  0  0
  161.7010  206.6590  146.9480 C   0  0  1  0  0  3  0  0  0  0  0  0
  161.3350  205.0830  143.7830 N   0  0  0  0  0  1  0  0  0  0  0  0
  161.1150  205.1850  145.2160 C   0  0  1  0  0  3  0  0  0  0  0  0
  160.8240  202.6130  150.9140 C   0  0  0  0  0  2  0  0  0  0  0  0
  160.5960  202.5010  149.4270 C   0  0  0  0  0  0  0  0  0  0  0  0
  159.5160  201.7020  149.0570 O   0  0  0  0  0  1  0  0  0  0  0  0
  160.2760  203.8080  150.1300 C   0  0  2  0  0  3  0  0  0  0  0  0
  161.7590  202.4130  148.6580 O   0  0  0  0  0  1  0  0  0  0  0  0
  1  2  2  0  0  0  0
  1 36  1  0  0  0  0
  3  2  1  6  0  0  0
  3  4  1  0  0  0  0
  3  5  1  0  0  0  0
  4  6  1  0  0  0  0
  5  6  1  0  0  0  0
  6  7  1  1  0  0  0
  7  9  1  0  0  0  0
  8 15  1  0  0  0  0
  9 13  1  0  0  0  0
 10  9  1  0  0  0  0
 10  8  1  0  0  0  0
 11 14  1  1  0  0  0
 13 11  1  0  0  0  0
 15 11  1  0  0  0  0
 15 16  1  0  0  0  0
 15 12  1  0  0  0  0
 17 18  2  0  0  0  0
 18  1  1  0  0  0  0
 19 17  1  0  0  0  0
 20 19  3  0  0  0  0
 21 20  1  0  0  0  0
 22 23  1  0  0  0  0
 23 21  1  6  0  0  0
 24 28  1  6  0  0  0
 24 23  1  0  0  0  0
 25 26  1  6  0  0  0
 25 22  1  0  0  0  0
 25 24  1  0  0  0  0
 27 31  1  0  0  0  0
 28 29  1  6  0  0  0
 28 31  1  0  0  0  0
 30 29  1  0  0  0  0
 30 32  1  0  0  0  0
 32 27  2  0  0  0  0
 34 35  2  0  0  0  0
 35 33  1  0  0  0  0
 35 25  1  0  0  0  0
 37 38  1  0  0  0  0
 37 36  1  0  0  0  0
 39 38  1  0  0  0  0
 39 40  1  0  0  0  0
 40 41  1  0  0  0  0
 41 42  1  0  0  0  0
 45 44  1  6  0  0  0
 45 46  1  0  0  0  0
 46 42  1  1  0  0  0
 46 43  1  0  0  0  0
 47 44  1  6  0  0  0
 47 57  1  0  0  0  0
 47 43  1  0  0  0  0
 49 51  1  0  0  0  0
 50 49  1  0  0  0  0
 51 48  1  6  0  0  0
 51 45  1  0  0  0  0
 53 52  1  6  0  0  0
 53 50  1  0  0  0  0
 53 48  1  0  0  0  0
 55 57  1  0  0  0  0
 55 54  1  0  0  0  0
 56 55  1  0  0  0  0
 57 54  1  1  0  0  0
 58 55  1  0  0  0  0
M  END
>  <MODEL>
3

>  <REMARK>
 VINA RESULT:      -6.3      3.420      9.596
  Name = 
  19 active torsions:
  status: ('A' for Active; 'I' for Inactive)
    1  A    between atoms: C_1  and  C_27
    2  A    between atoms: C_1  and  C_32
    3  A    between atoms: C_5  and  C_21
    4  A    between atoms: C_6  and  C_14
    5  A    between atoms: N_7  and  C_18
    6  A    between atoms: C_8  and  C_17
    7  A    between atoms: C_12  and  O_15
    8  A    between atoms: C_12  and  C_27
    9  A    between atoms: S_13  and  C_43
   10  A    between atoms: S_13  and  S_47
   11  A    between atoms: O_15  and  C_17
   12  A    between atoms: C_16  and  C_46
   13  A    between atoms: C_18  and  C_39
   14  A    between atoms: C_24  and  C_46
   15  A    between atoms: C_26  and  C_33
   16  A    between atoms: C_29  and  C_54
   17  A    between atoms: C_32  and  S_47
   18  A    between atoms: C_40  and  C_44
   19  A    between atoms: C_48  and  C_49
                            x       y       z     vdW  Elec       q    Type
                         _______ _______ _______ _____ _____    ______ ____

>  <TORSDO>
F 19

$$$$
=
 OpenBabel11052411333D

 58 64  0  0  1  0  0  0  0  0999 V2000
  160.2070  213.1390  149.0410 C   0  0  0  0  0  0  0  0  0  0  0  0
  159.2210  213.7270  149.7050 C   0  0  0  0  0  3  0  0  0  0  0  0
  159.2650  213.9380  151.1820 C   0  0  1  0  0  3  0  0  0  0  0  0
  157.6260  214.4520  151.7590 S   0  0  0  0  0  0  0  0  0  0  0  0
  159.3190  212.6490  151.8520 N   0  0  0  0  0  2  0  0  0  0  0  0
  157.9840  212.7820  152.4130 C   0  0  1  0  0  3  0  0  0  0  0  0
  158.0650  212.6990  153.9480 C   0  0  0  0  0  2  0  0  0  0  0  0
  161.2220  212.0180  156.2790 S   0  0  0  0  0  0  0  0  0  0  0  0
  159.2970  212.0780  154.4190 N   0  0  0  0  0  0  0  0  0  0  0  0
  159.5130  212.4600  155.8080 C   0  0  0  0  0  2  0  0  0  0  0  0
  160.4080  209.9190  154.6260 C   0  0  2  0  0  3  0  0  0  0  0  0
  162.3840  209.5770  156.1250 C   0  0  0  0  0  1  0  0  0  0  0  0
  159.0810  210.6420  154.4240 C   0  0  0  0  0  2  0  0  0  0  0  0
  160.1740  208.4260  154.4100 C   0  0  0  0  0  1  0  0  0  0  0  0
  161.0100  210.2200  156.0200 C   0  0  0  0  0  0  0  0  0  0  0  0
  160.1340  209.6740  157.1410 C   0  0  0  0  0  1  0  0  0  0  0  0
  160.7470  212.1630  146.8470 C   0  0  0  0  0  3  0  0  0  0  0  0
  160.0380  212.9930  147.5880 C   0  0  0  0  0  3  0  0  0  0  0  0
  160.5230  212.1230  145.4340 C   0  0  0  0  0  0  0  0  0  0  0  0
  160.3530  212.0710  144.2410 C   0  0  0  0  0  0  0  0  0  0  0  0
  160.1570  211.9500  142.7950 C   0  0  0  0  0  2  0  0  0  0  0  0
  162.4330  212.2840  141.7700 C   0  0  0  0  0  2  0  0  0  0  0  0
  161.0840  212.9330  142.0770 C   0  0  1  0  0  3  0  0  0  0  0  0
  160.8310  213.1060  140.5690 C   0  0  1  0  0  3  0  0  0  0  0  0
  162.1970  212.4630  140.2860 C   0  0  2  0  0  0  0  0  0  0  0  0
  162.1450  211.2340  139.6300 O   0  0  0  0  0  1  0  0  0  0  0  0
  157.0880  212.5090  139.8840 C   0  0  0  0  0  3  0  0  0  0  0  0
  159.6090  212.3750  139.9920 C   0  0  2  0  0  3  0  0  0  0  0  0
  159.5460  212.5620  138.4790 C   0  0  0  0  0  2  0  0  0  0  0  0
  158.4040  211.7240  137.9210 C   0  0  0  0  0  2  0  0  0  0  0  0
  158.3360  212.9860  140.5840 C   0  0  0  0  0  2  0  0  0  0  0  0
  157.1120  211.9830  138.6520 C   0  0  0  0  0  3  0  0  0  0  0  0
  163.2190  213.5440  138.2700 O   0  0  0  0  0  0  0  0  0  0  0  0
  163.9700  214.0740  140.3700 O   0  0  0  0  0  1  0  0  0  0  0  0
  163.1710  213.4110  139.6550 C   0  0  0  0  0  0  0  0  0  0  0  0
  161.3470  212.7060  149.7470 O   0  0  0  0  0  0  0  0  0  0  0  0
  162.0320  211.4960  149.4670 C   0  0  0  0  0  2  0  0  0  0  0  0
  161.8570  210.5370  150.6230 C   0  0  0  0  0  2  0  0  0  0  0  0
  162.0710  209.1230  150.1240 C   0  0  0  0  0  2  0  0  0  0  0  0
  161.8980  208.1310  151.2560 C   0  0  0  0  0  2  0  0  0  0  0  0
  160.5710  206.9750  150.8060 S   0  0  0  0  0  0  0  0  0  0  0  0
  161.9020  205.2990  150.6240 S   0  0  0  0  0  0  0  0  0  0  0  0
  160.7660  203.2280  149.3160 O   0  0  0  0  0  0  0  0  0  0  0  0
  161.9200  203.3610  147.2990 O   0  0  0  0  0  0  0  0  0  0  0  0
  162.1180  204.5640  147.9600 C   0  0  2  0  0  3  0  0  0  0  0  0
  161.1590  204.5520  149.1210 C   0  0  2  0  0  3  0  0  0  0  0  0
  161.3920  202.5030  148.2800 C   0  0  2  0  0  3  0  0  0  0  0  0
  162.4290  205.4930  145.6110 C   0  0  0  0  0  2  0  0  0  0  0  0
  160.4600  206.0220  146.8830 N   0  0  0  0  0  2  0  0  0  0  0  0
  160.2110  206.3130  145.5240 N   0  0  0  0  0  2  0  0  0  0  0  0
  161.8860  205.7420  147.0020 C   0  0  1  0  0  3  0  0  0  0  0  0
  161.4650  206.2070  143.5030 N   0  0  0  0  0  1  0  0  0  0  0  0
  161.1860  205.5490  144.7700 C   0  0  1  0  0  3  0  0  0  0  0  0
  161.1580  200.4460  146.8880 C   0  0  0  0  0  2  0  0  0  0  0  0
  160.4820  201.5580  146.1260 C   0  0  0  0  0  0  0  0  0  0  0  0
  159.3380  201.1790  145.4250 O   0  0  0  0  0  1  0  0  0  0  0  0
  160.3970  201.5410  147.6410 C   0  0  2  0  0  3  0  0  0  0  0  0
  161.3500  202.4610  145.5060 O   0  0  0  0  0  1  0  0  0  0  0  0
  1  2  2  0  0  0  0
  1 36  1  0  0  0  0
  3  2  1  6  0  0  0
  3  4  1  0  0  0  0
  3  5  1  0  0  0  0
  4  6  1  0  0  0  0
  5  6  1  0  0  0  0
  6  7  1  1  0  0  0
  7  9  1  0  0  0  0
  9 13  1  0  0  0  0
  9 10  1  0  0  0  0
 10  8  1  0  0  0  0
 11 14  1  1  0  0  0
 11 15  1  0  0  0  0
 13 11  1  0  0  0  0
 15 12  1  0  0  0  0
 15  8  1  0  0  0  0
 15 16  1  0  0  0  0
 17 18  2  0  0  0  0
 18  1  1  0  0  0  0
 19 17  1  0  0  0  0
 20 19  3  0  0  0  0
 21 20  1  0  0  0  0
 22 23  1  0  0  0  0
 23 21  1  6  0  0  0
 24 28  1  6  0  0  0
 24 23  1  0  0  0  0
 25 26  1  6  0  0  0
 25 24  1  0  0  0  0
 25 22  1  0  0  0  0
 27 31  1  0  0  0  0
 28 29  1  6  0  0  0
 28 31  1  0  0  0  0
 30 29  1  0  0  0  0
 30 32  1  0  0  0  0
 32 27  2  0  0  0  0
 33 35  2  0  0  0  0
 35 25  1  0  0  0  0
 35 34  1  0  0  0  0
 37 36  1  0  0  0  0
 37 38  1  0  0  0  0
 39 38  1  0  0  0  0
 39 40  1  0  0  0  0
 41 40  1  0  0  0  0
 42 41  1  0  0  0  0
 45 44  1  6  0  0  0
 45 46  1  0  0  0  0
 46 43  1  0  0  0  0
 46 42  1  1  0  0  0
 47 44  1  6  0  0  0
 47 43  1  0  0  0  0
 49 51  1  0  0  0  0
 50 49  1  0  0  0  0
 51 48  1  6  0  0  0
 51 45  1  0  0  0  0
 53 52  1  6  0  0  0
 53 50  1  0  0  0  0
 53 48  1  0  0  0  0
 55 54  1  0  0  0  0
 55 57  1  0  0  0  0
 56 55  1  0  0  0  0
 57 54  1  1  0  0  0
 57 47  1  0  0  0  0
 58 55  1  0  0  0  0
M  END
>  <MODEL>
4

>  <REMARK>
 VINA RESULT:      -6.2      3.205      9.381
  Name = 
  19 active torsions:
  status: ('A' for Active; 'I' for Inactive)
    1  A    between atoms: C_1  and  C_27
    2  A    between atoms: C_1  and  C_32
    3  A    between atoms: C_5  and  C_21
    4  A    between atoms: C_6  and  C_14
    5  A    between atoms: N_7  and  C_18
    6  A    between atoms: C_8  and  C_17
    7  A    between atoms: C_12  and  O_15
    8  A    between atoms: C_12  and  C_27
    9  A    between atoms: S_13  and  C_43
   10  A    between atoms: S_13  and  S_47
   11  A    between atoms: O_15  and  C_17
   12  A    between atoms: C_16  and  C_46
   13  A    between atoms: C_18  and  C_39
   14  A    between atoms: C_24  and  C_46
   15  A    between atoms: C_26  and  C_33
   16  A    between atoms: C_29  and  C_54
   17  A    between atoms: C_32  and  S_47
   18  A    between atoms: C_40  and  C_44
   19  A    between atoms: C_48  and  C_49
                            x       y       z     vdW  Elec       q    Type
                         _______ _______ _______ _____ _____    ______ ____

>  <TORSDO>
F 19

$$$$
=
 OpenBabel11052411333D

 58 64  0  0  1  0  0  0  0  0999 V2000
  161.7290  209.8200  150.2800 C   0  0  0  0  0  0  0  0  0  0  0  0
  161.7620  209.7940  151.6050 C   0  0  0  0  0  3  0  0  0  0  0  0
  161.5730  211.0210  152.4350 C   0  0  1  0  0  3  0  0  0  0  0  0
  159.8000  211.3050  152.6840 S   0  0  0  0  0  0  0  0  0  0  0  0
  161.9260  210.7300  153.8140 N   0  0  0  0  0  2  0  0  0  0  0  0
  160.5550  210.8500  154.2860 C   0  0  1  0  0  3  0  0  0  0  0  0
  160.4810  211.9480  155.3630 C   0  0  0  0  0  2  0  0  0  0  0  0
  157.3240  214.3050  155.9480 S   0  0  0  0  0  0  0  0  0  0  0  0
  159.1130  212.3290  155.6930 N   0  0  0  0  0  0  0  0  0  0  0  0
  158.8730  213.6820  155.2080 C   0  0  0  0  0  2  0  0  0  0  0  0
  156.7990  211.6080  155.4400 C   0  0  2  0  0  3  0  0  0  0  0  0
  154.8720  213.1610  155.8200 C   0  0  0  0  0  1  0  0  0  0  0  0
  158.2280  211.4640  154.9320 C   0  0  0  0  0  2  0  0  0  0  0  0
  155.9450  210.5350  154.7700 C   0  0  0  0  0  1  0  0  0  0  0  0
  156.2490  213.0340  155.1880 C   0  0  0  0  0  0  0  0  0  0  0  0
  156.1290  213.3350  153.7000 C   0  0  0  0  0  1  0  0  0  0  0  0
  162.7510  208.3830  148.5640 C   0  0  0  0  0  3  0  0  0  0  0  0
  161.9300  208.5410  149.5840 C   0  0  0  0  0  3  0  0  0  0  0  0
  162.8470  207.1000  147.9370 C   0  0  0  0  0  0  0  0  0  0  0  0
  162.9070  206.0090  147.4230 C   0  0  0  0  0  0  0  0  0  0  0  0
  162.9240  204.6830  146.8050 C   0  0  0  0  0  2  0  0  0  0  0  0
  161.7160  203.4160  144.9940 C   0  0  0  0  0  2  0  0  0  0  0  0
  161.5730  204.4210  146.1370 C   0  0  1  0  0  3  0  0  0  0  0  0
  160.6450  203.4390  146.8760 C   0  0  1  0  0  3  0  0  0  0  0  0
  160.7940  202.4520  145.7080 C   0  0  2  0  0  0  0  0  0  0  0  0
  161.4500  201.2620  146.0220 O   0  0  0  0  0  1  0  0  0  0  0  0
  160.9980  203.4820  150.7100 C   0  0  0  0  0  3  0  0  0  0  0  0
  161.1280  202.9400  148.2460 C   0  0  2  0  0  3  0  0  0  0  0  0
  160.3970  201.6570  148.6300 C   0  0  0  0  0  2  0  0  0  0  0  0
  160.9850  201.1190  149.9270 C   0  0  0  0  0  2  0  0  0  0  0  0
  160.7960  203.9930  149.3060 C   0  0  0  0  0  2  0  0  0  0  0  0
  161.0320  202.1750  151.0000 C   0  0  0  0  0  3  0  0  0  0  0  0
  158.7400  201.0950  145.2390 O   0  0  0  0  0  1  0  0  0  0  0  0
  159.1330  203.0320  144.0790 O   0  0  0  0  0  0  0  0  0  0  0  0
  159.5110  202.2220  144.9690 C   0  0  0  0  0  0  0  0  0  0  0  0
  161.4950  211.0440  149.6230 O   0  0  0  0  0  0  0  0  0  0  0  0
  162.1820  211.4500  148.4490 C   0  0  0  0  0  2  0  0  0  0  0  0
  161.3170  212.4120  147.6660 C   0  0  0  0  0  2  0  0  0  0  0  0
  162.2130  213.3640  146.9020 C   0  0  0  0  0  2  0  0  0  0  0  0
  161.4910  213.9090  145.6860 C   0  0  0  0  0  2  0  0  0  0  0  0
  161.7130  212.7380  144.3150 S   0  0  0  0  0  0  0  0  0  0  0  0
  162.4490  214.2400  142.9680 S   0  0  0  0  0  0  0  0  0  0  0  0
  160.3670  214.4100  141.2560 O   0  0  0  0  0  0  0  0  0  0  0  0
  159.9070  212.1460  140.9770 O   0  0  0  0  0  0  0  0  0  0  0  0
  161.1710  212.2370  141.5410 C   0  0  2  0  0  3  0  0  0  0  0  0
  161.5450  213.6930  141.4670 C   0  0  2  0  0  3  0  0  0  0  0  0
  159.3590  213.4320  141.1310 C   0  0  2  0  0  3  0  0  0  0  0  0
  161.5320  210.0200  140.3440 C   0  0  0  0  0  2  0  0  0  0  0  0
  162.6740  212.0040  139.6130 N   0  0  0  0  0  2  0  0  0  0  0  0
  162.7280  211.0440  138.5780 N   0  0  0  0  0  2  0  0  0  0  0  0
  162.1540  211.3240  140.7940 C   0  0  1  0  0  3  0  0  0  0  0  0
  161.9800  208.8020  138.2950 N   0  0  0  0  0  1  0  0  0  0  0  0
  161.6550  210.1060  138.8500 C   0  0  1  0  0  3  0  0  0  0  0  0
  157.0130  213.3930  140.2840 C   0  0  0  0  0  2  0  0  0  0  0  0
  157.8160  212.5100  139.3620 C   0  0  0  0  0  0  0  0  0  0  0  0
  157.4370  212.5630  138.0210 O   0  0  0  0  0  1  0  0  0  0  0  0
  158.4610  213.7560  139.9430 C   0  0  2  0  0  3  0  0  0  0  0  0
  158.1570  211.2620  139.8880 O   0  0  0  0  0  1  0  0  0  0  0  0
  1  2  2  0  0  0  0
  3  2  1  6  0  0  0
  3  4  1  0  0  0  0
  3  5  1  0  0  0  0
  4  6  1  0  0  0  0
  5  6  1  0  0  0  0
  6  7  1  1  0  0  0
  7  9  1  0  0  0  0
 10  9  1  0  0  0  0
 10  8  1  0  0  0  0
 11 14  1  6  0  0  0
 13 11  1  0  0  0  0
 13  9  1  0  0  0  0
 15 11  1  0  0  0  0
 15 12  1  0  0  0  0
 15  8  1  0  0  0  0
 16 15  1  0  0  0  0
 17 18  2  0  0  0  0
 18  1  1  0  0  0  0
 19 17  1  0  0  0  0
 20 19  3  0  0  0  0
 21 20  1  0  0  0  0
 22 25  1  0  0  0  0
 22 23  1  0  0  0  0
 23 21  1  1  0  0  0
 23 24  1  0  0  0  0
 24 28  1  1  0  0  0
 25 26  1  1  0  0  0
 25 24  1  0  0  0  0
 27 32  2  0  0  0  0
 28 29  1  1  0  0  0
 28 31  1  0  0  0  0
 29 30  1  0  0  0  0
 30 32  1  0  0  0  0
 31 27  1  0  0  0  0
 34 35  2  0  0  0  0
 35 33  1  0  0  0  0
 35 25  1  0  0  0  0
 36  1  1  0  0  0  0
 37 36  1  0  0  0  0
 38 37  1  0  0  0  0
 39 38  1  0  0  0  0
 40 39  1  0  0  0  0
 41 40  1  0  0  0  0
 42 41  1  0  0  0  0
 43 46  1  0  0  0  0
 45 44  1  6  0  0  0
 46 45  1  0  0  0  0
 46 42  1  1  0  0  0
 47 44  1  6  0  0  0
 47 43  1  0  0  0  0
 49 51  1  0  0  0  0
 50 53  1  0  0  0  0
 50 49  1  0  0  0  0
 51 48  1  6  0  0  0
 51 45  1  0  0  0  0
 53 52  1  1  0  0  0
 53 48  1  0  0  0  0
 55 58  1  0  0  0  0
 55 57  1  0  0  0  0
 55 54  1  0  0  0  0
 56 55  1  0  0  0  0
 57 54  1  1  0  0  0
 57 47  1  0  0  0  0
M  END
>  <MODEL>
5

>  <REMARK>
 VINA RESULT:      -5.9      1.765      2.597
  Name = 
  19 active torsions:
  status: ('A' for Active; 'I' for Inactive)
    1  A    between atoms: C_1  and  C_27
    2  A    between atoms: C_1  and  C_32
    3  A    between atoms: C_5  and  C_21
    4  A    between atoms: C_6  and  C_14
    5  A    between atoms: N_7  and  C_18
    6  A    between atoms: C_8  and  C_17
    7  A    between atoms: C_12  and  O_15
    8  A    between atoms: C_12  and  C_27
    9  A    between atoms: S_13  and  C_43
   10  A    between atoms: S_13  and  S_47
   11  A    between atoms: O_15  and  C_17
   12  A    between atoms: C_16  and  C_46
   13  A    between atoms: C_18  and  C_39
   14  A    between atoms: C_24  and  C_46
   15  A    between atoms: C_26  and  C_33
   16  A    between atoms: C_29  and  C_54
   17  A    between atoms: C_32  and  S_47
   18  A    between atoms: C_40  and  C_44
   19  A    between atoms: C_48  and  C_49
                            x       y       z     vdW  Elec       q    Type
                         _______ _______ _______ _____ _____    ______ ____

>  <TORSDO>
F 19

$$$$
=
 OpenBabel11052411333D

 58 64  0  0  1  0  0  0  0  0999 V2000
  160.1580  213.2260  148.1220 C   0  0  0  0  0  0  0  0  0  0  0  0
  159.0230  213.6990  148.6200 C   0  0  0  0  0  3  0  0  0  0  0  0
  158.9370  214.2990  149.9850 C   0  0  1  0  0  3  0  0  0  0  0  0
  157.2070  214.3010  150.5260 S   0  0  0  0  0  0  0  0  0  0  0  0
  159.4520  213.3530  150.9600 N   0  0  0  0  0  2  0  0  0  0  0  0
  158.1470  213.1250  151.5630 C   0  0  1  0  0  3  0  0  0  0  0  0
  158.2040  213.4920  153.0570 C   0  0  0  0  0  2  0  0  0  0  0  0
  160.3970  212.2400  156.1370 S   0  0  0  0  0  0  0  0  0  0  0  0
  159.2540  212.7820  153.7770 N   0  0  0  0  0  0  0  0  0  0  0  0
  158.9240  212.7710  155.1960 C   0  0  0  0  0  2  0  0  0  0  0  0
  160.4590  210.6650  153.8310 C   0  0  2  0  0  3  0  0  0  0  0  0
  161.8090  209.9520  155.8160 C   0  0  0  0  0  1  0  0  0  0  0  0
  159.2150  211.3970  153.3420 C   0  0  0  0  0  2  0  0  0  0  0  0
  160.4870  209.2850  153.1770 C   0  0  0  0  0  1  0  0  0  0  0  0
  160.4950  210.5790  155.3770 C   0  0  0  0  0  0  0  0  0  0  0  0
  159.3500  209.7350  155.9200 C   0  0  0  0  0  1  0  0  0  0  0  0
  160.4840  213.3180  145.6850 C   0  0  0  0  0  3  0  0  0  0  0  0
  160.1050  212.6630  146.7660 C   0  0  0  0  0  3  0  0  0  0  0  0
  160.3610  212.6860  144.4070 C   0  0  0  0  0  0  0  0  0  0  0  0
  160.2420  212.1730  143.3210 C   0  0  0  0  0  0  0  0  0  0  0  0
  160.0920  211.6030  141.9810 C   0  0  0  0  0  2  0  0  0  0  0  0
  162.2220  212.1330  140.7460 C   0  0  0  0  0  2  0  0  0  0  0  0
  160.7610  212.5270  140.9620 C   0  0  1  0  0  3  0  0  0  0  0  0
  160.4650  212.2140  139.4840 C   0  0  1  0  0  3  0  0  0  0  0  0
  161.9410  211.8360  139.2900 C   0  0  2  0  0  0  0  0  0  0  0  0
  162.1710  210.4930  138.9930 O   0  0  0  0  0  1  0  0  0  0  0  0
  156.9650  210.7200  138.8910 C   0  0  0  0  0  3  0  0  0  0  0  0
  159.4420  211.1000  139.2130 C   0  0  2  0  0  3  0  0  0  0  0  0
  159.5650  210.6090  137.7730 C   0  0  0  0  0  2  0  0  0  0  0  0
  158.6320  209.4230  137.5710 C   0  0  0  0  0  2  0  0  0  0  0  0
  158.0310  211.6650  139.3870 C   0  0  0  0  0  2  0  0  0  0  0  0
  157.2290  209.7330  138.0250 C   0  0  0  0  0  3  0  0  0  0  0  0
  163.1800  213.9660  138.8340 O   0  0  0  0  0  1  0  0  0  0  0  0
  162.7900  212.4720  137.1400 O   0  0  0  0  0  0  0  0  0  0  0  0
  162.6650  212.7620  138.3600 C   0  0  0  0  0  0  0  0  0  0  0  0
  161.3310  213.3000  148.8980 O   0  0  0  0  0  0  0  0  0  0  0  0
  161.6880  212.3350  149.8760 C   0  0  0  0  0  2  0  0  0  0  0  0
  162.0490  211.0340  149.1940 C   0  0  0  0  0  2  0  0  0  0  0  0
  161.9570  209.9100  150.2040 C   0  0  0  0  0  2  0  0  0  0  0  0
  162.5320  208.6320  149.6270 C   0  0  0  0  0  2  0  0  0  0  0  0
  161.1680  207.4690  149.3350 S   0  0  0  0  0  0  0  0  0  0  0  0
  161.8030  207.0070  147.3360 S   0  0  0  0  0  0  0  0  0  0  0  0
  161.8760  204.4710  146.4110 O   0  0  0  0  0  0  0  0  0  0  0  0
  160.8210  203.3830  148.1770 O   0  0  0  0  0  0  0  0  0  0  0  0
  161.1910  204.6370  148.6370 C   0  0  2  0  0  3  0  0  0  0  0  0
  162.0910  205.2100  147.5740 C   0  0  2  0  0  3  0  0  0  0  0  0
  160.9600  203.4650  146.7800 C   0  0  2  0  0  3  0  0  0  0  0  0
  161.5250  205.6570  150.9440 C   0  0  0  0  0  2  0  0  0  0  0  0
  161.4980  203.2720  150.6550 N   0  0  0  0  0  2  0  0  0  0  0  0
  161.2980  203.5630  152.0220 N   0  0  0  0  0  2  0  0  0  0  0  0
  161.8760  204.5220  150.0060 C   0  0  1  0  0  3  0  0  0  0  0  0
  161.2050  205.5400  153.3460 N   0  0  0  0  0  1  0  0  0  0  0  0
  160.8420  204.9390  152.0720 C   0  0  1  0  0  3  0  0  0  0  0  0
  160.1940  201.3340  145.7330 C   0  0  0  0  0  2  0  0  0  0  0  0
  160.8590  200.9570  147.0330 C   0  0  0  0  0  0  0  0  0  0  0  0
  161.5800  199.7650  147.0000 O   0  0  0  0  0  1  0  0  0  0  0  0
  161.4120  202.1180  146.2270 C   0  0  2  0  0  3  0  0  0  0  0  0
  160.1070  201.2260  148.1800 O   0  0  0  0  0  1  0  0  0  0  0  0
  1  2  2  0  0  0  0
  1 36  1  0  0  0  0
  3  2  1  6  0  0  0
  3  4  1  0  0  0  0
  3  5  1  0  0  0  0
  4  6  1  0  0  0  0
  5  6  1  0  0  0  0
  6  7  1  1  0  0  0
  7  9  1  0  0  0  0
  9 10  1  0  0  0  0
 10  8  1  0  0  0  0
 11 14  1  6  0  0  0
 11 15  1  0  0  0  0
 13  9  1  0  0  0  0
 13 11  1  0  0  0  0
 15 12  1  0  0  0  0
 15 16  1  0  0  0  0
 15  8  1  0  0  0  0
 17 18  2  0  0  0  0
 18  1  1  0  0  0  0
 19 17  1  0  0  0  0
 20 19  3  0  0  0  0
 21 20  1  0  0  0  0
 22 23  1  0  0  0  0
 23 21  1  1  0  0  0
 24 28  1  1  0  0  0
 24 23  1  0  0  0  0
 25 26  1  6  0  0  0
 25 24  1  0  0  0  0
 25 22  1  0  0  0  0
 27 31  1  0  0  0  0
 28 29  1  6  0  0  0
 28 31  1  0  0  0  0
 30 29  1  0  0  0  0
 30 32  1  0  0  0  0
 32 27  2  0  0  0  0
 34 35  2  0  0  0  0
 35 33  1  0  0  0  0
 35 25  1  0  0  0  0
 36 37  1  0  0  0  0
 38 37  1  0  0  0  0
 38 39  1  0  0  0  0
 40 39  1  0  0  0  0
 41 40  1  0  0  0  0
 42 41  1  0  0  0  0
 43 46  1  0  0  0  0
 45 44  1  6  0  0  0
 45 51  1  0  0  0  0
 46 42  1  6  0  0  0
 46 45  1  0  0  0  0
 47 43  1  1  0  0  0
 47 44  1  0  0  0  0
 48 53  1  0  0  0  0
 49 50  1  0  0  0  0
 50 53  1  0  0  0  0
 51 49  1  0  0  0  0
 51 48  1  1  0  0  0
 53 52  1  1  0  0  0
 54 55  1  0  0  0  0
 55 58  1  0  0  0  0
 56 55  1  0  0  0  0
 57 54  1  6  0  0  0
 57 47  1  0  0  0  0
 57 55  1  0  0  0  0
M  END
>  <MODEL>
6

>  <REMARK>
 VINA RESULT:      -5.5      3.260      9.859
  Name = 
  19 active torsions:
  status: ('A' for Active; 'I' for Inactive)
    1  A    between atoms: C_1  and  C_27
    2  A    between atoms: C_1  and  C_32
    3  A    between atoms: C_5  and  C_21
    4  A    between atoms: C_6  and  C_14
    5  A    between atoms: N_7  and  C_18
    6  A    between atoms: C_8  and  C_17
    7  A    between atoms: C_12  and  O_15
    8  A    between atoms: C_12  and  C_27
    9  A    between atoms: S_13  and  C_43
   10  A    between atoms: S_13  and  S_47
   11  A    between atoms: O_15  and  C_17
   12  A    between atoms: C_16  and  C_46
   13  A    between atoms: C_18  and  C_39
   14  A    between atoms: C_24  and  C_46
   15  A    between atoms: C_26  and  C_33
   16  A    between atoms: C_29  and  C_54
   17  A    between atoms: C_32  and  S_47
   18  A    between atoms: C_40  and  C_44
   19  A    between atoms: C_48  and  C_49
                            x       y       z     vdW  Elec       q    Type
                         _______ _______ _______ _____ _____    ______ ____

>  <TORSDO>
F 19

$$$$
=
 OpenBabel11052411333D

 58 64  0  0  1  0  0  0  0  0999 V2000
  161.8200  209.8370  150.5930 C   0  0  0  0  0  0  0  0  0  0  0  0
  161.9050  209.6350  151.9010 C   0  0  0  0  0  3  0  0  0  0  0  0
  161.7920  210.7450  152.8930 C   0  0  1  0  0  3  0  0  0  0  0  0
  160.1330  211.4690  152.7910 S   0  0  0  0  0  0  0  0  0  0  0  0
  161.6870  210.1880  154.2310 N   0  0  0  0  0  2  0  0  0  0  0  0
  160.3070  210.6160  154.4000 C   0  0  1  0  0  3  0  0  0  0  0  0
  160.2070  211.5400  155.6280 C   0  0  0  0  0  2  0  0  0  0  0  0
  156.9590  213.1680  157.2600 S   0  0  0  0  0  0  0  0  0  0  0  0
  158.8540  211.6260  156.1650 N   0  0  0  0  0  0  0  0  0  0  0  0
  158.4690  213.0290  156.2410 C   0  0  0  0  0  2  0  0  0  0  0  0
  156.5850  210.8090  155.8090 C   0  0  2  0  0  3  0  0  0  0  0  0
  154.5970  211.9010  156.8700 C   0  0  0  0  0  1  0  0  0  0  0  0
  157.9640  211.0150  155.1930 C   0  0  0  0  0  2  0  0  0  0  0  0
  155.7500  209.9760  154.8410 C   0  0  0  0  0  1  0  0  0  0  0  0
  155.9110  212.1610  156.1490 C   0  0  0  0  0  0  0  0  0  0  0  0
  155.6210  212.9760  154.8940 C   0  0  0  0  0  1  0  0  0  0  0  0
  163.0950  208.0630  149.4620 C   0  0  0  0  0  3  0  0  0  0  0  0
  161.9470  208.6570  149.7270 C   0  0  0  0  0  3  0  0  0  0  0  0
  163.1120  206.9380  148.5780 C   0  0  0  0  0  0  0  0  0  0  0  0
  163.1130  205.9750  147.8510 C   0  0  0  0  0  0  0  0  0  0  0  0
  163.0670  204.7900  146.9930 C   0  0  0  0  0  2  0  0  0  0  0  0
  161.7650  203.8570  145.0490 C   0  0  0  0  0  2  0  0  0  0  0  0
  161.6980  204.7120  146.3140 C   0  0  1  0  0  3  0  0  0  0  0  0
  160.7050  203.7110  146.9310 C   0  0  1  0  0  3  0  0  0  0  0  0
  160.7790  202.8760  145.6430 C   0  0  2  0  0  0  0  0  0  0  0  0
  161.3490  201.6120  145.7930 O   0  0  0  0  0  1  0  0  0  0  0  0
  160.9620  203.1600  150.7330 C   0  0  0  0  0  3  0  0  0  0  0  0
  161.1550  203.0060  148.2190 C   0  0  2  0  0  3  0  0  0  0  0  0
  160.4180  201.6790  148.3810 C   0  0  0  0  0  2  0  0  0  0  0  0
  160.9760  200.9460  149.5930 C   0  0  0  0  0  2  0  0  0  0  0  0
  160.7930  203.8820  149.4200 C   0  0  0  0  0  2  0  0  0  0  0  0
  160.9930  201.8230  150.8180 C   0  0  0  0  0  3  0  0  0  0  0  0
  158.8350  204.0200  144.5520 O   0  0  0  0  0  0  0  0  0  0  0  0
  158.9510  201.7320  144.5960 O   0  0  0  0  0  1  0  0  0  0  0  0
  159.4810  202.8360  144.8960 C   0  0  0  0  0  0  0  0  0  0  0  0
  161.6030  211.1440  150.1150 O   0  0  0  0  0  0  0  0  0  0  0  0
  162.1280  211.6300  148.8890 C   0  0  0  0  0  2  0  0  0  0  0  0
  161.0030  212.1730  148.0370 C   0  0  0  0  0  2  0  0  0  0  0  0
  161.5840  212.7300  146.7550 C   0  0  0  0  0  2  0  0  0  0  0  0
  160.5910  212.5910  145.6190 C   0  0  0  0  0  2  0  0  0  0  0  0
  161.3450  213.2650  144.1110 S   0  0  0  0  0  0  0  0  0  0  0  0
  159.5130  213.1910  142.9930 S   0  0  0  0  0  0  0  0  0  0  0  0
  161.4250  213.2140  141.0860 O   0  0  0  0  0  0  0  0  0  0  0  0
  160.0790  213.2210  139.1870 O   0  0  0  0  0  0  0  0  0  0  0  0
  159.2740  212.8490  140.2530 C   0  0  2  0  0  3  0  0  0  0  0  0
  160.2130  212.5990  141.4040 C   0  0  2  0  0  3  0  0  0  0  0  0
  161.2440  213.7320  139.7870 C   0  0  2  0  0  3  0  0  0  0  0  0
  157.4200  211.8930  138.7960 C   0  0  0  0  0  2  0  0  0  0  0  0
  159.3030  210.5380  139.4220 N   0  0  0  0  0  2  0  0  0  0  0  0
  158.6530  209.9280  138.3280 N   0  0  0  0  0  2  0  0  0  0  0  0
  158.4360  211.6170  139.8830 C   0  0  1  0  0  3  0  0  0  0  0  0
  156.7230  210.4000  137.0160 N   0  0  0  0  0  1  0  0  0  0  0  0
  157.8720  210.9750  137.6960 C   0  0  1  0  0  3  0  0  0  0  0  0
  162.1480  212.1820  138.0540 C   0  0  0  0  0  2  0  0  0  0  0  0
  163.0460  212.0480  139.2580 C   0  0  0  0  0  0  0  0  0  0  0  0
  164.3950  211.8560  138.9660 O   0  0  0  0  0  1  0  0  0  0  0  0
  162.4550  213.4050  138.9210 C   0  0  2  0  0  3  0  0  0  0  0  0
  162.5040  211.3190  140.3200 O   0  0  0  0  0  1  0  0  0  0  0  0
  1  2  2  0  0  0  0
  3  2  1  6  0  0  0
  3  5  1  0  0  0  0
  4  3  1  0  0  0  0
  4  6  1  0  0  0  0
  5  6  1  0  0  0  0
  6  7  1  1  0  0  0
  7  9  1  0  0  0  0
  9 10  1  0  0  0  0
 10  8  1  0  0  0  0
 11 14  1  6  0  0  0
 11 15  1  0  0  0  0
 13 11  1  0  0  0  0
 13  9  1  0  0  0  0
 15 12  1  0  0  0  0
 15  8  1  0  0  0  0
 16 15  1  0  0  0  0
 17 18  2  0  0  0  0
 18  1  1  0  0  0  0
 19 17  1  0  0  0  0
 20 19  3  0  0  0  0
 21 20  1  0  0  0  0
 22 25  1  0  0  0  0
 22 23  1  0  0  0  0
 23 24  1  0  0  0  0
 23 21  1  1  0  0  0
 24 28  1  1  0  0  0
 25 26  1  1  0  0  0
 25 24  1  0  0  0  0
 27 32  2  0  0  0  0
 28 29  1  1  0  0  0
 28 31  1  0  0  0  0
 29 30  1  0  0  0  0
 30 32  1  0  0  0  0
 31 27  1  0  0  0  0
 33 35  2  0  0  0  0
 34 35  1  0  0  0  0
 35 25  1  0  0  0  0
 36  1  1  0  0  0  0
 37 36  1  0  0  0  0
 38 37  1  0  0  0  0
 39 38  1  0  0  0  0
 40 39  1  0  0  0  0
 41 40  1  0  0  0  0
 42 41  1  0  0  0  0
 43 46  1  0  0  0  0
 45 44  1  6  0  0  0
 45 46  1  0  0  0  0
 46 42  1  1  0  0  0
 47 44  1  6  0  0  0
 47 43  1  0  0  0  0
 49 51  1  0  0  0  0
 50 49  1  0  0  0  0
 51 48  1  6  0  0  0
 51 45  1  0  0  0  0
 53 52  1  1  0  0  0
 53 50  1  0  0  0  0
 53 48  1  0  0  0  0
 54 55  1  0  0  0  0
 55 58  1  0  0  0  0
 56 55  1  0  0  0  0
 57 54  1  6  0  0  0
 57 55  1  0  0  0  0
 57 47  1  0  0  0  0
M  END
>  <MODEL>
7

>  <REMARK>
 VINA RESULT:      -4.8      1.769      2.137
  Name = 
  19 active torsions:
  status: ('A' for Active; 'I' for Inactive)
    1  A    between atoms: C_1  and  C_27
    2  A    between atoms: C_1  and  C_32
    3  A    between atoms: C_5  and  C_21
    4  A    between atoms: C_6  and  C_14
    5  A    between atoms: N_7  and  C_18
    6  A    between atoms: C_8  and  C_17
    7  A    between atoms: C_12  and  O_15
    8  A    between atoms: C_12  and  C_27
    9  A    between atoms: S_13  and  C_43
   10  A    between atoms: S_13  and  S_47
   11  A    between atoms: O_15  and  C_17
   12  A    between atoms: C_16  and  C_46
   13  A    between atoms: C_18  and  C_39
   14  A    between atoms: C_24  and  C_46
   15  A    between atoms: C_26  and  C_33
   16  A    between atoms: C_29  and  C_54
   17  A    between atoms: C_32  and  S_47
   18  A    between atoms: C_40  and  C_44
   19  A    between atoms: C_48  and  C_49
                            x       y       z     vdW  Elec       q    Type
                         _______ _______ _______ _____ _____    ______ ____

>  <TORSDO>
F 19

$$$$
=
 OpenBabel11052411333D

 58 64  0  0  1  0  0  0  0  0999 V2000
  161.0220  214.0810  147.5200 C   0  0  0  0  0  0  0  0  0  0  0  0
  160.0610  214.3210  148.4030 C   0  0  0  0  0  3  0  0  0  0  0  0
  160.3240  214.4030  149.8700 C   0  0  1  0  0  3  0  0  0  0  0  0
  158.7440  214.4520  150.7560 S   0  0  0  0  0  0  0  0  0  0  0  0
  160.7850  213.1110  150.3510 N   0  0  0  0  0  2  0  0  0  0  0  0
  159.5780  212.8670  151.1250 C   0  0  1  0  0  3  0  0  0  0  0  0
  159.9520  212.6690  152.6050 C   0  0  0  0  0  2  0  0  0  0  0  0
  157.9160  211.2720  155.7290 S   0  0  0  0  0  0  0  0  0  0  0  0
  158.8050  212.3460  153.4430 N   0  0  0  0  0  0  0  0  0  0  0  0
  159.2770  212.0470  154.7890 C   0  0  0  0  0  2  0  0  0  0  0  0
  156.6460  213.2120  154.1710 C   0  0  2  0  0  3  0  0  0  0  0  0
  155.4380  212.2780  156.1550 C   0  0  0  0  0  1  0  0  0  0  0  0
  157.9990  213.5490  153.5550 C   0  0  0  0  0  2  0  0  0  0  0  0
  155.7570  214.4490  154.0730 C   0  0  0  0  0  1  0  0  0  0  0  0
  156.7970  212.7150  155.6300 C   0  0  0  0  0  0  0  0  0  0  0  0
  157.3400  213.8070  156.5430 C   0  0  0  0  0  1  0  0  0  0  0  0
  161.1060  213.1460  145.2460 C   0  0  0  0  0  3  0  0  0  0  0  0
  160.6280  214.0250  146.1060 C   0  0  0  0  0  3  0  0  0  0  0  0
  160.6790  213.2010  143.8810 C   0  0  0  0  0  0  0  0  0  0  0  0
  160.3070  213.2700  142.7350 C   0  0  0  0  0  0  0  0  0  0  0  0
  159.8600  213.4110  141.3480 C   0  0  0  0  0  2  0  0  0  0  0  0
  157.7570  212.7470  140.1320 C   0  0  0  0  0  2  0  0  0  0  0  0
  158.9140  212.2590  141.0040 C   0  0  1  0  0  3  0  0  0  0  0  0
  159.3770  211.3360  139.8620 C   0  0  1  0  0  3  0  0  0  0  0  0
  158.1980  211.8320  139.0110 C   0  0  2  0  0  0  0  0  0  0  0  0
  158.5560  212.5590  137.8760 O   0  0  0  0  0  1  0  0  0  0  0  0
  163.2240  211.1970  139.7790 C   0  0  0  0  0  3  0  0  0  0  0  0
  160.7790  211.6030  139.2930 C   0  0  2  0  0  3  0  0  0  0  0  0
  161.0220  210.7380  138.0600 C   0  0  0  0  0  2  0  0  0  0  0  0
  162.3630  211.1150  137.4450 C   0  0  0  0  0  2  0  0  0  0  0  0
  161.8250  211.2140  140.3400 C   0  0  0  0  0  2  0  0  0  0  0  0
  163.4700  211.0990  138.4660 C   0  0  0  0  0  3  0  0  0  0  0  0
  157.6060  209.4290  138.6170 O   0  0  0  0  0  1  0  0  0  0  0  0
  155.9870  211.0470  138.5210 O   0  0  0  0  0  0  0  0  0  0  0  0
  157.1980  210.7570  138.7130 C   0  0  0  0  0  0  0  0  0  0  0  0
  162.3430  213.9090  147.9760 O   0  0  0  0  0  0  0  0  0  0  0  0
  163.0000  212.6510  148.0270 C   0  0  0  0  0  2  0  0  0  0  0  0
  161.9860  211.5610  148.2890 C   0  0  0  0  0  2  0  0  0  0  0  0
  162.7180  210.2560  148.5220 C   0  0  0  0  0  2  0  0  0  0  0  0
  162.0400  209.4570  149.6160 C   0  0  0  0  0  2  0  0  0  0  0  0
  160.8310  208.3420  148.8480 S   0  0  0  0  0  0  0  0  0  0  0  0
  162.3150  207.2960  147.7010 S   0  0  0  0  0  0  0  0  0  0  0  0
  161.9890  204.6220  147.8910 O   0  0  0  0  0  0  0  0  0  0  0  0
  160.7840  204.5180  149.8800 O   0  0  0  0  0  0  0  0  0  0  0  0
  161.3470  205.7830  149.8120 C   0  0  2  0  0  3  0  0  0  0  0  0
  162.3210  205.7340  148.6650 C   0  0  2  0  0  3  0  0  0  0  0  0
  160.9280  203.9980  148.5820 C   0  0  2  0  0  3  0  0  0  0  0  0
  161.2180  207.1490  151.9550 C   0  0  0  0  0  2  0  0  0  0  0  0
  162.1790  204.9470  151.9670 N   0  0  0  0  0  2  0  0  0  0  0  0
  161.8690  205.3110  153.2950 N   0  0  0  0  0  2  0  0  0  0  0  0
  162.0110  206.1430  151.1490 C   0  0  1  0  0  3  0  0  0  0  0  0
  160.9610  207.2340  154.3660 N   0  0  0  0  0  1  0  0  0  0  0  0
  160.8850  206.3720  153.1970 C   0  0  1  0  0  3  0  0  0  0  0  0
  159.8230  201.7750  148.8290 C   0  0  0  0  0  2  0  0  0  0  0  0
  160.7650  201.9180  149.9980 C   0  0  0  0  0  0  0  0  0  0  0  0
  161.3950  200.7380  150.3920 O   0  0  0  0  0  1  0  0  0  0  0  0
  161.1640  202.4940  148.6520 C   0  0  2  0  0  3  0  0  0  0  0  0
  160.3300  202.7850  151.0040 O   0  0  0  0  0  1  0  0  0  0  0  0
  1 36  1  0  0  0  0
  1  2  2  0  0  0  0
  3  2  1  6  0  0  0
  3  5  1  0  0  0  0
  3  4  1  0  0  0  0
  4  6  1  0  0  0  0
  5  6  1  0  0  0  0
  6  7  1  1  0  0  0
  7  9  1  0  0  0  0
  9 13  1  0  0  0  0
  9 10  1  0  0  0  0
 10  8  1  0  0  0  0
 11 14  1  1  0  0  0
 11 15  1  0  0  0  0
 13 11  1  0  0  0  0
 15  8  1  0  0  0  0
 15 12  1  0  0  0  0
 15 16  1  0  0  0  0
 17 18  2  0  0  0  0
 18  1  1  0  0  0  0
 19 17  1  0  0  0  0
 20 19  3  0  0  0  0
 21 20  1  0  0  0  0
 22 23  1  0  0  0  0
 23 21  1  6  0  0  0
 24 28  1  6  0  0  0
 24 23  1  0  0  0  0
 25 26  1  6  0  0  0
 25 24  1  0  0  0  0
 25 22  1  0  0  0  0
 27 31  1  0  0  0  0
 28 29  1  6  0  0  0
 28 31  1  0  0  0  0
 30 29  1  0  0  0  0
 30 32  1  0  0  0  0
 32 27  2  0  0  0  0
 33 35  1  0  0  0  0
 34 35  2  0  0  0  0
 35 25  1  0  0  0  0
 36 37  1  0  0  0  0
 37 38  1  0  0  0  0
 38 39  1  0  0  0  0
 39 40  1  0  0  0  0
 41 40  1  0  0  0  0
 42 41  1  0  0  0  0
 43 46  1  0  0  0  0
 45 44  1  1  0  0  0
 45 51  1  0  0  0  0
 46 42  1  6  0  0  0
 46 45  1  0  0  0  0
 47 43  1  1  0  0  0
 47 57  1  0  0  0  0
 47 44  1  0  0  0  0
 48 53  1  0  0  0  0
 49 50  1  0  0  0  0
 51 48  1  1  0  0  0
 51 49  1  0  0  0  0
 53 50  1  0  0  0  0
 53 52  1  1  0  0  0
 54 55  1  0  0  0  0
 55 56  1  0  0  0  0
 55 58  1  0  0  0  0
 57 54  1  6  0  0  0
 57 55  1  0  0  0  0
M  END
>  <MODEL>
8

>  <REMARK>
 VINA RESULT:      -4.7      3.364      9.882
  Name = 
  19 active torsions:
  status: ('A' for Active; 'I' for Inactive)
    1  A    between atoms: C_1  and  C_27
    2  A    between atoms: C_1  and  C_32
    3  A    between atoms: C_5  and  C_21
    4  A    between atoms: C_6  and  C_14
    5  A    between atoms: N_7  and  C_18
    6  A    between atoms: C_8  and  C_17
    7  A    between atoms: C_12  and  O_15
    8  A    between atoms: C_12  and  C_27
    9  A    between atoms: S_13  and  C_43
   10  A    between atoms: S_13  and  S_47
   11  A    between atoms: O_15  and  C_17
   12  A    between atoms: C_16  and  C_46
   13  A    between atoms: C_18  and  C_39
   14  A    between atoms: C_24  and  C_46
   15  A    between atoms: C_26  and  C_33
   16  A    between atoms: C_29  and  C_54
   17  A    between atoms: C_32  and  S_47
   18  A    between atoms: C_40  and  C_44
   19  A    between atoms: C_48  and  C_49
                            x       y       z     vdW  Elec       q    Type
                         _______ _______ _______ _____ _____    ______ ____

>  <TORSDO>
F 19

$$$$
