=
 OpenBabel11052411483D

 40 43  0  0  1  0  0  0  0  0999 V2000
  161.5290  209.2900  151.1810 C   0  0  0  0  0  0  0  0  0  0  0  0
  161.5550  207.3750  149.8170 C   0  0  0  0  0  0  0  0  0  0  0  0
  161.8330  208.6740  148.7700 S   0  0  0  0  0  0  0  0  0  0  0  0
  161.4110  207.8880  151.1160 C   0  0  0  0  0  0  0  0  0  0  0  0
  161.1280  207.0600  152.3260 C   0  0  0  0  0  1  0  0  0  0  0  0
  161.7770  209.8700  149.9460 C   0  0  0  0  0  0  0  0  0  0  0  0
  161.4540  204.2120  147.8730 C   0  0  0  0  0  0  0  0  0  0  0  0
  161.5090  205.6400  148.0940 C   0  0  0  0  0  3  0  0  0  0  0  0
  161.3970  204.5620  150.5030 S   0  0  0  0  0  0  0  0  0  0  0  0
  161.4860  205.9630  149.3770 C   0  0  0  0  0  0  0  0  0  0  0  0
  161.4960  203.7100  146.7190 O   0  0  0  0  0  0  0  0  0  0  0  0
  161.3780  203.3850  149.1050 C   0  0  1  0  0  3  0  0  0  0  0  0
  160.1810  201.5550  150.0880 O   0  0  0  0  0  0  0  0  0  0  0  0
  160.0760  202.5850  149.1320 C   0  0  2  0  0  3  0  0  0  0  0  0
  160.1820  201.1460  148.7420 C   0  0  1  0  0  3  0  0  0  0  0  0
  161.5780  200.6650  148.3540 C   0  0  0  0  0  2  0  0  0  0  0  0
  160.6590  200.7440  146.2050 C   0  0  0  0  0  1  0  0  0  0  0  0
  161.5280  199.9740  147.0770 N   0  0  0  0  0  2  0  0  0  0  0  0
  161.9630  211.2670  149.7160 N   0  0  0  0  0  2  0  0  0  0  0  0
  160.8150  212.7870  147.6840 O   0  0  0  0  0  0  0  0  0  0  0  0
  162.8000  212.9650  146.4780 N   0  0  0  0  0  2  0  0  0  0  0  0
  162.0400  212.5060  147.5920 C   0  0  0  0  0  0  0  0  0  0  0  0
  162.6770  211.7270  148.6020 N   0  0  0  0  0  2  0  0  0  0  0  0
  162.2090  213.7370  145.4680 N   0  0  0  0  0  2  0  0  0  0  0  0
  162.1630  212.0900  142.2590 O   0  0  0  0  0  0  0  0  0  0  0  0
  162.6360  213.2070  144.2420 N   0  0  0  0  0  2  0  0  0  0  0  0
  161.7370  212.5330  143.3560 C   0  0  0  0  0  0  0  0  0  0  0  0
  160.3040  212.3370  143.7180 C   0  0  0  0  0  1  0  0  0  0  0  0
  161.4410  210.0770  152.4480 C   0  0  0  0  0  2  0  0  0  0  0  0
  160.0060  210.4960  152.6970 C   0  0  0  0  0  2  0  0  0  0  0  0
  159.9060  212.0060  152.6530 C   0  0  0  0  0  2  0  0  0  0  0  0
  159.3800  212.6190  154.2750 S   0  0  0  0  0  0  0  0  0  0  0  0
  158.5030  211.1290  154.6230 N   0  0  0  0  0  2  0  0  0  0  0  0
  158.6830  210.8600  156.0380 C   0  0  0  0  0  2  0  0  0  0  0  0
  160.6740  207.6530  156.0370 C   0  0  0  0  0  3  0  0  0  0  0  0
  161.8630  208.0840  156.6300 C   0  0  0  0  0  3  0  0  0  0  0  0
  159.6300  208.5570  155.8350 C   0  0  0  0  0  3  0  0  0  0  0  0
  161.9860  209.4210  157.0170 C   0  0  0  0  0  3  0  0  0  0  0  0
  159.7940  209.8890  156.2270 C   0  0  0  0  0  0  0  0  0  0  0  0
  160.9580  210.2890  156.8110 N   0  0  0  0  0  0  0  0  0  0  0  0
  1 29  1  0  0  0  0
  2  4  2  0  0  0  0
  3  2  1  0  0  0  0
  3  6  1  0  0  0  0
  4  1  1  0  0  0  0
  4  5  1  0  0  0  0
  6  1  2  0  0  0  0
  7  8  1  0  0  0  0
  8 10  2  0  0  0  0
 10  2  1  0  0  0  0
 10  9  1  0  0  0  0
 11  7  2  0  0  0  0
 12  7  1  6  0  0  0
 12 14  1  0  0  0  0
 12  9  1  0  0  0  0
 14 13  1  1  0  0  0
 15 16  1  6  0  0  0
 15 14  1  0  0  0  0
 15 13  1  0  0  0  0
 17 18  1  0  0  0  0
 18 16  1  0  0  0  0
 19  6  1  0  0  0  0
 21 22  1  0  0  0  0
 22 20  2  0  0  0  0
 22 23  1  0  0  0  0
 23 19  1  0  0  0  0
 24 21  1  0  0  0  0
 25 27  2  0  0  0  0
 26 24  1  0  0  0  0
 27 28  1  0  0  0  0
 27 26  1  0  0  0  0
 29 30  1  0  0  0  0
 31 30  1  0  0  0  0
 31 32  1  0  0  0  0
 32 33  1  0  0  0  0
 33 34  1  0  0  0  0
 34 39  1  0  0  0  0
 35 36  1  0  0  0  0
 36 38  2  0  0  0  0
 37 35  2  0  0  0  0
 37 39  1  0  0  0  0
 39 40  2  0  0  0  0
 40 38  1  0  0  0  0
M  END
>  <MODEL>
1

>  <REMARK>
 VINA RESULT:      -6.9      0.000      0.000
  Name = 
  15 active torsions:
  status: ('A' for Active; 'I' for Inactive)
    1  A    between atoms: C_1  and  C_12
    2  A    between atoms: C_1  and  C_24
    3  A    between atoms: N_3  and  N_17
    4  A    between atoms: N_3  and  N_34
    5  A    between atoms: N_5  and  S_33
    6  A    between atoms: N_5  and  C_40
    7  A    between atoms: C_6  and  C_24
    8  A    between atoms: C_7  and  C_30
    9  A    between atoms: N_10  and  C_15
   10  A    between atoms: C_12  and  S_33
   11  A    between atoms: N_14  and  C_31
   12  A    between atoms: N_14  and  N_37
   13  A    between atoms: C_15  and  C_32
   14  A    between atoms: C_20  and  C_39
   15  A    between atoms: C_21  and  C_40
                            x       y       z     vdW  Elec       q    Type
                         _______ _______ _______ _____ _____    ______ ____

>  <TORSDO>
F 15

$$$$
=
 OpenBabel11052411483D

 40 43  0  0  1  0  0  0  0  0999 V2000
  161.7280  207.6550  152.3970 C   0  0  0  0  0  0  0  0  0  0  0  0
  160.8920  209.6950  153.2120 C   0  0  0  0  0  0  0  0  0  0  0  0
  161.4610  210.0350  151.6560 S   0  0  0  0  0  0  0  0  0  0  0  0
  161.1130  208.3320  153.4680 C   0  0  0  0  0  0  0  0  0  0  0  0
  160.7690  207.6450  154.7470 C   0  0  0  0  0  1  0  0  0  0  0  0
  161.9760  208.4760  151.3070 C   0  0  0  0  0  0  0  0  0  0  0  0
  160.1780  212.2080  155.8520 C   0  0  0  0  0  0  0  0  0  0  0  0
  160.9450  211.2250  155.1200 C   0  0  0  0  0  3  0  0  0  0  0  0
  158.6100  211.3510  153.8910 S   0  0  0  0  0  0  0  0  0  0  0  0
  160.2770  210.7060  154.1030 C   0  0  0  0  0  0  0  0  0  0  0  0
  160.6550  212.8330  156.8360 O   0  0  0  0  0  0  0  0  0  0  0  0
  158.8040  212.4480  155.3390 C   0  0  1  0  0  3  0  0  0  0  0  0
  156.5670  211.7000  155.7640 O   0  0  0  0  0  0  0  0  0  0  0  0
  157.7660  212.0780  156.3990 C   0  0  2  0  0  3  0  0  0  0  0  0
  156.5400  212.9320  156.4420 C   0  0  1  0  0  3  0  0  0  0  0  0
  156.4900  214.0740  155.4290 C   0  0  0  0  0  2  0  0  0  0  0  0
  155.7510  214.0410  153.2100 C   0  0  0  0  0  1  0  0  0  0  0  0
  155.3110  213.9430  154.5920 N   0  0  0  0  0  2  0  0  0  0  0  0
  162.5700  208.0550  150.0790 N   0  0  0  0  0  2  0  0  0  0  0  0
  161.5870  205.8020  148.7700 O   0  0  0  0  0  0  0  0  0  0  0  0
  160.6440  207.0300  147.0280 N   0  0  0  0  0  2  0  0  0  0  0  0
  161.3730  206.9300  148.2490 C   0  0  0  0  0  0  0  0  0  0  0  0
  161.8580  208.1150  148.8750 N   0  0  0  0  0  2  0  0  0  0  0  0
  160.1480  205.8860  146.3860 N   0  0  0  0  0  2  0  0  0  0  0  0
  161.6270  205.6780  143.1030 O   0  0  0  0  0  0  0  0  0  0  0  0
  160.3570  206.0630  145.0110 N   0  0  0  0  0  2  0  0  0  0  0  0
  161.4930  205.5070  144.3420 C   0  0  0  0  0  0  0  0  0  0  0  0
  162.5270  204.7380  145.0920 C   0  0  0  0  0  1  0  0  0  0  0  0
  162.0480  206.1950  152.4070 C   0  0  0  0  0  2  0  0  0  0  0  0
  161.0130  205.4340  151.6030 C   0  0  0  0  0  2  0  0  0  0  0  0
  160.6680  204.1440  152.3160 C   0  0  0  0  0  2  0  0  0  0  0  0
  161.8000  202.8370  151.7740 S   0  0  0  0  0  0  0  0  0  0  0  0
  160.6510  202.2560  150.5690 N   0  0  0  0  0  2  0  0  0  0  0  0
  161.2230  201.0540  149.9920 C   0  0  0  0  0  2  0  0  0  0  0  0
  160.5040  202.2810  146.4960 C   0  0  0  0  0  3  0  0  0  0  0  0
  160.8300  201.1470  145.7490 C   0  0  0  0  0  3  0  0  0  0  0  0
  160.6350  202.2610  147.8860 C   0  0  0  0  0  3  0  0  0  0  0  0
  161.2810  200.0020  146.4110 C   0  0  0  0  0  3  0  0  0  0  0  0
  161.0980  201.1000  148.5100 C   0  0  0  0  0  0  0  0  0  0  0  0
  161.4040  200.0010  147.7660 N   0  0  0  0  0  0  0  0  0  0  0  0
  1 29  1  0  0  0  0
  1  4  1  0  0  0  0
  2  4  2  0  0  0  0
  2 10  1  0  0  0  0
  3  2  1  0  0  0  0
  4  5  1  0  0  0  0
  6  3  1  0  0  0  0
  6  1  2  0  0  0  0
  7 11  2  0  0  0  0
  8  7  1  0  0  0  0
  9 10  1  0  0  0  0
 10  8  2  0  0  0  0
 12  9  1  6  0  0  0
 12  7  1  0  0  0  0
 12 14  1  0  0  0  0
 13 15  1  0  0  0  0
 14 13  1  6  0  0  0
 14 15  1  0  0  0  0
 15 16  1  6  0  0  0
 17 18  1  0  0  0  0
 18 16  1  0  0  0  0
 19  6  1  0  0  0  0
 21 22  1  0  0  0  0
 22 20  2  0  0  0  0
 22 23  1  0  0  0  0
 23 19  1  0  0  0  0
 24 21  1  0  0  0  0
 25 27  2  0  0  0  0
 26 24  1  0  0  0  0
 27 26  1  0  0  0  0
 27 28  1  0  0  0  0
 30 31  1  0  0  0  0
 30 29  1  0  0  0  0
 32 31  1  0  0  0  0
 33 32  1  0  0  0  0
 34 33  1  0  0  0  0
 35 37  1  0  0  0  0
 36 38  1  0  0  0  0
 36 35  2  0  0  0  0
 37 39  2  0  0  0  0
 38 40  2  0  0  0  0
 39 34  1  0  0  0  0
 40 39  1  0  0  0  0
M  END
>  <MODEL>
2

>  <REMARK>
 VINA RESULT:      -6.9      3.673      9.730
  Name = 
  15 active torsions:
  status: ('A' for Active; 'I' for Inactive)
    1  A    between atoms: C_1  and  C_12
    2  A    between atoms: C_1  and  C_24
    3  A    between atoms: N_3  and  N_17
    4  A    between atoms: N_3  and  N_34
    5  A    between atoms: N_5  and  S_33
    6  A    between atoms: N_5  and  C_40
    7  A    between atoms: C_6  and  C_24
    8  A    between atoms: C_7  and  C_30
    9  A    between atoms: N_10  and  C_15
   10  A    between atoms: C_12  and  S_33
   11  A    between atoms: N_14  and  C_31
   12  A    between atoms: N_14  and  N_37
   13  A    between atoms: C_15  and  C_32
   14  A    between atoms: C_20  and  C_39
   15  A    between atoms: C_21  and  C_40
                            x       y       z     vdW  Elec       q    Type
                         _______ _______ _______ _____ _____    ______ ____

>  <TORSDO>
F 15

$$$$
=
 OpenBabel11052411483D

 40 43  0  0  1  0  0  0  0  0999 V2000
  161.3950  208.6490  152.4510 C   0  0  0  0  0  0  0  0  0  0  0  0
  161.2490  206.6110  151.2870 C   0  0  0  0  0  0  0  0  0  0  0  0
  161.1250  206.2020  152.9240 S   0  0  0  0  0  0  0  0  0  0  0  0
  161.3910  208.0060  151.1980 C   0  0  0  0  0  0  0  0  0  0  0  0
  161.5550  208.7590  149.9200 C   0  0  0  0  0  1  0  0  0  0  0  0
  161.2440  207.7690  153.5120 C   0  0  0  0  0  0  0  0  0  0  0  0
  160.9850  203.5400  149.2160 C   0  0  0  0  0  0  0  0  0  0  0  0
  161.0120  204.3360  150.4230 C   0  0  0  0  0  3  0  0  0  0  0  0
  161.3830  206.0470  148.4460 S   0  0  0  0  0  0  0  0  0  0  0  0
  161.2080  205.6220  150.1850 C   0  0  0  0  0  0  0  0  0  0  0  0
  160.7800  202.2980  149.2370 O   0  0  0  0  0  0  0  0  0  0  0  0
  161.1820  204.2990  147.9540 C   0  0  1  0  0  3  0  0  0  0  0  0
  162.9240  204.8550  146.4050 O   0  0  0  0  0  0  0  0  0  0  0  0
  162.4460  203.8240  147.2370 C   0  0  2  0  0  3  0  0  0  0  0  0
  162.3640  203.7450  145.7460 C   0  0  1  0  0  3  0  0  0  0  0  0
  161.0210  204.1360  145.1340 C   0  0  0  0  0  2  0  0  0  0  0  0
  160.1650  206.3130  145.1130 C   0  0  0  0  0  1  0  0  0  0  0  0
  161.1310  205.4300  144.4820 N   0  0  0  0  0  2  0  0  0  0  0  0
  161.1920  208.1430  154.8890 N   0  0  0  0  0  2  0  0  0  0  0  0
  161.1860  210.6130  156.1750 O   0  0  0  0  0  0  0  0  0  0  0  0
  158.8990  210.5560  156.6190 N   0  0  0  0  0  2  0  0  0  0  0  0
  160.0930  209.9920  156.0810 C   0  0  0  0  0  0  0  0  0  0  0  0
  160.0400  208.7220  155.4360 N   0  0  0  0  0  2  0  0  0  0  0  0
  158.9120  211.8050  157.2550 N   0  0  0  0  0  2  0  0  0  0  0  0
  156.4620  213.7420  155.4510 O   0  0  0  0  0  0  0  0  0  0  0  0
  158.3410  212.7260  156.3650 N   0  0  0  0  0  2  0  0  0  0  0  0
  156.9250  212.8900  156.2510 C   0  0  0  0  0  0  0  0  0  0  0  0
  155.9880  212.0580  157.0590 C   0  0  0  0  0  1  0  0  0  0  0  0
  161.5070  210.1280  152.6290 C   0  0  0  0  0  2  0  0  0  0  0  0
  160.1410  210.7700  152.4960 C   0  0  0  0  0  2  0  0  0  0  0  0
  160.1690  212.1510  153.1140 C   0  0  0  0  0  2  0  0  0  0  0  0
  158.7050  213.0770  152.5830 S   0  0  0  0  0  0  0  0  0  0  0  0
  159.6450  214.0200  151.4270 N   0  0  0  0  0  2  0  0  0  0  0  0
  158.9070  214.0040  150.1770 C   0  0  0  0  0  2  0  0  0  0  0  0
  161.8280  212.4470  148.3630 C   0  0  0  0  0  3  0  0  0  0  0  0
  161.3990  212.5500  147.0390 C   0  0  0  0  0  3  0  0  0  0  0  0
  161.0160  212.9150  149.3970 C   0  0  0  0  0  3  0  0  0  0  0  0
  160.1560  213.1300  146.7690 C   0  0  0  0  0  3  0  0  0  0  0  0
  159.7760  213.4800  149.0880 C   0  0  0  0  0  0  0  0  0  0  0  0
  159.3770  213.5800  147.7900 N   0  0  0  0  0  0  0  0  0  0  0  0
  1 29  1  0  0  0  0
  1  6  2  0  0  0  0
  2  3  1  0  0  0  0
  3  6  1  0  0  0  0
  4  2  2  0  0  0  0
  4  1  1  0  0  0  0
  5  4  1  0  0  0  0
  6 19  1  0  0  0  0
  7 11  2  0  0  0  0
  7  8  1  0  0  0  0
  9 10  1  0  0  0  0
 10  8  2  0  0  0  0
 10  2  1  0  0  0  0
 12  9  1  1  0  0  0
 12  7  1  0  0  0  0
 14 13  1  6  0  0  0
 14 12  1  0  0  0  0
 15 16  1  1  0  0  0
 15 13  1  0  0  0  0
 15 14  1  0  0  0  0
 18 17  1  0  0  0  0
 18 16  1  0  0  0  0
 19 23  1  0  0  0  0
 21 24  1  0  0  0  0
 22 20  2  0  0  0  0
 22 21  1  0  0  0  0
 23 22  1  0  0  0  0
 25 27  2  0  0  0  0
 26 24  1  0  0  0  0
 27 26  1  0  0  0  0
 27 28  1  0  0  0  0
 30 29  1  0  0  0  0
 30 31  1  0  0  0  0
 32 31  1  0  0  0  0
 33 32  1  0  0  0  0
 34 33  1  0  0  0  0
 35 37  1  0  0  0  0
 36 35  2  0  0  0  0
 38 36  1  0  0  0  0
 38 40  2  0  0  0  0
 39 37  2  0  0  0  0
 39 34  1  0  0  0  0
 40 39  1  0  0  0  0
M  END
>  <MODEL>
3

>  <REMARK>
 VINA RESULT:      -6.6      3.061      7.318
  Name = 
  15 active torsions:
  status: ('A' for Active; 'I' for Inactive)
    1  A    between atoms: C_1  and  C_12
    2  A    between atoms: C_1  and  C_24
    3  A    between atoms: N_3  and  N_17
    4  A    between atoms: N_3  and  N_34
    5  A    between atoms: N_5  and  S_33
    6  A    between atoms: N_5  and  C_40
    7  A    between atoms: C_6  and  C_24
    8  A    between atoms: C_7  and  C_30
    9  A    between atoms: N_10  and  C_15
   10  A    between atoms: C_12  and  S_33
   11  A    between atoms: N_14  and  C_31
   12  A    between atoms: N_14  and  N_37
   13  A    between atoms: C_15  and  C_32
   14  A    between atoms: C_20  and  C_39
   15  A    between atoms: C_21  and  C_40
                            x       y       z     vdW  Elec       q    Type
                         _______ _______ _______ _____ _____    ______ ____

>  <TORSDO>
F 15

$$$$
=
 OpenBabel11052411483D

 40 43  0  0  1  0  0  0  0  0999 V2000
  161.5310  209.1410  151.5260 C   0  0  0  0  0  0  0  0  0  0  0  0
  161.5720  207.2960  150.0710 C   0  0  0  0  0  0  0  0  0  0  0  0
  161.9460  208.6350  149.1070 S   0  0  0  0  0  0  0  0  0  0  0  0
  161.3740  207.7490  151.3850 C   0  0  0  0  0  0  0  0  0  0  0  0
  161.0020  206.8730  152.5340 C   0  0  0  0  0  1  0  0  0  0  0  0
  161.8630  209.7730  150.3370 C   0  0  0  0  0  0  0  0  0  0  0  0
  161.4150  204.2430  147.9620 C   0  0  0  0  0  0  0  0  0  0  0  0
  161.4860  205.6560  148.2580 C   0  0  0  0  0  3  0  0  0  0  0  0
  161.4020  204.4510  150.6060 S   0  0  0  0  0  0  0  0  0  0  0  0
  161.4850  205.9100  149.5560 C   0  0  0  0  0  0  0  0  0  0  0  0
  161.4350  203.8040  146.7820 O   0  0  0  0  0  0  0  0  0  0  0  0
  161.3520  203.3510  149.1490 C   0  0  1  0  0  3  0  0  0  0  0  0
  160.1350  201.5140  150.0910 O   0  0  0  0  0  0  0  0  0  0  0  0
  160.0440  202.5610  149.1530 C   0  0  2  0  0  3  0  0  0  0  0  0
  160.1420  201.1280  148.7380 C   0  0  1  0  0  3  0  0  0  0  0  0
  161.5370  200.6430  148.3500 C   0  0  0  0  0  2  0  0  0  0  0  0
  160.7300  200.7280  146.1560 C   0  0  0  0  0  1  0  0  0  0  0  0
  161.4770  199.9110  147.0970 N   0  0  0  0  0  2  0  0  0  0  0  0
  162.1030  211.1720  150.1890 N   0  0  0  0  0  2  0  0  0  0  0  0
  163.3280  212.3960  148.0070 O   0  0  0  0  0  0  0  0  0  0  0  0
  161.3370  213.2840  147.1840 N   0  0  0  0  0  2  0  0  0  0  0  0
  162.0810  212.5300  148.1380 C   0  0  0  0  0  0  0  0  0  0  0  0
  161.4050  211.9280  149.2380 N   0  0  0  0  0  2  0  0  0  0  0  0
  161.9680  213.8860  146.0870 N   0  0  0  0  0  2  0  0  0  0  0  0
  162.3560  212.3030  142.8690 O   0  0  0  0  0  0  0  0  0  0  0  0
  161.7360  213.0620  144.9760 N   0  0  0  0  0  2  0  0  0  0  0  0
  162.5960  213.0730  143.8330 C   0  0  0  0  0  0  0  0  0  0  0  0
  163.7670  213.9930  143.7620 C   0  0  0  0  0  1  0  0  0  0  0  0
  161.3980  209.8680  152.8250 C   0  0  0  0  0  2  0  0  0  0  0  0
  160.0300  210.5140  152.9190 C   0  0  0  0  0  2  0  0  0  0  0  0
  160.1840  211.9690  153.3060 C   0  0  0  0  0  2  0  0  0  0  0  0
  159.8140  212.1630  155.0690 S   0  0  0  0  0  0  0  0  0  0  0  0
  158.9930  213.6980  154.7920 N   0  0  0  0  0  2  0  0  0  0  0  0
  157.6080  213.5070  155.1820 C   0  0  0  0  0  2  0  0  0  0  0  0
  154.5020  214.0990  153.1210 C   0  0  0  0  0  3  0  0  0  0  0  0
  155.0660  214.4290  151.8870 C   0  0  0  0  0  3  0  0  0  0  0  0
  155.3270  213.8020  154.2070 C   0  0  0  0  0  3  0  0  0  0  0  0
  156.4580  214.4500  151.7580 C   0  0  0  0  0  3  0  0  0  0  0  0
  156.7140  213.8430  154.0410 C   0  0  0  0  0  0  0  0  0  0  0  0
  157.2470  214.1580  152.8280 N   0  0  0  0  0  0  0  0  0  0  0  0
  1 29  1  0  0  0  0
  2  4  2  0  0  0  0
  3  2  1  0  0  0  0
  3  6  1  0  0  0  0
  4  1  1  0  0  0  0
  4  5  1  0  0  0  0
  6  1  2  0  0  0  0
  7  8  1  0  0  0  0
  8 10  2  0  0  0  0
 10  2  1  0  0  0  0
 10  9  1  0  0  0  0
 11  7  2  0  0  0  0
 12  7  1  6  0  0  0
 12 14  1  0  0  0  0
 12  9  1  0  0  0  0
 14 13  1  1  0  0  0
 15 16  1  6  0  0  0
 15 14  1  0  0  0  0
 15 13  1  0  0  0  0
 17 18  1  0  0  0  0
 18 16  1  0  0  0  0
 19  6  1  0  0  0  0
 20 22  2  0  0  0  0
 21 22  1  0  0  0  0
 22 23  1  0  0  0  0
 23 19  1  0  0  0  0
 24 21  1  0  0  0  0
 25 27  2  0  0  0  0
 26 24  1  0  0  0  0
 27 26  1  0  0  0  0
 28 27  1  0  0  0  0
 29 30  1  0  0  0  0
 30 31  1  0  0  0  0
 31 32  1  0  0  0  0
 33 32  1  0  0  0  0
 33 34  1  0  0  0  0
 35 37  1  0  0  0  0
 36 35  2  0  0  0  0
 38 36  1  0  0  0  0
 38 40  2  0  0  0  0
 39 37  2  0  0  0  0
 39 34  1  0  0  0  0
 40 39  1  0  0  0  0
M  END
>  <MODEL>
4

>  <REMARK>
 VINA RESULT:      -6.4      2.084      3.363
  Name = 
  15 active torsions:
  status: ('A' for Active; 'I' for Inactive)
    1  A    between atoms: C_1  and  C_12
    2  A    between atoms: C_1  and  C_24
    3  A    between atoms: N_3  and  N_17
    4  A    between atoms: N_3  and  N_34
    5  A    between atoms: N_5  and  S_33
    6  A    between atoms: N_5  and  C_40
    7  A    between atoms: C_6  and  C_24
    8  A    between atoms: C_7  and  C_30
    9  A    between atoms: N_10  and  C_15
   10  A    between atoms: C_12  and  S_33
   11  A    between atoms: N_14  and  C_31
   12  A    between atoms: N_14  and  N_37
   13  A    between atoms: C_15  and  C_32
   14  A    between atoms: C_20  and  C_39
   15  A    between atoms: C_21  and  C_40
                            x       y       z     vdW  Elec       q    Type
                         _______ _______ _______ _____ _____    ______ ____

>  <TORSDO>
F 15

$$$$
=
 OpenBabel11052411483D

 40 43  0  0  1  0  0  0  0  0999 V2000
  161.2900  208.8010  152.7970 C   0  0  0  0  0  0  0  0  0  0  0  0
  161.1880  206.6000  151.9790 C   0  0  0  0  0  0  0  0  0  0  0  0
  161.0760  206.4570  153.6600 S   0  0  0  0  0  0  0  0  0  0  0  0
  161.2990  207.9640  151.6650 C   0  0  0  0  0  0  0  0  0  0  0  0
  161.4430  208.5040  150.2810 C   0  0  0  0  0  1  0  0  0  0  0  0
  161.1610  208.1010  153.9880 C   0  0  0  0  0  0  0  0  0  0  0  0
  161.1330  204.3660  149.0110 C   0  0  0  0  0  0  0  0  0  0  0  0
  161.1240  205.6150  149.7410 C   0  0  0  0  0  3  0  0  0  0  0  0
  161.2330  203.7270  151.5840 S   0  0  0  0  0  0  0  0  0  0  0  0
  161.1680  205.4440  151.0510 C   0  0  0  0  0  0  0  0  0  0  0  0
  161.1240  204.3250  147.7530 O   0  0  0  0  0  0  0  0  0  0  0  0
  161.1860  203.1430  149.8530 C   0  0  1  0  0  3  0  0  0  0  0  0
  160.1480  201.0060  150.1730 O   0  0  0  0  0  0  0  0  0  0  0  0
  159.9340  202.2930  149.6380 C   0  0  2  0  0  3  0  0  0  0  0  0
  160.1020  201.0880  148.7690 C   0  0  1  0  0  3  0  0  0  0  0  0
  161.5010  200.8720  148.1970 C   0  0  0  0  0  2  0  0  0  0  0  0
  160.7470  201.2860  146.0220 C   0  0  0  0  0  1  0  0  0  0  0  0
  161.4100  200.3040  146.8630 N   0  0  0  0  0  2  0  0  0  0  0  0
  161.1020  208.6910  155.2860 N   0  0  0  0  0  2  0  0  0  0  0  0
  160.8230  211.3600  156.0310 O   0  0  0  0  0  0  0  0  0  0  0  0
  158.5850  211.1230  156.6350 N   0  0  0  0  0  2  0  0  0  0  0  0
  159.8190  210.6060  156.1440 C   0  0  0  0  0  0  0  0  0  0  0  0
  159.9090  209.2310  155.7810 N   0  0  0  0  0  2  0  0  0  0  0  0
  158.4590  212.4720  156.9970 N   0  0  0  0  0  2  0  0  0  0  0  0
  156.0700  213.9590  154.7400 O   0  0  0  0  0  0  0  0  0  0  0  0
  157.9170  213.1450  155.8930 N   0  0  0  0  0  2  0  0  0  0  0  0
  156.5070  213.3330  155.7390 C   0  0  0  0  0  0  0  0  0  0  0  0
  155.5450  212.7870  156.7390 C   0  0  0  0  0  1  0  0  0  0  0  0
  161.3690  210.2920  152.7330 C   0  0  0  0  0  2  0  0  0  0  0  0
  159.9770  210.8790  152.6130 C   0  0  0  0  0  2  0  0  0  0  0  0
  160.0740  212.3790  152.4390 C   0  0  0  0  0  2  0  0  0  0  0  0
  158.4640  213.0280  151.9210 S   0  0  0  0  0  0  0  0  0  0  0  0
  159.2100  214.1250  150.7600 N   0  0  0  0  0  2  0  0  0  0  0  0
  158.7070  213.7530  149.4500 C   0  0  0  0  0  2  0  0  0  0  0  0
  160.6900  212.6150  146.4460 C   0  0  0  0  0  3  0  0  0  0  0  0
  161.9900  212.8960  146.8710 C   0  0  0  0  0  3  0  0  0  0  0  0
  159.6090  212.8980  147.2820 C   0  0  0  0  0  3  0  0  0  0  0  0
  162.1880  213.4550  148.1370 C   0  0  0  0  0  3  0  0  0  0  0  0
  159.8470  213.4650  148.5380 C   0  0  0  0  0  0  0  0  0  0  0  0
  161.1220  213.7240  148.9380 N   0  0  0  0  0  0  0  0  0  0  0  0
  1  6  2  0  0  0  0
  2  3  1  0  0  0  0
  3  6  1  0  0  0  0
  4  2  2  0  0  0  0
  4  1  1  0  0  0  0
  5  4  1  0  0  0  0
  6 19  1  0  0  0  0
  7  8  1  0  0  0  0
  8 10  2  0  0  0  0
 10  9  1  0  0  0  0
 10  2  1  0  0  0  0
 11  7  2  0  0  0  0
 12  7  1  6  0  0  0
 12  9  1  0  0  0  0
 14 12  1  0  0  0  0
 14 13  1  1  0  0  0
 15 16  1  6  0  0  0
 15 14  1  0  0  0  0
 15 13  1  0  0  0  0
 17 18  1  0  0  0  0
 18 16  1  0  0  0  0
 19 23  1  0  0  0  0
 20 22  2  0  0  0  0
 21 24  1  0  0  0  0
 22 21  1  0  0  0  0
 23 22  1  0  0  0  0
 25 27  2  0  0  0  0
 26 24  1  0  0  0  0
 27 26  1  0  0  0  0
 27 28  1  0  0  0  0
 29  1  1  0  0  0  0
 30 29  1  0  0  0  0
 31 30  1  0  0  0  0
 32 31  1  0  0  0  0
 33 32  1  0  0  0  0
 34 33  1  0  0  0  0
 35 36  2  0  0  0  0
 35 37  1  0  0  0  0
 36 38  1  0  0  0  0
 37 39  2  0  0  0  0
 38 40  2  0  0  0  0
 39 40  1  0  0  0  0
 39 34  1  0  0  0  0
M  END
>  <MODEL>
5

>  <REMARK>
 VINA RESULT:      -6.4      2.863      7.047
  Name = 
  15 active torsions:
  status: ('A' for Active; 'I' for Inactive)
    1  A    between atoms: C_1  and  C_12
    2  A    between atoms: C_1  and  C_24
    3  A    between atoms: N_3  and  N_17
    4  A    between atoms: N_3  and  N_34
    5  A    between atoms: N_5  and  S_33
    6  A    between atoms: N_5  and  C_40
    7  A    between atoms: C_6  and  C_24
    8  A    between atoms: C_7  and  C_30
    9  A    between atoms: N_10  and  C_15
   10  A    between atoms: C_12  and  S_33
   11  A    between atoms: N_14  and  C_31
   12  A    between atoms: N_14  and  N_37
   13  A    between atoms: C_15  and  C_32
   14  A    between atoms: C_20  and  C_39
   15  A    between atoms: C_21  and  C_40
                            x       y       z     vdW  Elec       q    Type
                         _______ _______ _______ _____ _____    ______ ____

>  <TORSDO>
F 15

$$$$
=
 OpenBabel11052411483D

 40 43  0  0  1  0  0  0  0  0999 V2000
  161.4710  208.9000  152.4310 C   0  0  0  0  0  0  0  0  0  0  0  0
  160.2850  210.1110  154.0600 C   0  0  0  0  0  0  0  0  0  0  0  0
  160.7060  208.6520  154.8050 S   0  0  0  0  0  0  0  0  0  0  0  0
  160.7870  210.0890  152.7480 C   0  0  0  0  0  0  0  0  0  0  0  0
  160.6040  211.1880  151.7550 C   0  0  0  0  0  1  0  0  0  0  0  0
  161.5170  208.0020  153.4860 C   0  0  0  0  0  0  0  0  0  0  0  0
  159.1260  212.8760  156.2520 C   0  0  0  0  0  0  0  0  0  0  0  0
  160.0210  211.8550  155.7540 C   0  0  0  0  0  3  0  0  0  0  0  0
  157.8730  211.7130  154.2240 S   0  0  0  0  0  0  0  0  0  0  0  0
  159.5180  211.1860  154.7300 C   0  0  0  0  0  0  0  0  0  0  0  0
  159.4410  213.6360  157.2050 O   0  0  0  0  0  0  0  0  0  0  0  0
  157.8270  212.9800  155.5380 C   0  0  1  0  0  3  0  0  0  0  0  0
  155.5920  212.1430  155.7600 O   0  0  0  0  0  0  0  0  0  0  0  0
  156.6690  212.6830  156.4910 C   0  0  2  0  0  3  0  0  0  0  0  0
  155.4080  213.4500  156.2490 C   0  0  1  0  0  3  0  0  0  0  0  0
  155.4470  214.4410  155.0890 C   0  0  0  0  0  2  0  0  0  0  0  0
  155.5540  214.3420  152.7540 C   0  0  0  0  0  1  0  0  0  0  0  0
  154.8260  213.8550  153.9140 N   0  0  0  0  0  2  0  0  0  0  0  0
  162.1620  206.7290  153.4560 N   0  0  0  0  0  2  0  0  0  0  0  0
  160.7650  204.3210  153.3580 O   0  0  0  0  0  0  0  0  0  0  0  0
  161.3280  203.9010  151.1360 N   0  0  0  0  0  2  0  0  0  0  0  0
  161.3720  204.6960  152.3180 C   0  0  0  0  0  0  0  0  0  0  0  0
  162.1050  205.9180  152.3150 N   0  0  0  0  0  2  0  0  0  0  0  0
  160.6130  202.6960  151.1010 N   0  0  0  0  0  2  0  0  0  0  0  0
  161.5130  200.3080  148.5520 O   0  0  0  0  0  0  0  0  0  0  0  0
  161.3630  201.7950  150.3320 N   0  0  0  0  0  2  0  0  0  0  0  0
  160.7950  201.0930  149.2230 C   0  0  0  0  0  0  0  0  0  0  0  0
  159.3600  201.2670  148.8560 C   0  0  0  0  0  1  0  0  0  0  0  0
  162.1200  208.6390  151.1100 C   0  0  0  0  0  2  0  0  0  0  0  0
  161.1520  207.9210  150.1910 C   0  0  0  0  0  2  0  0  0  0  0  0
  161.7880  207.7380  148.8300 C   0  0  0  0  0  2  0  0  0  0  0  0
  161.5550  206.0260  148.2850 S   0  0  0  0  0  0  0  0  0  0  0  0
  161.9850  206.4320  146.6230 N   0  0  0  0  0  2  0  0  0  0  0  0
  162.6700  205.2750  146.0750 C   0  0  0  0  0  2  0  0  0  0  0  0
  159.7140  203.6810  144.3520 C   0  0  0  0  0  3  0  0  0  0  0  0
  159.7950  202.3780  144.8470 C   0  0  0  0  0  3  0  0  0  0  0  0
  160.6540  204.6350  144.7440 C   0  0  0  0  0  3  0  0  0  0  0  0
  160.8210  202.0500  145.7370 C   0  0  0  0  0  3  0  0  0  0  0  0
  161.6720  204.2660  145.6290 C   0  0  0  0  0  0  0  0  0  0  0  0
  161.7300  202.9920  146.1080 N   0  0  0  0  0  0  0  0  0  0  0  0
  1  4  1  0  0  0  0
  1  6  2  0  0  0  0
  2 10  1  0  0  0  0
  2  3  1  0  0  0  0
  4  2  2  0  0  0  0
  5  4  1  0  0  0  0
  6  3  1  0  0  0  0
  7 11  2  0  0  0  0
  8  7  1  0  0  0  0
  9 10  1  0  0  0  0
 10  8  2  0  0  0  0
 12  9  1  6  0  0  0
 12  7  1  0  0  0  0
 12 14  1  0  0  0  0
 13 15  1  0  0  0  0
 14 13  1  6  0  0  0
 15 16  1  6  0  0  0
 15 14  1  0  0  0  0
 17 18  1  0  0  0  0
 18 16  1  0  0  0  0
 19  6  1  0  0  0  0
 21 22  1  0  0  0  0
 22 20  2  0  0  0  0
 23 22  1  0  0  0  0
 23 19  1  0  0  0  0
 24 21  1  0  0  0  0
 25 27  2  0  0  0  0
 26 24  1  0  0  0  0
 27 26  1  0  0  0  0
 28 27  1  0  0  0  0
 29  1  1  0  0  0  0
 30 29  1  0  0  0  0
 31 30  1  0  0  0  0
 32 31  1  0  0  0  0
 33 32  1  0  0  0  0
 34 33  1  0  0  0  0
 35 37  2  0  0  0  0
 35 36  1  0  0  0  0
 36 38  2  0  0  0  0
 37 39  1  0  0  0  0
 38 40  1  0  0  0  0
 39 34  1  0  0  0  0
 39 40  2  0  0  0  0
M  END
>  <MODEL>
6

>  <REMARK>
 VINA RESULT:      -5.7      4.426     10.927
  Name = 
  15 active torsions:
  status: ('A' for Active; 'I' for Inactive)
    1  A    between atoms: C_1  and  C_12
    2  A    between atoms: C_1  and  C_24
    3  A    between atoms: N_3  and  N_17
    4  A    between atoms: N_3  and  N_34
    5  A    between atoms: N_5  and  S_33
    6  A    between atoms: N_5  and  C_40
    7  A    between atoms: C_6  and  C_24
    8  A    between atoms: C_7  and  C_30
    9  A    between atoms: N_10  and  C_15
   10  A    between atoms: C_12  and  S_33
   11  A    between atoms: N_14  and  C_31
   12  A    between atoms: N_14  and  N_37
   13  A    between atoms: C_15  and  C_32
   14  A    between atoms: C_20  and  C_39
   15  A    between atoms: C_21  and  C_40
                            x       y       z     vdW  Elec       q    Type
                         _______ _______ _______ _____ _____    ______ ____

>  <TORSDO>
F 15

$$$$
=
 OpenBabel11052411483D

 40 43  0  0  1  0  0  0  0  0999 V2000
  161.6690  209.2610  151.6090 C   0  0  0  0  0  0  0  0  0  0  0  0
  160.5400  210.9780  152.7490 C   0  0  0  0  0  0  0  0  0  0  0  0
  160.9730  211.6430  151.2550 S   0  0  0  0  0  0  0  0  0  0  0  0
  160.9980  209.6510  152.7830 C   0  0  0  0  0  0  0  0  0  0  0  0
  160.8330  208.7290  153.9460 C   0  0  0  0  0  1  0  0  0  0  0  0
  161.7260  210.2670  150.6560 C   0  0  0  0  0  0  0  0  0  0  0  0
  159.5180  212.8270  155.8040 C   0  0  0  0  0  0  0  0  0  0  0  0
  160.3990  212.0960  154.9200 C   0  0  0  0  0  3  0  0  0  0  0  0
  158.0800  212.2150  153.6600 S   0  0  0  0  0  0  0  0  0  0  0  0
  159.8050  211.7210  153.7990 C   0  0  0  0  0  0  0  0  0  0  0  0
  159.9100  213.2910  156.9070 O   0  0  0  0  0  0  0  0  0  0  0  0
  158.1320  213.0160  155.3010 C   0  0  1  0  0  3  0  0  0  0  0  0
  155.9450  212.0610  155.5180 O   0  0  0  0  0  0  0  0  0  0  0  0
  157.1290  212.3350  156.2310 C   0  0  2  0  0  3  0  0  0  0  0  0
  155.8580  213.0810  156.4830 C   0  0  1  0  0  3  0  0  0  0  0  0
  155.7340  214.4350  155.7890 C   0  0  0  0  0  2  0  0  0  0  0  0
  155.0830  214.4500  153.5420 C   0  0  0  0  0  1  0  0  0  0  0  0
  154.5810  214.4350  154.9050 N   0  0  0  0  0  2  0  0  0  0  0  0
  162.3250  210.1460  149.3670 N   0  0  0  0  0  2  0  0  0  0  0  0
  160.8380  211.4300  147.3920 O   0  0  0  0  0  0  0  0  0  0  0  0
  162.4660  213.0480  146.9940 N   0  0  0  0  0  2  0  0  0  0  0  0
  161.9750  211.8950  147.6730 C   0  0  0  0  0  0  0  0  0  0  0  0
  162.7800  211.2750  148.6730 N   0  0  0  0  0  2  0  0  0  0  0  0
  161.7000  213.6880  146.0080 N   0  0  0  0  0  2  0  0  0  0  0  0
  160.7010  211.7850  143.1120 O   0  0  0  0  0  0  0  0  0  0  0  0
  161.7650  212.8920  144.8560 N   0  0  0  0  0  2  0  0  0  0  0  0
  160.5900  212.4840  144.1510 C   0  0  0  0  0  0  0  0  0  0  0  0
  159.2320  212.8640  144.6370 C   0  0  0  0  0  1  0  0  0  0  0  0
  162.2290  207.8930  151.3830 C   0  0  0  0  0  2  0  0  0  0  0  0
  161.3220  206.8530  152.0080 C   0  0  0  0  0  2  0  0  0  0  0  0
  161.8230  205.4690  151.6570 C   0  0  0  0  0  2  0  0  0  0  0  0
  160.4530  204.4860  150.9950 S   0  0  0  0  0  0  0  0  0  0  0  0
  161.2720  204.2720  149.4480 N   0  0  0  0  0  2  0  0  0  0  0  0
  161.1580  205.5330  148.7370 C   0  0  0  0  0  2  0  0  0  0  0  0
  161.5870  203.8780  145.3720 C   0  0  0  0  0  3  0  0  0  0  0  0
  161.0360  204.8480  144.5320 C   0  0  0  0  0  3  0  0  0  0  0  0
  161.6250  204.0920  146.7510 C   0  0  0  0  0  3  0  0  0  0  0  0
  160.5340  206.0270  145.0900 C   0  0  0  0  0  3  0  0  0  0  0  0
  161.1050  205.2790  147.2720 C   0  0  0  0  0  0  0  0  0  0  0  0
  160.5800  206.2180  146.4370 N   0  0  0  0  0  0  0  0  0  0  0  0
  1  4  1  0  0  0  0
  2  4  2  0  0  0  0
  2 10  1  0  0  0  0
  3  2  1  0  0  0  0
  4  5  1  0  0  0  0
  6  3  1  0  0  0  0
  6  1  2  0  0  0  0
  7 11  2  0  0  0  0
  8  7  1  0  0  0  0
  9 10  1  0  0  0  0
 10  8  2  0  0  0  0
 12  9  1  6  0  0  0
 12  7  1  0  0  0  0
 12 14  1  0  0  0  0
 13 15  1  0  0  0  0
 14 13  1  6  0  0  0
 14 15  1  0  0  0  0
 15 16  1  6  0  0  0
 17 18  1  0  0  0  0
 18 16  1  0  0  0  0
 19  6  1  0  0  0  0
 20 22  2  0  0  0  0
 21 22  1  0  0  0  0
 22 23  1  0  0  0  0
 23 19  1  0  0  0  0
 24 21  1  0  0  0  0
 25 27  2  0  0  0  0
 26 24  1  0  0  0  0
 27 28  1  0  0  0  0
 27 26  1  0  0  0  0
 29  1  1  0  0  0  0
 29 30  1  0  0  0  0
 31 30  1  0  0  0  0
 32 31  1  0  0  0  0
 33 32  1  0  0  0  0
 34 33  1  0  0  0  0
 35 37  1  0  0  0  0
 36 38  1  0  0  0  0
 36 35  2  0  0  0  0
 37 39  2  0  0  0  0
 38 40  2  0  0  0  0
 39 34  1  0  0  0  0
 40 39  1  0  0  0  0
M  END
>  <MODEL>
7

>  <REMARK>
 VINA RESULT:      -5.6      3.225      9.036
  Name = 
  15 active torsions:
  status: ('A' for Active; 'I' for Inactive)
    1  A    between atoms: C_1  and  C_12
    2  A    between atoms: C_1  and  C_24
    3  A    between atoms: N_3  and  N_17
    4  A    between atoms: N_3  and  N_34
    5  A    between atoms: N_5  and  S_33
    6  A    between atoms: N_5  and  C_40
    7  A    between atoms: C_6  and  C_24
    8  A    between atoms: C_7  and  C_30
    9  A    between atoms: N_10  and  C_15
   10  A    between atoms: C_12  and  S_33
   11  A    between atoms: N_14  and  C_31
   12  A    between atoms: N_14  and  N_37
   13  A    between atoms: C_15  and  C_32
   14  A    between atoms: C_20  and  C_39
   15  A    between atoms: C_21  and  C_40
                            x       y       z     vdW  Elec       q    Type
                         _______ _______ _______ _____ _____    ______ ____

>  <TORSDO>
F 15

$$$$
=
 OpenBabel11052411483D

 40 43  0  0  1  0  0  0  0  0999 V2000
  161.5850  207.7460  152.2530 C   0  0  0  0  0  0  0  0  0  0  0  0
  160.7630  209.0170  154.0510 C   0  0  0  0  0  0  0  0  0  0  0  0
  161.0100  207.4650  154.6760 S   0  0  0  0  0  0  0  0  0  0  0  0
  161.1330  209.0030  152.6960 C   0  0  0  0  0  0  0  0  0  0  0  0
  161.0400  210.1790  151.7820 C   0  0  0  0  0  1  0  0  0  0  0  0
  161.5820  206.7840  153.2530 C   0  0  0  0  0  0  0  0  0  0  0  0
  160.3150  211.8620  156.3960 C   0  0  0  0  0  0  0  0  0  0  0  0
  160.9990  210.7690  155.7410 C   0  0  0  0  0  3  0  0  0  0  0  0
  158.5830  210.8250  154.6740 S   0  0  0  0  0  0  0  0  0  0  0  0
  160.2430  210.1520  154.8480 C   0  0  0  0  0  0  0  0  0  0  0  0
  160.8810  212.5860  157.2570 O   0  0  0  0  0  0  0  0  0  0  0  0
  158.9140  212.0850  155.9550 C   0  0  1  0  0  3  0  0  0  0  0  0
  156.6680  211.5780  156.6230 O   0  0  0  0  0  0  0  0  0  0  0  0
  157.9490  211.8870  157.1240 C   0  0  2  0  0  3  0  0  0  0  0  0
  156.8090  212.8520  157.2040 C   0  0  1  0  0  3  0  0  0  0  0  0
  156.7660  213.9200  156.1140 C   0  0  0  0  0  2  0  0  0  0  0  0
  156.0380  213.8840  153.8910 C   0  0  0  0  0  1  0  0  0  0  0  0
  155.6030  213.7190  155.2680 N   0  0  0  0  0  2  0  0  0  0  0  0
  162.0080  205.4310  153.0940 N   0  0  0  0  0  2  0  0  0  0  0  0
  160.2350  203.4300  152.3120 O   0  0  0  0  0  0  0  0  0  0  0  0
  161.1580  203.2230  150.1830 N   0  0  0  0  0  2  0  0  0  0  0  0
  161.1040  203.8090  151.4810 C   0  0  0  0  0  0  0  0  0  0  0  0
  162.0380  204.8270  151.8310 N   0  0  0  0  0  2  0  0  0  0  0  0
  160.2520  202.2230  149.8020 N   0  0  0  0  0  2  0  0  0  0  0  0
  160.5640  201.5280  146.2760 O   0  0  0  0  0  0  0  0  0  0  0  0
  160.0970  202.3170  148.4110 N   0  0  0  0  0  2  0  0  0  0  0  0
  160.7490  201.4140  147.5150 C   0  0  0  0  0  0  0  0  0  0  0  0
  161.6560  200.3460  148.0250 C   0  0  0  0  0  1  0  0  0  0  0  0
  162.0600  207.4730  150.8620 C   0  0  0  0  0  2  0  0  0  0  0  0
  160.8740  207.3020  149.9350 C   0  0  0  0  0  2  0  0  0  0  0  0
  161.3580  207.2310  148.5030 C   0  0  0  0  0  2  0  0  0  0  0  0
  162.7070  208.4180  148.2660 S   0  0  0  0  0  0  0  0  0  0  0  0
  161.5880  209.7810  148.2560 N   0  0  0  0  0  2  0  0  0  0  0  0
  162.3520  210.9500  148.6520 C   0  0  0  0  0  2  0  0  0  0  0  0
  160.8130  214.3930  148.4840 C   0  0  0  0  0  3  0  0  0  0  0  0
  160.4280  214.4420  147.1430 C   0  0  0  0  0  3  0  0  0  0  0  0
  161.4490  213.2560  148.9850 C   0  0  0  0  0  3  0  0  0  0  0  0
  160.6830  213.3410  146.3200 C   0  0  0  0  0  3  0  0  0  0  0  0
  161.6950  212.1790  148.1290 C   0  0  0  0  0  0  0  0  0  0  0  0
  161.3050  212.2410  146.8260 N   0  0  0  0  0  0  0  0  0  0  0  0
  1  4  1  0  0  0  0
  1  6  2  0  0  0  0
  2  3  1  0  0  0  0
  2 10  1  0  0  0  0
  4  2  2  0  0  0  0
  5  4  1  0  0  0  0
  6  3  1  0  0  0  0
  7 11  2  0  0  0  0
  8  7  1  0  0  0  0
  9 10  1  0  0  0  0
 10  8  2  0  0  0  0
 12  9  1  6  0  0  0
 12  7  1  0  0  0  0
 12 14  1  0  0  0  0
 13 15  1  0  0  0  0
 14 13  1  6  0  0  0
 14 15  1  0  0  0  0
 15 16  1  6  0  0  0
 17 18  1  0  0  0  0
 18 16  1  0  0  0  0
 19  6  1  0  0  0  0
 21 22  1  0  0  0  0
 22 23  1  0  0  0  0
 22 20  2  0  0  0  0
 23 19  1  0  0  0  0
 24 21  1  0  0  0  0
 25 27  2  0  0  0  0
 26 24  1  0  0  0  0
 27 28  1  0  0  0  0
 27 26  1  0  0  0  0
 29  1  1  0  0  0  0
 30 29  1  0  0  0  0
 31 30  1  0  0  0  0
 32 31  1  0  0  0  0
 33 32  1  0  0  0  0
 33 34  1  0  0  0  0
 35 37  1  0  0  0  0
 36 35  2  0  0  0  0
 38 40  2  0  0  0  0
 38 36  1  0  0  0  0
 39 34  1  0  0  0  0
 39 37  2  0  0  0  0
 40 39  1  0  0  0  0
M  END
>  <MODEL>
8

>  <REMARK>
 VINA RESULT:      -5.5      3.476     10.127
  Name = 
  15 active torsions:
  status: ('A' for Active; 'I' for Inactive)
    1  A    between atoms: C_1  and  C_12
    2  A    between atoms: C_1  and  C_24
    3  A    between atoms: N_3  and  N_17
    4  A    between atoms: N_3  and  N_34
    5  A    between atoms: N_5  and  S_33
    6  A    between atoms: N_5  and  C_40
    7  A    between atoms: C_6  and  C_24
    8  A    between atoms: C_7  and  C_30
    9  A    between atoms: N_10  and  C_15
   10  A    between atoms: C_12  and  S_33
   11  A    between atoms: N_14  and  C_31
   12  A    between atoms: N_14  and  N_37
   13  A    between atoms: C_15  and  C_32
   14  A    between atoms: C_20  and  C_39
   15  A    between atoms: C_21  and  C_40
                            x       y       z     vdW  Elec       q    Type
                         _______ _______ _______ _____ _____    ______ ____

>  <TORSDO>
F 15

$$$$
=
 OpenBabel11052411483D

 40 43  0  0  1  0  0  0  0  0999 V2000
  161.8240  208.8300  151.6410 C   0  0  0  0  0  0  0  0  0  0  0  0
  161.2870  206.6670  150.8940 C   0  0  0  0  0  0  0  0  0  0  0  0
  160.8390  206.7010  152.5250 S   0  0  0  0  0  0  0  0  0  0  0  0
  161.8130  207.9260  150.5620 C   0  0  0  0  0  0  0  0  0  0  0  0
  162.3440  208.2920  149.2160 C   0  0  0  0  0  1  0  0  0  0  0  0
  161.3000  208.2900  152.8070 C   0  0  0  0  0  0  0  0  0  0  0  0
  160.8170  203.2510  149.5120 C   0  0  0  0  0  0  0  0  0  0  0  0
  160.9810  204.2680  150.5280 C   0  0  0  0  0  3  0  0  0  0  0  0
  161.0780  205.5560  148.2240 S   0  0  0  0  0  0  0  0  0  0  0  0
  161.1260  205.4810  150.0210 C   0  0  0  0  0  0  0  0  0  0  0  0
  160.6360  202.0390  149.8010 O   0  0  0  0  0  0  0  0  0  0  0  0
  160.8450  203.7470  148.1120 C   0  0  1  0  0  3  0  0  0  0  0  0
  162.6930  204.1400  146.6370 O   0  0  0  0  0  0  0  0  0  0  0  0
  162.0180  203.1300  147.3510 C   0  0  2  0  0  3  0  0  0  0  0  0
  161.9560  203.2280  145.8600 C   0  0  1  0  0  3  0  0  0  0  0  0
  160.7200  203.9190  145.2910 C   0  0  0  0  0  2  0  0  0  0  0  0
  160.4410  206.2050  144.8820 C   0  0  0  0  0  1  0  0  0  0  0  0
  161.1190  205.0080  144.4160 N   0  0  0  0  0  2  0  0  0  0  0  0
  161.1690  208.9830  154.0470 N   0  0  0  0  0  2  0  0  0  0  0  0
  159.9900  209.5840  156.4980 O   0  0  0  0  0  0  0  0  0  0  0  0
  158.6740  211.2980  155.6260 N   0  0  0  0  0  2  0  0  0  0  0  0
  159.6410  210.2590  155.4920 C   0  0  0  0  0  0  0  0  0  0  0  0
  160.2100  209.9900  154.2130 N   0  0  0  0  0  2  0  0  0  0  0  0
  158.0980  211.5940  156.8690 N   0  0  0  0  0  2  0  0  0  0  0  0
  155.1680  213.6770  156.5640 O   0  0  0  0  0  0  0  0  0  0  0  0
  157.2830  212.7210  156.6860 N   0  0  0  0  0  2  0  0  0  0  0  0
  155.8560  212.6350  156.7160 C   0  0  0  0  0  0  0  0  0  0  0  0
  155.1690  211.3250  156.9100 C   0  0  0  0  0  1  0  0  0  0  0  0
  162.3100  210.2400  151.5430 C   0  0  0  0  0  2  0  0  0  0  0  0
  161.2050  211.1310  151.0130 C   0  0  0  0  0  2  0  0  0  0  0  0
  161.6450  211.7600  149.7090 C   0  0  0  0  0  2  0  0  0  0  0  0
  160.6470  213.2380  149.3880 S   0  0  0  0  0  0  0  0  0  0  0  0
  161.4010  213.4810  147.8130 N   0  0  0  0  0  2  0  0  0  0  0  0
  160.5510  212.8240  146.8370 C   0  0  0  0  0  2  0  0  0  0  0  0
  161.0440  212.6280  143.0990 C   0  0  0  0  0  3  0  0  0  0  0  0
  162.3760  213.0340  142.9900 C   0  0  0  0  0  3  0  0  0  0  0  0
  160.4370  212.5620  144.3550 C   0  0  0  0  0  3  0  0  0  0  0  0
  163.0850  213.3650  144.1490 C   0  0  0  0  0  3  0  0  0  0  0  0
  161.1760  212.9100  145.4890 C   0  0  0  0  0  0  0  0  0  0  0  0
  162.4760  213.2960  145.3640 N   0  0  0  0  0  0  0  0  0  0  0  0
  1  6  2  0  0  0  0
  2  3  1  0  0  0  0
  3  6  1  0  0  0  0
  4  2  2  0  0  0  0
  4  1  1  0  0  0  0
  5  4  1  0  0  0  0
  6 19  1  0  0  0  0
  7 11  2  0  0  0  0
  7  8  1  0  0  0  0
  9 10  1  0  0  0  0
 10  8  2  0  0  0  0
 10  2  1  0  0  0  0
 12  9  1  1  0  0  0
 12  7  1  0  0  0  0
 14 13  1  1  0  0  0
 14 12  1  0  0  0  0
 15 16  1  1  0  0  0
 15 13  1  0  0  0  0
 15 14  1  0  0  0  0
 18 17  1  0  0  0  0
 18 16  1  0  0  0  0
 19 23  1  0  0  0  0
 21 24  1  0  0  0  0
 22 21  1  0  0  0  0
 22 20  2  0  0  0  0
 23 22  1  0  0  0  0
 25 27  2  0  0  0  0
 26 27  1  0  0  0  0
 26 24  1  0  0  0  0
 27 28  1  0  0  0  0
 29  1  1  0  0  0  0
 30 29  1  0  0  0  0
 31 30  1  0  0  0  0
 32 31  1  0  0  0  0
 33 32  1  0  0  0  0
 34 33  1  0  0  0  0
 35 37  1  0  0  0  0
 36 35  2  0  0  0  0
 36 38  1  0  0  0  0
 37 39  2  0  0  0  0
 38 40  2  0  0  0  0
 39 34  1  0  0  0  0
 40 39  1  0  0  0  0
M  END
>  <MODEL>
9

>  <REMARK>
 VINA RESULT:      -5.4      3.117      8.287
  Name = 
  15 active torsions:
  status: ('A' for Active; 'I' for Inactive)
    1  A    between atoms: C_1  and  C_12
    2  A    between atoms: C_1  and  C_24
    3  A    between atoms: N_3  and  N_17
    4  A    between atoms: N_3  and  N_34
    5  A    between atoms: N_5  and  S_33
    6  A    between atoms: N_5  and  C_40
    7  A    between atoms: C_6  and  C_24
    8  A    between atoms: C_7  and  C_30
    9  A    between atoms: N_10  and  C_15
   10  A    between atoms: C_12  and  S_33
   11  A    between atoms: N_14  and  C_31
   12  A    between atoms: N_14  and  N_37
   13  A    between atoms: C_15  and  C_32
   14  A    between atoms: C_20  and  C_39
   15  A    between atoms: C_21  and  C_40
                            x       y       z     vdW  Elec       q    Type
                         _______ _______ _______ _____ _____    ______ ____

>  <TORSDO>
F 15

$$$$
