=
 OpenBabel11042420333D

 49 54  0  0  1  0  0  0  0  0999 V2000
  161.0150  206.5270  153.5220 C   0  0  0  0  0  2  0  0  0  0  0  0
  162.1430  209.9350  149.6220 C   0  0  0  0  0  0  0  0  0  0  0  0
  161.7880  208.5250  152.0080 C   0  0  0  0  0  0  0  0  0  0  0  0
  162.7680  210.3360  150.8000 C   0  0  0  0  0  3  0  0  0  0  0  0
  161.5680  207.9440  153.3940 C   0  0  1  0  0  3  0  0  0  0  0  0
  161.1190  204.9220  151.6500 C   0  0  1  0  0  3  0  0  0  0  0  0
  160.3690  206.8120  150.7250 C   0  0  0  0  0  2  0  0  0  0  0  0
  161.8920  205.4910  152.8410 C   0  0  0  0  0  2  0  0  0  0  0  0
  161.1480  208.0810  150.8220 C   0  0  0  0  0  0  0  0  0  0  0  0
  161.2610  205.7510  150.5330 O   0  0  0  0  0  0  0  0  0  0  0  0
  161.3480  208.7930  149.6380 C   0  0  0  0  0  3  0  0  0  0  0  0
  162.5740  209.6370  151.9460 N   0  0  0  0  0  0  0  0  0  0  0  0
  161.0010  209.2220  155.4920 C   0  0  0  0  0  3  0  0  0  0  0  0
  160.7510  208.8870  154.2190 C   0  0  0  0  0  0  0  0  0  0  0  0
  159.3700  210.5420  154.9070 C   0  0  0  0  0  0  0  0  0  0  0  0
  158.4280  213.2250  155.2690 Cl  0  0  0  0  0  0  0  0  0  0  0  0
  159.0790  211.7260  153.0460 C   0  0  0  0  0  3  0  0  0  0  0  0
  159.6300  210.4470  152.6790 N   0  0  0  0  0  0  0  0  0  0  0  0
  160.1670  210.3220  155.9010 N   0  0  0  0  0  0  0  0  0  0  0  0
  159.6900  209.7680  153.7750 C   0  0  0  0  0  0  0  0  0  0  0  0
  158.9500  211.8170  154.3710 C   0  0  0  0  0  0  0  0  0  0  0  0
  161.6280  203.5300  151.3130 C   0  0  0  0  0  2  0  0  0  0  0  0
  160.5750  202.7690  150.5190 C   0  0  0  0  0  2  0  0  0  0  0  0
  161.2280  201.8040  149.5400 C   0  0  0  0  0  2  0  0  0  0  0  0
  161.6450  204.1600  146.5940 C   0  0  0  0  0  0  0  0  0  0  0  0
  160.7810  201.5400  147.0830 C   0  0  0  0  0  3  0  0  0  0  0  0
  161.2130  203.3570  145.5330 C   0  0  0  0  0  3  0  0  0  0  0  0
  162.1090  205.5510  146.3370 C   0  0  0  0  0  1  0  0  0  0  0  0
  161.2120  202.3450  148.1470 C   0  0  0  0  0  0  0  0  0  0  0  0
  161.6470  203.6540  147.8990 C   0  0  0  0  0  3  0  0  0  0  0  0
  160.7800  202.0480  145.7770 C   0  0  0  0  0  3  0  0  0  0  0  0
  162.3210  210.6570  148.3970 N   0  0  0  0  0  2  0  0  0  0  0  0
  162.3360  212.1110  148.3260 C   0  0  0  0  0  2  0  0  0  0  0  0
  161.5560  212.5770  147.1460 C   0  0  0  0  0  0  0  0  0  0  0  0
  160.3040  212.4250  147.1310 O   0  0  0  0  0  0  0  0  0  0  0  0
  162.2280  213.2050  146.0460 N   0  0  0  0  0  2  0  0  0  0  0  0
  161.5260  213.7040  144.8740 C   0  0  0  0  0  2  0  0  0  0  0  0
  161.4350  212.6140  143.8180 C   0  0  0  0  0  2  0  0  0  0  0  0
  162.4320  212.8380  142.7850 N   0  0  0  0  0  2  0  0  0  0  0  0
  162.1980  211.8610  141.7290 C   0  0  0  0  0  2  0  0  0  0  0  0
  161.0760  212.2790  140.9070 N   0  0  0  0  0  2  0  0  0  0  0  0
  161.2730  212.6640  139.5430 C   0  0  0  0  0  3  0  0  0  0  0  0
  161.0190  211.8280  138.5350 C   0  0  0  0  0  3  0  0  0  0  0  0
  160.4940  210.4430  138.7500 C   0  0  0  0  0  2  0  0  0  0  0  0
  159.6890  208.2950  137.4600 O   0  0  0  0  0  1  0  0  0  0  0  0
  161.0120  208.2150  137.9080 C   0  0  2  0  0  0  0  0  0  0  0  0
  162.0250  207.4760  137.0590 C   0  0  0  0  0  1  0  0  0  0  0  0
  161.2290  208.2990  139.3400 C   0  0  0  0  0  2  0  0  0  0  0  0
  161.5480  209.4670  138.4890 N   0  0  0  0  0  0  0  0  0  0  0  0
  2 11  2  0  0  0  0
  2  4  1  0  0  0  0
  3  5  1  0  0  0  0
  4 12  2  0  0  0  0
  5  1  1  0  0  0  0
  5 14  1  1  0  0  0
  6 22  1  6  0  0  0
  6  8  1  0  0  0  0
  7  9  1  0  0  0  0
  8  1  1  0  0  0  0
  9  3  2  0  0  0  0
 10  7  1  0  0  0  0
 10  6  1  0  0  0  0
 11  9  1  0  0  0  0
 12  3  1  0  0  0  0
 13 19  1  0  0  0  0
 14 13  2  0  0  0  0
 15 19  2  0  0  0  0
 17 21  2  0  0  0  0
 18 17  1  0  0  0  0
 18 20  2  0  0  0  0
 20 14  1  0  0  0  0
 20 15  1  0  0  0  0
 21 15  1  0  0  0  0
 21 16  1  0  0  0  0
 23 22  1  0  0  0  0
 24 23  1  0  0  0  0
 25 30  1  0  0  0  0
 26 29  1  0  0  0  0
 27 31  1  0  0  0  0
 27 25  2  0  0  0  0
 28 25  1  0  0  0  0
 29 24  1  0  0  0  0
 30 29  2  0  0  0  0
 31 26  2  0  0  0  0
 32  2  1  0  0  0  0
 33 32  1  0  0  0  0
 34 33  1  0  0  0  0
 35 34  2  0  0  0  0
 36 34  1  0  0  0  0
 37 36  1  0  0  0  0
 38 37  1  0  0  0  0
 39 38  1  0  0  0  0
 40 39  1  0  0  0  0
 41 40  1  0  0  0  0
 42 41  1  0  0  0  0
 43 44  1  0  0  0  0
 43 42  2  0  0  0  0
 45 46  1  0  0  0  0
 46 47  1  6  0  0  0
 46 49  1  0  0  0  0
 46 48  1  0  0  0  0
 49 44  1  0  0  0  0
 49 48  1  0  0  0  0
M  END
>  <MODEL>
1

>  <REMARK>
 VINA RESULT:      -7.9      0.000      0.000
  Name = 
  16 active torsions:
  status: ('A' for Active; 'I' for Inactive)
    1  A    between atoms: C_1  and  C_26
    2  A    between atoms: C_1  and  C_41
    3  A    between atoms: C_3  and  N_49
    4  A    between atoms: N_4  and  C_32
    5  A    between atoms: N_4  and  C_47
    6  A    between atoms: C_9  and  C_14
    7  A    between atoms: N_17  and  C_27
    8  A    between atoms: N_17  and  C_47
    9  A    between atoms: C_19  and  C_38
   10  A    between atoms: N_21  and  C_28
   11  A    between atoms: C_22  and  C_42
   12  A    between atoms: C_28  and  C_32
   13  A    between atoms: C_29  and  C_34
   14  A    between atoms: C_29  and  N_45
   15  A    between atoms: C_38  and  N_49
   16  A    between atoms: C_41  and  C_42
                            x       y       z     vdW  Elec       q    Type
                         _______ _______ _______ _____ _____    ______ ____

>  <TORSDO>
F 16

$$$$
=
 OpenBabel11042420333D

 49 54  0  0  1  0  0  0  0  0999 V2000
  160.8910  204.4810  152.8720 C   0  0  0  0  0  2  0  0  0  0  0  0
  161.8620  208.4170  149.4570 C   0  0  0  0  0  0  0  0  0  0  0  0
  161.6810  206.6370  151.6030 C   0  0  0  0  0  0  0  0  0  0  0  0
  162.6950  208.5340  150.5670 C   0  0  0  0  0  3  0  0  0  0  0  0
  161.5920  205.8370  152.8900 C   0  0  1  0  0  3  0  0  0  0  0  0
  160.5240  203.2420  150.7700 C   0  0  1  0  0  3  0  0  0  0  0  0
  159.8900  205.3330  150.3040 C   0  0  0  0  0  2  0  0  0  0  0  0
  161.5250  203.5070  151.8950 C   0  0  0  0  0  2  0  0  0  0  0  0
  160.8260  206.4810  150.4810 C   0  0  0  0  0  0  0  0  0  0  0  0
  160.6050  204.2430  149.7960 O   0  0  0  0  0  0  0  0  0  0  0  0
  160.9410  207.3740  149.4140 C   0  0  0  0  0  3  0  0  0  0  0  0
  162.5820  207.6590  151.5970 N   0  0  0  0  0  0  0  0  0  0  0  0
  161.2410  206.5150  155.2930 C   0  0  0  0  0  3  0  0  0  0  0  0
  161.0270  206.6880  153.9820 C   0  0  0  0  0  0  0  0  0  0  0  0
  160.1590  208.4020  155.1790 C   0  0  0  0  0  0  0  0  0  0  0  0
  160.0530  210.9930  156.3980 Cl  0  0  0  0  0  0  0  0  0  0  0  0
  160.4280  210.1300  153.8050 C   0  0  0  0  0  3  0  0  0  0  0  0
  160.5940  208.9210  153.0390 N   0  0  0  0  0  0  0  0  0  0  0  0
  160.7480  207.6410  156.0420 N   0  0  0  0  0  0  0  0  0  0  0  0
  160.3350  207.9560  153.8560 C   0  0  0  0  0  0  0  0  0  0  0  0
  160.2050  209.8430  155.0880 C   0  0  0  0  0  0  0  0  0  0  0  0
  160.8010  201.8920  150.1280 C   0  0  0  0  0  2  0  0  0  0  0  0
  161.7670  202.0580  148.9620 C   0  0  0  0  0  2  0  0  0  0  0  0
  161.1660  201.5030  147.6800 C   0  0  0  0  0  2  0  0  0  0  0  0
  161.5040  204.8150  145.8570 C   0  0  0  0  0  0  0  0  0  0  0  0
  160.3430  202.2990  145.4440 C   0  0  0  0  0  3  0  0  0  0  0  0
  160.8130  204.5490  144.6690 C   0  0  0  0  0  3  0  0  0  0  0  0
  162.1260  206.1490  146.0760 C   0  0  0  0  0  1  0  0  0  0  0  0
  161.0330  202.5640  146.6350 C   0  0  0  0  0  0  0  0  0  0  0  0
  161.6150  203.8220  146.8370 C   0  0  0  0  0  3  0  0  0  0  0  0
  160.2320  203.2930  144.4620 C   0  0  0  0  0  3  0  0  0  0  0  0
  161.9500  209.3290  148.3550 N   0  0  0  0  0  2  0  0  0  0  0  0
  162.5410  210.6550  148.4670 C   0  0  0  0  0  2  0  0  0  0  0  0
  161.6770  211.6620  147.7900 C   0  0  0  0  0  0  0  0  0  0  0  0
  160.4930  211.3570  147.4820 O   0  0  0  0  0  0  0  0  0  0  0  0
  162.1910  212.9710  147.5060 N   0  0  0  0  0  2  0  0  0  0  0  0
  161.3960  214.0090  146.8690 C   0  0  0  0  0  2  0  0  0  0  0  0
  161.6700  214.0310  145.3740 C   0  0  0  0  0  2  0  0  0  0  0  0
  162.9660  213.4350  145.0970 N   0  0  0  0  0  2  0  0  0  0  0  0
  163.3280  213.7860  143.7290 C   0  0  0  0  0  2  0  0  0  0  0  0
  162.5320  213.0150  142.7910 N   0  0  0  0  0  2  0  0  0  0  0  0
  162.7130  213.1690  141.3810 C   0  0  0  0  0  3  0  0  0  0  0  0
  162.1260  212.3500  140.5050 C   0  0  0  0  0  3  0  0  0  0  0  0
  161.2270  211.2310  140.9270 C   0  0  0  0  0  2  0  0  0  0  0  0
  161.6280  209.0900  139.4500 O   0  0  0  0  0  1  0  0  0  0  0  0
  160.5650  209.8840  139.0070 C   0  0  2  0  0  0  0  0  0  0  0  0
  159.3570  209.2070  138.3960 C   0  0  0  0  0  1  0  0  0  0  0  0
  160.8790  211.2430  138.6110 C   0  0  0  0  0  2  0  0  0  0  0  0
  160.2080  211.0030  139.9070 N   0  0  0  0  0  0  0  0  0  0  0  0
  1  5  1  0  0  0  0
  2  4  1  0  0  0  0
  3  5  1  0  0  0  0
  4 12  2  0  0  0  0
  5 14  1  1  0  0  0
  6 22  1  6  0  0  0
  6  8  1  0  0  0  0
  7  9  1  0  0  0  0
  8  1  1  0  0  0  0
  9  3  2  0  0  0  0
 10  7  1  0  0  0  0
 10  6  1  0  0  0  0
 11  2  2  0  0  0  0
 11  9  1  0  0  0  0
 12  3  1  0  0  0  0
 13 19  1  0  0  0  0
 14 13  2  0  0  0  0
 15 19  2  0  0  0  0
 17 21  2  0  0  0  0
 18 17  1  0  0  0  0
 18 20  2  0  0  0  0
 20 14  1  0  0  0  0
 20 15  1  0  0  0  0
 21 15  1  0  0  0  0
 21 16  1  0  0  0  0
 23 22  1  0  0  0  0
 24 23  1  0  0  0  0
 25 28  1  0  0  0  0
 25 30  1  0  0  0  0
 26 29  1  0  0  0  0
 27 25  2  0  0  0  0
 29 30  2  0  0  0  0
 29 24  1  0  0  0  0
 31 27  1  0  0  0  0
 31 26  2  0  0  0  0
 32 33  1  0  0  0  0
 32  2  1  0  0  0  0
 34 33  1  0  0  0  0
 35 34  2  0  0  0  0
 36 34  1  0  0  0  0
 37 36  1  0  0  0  0
 38 37  1  0  0  0  0
 39 38  1  0  0  0  0
 40 39  1  0  0  0  0
 41 40  1  0  0  0  0
 42 41  1  0  0  0  0
 43 44  1  0  0  0  0
 43 42  2  0  0  0  0
 46 47  1  6  0  0  0
 46 45  1  0  0  0  0
 46 49  1  0  0  0  0
 48 46  1  0  0  0  0
 48 49  1  0  0  0  0
 49 44  1  0  0  0  0
M  END
>  <MODEL>
2

>  <REMARK>
 VINA RESULT:      -6.7      1.541      2.105
  Name = 
  16 active torsions:
  status: ('A' for Active; 'I' for Inactive)
    1  A    between atoms: C_1  and  C_26
    2  A    between atoms: C_1  and  C_41
    3  A    between atoms: C_3  and  N_49
    4  A    between atoms: N_4  and  C_32
    5  A    between atoms: N_4  and  C_47
    6  A    between atoms: C_9  and  C_14
    7  A    between atoms: N_17  and  C_27
    8  A    between atoms: N_17  and  C_47
    9  A    between atoms: C_19  and  C_38
   10  A    between atoms: N_21  and  C_28
   11  A    between atoms: C_22  and  C_42
   12  A    between atoms: C_28  and  C_32
   13  A    between atoms: C_29  and  C_34
   14  A    between atoms: C_29  and  N_45
   15  A    between atoms: C_38  and  N_49
   16  A    between atoms: C_41  and  C_42
                            x       y       z     vdW  Elec       q    Type
                         _______ _______ _______ _____ _____    ______ ____

>  <TORSDO>
F 16

$$$$
=
 OpenBabel11042420333D

 49 54  0  0  1  0  0  0  0  0999 V2000
  160.7470  204.5210  151.5090 C   0  0  0  0  0  2  0  0  0  0  0  0
  162.0910  208.8530  148.7660 C   0  0  0  0  0  0  0  0  0  0  0  0
  161.0320  206.4760  149.7830 C   0  0  0  0  0  0  0  0  0  0  0  0
  160.9660  208.2610  148.1980 C   0  0  0  0  0  3  0  0  0  0  0  0
  160.4430  205.1230  150.1390 C   0  0  1  0  0  3  0  0  0  0  0  0
  161.5410  205.9130  153.3860 C   0  0  1  0  0  3  0  0  0  0  0  0
  162.7940  206.5490  151.6490 C   0  0  0  0  0  2  0  0  0  0  0  0
  160.2960  205.4130  152.6530 C   0  0  0  0  0  2  0  0  0  0  0  0
  162.1710  207.0610  150.3950 C   0  0  0  0  0  0  0  0  0  0  0  0
  162.0700  207.0360  152.7430 O   0  0  0  0  0  0  0  0  0  0  0  0
  162.6770  208.2550  149.8780 C   0  0  0  0  0  3  0  0  0  0  0  0
  160.4760  207.1040  148.7090 N   0  0  0  0  0  0  0  0  0  0  0  0
  161.6750  204.2950  148.1010 C   0  0  0  0  0  3  0  0  0  0  0  0
  160.7610  204.1300  149.0660 C   0  0  0  0  0  0  0  0  0  0  0  0
  161.0270  202.2290  147.8680 C   0  0  0  0  0  0  0  0  0  0  0  0
  162.0420  199.6280  147.2200 Cl  0  0  0  0  0  0  0  0  0  0  0  0
  160.6900  200.6490  149.3970 C   0  0  0  0  0  3  0  0  0  0  0  0
  160.1930  201.8940  149.9250 N   0  0  0  0  0  0  0  0  0  0  0  0
  161.8900  203.0630  147.3880 N   0  0  0  0  0  0  0  0  0  0  0  0
  160.3240  202.7520  148.9700 C   0  0  0  0  0  0  0  0  0  0  0  0
  161.2230  200.8330  148.1880 C   0  0  0  0  0  0  0  0  0  0  0  0
  161.1950  206.2710  154.8220 C   0  0  0  0  0  2  0  0  0  0  0  0
  161.4830  207.7450  155.0750 C   0  0  0  0  0  2  0  0  0  0  0  0
  160.1970  208.5060  155.3600 C   0  0  0  0  0  2  0  0  0  0  0  0
  159.4970  212.0950  154.3450 C   0  0  0  0  0  0  0  0  0  0  0  0
  160.5710  209.7660  153.2190 C   0  0  0  0  0  3  0  0  0  0  0  0
  159.9600  212.1050  153.0240 C   0  0  0  0  0  3  0  0  0  0  0  0
  158.9310  213.3330  154.9480 C   0  0  0  0  0  1  0  0  0  0  0  0
  160.1070  209.7530  154.5410 C   0  0  0  0  0  0  0  0  0  0  0  0
  159.5730  210.9210  155.1030 C   0  0  0  0  0  3  0  0  0  0  0  0
  160.4950  210.9420  152.4610 C   0  0  0  0  0  3  0  0  0  0  0  0
  162.6390  210.0710  148.2460 N   0  0  0  0  0  2  0  0  0  0  0  0
  162.4200  211.3700  148.8650 C   0  0  0  0  0  2  0  0  0  0  0  0
  161.9840  212.3610  147.8430 C   0  0  0  0  0  0  0  0  0  0  0  0
  162.8500  212.9620  147.1520 O   0  0  0  0  0  0  0  0  0  0  0  0
  160.5860  212.6160  147.6430 N   0  0  0  0  0  2  0  0  0  0  0  0
  160.0900  213.5520  146.6470 C   0  0  0  0  0  2  0  0  0  0  0  0
  159.4160  212.7970  145.5120 C   0  0  0  0  0  2  0  0  0  0  0  0
  160.3180  212.6980  144.3770 N   0  0  0  0  0  2  0  0  0  0  0  0
  159.5110  212.4010  143.2000 C   0  0  0  0  0  2  0  0  0  0  0  0
  160.3500  212.3810  142.0150 N   0  0  0  0  0  2  0  0  0  0  0  0
  161.7570  212.1450  142.1210 C   0  0  0  0  0  3  0  0  0  0  0  0
  162.4590  211.6320  141.1090 C   0  0  0  0  0  3  0  0  0  0  0  0
  161.8390  211.2850  139.7920 C   0  0  0  0  0  2  0  0  0  0  0  0
  162.2230  209.9160  137.5780 O   0  0  0  0  0  1  0  0  0  0  0  0
  161.4210  209.2530  138.5130 C   0  0  2  0  0  0  0  0  0  0  0  0
  161.5200  207.7460  138.6190 C   0  0  0  0  0  1  0  0  0  0  0  0
  160.1790  209.9000  138.8920 C   0  0  0  0  0  2  0  0  0  0  0  0
  161.3220  209.9200  139.8310 N   0  0  0  0  0  0  0  0  0  0  0  0
  1  8  1  0  0  0  0
  2 11  1  0  0  0  0
  3  5  1  0  0  0  0
  3  9  1  0  0  0  0
  4 12  1  0  0  0  0
  4  2  2  0  0  0  0
  5 14  1  6  0  0  0
  5  1  1  0  0  0  0
  6 22  1  1  0  0  0
  7 10  1  0  0  0  0
  8  6  1  0  0  0  0
  9  7  1  0  0  0  0
 10  6  1  0  0  0  0
 11  9  2  0  0  0  0
 12  3  2  0  0  0  0
 13 14  1  0  0  0  0
 15 21  2  0  0  0  0
 15 20  1  0  0  0  0
 16 21  1  0  0  0  0
 17 18  2  0  0  0  0
 19 15  1  0  0  0  0
 19 13  2  0  0  0  0
 20 14  2  0  0  0  0
 20 18  1  0  0  0  0
 21 17  1  0  0  0  0
 22 23  1  0  0  0  0
 23 24  1  0  0  0  0
 25 28  1  0  0  0  0
 25 30  1  0  0  0  0
 26 29  1  0  0  0  0
 27 25  2  0  0  0  0
 29 30  2  0  0  0  0
 29 24  1  0  0  0  0
 31 27  1  0  0  0  0
 31 26  2  0  0  0  0
 32  2  1  0  0  0  0
 32 33  1  0  0  0  0
 34 33  1  0  0  0  0
 35 34  2  0  0  0  0
 36 34  1  0  0  0  0
 37 36  1  0  0  0  0
 38 37  1  0  0  0  0
 39 38  1  0  0  0  0
 40 39  1  0  0  0  0
 41 42  1  0  0  0  0
 41 40  1  0  0  0  0
 43 42  2  0  0  0  0
 44 49  1  0  0  0  0
 44 43  1  0  0  0  0
 45 46  1  0  0  0  0
 46 47  1  6  0  0  0
 46 48  1  0  0  0  0
 46 49  1  0  0  0  0
 48 49  1  0  0  0  0
M  END
>  <MODEL>
3

>  <REMARK>
 VINA RESULT:      -6.4      3.223      6.806
  Name = 
  16 active torsions:
  status: ('A' for Active; 'I' for Inactive)
    1  A    between atoms: C_1  and  C_26
    2  A    between atoms: C_1  and  C_41
    3  A    between atoms: C_3  and  N_49
    4  A    between atoms: N_4  and  C_32
    5  A    between atoms: N_4  and  C_47
    6  A    between atoms: C_9  and  C_14
    7  A    between atoms: N_17  and  C_27
    8  A    between atoms: N_17  and  C_47
    9  A    between atoms: C_19  and  C_38
   10  A    between atoms: N_21  and  C_28
   11  A    between atoms: C_22  and  C_42
   12  A    between atoms: C_28  and  C_32
   13  A    between atoms: C_29  and  C_34
   14  A    between atoms: C_29  and  N_45
   15  A    between atoms: C_38  and  N_49
   16  A    between atoms: C_41  and  C_42
                            x       y       z     vdW  Elec       q    Type
                         _______ _______ _______ _____ _____    ______ ____

>  <TORSDO>
F 16

$$$$
=
 OpenBabel11042420333D

 49 54  0  0  1  0  0  0  0  0999 V2000
  160.8590  204.3630  152.3000 C   0  0  0  0  0  2  0  0  0  0  0  0
  161.9020  208.3650  148.9840 C   0  0  0  0  0  0  0  0  0  0  0  0
  160.9950  206.0900  150.3310 C   0  0  0  0  0  0  0  0  0  0  0  0
  160.7950  207.6490  148.5330 C   0  0  0  0  0  3  0  0  0  0  0  0
  160.4890  204.7670  150.8750 C   0  0  1  0  0  3  0  0  0  0  0  0
  161.6260  206.0230  153.9580 C   0  0  1  0  0  3  0  0  0  0  0  0
  162.7990  206.4900  152.1140 C   0  0  0  0  0  2  0  0  0  0  0  0
  160.3900  205.3720  153.3350 C   0  0  0  0  0  2  0  0  0  0  0  0
  162.1170  206.8050  150.8250 C   0  0  0  0  0  0  0  0  0  0  0  0
  162.0780  207.0790  153.1590 O   0  0  0  0  0  0  0  0  0  0  0  0
  162.5470  207.9450  150.1440 C   0  0  0  0  0  3  0  0  0  0  0  0
  160.3800  206.5460  149.2030 N   0  0  0  0  0  0  0  0  0  0  0  0
  160.4800  202.3760  150.0740 C   0  0  0  0  0  3  0  0  0  0  0  0
  160.8310  203.6610  149.9280 C   0  0  0  0  0  0  0  0  0  0  0  0
  161.3720  202.4590  148.0880 C   0  0  0  0  0  0  0  0  0  0  0  0
  161.0680  201.3670  145.4560 Cl  0  0  0  0  0  0  0  0  0  0  0  0
  161.0950  203.9400  146.4520 C   0  0  0  0  0  3  0  0  0  0  0  0
  161.1450  204.6580  147.6990 N   0  0  0  0  0  0  0  0  0  0  0  0
  160.7640  201.6320  148.8740 N   0  0  0  0  0  0  0  0  0  0  0  0
  161.4000  203.7700  148.6000 C   0  0  0  0  0  0  0  0  0  0  0  0
  161.1910  202.6270  146.6640 C   0  0  0  0  0  0  0  0  0  0  0  0
  161.2980  206.5470  155.3460 C   0  0  0  0  0  2  0  0  0  0  0  0
  159.9880  207.3230  155.3150 C   0  0  0  0  0  2  0  0  0  0  0  0
  160.1170  208.6310  156.0810 C   0  0  0  0  0  2  0  0  0  0  0  0
  159.5660  212.1420  154.7510 C   0  0  0  0  0  0  0  0  0  0  0  0
  160.6050  209.6980  153.8600 C   0  0  0  0  0  3  0  0  0  0  0  0
  160.0740  212.0300  153.4520 C   0  0  0  0  0  3  0  0  0  0  0  0
  159.0170  213.4410  155.2290 C   0  0  0  0  0  1  0  0  0  0  0  0
  160.0940  209.8090  155.1600 C   0  0  0  0  0  0  0  0  0  0  0  0
  159.5780  211.0340  155.6050 C   0  0  0  0  0  3  0  0  0  0  0  0
  160.5920  210.8090  153.0060 C   0  0  0  0  0  3  0  0  0  0  0  0
  162.3710  209.5310  148.2950 N   0  0  0  0  0  2  0  0  0  0  0  0
  162.3310  210.8660  148.8730 C   0  0  0  0  0  2  0  0  0  0  0  0
  162.0540  211.8770  147.8150 C   0  0  0  0  0  0  0  0  0  0  0  0
  162.9950  212.5970  147.3840 O   0  0  0  0  0  0  0  0  0  0  0  0
  160.7280  212.0160  147.2860 N   0  0  0  0  0  2  0  0  0  0  0  0
  160.3930  212.9650  146.2370 C   0  0  0  0  0  2  0  0  0  0  0  0
  159.8060  212.2330  145.0400 C   0  0  0  0  0  2  0  0  0  0  0  0
  160.6660  212.4060  143.8810 N   0  0  0  0  0  2  0  0  0  0  0  0
  159.8130  212.4130  142.6990 C   0  0  0  0  0  2  0  0  0  0  0  0
  160.5880  212.7890  141.5300 N   0  0  0  0  0  2  0  0  0  0  0  0
  161.9760  212.4540  141.4350 C   0  0  0  0  0  3  0  0  0  0  0  0
  162.4550  211.7310  140.4210 C   0  0  0  0  0  3  0  0  0  0  0  0
  161.5890  211.2370  139.3050 C   0  0  0  0  0  2  0  0  0  0  0  0
  159.7080  209.4500  138.8650 O   0  0  0  0  0  1  0  0  0  0  0  0
  161.0050  208.9370  138.7510 C   0  0  2  0  0  0  0  0  0  0  0  0
  161.2740  207.8630  137.7190 C   0  0  0  0  0  1  0  0  0  0  0  0
  161.8430  208.9950  139.9340 C   0  0  0  0  0  2  0  0  0  0  0  0
  162.0820  209.9480  138.8280 N   0  0  0  0  0  0  0  0  0  0  0  0
  1  8  1  0  0  0  0
  2 11  1  0  0  0  0
  3  9  1  0  0  0  0
  3  5  1  0  0  0  0
  4  2  2  0  0  0  0
  4 12  1  0  0  0  0
  5 14  1  6  0  0  0
  5  1  1  0  0  0  0
  6 22  1  1  0  0  0
  7 10  1  0  0  0  0
  8  6  1  0  0  0  0
  9  7  1  0  0  0  0
 10  6  1  0  0  0  0
 11  9  2  0  0  0  0
 12  3  2  0  0  0  0
 14 13  1  0  0  0  0
 15 20  1  0  0  0  0
 15 19  1  0  0  0  0
 16 21  1  0  0  0  0
 17 21  1  0  0  0  0
 17 18  2  0  0  0  0
 18 20  1  0  0  0  0
 19 13  2  0  0  0  0
 20 14  2  0  0  0  0
 21 15  2  0  0  0  0
 23 22  1  0  0  0  0
 23 24  1  0  0  0  0
 25 28  1  0  0  0  0
 25 30  1  0  0  0  0
 26 29  1  0  0  0  0
 27 25  2  0  0  0  0
 29 30  2  0  0  0  0
 29 24  1  0  0  0  0
 31 27  1  0  0  0  0
 31 26  2  0  0  0  0
 32 33  1  0  0  0  0
 32  2  1  0  0  0  0
 34 33  1  0  0  0  0
 35 34  2  0  0  0  0
 36 34  1  0  0  0  0
 37 36  1  0  0  0  0
 38 37  1  0  0  0  0
 39 38  1  0  0  0  0
 40 39  1  0  0  0  0
 41 40  1  0  0  0  0
 42 41  1  0  0  0  0
 43 42  2  0  0  0  0
 44 43  1  0  0  0  0
 46 47  1  6  0  0  0
 46 49  1  0  0  0  0
 46 45  1  0  0  0  0
 46 48  1  0  0  0  0
 49 44  1  0  0  0  0
 49 48  1  0  0  0  0
M  END
>  <MODEL>
4

>  <REMARK>
 VINA RESULT:      -6.3      3.099      6.706
  Name = 
  16 active torsions:
  status: ('A' for Active; 'I' for Inactive)
    1  A    between atoms: C_1  and  C_26
    2  A    between atoms: C_1  and  C_41
    3  A    between atoms: C_3  and  N_49
    4  A    between atoms: N_4  and  C_32
    5  A    between atoms: N_4  and  C_47
    6  A    between atoms: C_9  and  C_14
    7  A    between atoms: N_17  and  C_27
    8  A    between atoms: N_17  and  C_47
    9  A    between atoms: C_19  and  C_38
   10  A    between atoms: N_21  and  C_28
   11  A    between atoms: C_22  and  C_42
   12  A    between atoms: C_28  and  C_32
   13  A    between atoms: C_29  and  C_34
   14  A    between atoms: C_29  and  N_45
   15  A    between atoms: C_38  and  N_49
   16  A    between atoms: C_41  and  C_42
                            x       y       z     vdW  Elec       q    Type
                         _______ _______ _______ _____ _____    ______ ____

>  <TORSDO>
F 16

$$$$
=
 OpenBabel11042420333D

 49 54  0  0  1  0  0  0  0  0999 V2000
  160.7930  204.3810  152.2990 C   0  0  0  0  0  2  0  0  0  0  0  0
  162.0130  208.4350  149.1100 C   0  0  0  0  0  0  0  0  0  0  0  0
  161.0240  206.1480  150.3750 C   0  0  0  0  0  0  0  0  0  0  0  0
  160.9100  207.7500  148.6080 C   0  0  0  0  0  3  0  0  0  0  0  0
  160.4770  204.8220  150.8730 C   0  0  1  0  0  3  0  0  0  0  0  0
  161.5350  205.9890  154.0180 C   0  0  1  0  0  3  0  0  0  0  0  0
  162.7750  206.4750  152.2240 C   0  0  0  0  0  2  0  0  0  0  0  0
  160.3090  205.3750  153.3410 C   0  0  0  0  0  2  0  0  0  0  0  0
  162.1420  206.8300  150.9210 C   0  0  0  0  0  0  0  0  0  0  0  0
  162.0310  207.0540  153.2590 O   0  0  0  0  0  0  0  0  0  0  0  0
  162.6130  207.9780  150.2810 C   0  0  0  0  0  3  0  0  0  0  0  0
  160.4540  206.6390  149.2390 N   0  0  0  0  0  0  0  0  0  0  0  0
  160.5300  202.4350  150.0640 C   0  0  0  0  0  3  0  0  0  0  0  0
  160.8300  203.7310  149.9120 C   0  0  0  0  0  0  0  0  0  0  0  0
  161.3590  202.5540  148.0530 C   0  0  0  0  0  0  0  0  0  0  0  0
  161.0170  201.4570  145.4270 Cl  0  0  0  0  0  0  0  0  0  0  0  0
  160.9810  204.0280  146.4310 C   0  0  0  0  0  3  0  0  0  0  0  0
  161.0420  204.7440  147.6780 N   0  0  0  0  0  0  0  0  0  0  0  0
  160.8040  201.7040  148.8540 N   0  0  0  0  0  0  0  0  0  0  0  0
  161.3560  203.8640  148.5680 C   0  0  0  0  0  0  0  0  0  0  0  0
  161.1310  202.7180  146.6360 C   0  0  0  0  0  0  0  0  0  0  0  0
  161.1710  206.4880  155.4070 C   0  0  0  0  0  2  0  0  0  0  0  0
  159.9650  207.4150  155.3290 C   0  0  0  0  0  2  0  0  0  0  0  0
  160.2820  208.7680  155.9470 C   0  0  0  0  0  2  0  0  0  0  0  0
  159.5390  212.1980  154.5020 C   0  0  0  0  0  0  0  0  0  0  0  0
  160.2840  209.6530  153.5960 C   0  0  0  0  0  3  0  0  0  0  0  0
  159.7380  211.9720  153.1350 C   0  0  0  0  0  3  0  0  0  0  0  0
  159.1480  213.5490  154.9860 C   0  0  0  0  0  1  0  0  0  0  0  0
  160.0840  209.8770  154.9650 C   0  0  0  0  0  0  0  0  0  0  0  0
  159.7140  211.1520  155.4160 C   0  0  0  0  0  3  0  0  0  0  0  0
  160.1090  210.7010  152.6820 C   0  0  0  0  0  3  0  0  0  0  0  0
  162.5250  209.6070  148.4630 N   0  0  0  0  0  2  0  0  0  0  0  0
  161.6730  210.5920  147.8140 C   0  0  0  0  0  2  0  0  0  0  0  0
  161.8160  211.9160  148.4820 C   0  0  0  0  0  0  0  0  0  0  0  0
  162.8570  212.6000  148.2890 O   0  0  0  0  0  0  0  0  0  0  0  0
  160.7660  212.4070  149.3280 N   0  0  0  0  0  2  0  0  0  0  0  0
  160.8290  213.6990  149.9920 C   0  0  0  0  0  2  0  0  0  0  0  0
  159.5120  214.4400  149.8160 C   0  0  0  0  0  2  0  0  0  0  0  0
  158.3990  213.5230  149.9930 N   0  0  0  0  0  2  0  0  0  0  0  0
  157.5180  213.6730  148.8410 C   0  0  0  0  0  2  0  0  0  0  0  0
  158.2810  213.5450  147.6130 N   0  0  0  0  0  2  0  0  0  0  0  0
  157.7040  213.9020  146.3540 C   0  0  0  0  0  3  0  0  0  0  0  0
  158.1500  213.3880  145.2070 C   0  0  0  0  0  3  0  0  0  0  0  0
  159.2660  212.3930  145.1510 C   0  0  0  0  0  2  0  0  0  0  0  0
  161.8090  213.0560  145.0130 O   0  0  0  0  0  1  0  0  0  0  0  0
  161.2070  212.8850  143.7620 C   0  0  2  0  0  0  0  0  0  0  0  0
  162.0310  212.3070  142.6310 C   0  0  0  0  0  1  0  0  0  0  0  0
  160.0950  213.7600  143.4400 C   0  0  0  0  0  2  0  0  0  0  0  0
  159.8270  212.3510  143.8040 N   0  0  0  0  0  0  0  0  0  0  0  0
  1  8  1  0  0  0  0
  2 11  1  0  0  0  0
  3  5  1  0  0  0  0
  3  9  1  0  0  0  0
  4  2  2  0  0  0  0
  4 12  1  0  0  0  0
  5 14  1  6  0  0  0
  5  1  1  0  0  0  0
  6 22  1  1  0  0  0
  7 10  1  0  0  0  0
  8  6  1  0  0  0  0
  9  7  1  0  0  0  0
 10  6  1  0  0  0  0
 11  9  2  0  0  0  0
 12  3  2  0  0  0  0
 14 13  1  0  0  0  0
 15 20  1  0  0  0  0
 15 19  1  0  0  0  0
 16 21  1  0  0  0  0
 17 21  1  0  0  0  0
 17 18  2  0  0  0  0
 18 20  1  0  0  0  0
 19 13  2  0  0  0  0
 20 14  2  0  0  0  0
 21 15  2  0  0  0  0
 23 22  1  0  0  0  0
 23 24  1  0  0  0  0
 25 28  1  0  0  0  0
 25 30  1  0  0  0  0
 26 29  1  0  0  0  0
 27 25  2  0  0  0  0
 29 30  2  0  0  0  0
 29 24  1  0  0  0  0
 31 27  1  0  0  0  0
 31 26  2  0  0  0  0
 32  2  1  0  0  0  0
 33 32  1  0  0  0  0
 33 34  1  0  0  0  0
 34 36  1  0  0  0  0
 35 34  2  0  0  0  0
 36 37  1  0  0  0  0
 38 37  1  0  0  0  0
 38 39  1  0  0  0  0
 40 39  1  0  0  0  0
 41 40  1  0  0  0  0
 42 41  1  0  0  0  0
 43 42  2  0  0  0  0
 44 43  1  0  0  0  0
 46 47  1  6  0  0  0
 46 49  1  0  0  0  0
 46 45  1  0  0  0  0
 48 46  1  0  0  0  0
 48 49  1  0  0  0  0
 49 44  1  0  0  0  0
M  END
>  <MODEL>
5

>  <REMARK>
 VINA RESULT:      -5.6      3.802      7.628
  Name = 
  16 active torsions:
  status: ('A' for Active; 'I' for Inactive)
    1  A    between atoms: C_1  and  C_26
    2  A    between atoms: C_1  and  C_41
    3  A    between atoms: C_3  and  N_49
    4  A    between atoms: N_4  and  C_32
    5  A    between atoms: N_4  and  C_47
    6  A    between atoms: C_9  and  C_14
    7  A    between atoms: N_17  and  C_27
    8  A    between atoms: N_17  and  C_47
    9  A    between atoms: C_19  and  C_38
   10  A    between atoms: N_21  and  C_28
   11  A    between atoms: C_22  and  C_42
   12  A    between atoms: C_28  and  C_32
   13  A    between atoms: C_29  and  C_34
   14  A    between atoms: C_29  and  N_45
   15  A    between atoms: C_38  and  N_49
   16  A    between atoms: C_41  and  C_42
                            x       y       z     vdW  Elec       q    Type
                         _______ _______ _______ _____ _____    ______ ____

>  <TORSDO>
F 16

$$$$
=
 OpenBabel11042420333D

 49 54  0  0  1  0  0  0  0  0999 V2000
  161.3290  204.3100  149.0710 C   0  0  0  0  0  2  0  0  0  0  0  0
  161.3770  205.8330  143.9940 C   0  0  0  0  0  0  0  0  0  0  0  0
  160.9890  204.6410  146.4910 C   0  0  0  0  0  0  0  0  0  0  0  0
  160.3610  204.9020  144.2020 C   0  0  0  0  0  3  0  0  0  0  0  0
  160.7590  203.8150  147.7440 C   0  0  1  0  0  3  0  0  0  0  0  0
  161.9760  206.6690  149.4010 C   0  0  1  0  0  3  0  0  0  0  0  0
  162.8700  206.1140  147.4300 C   0  0  0  0  0  2  0  0  0  0  0  0
  160.8080  205.6840  149.4550 C   0  0  0  0  0  2  0  0  0  0  0  0
  162.0230  205.5960  146.3170 C   0  0  0  0  0  0  0  0  0  0  0  0
  162.1710  207.1270  148.0940 O   0  0  0  0  0  0  0  0  0  0  0  0
  162.1930  206.1890  145.0640 C   0  0  0  0  0  3  0  0  0  0  0  0
  160.1990  204.3350  145.4230 N   0  0  0  0  0  0  0  0  0  0  0  0
  161.4380  201.4940  148.4590 C   0  0  0  0  0  3  0  0  0  0  0  0
  161.1810  202.3990  147.5060 C   0  0  0  0  0  0  0  0  0  0  0  0
  161.5180  200.3500  146.6080 C   0  0  0  0  0  0  0  0  0  0  0  0
  160.8290  197.7820  145.5360 Cl  0  0  0  0  0  0  0  0  0  0  0  0
  160.1580  200.3690  144.8480 C   0  0  0  0  0  3  0  0  0  0  0  0
  160.3240  201.7270  145.2980 N   0  0  0  0  0  0  0  0  0  0  0  0
  161.5830  200.1810  147.8880 N   0  0  0  0  0  0  0  0  0  0  0  0
  161.1910  201.6720  146.2530 C   0  0  0  0  0  0  0  0  0  0  0  0
  160.8310  199.5290  145.6370 C   0  0  0  0  0  0  0  0  0  0  0  0
  161.7070  207.8530  150.3150 C   0  0  0  0  0  2  0  0  0  0  0  0
  160.7840  207.4340  151.4520 C   0  0  0  0  0  2  0  0  0  0  0  0
  161.5820  207.1130  152.7060 C   0  0  0  0  0  2  0  0  0  0  0  0
  160.3150  209.7410  155.1330 C   0  0  0  0  0  0  0  0  0  0  0  0
  160.4750  206.9500  154.9550 C   0  0  0  0  0  3  0  0  0  0  0  0
  159.8160  208.9440  156.1700 C   0  0  0  0  0  3  0  0  0  0  0  0
  160.2260  211.2240  155.2230 C   0  0  0  0  0  1  0  0  0  0  0  0
  160.9760  207.7470  153.9170 C   0  0  0  0  0  0  0  0  0  0  0  0
  160.8920  209.1430  154.0080 C   0  0  0  0  0  3  0  0  0  0  0  0
  159.8970  207.5490  156.0820 C   0  0  0  0  0  3  0  0  0  0  0  0
  161.5800  206.4450  142.7140 N   0  0  0  0  0  2  0  0  0  0  0  0
  162.3640  205.8290  141.6540 C   0  0  0  0  0  2  0  0  0  0  0  0
  162.2580  206.6300  140.4030 C   0  0  0  0  0  0  0  0  0  0  0  0
  162.5680  206.1030  139.3000 O   0  0  0  0  0  0  0  0  0  0  0  0
  161.7950  207.9870  140.4590 N   0  0  0  0  0  2  0  0  0  0  0  0
  161.6450  208.8180  139.2750 C   0  0  0  0  0  2  0  0  0  0  0  0
  161.9520  210.2680  139.6150 C   0  0  0  0  0  2  0  0  0  0  0  0
  161.0450  210.7380  140.6490 N   0  0  0  0  0  2  0  0  0  0  0  0
  161.7690  211.7100  141.4590 C   0  0  0  0  0  2  0  0  0  0  0  0
  161.1020  211.8870  142.7360 N   0  0  0  0  0  2  0  0  0  0  0  0
  160.1860  212.9670  142.9380 C   0  0  0  0  0  3  0  0  0  0  0  0
  160.2400  213.7390  144.0250 C   0  0  0  0  0  3  0  0  0  0  0  0
  161.2650  213.5480  145.0970 C   0  0  0  0  0  2  0  0  0  0  0  0
  162.7080  212.5790  147.0730 O   0  0  0  0  0  1  0  0  0  0  0  0
  161.4150  212.9520  147.4560 C   0  0  2  0  0  0  0  0  0  0  0  0
  161.2030  213.5300  148.8390 C   0  0  0  0  0  1  0  0  0  0  0  0
  160.3130  212.2650  146.8090 C   0  0  0  0  0  2  0  0  0  0  0  0
  160.6350  213.6530  146.4100 N   0  0  0  0  0  0  0  0  0  0  0  0
  1  8  1  0  0  0  0
  2  4  2  0  0  0  0
  2 11  1  0  0  0  0
  3  5  1  0  0  0  0
  4 12  1  0  0  0  0
  5 14  1  6  0  0  0
  5  1  1  0  0  0  0
  6  8  1  0  0  0  0
  6 22  1  1  0  0  0
  7 10  1  0  0  0  0
  9  3  1  0  0  0  0
  9  7  1  0  0  0  0
 10  6  1  0  0  0  0
 11  9  2  0  0  0  0
 12  3  2  0  0  0  0
 14 13  2  0  0  0  0
 15 19  2  0  0  0  0
 16 21  1  0  0  0  0
 17 18  1  0  0  0  0
 17 21  2  0  0  0  0
 18 20  2  0  0  0  0
 19 13  1  0  0  0  0
 20 15  1  0  0  0  0
 20 14  1  0  0  0  0
 21 15  1  0  0  0  0
 22 23  1  0  0  0  0
 23 24  1  0  0  0  0
 24 29  1  0  0  0  0
 25 28  1  0  0  0  0
 25 27  1  0  0  0  0
 26 31  1  0  0  0  0
 29 30  1  0  0  0  0
 29 26  2  0  0  0  0
 30 25  2  0  0  0  0
 31 27  2  0  0  0  0
 32  2  1  0  0  0  0
 33 32  1  0  0  0  0
 34 36  1  0  0  0  0
 34 33  1  0  0  0  0
 35 34  2  0  0  0  0
 37 38  1  0  0  0  0
 37 36  1  0  0  0  0
 38 39  1  0  0  0  0
 39 40  1  0  0  0  0
 40 41  1  0  0  0  0
 41 42  1  0  0  0  0
 42 43  2  0  0  0  0
 43 44  1  0  0  0  0
 44 49  1  0  0  0  0
 45 46  1  0  0  0  0
 46 47  1  1  0  0  0
 48 46  1  0  0  0  0
 49 48  1  0  0  0  0
 49 46  1  0  0  0  0
M  END
>  <MODEL>
6

>  <REMARK>
 VINA RESULT:      -5.3      3.915      8.962
  Name = 
  16 active torsions:
  status: ('A' for Active; 'I' for Inactive)
    1  A    between atoms: C_1  and  C_26
    2  A    between atoms: C_1  and  C_41
    3  A    between atoms: C_3  and  N_49
    4  A    between atoms: N_4  and  C_32
    5  A    between atoms: N_4  and  C_47
    6  A    between atoms: C_9  and  C_14
    7  A    between atoms: N_17  and  C_27
    8  A    between atoms: N_17  and  C_47
    9  A    between atoms: C_19  and  C_38
   10  A    between atoms: N_21  and  C_28
   11  A    between atoms: C_22  and  C_42
   12  A    between atoms: C_28  and  C_32
   13  A    between atoms: C_29  and  C_34
   14  A    between atoms: C_29  and  N_45
   15  A    between atoms: C_38  and  N_49
   16  A    between atoms: C_41  and  C_42
                            x       y       z     vdW  Elec       q    Type
                         _______ _______ _______ _____ _____    ______ ____

>  <TORSDO>
F 16

$$$$
=
 OpenBabel11042420333D

 49 54  0  0  1  0  0  0  0  0999 V2000
  160.8640  204.5050  151.6280 C   0  0  0  0  0  2  0  0  0  0  0  0
  162.0690  208.9420  148.9910 C   0  0  0  0  0  0  0  0  0  0  0  0
  161.0690  206.5210  149.9620 C   0  0  0  0  0  0  0  0  0  0  0  0
  160.9300  208.3570  148.4420 C   0  0  0  0  0  3  0  0  0  0  0  0
  160.5070  205.1490  150.2910 C   0  0  1  0  0  3  0  0  0  0  0  0
  161.7090  205.8400  153.5230 C   0  0  1  0  0  3  0  0  0  0  0  0
  162.8940  206.5490  151.7670 C   0  0  0  0  0  2  0  0  0  0  0  0
  160.4440  205.3510  152.8170 C   0  0  0  0  0  2  0  0  0  0  0  0
  162.2230  207.0970  150.5530 C   0  0  0  0  0  0  0  0  0  0  0  0
  162.2040  206.9910  152.9010 O   0  0  0  0  0  0  0  0  0  0  0  0
  162.6990  208.3130  150.0610 C   0  0  0  0  0  3  0  0  0  0  0  0
  160.4700  207.1780  148.9290 N   0  0  0  0  0  0  0  0  0  0  0  0
  161.7180  204.3780  148.2180 C   0  0  0  0  0  3  0  0  0  0  0  0
  160.7970  204.1980  149.1740 C   0  0  0  0  0  0  0  0  0  0  0  0
  161.0080  202.3450  147.8900 C   0  0  0  0  0  0  0  0  0  0  0  0
  161.9450  199.7470  147.1250 Cl  0  0  0  0  0  0  0  0  0  0  0  0
  160.6190  200.7090  149.3460 C   0  0  0  0  0  3  0  0  0  0  0  0
  160.1590  201.9420  149.9290 N   0  0  0  0  0  0  0  0  0  0  0  0
  161.8970  203.1740  147.4500 N   0  0  0  0  0  0  0  0  0  0  0  0
  160.3180  202.8390  149.0140 C   0  0  0  0  0  0  0  0  0  0  0  0
  161.1610  200.9310  148.1470 C   0  0  0  0  0  0  0  0  0  0  0  0
  161.4100  206.1450  154.9820 C   0  0  0  0  0  2  0  0  0  0  0  0
  160.1530  207.0000  155.0880 C   0  0  0  0  0  2  0  0  0  0  0  0
  160.4470  208.3040  155.8150 C   0  0  0  0  0  2  0  0  0  0  0  0
  160.1980  210.8660  153.0260 C   0  0  0  0  0  0  0  0  0  0  0  0
  158.9720  210.3090  155.4830 C   0  0  0  0  0  3  0  0  0  0  0  0
  159.1660  211.6870  153.4950 C   0  0  0  0  0  3  0  0  0  0  0  0
  160.8480  211.1570  151.7200 C   0  0  0  0  0  1  0  0  0  0  0  0
  160.0060  209.4870  155.0150 C   0  0  0  0  0  0  0  0  0  0  0  0
  160.6160  209.7660  153.7850 C   0  0  0  0  0  3  0  0  0  0  0  0
  158.5540  211.4100  154.7230 C   0  0  0  0  0  3  0  0  0  0  0  0
  162.5860  210.1830  148.4950 N   0  0  0  0  0  2  0  0  0  0  0  0
  161.8840  211.0020  147.5170 C   0  0  0  0  0  2  0  0  0  0  0  0
  161.5590  212.3340  148.1000 C   0  0  0  0  0  0  0  0  0  0  0  0
  162.4690  213.2000  148.2160 O   0  0  0  0  0  0  0  0  0  0  0  0
  160.2170  212.6270  148.5120 N   0  0  0  0  0  2  0  0  0  0  0  0
  159.8250  213.9130  149.0670 C   0  0  0  0  0  2  0  0  0  0  0  0
  158.6130  214.4530  148.3240 C   0  0  0  0  0  2  0  0  0  0  0  0
  157.7600  213.3560  147.9010 N   0  0  0  0  0  2  0  0  0  0  0  0
  157.4610  213.5510  146.4880 C   0  0  0  0  0  2  0  0  0  0  0  0
  158.6940  213.7070  145.7360 N   0  0  0  0  0  2  0  0  0  0  0  0
  158.6660  214.0910  144.3590 C   0  0  0  0  0  3  0  0  0  0  0  0
  159.3310  213.4060  143.4270 C   0  0  0  0  0  3  0  0  0  0  0  0
  160.1340  212.1840  143.7450 C   0  0  0  0  0  2  0  0  0  0  0  0
  162.2800  213.0600  142.4970 O   0  0  0  0  0  1  0  0  0  0  0  0
  161.5670  212.0980  141.7750 C   0  0  2  0  0  0  0  0  0  0  0  0
  162.3340  211.1190  140.9110 C   0  0  0  0  0  1  0  0  0  0  0  0
  160.1990  212.4230  141.4160 C   0  0  0  0  0  2  0  0  0  0  0  0
  160.4520  211.4650  142.5140 N   0  0  0  0  0  0  0  0  0  0  0  0
  1  8  1  0  0  0  0
  2 11  1  0  0  0  0
  3  5  1  0  0  0  0
  3  9  1  0  0  0  0
  4 12  1  0  0  0  0
  4  2  2  0  0  0  0
  5 14  1  6  0  0  0
  5  1  1  0  0  0  0
  6 22  1  1  0  0  0
  7 10  1  0  0  0  0
  8  6  1  0  0  0  0
  9  7  1  0  0  0  0
 10  6  1  0  0  0  0
 11  9  2  0  0  0  0
 12  3  2  0  0  0  0
 13 14  1  0  0  0  0
 15 21  2  0  0  0  0
 15 20  1  0  0  0  0
 16 21  1  0  0  0  0
 17 18  2  0  0  0  0
 19 15  1  0  0  0  0
 19 13  2  0  0  0  0
 20 14  2  0  0  0  0
 20 18  1  0  0  0  0
 21 17  1  0  0  0  0
 22 23  1  0  0  0  0
 23 24  1  0  0  0  0
 25 27  2  0  0  0  0
 25 30  1  0  0  0  0
 27 31  1  0  0  0  0
 28 25  1  0  0  0  0
 29 26  1  0  0  0  0
 29 24  1  0  0  0  0
 30 29  2  0  0  0  0
 31 26  2  0  0  0  0
 32  2  1  0  0  0  0
 33 34  1  0  0  0  0
 33 32  1  0  0  0  0
 34 35  2  0  0  0  0
 34 36  1  0  0  0  0
 36 37  1  0  0  0  0
 38 37  1  0  0  0  0
 39 38  1  0  0  0  0
 40 39  1  0  0  0  0
 41 40  1  0  0  0  0
 42 41  1  0  0  0  0
 43 44  1  0  0  0  0
 43 42  2  0  0  0  0
 46 47  1  6  0  0  0
 46 45  1  0  0  0  0
 46 49  1  0  0  0  0
 48 46  1  0  0  0  0
 48 49  1  0  0  0  0
 49 44  1  0  0  0  0
M  END
>  <MODEL>
7

>  <REMARK>
 VINA RESULT:      -5.1      3.517      7.210
  Name = 
  16 active torsions:
  status: ('A' for Active; 'I' for Inactive)
    1  A    between atoms: C_1  and  C_26
    2  A    between atoms: C_1  and  C_41
    3  A    between atoms: C_3  and  N_49
    4  A    between atoms: N_4  and  C_32
    5  A    between atoms: N_4  and  C_47
    6  A    between atoms: C_9  and  C_14
    7  A    between atoms: N_17  and  C_27
    8  A    between atoms: N_17  and  C_47
    9  A    between atoms: C_19  and  C_38
   10  A    between atoms: N_21  and  C_28
   11  A    between atoms: C_22  and  C_42
   12  A    between atoms: C_28  and  C_32
   13  A    between atoms: C_29  and  C_34
   14  A    between atoms: C_29  and  N_45
   15  A    between atoms: C_38  and  N_49
   16  A    between atoms: C_41  and  C_42
                            x       y       z     vdW  Elec       q    Type
                         _______ _______ _______ _____ _____    ______ ____

>  <TORSDO>
F 16

$$$$
=
 OpenBabel11042420333D

 49 54  0  0  1  0  0  0  0  0999 V2000
  162.1040  210.7140  148.3790 C   0  0  0  0  0  2  0  0  0  0  0  0
  160.8490  211.4390  153.4780 C   0  0  0  0  0  0  0  0  0  0  0  0
  161.8290  210.6390  150.9870 C   0  0  0  0  0  0  0  0  0  0  0  0
  161.9030  210.5350  153.3710 C   0  0  0  0  0  3  0  0  0  0  0  0
  162.3600  210.0110  149.7100 C   0  0  1  0  0  3  0  0  0  0  0  0
  161.5020  213.1050  148.2730 C   0  0  1  0  0  3  0  0  0  0  0  0
  160.1870  212.2680  149.8730 C   0  0  0  0  0  2  0  0  0  0  0  0
  162.6720  212.1220  148.3420 C   0  0  0  0  0  2  0  0  0  0  0  0
  160.7630  211.5720  151.0600 C   0  0  0  0  0  0  0  0  0  0  0  0
  161.0010  213.3600  149.5540 O   0  0  0  0  0  0  0  0  0  0  0  0
  160.2960  211.9680  152.3150 C   0  0  0  0  0  3  0  0  0  0  0  0
  162.3560  210.1600  152.1500 N   0  0  0  0  0  0  0  0  0  0  0  0
  160.8390  208.0640  150.2150 C   0  0  0  0  0  3  0  0  0  0  0  0
  161.9240  208.5830  149.6240 C   0  0  0  0  0  0  0  0  0  0  0  0
  161.5800  206.4470  148.9580 C   0  0  0  0  0  0  0  0  0  0  0  0
  160.6520  204.3120  147.2870 Cl  0  0  0  0  0  0  0  0  0  0  0  0
  162.3030  206.4810  146.8550 C   0  0  0  0  0  3  0  0  0  0  0  0
  162.7970  207.6620  147.5140 N   0  0  0  0  0  0  0  0  0  0  0  0
  160.5870  206.7310  149.7350 N   0  0  0  0  0  0  0  0  0  0  0  0
  162.4330  207.5480  148.7470 C   0  0  0  0  0  0  0  0  0  0  0  0
  161.5460  205.7620  147.6860 C   0  0  0  0  0  0  0  0  0  0  0  0
  161.9520  214.4110  147.6390 C   0  0  0  0  0  2  0  0  0  0  0  0
  161.7460  214.3560  146.1310 C   0  0  0  0  0  2  0  0  0  0  0  0
  160.3910  213.7530  145.7930 C   0  0  0  0  0  2  0  0  0  0  0  0
  161.1660  212.5790  142.2680 C   0  0  0  0  0  0  0  0  0  0  0  0
  159.1010  213.8810  143.6420 C   0  0  0  0  0  3  0  0  0  0  0  0
  160.0090  212.9700  141.5850 C   0  0  0  0  0  3  0  0  0  0  0  0
  162.2620  211.8820  141.5420 C   0  0  0  0  0  1  0  0  0  0  0  0
  160.2590  213.4910  144.3270 C   0  0  0  0  0  0  0  0  0  0  0  0
  161.2890  212.8370  143.6380 C   0  0  0  0  0  3  0  0  0  0  0  0
  158.9770  213.6220  142.2700 C   0  0  0  0  0  3  0  0  0  0  0  0
  160.3410  211.8500  154.7540 N   0  0  0  0  0  2  0  0  0  0  0  0
  158.9870  211.5620  155.2010 C   0  0  0  0  0  2  0  0  0  0  0  0
  158.9090  210.1800  155.7520 C   0  0  0  0  0  0  0  0  0  0  0  0
  157.7870  209.6990  156.0670 O   0  0  0  0  0  0  0  0  0  0  0  0
  160.1060  209.4040  155.9090 N   0  0  0  0  0  2  0  0  0  0  0  0
  160.1010  208.0420  156.4180 C   0  0  0  0  0  2  0  0  0  0  0  0
  161.0380  207.1740  155.5940 C   0  0  0  0  0  2  0  0  0  0  0  0
  160.3960  206.7950  154.3470 N   0  0  0  0  0  2  0  0  0  0  0  0
  161.4410  206.6540  153.3400 C   0  0  0  0  0  2  0  0  0  0  0  0
  161.1350  205.5410  152.4590 N   0  0  0  0  0  2  0  0  0  0  0  0
  161.1940  204.1940  152.9380 C   0  0  0  0  0  3  0  0  0  0  0  0
  161.0180  203.1520  152.1230 C   0  0  0  0  0  3  0  0  0  0  0  0
  160.7670  203.3100  150.6570 C   0  0  0  0  0  2  0  0  0  0  0  0
  159.2790  201.7190  149.1810 O   0  0  0  0  0  1  0  0  0  0  0  0
  160.6250  201.3390  149.2310 C   0  0  2  0  0  0  0  0  0  0  0  0
  161.2530  200.7200  148.0000 C   0  0  0  0  0  1  0  0  0  0  0  0
  161.1670  201.0060  150.5340 C   0  0  0  0  0  2  0  0  0  0  0  0
  161.5170  202.3020  149.9130 N   0  0  0  0  0  0  0  0  0  0  0  0
  1  5  1  0  0  0  0
  2 32  1  0  0  0  0
  3  9  2  0  0  0  0
  3 12  1  0  0  0  0
  4  2  1  0  0  0  0
  5 14  1  6  0  0  0
  5  3  1  0  0  0  0
  6 22  1  1  0  0  0
  6  8  1  0  0  0  0
  6 10  1  0  0  0  0
  7  9  1  0  0  0  0
  8  1  1  0  0  0  0
  9 11  1  0  0  0  0
 10  7  1  0  0  0  0
 11  2  2  0  0  0  0
 12  4  2  0  0  0  0
 14 13  2  0  0  0  0
 15 19  2  0  0  0  0
 16 21  1  0  0  0  0
 17 18  1  0  0  0  0
 17 21  2  0  0  0  0
 18 20  2  0  0  0  0
 19 13  1  0  0  0  0
 20 15  1  0  0  0  0
 20 14  1  0  0  0  0
 21 15  1  0  0  0  0
 23 22  1  0  0  0  0
 24 23  1  0  0  0  0
 25 30  1  0  0  0  0
 26 29  1  0  0  0  0
 27 25  2  0  0  0  0
 27 31  1  0  0  0  0
 28 25  1  0  0  0  0
 29 24  1  0  0  0  0
 30 29  2  0  0  0  0
 31 26  2  0  0  0  0
 32 33  1  0  0  0  0
 33 34  1  0  0  0  0
 34 36  1  0  0  0  0
 34 35  2  0  0  0  0
 36 37  1  0  0  0  0
 38 37  1  0  0  0  0
 39 38  1  0  0  0  0
 40 39  1  0  0  0  0
 41 42  1  0  0  0  0
 41 40  1  0  0  0  0
 43 42  2  0  0  0  0
 44 43  1  0  0  0  0
 45 46  1  0  0  0  0
 46 47  1  6  0  0  0
 46 49  1  0  0  0  0
 46 48  1  0  0  0  0
 49 48  1  0  0  0  0
 49 44  1  0  0  0  0
M  END
>  <MODEL>
8

>  <REMARK>
 VINA RESULT:      -5.1      4.012     10.120
  Name = 
  16 active torsions:
  status: ('A' for Active; 'I' for Inactive)
    1  A    between atoms: C_1  and  C_26
    2  A    between atoms: C_1  and  C_41
    3  A    between atoms: C_3  and  N_49
    4  A    between atoms: N_4  and  C_32
    5  A    between atoms: N_4  and  C_47
    6  A    between atoms: C_9  and  C_14
    7  A    between atoms: N_17  and  C_27
    8  A    between atoms: N_17  and  C_47
    9  A    between atoms: C_19  and  C_38
   10  A    between atoms: N_21  and  C_28
   11  A    between atoms: C_22  and  C_42
   12  A    between atoms: C_28  and  C_32
   13  A    between atoms: C_29  and  C_34
   14  A    between atoms: C_29  and  N_45
   15  A    between atoms: C_38  and  N_49
   16  A    between atoms: C_41  and  C_42
                            x       y       z     vdW  Elec       q    Type
                         _______ _______ _______ _____ _____    ______ ____

>  <TORSDO>
F 16

$$$$
