=
 OpenBabel11042420083D

 30 36  0  0  1  0  0  0  0  0999 V2000
  162.3890  209.8320  155.6150 C   0  0  0  0  0  3  0  0  0  0  0  0
  161.4820  208.6840  151.6340 C   0  0  0  0  0  0  0  0  0  0  0  0
  160.6870  206.7720  152.8570 C   0  0  0  0  0  0  0  0  0  0  0  0
  161.4630  205.7450  149.4230 C   0  0  0  0  0  0  0  0  0  0  0  0
  162.6570  210.7020  154.3710 C   0  0  0  0  0  3  0  0  0  0  0  0
  162.1660  209.9690  151.9380 C   0  0  1  0  0  3  0  0  0  0  0  0
  162.1860  207.6560  148.1680 N   0  0  0  0  0  0  0  0  0  0  0  0
  161.9640  208.5010  149.2110 C   0  0  0  0  0  0  0  0  0  0  0  0
  161.5550  207.9490  150.4520 C   0  0  0  0  0  0  0  0  0  0  0  0
  161.3900  208.7350  155.2200 C   0  0  0  0  0  2  0  0  0  0  0  0
  161.0290  208.1250  152.8080 C   0  0  0  0  0  0  0  0  0  0  0  0
  161.6670  211.0640  151.0720 C   0  0  0  0  0  3  0  0  0  0  0  0
  161.9680  206.3170  148.2400 C   0  0  0  0  0  0  0  0  0  0  0  0
  161.9420  204.1430  147.2030 C   0  0  0  0  0  3  0  0  0  0  0  0
  162.2050  205.5110  147.1250 C   0  0  0  0  0  3  0  0  0  0  0  0
  160.2900  206.2350  153.9250 O   0  0  0  0  0  0  0  0  0  0  0  0
  161.2140  204.3660  149.4540 C   0  0  0  0  0  3  0  0  0  0  0  0
  161.7910  210.1840  153.3320 N   0  0  0  0  0  0  0  0  0  0  0  0
  161.4550  203.6030  148.3530 N   0  0  0  0  0  0  0  0  0  0  0  0
  160.8150  206.0270  151.7240 N   0  0  0  0  0  2  0  0  0  0  0  0
  161.6500  211.0170  149.7350 C   0  0  0  0  0  0  0  0  0  0  0  0
  162.0150  209.8170  148.9290 C   0  0  0  0  0  2  0  0  0  0  0  0
  161.2530  206.5630  150.5410 C   0  0  0  0  0  0  0  0  0  0  0  0
  161.1820  209.0030  153.7850 C   0  0  2  0  0  3  0  0  0  0  0  0
  160.8160  213.2460  149.6300 O   0  0  0  0  0  0  0  0  0  0  0  0
  161.2420  212.2380  149.0020 C   0  0  0  0  0  0  0  0  0  0  0  0
  161.3470  212.3160  147.5140 C   0  0  0  0  0  2  0  0  0  0  0  0
  162.3830  214.2660  146.7230 O   0  0  0  0  0  0  0  0  0  0  0  0
  162.6460  212.9920  147.1150 C   0  0  2  0  0  3  0  0  0  0  0  0
  162.6060  213.3390  145.7180 N   0  0  0  0  0  2  0  0  0  0  0  0
  2  6  1  0  0  0  0
  2 11  2  0  0  0  0
  3 16  2  0  0  0  0
  4 17  1  0  0  0  0
  4 23  2  0  0  0  0
  5  1  2  0  0  0  0
  6 12  1  6  0  0  0
  6 18  1  0  0  0  0
  7 13  2  0  0  0  0
  7  8  1  0  0  0  0
  8  9  2  0  0  0  0
  9 23  1  0  0  0  0
  9  2  1  0  0  0  0
 10  1  1  0  0  0  0
 11  3  1  0  0  0  0
 11 24  1  0  0  0  0
 13  4  1  0  0  0  0
 14 19  1  0  0  0  0
 15 14  2  0  0  0  0
 15 13  1  0  0  0  0
 18 24  1  0  0  0  0
 18  5  1  0  0  0  0
 19 17  2  0  0  0  0
 20  3  1  0  0  0  0
 21 12  2  0  0  0  0
 22  8  1  0  0  0  0
 22 21  1  0  0  0  0
 23 20  1  0  0  0  0
 24 10  1  1  0  0  0
 26 25  2  0  0  0  0
 26 21  1  0  0  0  0
 27 26  1  0  0  0  0
 28 29  1  0  0  0  0
 29 27  1  6  0  0  0
 30 28  1  0  0  0  0
 30 29  1  0  0  0  0
M  END
>  <MODEL>
1

>  <REMARK>
 VINA RESULT:      -7.6      0.000      0.000
  Name = 
  3 active torsions:
  status: ('A' for Active; 'I' for Inactive)
    1  A    between atoms: C_7  and  C_13
    2  A    between atoms: C_7  and  C_23
    3  A    between atoms: C_23  and  C_26
                            x       y       z     vdW  Elec       q    Type
                         _______ _______ _______ _____ _____    ______ ____

>  <TORSDO>
F 3

$$$$
=
 OpenBabel11042420083D

 30 36  0  0  1  0  0  0  0  0999 V2000
  162.7100  213.9970  147.9040 C   0  0  0  0  0  3  0  0  0  0  0  0
  161.2080  211.0040  150.5070 C   0  0  0  0  0  0  0  0  0  0  0  0
  160.0840  212.9540  151.3500 C   0  0  0  0  0  0  0  0  0  0  0  0
  160.2850  210.4510  154.0230 C   0  0  0  0  0  0  0  0  0  0  0  0
  163.0720  212.5010  147.8170 C   0  0  0  0  0  3  0  0  0  0  0  0
  162.2080  210.6890  149.4510 C   0  0  1  0  0  3  0  0  0  0  0  0
  161.3380  208.4690  153.1770 N   0  0  0  0  0  0  0  0  0  0  0  0
  161.4190  208.9780  151.9170 C   0  0  0  0  0  0  0  0  0  0  0  0
  160.9990  210.3150  151.7000 C   0  0  0  0  0  0  0  0  0  0  0  0
  161.4450  214.1290  148.7630 C   0  0  0  0  0  2  0  0  0  0  0  0
  160.7380  212.2830  150.3160 C   0  0  0  0  0  0  0  0  0  0  0  0
  161.9160  209.3870  148.8020 C   0  0  0  0  0  3  0  0  0  0  0  0
  160.8090  209.1590  154.2210 C   0  0  0  0  0  0  0  0  0  0  0  0
  160.1660  209.2770  156.5390 C   0  0  0  0  0  3  0  0  0  0  0  0
  160.7450  208.5700  155.4840 C   0  0  0  0  0  3  0  0  0  0  0  0
  159.6630  214.1320  151.2050 O   0  0  0  0  0  0  0  0  0  0  0  0
  159.7130  211.1220  155.1120 C   0  0  0  0  0  3  0  0  0  0  0  0
  162.0190  211.7970  148.5210 N   0  0  0  0  0  0  0  0  0  0  0  0
  159.6650  210.5250  156.3340 N   0  0  0  0  0  0  0  0  0  0  0  0
  159.9280  212.3160  152.5440 N   0  0  0  0  0  2  0  0  0  0  0  0
  161.7720  208.2330  149.4630 C   0  0  0  0  0  0  0  0  0  0  0  0
  161.7630  208.1080  150.9480 C   0  0  0  0  0  2  0  0  0  0  0  0
  160.3780  211.0380  152.7550 C   0  0  0  0  0  0  0  0  0  0  0  0
  161.1840  212.7320  149.1540 C   0  0  2  0  0  3  0  0  0  0  0  0
  162.2630  206.8300  147.6010 O   0  0  0  0  0  0  0  0  0  0  0  0
  161.6100  206.9940  148.6680 C   0  0  0  0  0  0  0  0  0  0  0  0
  160.6930  205.9030  149.1170 C   0  0  0  0  0  2  0  0  0  0  0  0
  161.1030  203.7050  148.4110 O   0  0  0  0  0  0  0  0  0  0  0  0
  161.4740  204.6220  149.3430 C   0  0  2  0  0  3  0  0  0  0  0  0
  160.5700  203.5530  149.6810 N   0  0  0  0  0  2  0  0  0  0  0  0
  1 10  1  0  0  0  0
  2  9  1  0  0  0  0
  3 20  1  0  0  0  0
  4 13  2  0  0  0  0
  4 17  1  0  0  0  0
  5  1  2  0  0  0  0
  5 18  1  0  0  0  0
  6 12  1  6  0  0  0
  6  2  1  0  0  0  0
  7 13  1  0  0  0  0
  8  7  2  0  0  0  0
  9  8  1  0  0  0  0
  9 23  2  0  0  0  0
 11  2  2  0  0  0  0
 11  3  1  0  0  0  0
 12 21  2  0  0  0  0
 13 15  1  0  0  0  0
 15 14  2  0  0  0  0
 16  3  2  0  0  0  0
 17 19  2  0  0  0  0
 18 24  1  0  0  0  0
 18  6  1  0  0  0  0
 19 14  1  0  0  0  0
 20 23  1  0  0  0  0
 21 22  1  0  0  0  0
 22  8  1  0  0  0  0
 23  4  1  0  0  0  0
 24 10  1  1  0  0  0
 24 11  1  0  0  0  0
 25 26  2  0  0  0  0
 26 27  1  0  0  0  0
 26 21  1  0  0  0  0
 28 29  1  0  0  0  0
 28 30  1  0  0  0  0
 29 27  1  6  0  0  0
 29 30  1  0  0  0  0
M  END
>  <MODEL>
2

>  <REMARK>
 VINA RESULT:      -7.5      2.343      6.939
  Name = 
  3 active torsions:
  status: ('A' for Active; 'I' for Inactive)
    1  A    between atoms: C_7  and  C_13
    2  A    between atoms: C_7  and  C_23
    3  A    between atoms: C_23  and  C_26
                            x       y       z     vdW  Elec       q    Type
                         _______ _______ _______ _____ _____    ______ ____

>  <TORSDO>
F 3

$$$$
=
 OpenBabel11042420083D

 30 36  0  0  1  0  0  0  0  0999 V2000
  162.7460  213.8070  147.8860 C   0  0  0  0  0  3  0  0  0  0  0  0
  161.2180  210.8820  150.5510 C   0  0  0  0  0  0  0  0  0  0  0  0
  160.0760  212.8510  151.3240 C   0  0  0  0  0  0  0  0  0  0  0  0
  160.2480  210.4240  154.0690 C   0  0  0  0  0  0  0  0  0  0  0  0
  163.1140  212.3110  147.8460 C   0  0  0  0  0  3  0  0  0  0  0  0
  162.2330  210.5420  149.5180 C   0  0  1  0  0  3  0  0  0  0  0  0
  161.3200  208.4240  153.2930 N   0  0  0  0  0  0  0  0  0  0  0  0
  161.4160  208.8970  152.0200 C   0  0  0  0  0  0  0  0  0  0  0  0
  160.9950  210.2260  151.7600 C   0  0  0  0  0  0  0  0  0  0  0  0
  161.4680  213.9590  148.7240 C   0  0  0  0  0  2  0  0  0  0  0  0
  160.7470  212.1530  150.3180 C   0  0  0  0  0  0  0  0  0  0  0  0
  161.9550  209.2220  148.9020 C   0  0  0  0  0  3  0  0  0  0  0  0
  160.7740  209.1400  154.3100 C   0  0  0  0  0  0  0  0  0  0  0  0
  160.0980  209.3200  156.6150 C   0  0  0  0  0  3  0  0  0  0  0  0
  160.6950  208.5870  155.5880 C   0  0  0  0  0  3  0  0  0  0  0  0
  159.6530  214.0230  151.1400 O   0  0  0  0  0  0  0  0  0  0  0  0
  159.6590  211.1230  155.1310 C   0  0  0  0  0  3  0  0  0  0  0  0
  162.0530  211.6230  148.5550 N   0  0  0  0  0  0  0  0  0  0  0  0
  159.5960  210.5600  156.3680 N   0  0  0  0  0  0  0  0  0  0  0  0
  159.9060  212.2460  152.5330 N   0  0  0  0  0  2  0  0  0  0  0  0
  161.8060  208.0860  149.5930 C   0  0  0  0  0  0  0  0  0  0  0  0
  161.7770  208.0020  151.0810 C   0  0  0  0  0  2  0  0  0  0  0  0
  160.3570  210.9760  152.7860 C   0  0  0  0  0  0  0  0  0  0  0  0
  161.2070  212.5720  149.1510 C   0  0  2  0  0  3  0  0  0  0  0  0
  160.9410  205.8880  149.2770 O   0  0  0  0  0  0  0  0  0  0  0  0
  161.6590  206.8240  148.8310 C   0  0  0  0  0  0  0  0  0  0  0  0
  162.3340  206.6380  147.5100 C   0  0  0  0  0  2  0  0  0  0  0  0
  163.0240  204.8740  146.1280 O   0  0  0  0  0  0  0  0  0  0  0  0
  162.0130  205.2660  146.9470 C   0  0  2  0  0  3  0  0  0  0  0  0
  161.8740  205.3470  145.5160 N   0  0  0  0  0  2  0  0  0  0  0  0
  1 10  1  0  0  0  0
  2  9  1  0  0  0  0
  3 20  1  0  0  0  0
  4 13  2  0  0  0  0
  4 17  1  0  0  0  0
  5  1  2  0  0  0  0
  5 18  1  0  0  0  0
  6 12  1  6  0  0  0
  6  2  1  0  0  0  0
  7 13  1  0  0  0  0
  8  7  2  0  0  0  0
  9  8  1  0  0  0  0
  9 23  2  0  0  0  0
 11  2  2  0  0  0  0
 11  3  1  0  0  0  0
 12 21  2  0  0  0  0
 13 15  1  0  0  0  0
 15 14  2  0  0  0  0
 16  3  2  0  0  0  0
 17 19  2  0  0  0  0
 18 24  1  0  0  0  0
 18  6  1  0  0  0  0
 19 14  1  0  0  0  0
 20 23  1  0  0  0  0
 21 22  1  0  0  0  0
 22  8  1  0  0  0  0
 23  4  1  0  0  0  0
 24 10  1  1  0  0  0
 24 11  1  0  0  0  0
 26 25  2  0  0  0  0
 26 21  1  0  0  0  0
 27 26  1  0  0  0  0
 28 29  1  0  0  0  0
 29 27  1  1  0  0  0
 30 28  1  0  0  0  0
 30 29  1  0  0  0  0
M  END
>  <MODEL>
3

>  <REMARK>
 VINA RESULT:      -7.3      2.486      6.700
  Name = 
  3 active torsions:
  status: ('A' for Active; 'I' for Inactive)
    1  A    between atoms: C_7  and  C_13
    2  A    between atoms: C_7  and  C_23
    3  A    between atoms: C_23  and  C_26
                            x       y       z     vdW  Elec       q    Type
                         _______ _______ _______ _____ _____    ______ ____

>  <TORSDO>
F 3

$$$$
=
 OpenBabel11042420083D

 30 36  0  0  1  0  0  0  0  0999 V2000
  159.7710  213.4430  151.0090 C   0  0  0  0  0  3  0  0  0  0  0  0
  161.1440  209.4320  151.1430 C   0  0  0  0  0  0  0  0  0  0  0  0
  162.0340  210.1540  149.0290 C   0  0  0  0  0  0  0  0  0  0  0  0
  161.6800  206.5040  148.9840 C   0  0  0  0  0  0  0  0  0  0  0  0
  159.5180  212.4710  152.1790 C   0  0  0  0  0  3  0  0  0  0  0  0
  160.2980  210.0030  152.2250 C   0  0  1  0  0  3  0  0  0  0  0  0
  160.8630  205.7590  151.1120 N   0  0  0  0  0  0  0  0  0  0  0  0
  160.8990  207.0170  151.6330 C   0  0  0  0  0  0  0  0  0  0  0  0
  161.2550  208.0920  150.7800 C   0  0  0  0  0  0  0  0  0  0  0  0
  160.9150  212.8740  150.1590 C   0  0  0  0  0  2  0  0  0  0  0  0
  161.5500  210.4460  150.3060 C   0  0  0  0  0  0  0  0  0  0  0  0
  160.7470  209.5420  153.5610 C   0  0  0  0  0  3  0  0  0  0  0  0
  161.2200  205.4780  149.8320 C   0  0  0  0  0  0  0  0  0  0  0  0
  161.5760  203.8840  148.0620 C   0  0  0  0  0  3  0  0  0  0  0  0
  161.1720  204.1630  149.3680 C   0  0  0  0  0  3  0  0  0  0  0  0
  162.3930  211.0660  148.2390 O   0  0  0  0  0  0  0  0  0  0  0  0
  162.0750  206.1750  147.6800 C   0  0  0  0  0  3  0  0  0  0  0  0
  160.5240  211.4350  152.0560 N   0  0  0  0  0  0  0  0  0  0  0  0
  162.0170  204.8850  147.2520 N   0  0  0  0  0  0  0  0  0  0  0  0
  162.0880  208.8500  148.6360 N   0  0  0  0  0  2  0  0  0  0  0  0
  160.8860  208.2560  153.9050 C   0  0  0  0  0  0  0  0  0  0  0  0
  160.7270  207.1110  152.9650 C   0  0  0  0  0  2  0  0  0  0  0  0
  161.6990  207.8220  149.4560 C   0  0  0  0  0  0  0  0  0  0  0  0
  161.2170  211.6060  150.8470 C   0  0  2  0  0  3  0  0  0  0  0  0
  160.9040  206.8350  155.8170 O   0  0  0  0  0  0  0  0  0  0  0  0
  161.2190  207.9480  155.3150 C   0  0  0  0  0  0  0  0  0  0  0  0
  161.9550  208.9320  156.1670 C   0  0  0  0  0  2  0  0  0  0  0  0
  159.9450  210.0200  156.6900 O   0  0  0  0  0  0  0  0  0  0  0  0
  161.0450  209.4620  157.2590 C   0  0  2  0  0  3  0  0  0  0  0  0
  160.9230  210.8920  157.1410 N   0  0  0  0  0  2  0  0  0  0  0  0
  1  5  2  0  0  0  0
  2  6  1  0  0  0  0
  3 11  1  0  0  0  0
  4 23  2  0  0  0  0
  4 13  1  0  0  0  0
  6 12  1  1  0  0  0
  7  8  1  0  0  0  0
  8 22  1  0  0  0  0
  9  2  1  0  0  0  0
  9  8  2  0  0  0  0
 10  1  1  0  0  0  0
 11 24  1  0  0  0  0
 11  2  2  0  0  0  0
 12 21  2  0  0  0  0
 13  7  2  0  0  0  0
 14 15  2  0  0  0  0
 15 13  1  0  0  0  0
 16  3  2  0  0  0  0
 17  4  1  0  0  0  0
 18  5  1  0  0  0  0
 18  6  1  0  0  0  0
 19 17  2  0  0  0  0
 19 14  1  0  0  0  0
 20  3  1  0  0  0  0
 20 23  1  0  0  0  0
 21 26  1  0  0  0  0
 22 21  1  0  0  0  0
 23  9  1  0  0  0  0
 24 10  1  6  0  0  0
 24 18  1  0  0  0  0
 26 25  2  0  0  0  0
 26 27  1  0  0  0  0
 28 30  1  0  0  0  0
 28 29  1  0  0  0  0
 29 27  1  6  0  0  0
 30 29  1  0  0  0  0
M  END
>  <MODEL>
4

>  <REMARK>
 VINA RESULT:      -7.2      1.869      5.660
  Name = 
  3 active torsions:
  status: ('A' for Active; 'I' for Inactive)
    1  A    between atoms: C_7  and  C_13
    2  A    between atoms: C_7  and  C_23
    3  A    between atoms: C_23  and  C_26
                            x       y       z     vdW  Elec       q    Type
                         _______ _______ _______ _____ _____    ______ ____

>  <TORSDO>
F 3

$$$$
=
 OpenBabel11042420083D

 30 36  0  0  1  0  0  0  0  0999 V2000
  162.3320  209.7610  155.6990 C   0  0  0  0  0  3  0  0  0  0  0  0
  161.4500  208.7070  151.6870 C   0  0  0  0  0  0  0  0  0  0  0  0
  160.6910  206.7480  152.8550 C   0  0  0  0  0  0  0  0  0  0  0  0
  161.4880  205.8320  149.3950 C   0  0  0  0  0  0  0  0  0  0  0  0
  162.5850  210.6710  154.4810 C   0  0  0  0  0  3  0  0  0  0  0  0
  162.1090  209.9960  152.0270 C   0  0  1  0  0  3  0  0  0  0  0  0
  162.1760  207.7900  148.1940 N   0  0  0  0  0  0  0  0  0  0  0  0
  161.9370  208.6020  149.2600 C   0  0  0  0  0  0  0  0  0  0  0  0
  161.5380  208.0080  150.4850 C   0  0  0  0  0  0  0  0  0  0  0  0
  161.3550  208.6570  155.2720 C   0  0  0  0  0  2  0  0  0  0  0  0
  161.0080  208.1080  152.8430 C   0  0  0  0  0  0  0  0  0  0  0  0
  161.5910  211.1060  151.1910 C   0  0  0  0  0  3  0  0  0  0  0  0
  161.9840  206.4460  148.2280 C   0  0  0  0  0  0  0  0  0  0  0  0
  161.9990  204.3010  147.1320 C   0  0  0  0  0  3  0  0  0  0  0  0
  162.2370  205.6760  147.0920 C   0  0  0  0  0  3  0  0  0  0  0  0
  160.3030  206.1740  153.9070 O   0  0  0  0  0  0  0  0  0  0  0  0
  161.2650  204.4480  149.3870 C   0  0  0  0  0  3  0  0  0  0  0  0
  161.7290  210.1660  153.4260 N   0  0  0  0  0  0  0  0  0  0  0  0
  161.5220  203.7210  148.2660 N   0  0  0  0  0  0  0  0  0  0  0  0
  160.8340  206.0370  151.7020 N   0  0  0  0  0  2  0  0  0  0  0  0
  161.5760  211.0950  149.8530 C   0  0  0  0  0  0  0  0  0  0  0  0
  161.9640  209.9250  149.0150 C   0  0  0  0  0  2  0  0  0  0  0  0
  161.2630  206.6140  150.5340 C   0  0  0  0  0  0  0  0  0  0  0  0
  161.1430  208.9610  153.8450 C   0  0  2  0  0  3  0  0  0  0  0  0
  161.2810  212.4350  147.9050 O   0  0  0  0  0  0  0  0  0  0  0  0
  161.1460  212.3290  149.1550 C   0  0  0  0  0  0  0  0  0  0  0  0
  160.5220  213.4610  149.9040 C   0  0  0  0  0  2  0  0  0  0  0  0
  158.4560  214.4500  150.4100 O   0  0  0  0  0  0  0  0  0  0  0  0
  159.0120  213.3140  149.9120 C   0  0  2  0  0  3  0  0  0  0  0  0
  158.5240  213.3630  151.2670 N   0  0  0  0  0  2  0  0  0  0  0  0
  2  6  1  0  0  0  0
  2 11  2  0  0  0  0
  3 16  2  0  0  0  0
  4 23  2  0  0  0  0
  5  1  2  0  0  0  0
  6 12  1  6  0  0  0
  6 18  1  0  0  0  0
  7 13  2  0  0  0  0
  7  8  1  0  0  0  0
  8  9  2  0  0  0  0
  9 23  1  0  0  0  0
  9  2  1  0  0  0  0
 10  1  1  0  0  0  0
 11  3  1  0  0  0  0
 11 24  1  0  0  0  0
 13  4  1  0  0  0  0
 14 19  1  0  0  0  0
 15 14  2  0  0  0  0
 15 13  1  0  0  0  0
 17  4  1  0  0  0  0
 18 24  1  0  0  0  0
 18  5  1  0  0  0  0
 19 17  2  0  0  0  0
 20  3  1  0  0  0  0
 21 12  2  0  0  0  0
 22  8  1  0  0  0  0
 22 21  1  0  0  0  0
 23 20  1  0  0  0  0
 24 10  1  1  0  0  0
 25 26  2  0  0  0  0
 26 21  1  0  0  0  0
 26 27  1  0  0  0  0
 28 30  1  0  0  0  0
 29 27  1  1  0  0  0
 29 28  1  0  0  0  0
 29 30  1  0  0  0  0
M  END
>  <MODEL>
5

>  <REMARK>
 VINA RESULT:      -7.0      1.377      1.911
  Name = 
  3 active torsions:
  status: ('A' for Active; 'I' for Inactive)
    1  A    between atoms: C_7  and  C_13
    2  A    between atoms: C_7  and  C_23
    3  A    between atoms: C_23  and  C_26
                            x       y       z     vdW  Elec       q    Type
                         _______ _______ _______ _____ _____    ______ ____

>  <TORSDO>
F 3

$$$$
=
 OpenBabel11042420083D

 30 36  0  0  1  0  0  0  0  0999 V2000
  160.8820  204.8240  147.3270 C   0  0  0  0  0  3  0  0  0  0  0  0
  161.5190  207.6590  150.4170 C   0  0  0  0  0  0  0  0  0  0  0  0
  161.8000  205.5960  151.6200 C   0  0  0  0  0  0  0  0  0  0  0  0
  160.8310  208.2260  153.9850 C   0  0  0  0  0  0  0  0  0  0  0  0
  160.8520  206.3520  147.1310 C   0  0  0  0  0  3  0  0  0  0  0  0
  161.1720  208.0790  149.0330 C   0  0  1  0  0  3  0  0  0  0  0  0
  160.6200  210.3080  152.8140 N   0  0  0  0  0  0  0  0  0  0  0  0
  161.0330  209.7580  151.6390 C   0  0  0  0  0  0  0  0  0  0  0  0
  161.2780  208.3620  151.5960 C   0  0  0  0  0  0  0  0  0  0  0  0
  161.5810  204.5310  148.6620 C   0  0  0  0  0  2  0  0  0  0  0  0
  161.8050  206.3130  150.4220 C   0  0  0  0  0  0  0  0  0  0  0  0
  161.9370  209.2830  148.6260 C   0  0  0  0  0  3  0  0  0  0  0  0
  160.4970  209.5940  153.9630 C   0  0  0  0  0  0  0  0  0  0  0  0
  159.9940  209.4870  156.3160 C   0  0  0  0  0  3  0  0  0  0  0  0
  160.0800  210.2260  155.1350 C   0  0  0  0  0  3  0  0  0  0  0  0
  162.0390  204.3600  151.6450 O   0  0  0  0  0  0  0  0  0  0  0  0
  160.7300  207.5250  155.1940 C   0  0  0  0  0  3  0  0  0  0  0  0
  161.5740  206.9100  148.2570 N   0  0  0  0  0  0  0  0  0  0  0  0
  160.3190  208.1650  156.3230 N   0  0  0  0  0  0  0  0  0  0  0  0
  161.5030  206.2580  152.7730 N   0  0  0  0  0  2  0  0  0  0  0  0
  161.9560  210.4290  149.3160 C   0  0  0  0  0  0  0  0  0  0  0  0
  161.3130  210.6240  150.6460 C   0  0  0  0  0  2  0  0  0  0  0  0
  161.2250  207.6000  152.7950 C   0  0  0  0  0  0  0  0  0  0  0  0
  161.8650  205.8850  149.1710 C   0  0  2  0  0  3  0  0  0  0  0  0
  163.8310  211.4530  148.2610 O   0  0  0  0  0  0  0  0  0  0  0  0
  162.6630  211.5860  148.7180 C   0  0  0  0  0  0  0  0  0  0  0  0
  162.0060  212.9250  148.6200 C   0  0  0  0  0  2  0  0  0  0  0  0
  161.2120  212.5910  146.4390 O   0  0  0  0  0  0  0  0  0  0  0  0
  160.7970  212.8490  147.7070 C   0  0  2  0  0  3  0  0  0  0  0  0
  160.8600  213.9010  146.7250 N   0  0  0  0  0  2  0  0  0  0  0  0
  1 10  1  0  0  0  0
  2 11  2  0  0  0  0
  2  9  1  0  0  0  0
  3 16  2  0  0  0  0
  3 20  1  0  0  0  0
  4 17  1  0  0  0  0
  5  1  2  0  0  0  0
  5 18  1  0  0  0  0
  6 12  1  6  0  0  0
  6  2  1  0  0  0  0
  7 13  1  0  0  0  0
  8  7  2  0  0  0  0
  9  8  1  0  0  0  0
  9 23  2  0  0  0  0
 11  3  1  0  0  0  0
 12 21  2  0  0  0  0
 13  4  2  0  0  0  0
 13 15  1  0  0  0  0
 14 19  1  0  0  0  0
 15 14  2  0  0  0  0
 17 19  2  0  0  0  0
 18  6  1  0  0  0  0
 18 24  1  0  0  0  0
 20 23  1  0  0  0  0
 21 22  1  0  0  0  0
 22  8  1  0  0  0  0
 23  4  1  0  0  0  0
 24 10  1  1  0  0  0
 24 11  1  0  0  0  0
 25 26  2  0  0  0  0
 26 21  1  0  0  0  0
 27 26  1  0  0  0  0
 28 30  1  0  0  0  0
 28 29  1  0  0  0  0
 29 27  1  1  0  0  0
 30 29  1  0  0  0  0
M  END
>  <MODEL>
6

>  <REMARK>
 VINA RESULT:      -7.0      1.629      5.299
  Name = 
  3 active torsions:
  status: ('A' for Active; 'I' for Inactive)
    1  A    between atoms: C_7  and  C_13
    2  A    between atoms: C_7  and  C_23
    3  A    between atoms: C_23  and  C_26
                            x       y       z     vdW  Elec       q    Type
                         _______ _______ _______ _____ _____    ______ ____

>  <TORSDO>
F 3

$$$$
=
 OpenBabel11042420083D

 30 36  0  0  1  0  0  0  0  0999 V2000
  162.6250  209.8460  157.2540 C   0  0  0  0  0  3  0  0  0  0  0  0
  161.2680  208.8510  153.3610 C   0  0  0  0  0  0  0  0  0  0  0  0
  160.7670  206.8260  154.5550 C   0  0  0  0  0  0  0  0  0  0  0  0
  161.1390  206.0410  150.9920 C   0  0  0  0  0  0  0  0  0  0  0  0
  162.6690  210.7990  156.0430 C   0  0  0  0  0  3  0  0  0  0  0  0
  161.9040  210.1630  153.6530 C   0  0  1  0  0  3  0  0  0  0  0  0
  161.5650  208.0630  149.7750 N   0  0  0  0  0  0  0  0  0  0  0  0
  161.4320  208.8330  150.8890 C   0  0  0  0  0  0  0  0  0  0  0  0
  161.2290  208.1880  152.1360 C   0  0  0  0  0  0  0  0  0  0  0  0
  161.6540  208.7050  156.9240 C   0  0  0  0  0  2  0  0  0  0  0  0
  161.0130  208.2000  154.5460 C   0  0  0  0  0  0  0  0  0  0  0  0
  161.2260  211.2660  152.9290 C   0  0  0  0  0  3  0  0  0  0  0  0
  161.4440  206.7100  149.7910 C   0  0  0  0  0  0  0  0  0  0  0  0
  161.4170  204.5980  148.6330 C   0  0  0  0  0  3  0  0  0  0  0  0
  161.5810  205.9840  148.6070 C   0  0  0  0  0  3  0  0  0  0  0  0
  160.5510  206.2050  155.6300 O   0  0  0  0  0  0  0  0  0  0  0  0
  160.9840  204.6480  150.9690 C   0  0  0  0  0  3  0  0  0  0  0  0
  161.7060  210.2770  155.0940 N   0  0  0  0  0  0  0  0  0  0  0  0
  161.1240  203.9640  149.8010 N   0  0  0  0  0  0  0  0  0  0  0  0
  160.7890  206.1520  153.3710 N   0  0  0  0  0  2  0  0  0  0  0  0
  161.0330  211.2880  151.6050 C   0  0  0  0  0  0  0  0  0  0  0  0
  161.3620  210.1620  150.6860 C   0  0  0  0  0  2  0  0  0  0  0  0
  161.0300  206.7810  152.1760 C   0  0  0  0  0  0  0  0  0  0  0  0
  161.2400  209.0330  155.5480 C   0  0  2  0  0  3  0  0  0  0  0  0
  160.6690  212.8010  149.7990 O   0  0  0  0  0  0  0  0  0  0  0  0
  160.4540  212.5150  151.0090 C   0  0  0  0  0  0  0  0  0  0  0  0
  159.5870  213.4280  151.8140 C   0  0  0  0  0  2  0  0  0  0  0  0
  157.4760  213.6560  150.8180 O   0  0  0  0  0  0  0  0  0  0  0  0
  158.1460  212.9550  151.7700 C   0  0  2  0  0  3  0  0  0  0  0  0
  157.2660  214.0350  152.1340 N   0  0  0  0  0  2  0  0  0  0  0  0
  2  6  1  0  0  0  0
  2 11  2  0  0  0  0
  3 16  2  0  0  0  0
  4 23  2  0  0  0  0
  5  1  2  0  0  0  0
  6 12  1  6  0  0  0
  6 18  1  0  0  0  0
  7 13  2  0  0  0  0
  7  8  1  0  0  0  0
  8  9  2  0  0  0  0
  9 23  1  0  0  0  0
  9  2  1  0  0  0  0
 10  1  1  0  0  0  0
 11  3  1  0  0  0  0
 11 24  1  0  0  0  0
 13  4  1  0  0  0  0
 14 19  1  0  0  0  0
 15 14  2  0  0  0  0
 15 13  1  0  0  0  0
 17  4  1  0  0  0  0
 18 24  1  0  0  0  0
 18  5  1  0  0  0  0
 19 17  2  0  0  0  0
 20  3  1  0  0  0  0
 21 12  2  0  0  0  0
 22  8  1  0  0  0  0
 22 21  1  0  0  0  0
 23 20  1  0  0  0  0
 24 10  1  1  0  0  0
 25 26  2  0  0  0  0
 26 21  1  0  0  0  0
 26 27  1  0  0  0  0
 28 29  1  0  0  0  0
 28 30  1  0  0  0  0
 29 27  1  6  0  0  0
 29 30  1  0  0  0  0
M  END
>  <MODEL>
7

>  <REMARK>
 VINA RESULT:      -6.7      2.140      2.901
  Name = 
  3 active torsions:
  status: ('A' for Active; 'I' for Inactive)
    1  A    between atoms: C_7  and  C_13
    2  A    between atoms: C_7  and  C_23
    3  A    between atoms: C_23  and  C_26
                            x       y       z     vdW  Elec       q    Type
                         _______ _______ _______ _____ _____    ______ ____

>  <TORSDO>
F 3

$$$$
=
 OpenBabel11042420083D

 30 36  0  0  1  0  0  0  0  0999 V2000
  160.4310  212.9520  149.4980 C   0  0  0  0  0  3  0  0  0  0  0  0
  161.4320  209.4250  151.6310 C   0  0  0  0  0  0  0  0  0  0  0  0
  162.1570  208.8440  149.4140 C   0  0  0  0  0  0  0  0  0  0  0  0
  161.4630  205.7640  151.2800 C   0  0  0  0  0  0  0  0  0  0  0  0
  160.2130  212.7540  151.0110 C   0  0  0  0  0  3  0  0  0  0  0  0
  160.7620  210.5740  152.2960 C   0  0  1  0  0  3  0  0  0  0  0  0
  160.8100  206.3230  153.5190 N   0  0  0  0  0  0  0  0  0  0  0  0
  161.0160  207.6530  153.3110 C   0  0  0  0  0  0  0  0  0  0  0  0
  161.3790  208.0850  152.0100 C   0  0  0  0  0  0  0  0  0  0  0  0
  161.4210  211.8820  149.0180 C   0  0  0  0  0  2  0  0  0  0  0  0
  161.8400  209.8070  150.3740 C   0  0  0  0  0  0  0  0  0  0  0  0
  161.3030  210.8020  153.6570 C   0  0  0  0  0  3  0  0  0  0  0  0
  161.0020  205.3850  152.5550 C   0  0  0  0  0  0  0  0  0  0  0  0
  161.0210  203.0810  151.8530 C   0  0  0  0  0  3  0  0  0  0  0  0
  160.7840  204.0370  152.8420 C   0  0  0  0  0  3  0  0  0  0  0  0
  162.5140  209.1700  148.2510 O   0  0  0  0  0  0  0  0  0  0  0  0
  161.6870  204.7690  150.3200 C   0  0  0  0  0  3  0  0  0  0  0  0
  161.1000  211.6760  151.4010 N   0  0  0  0  0  0  0  0  0  0  0  0
  161.4650  203.4620  150.6250 N   0  0  0  0  0  0  0  0  0  0  0  0
  162.0490  207.5280  149.7510 N   0  0  0  0  0  2  0  0  0  0  0  0
  161.3580  209.8650  154.6110 C   0  0  0  0  0  0  0  0  0  0  0  0
  160.9960  208.4340  154.4080 C   0  0  0  0  0  2  0  0  0  0  0  0
  161.6550  207.1240  151.0000 C   0  0  0  0  0  0  0  0  0  0  0  0
  161.6740  211.1130  150.2490 C   0  0  2  0  0  3  0  0  0  0  0  0
  162.9620  209.9700  156.3700 O   0  0  0  0  0  0  0  0  0  0  0  0
  161.8080  210.2760  155.9610 C   0  0  0  0  0  0  0  0  0  0  0  0
  160.9220  211.0780  156.8590 C   0  0  0  0  0  2  0  0  0  0  0  0
  158.7570  210.9970  155.9640 O   0  0  0  0  0  0  0  0  0  0  0  0
  159.5420  210.4520  156.9280 C   0  0  2  0  0  3  0  0  0  0  0  0
  158.5650  211.4580  157.2560 N   0  0  0  0  0  2  0  0  0  0  0  0
  1  5  2  0  0  0  0
  2  9  1  0  0  0  0
  2  6  1  0  0  0  0
  3 20  1  0  0  0  0
  3 11  1  0  0  0  0
  4 13  1  0  0  0  0
  5 18  1  0  0  0  0
  6 12  1  1  0  0  0
  8  7  1  0  0  0  0
  8 22  1  0  0  0  0
  9  8  2  0  0  0  0
 10  1  1  0  0  0  0
 11  2  2  0  0  0  0
 12 21  2  0  0  0  0
 13 15  1  0  0  0  0
 13  7  2  0  0  0  0
 14 15  2  0  0  0  0
 16  3  2  0  0  0  0
 17 19  2  0  0  0  0
 17  4  1  0  0  0  0
 18  6  1  0  0  0  0
 19 14  1  0  0  0  0
 20 23  1  0  0  0  0
 21 26  1  0  0  0  0
 22 21  1  0  0  0  0
 23  4  2  0  0  0  0
 23  9  1  0  0  0  0
 24 10  1  6  0  0  0
 24 11  1  0  0  0  0
 24 18  1  0  0  0  0
 26 25  2  0  0  0  0
 26 27  1  0  0  0  0
 28 29  1  0  0  0  0
 28 30  1  0  0  0  0
 29 27  1  6  0  0  0
 29 30  1  0  0  0  0
M  END
>  <MODEL>
8

>  <REMARK>
 VINA RESULT:      -6.5      2.471      5.817
  Name = 
  3 active torsions:
  status: ('A' for Active; 'I' for Inactive)
    1  A    between atoms: C_7  and  C_13
    2  A    between atoms: C_7  and  C_23
    3  A    between atoms: C_23  and  C_26
                            x       y       z     vdW  Elec       q    Type
                         _______ _______ _______ _____ _____    ______ ____

>  <TORSDO>
F 3

$$$$
=
 OpenBabel11042420083D

 30 36  0  0  1  0  0  0  0  0999 V2000
  161.8730  201.8840  150.6750 C   0  0  0  0  0  3  0  0  0  0  0  0
  161.1240  206.0350  151.1220 C   0  0  0  0  0  0  0  0  0  0  0  0
  160.7130  205.7440  148.7720 C   0  0  0  0  0  0  0  0  0  0  0  0
  161.6050  209.2460  149.3950 C   0  0  0  0  0  0  0  0  0  0  0  0
  161.9560  202.6490  152.0110 C   0  0  0  0  0  3  0  0  0  0  0  0
  161.5660  205.1950  152.2670 C   0  0  1  0  0  3  0  0  0  0  0  0
  161.9450  209.5710  151.7470 N   0  0  0  0  0  0  0  0  0  0  0  0
  161.5900  208.2900  152.0370 C   0  0  0  0  0  0  0  0  0  0  0  0
  161.3110  207.4070  150.9630 C   0  0  0  0  0  0  0  0  0  0  0  0
  161.0850  202.7500  149.6820 C   0  0  0  0  0  2  0  0  0  0  0  0
  160.8010  205.2190  150.0620 C   0  0  0  0  0  0  0  0  0  0  0  0
  160.8620  205.5700  153.5170 C   0  0  0  0  0  3  0  0  0  0  0  0
  161.9770  210.0620  150.4800 C   0  0  0  0  0  0  0  0  0  0  0  0
  162.3310  211.8920  148.9540 C   0  0  0  0  0  3  0  0  0  0  0  0
  162.3390  211.3920  150.2570 C   0  0  0  0  0  3  0  0  0  0  0  0
  160.4390  205.0120  147.7830 O   0  0  0  0  0  0  0  0  0  0  0  0
  161.6130  209.7930  148.1050 C   0  0  0  0  0  3  0  0  0  0  0  0
  161.1820  203.8590  151.8230 N   0  0  0  0  0  0  0  0  0  0  0  0
  161.9710  211.0920  147.9150 N   0  0  0  0  0  0  0  0  0  0  0  0
  160.9560  207.0720  148.5910 N   0  0  0  0  0  2  0  0  0  0  0  0
  160.8310  206.8090  154.0200 C   0  0  0  0  0  0  0  0  0  0  0  0
  161.3960  208.0090  153.3390 C   0  0  0  0  0  2  0  0  0  0  0  0
  161.2690  207.9070  149.6330 C   0  0  0  0  0  0  0  0  0  0  0  0
  160.8080  203.9620  150.4740 C   0  0  2  0  0  3  0  0  0  0  0  0
  159.0270  206.5780  155.5590 O   0  0  0  0  0  0  0  0  0  0  0  0
  160.1940  207.0050  155.3430 C   0  0  0  0  0  0  0  0  0  0  0  0
  160.9220  207.6880  156.4560 C   0  0  0  0  0  2  0  0  0  0  0  0
  159.9840  209.7910  156.0130 O   0  0  0  0  0  0  0  0  0  0  0  0
  160.1000  208.8490  156.9840 C   0  0  2  0  0  3  0  0  0  0  0  0
  160.9050  210.0420  157.0170 N   0  0  0  0  0  2  0  0  0  0  0  0
  1  5  2  0  0  0  0
  2  6  1  0  0  0  0
  3 11  1  0  0  0  0
  4 23  2  0  0  0  0
  4 13  1  0  0  0  0
  6 12  1  1  0  0  0
  7  8  1  0  0  0  0
  8 22  1  0  0  0  0
  9  2  1  0  0  0  0
  9  8  2  0  0  0  0
 10  1  1  0  0  0  0
 11 24  1  0  0  0  0
 11  2  2  0  0  0  0
 12 21  2  0  0  0  0
 13  7  2  0  0  0  0
 14 15  2  0  0  0  0
 15 13  1  0  0  0  0
 16  3  2  0  0  0  0
 17  4  1  0  0  0  0
 18  5  1  0  0  0  0
 18  6  1  0  0  0  0
 19 17  2  0  0  0  0
 19 14  1  0  0  0  0
 20  3  1  0  0  0  0
 20 23  1  0  0  0  0
 21 26  1  0  0  0  0
 22 21  1  0  0  0  0
 23  9  1  0  0  0  0
 24 10  1  6  0  0  0
 24 18  1  0  0  0  0
 26 25  2  0  0  0  0
 26 27  1  0  0  0  0
 28 29  1  0  0  0  0
 28 30  1  0  0  0  0
 29 27  1  6  0  0  0
 29 30  1  0  0  0  0
M  END
>  <MODEL>
9

>  <REMARK>
 VINA RESULT:      -6.3      2.806      6.827
  Name = 
  3 active torsions:
  status: ('A' for Active; 'I' for Inactive)
    1  A    between atoms: C_7  and  C_13
    2  A    between atoms: C_7  and  C_23
    3  A    between atoms: C_23  and  C_26
                            x       y       z     vdW  Elec       q    Type
                         _______ _______ _______ _____ _____    ______ ____

>  <TORSDO>
F 3

$$$$
