=
 OpenBabel11052411003D

 37 43  0  0  1  0  0  0  0  0999 V2000
  159.1290  210.0180  154.6780 C   0  0  0  0  0  2  0  0  0  0  0  0
  159.6870  214.3130  150.5330 C   0  0  0  0  0  2  0  0  0  0  0  0
  161.2230  210.0000  150.3970 C   0  0  0  0  0  0  0  0  0  0  0  0
  159.6340  210.5880  156.0170 C   0  0  1  0  0  3  0  0  0  0  0  0
  160.4250  207.0420  152.6500 O   0  0  0  0  0  0  0  0  0  0  0  0
  161.2910  212.4480  150.0020 C   0  0  0  0  0  0  0  0  0  0  0  0
  160.9030  209.0860  151.4910 C   0  0  0  0  0  0  0  0  0  0  0  0
  160.9290  211.2760  150.8200 C   0  0  0  0  0  0  0  0  0  0  0  0
  160.9460  207.6860  151.5220 C   0  0  0  0  0  0  0  0  0  0  0  0
  161.9090  212.2560  148.8750 N   0  0  0  0  0  0  0  0  0  0  0  0
  160.9890  210.0150  156.4710 C   0  0  0  0  0  2  0  0  0  0  0  0
  160.4670  211.2260  152.1270 C   0  0  0  0  0  0  0  0  0  0  0  0
  158.9250  213.0960  152.5740 C   0  0  0  0  0  2  0  0  0  0  0  0
  162.1690  208.5150  148.6950 C   0  0  0  0  0  3  0  0  0  0  0  0
  162.1920  210.9380  148.2850 C   0  0  0  0  0  2  0  0  0  0  0  0
  160.1990  212.4000  153.0070 C   0  0  0  0  0  2  0  0  0  0  0  0
  161.1820  208.5690  156.0270 C   0  0  2  0  0  3  0  0  0  0  0  0
  161.0490  207.0860  153.9280 C   0  0  0  0  0  2  0  0  0  0  0  0
  161.8470  209.7690  149.1800 C   0  0  0  0  0  0  0  0  0  0  0  0
  160.4440  209.8950  152.5300 C   0  0  0  0  0  0  0  0  0  0  0  0
  161.0400  213.7860  150.4360 N   0  0  0  0  0  2  0  0  0  0  0  0
  161.4180  206.8640  150.4810 C   0  0  0  0  0  0  0  0  0  0  0  0
  159.2620  214.4520  151.9850 C   0  0  0  0  0  2  0  0  0  0  0  0
  161.1720  208.5090  154.4830 C   0  0  1  0  0  3  0  0  0  0  0  0
  160.2180  209.4480  153.8780 N   0  0  0  0  0  0  0  0  0  0  0  0
  161.9670  207.2640  149.2600 C   0  0  0  0  0  3  0  0  0  0  0  0
  161.9130  204.8500  151.8560 C   0  0  0  0  0  3  0  0  0  0  0  0
  161.3870  205.4080  150.6810 C   0  0  0  0  0  0  0  0  0  0  0  0
  160.8440  204.5750  149.6950 C   0  0  0  0  0  3  0  0  0  0  0  0
  160.2930  202.3680  148.9030 O   0  0  0  0  0  1  0  0  0  0  0  0
  161.3560  202.6360  151.0510 C   0  0  0  0  0  3  0  0  0  0  0  0
  160.8290  203.1910  149.8810 C   0  0  0  0  0  0  0  0  0  0  0  0
  161.8980  203.4660  152.0400 C   0  0  0  0  0  3  0  0  0  0  0  0
  160.1410  207.6640  156.6860 C   0  0  0  0  0  2  0  0  0  0  0  0
  160.7620  206.5560  157.2610 O   0  0  0  0  0  1  0  0  0  0  0  0
  160.7360  212.3270  156.8320 C   0  0  0  0  0  1  0  0  0  0  0  0
  159.7110  211.9780  155.9480 O   0  0  0  0  0  0  0  0  0  0  0  0
  1  4  1  0  0  0  0
  2 23  1  0  0  0  0
  3  8  2  0  0  0  0
  3  7  1  0  0  0  0
  4 37  1  6  0  0  0
  4 11  1  0  0  0  0
  5 18  1  0  0  0  0
  6 21  1  0  0  0  0
  6  8  1  0  0  0  0
  7  9  2  0  0  0  0
  7 20  1  0  0  0  0
  8 12  1  0  0  0  0
  9  5  1  0  0  0  0
 10  6  2  0  0  0  0
 12 20  2  0  0  0  0
 12 16  1  0  0  0  0
 13 16  1  0  0  0  0
 14 19  2  0  0  0  0
 14 26  1  0  0  0  0
 15 10  1  0  0  0  0
 15 19  1  0  0  0  0
 17 11  1  0  0  0  0
 17 34  1  1  0  0  0
 19  3  1  0  0  0  0
 20 25  1  0  0  0  0
 21  2  1  0  0  0  0
 22 28  1  0  0  0  0
 22  9  1  0  0  0  0
 23 13  1  0  0  0  0
 24 18  1  1  0  0  0
 24 17  1  0  0  0  0
 25 24  1  0  0  0  0
 25  1  1  0  0  0  0
 26 22  2  0  0  0  0
 27 33  1  0  0  0  0
 28 27  2  0  0  0  0
 29 32  2  0  0  0  0
 29 28  1  0  0  0  0
 30 32  1  0  0  0  0
 31 33  2  0  0  0  0
 32 31  1  0  0  0  0
 34 35  1  0  0  0  0
 37 36  1  0  0  0  0
M  END
>  <MODEL>
1

>  <REMARK>
 VINA RESULT:      -6.8      0.000      0.000
  Name = 
  3 active torsions:
  status: ('A' for Active; 'I' for Inactive)
    1  A    between atoms: C_5  and  O_23
    2  A    between atoms: C_6  and  C_31
    3  A    between atoms: C_11  and  C_26
                            x       y       z     vdW  Elec       q    Type
                         _______ _______ _______ _____ _____    ______ ____

>  <TORSDO>
F 3

$$$$
