=
 OpenBabel11052410273D

 36 41  0  0  1  0  0  0  0  0999 V2000
  158.9510  210.9260  153.4520 C   0  0  0  0  0  1  0  0  0  0  0  0
  160.3850  210.4340  153.5510 C   0  0  2  0  0  0  0  0  0  0  0  0
  162.5720  208.7300  148.8100 O   0  0  0  0  0  0  0  0  0  0  0  0
  160.9500  210.1630  152.2010 C   0  0  0  0  0  0  0  0  0  0  0  0
  161.1820  211.0520  151.1580 C   0  0  0  0  0  3  0  0  0  0  0  0
  160.4700  209.0520  154.1610 C   0  0  0  0  0  0  0  0  0  0  0  0
  161.7280  210.5510  149.9630 C   0  0  0  0  0  0  0  0  0  0  0  0
  161.2630  208.8370  152.0740 C   0  0  0  0  0  0  0  0  0  0  0  0
  161.8200  208.3280  150.9300 N   0  0  0  0  0  0  0  0  0  0  0  0
  161.1780  211.3450  154.2510 O   0  0  0  0  0  1  0  0  0  0  0  0
  160.9590  208.1420  153.3180 C   0  0  0  0  0  3  0  0  0  0  0  0
  162.0590  209.1770  149.8740 C   0  0  0  0  0  0  0  0  0  0  0  0
  161.2760  203.8110  150.0090 C   0  0  2  0  0  3  0  0  0  0  0  0
  162.0610  204.8560  152.0190 N   0  0  0  0  0  2  0  0  0  0  0  0
  160.4260  202.6220  148.3070 C   0  0  0  0  0  3  0  0  0  0  0  0
  162.1430  206.9000  150.7820 C   0  0  1  0  0  3  0  0  0  0  0  0
  162.4900  206.2450  152.1000 C   0  0  0  0  0  2  0  0  0  0  0  0
  160.4650  202.8000  149.7530 C   0  0  0  0  0  3  0  0  0  0  0  0
  160.9820  206.1080  150.2340 C   0  0  2  0  0  3  0  0  0  0  0  0
  161.1310  203.5890  147.7340 C   0  0  0  0  0  2  0  0  0  0  0  0
  160.9770  204.8100  151.0410 C   0  0  1  0  0  3  0  0  0  0  0  0
  161.7640  204.4420  148.7830 C   0  0  1  0  0  3  0  0  0  0  0  0
  161.2150  205.7930  148.8140 N   0  0  0  0  0  2  0  0  0  0  0  0
  161.6480  212.8980  149.1430 C   0  0  0  0  0  2  0  0  0  0  0  0
  162.0170  211.4700  148.8080 C   0  0  2  0  0  3  0  0  0  0  0  0
  161.1490  213.5020  147.9180 N   0  0  0  0  0  0  0  0  0  0  0  0
  161.2170  211.1330  147.5660 C   0  0  0  0  0  2  0  0  0  0  0  0
  160.4980  212.4160  147.2010 C   0  0  0  0  0  2  0  0  0  0  0  0
  160.1180  214.4530  148.2960 C   0  0  0  0  0  2  0  0  0  0  0  0
  159.7120  214.2040  149.7390 C   0  0  0  0  0  2  0  0  0  0  0  0
  158.2870  213.7810  149.8100 C   0  0  0  0  0  0  0  0  0  0  0  0
  157.8020  213.3960  150.9070 O   0  0  0  0  0  1  0  0  0  0  0  0
  157.4900  213.8100  148.6710 O   0  0  0  0  0  0  0  0  0  0  0  0
  160.1110  208.7150  155.4700 O   0  0  0  0  0  0  0  0  0  0  0  0
  159.8320  207.3820  155.8780 C   0  0  0  0  0  2  0  0  0  0  0  0
  160.4140  207.1290  157.2550 C   0  0  0  0  0  1  0  0  0  0  0  0
  2  1  1  6  0  0  0
  2  6  1  0  0  0  0
  2 10  1  0  0  0  0
  3 12  2  0  0  0  0
  4  2  1  0  0  0  0
  5  4  1  0  0  0  0
  6 34  1  0  0  0  0
  7  5  2  0  0  0  0
  8  4  2  0  0  0  0
  8 11  1  0  0  0  0
  9  8  1  0  0  0  0
 11  6  2  0  0  0  0
 12  7  1  0  0  0  0
 12  9  1  0  0  0  0
 13 18  1  6  0  0  0
 13 21  1  0  0  0  0
 14 17  1  0  0  0  0
 15 18  2  0  0  0  0
 16  9  1  1  0  0  0
 16 17  1  0  0  0  0
 19 23  1  6  0  0  0
 19 16  1  0  0  0  0
 19 21  1  0  0  0  0
 20 15  1  0  0  0  0
 21 14  1  1  0  0  0
 22 20  1  6  0  0  0
 22 23  1  0  0  0  0
 22 13  1  0  0  0  0
 25 24  1  0  0  0  0
 25  7  1  1  0  0  0
 26 29  1  0  0  0  0
 26 24  1  0  0  0  0
 27 25  1  0  0  0  0
 28 27  1  0  0  0  0
 28 26  1  0  0  0  0
 29 30  1  0  0  0  0
 30 31  1  0  0  0  0
 31 32  1  0  0  0  0
 33 31  2  0  0  0  0
 34 35  1  0  0  0  0
 35 36  1  0  0  0  0
M  END
>  <MODEL>
1

>  <REMARK>
 VINA RESULT:      -7.4      0.000      0.000
  Name = 
  7 active torsions:
  status: ('A' for Active; 'I' for Inactive)
    1  A    between atoms: C_2  and  C_23
    2  A    between atoms: C_7  and  C_15
    3  A    between atoms: C_7  and  C_19
    4  A    between atoms: N_8  and  C_15
    5  A    between atoms: O_14  and  C_16
    6  A    between atoms: O_14  and  C_21
    7  A    between atoms: C_17  and  N_27
                            x       y       z     vdW  Elec       q    Type
                         _______ _______ _______ _____ _____    ______ ____

>  <TORSDO>
F 7

$$$$
=
 OpenBabel11052410273D

 36 41  0  0  1  0  0  0  0  0999 V2000
  160.6720  207.0280  150.5410 C   0  0  0  0  0  1  0  0  0  0  0  0
  161.8390  207.9970  150.4450 C   0  0  2  0  0  0  0  0  0  0  0  0
  160.5450  213.2600  151.3340 O   0  0  0  0  0  0  0  0  0  0  0  0
  161.4330  209.3630  150.8720 C   0  0  0  0  0  0  0  0  0  0  0  0
  161.0000  209.7940  152.1210 C   0  0  0  0  0  3  0  0  0  0  0  0
  162.2330  208.2690  149.0100 C   0  0  0  0  0  0  0  0  0  0  0  0
  160.6680  211.1510  152.2800 C   0  0  0  0  0  0  0  0  0  0  0  0
  161.5510  210.2430  149.8300 C   0  0  0  0  0  0  0  0  0  0  0  0
  161.2590  211.5740  149.9660 N   0  0  0  0  0  0  0  0  0  0  0  0
  162.9280  207.5420  151.1900 O   0  0  0  0  0  1  0  0  0  0  0  0
  162.0600  209.5440  148.6570 C   0  0  0  0  0  3  0  0  0  0  0  0
  160.8210  212.0360  151.1850 C   0  0  0  0  0  0  0  0  0  0  0  0
  160.5150  213.5150  145.8160 C   0  0  2  0  0  3  0  0  0  0  0  0
  162.5850  212.8340  146.8120 N   0  0  0  0  0  2  0  0  0  0  0  0
  158.7000  214.0770  144.6210 C   0  0  0  0  0  3  0  0  0  0  0  0
  161.3670  212.5200  148.8450 C   0  0  1  0  0  3  0  0  0  0  0  0
  162.7470  212.5300  148.2270 C   0  0  0  0  0  2  0  0  0  0  0  0
  160.0020  213.4230  144.6000 C   0  0  0  0  0  3  0  0  0  0  0  0
  160.4260  212.1770  147.7160 C   0  0  2  0  0  3  0  0  0  0  0  0
  158.4250  214.4530  145.8630 C   0  0  0  0  0  2  0  0  0  0  0  0
  161.2390  212.4040  146.4430 C   0  0  1  0  0  3  0  0  0  0  0  0
  159.5820  214.1400  146.7530 C   0  0  1  0  0  3  0  0  0  0  0  0
  159.2750  213.0970  147.7250 N   0  0  0  0  0  2  0  0  0  0  0  0
  160.9540  211.0060  154.7470 C   0  0  0  0  0  2  0  0  0  0  0  0
  160.2100  211.6770  153.6140 C   0  0  2  0  0  3  0  0  0  0  0  0
  160.0130  210.8710  155.8470 N   0  0  0  0  0  0  0  0  0  0  0  0
  158.7440  211.4090  153.8860 C   0  0  0  0  0  2  0  0  0  0  0  0
  158.7180  210.6760  155.2120 C   0  0  0  0  0  2  0  0  0  0  0  0
  160.3430  209.6430  156.5490 C   0  0  0  0  0  2  0  0  0  0  0  0
  161.1520  208.7440  155.6300 C   0  0  0  0  0  2  0  0  0  0  0  0
  160.4350  207.4600  155.4000 C   0  0  0  0  0  0  0  0  0  0  0  0
  159.5900  207.0540  156.2410 O   0  0  0  0  0  1  0  0  0  0  0  0
  160.6950  206.7080  154.2600 O   0  0  0  0  0  0  0  0  0  0  0  0
  162.7530  207.3290  148.1140 O   0  0  0  0  0  0  0  0  0  0  0  0
  161.9540  206.6500  147.1540 C   0  0  0  0  0  2  0  0  0  0  0  0
  161.7760  205.2000  147.5620 C   0  0  0  0  0  1  0  0  0  0  0  0
  2  1  1  1  0  0  0
  2  4  1  0  0  0  0
  2 10  1  0  0  0  0
  4  5  1  0  0  0  0
  5  7  2  0  0  0  0
  6  2  1  0  0  0  0
  8  9  1  0  0  0  0
  8  4  2  0  0  0  0
  9 12  1  0  0  0  0
 11  6  2  0  0  0  0
 11  8  1  0  0  0  0
 12  3  2  0  0  0  0
 12  7  1  0  0  0  0
 13 18  1  6  0  0  0
 13 21  1  0  0  0  0
 13 22  1  0  0  0  0
 14 17  1  0  0  0  0
 15 20  1  0  0  0  0
 16 17  1  6  0  0  0
 16  9  1  0  0  0  0
 18 15  2  0  0  0  0
 19 23  1  6  0  0  0
 19 16  1  0  0  0  0
 21 14  1  1  0  0  0
 21 19  1  0  0  0  0
 22 20  1  6  0  0  0
 22 23  1  0  0  0  0
 24 26  1  0  0  0  0
 25  7  1  6  0  0  0
 25 27  1  0  0  0  0
 25 24  1  0  0  0  0
 26 29  1  0  0  0  0
 27 28  1  0  0  0  0
 28 26  1  0  0  0  0
 30 29  1  0  0  0  0
 31 30  1  0  0  0  0
 31 32  1  0  0  0  0
 33 31  2  0  0  0  0
 34  6  1  0  0  0  0
 35 36  1  0  0  0  0
 35 34  1  0  0  0  0
M  END
>  <MODEL>
2

>  <REMARK>
 VINA RESULT:      -6.5      2.544      7.609
  Name = 
  7 active torsions:
  status: ('A' for Active; 'I' for Inactive)
    1  A    between atoms: C_2  and  C_23
    2  A    between atoms: C_7  and  C_15
    3  A    between atoms: C_7  and  C_19
    4  A    between atoms: N_8  and  C_15
    5  A    between atoms: O_14  and  C_16
    6  A    between atoms: O_14  and  C_21
    7  A    between atoms: C_17  and  N_27
                            x       y       z     vdW  Elec       q    Type
                         _______ _______ _______ _____ _____    ______ ____

>  <TORSDO>
F 7

$$$$
=
 OpenBabel11052410273D

 36 41  0  0  1  0  0  0  0  0999 V2000
  160.4100  212.0580  154.4540 C   0  0  0  0  0  1  0  0  0  0  0  0
  159.5790  211.8810  153.1940 C   0  0  2  0  0  0  0  0  0  0  0  0
  162.4000  210.2220  148.7840 O   0  0  0  0  0  0  0  0  0  0  0  0
  160.3850  211.2640  152.1070 C   0  0  0  0  0  0  0  0  0  0  0  0
  160.9710  210.0030  152.0620 C   0  0  0  0  0  3  0  0  0  0  0  0
  159.2310  213.2070  152.5540 C   0  0  0  0  0  0  0  0  0  0  0  0
  161.6940  209.6440  150.9120 C   0  0  0  0  0  0  0  0  0  0  0  0
  160.4950  212.1250  151.0490 C   0  0  0  0  0  0  0  0  0  0  0  0
  161.1720  211.7890  149.9060 N   0  0  0  0  0  0  0  0  0  0  0  0
  158.4320  211.1290  153.4560 O   0  0  0  0  0  1  0  0  0  0  0  0
  159.7600  213.3500  151.3380 C   0  0  0  0  0  3  0  0  0  0  0  0
  161.7700  210.5530  149.8280 C   0  0  0  0  0  0  0  0  0  0  0  0
  160.6030  213.6120  145.6750 C   0  0  2  0  0  3  0  0  0  0  0  0
  162.6360  213.0490  146.8130 N   0  0  0  0  0  2  0  0  0  0  0  0
  158.8440  214.0650  144.3580 C   0  0  0  0  0  3  0  0  0  0  0  0
  161.3080  212.7180  148.7730 C   0  0  1  0  0  3  0  0  0  0  0  0
  162.7220  212.7810  148.2420 C   0  0  0  0  0  2  0  0  0  0  0  0
  160.1730  213.4720  144.4330 C   0  0  0  0  0  3  0  0  0  0  0  0
  160.4560  212.3090  147.5960 C   0  0  2  0  0  3  0  0  0  0  0  0
  158.4740  214.4510  145.5720 C   0  0  0  0  0  2  0  0  0  0  0  0
  161.3370  212.5490  146.3710 C   0  0  1  0  0  3  0  0  0  0  0  0
  159.5860  214.2110  146.5390 C   0  0  1  0  0  3  0  0  0  0  0  0
  159.2660  213.1730  147.5140 N   0  0  0  0  0  2  0  0  0  0  0  0
  161.9340  207.6010  149.5140 C   0  0  0  0  0  2  0  0  0  0  0  0
  162.3350  208.2870  150.8010 C   0  0  2  0  0  3  0  0  0  0  0  0
  161.8290  206.1810  149.8090 N   0  0  0  0  0  0  0  0  0  0  0  0
  161.9140  207.3400  151.9050 C   0  0  0  0  0  2  0  0  0  0  0  0
  161.3750  206.1170  151.1910 C   0  0  0  0  0  2  0  0  0  0  0  0
  160.7660  205.6450  148.9770 C   0  0  0  0  0  2  0  0  0  0  0  0
  160.9020  206.2040  147.5710 C   0  0  0  0  0  2  0  0  0  0  0  0
  161.7410  205.3020  146.7350 C   0  0  0  0  0  0  0  0  0  0  0  0
  161.9110  204.1040  147.0810 O   0  0  0  0  0  1  0  0  0  0  0  0
  162.3370  205.7790  145.5720 O   0  0  0  0  0  0  0  0  0  0  0  0
  158.4260  214.2000  153.1200 O   0  0  0  0  0  0  0  0  0  0  0  0
  157.0920  214.4500  152.6960 C   0  0  0  0  0  2  0  0  0  0  0  0
  156.1140  213.7950  153.6520 C   0  0  0  0  0  1  0  0  0  0  0  0
  2 10  1  0  0  0  0
  2  1  1  1  0  0  0
  3 12  2  0  0  0  0
  4  2  1  0  0  0  0
  5  4  1  0  0  0  0
  6 34  1  0  0  0  0
  6  2  1  0  0  0  0
  7  5  2  0  0  0  0
  8 11  1  0  0  0  0
  8  4  2  0  0  0  0
  9  8  1  0  0  0  0
 11  6  2  0  0  0  0
 12  9  1  0  0  0  0
 12  7  1  0  0  0  0
 13 18  1  6  0  0  0
 13 21  1  0  0  0  0
 13 22  1  0  0  0  0
 14 17  1  0  0  0  0
 15 18  2  0  0  0  0
 15 20  1  0  0  0  0
 16 17  1  6  0  0  0
 16  9  1  0  0  0  0
 19 23  1  6  0  0  0
 19 16  1  0  0  0  0
 21 14  1  1  0  0  0
 21 19  1  0  0  0  0
 22 20  1  6  0  0  0
 22 23  1  0  0  0  0
 24 26  1  0  0  0  0
 24 25  1  0  0  0  0
 25  7  1  1  0  0  0
 25 27  1  0  0  0  0
 26 28  1  0  0  0  0
 28 27  1  0  0  0  0
 29 26  1  0  0  0  0
 30 29  1  0  0  0  0
 31 32  1  0  0  0  0
 31 30  1  0  0  0  0
 33 31  2  0  0  0  0
 35 34  1  0  0  0  0
 35 36  1  0  0  0  0
M  END
>  <MODEL>
3

>  <REMARK>
 VINA RESULT:      -6.3      2.286      7.367
  Name = 
  7 active torsions:
  status: ('A' for Active; 'I' for Inactive)
    1  A    between atoms: C_2  and  C_23
    2  A    between atoms: C_7  and  C_15
    3  A    between atoms: C_7  and  C_19
    4  A    between atoms: N_8  and  C_15
    5  A    between atoms: O_14  and  C_16
    6  A    between atoms: O_14  and  C_21
    7  A    between atoms: C_17  and  N_27
                            x       y       z     vdW  Elec       q    Type
                         _______ _______ _______ _____ _____    ______ ____

>  <TORSDO>
F 7

$$$$
=
 OpenBabel11052410273D

 36 41  0  0  1  0  0  0  0  0999 V2000
  162.7960  210.5560  151.6920 C   0  0  0  0  0  1  0  0  0  0  0  0
  161.6700  209.7070  151.1270 C   0  0  2  0  0  0  0  0  0  0  0  0
  160.9900  204.8460  153.5880 O   0  0  0  0  0  0  0  0  0  0  0  0
  161.4450  208.4970  151.9620 C   0  0  0  0  0  0  0  0  0  0  0  0
  161.0270  208.4150  153.2860 C   0  0  0  0  0  3  0  0  0  0  0  0
  162.0510  209.0610  149.8130 C   0  0  0  0  0  0  0  0  0  0  0  0
  160.8880  207.1410  153.8640 C   0  0  0  0  0  0  0  0  0  0  0  0
  161.6960  207.3640  151.2360 C   0  0  0  0  0  0  0  0  0  0  0  0
  161.5430  206.1110  151.7680 N   0  0  0  0  0  0  0  0  0  0  0  0
  160.4970  210.4540  151.0020 O   0  0  0  0  0  1  0  0  0  0  0  0
  162.0750  207.7300  149.8770 C   0  0  0  0  0  3  0  0  0  0  0  0
  161.1370  205.9900  153.0770 C   0  0  0  0  0  0  0  0  0  0  0  0
  161.0520  202.7280  148.6280 C   0  0  2  0  0  3  0  0  0  0  0  0
  161.3320  202.5520  151.0020 N   0  0  0  0  0  2  0  0  0  0  0  0
  160.6220  202.6450  146.4270 C   0  0  0  0  0  3  0  0  0  0  0  0
  161.8280  204.8910  150.9970 C   0  0  1  0  0  3  0  0  0  0  0  0
  161.7880  203.6440  151.8510 C   0  0  0  0  0  2  0  0  0  0  0  0
  160.2900  202.1100  147.7420 C   0  0  0  0  0  3  0  0  0  0  0  0
  160.8150  204.6590  149.9030 C   0  0  2  0  0  3  0  0  0  0  0  0
  161.4960  203.6320  146.5710 C   0  0  0  0  0  2  0  0  0  0  0  0
  160.5390  203.1560  149.9340 C   0  0  1  0  0  3  0  0  0  0  0  0
  161.8710  203.7690  148.0090 C   0  0  1  0  0  3  0  0  0  0  0  0
  161.3950  205.0170  148.5970 N   0  0  0  0  0  2  0  0  0  0  0  0
  159.4950  208.1210  155.6770 C   0  0  0  0  0  2  0  0  0  0  0  0
  160.4230  206.9920  155.2870 C   0  0  2  0  0  3  0  0  0  0  0  0
  159.7550  208.4160  157.0770 N   0  0  0  0  0  0  0  0  0  0  0  0
  161.5560  207.0430  156.2910 C   0  0  0  0  0  2  0  0  0  0  0  0
  161.1730  208.1430  157.2610 C   0  0  0  0  0  2  0  0  0  0  0  0
  159.5600  209.8440  157.2600 C   0  0  0  0  0  2  0  0  0  0  0  0
  159.5490  210.5250  155.9030 C   0  0  0  0  0  2  0  0  0  0  0  0
  160.6520  211.5210  155.8150 C   0  0  0  0  0  0  0  0  0  0  0  0
  160.4540  212.7100  156.1820 O   0  0  0  0  0  1  0  0  0  0  0  0
  161.8990  211.1440  155.3290 O   0  0  0  0  0  0  0  0  0  0  0  0
  162.3310  209.7390  148.6210 O   0  0  0  0  0  0  0  0  0  0  0  0
  161.6930  210.9540  148.2530 C   0  0  0  0  0  2  0  0  0  0  0  0
  162.7040  212.0840  148.2290 C   0  0  0  0  0  1  0  0  0  0  0  0
  2  1  1  1  0  0  0
  2  4  1  0  0  0  0
  4  5  1  0  0  0  0
  5  7  2  0  0  0  0
  6 11  2  0  0  0  0
  6  2  1  0  0  0  0
  8  9  1  0  0  0  0
  8  4  2  0  0  0  0
  9 12  1  0  0  0  0
 10  2  1  0  0  0  0
 11  8  1  0  0  0  0
 12  3  2  0  0  0  0
 12  7  1  0  0  0  0
 13 18  1  6  0  0  0
 13 21  1  0  0  0  0
 14 17  1  0  0  0  0
 15 20  1  0  0  0  0
 15 18  2  0  0  0  0
 16  9  1  1  0  0  0
 16 17  1  0  0  0  0
 19 23  1  6  0  0  0
 19 21  1  0  0  0  0
 19 16  1  0  0  0  0
 21 14  1  1  0  0  0
 22 20  1  6  0  0  0
 22 23  1  0  0  0  0
 22 13  1  0  0  0  0
 24 26  1  0  0  0  0
 25  7  1  6  0  0  0
 25 24  1  0  0  0  0
 25 27  1  0  0  0  0
 26 29  1  0  0  0  0
 26 28  1  0  0  0  0
 27 28  1  0  0  0  0
 30 29  1  0  0  0  0
 31 30  1  0  0  0  0
 31 32  1  0  0  0  0
 33 31  2  0  0  0  0
 34  6  1  0  0  0  0
 35 34  1  0  0  0  0
 36 35  1  0  0  0  0
M  END
>  <MODEL>
4

>  <REMARK>
 VINA RESULT:      -6.0      2.477      5.842
  Name = 
  7 active torsions:
  status: ('A' for Active; 'I' for Inactive)
    1  A    between atoms: C_2  and  C_23
    2  A    between atoms: C_7  and  C_15
    3  A    between atoms: C_7  and  C_19
    4  A    between atoms: N_8  and  C_15
    5  A    between atoms: O_14  and  C_16
    6  A    between atoms: O_14  and  C_21
    7  A    between atoms: C_17  and  N_27
                            x       y       z     vdW  Elec       q    Type
                         _______ _______ _______ _____ _____    ______ ____

>  <TORSDO>
F 7

$$$$
=
 OpenBabel11052410273D

 36 41  0  0  1  0  0  0  0  0999 V2000
  160.8440  207.1610  147.0990 C   0  0  0  0  0  1  0  0  0  0  0  0
  161.8750  207.2090  148.2150 C   0  0  2  0  0  0  0  0  0  0  0  0
  160.5770  204.2910  152.6820 O   0  0  0  0  0  0  0  0  0  0  0  0
  161.5270  206.2560  149.3030 C   0  0  0  0  0  0  0  0  0  0  0  0
  161.4430  204.8690  149.2540 C   0  0  0  0  0  3  0  0  0  0  0  0
  161.8270  208.5160  148.9750 C   0  0  0  0  0  0  0  0  0  0  0  0
  161.0890  204.1800  150.4270 C   0  0  0  0  0  0  0  0  0  0  0  0
  161.2900  206.9310  150.4690 C   0  0  0  0  0  0  0  0  0  0  0  0
  160.9700  206.2820  151.6320 N   0  0  0  0  0  0  0  0  0  0  0  0
  163.1560  206.9580  147.7200 O   0  0  0  0  0  1  0  0  0  0  0  0
  161.4850  208.3590  150.2540 C   0  0  0  0  0  3  0  0  0  0  0  0
  160.8710  204.9100  151.6220 C   0  0  0  0  0  0  0  0  0  0  0  0
  160.9510  209.6960  154.7770 C   0  0  2  0  0  3  0  0  0  0  0  0
  161.6890  207.4290  155.0180 N   0  0  0  0  0  2  0  0  0  0  0  0
  160.4760  211.8890  154.7470 C   0  0  0  0  0  3  0  0  0  0  0  0
  160.6970  207.0050  152.8850 C   0  0  1  0  0  3  0  0  0  0  0  0
  161.3650  206.3630  154.0800 C   0  0  0  0  0  2  0  0  0  0  0  0
  161.4190  210.8650  155.1790 C   0  0  0  0  0  3  0  0  0  0  0  0
  161.2150  208.4220  152.8490 C   0  0  2  0  0  3  0  0  0  0  0  0
  159.5260  211.3200  154.0170 C   0  0  0  0  0  2  0  0  0  0  0  0
  161.8250  208.6520  154.2320 C   0  0  1  0  0  3  0  0  0  0  0  0
  159.7330  209.8430  153.9810 C   0  0  1  0  0  3  0  0  0  0  0  0
  160.0960  209.3600  152.6530 N   0  0  0  0  0  2  0  0  0  0  0  0
  161.7440  202.0820  149.2650 C   0  0  0  0  0  2  0  0  0  0  0  0
  161.0000  202.6780  150.4380 C   0  0  2  0  0  3  0  0  0  0  0  0
  160.9970  200.9070  148.8460 N   0  0  0  0  0  0  0  0  0  0  0  0
  159.5800  202.1670  150.3110 C   0  0  0  0  0  2  0  0  0  0  0  0
  159.6040  201.2290  149.1210 C   0  0  0  0  0  2  0  0  0  0  0  0
  161.1400  200.7950  147.4040 C   0  0  0  0  0  2  0  0  0  0  0  0
  161.1810  202.1870  146.7970 C   0  0  0  0  0  2  0  0  0  0  0  0
  160.5750  202.1760  145.4370 C   0  0  0  0  0  0  0  0  0  0  0  0
  160.5070  203.2430  144.7720 O   0  0  0  0  0  0  0  0  0  0  0  0
  160.0820  200.9920  144.9000 O   0  0  0  0  0  1  0  0  0  0  0  0
  162.1250  209.7770  148.4490 O   0  0  0  0  0  0  0  0  0  0  0  0
  162.0750  210.9700  149.2210 C   0  0  0  0  0  2  0  0  0  0  0  0
  162.4070  212.1650  148.3500 C   0  0  0  0  0  1  0  0  0  0  0  0
  2  1  1  6  0  0  0
  2  6  1  0  0  0  0
  2  4  1  0  0  0  0
  4  8  2  0  0  0  0
  5  4  1  0  0  0  0
  5  7  2  0  0  0  0
  6 11  2  0  0  0  0
  7 12  1  0  0  0  0
  8  9  1  0  0  0  0
 10  2  1  0  0  0  0
 11  8  1  0  0  0  0
 12  9  1  0  0  0  0
 12  3  2  0  0  0  0
 13 18  1  6  0  0  0
 15 18  2  0  0  0  0
 16  9  1  6  0  0  0
 16 17  1  0  0  0  0
 17 14  1  0  0  0  0
 19 23  1  1  0  0  0
 19 16  1  0  0  0  0
 19 21  1  0  0  0  0
 20 15  1  0  0  0  0
 21 13  1  0  0  0  0
 21 14  1  1  0  0  0
 22 20  1  6  0  0  0
 22 13  1  0  0  0  0
 23 22  1  0  0  0  0
 24 25  1  0  0  0  0
 25  7  1  6  0  0  0
 26 28  1  0  0  0  0
 26 24  1  0  0  0  0
 27 25  1  0  0  0  0
 28 27  1  0  0  0  0
 29 26  1  0  0  0  0
 30 29  1  0  0  0  0
 31 30  1  0  0  0  0
 32 31  2  0  0  0  0
 33 31  1  0  0  0  0
 34  6  1  0  0  0  0
 34 35  1  0  0  0  0
 36 35  1  0  0  0  0
M  END
>  <MODEL>
5

>  <REMARK>
 VINA RESULT:      -6.0      2.892      8.432
  Name = 
  7 active torsions:
  status: ('A' for Active; 'I' for Inactive)
    1  A    between atoms: C_2  and  C_23
    2  A    between atoms: C_7  and  C_15
    3  A    between atoms: C_7  and  C_19
    4  A    between atoms: N_8  and  C_15
    5  A    between atoms: O_14  and  C_16
    6  A    between atoms: O_14  and  C_21
    7  A    between atoms: C_17  and  N_27
                            x       y       z     vdW  Elec       q    Type
                         _______ _______ _______ _____ _____    ______ ____

>  <TORSDO>
F 7

$$$$
=
 OpenBabel11052410273D

 36 41  0  0  1  0  0  0  0  0999 V2000
  161.1500  207.5870  147.9090 C   0  0  0  0  0  1  0  0  0  0  0  0
  162.1280  208.0230  148.9870 C   0  0  2  0  0  0  0  0  0  0  0  0
  160.8390  206.3880  154.0680 O   0  0  0  0  0  0  0  0  0  0  0  0
  161.7980  207.3900  150.2920 C   0  0  0  0  0  0  0  0  0  0  0  0
  161.8070  206.0430  150.6360 C   0  0  0  0  0  3  0  0  0  0  0  0
  161.9630  209.4840  149.3450 C   0  0  0  0  0  0  0  0  0  0  0  0
  161.4510  205.6870  151.9490 C   0  0  0  0  0  0  0  0  0  0  0  0
  161.4700  208.3470  151.2150 C   0  0  0  0  0  0  0  0  0  0  0  0
  161.1440  208.0280  152.5070 N   0  0  0  0  0  0  0  0  0  0  0  0
  163.4420  207.7400  148.6110 O   0  0  0  0  0  1  0  0  0  0  0  0
  161.5790  209.6670  150.6090 C   0  0  0  0  0  3  0  0  0  0  0  0
  161.1360  206.7050  152.8830 C   0  0  0  0  0  0  0  0  0  0  0  0
  159.6500  212.0590  154.2570 C   0  0  2  0  0  3  0  0  0  0  0  0
  161.7160  210.9140  154.6610 N   0  0  0  0  0  2  0  0  0  0  0  0
  157.8710  213.3850  153.9150 C   0  0  0  0  0  3  0  0  0  0  0  0
  160.7730  209.0510  153.4980 C   0  0  1  0  0  3  0  0  0  0  0  0
  161.9560  209.5200  154.3160 C   0  0  0  0  0  2  0  0  0  0  0  0
  159.3200  213.3240  154.0600 C   0  0  0  0  0  3  0  0  0  0  0  0
  160.2150  210.2950  152.8510 C   0  0  2  0  0  3  0  0  0  0  0  0
  157.3840  212.1500  153.9290 C   0  0  0  0  0  2  0  0  0  0  0  0
  160.8310  211.4550  153.6330 C   0  0  1  0  0  3  0  0  0  0  0  0
  158.4880  211.1750  154.1690 C   0  0  1  0  0  3  0  0  0  0  0  0
  158.7500  210.3280  153.0100 N   0  0  0  0  0  2  0  0  0  0  0  0
  162.0330  203.3580  151.3010 C   0  0  0  0  0  2  0  0  0  0  0  0
  161.4600  204.2470  152.3820 C   0  0  2  0  0  3  0  0  0  0  0  0
  161.3010  202.1020  151.3570 N   0  0  0  0  0  0  0  0  0  0  0  0
  160.0740  203.7000  152.6550 C   0  0  0  0  0  2  0  0  0  0  0  0
  159.9570  202.4690  151.7800 C   0  0  0  0  0  2  0  0  0  0  0  0
  161.2070  201.5970  149.9980 C   0  0  0  0  0  2  0  0  0  0  0  0
  160.4730  202.6100  149.1370 C   0  0  0  0  0  2  0  0  0  0  0  0
  161.1750  202.7900  147.8370 C   0  0  0  0  0  0  0  0  0  0  0  0
  161.0610  201.9170  146.9370 O   0  0  0  0  0  0  0  0  0  0  0  0
  161.9560  203.9180  147.6140 O   0  0  0  0  0  1  0  0  0  0  0  0
  162.1990  210.5650  148.4900 O   0  0  0  0  0  0  0  0  0  0  0  0
  161.9550  211.9150  148.8630 C   0  0  0  0  0  2  0  0  0  0  0  0
  162.6350  212.8540  147.8850 C   0  0  0  0  0  1  0  0  0  0  0  0
  2  1  1  6  0  0  0
  2  6  1  0  0  0  0
  2  4  1  0  0  0  0
  4  5  1  0  0  0  0
  4  8  2  0  0  0  0
  5  7  2  0  0  0  0
  6 11  2  0  0  0  0
  7 12  1  0  0  0  0
  8  9  1  0  0  0  0
  9 12  1  0  0  0  0
 10  2  1  0  0  0  0
 11  8  1  0  0  0  0
 12  3  2  0  0  0  0
 13 18  1  6  0  0  0
 15 20  1  0  0  0  0
 15 18  2  0  0  0  0
 16  9  1  6  0  0  0
 16 17  1  0  0  0  0
 17 14  1  0  0  0  0
 19 23  1  1  0  0  0
 19 16  1  0  0  0  0
 19 21  1  0  0  0  0
 21 13  1  0  0  0  0
 21 14  1  1  0  0  0
 22 20  1  6  0  0  0
 22 13  1  0  0  0  0
 23 22  1  0  0  0  0
 24 26  1  0  0  0  0
 24 25  1  0  0  0  0
 25  7  1  6  0  0  0
 25 27  1  0  0  0  0
 26 28  1  0  0  0  0
 28 27  1  0  0  0  0
 29 26  1  0  0  0  0
 30 29  1  0  0  0  0
 31 30  1  0  0  0  0
 32 31  2  0  0  0  0
 33 31  1  0  0  0  0
 34 35  1  0  0  0  0
 34  6  1  0  0  0  0
 36 35  1  0  0  0  0
M  END
>  <MODEL>
6

>  <REMARK>
 VINA RESULT:      -5.7      2.721      8.396
  Name = 
  7 active torsions:
  status: ('A' for Active; 'I' for Inactive)
    1  A    between atoms: C_2  and  C_23
    2  A    between atoms: C_7  and  C_15
    3  A    between atoms: C_7  and  C_19
    4  A    between atoms: N_8  and  C_15
    5  A    between atoms: O_14  and  C_16
    6  A    between atoms: O_14  and  C_21
    7  A    between atoms: C_17  and  N_27
                            x       y       z     vdW  Elec       q    Type
                         _______ _______ _______ _____ _____    ______ ____

>  <TORSDO>
F 7

$$$$
=
 OpenBabel11052410273D

 36 41  0  0  1  0  0  0  0  0999 V2000
  162.2180  209.1650  157.0210 C   0  0  0  0  0  1  0  0  0  0  0  0
  160.8620  209.0200  156.3500 C   0  0  2  0  0  0  0  0  0  0  0  0
  161.0550  208.1120  150.9370 O   0  0  0  0  0  0  0  0  0  0  0  0
  161.0130  208.6020  154.9300 C   0  0  0  0  0  0  0  0  0  0  0  0
  161.5460  207.4240  154.4180 C   0  0  0  0  0  3  0  0  0  0  0  0
  160.1740  210.3550  156.1670 C   0  0  0  0  0  0  0  0  0  0  0  0
  161.5820  207.2580  153.0230 C   0  0  0  0  0  0  0  0  0  0  0  0
  160.5190  209.5670  154.0950 C   0  0  0  0  0  0  0  0  0  0  0  0
  160.5190  209.4200  152.7330 N   0  0  0  0  0  0  0  0  0  0  0  0
  160.0520  208.1250  157.0510 O   0  0  0  0  0  1  0  0  0  0  0  0
  159.9880  210.6710  154.8850 C   0  0  0  0  0  3  0  0  0  0  0  0
  161.0440  208.2700  152.1900 C   0  0  0  0  0  0  0  0  0  0  0  0
  160.3870  213.2920  150.1770 C   0  0  2  0  0  3  0  0  0  0  0  0
  158.8870  212.5730  151.9030 N   0  0  0  0  0  2  0  0  0  0  0  0
  161.7330  214.2450  148.6550 C   0  0  0  0  0  3  0  0  0  0  0  0
  160.0050  210.4620  151.8300 C   0  0  1  0  0  3  0  0  0  0  0  0
  158.8330  211.2130  152.4200 C   0  0  0  0  0  2  0  0  0  0  0  0
  160.9320  214.4530  149.8540 C   0  0  0  0  0  3  0  0  0  0  0  0
  161.0430  211.5130  151.5250 C   0  0  2  0  0  3  0  0  0  0  0  0
  161.7260  212.9530  148.3500 C   0  0  0  0  0  2  0  0  0  0  0  0
  160.2840  212.8390  151.5680 C   0  0  1  0  0  3  0  0  0  0  0  0
  160.8400  212.2160  149.2980 C   0  0  1  0  0  3  0  0  0  0  0  0
  161.5810  211.3090  150.1680 N   0  0  0  0  0  2  0  0  0  0  0  0
  161.9970  206.0160  150.9080 C   0  0  0  0  0  2  0  0  0  0  0  0
  162.1320  205.9970  152.4150 C   0  0  2  0  0  3  0  0  0  0  0  0
  161.7240  204.6500  150.4930 N   0  0  0  0  0  0  0  0  0  0  0  0
  161.3970  204.7510  152.8640 C   0  0  0  0  0  2  0  0  0  0  0  0
  160.9540  204.0710  151.5850 C   0  0  0  0  0  2  0  0  0  0  0  0
  160.8500  204.7180  149.3340 C   0  0  0  0  0  2  0  0  0  0  0  0
  161.5120  204.0060  148.1660 C   0  0  0  0  0  2  0  0  0  0  0  0
  161.7250  204.9520  147.0370 C   0  0  0  0  0  0  0  0  0  0  0  0
  161.6980  204.5280  145.8510 O   0  0  0  0  0  0  0  0  0  0  0  0
  161.9530  206.3010  147.2860 O   0  0  0  0  0  1  0  0  0  0  0  0
  159.7360  211.1950  157.1960 O   0  0  0  0  0  0  0  0  0  0  0  0
  158.9080  212.3280  156.9710 C   0  0  0  0  0  2  0  0  0  0  0  0
  157.4560  211.9650  157.2100 C   0  0  0  0  0  1  0  0  0  0  0  0
  2  1  1  1  0  0  0
  2 10  1  0  0  0  0
  3 12  2  0  0  0  0
  4  2  1  0  0  0  0
  5  4  1  0  0  0  0
  6  2  1  0  0  0  0
  6 34  1  0  0  0  0
  7  5  2  0  0  0  0
  8 11  1  0  0  0  0
  8  4  2  0  0  0  0
  9  8  1  0  0  0  0
 11  6  2  0  0  0  0
 12  9  1  0  0  0  0
 12  7  1  0  0  0  0
 13 18  1  1  0  0  0
 13 21  1  0  0  0  0
 14 17  1  0  0  0  0
 15 18  2  0  0  0  0
 16 17  1  1  0  0  0
 16  9  1  0  0  0  0
 19 23  1  6  0  0  0
 19 21  1  0  0  0  0
 19 16  1  0  0  0  0
 20 15  1  0  0  0  0
 21 14  1  6  0  0  0
 22 20  1  6  0  0  0
 22 23  1  0  0  0  0
 22 13  1  0  0  0  0
 24 25  1  0  0  0  0
 25 27  1  0  0  0  0
 25  7  1  1  0  0  0
 26 24  1  0  0  0  0
 26 28  1  0  0  0  0
 28 27  1  0  0  0  0
 29 26  1  0  0  0  0
 30 29  1  0  0  0  0
 31 33  1  0  0  0  0
 31 30  1  0  0  0  0
 32 31  2  0  0  0  0
 35 34  1  0  0  0  0
 35 36  1  0  0  0  0
M  END
>  <MODEL>
7

>  <REMARK>
 VINA RESULT:      -5.4      2.298      7.121
  Name = 
  7 active torsions:
  status: ('A' for Active; 'I' for Inactive)
    1  A    between atoms: C_2  and  C_23
    2  A    between atoms: C_7  and  C_15
    3  A    between atoms: C_7  and  C_19
    4  A    between atoms: N_8  and  C_15
    5  A    between atoms: O_14  and  C_16
    6  A    between atoms: O_14  and  C_21
    7  A    between atoms: C_17  and  N_27
                            x       y       z     vdW  Elec       q    Type
                         _______ _______ _______ _____ _____    ______ ____

>  <TORSDO>
F 7

$$$$
=
 OpenBabel11052410273D

 36 41  0  0  1  0  0  0  0  0999 V2000
  162.4110  204.2940  152.0100 C   0  0  0  0  0  1  0  0  0  0  0  0
  161.2050  205.2130  151.9020 C   0  0  2  0  0  0  0  0  0  0  0  0
  161.8170  209.4220  148.4290 O   0  0  0  0  0  0  0  0  0  0  0  0
  161.3930  206.2120  150.8160 C   0  0  0  0  0  0  0  0  0  0  0  0
  161.5260  206.0000  149.4480 C   0  0  0  0  0  3  0  0  0  0  0  0
  161.0850  206.1320  153.0980 C   0  0  0  0  0  0  0  0  0  0  0  0
  161.6960  207.1180  148.6130 C   0  0  0  0  0  0  0  0  0  0  0  0
  161.4080  207.4790  151.3330 C   0  0  0  0  0  0  0  0  0  0  0  0
  161.5470  208.5860  150.5390 N   0  0  0  0  0  0  0  0  0  0  0  0
  160.0340  204.4780  151.7100 O   0  0  0  0  0  1  0  0  0  0  0  0
  161.2100  207.4200  152.7760 C   0  0  0  0  0  3  0  0  0  0  0  0
  161.6870  208.4160  149.1810 C   0  0  0  0  0  0  0  0  0  0  0  0
  160.0810  212.5370  152.4850 C   0  0  2  0  0  3  0  0  0  0  0  0
  161.2480  212.2190  150.4160 N   0  0  0  0  0  2  0  0  0  0  0  0
  158.8540  213.0670  154.2880 C   0  0  0  0  0  3  0  0  0  0  0  0
  161.5820  209.9500  151.0910 C   0  0  1  0  0  3  0  0  0  0  0  0
  161.9350  210.9880  150.0490 C   0  0  0  0  0  2  0  0  0  0  0  0
  159.0740  213.3040  152.8670 C   0  0  0  0  0  3  0  0  0  0  0  0
  160.2440  210.3750  151.6430 C   0  0  2  0  0  3  0  0  0  0  0  0
  159.6650  212.0990  154.6940 C   0  0  0  0  0  2  0  0  0  0  0  0
  160.0800  211.8290  151.2010 C   0  0  1  0  0  3  0  0  0  0  0  0
  160.5490  211.6750  153.5690 C   0  0  1  0  0  3  0  0  0  0  0  0
  160.2670  210.3180  153.1150 N   0  0  0  0  0  2  0  0  0  0  0  0
  160.6820  206.1360  146.5660 C   0  0  0  0  0  2  0  0  0  0  0  0
  161.8270  206.9500  147.1240 C   0  0  2  0  0  3  0  0  0  0  0  0
  161.2230  205.3380  145.4770 N   0  0  0  0  0  0  0  0  0  0  0  0
  163.0810  206.2030  146.7190 C   0  0  0  0  0  2  0  0  0  0  0  0
  162.5940  205.0460  145.8710 C   0  0  0  0  0  2  0  0  0  0  0  0
  160.4970  204.0800  145.4620 C   0  0  0  0  0  2  0  0  0  0  0  0
  161.2520  203.0570  146.2930 C   0  0  0  0  0  2  0  0  0  0  0  0
  160.7810  201.6810  145.9740 C   0  0  0  0  0  0  0  0  0  0  0  0
  159.9960  201.4960  145.0070 O   0  0  0  0  0  0  0  0  0  0  0  0
  161.2060  200.6010  146.7400 O   0  0  0  0  0  1  0  0  0  0  0  0
  160.8430  205.7310  154.4150 O   0  0  0  0  0  0  0  0  0  0  0  0
  160.8810  206.6260  155.5180 C   0  0  0  0  0  2  0  0  0  0  0  0
  159.4710  206.9580  155.9660 C   0  0  0  0  0  1  0  0  0  0  0  0
  2  1  1  1  0  0  0
  2  6  1  0  0  0  0
  3 12  2  0  0  0  0
  4  8  2  0  0  0  0
  4  2  1  0  0  0  0
  5  4  1  0  0  0  0
  6 34  1  0  0  0  0
  7 12  1  0  0  0  0
  7  5  2  0  0  0  0
  8 11  1  0  0  0  0
  9 16  1  0  0  0  0
  9  8  1  0  0  0  0
 10  2  1  0  0  0  0
 11  6  2  0  0  0  0
 12  9  1  0  0  0  0
 13 18  1  1  0  0  0
 13 22  1  0  0  0  0
 15 20  1  0  0  0  0
 16 17  1  6  0  0  0
 16 19  1  0  0  0  0
 17 14  1  0  0  0  0
 18 15  2  0  0  0  0
 19 23  1  1  0  0  0
 21 14  1  6  0  0  0
 21 19  1  0  0  0  0
 21 13  1  0  0  0  0
 22 20  1  1  0  0  0
 23 22  1  0  0  0  0
 24 25  1  0  0  0  0
 25  7  1  1  0  0  0
 26 28  1  0  0  0  0
 26 24  1  0  0  0  0
 27 25  1  0  0  0  0
 28 27  1  0  0  0  0
 29 26  1  0  0  0  0
 29 30  1  0  0  0  0
 31 30  1  0  0  0  0
 31 33  1  0  0  0  0
 32 31  2  0  0  0  0
 34 35  1  0  0  0  0
 35 36  1  0  0  0  0
M  END
>  <MODEL>
8

>  <REMARK>
 VINA RESULT:      -4.5      2.945      7.500
  Name = 
  7 active torsions:
  status: ('A' for Active; 'I' for Inactive)
    1  A    between atoms: C_2  and  C_23
    2  A    between atoms: C_7  and  C_15
    3  A    between atoms: C_7  and  C_19
    4  A    between atoms: N_8  and  C_15
    5  A    between atoms: O_14  and  C_16
    6  A    between atoms: O_14  and  C_21
    7  A    between atoms: C_17  and  N_27
                            x       y       z     vdW  Elec       q    Type
                         _______ _______ _______ _____ _____    ______ ____

>  <TORSDO>
F 7

$$$$
=
 OpenBabel11052410273D

 36 41  0  0  1  0  0  0  0  0999 V2000
  160.8180  205.1480  152.2010 C   0  0  0  0  0  1  0  0  0  0  0  0
  161.7870  206.2570  151.8250 C   0  0  2  0  0  0  0  0  0  0  0  0
  160.4550  211.2290  153.7390 O   0  0  0  0  0  0  0  0  0  0  0  0
  161.4460  207.5220  152.5290 C   0  0  0  0  0  0  0  0  0  0  0  0
  161.4530  207.7920  153.8930 C   0  0  0  0  0  3  0  0  0  0  0  0
  161.6180  206.6940  150.3860 C   0  0  0  0  0  0  0  0  0  0  0  0
  161.0860  209.0790  154.3210 C   0  0  0  0  0  0  0  0  0  0  0  0
  161.1090  208.4940  151.6250 C   0  0  0  0  0  0  0  0  0  0  0  0
  160.7730  209.7630  152.0150 N   0  0  0  0  0  0  0  0  0  0  0  0
  163.1040  205.8770  152.0870 O   0  0  0  0  0  1  0  0  0  0  0  0
  161.2230  207.9620  150.2730 C   0  0  0  0  0  3  0  0  0  0  0  0
  160.7620  210.0650  153.3570 C   0  0  0  0  0  0  0  0  0  0  0  0
  161.1670  213.3570  149.1040 C   0  0  2  0  0  3  0  0  0  0  0  0
  159.7060  213.0950  150.9860 N   0  0  0  0  0  2  0  0  0  0  0  0
  162.5380  213.8940  147.4100 C   0  0  0  0  0  3  0  0  0  0  0  0
  160.3930  210.8060  151.0490 C   0  0  1  0  0  3  0  0  0  0  0  0
  159.4380  211.8200  151.6370 C   0  0  0  0  0  2  0  0  0  0  0  0
  161.8930  214.3560  148.6330 C   0  0  0  0  0  3  0  0  0  0  0  0
  161.5830  211.6030  150.5740 C   0  0  2  0  0  3  0  0  0  0  0  0
  162.2610  212.6080  147.2360 C   0  0  0  0  0  2  0  0  0  0  0  0
  161.0950  213.0520  150.5360 C   0  0  1  0  0  3  0  0  0  0  0  0
  161.3330  212.1420  148.3070 C   0  0  1  0  0  3  0  0  0  0  0  0
  161.9580  211.1840  149.2130 N   0  0  0  0  0  2  0  0  0  0  0  0
  159.7090  209.8260  156.2530 C   0  0  0  0  0  2  0  0  0  0  0  0
  161.0920  209.4320  155.7830 C   0  0  2  0  0  3  0  0  0  0  0  0
  159.8850  210.8700  157.2500 N   0  0  0  0  0  0  0  0  0  0  0  0
  161.9760  210.6190  156.1050 C   0  0  0  0  0  2  0  0  0  0  0  0
  161.0720  211.5990  156.8250 C   0  0  0  0  0  2  0  0  0  0  0  0
  158.7540  211.7740  157.1310 C   0  0  0  0  0  2  0  0  0  0  0  0
  157.8320  211.2800  156.0300 C   0  0  0  0  0  2  0  0  0  0  0  0
  157.2080  212.4300  155.3220 C   0  0  0  0  0  0  0  0  0  0  0  0
  155.9590  212.5840  155.3540 O   0  0  0  0  0  1  0  0  0  0  0  0
  158.0010  213.3360  154.6240 O   0  0  0  0  0  0  0  0  0  0  0  0
  161.8600  205.9020  149.2590 O   0  0  0  0  0  0  0  0  0  0  0  0
  160.8300  205.2290  148.5490 C   0  0  0  0  0  2  0  0  0  0  0  0
  161.2060  203.7740  148.3460 C   0  0  0  0  0  1  0  0  0  0  0  0
  2 10  1  0  0  0  0
  2  1  1  1  0  0  0
  2  4  1  0  0  0  0
  4  5  1  0  0  0  0
  5  7  2  0  0  0  0
  6  2  1  0  0  0  0
  8  9  1  0  0  0  0
  8  4  2  0  0  0  0
  9 12  1  0  0  0  0
 11  6  2  0  0  0  0
 11  8  1  0  0  0  0
 12  3  2  0  0  0  0
 12  7  1  0  0  0  0
 13 18  1  1  0  0  0
 13 21  1  0  0  0  0
 14 17  1  0  0  0  0
 15 18  2  0  0  0  0
 16 17  1  1  0  0  0
 16  9  1  0  0  0  0
 19 23  1  6  0  0  0
 19 16  1  0  0  0  0
 20 15  1  0  0  0  0
 21 19  1  0  0  0  0
 21 14  1  6  0  0  0
 22 20  1  6  0  0  0
 22 13  1  0  0  0  0
 22 23  1  0  0  0  0
 24 26  1  0  0  0  0
 25  7  1  6  0  0  0
 25 27  1  0  0  0  0
 25 24  1  0  0  0  0
 27 28  1  0  0  0  0
 28 26  1  0  0  0  0
 29 26  1  0  0  0  0
 30 29  1  0  0  0  0
 31 32  1  0  0  0  0
 31 30  1  0  0  0  0
 33 31  2  0  0  0  0
 34  6  1  0  0  0  0
 35 34  1  0  0  0  0
 36 35  1  0  0  0  0
M  END
>  <MODEL>
9

>  <REMARK>
 VINA RESULT:      -4.4      2.530      7.089
  Name = 
  7 active torsions:
  status: ('A' for Active; 'I' for Inactive)
    1  A    between atoms: C_2  and  C_23
    2  A    between atoms: C_7  and  C_15
    3  A    between atoms: C_7  and  C_19
    4  A    between atoms: N_8  and  C_15
    5  A    between atoms: O_14  and  C_16
    6  A    between atoms: O_14  and  C_21
    7  A    between atoms: C_17  and  N_27
                            x       y       z     vdW  Elec       q    Type
                         _______ _______ _______ _____ _____    ______ ____

>  <TORSDO>
F 7

$$$$
