=
 OpenBabel11042422133D

 50 55  0  0  1  0  0  0  0  0999 V2000
  162.6910  205.1130  145.1200 C   0  0  0  0  0  2  0  0  0  0  0  0
  161.6850  202.8200  146.0620 N   0  0  0  0  0  2  0  0  0  0  0  0
  161.3490  205.3370  145.4960 C   0  0  2  0  0  3  0  0  0  0  0  0
  161.1900  205.5420  146.9480 N   0  0  0  0  0  0  0  0  0  0  0  0
  161.2700  203.0720  147.4160 C   0  0  0  0  0  0  0  0  0  0  0  0
  161.1230  202.0040  148.3030 C   0  0  0  0  0  3  0  0  0  0  0  0
  161.8000  203.8940  145.3730 C   0  0  1  0  0  3  0  0  0  0  0  0
  160.5300  203.5380  150.0890 C   0  0  0  0  0  0  0  0  0  0  0  0
  161.0380  204.4120  147.8680 C   0  0  0  0  0  0  0  0  0  0  0  0
  160.6760  204.6190  149.2060 C   0  0  0  0  0  3  0  0  0  0  0  0
  160.7540  202.2370  149.6300 C   0  0  0  0  0  3  0  0  0  0  0  0
  161.0570  206.9150  147.4210 C   0  0  0  0  0  2  0  0  0  0  0  0
  162.2530  207.2930  148.2720 C   0  0  0  0  0  2  0  0  0  0  0  0
  162.4760  208.8010  148.1990 C   0  0  0  0  0  2  0  0  0  0  0  0
  162.5080  209.4370  149.5180 N   0  0  0  0  0  0  0  0  0  0  0  0
  161.5180  209.4820  151.4660 C   0  0  0  0  0  1  0  0  0  0  0  0
  161.8710  208.6350  150.4110 O   0  0  0  0  0  0  0  0  0  0  0  0
  161.7750  210.6970  149.4480 C   0  0  0  0  0  2  0  0  0  0  0  0
  161.3560  210.9810  148.0130 C   0  0  0  0  0  2  0  0  0  0  0  0
  161.4710  212.4040  147.7170 N   0  0  0  0  0  0  0  0  0  0  0  0
  163.8100  212.3010  147.7000 O   0  0  0  0  0  1  0  0  0  0  0  0
  162.8990  214.3500  147.2610 O   0  0  0  0  0  0  0  0  0  0  0  0
  162.7710  212.9990  147.5610 C   0  0  0  0  0  0  0  0  0  0  0  0
  157.9510  213.2820  146.5400 C   0  0  0  0  0  2  0  0  0  0  0  0
  159.5690  213.3960  148.9250 C   0  0  0  0  0  2  0  0  0  0  0  0
  160.2380  213.1810  147.5660 C   0  0  2  0  0  3  0  0  0  0  0  0
  159.8780  212.5450  145.1700 C   0  0  0  0  0  1  0  0  0  0  0  0
  157.3630  213.3160  147.8770 N   0  0  0  0  0  2  0  0  0  0  0  0
  158.2330  214.1090  148.7400 C   0  0  0  0  0  2  0  0  0  0  0  0
  159.2770  212.5260  146.5630 C   0  0  2  0  0  3  0  0  0  0  0  0
  160.1680  203.7310  151.4250 O   0  0  0  0  0  0  0  0  0  0  0  0
  161.1170  204.0400  152.4370 C   0  0  0  0  0  2  0  0  0  0  0  0
  162.1910  204.9390  151.8630 C   0  0  0  0  0  2  0  0  0  0  0  0
  162.2260  206.2420  152.6410 C   0  0  0  0  0  2  0  0  0  0  0  0
  161.1370  206.2860  153.6020 N   0  0  0  0  0  2  0  0  0  0  0  0
  160.7180  208.3950  155.0770 C   0  0  0  0  0  0  0  0  0  0  0  0
  160.9130  207.4200  154.3970 C   0  0  0  0  0  0  0  0  0  0  0  0
  160.4780  209.5820  155.9040 C   0  0  2  0  0  3  0  0  0  0  0  0
  160.5430  209.2500  157.2590 O   0  0  0  0  0  1  0  0  0  0  0  0
  158.8580  211.5550  156.2780 C   0  0  1  0  0  0  0  0  0  0  0  0
  159.1410  210.2410  155.5570 C   0  0  1  0  0  3  0  0  0  0  0  0
  158.2960  211.6230  153.9950 C   0  0  2  0  0  3  0  0  0  0  0  0
  158.4470  212.5140  155.2100 C   0  0  1  0  0  3  0  0  0  0  0  0
  157.4500  212.1140  156.2850 C   0  0  2  0  0  3  0  0  0  0  0  0
  159.0540  210.4510  154.1720 O   0  0  0  0  0  0  0  0  0  0  0  0
  159.8120  212.1270  157.1260 O   0  0  0  0  0  1  0  0  0  0  0  0
  157.3380  213.1440  157.2210 O   0  0  0  0  0  1  0  0  0  0  0  0
  158.7430  212.3450  152.7680 C   0  0  0  0  0  0  0  0  0  0  0  0
  159.8820  212.1240  152.2750 O   0  0  0  0  0  1  0  0  0  0  0  0
  157.9060  213.2810  152.1780 O   0  0  0  0  0  0  0  0  0  0  0  0
  2  5  1  0  0  0  0
  3  1  1  1  0  0  0
  3  4  1  0  0  0  0
  4 12  1  0  0  0  0
  4  9  1  0  0  0  0
  5  9  2  0  0  0  0
  5  6  1  0  0  0  0
  6 11  2  0  0  0  0
  7  1  1  1  0  0  0
  7  3  1  0  0  0  0
  7  2  1  0  0  0  0
  8 31  1  0  0  0  0
  9 10  1  0  0  0  0
 10  8  2  0  0  0  0
 11  8  1  0  0  0  0
 12 13  1  0  0  0  0
 14 13  1  0  0  0  0
 14 15  1  0  0  0  0
 15 17  1  0  0  0  0
 17 16  1  0  0  0  0
 18 15  1  0  0  0  0
 19 18  1  0  0  0  0
 20 19  1  0  0  0  0
 22 23  2  0  0  0  0
 23 21  1  0  0  0  0
 23 20  1  0  0  0  0
 24 30  1  0  0  0  0
 24 28  1  0  0  0  0
 26 20  1  1  0  0  0
 26 25  1  0  0  0  0
 28 29  1  0  0  0  0
 29 25  1  0  0  0  0
 30 27  1  6  0  0  0
 30 26  1  0  0  0  0
 31 32  1  0  0  0  0
 33 32  1  0  0  0  0
 33 34  1  0  0  0  0
 34 35  1  0  0  0  0
 35 37  1  0  0  0  0
 36 38  1  0  0  0  0
 37 36  3  0  0  0  0
 38 39  1  1  0  0  0
 40 44  1  0  0  0  0
 40 46  1  1  0  0  0
 41 38  1  6  0  0  0
 41 40  1  0  0  0  0
 42 48  1  6  0  0  0
 42 45  1  0  0  0  0
 42 43  1  0  0  0  0
 43 40  1  0  0  0  0
 43 44  1  0  0  0  0
 44 47  1  0  0  0  0
 45 41  1  0  0  0  0
 49 48  1  0  0  0  0
 50 48  2  0  0  0  0
M  END
>  <MODEL>
1

>  <REMARK>
 VINA RESULT:      -6.8      0.000      0.000
  Name = 
  18 active torsions:
  status: ('A' for Active; 'I' for Inactive)
    1  A    between atoms: C_1  and  C_14
    2  A    between atoms: C_2  and  C_15
    3  A    between atoms: C_2  and  N_24
    4  A    between atoms: O_3  and  C_39
    5  A    between atoms: O_3  and  C_48
    6  A    between atoms: C_6  and  C_17
    7  A    between atoms: C_8  and  C_17
    8  A    between atoms: C_11  and  N_16
    9  A    between atoms: C_13  and  N_24
   10  A    between atoms: C_13  and  C_34
   11  A    between atoms: C_15  and  N_16
   12  A    between atoms: N_24  and  O_32
   13  A    between atoms: N_25  and  C_49
   14  A    between atoms: N_30  and  C_33
   15  A    between atoms: N_30  and  C_46
   16  A    between atoms: C_34  and  C_49
   17  A    between atoms: C_46  and  C_50
   18  A    between atoms: C_48  and  C_50
                            x       y       z     vdW  Elec       q    Type
                         _______ _______ _______ _____ _____    ______ ____

>  <TORSDO>
F 18

$$$$
=
 OpenBabel11042422133D

 50 55  0  0  1  0  0  0  0  0999 V2000
  158.8000  211.2250  155.8140 C   0  0  0  0  0  2  0  0  0  0  0  0
  160.2130  209.0770  156.5560 N   0  0  0  0  0  2  0  0  0  0  0  0
  160.0710  211.2960  155.2050 C   0  0  2  0  0  3  0  0  0  0  0  0
  160.1730  210.4540  153.9980 N   0  0  0  0  0  0  0  0  0  0  0  0
  160.5590  208.3700  155.3520 C   0  0  0  0  0  0  0  0  0  0  0  0
  160.8960  207.0170  155.4180 C   0  0  0  0  0  3  0  0  0  0  0  0
  159.9040  210.3010  156.3370 C   0  0  1  0  0  3  0  0  0  0  0  0
  161.1680  206.9400  153.0070 C   0  0  0  0  0  0  0  0  0  0  0  0
  160.5270  209.0350  154.0820 C   0  0  0  0  0  0  0  0  0  0  0  0
  160.8290  208.3000  152.9280 C   0  0  0  0  0  3  0  0  0  0  0  0
  161.2000  206.3080  154.2540 C   0  0  0  0  0  3  0  0  0  0  0  0
  160.0380  211.1150  152.7050 C   0  0  0  0  0  2  0  0  0  0  0  0
  159.4590  212.5050  152.8870 C   0  0  0  0  0  2  0  0  0  0  0  0
  159.6230  213.3000  151.5950 C   0  0  0  0  0  2  0  0  0  0  0  0
  158.4240  214.0610  151.2370 N   0  0  0  0  0  0  0  0  0  0  0  0
  156.2540  213.8030  151.2670 C   0  0  0  0  0  1  0  0  0  0  0  0
  157.4040  213.6880  152.0530 O   0  0  0  0  0  0  0  0  0  0  0  0
  158.0470  213.7230  149.8690 C   0  0  0  0  0  2  0  0  0  0  0  0
  158.9540  214.4410  148.8810 C   0  0  0  0  0  2  0  0  0  0  0  0
  158.9650  213.7500  147.5960 N   0  0  0  0  0  0  0  0  0  0  0  0
  156.8980  212.7360  148.0270 O   0  0  0  0  0  1  0  0  0  0  0  0
  157.8470  212.2490  146.0060 O   0  0  0  0  0  0  0  0  0  0  0  0
  157.8610  212.9010  147.2330 C   0  0  0  0  0  0  0  0  0  0  0  0
  162.3800  213.1760  146.0010 C   0  0  0  0  0  2  0  0  0  0  0  0
  159.6770  213.8360  145.2420 C   0  0  0  0  0  2  0  0  0  0  0  0
  160.1060  213.9670  146.7040 C   0  0  2  0  0  3  0  0  0  0  0  0
  161.8300  213.3390  148.4100 C   0  0  0  0  0  1  0  0  0  0  0  0
  161.8640  212.9140  144.6590 N   0  0  0  0  0  2  0  0  0  0  0  0
  160.8940  213.9560  144.3310 C   0  0  0  0  0  2  0  0  0  0  0  0
  161.2690  213.0210  147.0360 C   0  0  2  0  0  3  0  0  0  0  0  0
  161.4730  206.1960  151.8630 O   0  0  0  0  0  0  0  0  0  0  0  0
  161.9330  204.8530  151.9250 C   0  0  0  0  0  2  0  0  0  0  0  0
  160.7710  203.9110  151.6870 C   0  0  0  0  0  2  0  0  0  0  0  0
  161.2990  202.5040  151.4740 C   0  0  0  0  0  2  0  0  0  0  0  0
  160.4250  201.7690  150.5760 N   0  0  0  0  0  2  0  0  0  0  0  0
  160.6210  202.0260  147.9880 C   0  0  0  0  0  0  0  0  0  0  0  0
  160.5310  201.9050  149.1830 C   0  0  0  0  0  0  0  0  0  0  0  0
  160.7290  202.1750  146.5330 C   0  0  2  0  0  3  0  0  0  0  0  0
  161.2090  200.9960  145.9590 O   0  0  0  0  0  1  0  0  0  0  0  0
  161.0560  204.2640  145.0550 C   0  0  1  0  0  0  0  0  0  0  0  0
  161.6090  203.3710  146.1610 C   0  0  1  0  0  3  0  0  0  0  0  0
  161.9620  205.4840  146.8510 C   0  0  2  0  0  3  0  0  0  0  0  0
  161.1500  205.6570  145.5840 C   0  0  1  0  0  3  0  0  0  0  0  0
  161.9730  205.2580  144.3700 C   0  0  2  0  0  3  0  0  0  0  0  0
  161.8610  204.1540  147.2990 O   0  0  0  0  0  0  0  0  0  0  0  0
  159.7940  204.0230  144.5020 O   0  0  0  0  0  1  0  0  0  0  0  0
  161.3710  205.7620  143.2150 O   0  0  0  0  0  1  0  0  0  0  0  0
  161.4790  206.4210  147.9060 C   0  0  0  0  0  0  0  0  0  0  0  0
  162.2030  207.3770  148.2940 O   0  0  0  0  0  0  0  0  0  0  0  0
  160.2310  206.2240  148.4790 O   0  0  0  0  0  1  0  0  0  0  0  0
  3  1  1  6  0  0  0
  3  7  1  0  0  0  0
  4  9  1  0  0  0  0
  4  3  1  0  0  0  0
  5  6  1  0  0  0  0
  5  2  1  0  0  0  0
  7  1  1  6  0  0  0
  7  2  1  0  0  0  0
  8 11  1  0  0  0  0
  9  5  2  0  0  0  0
 10  8  2  0  0  0  0
 10  9  1  0  0  0  0
 11  6  2  0  0  0  0
 12 13  1  0  0  0  0
 12  4  1  0  0  0  0
 14 13  1  0  0  0  0
 15 14  1  0  0  0  0
 15 17  1  0  0  0  0
 16 17  1  0  0  0  0
 18 15  1  0  0  0  0
 19 18  1  0  0  0  0
 20 19  1  0  0  0  0
 22 23  2  0  0  0  0
 23 20  1  0  0  0  0
 23 21  1  0  0  0  0
 24 30  1  0  0  0  0
 25 26  1  0  0  0  0
 26 30  1  0  0  0  0
 26 20  1  1  0  0  0
 28 24  1  0  0  0  0
 29 28  1  0  0  0  0
 29 25  1  0  0  0  0
 30 27  1  1  0  0  0
 31 32  1  0  0  0  0
 31  8  1  0  0  0  0
 33 32  1  0  0  0  0
 34 33  1  0  0  0  0
 35 34  1  0  0  0  0
 36 37  3  0  0  0  0
 37 35  1  0  0  0  0
 38 39  1  6  0  0  0
 38 36  1  0  0  0  0
 40 46  1  6  0  0  0
 40 43  1  0  0  0  0
 40 41  1  0  0  0  0
 41 38  1  1  0  0  0
 41 45  1  0  0  0  0
 42 45  1  0  0  0  0
 42 48  1  1  0  0  0
 43 42  1  0  0  0  0
 44 40  1  0  0  0  0
 44 43  1  0  0  0  0
 47 44  1  0  0  0  0
 48 49  2  0  0  0  0
 48 50  1  0  0  0  0
M  END
>  <MODEL>
2

>  <REMARK>
 VINA RESULT:      -6.2      2.777      8.536
  Name = 
  18 active torsions:
  status: ('A' for Active; 'I' for Inactive)
    1  A    between atoms: C_1  and  C_14
    2  A    between atoms: C_2  and  C_15
    3  A    between atoms: C_2  and  N_24
    4  A    between atoms: O_3  and  C_39
    5  A    between atoms: O_3  and  C_48
    6  A    between atoms: C_6  and  C_17
    7  A    between atoms: C_8  and  C_17
    8  A    between atoms: C_11  and  N_16
    9  A    between atoms: C_13  and  N_24
   10  A    between atoms: C_13  and  C_34
   11  A    between atoms: C_15  and  N_16
   12  A    between atoms: N_24  and  O_32
   13  A    between atoms: N_25  and  C_49
   14  A    between atoms: N_30  and  C_33
   15  A    between atoms: N_30  and  C_46
   16  A    between atoms: C_34  and  C_49
   17  A    between atoms: C_46  and  C_50
   18  A    between atoms: C_48  and  C_50
                            x       y       z     vdW  Elec       q    Type
                         _______ _______ _______ _____ _____    ______ ____

>  <TORSDO>
F 18

$$$$
=
 OpenBabel11042422133D

 50 55  0  0  1  0  0  0  0  0999 V2000
  161.0960  209.8090  155.8440 C   0  0  0  0  0  2  0  0  0  0  0  0
  158.7990  211.1250  155.4580 N   0  0  0  0  0  2  0  0  0  0  0  0
  160.5070  209.3350  154.6520 C   0  0  2  0  0  3  0  0  0  0  0  0
  160.7510  210.2260  153.5020 N   0  0  0  0  0  0  0  0  0  0  0  0
  158.9130  211.7990  154.1920 C   0  0  0  0  0  0  0  0  0  0  0  0
  158.0930  212.8950  153.9170 C   0  0  0  0  0  3  0  0  0  0  0  0
  159.6290  210.1560  155.5770 C   0  0  1  0  0  3  0  0  0  0  0  0
  159.1610  213.1830  151.7560 C   0  0  0  0  0  0  0  0  0  0  0  0
  159.8830  211.3740  153.2260 C   0  0  0  0  0  0  0  0  0  0  0  0
  159.9910  212.0830  152.0220 C   0  0  0  0  0  3  0  0  0  0  0  0
  158.2160  213.5810  152.7060 C   0  0  0  0  0  3  0  0  0  0  0  0
  161.8090  209.8480  152.5730 C   0  0  0  0  0  2  0  0  0  0  0  0
  161.4430  208.5600  151.8610 C   0  0  0  0  0  2  0  0  0  0  0  0
  162.5960  208.1310  150.9580 C   0  0  0  0  0  2  0  0  0  0  0  0
  162.1670  207.2570  149.8620 N   0  0  0  0  0  0  0  0  0  0  0  0
  161.9710  209.1460  148.7810 C   0  0  0  0  0  1  0  0  0  0  0  0
  162.4780  207.8470  148.6790 O   0  0  0  0  0  0  0  0  0  0  0  0
  160.7170  207.1120  149.9210 C   0  0  0  0  0  2  0  0  0  0  0  0
  160.2720  205.9340  149.0680 C   0  0  0  0  0  2  0  0  0  0  0  0
  161.0480  204.7430  149.3910 N   0  0  0  0  0  0  0  0  0  0  0  0
  160.7900  205.0930  151.6920 O   0  0  0  0  0  1  0  0  0  0  0  0
  161.9800  203.2360  151.0920 O   0  0  0  0  0  0  0  0  0  0  0  0
  161.2570  204.3770  150.7670 C   0  0  0  0  0  0  0  0  0  0  0  0
  161.1170  202.1110  146.6320 C   0  0  0  0  0  2  0  0  0  0  0  0
  161.9410  204.8360  147.0990 C   0  0  0  0  0  2  0  0  0  0  0  0
  161.5770  203.9410  148.2850 C   0  0  2  0  0  3  0  0  0  0  0  0
  160.4440  201.8230  148.9980 C   0  0  0  0  0  1  0  0  0  0  0  0
  161.3140  203.0620  145.5390 N   0  0  0  0  0  2  0  0  0  0  0  0
  162.3860  203.9780  145.9180 C   0  0  0  0  0  2  0  0  0  0  0  0
  160.5980  202.8310  147.8740 C   0  0  2  0  0  3  0  0  0  0  0  0
  159.2580  213.8980  150.5590 O   0  0  0  0  0  0  0  0  0  0  0  0
  160.1340  213.5120  149.5080 C   0  0  0  0  0  2  0  0  0  0  0  0
  159.4760  213.7970  148.1740 C   0  0  0  0  0  2  0  0  0  0  0  0
  160.5410  213.8980  147.0980 C   0  0  0  0  0  2  0  0  0  0  0  0
  160.4060  212.8070  146.1490 N   0  0  0  0  0  2  0  0  0  0  0  0
  161.7320  212.7960  143.9040 C   0  0  0  0  0  0  0  0  0  0  0  0
  161.1190  212.8000  144.9400 C   0  0  0  0  0  0  0  0  0  0  0  0
  162.4800  212.7950  142.6420 C   0  0  2  0  0  3  0  0  0  0  0  0
  163.2790  213.9370  142.5520 O   0  0  0  0  0  1  0  0  0  0  0  0
  162.1680  213.0230  140.0910 C   0  0  1  0  0  0  0  0  0  0  0  0
  161.5420  212.6780  141.4390 C   0  0  1  0  0  3  0  0  0  0  0  0
  160.8230  211.0950  140.0090 C   0  0  2  0  0  3  0  0  0  0  0  0
  161.8170  211.8880  139.1870 C   0  0  1  0  0  3  0  0  0  0  0  0
  161.2720  213.2770  138.8960 C   0  0  2  0  0  3  0  0  0  0  0  0
  161.0040  211.3820  141.3750 O   0  0  0  0  0  0  0  0  0  0  0  0
  163.5260  213.3410  139.9920 O   0  0  0  0  0  1  0  0  0  0  0  0
  162.0010  213.8530  137.8530 O   0  0  0  0  0  1  0  0  0  0  0  0
  160.9990  209.6340  139.7630 C   0  0  0  0  0  0  0  0  0  0  0  0
  161.9610  209.0090  140.2830 O   0  0  0  0  0  1  0  0  0  0  0  0
  160.1080  208.9650  138.9360 O   0  0  0  0  0  0  0  0  0  0  0  0
  2  7  1  0  0  0  0
  3  7  1  0  0  0  0
  3  1  1  1  0  0  0
  4  3  1  0  0  0  0
  5  2  1  0  0  0  0
  6  5  1  0  0  0  0
  7  1  1  1  0  0  0
  8 10  2  0  0  0  0
  8 11  1  0  0  0  0
  9  4  1  0  0  0  0
  9  5  2  0  0  0  0
 10  9  1  0  0  0  0
 11  6  2  0  0  0  0
 12  4  1  0  0  0  0
 13 12  1  0  0  0  0
 14 13  1  0  0  0  0
 15 18  1  0  0  0  0
 15 14  1  0  0  0  0
 17 16  1  0  0  0  0
 17 15  1  0  0  0  0
 19 20  1  0  0  0  0
 19 18  1  0  0  0  0
 20 23  1  0  0  0  0
 23 22  2  0  0  0  0
 23 21  1  0  0  0  0
 24 30  1  0  0  0  0
 25 26  1  0  0  0  0
 26 20  1  1  0  0  0
 28 29  1  0  0  0  0
 28 24  1  0  0  0  0
 29 25  1  0  0  0  0
 30 26  1  0  0  0  0
 30 27  1  1  0  0  0
 31  8  1  0  0  0  0
 32 31  1  0  0  0  0
 33 32  1  0  0  0  0
 34 33  1  0  0  0  0
 35 34  1  0  0  0  0
 36 37  3  0  0  0  0
 37 35  1  0  0  0  0
 38 39  1  6  0  0  0
 38 36  1  0  0  0  0
 40 46  1  6  0  0  0
 40 41  1  0  0  0  0
 41 38  1  1  0  0  0
 42 48  1  1  0  0  0
 42 45  1  0  0  0  0
 43 42  1  0  0  0  0
 43 40  1  0  0  0  0
 44 43  1  0  0  0  0
 44 40  1  0  0  0  0
 45 41  1  0  0  0  0
 47 44  1  0  0  0  0
 48 49  1  0  0  0  0
 50 48  2  0  0  0  0
M  END
>  <MODEL>
3

>  <REMARK>
 VINA RESULT:      -5.9      3.786     11.350
  Name = 
  18 active torsions:
  status: ('A' for Active; 'I' for Inactive)
    1  A    between atoms: C_1  and  C_14
    2  A    between atoms: C_2  and  C_15
    3  A    between atoms: C_2  and  N_24
    4  A    between atoms: O_3  and  C_39
    5  A    between atoms: O_3  and  C_48
    6  A    between atoms: C_6  and  C_17
    7  A    between atoms: C_8  and  C_17
    8  A    between atoms: C_11  and  N_16
    9  A    between atoms: C_13  and  N_24
   10  A    between atoms: C_13  and  C_34
   11  A    between atoms: C_15  and  N_16
   12  A    between atoms: N_24  and  O_32
   13  A    between atoms: N_25  and  C_49
   14  A    between atoms: N_30  and  C_33
   15  A    between atoms: N_30  and  C_46
   16  A    between atoms: C_34  and  C_49
   17  A    between atoms: C_46  and  C_50
   18  A    between atoms: C_48  and  C_50
                            x       y       z     vdW  Elec       q    Type
                         _______ _______ _______ _____ _____    ______ ____

>  <TORSDO>
F 18

$$$$
=
 OpenBabel11042422133D

 50 55  0  0  1  0  0  0  0  0999 V2000
  161.5340  207.4560  155.2870 C   0  0  0  0  0  2  0  0  0  0  0  0
  160.2690  209.6130  154.3360 N   0  0  0  0  0  2  0  0  0  0  0  0
  160.8120  207.0760  154.1350 C   0  0  2  0  0  3  0  0  0  0  0  0
  161.5100  207.4250  152.8830 N   0  0  0  0  0  0  0  0  0  0  0  0
  160.7460  209.8180  152.9940 C   0  0  0  0  0  0  0  0  0  0  0  0
  160.6240  211.0770  152.4030 C   0  0  0  0  0  3  0  0  0  0  0  0
  160.4700  208.4190  154.7530 C   0  0  1  0  0  3  0  0  0  0  0  0
  161.7340  210.2710  150.4000 C   0  0  0  0  0  0  0  0  0  0  0  0
  161.3740  208.7500  152.2740 C   0  0  0  0  0  0  0  0  0  0  0  0
  161.8630  209.0020  150.9850 C   0  0  0  0  0  3  0  0  0  0  0  0
  161.1140  211.3000  151.1140 C   0  0  0  0  0  3  0  0  0  0  0  0
  162.2360  206.3590  152.2020 C   0  0  0  0  0  2  0  0  0  0  0  0
  161.3400  205.6830  151.1830 C   0  0  0  0  0  2  0  0  0  0  0  0
  160.7230  204.4300  151.7970 C   0  0  0  0  0  2  0  0  0  0  0  0
  160.5100  203.3610  150.8180 N   0  0  0  0  0  0  0  0  0  0  0  0
  160.8740  201.2130  150.6510 C   0  0  0  0  0  1  0  0  0  0  0  0
  161.4880  202.4300  150.9610 O   0  0  0  0  0  0  0  0  0  0  0  0
  160.6230  203.9260  149.4770 C   0  0  0  0  0  2  0  0  0  0  0  0
  161.6840  203.1810  148.6810 C   0  0  0  0  0  2  0  0  0  0  0  0
  161.3750  203.2150  147.2560 N   0  0  0  0  0  0  0  0  0  0  0  0
  160.8470  200.9340  147.2290 O   0  0  0  0  0  1  0  0  0  0  0  0
  160.6260  202.0330  145.2370 O   0  0  0  0  0  0  0  0  0  0  0  0
  160.9410  202.0150  146.5910 C   0  0  0  0  0  0  0  0  0  0  0  0
  162.6240  205.7420  144.6880 C   0  0  0  0  0  2  0  0  0  0  0  0
  160.1620  204.9010  145.9360 C   0  0  0  0  0  2  0  0  0  0  0  0
  161.5020  204.4920  146.5520 C   0  0  2  0  0  3  0  0  0  0  0  0
  163.9680  204.2780  146.1660 C   0  0  0  0  0  1  0  0  0  0  0  0
  161.3220  205.9560  144.0600 N   0  0  0  0  0  2  0  0  0  0  0  0
  160.3360  206.1750  145.1150 C   0  0  0  0  0  2  0  0  0  0  0  0
  162.6170  204.4470  145.4960 C   0  0  2  0  0  3  0  0  0  0  0  0
  162.2170  210.5340  149.1140 O   0  0  0  0  0  0  0  0  0  0  0  0
  162.4220  211.8550  148.6310 C   0  0  0  0  0  2  0  0  0  0  0  0
  161.4940  212.1130  147.4630 C   0  0  0  0  0  2  0  0  0  0  0  0
  161.8270  213.4580  146.8420 C   0  0  0  0  0  2  0  0  0  0  0  0
  162.3810  213.2750  145.5110 N   0  0  0  0  0  2  0  0  0  0  0  0
  160.8450  213.2230  143.4050 C   0  0  0  0  0  0  0  0  0  0  0  0
  161.5560  213.2470  144.3770 C   0  0  0  0  0  0  0  0  0  0  0  0
  159.9770  213.1930  142.2230 C   0  0  2  0  0  3  0  0  0  0  0  0
  158.6400  213.3380  142.6000 O   0  0  0  0  0  1  0  0  0  0  0  0
  159.3830  211.8250  140.1170 C   0  0  1  0  0  0  0  0  0  0  0  0
  160.1880  211.9140  141.4100 C   0  0  1  0  0  3  0  0  0  0  0  0
  161.6110  211.1170  139.8580 C   0  0  2  0  0  3  0  0  0  0  0  0
  160.3670  211.4470  139.0600 C   0  0  1  0  0  3  0  0  0  0  0  0
  159.2420  210.4890  139.4160 C   0  0  2  0  0  3  0  0  0  0  0  0
  161.5520  211.7540  141.1110 O   0  0  0  0  0  0  0  0  0  0  0  0
  158.5810  212.8910  139.6980 O   0  0  0  0  0  1  0  0  0  0  0  0
  158.2490  210.5540  138.4360 O   0  0  0  0  0  1  0  0  0  0  0  0
  162.8300  211.5540  139.1160 C   0  0  0  0  0  0  0  0  0  0  0  0
  163.5750  212.4550  139.5850 O   0  0  0  0  0  1  0  0  0  0  0  0
  163.1320  210.9760  137.8920 O   0  0  0  0  0  0  0  0  0  0  0  0
  2  7  1  0  0  0  0
  3  7  1  0  0  0  0
  3  1  1  1  0  0  0
  4  3  1  0  0  0  0
  5  2  1  0  0  0  0
  6  5  1  0  0  0  0
  7  1  1  1  0  0  0
  8 10  2  0  0  0  0
  8 11  1  0  0  0  0
  9  4  1  0  0  0  0
  9  5  2  0  0  0  0
 10  9  1  0  0  0  0
 11  6  2  0  0  0  0
 12  4  1  0  0  0  0
 13 14  1  0  0  0  0
 13 12  1  0  0  0  0
 15 17  1  0  0  0  0
 15 14  1  0  0  0  0
 16 17  1  0  0  0  0
 18 15  1  0  0  0  0
 19 18  1  0  0  0  0
 20 19  1  0  0  0  0
 22 23  2  0  0  0  0
 23 21  1  0  0  0  0
 23 20  1  0  0  0  0
 24 30  1  0  0  0  0
 25 26  1  0  0  0  0
 26 20  1  6  0  0  0
 28 24  1  0  0  0  0
 28 29  1  0  0  0  0
 29 25  1  0  0  0  0
 30 27  1  1  0  0  0
 30 26  1  0  0  0  0
 31  8  1  0  0  0  0
 32 31  1  0  0  0  0
 33 32  1  0  0  0  0
 34 33  1  0  0  0  0
 35 34  1  0  0  0  0
 36 37  3  0  0  0  0
 37 35  1  0  0  0  0
 38 39  1  1  0  0  0
 38 36  1  0  0  0  0
 40 46  1  6  0  0  0
 40 41  1  0  0  0  0
 41 38  1  6  0  0  0
 42 48  1  6  0  0  0
 42 45  1  0  0  0  0
 43 44  1  0  0  0  0
 43 42  1  0  0  0  0
 43 40  1  0  0  0  0
 44 40  1  0  0  0  0
 45 41  1  0  0  0  0
 47 44  1  0  0  0  0
 48 49  1  0  0  0  0
 50 48  2  0  0  0  0
M  END
>  <MODEL>
4

>  <REMARK>
 VINA RESULT:      -5.5      4.047     11.011
  Name = 
  18 active torsions:
  status: ('A' for Active; 'I' for Inactive)
    1  A    between atoms: C_1  and  C_14
    2  A    between atoms: C_2  and  C_15
    3  A    between atoms: C_2  and  N_24
    4  A    between atoms: O_3  and  C_39
    5  A    between atoms: O_3  and  C_48
    6  A    between atoms: C_6  and  C_17
    7  A    between atoms: C_8  and  C_17
    8  A    between atoms: C_11  and  N_16
    9  A    between atoms: C_13  and  N_24
   10  A    between atoms: C_13  and  C_34
   11  A    between atoms: C_15  and  N_16
   12  A    between atoms: N_24  and  O_32
   13  A    between atoms: N_25  and  C_49
   14  A    between atoms: N_30  and  C_33
   15  A    between atoms: N_30  and  C_46
   16  A    between atoms: C_34  and  C_49
   17  A    between atoms: C_46  and  C_50
   18  A    between atoms: C_48  and  C_50
                            x       y       z     vdW  Elec       q    Type
                         _______ _______ _______ _____ _____    ______ ____

>  <TORSDO>
F 18

$$$$
=
 OpenBabel11042422133D

 50 55  0  0  1  0  0  0  0  0999 V2000
  156.7690  213.9750  153.4450 C   0  0  0  0  0  2  0  0  0  0  0  0
  157.4240  212.9100  155.8100 N   0  0  0  0  0  2  0  0  0  0  0  0
  158.1370  214.2290  153.6830 C   0  0  2  0  0  3  0  0  0  0  0  0
  158.9950  213.0710  153.3710 N   0  0  0  0  0  0  0  0  0  0  0  0
  158.4670  211.9510  155.5600 C   0  0  0  0  0  0  0  0  0  0  0  0
  158.7070  210.9350  156.4870 C   0  0  0  0  0  3  0  0  0  0  0  0
  157.3050  213.7660  154.8630 C   0  0  1  0  0  3  0  0  0  0  0  0
  160.4490  210.0160  155.0680 C   0  0  0  0  0  0  0  0  0  0  0  0
  159.2370  212.0110  154.3530 C   0  0  0  0  0  0  0  0  0  0  0  0
  160.2160  211.0330  154.1280 C   0  0  0  0  0  3  0  0  0  0  0  0
  159.6930  209.9760  156.2420 C   0  0  0  0  0  3  0  0  0  0  0  0
  159.7000  213.0840  152.0950 C   0  0  0  0  0  2  0  0  0  0  0  0
  159.1190  214.1490  151.1860 C   0  0  0  0  0  2  0  0  0  0  0  0
  158.5780  213.4980  149.9170 C   0  0  0  0  0  2  0  0  0  0  0  0
  159.2190  214.0030  148.7000 N   0  0  0  0  0  0  0  0  0  0  0  0
  157.7230  212.9620  147.4950 C   0  0  0  0  0  1  0  0  0  0  0  0
  158.2650  214.2230  147.7570 O   0  0  0  0  0  0  0  0  0  0  0  0
  160.1240  212.9800  148.1880 C   0  0  0  0  0  2  0  0  0  0  0  0
  160.9330  212.3780  149.3270 C   0  0  0  0  0  2  0  0  0  0  0  0
  162.1440  211.7440  148.8180 N   0  0  0  0  0  0  0  0  0  0  0  0
  162.8760  213.7370  147.8310 O   0  0  0  0  0  1  0  0  0  0  0  0
  164.2630  211.9350  147.5900 O   0  0  0  0  0  0  0  0  0  0  0  0
  163.0950  212.5190  148.0680 C   0  0  0  0  0  0  0  0  0  0  0  0
  162.0010  208.4610  150.7540 C   0  0  0  0  0  2  0  0  0  0  0  0
  161.6720  209.4490  148.0630 C   0  0  0  0  0  2  0  0  0  0  0  0
  162.3580  210.3250  149.1130 C   0  0  2  0  0  3  0  0  0  0  0  0
  162.7600  210.6760  151.5610 C   0  0  0  0  0  1  0  0  0  0  0  0
  161.2100  207.7460  149.7550 N   0  0  0  0  0  2  0  0  0  0  0  0
  161.8100  207.9780  148.4440 C   0  0  0  0  0  2  0  0  0  0  0  0
  161.8960  209.9680  150.5340 C   0  0  2  0  0  3  0  0  0  0  0  0
  161.4220  209.0360  154.8550 O   0  0  0  0  0  0  0  0  0  0  0  0
  161.1790  207.6550  155.0860 C   0  0  0  0  0  2  0  0  0  0  0  0
  160.7520  206.9960  153.7920 C   0  0  0  0  0  2  0  0  0  0  0  0
  161.4870  205.6780  153.6310 C   0  0  0  0  0  2  0  0  0  0  0  0
  161.9610  205.5280  152.2650 N   0  0  0  0  0  2  0  0  0  0  0  0
  161.0160  203.6690  150.6990 C   0  0  0  0  0  0  0  0  0  0  0  0
  161.4520  204.5270  151.4240 C   0  0  0  0  0  0  0  0  0  0  0  0
  160.4860  202.6270  149.8150 C   0  0  2  0  0  3  0  0  0  0  0  0
  160.4640  201.3960  150.4750 O   0  0  0  0  0  1  0  0  0  0  0  0
  160.5410  201.9240  147.3330 C   0  0  1  0  0  0  0  0  0  0  0  0
  161.2850  202.5430  148.5120 C   0  0  1  0  0  3  0  0  0  0  0  0
  161.7620  203.8460  146.7390 C   0  0  2  0  0  3  0  0  0  0  0  0
  160.7330  202.8760  146.1980 C   0  0  1  0  0  3  0  0  0  0  0  0
  161.3200  201.4770  146.1120 C   0  0  2  0  0  3  0  0  0  0  0  0
  161.7410  203.8200  148.1460 O   0  0  0  0  0  0  0  0  0  0  0  0
  159.2000  201.5470  147.4490 O   0  0  0  0  0  1  0  0  0  0  0  0
  160.5180  200.6870  145.2840 O   0  0  0  0  0  1  0  0  0  0  0  0
  161.4800  205.2260  146.2460 C   0  0  0  0  0  0  0  0  0  0  0  0
  160.4190  205.8180  146.5760 O   0  0  0  0  0  1  0  0  0  0  0  0
  162.3860  205.8510  145.4020 O   0  0  0  0  0  0  0  0  0  0  0  0
  3  1  1  6  0  0  0
  3  7  1  0  0  0  0
  4  3  1  0  0  0  0
  4  9  1  0  0  0  0
  5  2  1  0  0  0  0
  5  6  1  0  0  0  0
  7  1  1  6  0  0  0
  7  2  1  0  0  0  0
  8 11  1  0  0  0  0
  9  5  2  0  0  0  0
 10  9  1  0  0  0  0
 10  8  2  0  0  0  0
 11  6  2  0  0  0  0
 12  4  1  0  0  0  0
 13 12  1  0  0  0  0
 14 13  1  0  0  0  0
 15 14  1  0  0  0  0
 16 17  1  0  0  0  0
 17 15  1  0  0  0  0
 18 15  1  0  0  0  0
 18 19  1  0  0  0  0
 20 19  1  0  0  0  0
 21 23  1  0  0  0  0
 22 23  2  0  0  0  0
 23 20  1  0  0  0  0
 25 29  1  0  0  0  0
 25 26  1  0  0  0  0
 26 20  1  6  0  0  0
 26 30  1  0  0  0  0
 28 24  1  0  0  0  0
 29 28  1  0  0  0  0
 30 24  1  0  0  0  0
 30 27  1  1  0  0  0
 31  8  1  0  0  0  0
 31 32  1  0  0  0  0
 33 32  1  0  0  0  0
 34 33  1  0  0  0  0
 35 34  1  0  0  0  0
 36 37  3  0  0  0  0
 37 35  1  0  0  0  0
 38 39  1  1  0  0  0
 38 36  1  0  0  0  0
 40 46  1  1  0  0  0
 40 41  1  0  0  0  0
 41 38  1  1  0  0  0
 42 48  1  1  0  0  0
 42 45  1  0  0  0  0
 43 42  1  0  0  0  0
 43 40  1  0  0  0  0
 44 43  1  0  0  0  0
 44 40  1  0  0  0  0
 45 41  1  0  0  0  0
 47 44  1  0  0  0  0
 48 49  1  0  0  0  0
 50 48  2  0  0  0  0
M  END
>  <MODEL>
5

>  <REMARK>
 VINA RESULT:      -5.2      2.624      9.116
  Name = 
  18 active torsions:
  status: ('A' for Active; 'I' for Inactive)
    1  A    between atoms: C_1  and  C_14
    2  A    between atoms: C_2  and  C_15
    3  A    between atoms: C_2  and  N_24
    4  A    between atoms: O_3  and  C_39
    5  A    between atoms: O_3  and  C_48
    6  A    between atoms: C_6  and  C_17
    7  A    between atoms: C_8  and  C_17
    8  A    between atoms: C_11  and  N_16
    9  A    between atoms: C_13  and  N_24
   10  A    between atoms: C_13  and  C_34
   11  A    between atoms: C_15  and  N_16
   12  A    between atoms: N_24  and  O_32
   13  A    between atoms: N_25  and  C_49
   14  A    between atoms: N_30  and  C_33
   15  A    between atoms: N_30  and  C_46
   16  A    between atoms: C_34  and  C_49
   17  A    between atoms: C_46  and  C_50
   18  A    between atoms: C_48  and  C_50
                            x       y       z     vdW  Elec       q    Type
                         _______ _______ _______ _____ _____    ______ ____

>  <TORSDO>
F 18

$$$$
=
 OpenBabel11042422133D

 50 55  0  0  1  0  0  0  0  0999 V2000
  162.8790  212.0420  148.0370 C   0  0  0  0  0  2  0  0  0  0  0  0
  162.3730  209.9350  149.6060 N   0  0  0  0  0  2  0  0  0  0  0  0
  161.4840  211.9510  148.2220 C   0  0  2  0  0  3  0  0  0  0  0  0
  161.0420  212.5160  149.5120 N   0  0  0  0  0  0  0  0  0  0  0  0
  161.6910  210.4360  150.7700 C   0  0  0  0  0  0  0  0  0  0  0  0
  161.6870  209.6840  151.9450 C   0  0  0  0  0  3  0  0  0  0  0  0
  162.3110  210.7420  148.6130 C   0  0  1  0  0  3  0  0  0  0  0  0
  160.4290  211.4210  153.0820 C   0  0  0  0  0  0  0  0  0  0  0  0
  161.0440  211.7150  150.7390 C   0  0  0  0  0  0  0  0  0  0  0  0
  160.4270  212.1870  151.9060 C   0  0  0  0  0  3  0  0  0  0  0  0
  161.0590  210.1740  153.0930 C   0  0  0  0  0  3  0  0  0  0  0  0
  160.4770  213.8600  149.4970 C   0  0  0  0  0  2  0  0  0  0  0  0
  160.2230  214.3050  148.0700 C   0  0  0  0  0  2  0  0  0  0  0  0
  158.9370  213.6650  147.5560 C   0  0  0  0  0  2  0  0  0  0  0  0
  158.6450  214.0100  146.1620 N   0  0  0  0  0  0  0  0  0  0  0  0
  157.0780  212.5460  146.5780 C   0  0  0  0  0  1  0  0  0  0  0  0
  157.9600  212.9870  145.5880 O   0  0  0  0  0  0  0  0  0  0  0  0
  159.9060  214.1620  145.4450 C   0  0  0  0  0  2  0  0  0  0  0  0
  160.3030  212.8440  144.7960 C   0  0  0  0  0  2  0  0  0  0  0  0
  161.3060  213.0630  143.7600 N   0  0  0  0  0  0  0  0  0  0  0  0
  162.6960  214.2390  145.2330 O   0  0  0  0  0  1  0  0  0  0  0  0
  163.4870  213.9840  143.1030 O   0  0  0  0  0  0  0  0  0  0  0  0
  162.5130  213.7810  144.0740 C   0  0  0  0  0  0  0  0  0  0  0  0
  160.4180  213.0250  140.0520 C   0  0  0  0  0  2  0  0  0  0  0  0
  162.3050  211.8300  141.8770 C   0  0  0  0  0  2  0  0  0  0  0  0
  161.0520  212.5170  142.4250 C   0  0  2  0  0  3  0  0  0  0  0  0
  159.1710  214.0890  141.9090 C   0  0  0  0  0  1  0  0  0  0  0  0
  161.7090  212.5060  139.6060 N   0  0  0  0  0  2  0  0  0  0  0  0
  162.0570  211.3640  140.4460 C   0  0  0  0  0  2  0  0  0  0  0  0
  160.5350  213.5960  141.4630 C   0  0  2  0  0  3  0  0  0  0  0  0
  159.8160  211.8800  154.2520 O   0  0  0  0  0  0  0  0  0  0  0  0
  159.8550  211.1520  155.4720 C   0  0  0  0  0  2  0  0  0  0  0  0
  159.4120  209.7260  155.2210 C   0  0  0  0  0  2  0  0  0  0  0  0
  160.2210  208.7860  156.0970 C   0  0  0  0  0  2  0  0  0  0  0  0
  159.9650  207.4050  155.7260 N   0  0  0  0  0  2  0  0  0  0  0  0
  161.1580  206.3110  153.6810 C   0  0  0  0  0  0  0  0  0  0  0  0
  160.6060  206.8170  154.6250 C   0  0  0  0  0  0  0  0  0  0  0  0
  161.8330  205.6950  152.5340 C   0  0  2  0  0  3  0  0  0  0  0  0
  162.9900  206.4080  152.2130 O   0  0  0  0  0  1  0  0  0  0  0  0
  161.4120  206.2260  150.0450 C   0  0  1  0  0  0  0  0  0  0  0  0
  160.8960  205.5860  151.3290 C   0  0  1  0  0  3  0  0  0  0  0  0
  160.4250  204.1220  149.6860 C   0  0  2  0  0  3  0  0  0  0  0  0
  161.2400  205.1890  148.9850 C   0  0  1  0  0  3  0  0  0  0  0  0
  160.4520  206.4850  148.9020 C   0  0  2  0  0  3  0  0  0  0  0  0
  160.5920  204.2380  151.0780 O   0  0  0  0  0  0  0  0  0  0  0  0
  162.6900  206.7920  149.9890 O   0  0  0  0  0  1  0  0  0  0  0  0
  161.0380  207.3250  147.9520 O   0  0  0  0  0  1  0  0  0  0  0  0
  160.8480  202.7660  149.2290 C   0  0  0  0  0  0  0  0  0  0  0  0
  161.2150  202.5780  148.0380 O   0  0  0  0  0  0  0  0  0  0  0  0
  160.8150  201.7010  150.1170 O   0  0  0  0  0  1  0  0  0  0  0  0
  2  5  1  0  0  0  0
  3  1  1  1  0  0  0
  3  7  1  0  0  0  0
  3  4  1  0  0  0  0
  4  9  1  0  0  0  0
  5  6  1  0  0  0  0
  6 11  2  0  0  0  0
  7  1  1  1  0  0  0
  7  2  1  0  0  0  0
  8 11  1  0  0  0  0
  8 31  1  0  0  0  0
  9  5  2  0  0  0  0
  9 10  1  0  0  0  0
 10  8  2  0  0  0  0
 12  4  1  0  0  0  0
 13 12  1  0  0  0  0
 14 13  1  0  0  0  0
 15 14  1  0  0  0  0
 17 15  1  0  0  0  0
 17 16  1  0  0  0  0
 18 15  1  0  0  0  0
 19 18  1  0  0  0  0
 20 23  1  0  0  0  0
 20 19  1  0  0  0  0
 22 23  2  0  0  0  0
 23 21  1  0  0  0  0
 24 30  1  0  0  0  0
 25 26  1  0  0  0  0
 26 20  1  1  0  0  0
 28 24  1  0  0  0  0
 28 29  1  0  0  0  0
 29 25  1  0  0  0  0
 30 27  1  1  0  0  0
 30 26  1  0  0  0  0
 31 32  1  0  0  0  0
 33 32  1  0  0  0  0
 33 34  1  0  0  0  0
 35 34  1  0  0  0  0
 36 37  3  0  0  0  0
 37 35  1  0  0  0  0
 38 39  1  6  0  0  0
 38 36  1  0  0  0  0
 40 46  1  1  0  0  0
 40 41  1  0  0  0  0
 41 38  1  1  0  0  0
 42 48  1  6  0  0  0
 42 45  1  0  0  0  0
 43 42  1  0  0  0  0
 43 40  1  0  0  0  0
 44 43  1  0  0  0  0
 44 40  1  0  0  0  0
 45 41  1  0  0  0  0
 47 44  1  0  0  0  0
 48 50  1  0  0  0  0
 49 48  2  0  0  0  0
M  END
>  <MODEL>
6

>  <REMARK>
 VINA RESULT:      -5.0      2.676      7.440
  Name = 
  18 active torsions:
  status: ('A' for Active; 'I' for Inactive)
    1  A    between atoms: C_1  and  C_14
    2  A    between atoms: C_2  and  C_15
    3  A    between atoms: C_2  and  N_24
    4  A    between atoms: O_3  and  C_39
    5  A    between atoms: O_3  and  C_48
    6  A    between atoms: C_6  and  C_17
    7  A    between atoms: C_8  and  C_17
    8  A    between atoms: C_11  and  N_16
    9  A    between atoms: C_13  and  N_24
   10  A    between atoms: C_13  and  C_34
   11  A    between atoms: C_15  and  N_16
   12  A    between atoms: N_24  and  O_32
   13  A    between atoms: N_25  and  C_49
   14  A    between atoms: N_30  and  C_33
   15  A    between atoms: N_30  and  C_46
   16  A    between atoms: C_34  and  C_49
   17  A    between atoms: C_46  and  C_50
   18  A    between atoms: C_48  and  C_50
                            x       y       z     vdW  Elec       q    Type
                         _______ _______ _______ _____ _____    ______ ____

>  <TORSDO>
F 18

$$$$
=
 OpenBabel11042422133D

 50 55  0  0  1  0  0  0  0  0999 V2000
  158.2730  212.5350  154.4550 C   0  0  0  0  0  2  0  0  0  0  0  0
  158.8770  210.6720  156.2780 N   0  0  0  0  0  2  0  0  0  0  0  0
  159.6770  212.4450  154.5500 C   0  0  2  0  0  3  0  0  0  0  0  0
  160.2290  211.3090  153.7870 N   0  0  0  0  0  0  0  0  0  0  0  0
  159.6570  209.6680  155.6050 C   0  0  0  0  0  0  0  0  0  0  0  0
  159.7460  208.3840  156.1460 C   0  0  0  0  0  3  0  0  0  0  0  0
  158.8680  211.7900  155.6530 C   0  0  1  0  0  3  0  0  0  0  0  0
  161.1140  207.6620  154.2760 C   0  0  0  0  0  0  0  0  0  0  0  0
  160.3150  209.9660  154.3670 C   0  0  0  0  0  0  0  0  0  0  0  0
  161.0310  208.9490  153.7210 C   0  0  0  0  0  3  0  0  0  0  0  0
  160.4710  207.3890  155.4860 C   0  0  0  0  0  3  0  0  0  0  0  0
  160.8090  211.5980  152.4800 C   0  0  0  0  0  2  0  0  0  0  0  0
  159.7320  212.0700  151.5230 C   0  0  0  0  0  2  0  0  0  0  0  0
  160.2450  213.2650  150.7250 C   0  0  0  0  0  2  0  0  0  0  0  0
  160.4830  212.9490  149.3150 N   0  0  0  0  0  0  0  0  0  0  0  0
  161.8940  211.4620  148.5580 C   0  0  0  0  0  1  0  0  0  0  0  0
  161.8120  212.7350  149.1280 O   0  0  0  0  0  0  0  0  0  0  0  0
  160.0990  214.1000  148.5060 C   0  0  0  0  0  2  0  0  0  0  0  0
  160.7820  214.0420  147.1480 C   0  0  0  0  0  2  0  0  0  0  0  0
  159.7950  213.9270  146.0810 N   0  0  0  0  0  0  0  0  0  0  0  0
  158.0170  214.2310  147.5740 O   0  0  0  0  0  1  0  0  0  0  0  0
  157.4420  213.9580  145.3780 O   0  0  0  0  0  0  0  0  0  0  0  0
  158.3950  214.0480  146.3860 C   0  0  0  0  0  0  0  0  0  0  0  0
  162.1550  212.8780  143.2750 C   0  0  0  0  0  2  0  0  0  0  0  0
  159.3580  212.7410  143.9680 C   0  0  0  0  0  2  0  0  0  0  0  0
  160.2770  213.7100  144.7150 C   0  0  2  0  0  3  0  0  0  0  0  0
  162.6540  214.3140  145.2300 C   0  0  0  0  0  1  0  0  0  0  0  0
  161.2650  211.8600  142.7190 N   0  0  0  0  0  2  0  0  0  0  0  0
  159.9320  212.4410  142.5870 C   0  0  0  0  0  2  0  0  0  0  0  0
  161.7350  213.2280  144.7000 C   0  0  2  0  0  3  0  0  0  0  0  0
  161.8260  206.6400  153.6420 O   0  0  0  0  0  0  0  0  0  0  0  0
  161.1940  205.6600  152.8290 C   0  0  0  0  0  2  0  0  0  0  0  0
  161.5040  205.9370  151.3730 C   0  0  0  0  0  2  0  0  0  0  0  0
  162.5420  207.0410  151.2810 C   0  0  0  0  0  2  0  0  0  0  0  0
  162.3830  207.7810  150.0400 N   0  0  0  0  0  2  0  0  0  0  0  0
  162.0830  206.5500  147.7610 C   0  0  0  0  0  0  0  0  0  0  0  0
  162.2200  207.1190  148.8140 C   0  0  0  0  0  0  0  0  0  0  0  0
  161.9200  205.8570  146.4790 C   0  0  2  0  0  3  0  0  0  0  0  0
  160.6930  206.1890  145.9010 O   0  0  0  0  0  1  0  0  0  0  0  0
  161.2910  203.7400  147.8130 C   0  0  1  0  0  0  0  0  0  0  0  0
  162.0630  204.3420  146.6430 C   0  0  1  0  0  3  0  0  0  0  0  0
  161.1170  202.4620  145.8450 C   0  0  2  0  0  3  0  0  0  0  0  0
  160.5410  202.5820  147.2410 C   0  0  1  0  0  3  0  0  0  0  0  0
  161.6210  202.3360  148.2810 C   0  0  2  0  0  3  0  0  0  0  0  0
  161.6800  203.6920  145.4590 O   0  0  0  0  0  0  0  0  0  0  0  0
  160.4580  204.5340  148.6070 O   0  0  0  0  0  1  0  0  0  0  0  0
  161.0250  202.0820  149.5180 O   0  0  0  0  0  1  0  0  0  0  0  0
  160.0530  202.0570  144.8810 C   0  0  0  0  0  0  0  0  0  0  0  0
  159.7600  200.8420  144.7250 O   0  0  0  0  0  1  0  0  0  0  0  0
  159.3980  203.0260  144.1360 O   0  0  0  0  0  0  0  0  0  0  0  0
  3  1  1  6  0  0  0
  3  7  1  0  0  0  0
  4  9  1  0  0  0  0
  4  3  1  0  0  0  0
  5  6  1  0  0  0  0
  5  2  1  0  0  0  0
  7  1  1  6  0  0  0
  7  2  1  0  0  0  0
  8 11  1  0  0  0  0
  9  5  2  0  0  0  0
 10  8  2  0  0  0  0
 10  9  1  0  0  0  0
 11  6  2  0  0  0  0
 12  4  1  0  0  0  0
 13 12  1  0  0  0  0
 14 13  1  0  0  0  0
 15 14  1  0  0  0  0
 16 17  1  0  0  0  0
 17 15  1  0  0  0  0
 18 15  1  0  0  0  0
 19 18  1  0  0  0  0
 20 23  1  0  0  0  0
 20 19  1  0  0  0  0
 22 23  2  0  0  0  0
 23 21  1  0  0  0  0
 24 30  1  0  0  0  0
 25 26  1  0  0  0  0
 26 20  1  1  0  0  0
 28 24  1  0  0  0  0
 29 28  1  0  0  0  0
 29 25  1  0  0  0  0
 30 26  1  0  0  0  0
 30 27  1  6  0  0  0
 31  8  1  0  0  0  0
 32 31  1  0  0  0  0
 33 32  1  0  0  0  0
 34 33  1  0  0  0  0
 35 34  1  0  0  0  0
 36 37  3  0  0  0  0
 37 35  1  0  0  0  0
 38 39  1  1  0  0  0
 38 36  1  0  0  0  0
 40 44  1  0  0  0  0
 40 46  1  1  0  0  0
 41 38  1  6  0  0  0
 41 40  1  0  0  0  0
 42 48  1  6  0  0  0
 42 43  1  0  0  0  0
 43 40  1  0  0  0  0
 43 44  1  0  0  0  0
 44 47  1  0  0  0  0
 45 42  1  0  0  0  0
 45 41  1  0  0  0  0
 49 48  1  0  0  0  0
 50 48  2  0  0  0  0
M  END
>  <MODEL>
7

>  <REMARK>
 VINA RESULT:      -4.9      2.971      8.643
  Name = 
  18 active torsions:
  status: ('A' for Active; 'I' for Inactive)
    1  A    between atoms: C_1  and  C_14
    2  A    between atoms: C_2  and  C_15
    3  A    between atoms: C_2  and  N_24
    4  A    between atoms: O_3  and  C_39
    5  A    between atoms: O_3  and  C_48
    6  A    between atoms: C_6  and  C_17
    7  A    between atoms: C_8  and  C_17
    8  A    between atoms: C_11  and  N_16
    9  A    between atoms: C_13  and  N_24
   10  A    between atoms: C_13  and  C_34
   11  A    between atoms: C_15  and  N_16
   12  A    between atoms: N_24  and  O_32
   13  A    between atoms: N_25  and  C_49
   14  A    between atoms: N_30  and  C_33
   15  A    between atoms: N_30  and  C_46
   16  A    between atoms: C_34  and  C_49
   17  A    between atoms: C_46  and  C_50
   18  A    between atoms: C_48  and  C_50
                            x       y       z     vdW  Elec       q    Type
                         _______ _______ _______ _____ _____    ______ ____

>  <TORSDO>
F 18

$$$$
=
 OpenBabel11042422133D

 50 55  0  0  1  0  0  0  0  0999 V2000
  158.3060  212.9940  151.4550 C   0  0  0  0  0  2  0  0  0  0  0  0
  158.8970  213.7520  153.9520 N   0  0  0  0  0  2  0  0  0  0  0  0
  159.6840  212.7820  151.6690 C   0  0  2  0  0  3  0  0  0  0  0  0
  159.9620  211.5340  152.4060 N   0  0  0  0  0  0  0  0  0  0  0  0
  159.4290  212.5960  154.6230 C   0  0  0  0  0  0  0  0  0  0  0  0
  159.4150  212.5400  156.0180 C   0  0  0  0  0  3  0  0  0  0  0  0
  158.9550  213.6510  152.6760 C   0  0  1  0  0  3  0  0  0  0  0  0
  160.3940  210.3190  155.9640 C   0  0  0  0  0  0  0  0  0  0  0  0
  159.9420  211.4890  153.8700 C   0  0  0  0  0  0  0  0  0  0  0  0
  160.4130  210.3640  154.5610 C   0  0  0  0  0  3  0  0  0  0  0  0
  159.8960  211.4090  156.6830 C   0  0  0  0  0  3  0  0  0  0  0  0
  160.3860  210.3760  151.6280 C   0  0  0  0  0  2  0  0  0  0  0  0
  161.8040  210.5720  151.1290 C   0  0  0  0  0  2  0  0  0  0  0  0
  161.8320  211.6910  150.0920 C   0  0  0  0  0  2  0  0  0  0  0  0
  161.8520  211.1910  148.7150 N   0  0  0  0  0  0  0  0  0  0  0  0
  161.6740  209.0390  148.3850 C   0  0  0  0  0  1  0  0  0  0  0  0
  162.5930  210.0530  148.6690 O   0  0  0  0  0  0  0  0  0  0  0  0
  162.5050  212.1830  147.8670 C   0  0  0  0  0  2  0  0  0  0  0  0
  161.7970  213.5250  147.9880 C   0  0  0  0  0  2  0  0  0  0  0  0
  161.1270  213.8670  146.7390 N   0  0  0  0  0  0  0  0  0  0  0  0
  163.1650  214.1080  145.6110 O   0  0  0  0  0  1  0  0  0  0  0  0
  161.2850  214.4530  144.3590 O   0  0  0  0  0  0  0  0  0  0  0  0
  161.9080  214.1420  145.5620 C   0  0  0  0  0  0  0  0  0  0  0  0
  157.5530  212.5660  146.4770 C   0  0  0  0  0  2  0  0  0  0  0  0
  159.1240  214.3840  148.0730 C   0  0  0  0  0  2  0  0  0  0  0  0
  159.6630  213.8980  146.7260 C   0  0  2  0  0  3  0  0  0  0  0  0
  159.4310  212.1910  144.9080 C   0  0  0  0  0  1  0  0  0  0  0  0
  157.1720  212.9310  147.8400 N   0  0  0  0  0  2  0  0  0  0  0  0
  157.6010  214.3060  148.0810 C   0  0  0  0  0  2  0  0  0  0  0  0
  159.0730  212.5340  146.3420 C   0  0  2  0  0  3  0  0  0  0  0  0
  160.8620  209.2030  156.6640 O   0  0  0  0  0  0  0  0  0  0  0  0
  160.3180  207.9030  156.4800 C   0  0  0  0  0  2  0  0  0  0  0  0
  161.2820  207.0650  155.6670 C   0  0  0  0  0  2  0  0  0  0  0  0
  160.8580  207.0800  154.2100 C   0  0  0  0  0  2  0  0  0  0  0  0
  161.6230  206.1050  153.4510 N   0  0  0  0  0  2  0  0  0  0  0  0
  161.3720  205.9080  150.8630 C   0  0  0  0  0  0  0  0  0  0  0  0
  161.4880  205.9980  152.0590 C   0  0  0  0  0  0  0  0  0  0  0  0
  161.2290  205.8020  149.4070 C   0  0  2  0  0  3  0  0  0  0  0  0
  159.8920  205.9660  149.0380 O   0  0  0  0  0  1  0  0  0  0  0  0
  160.9800  203.2390  149.2610 C   0  0  1  0  0  0  0  0  0  0  0  0
  161.7890  204.4760  148.8880 C   0  0  1  0  0  3  0  0  0  0  0  0
  161.6980  203.2220  147.0210 C   0  0  2  0  0  3  0  0  0  0  0  0
  160.7890  202.4880  147.9850 C   0  0  1  0  0  3  0  0  0  0  0  0
  161.6020  201.8660  149.1070 C   0  0  2  0  0  3  0  0  0  0  0  0
  161.9290  204.5280  147.4910 O   0  0  0  0  0  0  0  0  0  0  0  0
  159.7740  203.3550  149.9590 O   0  0  0  0  0  1  0  0  0  0  0  0
  160.8300  200.9030  149.7620 O   0  0  0  0  0  1  0  0  0  0  0  0
  161.0820  203.2660  145.6630 C   0  0  0  0  0  0  0  0  0  0  0  0
  161.1910  204.2950  144.9440 O   0  0  0  0  0  0  0  0  0  0  0  0
  160.3660  202.1720  145.1980 O   0  0  0  0  0  1  0  0  0  0  0  0
  2  5  1  0  0  0  0
  3  1  1  6  0  0  0
  3  4  1  0  0  0  0
  3  7  1  0  0  0  0
  4  9  1  0  0  0  0
  5  6  1  0  0  0  0
  6 11  2  0  0  0  0
  7  1  1  1  0  0  0
  7  2  1  0  0  0  0
  8 31  1  0  0  0  0
  8 11  1  0  0  0  0
  9 10  1  0  0  0  0
  9  5  2  0  0  0  0
 10  8  2  0  0  0  0
 12  4  1  0  0  0  0
 13 12  1  0  0  0  0
 14 13  1  0  0  0  0
 15 14  1  0  0  0  0
 16 17  1  0  0  0  0
 17 15  1  0  0  0  0
 18 19  1  0  0  0  0
 18 15  1  0  0  0  0
 20 19  1  0  0  0  0
 22 23  2  0  0  0  0
 23 21  1  0  0  0  0
 23 20  1  0  0  0  0
 24 28  1  0  0  0  0
 25 29  1  0  0  0  0
 26 20  1  1  0  0  0
 26 25  1  0  0  0  0
 28 29  1  0  0  0  0
 30 27  1  6  0  0  0
 30 24  1  0  0  0  0
 30 26  1  0  0  0  0
 32 31  1  0  0  0  0
 33 32  1  0  0  0  0
 34 33  1  0  0  0  0
 35 34  1  0  0  0  0
 36 37  3  0  0  0  0
 37 35  1  0  0  0  0
 38 39  1  1  0  0  0
 38 36  1  0  0  0  0
 40 46  1  1  0  0  0
 41 40  1  0  0  0  0
 41 38  1  6  0  0  0
 42 48  1  6  0  0  0
 42 45  1  0  0  0  0
 42 43  1  0  0  0  0
 43 44  1  0  0  0  0
 43 40  1  0  0  0  0
 44 40  1  0  0  0  0
 44 47  1  0  0  0  0
 45 41  1  0  0  0  0
 49 48  2  0  0  0  0
 50 48  1  0  0  0  0
M  END
>  <MODEL>
8

>  <REMARK>
 VINA RESULT:      -4.7      2.477      8.078
  Name = 
  18 active torsions:
  status: ('A' for Active; 'I' for Inactive)
    1  A    between atoms: C_1  and  C_14
    2  A    between atoms: C_2  and  C_15
    3  A    between atoms: C_2  and  N_24
    4  A    between atoms: O_3  and  C_39
    5  A    between atoms: O_3  and  C_48
    6  A    between atoms: C_6  and  C_17
    7  A    between atoms: C_8  and  C_17
    8  A    between atoms: C_11  and  N_16
    9  A    between atoms: C_13  and  N_24
   10  A    between atoms: C_13  and  C_34
   11  A    between atoms: C_15  and  N_16
   12  A    between atoms: N_24  and  O_32
   13  A    between atoms: N_25  and  C_49
   14  A    between atoms: N_30  and  C_33
   15  A    between atoms: N_30  and  C_46
   16  A    between atoms: C_34  and  C_49
   17  A    between atoms: C_46  and  C_50
   18  A    between atoms: C_48  and  C_50
                            x       y       z     vdW  Elec       q    Type
                         _______ _______ _______ _____ _____    ______ ____

>  <TORSDO>
F 18

$$$$
=
 OpenBabel11042422133D

 50 55  0  0  1  0  0  0  0  0999 V2000
  158.8920  208.3140  155.7010 C   0  0  0  0  0  2  0  0  0  0  0  0
  161.1880  207.0870  155.0820 N   0  0  0  0  0  2  0  0  0  0  0  0
  159.8530  209.2990  155.3900 C   0  0  2  0  0  3  0  0  0  0  0  0
  160.0250  209.4900  153.9370 N   0  0  0  0  0  0  0  0  0  0  0  0
  161.5210  207.4770  153.7380 C   0  0  0  0  0  0  0  0  0  0  0  0
  162.3900  206.6870  152.9850 C   0  0  0  0  0  3  0  0  0  0  0  0
  160.3630  207.8930  155.6410 C   0  0  1  0  0  3  0  0  0  0  0  0
  162.1330  208.1740  151.0830 C   0  0  0  0  0  0  0  0  0  0  0  0
  160.9400  208.6520  153.1570 C   0  0  0  0  0  0  0  0  0  0  0  0
  161.2570  208.9760  151.8310 C   0  0  0  0  0  3  0  0  0  0  0  0
  162.6950  207.0350  151.6660 C   0  0  0  0  0  3  0  0  0  0  0  0
  159.3500  210.6290  153.3260 C   0  0  0  0  0  2  0  0  0  0  0  0
  160.1710  211.8890  153.5190 C   0  0  0  0  0  2  0  0  0  0  0  0
  160.2760  212.6380  152.1940 C   0  0  0  0  0  2  0  0  0  0  0  0
  159.3730  213.7900  152.1170 N   0  0  0  0  0  0  0  0  0  0  0  0
  157.2670  213.9550  152.6730 C   0  0  0  0  0  1  0  0  0  0  0  0
  158.5500  213.7780  153.1980 O   0  0  0  0  0  0  0  0  0  0  0  0
  158.5450  213.6570  150.9240 C   0  0  0  0  0  2  0  0  0  0  0  0
  159.2400  214.2920  149.7290 C   0  0  0  0  0  2  0  0  0  0  0  0
  159.0450  213.4820  148.5310 N   0  0  0  0  0  0  0  0  0  0  0  0
  156.7250  213.7920  148.5940 O   0  0  0  0  0  1  0  0  0  0  0  0
  157.5180  212.5320  146.8590 O   0  0  0  0  0  0  0  0  0  0  0  0
  157.7190  213.2860  148.0090 C   0  0  0  0  0  0  0  0  0  0  0  0
  162.2090  213.3380  146.4070 C   0  0  0  0  0  2  0  0  0  0  0  0
  161.2050  212.3710  148.9330 C   0  0  0  0  0  2  0  0  0  0  0  0
  160.2280  212.9090  147.8850 C   0  0  2  0  0  3  0  0  0  0  0  0
  159.9930  214.2530  145.7840 C   0  0  0  0  0  1  0  0  0  0  0  0
  163.0980  212.9710  147.5070 N   0  0  0  0  0  2  0  0  0  0  0  0
  162.4770  211.8780  148.2510 C   0  0  0  0  0  2  0  0  0  0  0  0
  160.9060  213.9210  146.9500 C   0  0  2  0  0  3  0  0  0  0  0  0
  162.4580  208.4870  149.7600 O   0  0  0  0  0  0  0  0  0  0  0  0
  161.5510  208.2880  148.6830 C   0  0  0  0  0  2  0  0  0  0  0  0
  161.1840  206.8220  148.5980 C   0  0  0  0  0  2  0  0  0  0  0  0
  160.0220  206.5380  149.5330 C   0  0  0  0  0  2  0  0  0  0  0  0
  160.3630  205.4630  150.4490 N   0  0  0  0  0  2  0  0  0  0  0  0
  160.5550  202.9950  149.6300 C   0  0  0  0  0  0  0  0  0  0  0  0
  160.4680  204.1360  150.0080 C   0  0  0  0  0  0  0  0  0  0  0  0
  160.6580  201.6060  149.1710 C   0  0  2  0  0  3  0  0  0  0  0  0
  161.4360  200.8590  150.0580 O   0  0  0  0  0  1  0  0  0  0  0  0
  160.1690  201.3380  146.6520 C   0  0  1  0  0  0  0  0  0  0  0  0
  161.2130  201.5300  147.7470 C   0  0  1  0  0  3  0  0  0  0  0  0
  161.8020  202.9350  146.0900 C   0  0  2  0  0  3  0  0  0  0  0  0
  160.4720  202.3790  145.6260 C   0  0  1  0  0  3  0  0  0  0  0  0
  160.6110  200.9080  145.2670 C   0  0  2  0  0  3  0  0  0  0  0  0
  161.9670  202.6810  147.4640 O   0  0  0  0  0  0  0  0  0  0  0  0
  158.8050  201.3180  146.9580 O   0  0  0  0  0  1  0  0  0  0  0  0
  159.5100  200.5110  144.5050 O   0  0  0  0  0  1  0  0  0  0  0  0
  161.8690  204.4020  145.8260 C   0  0  0  0  0  0  0  0  0  0  0  0
  160.8310  205.0440  145.5150 O   0  0  0  0  0  0  0  0  0  0  0  0
  163.0890  205.0580  145.9030 O   0  0  0  0  0  1  0  0  0  0  0  0
  2  7  1  0  0  0  0
  3  7  1  0  0  0  0
  3  1  1  6  0  0  0
  4  3  1  0  0  0  0
  5  2  1  0  0  0  0
  6  5  2  0  0  0  0
  7  1  1  6  0  0  0
  8 11  2  0  0  0  0
  8 10  1  0  0  0  0
  9  5  1  0  0  0  0
  9  4  1  0  0  0  0
 10  9  2  0  0  0  0
 11  6  1  0  0  0  0
 12 13  1  0  0  0  0
 12  4  1  0  0  0  0
 14 13  1  0  0  0  0
 15 14  1  0  0  0  0
 15 17  1  0  0  0  0
 16 17  1  0  0  0  0
 18 15  1  0  0  0  0
 19 18  1  0  0  0  0
 20 19  1  0  0  0  0
 22 23  2  0  0  0  0
 23 20  1  0  0  0  0
 23 21  1  0  0  0  0
 24 30  1  0  0  0  0
 24 28  1  0  0  0  0
 26 20  1  1  0  0  0
 26 25  1  0  0  0  0
 28 29  1  0  0  0  0
 29 25  1  0  0  0  0
 30 27  1  6  0  0  0
 30 26  1  0  0  0  0
 31  8  1  0  0  0  0
 32 31  1  0  0  0  0
 33 32  1  0  0  0  0
 33 34  1  0  0  0  0
 34 35  1  0  0  0  0
 36 37  3  0  0  0  0
 37 35  1  0  0  0  0
 38 36  1  0  0  0  0
 38 39  1  1  0  0  0
 40 46  1  1  0  0  0
 40 41  1  0  0  0  0
 41 38  1  1  0  0  0
 42 48  1  1  0  0  0
 42 45  1  0  0  0  0
 43 42  1  0  0  0  0
 43 40  1  0  0  0  0
 44 43  1  0  0  0  0
 44 40  1  0  0  0  0
 45 41  1  0  0  0  0
 47 44  1  0  0  0  0
 48 50  1  0  0  0  0
 49 48  2  0  0  0  0
M  END
>  <MODEL>
9

>  <REMARK>
 VINA RESULT:      -4.2      2.702      8.560
  Name = 
  18 active torsions:
  status: ('A' for Active; 'I' for Inactive)
    1  A    between atoms: C_1  and  C_14
    2  A    between atoms: C_2  and  C_15
    3  A    between atoms: C_2  and  N_24
    4  A    between atoms: O_3  and  C_39
    5  A    between atoms: O_3  and  C_48
    6  A    between atoms: C_6  and  C_17
    7  A    between atoms: C_8  and  C_17
    8  A    between atoms: C_11  and  N_16
    9  A    between atoms: C_13  and  N_24
   10  A    between atoms: C_13  and  C_34
   11  A    between atoms: C_15  and  N_16
   12  A    between atoms: N_24  and  O_32
   13  A    between atoms: N_25  and  C_49
   14  A    between atoms: N_30  and  C_33
   15  A    between atoms: N_30  and  C_46
   16  A    between atoms: C_34  and  C_49
   17  A    between atoms: C_46  and  C_50
   18  A    between atoms: C_48  and  C_50
                            x       y       z     vdW  Elec       q    Type
                         _______ _______ _______ _____ _____    ______ ____

>  <TORSDO>
F 18

$$$$
