=
 OpenBabel11052410503D

 28 31  0  0  1  0  0  0  0  0999 V2000
  161.2910  203.3060  149.9360 C   0  0  0  0  0  0  0  0  0  0  0  0
  161.0570  207.1410  152.4530 N   0  0  0  0  0  0  0  0  0  0  0  0
  161.9430  205.2630  146.9790 C   0  0  0  0  0  3  0  0  0  0  0  0
  161.1900  206.1840  153.5150 C   0  0  0  0  0  0  0  0  0  0  0  0
  160.8720  204.8250  153.3460 O   0  0  0  0  0  0  0  0  0  0  0  0
  161.2490  207.5780  150.2810 C   0  0  0  0  0  0  0  0  0  0  0  0
  162.0370  208.4530  150.8150 N   0  0  0  0  0  0  0  0  0  0  0  0
  161.7030  203.8990  151.2530 C   0  0  0  0  0  2  0  0  0  0  0  0
  161.1990  207.2490  148.8560 C   0  0  2  0  0  3  0  0  0  0  0  0
  160.8980  205.0060  147.9910 C   0  0  0  0  0  0  0  0  0  0  0  0
  160.6010  206.8040  151.2130 O   0  0  0  0  0  0  0  0  0  0  0  0
  161.1050  204.1110  148.9220 C   0  0  0  0  0  0  0  0  0  0  0  0
  160.1730  206.2330  148.4330 C   0  0  0  0  0  2  0  0  0  0  0  0
  160.4830  204.2210  152.1120 C   0  0  0  0  0  2  0  0  0  0  0  0
  162.3020  207.4070  148.1030 C   0  0  0  0  0  2  0  0  0  0  0  0
  162.5840  206.4470  147.0040 C   0  0  0  0  0  3  0  0  0  0  0  0
  161.6160  206.5670  154.6350 O   0  0  0  0  0  0  0  0  0  0  0  0
  161.9530  208.2820  152.2720 C   0  0  1  0  0  3  0  0  0  0  0  0
  159.9250  211.4390  152.7940 C   0  0  0  0  0  3  0  0  0  0  0  0
  161.7710  209.8900  154.2120 C   0  0  0  0  0  3  0  0  0  0  0  0
  160.3090  211.8150  154.0830 C   0  0  0  0  0  0  0  0  0  0  0  0
  161.2320  211.0420  154.7930 C   0  0  0  0  0  3  0  0  0  0  0  0
  161.3880  209.5080  152.9180 C   0  0  0  0  0  0  0  0  0  0  0  0
  159.7870  212.9310  154.6460 F   0  0  0  0  0  0  0  0  0  0  0  0
  160.4630  210.2870  152.2120 C   0  0  0  0  0  3  0  0  0  0  0  0
  161.0250  201.8650  149.8070 C   0  0  0  0  0  0  0  0  0  0  0  0
  161.2580  201.0880  150.7720 O   0  0  0  0  0  1  0  0  0  0  0  0
  160.5190  201.3430  148.6210 O   0  0  0  0  0  0  0  0  0  0  0  0
  1  8  1  0  0  0  0
  2  4  1  0  0  0  0
  3 16  2  0  0  0  0
  3 10  1  0  0  0  0
  4 17  2  0  0  0  0
  5  4  1  0  0  0  0
  6  7  2  0  0  0  0
  6 11  1  0  0  0  0
  7 18  1  0  0  0  0
  8 14  1  0  0  0  0
  9 15  1  1  0  0  0
  9  6  1  0  0  0  0
 10 13  1  0  0  0  0
 10 12  2  0  0  0  0
 11  2  1  0  0  0  0
 12  1  2  0  0  0  0
 13  9  1  0  0  0  0
 14  5  1  0  0  0  0
 16 15  1  0  0  0  0
 18  2  1  0  0  0  0
 18 23  1  1  0  0  0
 19 21  1  0  0  0  0
 20 22  1  0  0  0  0
 21 24  1  0  0  0  0
 21 22  2  0  0  0  0
 23 20  2  0  0  0  0
 25 19  2  0  0  0  0
 25 23  1  0  0  0  0
 26  1  1  0  0  0  0
 26 27  1  0  0  0  0
 28 26  2  0  0  0  0
M  END
>  <MODEL>
1

>  <REMARK>
 VINA RESULT:      -9.3      0.000      0.000
  Name = 
  2 active torsions:
  status: ('A' for Active; 'I' for Inactive)
    1  A    between atoms: C_1  and  C_20
    2  A    between atoms: C_24  and  C_26
                            x       y       z     vdW  Elec       q    Type
                         _______ _______ _______ _____ _____    ______ ____

>  <TORSDO>
F 2

$$$$
=
 OpenBabel11052410503D

 28 31  0  0  1  0  0  0  0  0999 V2000
  161.0150  201.9550  146.5180 C   0  0  0  0  0  0  0  0  0  0  0  0
  160.9720  204.3630  150.4300 N   0  0  0  0  0  0  0  0  0  0  0  0
  162.0190  204.8990  144.6950 C   0  0  0  0  0  3  0  0  0  0  0  0
  160.9530  203.0370  150.9820 C   0  0  0  0  0  0  0  0  0  0  0  0
  160.5260  201.9200  150.2420 O   0  0  0  0  0  0  0  0  0  0  0  0
  161.3340  205.6550  148.6570 C   0  0  0  0  0  0  0  0  0  0  0  0
  162.1630  206.1320  149.5280 N   0  0  0  0  0  0  0  0  0  0  0  0
  161.3970  201.8860  147.9690 C   0  0  0  0  0  2  0  0  0  0  0  0
  161.3420  205.9680  147.2280 C   0  0  2  0  0  3  0  0  0  0  0  0
  160.8950  204.3500  145.4820 C   0  0  0  0  0  0  0  0  0  0  0  0
  160.5640  204.6330  149.1580 O   0  0  0  0  0  0  0  0  0  0  0  0
  160.9640  203.1290  145.9430 C   0  0  0  0  0  0  0  0  0  0  0  0
  160.2570  205.3440  146.3930 C   0  0  0  0  0  2  0  0  0  0  0  0
  160.1600  201.9420  148.8630 C   0  0  0  0  0  2  0  0  0  0  0  0
  162.4990  206.3120  146.6350 C   0  0  0  0  0  2  0  0  0  0  0  0
  162.7600  205.8840  145.2350 C   0  0  0  0  0  3  0  0  0  0  0  0
  161.3430  202.8610  152.1650 O   0  0  0  0  0  0  0  0  0  0  0  0
  161.9760  205.3690  150.7700 C   0  0  1  0  0  3  0  0  0  0  0  0
  160.8990  206.5500  154.2050 C   0  0  0  0  0  3  0  0  0  0  0  0
  161.1410  207.5960  151.6230 C   0  0  0  0  0  3  0  0  0  0  0  0
  160.5590  207.8820  153.9550 C   0  0  0  0  0  0  0  0  0  0  0  0
  160.6790  208.4050  152.6650 C   0  0  0  0  0  3  0  0  0  0  0  0
  161.4840  206.2580  151.8690 C   0  0  0  0  0  0  0  0  0  0  0  0
  160.1120  208.6660  154.9650 F   0  0  0  0  0  0  0  0  0  0  0  0
  161.3610  205.7390  153.1630 C   0  0  0  0  0  3  0  0  0  0  0  0
  160.6290  200.7420  145.7800 C   0  0  0  0  0  0  0  0  0  0  0  0
  159.7880  200.8100  144.8440 O   0  0  0  0  0  0  0  0  0  0  0  0
  161.1810  199.5090  146.1100 O   0  0  0  0  0  1  0  0  0  0  0  0
  1  8  1  0  0  0  0
  2 18  1  0  0  0  0
  2  4  1  0  0  0  0
  3 16  2  0  0  0  0
  3 10  1  0  0  0  0
  4 17  2  0  0  0  0
  5  4  1  0  0  0  0
  6 11  1  0  0  0  0
  6  7  2  0  0  0  0
  7 18  1  0  0  0  0
  8 14  1  0  0  0  0
  9 13  1  6  0  0  0
  9  6  1  0  0  0  0
 10 12  2  0  0  0  0
 10 13  1  0  0  0  0
 11  2  1  0  0  0  0
 12  1  2  0  0  0  0
 14  5  1  0  0  0  0
 15  9  1  0  0  0  0
 16 15  1  0  0  0  0
 18 23  1  1  0  0  0
 20 23  2  0  0  0  0
 20 22  1  0  0  0  0
 21 19  1  0  0  0  0
 21 24  1  0  0  0  0
 22 21  2  0  0  0  0
 23 25  1  0  0  0  0
 25 19  2  0  0  0  0
 26 28  1  0  0  0  0
 26  1  1  0  0  0  0
 27 26  2  0  0  0  0
M  END
>  <MODEL>
2

>  <REMARK>
 VINA RESULT:      -8.7      2.318      3.615
  Name = 
  2 active torsions:
  status: ('A' for Active; 'I' for Inactive)
    1  A    between atoms: C_1  and  C_20
    2  A    between atoms: C_24  and  C_26
                            x       y       z     vdW  Elec       q    Type
                         _______ _______ _______ _____ _____    ______ ____

>  <TORSDO>
F 2

$$$$
=
 OpenBabel11052410503D

 28 31  0  0  1  0  0  0  0  0999 V2000
  161.3030  202.5750  148.2500 C   0  0  0  0  0  0  0  0  0  0  0  0
  160.9210  205.7760  151.5230 N   0  0  0  0  0  0  0  0  0  0  0  0
  162.3440  205.0910  145.8860 C   0  0  0  0  0  3  0  0  0  0  0  0
  160.9030  204.6040  152.3520 C   0  0  0  0  0  0  0  0  0  0  0  0
  160.5600  203.3340  151.8530 O   0  0  0  0  0  0  0  0  0  0  0  0
  161.3660  206.6640  149.5330 C   0  0  0  0  0  0  0  0  0  0  0  0
  162.1190  207.3550  150.3260 N   0  0  0  0  0  0  0  0  0  0  0  0
  161.5860  202.8420  149.7010 C   0  0  0  0  0  2  0  0  0  0  0  0
  161.4630  206.6570  148.0740 C   0  0  2  0  0  3  0  0  0  0  0  0
  161.1840  204.6780  146.7040 C   0  0  0  0  0  0  0  0  0  0  0  0
  160.5930  205.7430  150.2000 O   0  0  0  0  0  0  0  0  0  0  0  0
  161.2580  203.5920  147.4280 C   0  0  0  0  0  0  0  0  0  0  0  0
  160.4570  205.8190  147.3330 C   0  0  0  0  0  2  0  0  0  0  0  0
  160.2900  203.0380  150.4830 C   0  0  0  0  0  2  0  0  0  0  0  0
  162.6470  206.9130  147.4900 C   0  0  0  0  0  2  0  0  0  0  0  0
  163.0170  206.2010  146.2380 C   0  0  0  0  0  3  0  0  0  0  0  0
  161.2150  204.7080  153.5660 O   0  0  0  0  0  0  0  0  0  0  0  0
  161.8690  206.8750  151.6920 C   0  0  1  0  0  3  0  0  0  0  0  0
  160.6020  208.7610  154.7230 C   0  0  0  0  0  3  0  0  0  0  0  0
  160.8390  209.1660  151.9660 C   0  0  0  0  0  3  0  0  0  0  0  0
  160.1670  209.9610  154.1520 C   0  0  0  0  0  0  0  0  0  0  0  0
  160.2850  210.1630  152.7740 C   0  0  0  0  0  3  0  0  0  0  0  0
  161.2770  207.9610  152.5350 C   0  0  0  0  0  0  0  0  0  0  0  0
  159.6310  210.9270  154.9350 F   0  0  0  0  0  0  0  0  0  0  0  0
  161.1560  207.7630  153.9150 C   0  0  0  0  0  3  0  0  0  0  0  0
  161.0040  201.2150  147.7770 C   0  0  0  0  0  0  0  0  0  0  0  0
  161.2650  200.2190  148.5030 O   0  0  0  0  0  1  0  0  0  0  0  0
  160.4370  201.0120  146.5230 O   0  0  0  0  0  0  0  0  0  0  0  0
  1  8  1  0  0  0  0
  2 18  1  0  0  0  0
  2  4  1  0  0  0  0
  3 16  2  0  0  0  0
  3 10  1  0  0  0  0
  4 17  2  0  0  0  0
  5  4  1  0  0  0  0
  6 11  1  0  0  0  0
  6  7  2  0  0  0  0
  7 18  1  0  0  0  0
  8 14  1  0  0  0  0
  9 13  1  1  0  0  0
  9  6  1  0  0  0  0
 10 13  1  0  0  0  0
 10 12  2  0  0  0  0
 11  2  1  0  0  0  0
 12  1  2  0  0  0  0
 14  5  1  0  0  0  0
 15  9  1  0  0  0  0
 16 15  1  0  0  0  0
 18 23  1  1  0  0  0
 20 23  2  0  0  0  0
 20 22  1  0  0  0  0
 21 19  1  0  0  0  0
 21 24  1  0  0  0  0
 22 21  2  0  0  0  0
 23 25  1  0  0  0  0
 25 19  2  0  0  0  0
 26  1  1  0  0  0  0
 26 27  1  0  0  0  0
 28 26  2  0  0  0  0
M  END
>  <MODEL>
3

>  <REMARK>
 VINA RESULT:      -8.1      1.377      1.914
  Name = 
  2 active torsions:
  status: ('A' for Active; 'I' for Inactive)
    1  A    between atoms: C_1  and  C_20
    2  A    between atoms: C_24  and  C_26
                            x       y       z     vdW  Elec       q    Type
                         _______ _______ _______ _____ _____    ______ ____

>  <TORSDO>
F 2

$$$$
=
 OpenBabel11052410503D

 28 31  0  0  1  0  0  0  0  0999 V2000
  160.9580  208.0340  155.0640 C   0  0  0  0  0  0  0  0  0  0  0  0
  161.4020  205.9510  150.9940 N   0  0  0  0  0  0  0  0  0  0  0  0
  160.8910  211.2480  153.4320 C   0  0  0  0  0  3  0  0  0  0  0  0
  161.0310  204.8140  151.7880 C   0  0  0  0  0  0  0  0  0  0  0  0
  161.1890  204.7890  153.1860 O   0  0  0  0  0  0  0  0  0  0  0  0
  161.5080  208.1650  150.8150 C   0  0  0  0  0  0  0  0  0  0  0  0
  160.7840  207.8340  149.7960 N   0  0  0  0  0  0  0  0  0  0  0  0
  160.4830  206.8520  154.2670 C   0  0  0  0  0  2  0  0  0  0  0  0
  161.6720  209.5260  151.3250 C   0  0  2  0  0  3  0  0  0  0  0  0
  161.7780  210.0910  153.6780 C   0  0  0  0  0  0  0  0  0  0  0  0
  161.9450  207.0780  151.5340 O   0  0  0  0  0  0  0  0  0  0  0  0
  161.3560  209.1000  154.4190 C   0  0  0  0  0  0  0  0  0  0  0  0
  162.6000  209.7030  152.4960 C   0  0  0  0  0  2  0  0  0  0  0  0
  161.6320  205.8890  153.9800 C   0  0  0  0  0  2  0  0  0  0  0  0
  160.6880  210.4240  151.1380 C   0  0  0  0  0  2  0  0  0  0  0  0
  160.4090  211.4350  152.1900 C   0  0  0  0  0  3  0  0  0  0  0  0
  160.5370  203.8050  151.2220 O   0  0  0  0  0  0  0  0  0  0  0  0
  160.6840  206.3680  149.7910 C   0  0  1  0  0  3  0  0  0  0  0  0
  161.9270  203.8540  147.2440 C   0  0  0  0  0  3  0  0  0  0  0  0
  161.9300  206.6260  147.6080 C   0  0  0  0  0  3  0  0  0  0  0  0
  162.5260  204.6830  146.2920 C   0  0  0  0  0  0  0  0  0  0  0  0
  162.5280  206.0690  146.4740 C   0  0  0  0  0  3  0  0  0  0  0  0
  161.3270  205.7970  148.5650 C   0  0  0  0  0  0  0  0  0  0  0  0
  163.1050  204.1430  145.1930 F   0  0  0  0  0  0  0  0  0  0  0  0
  161.3280  204.4100  148.3780 C   0  0  0  0  0  3  0  0  0  0  0  0
  161.0500  207.9670  156.5310 C   0  0  0  0  0  0  0  0  0  0  0  0
  161.9490  208.6070  157.1390 O   0  0  0  0  0  0  0  0  0  0  0  0
  160.1540  207.1940  157.2600 O   0  0  0  0  0  1  0  0  0  0  0  0
  1 26  1  0  0  0  0
  2 11  1  0  0  0  0
  2  4  1  0  0  0  0
  3 10  1  0  0  0  0
  4  5  1  0  0  0  0
  5 14  1  0  0  0  0
  6  9  1  0  0  0  0
  6 11  1  0  0  0  0
  7  6  2  0  0  0  0
  8  1  1  0  0  0  0
  9 15  1  1  0  0  0
  9 13  1  0  0  0  0
 10 12  2  0  0  0  0
 12  1  2  0  0  0  0
 13 10  1  0  0  0  0
 14  8  1  0  0  0  0
 15 16  1  0  0  0  0
 16  3  2  0  0  0  0
 17  4  2  0  0  0  0
 18 23  1  6  0  0  0
 18  7  1  0  0  0  0
 18  2  1  0  0  0  0
 19 25  1  0  0  0  0
 20 23  1  0  0  0  0
 21 22  1  0  0  0  0
 21 19  2  0  0  0  0
 22 20  2  0  0  0  0
 24 21  1  0  0  0  0
 25 23  2  0  0  0  0
 26 27  2  0  0  0  0
 26 28  1  0  0  0  0
M  END
>  <MODEL>
4

>  <REMARK>
 VINA RESULT:      -8.0      2.965      6.933
  Name = 
  2 active torsions:
  status: ('A' for Active; 'I' for Inactive)
    1  A    between atoms: C_1  and  C_20
    2  A    between atoms: C_24  and  C_26
                            x       y       z     vdW  Elec       q    Type
                         _______ _______ _______ _____ _____    ______ ____

>  <TORSDO>
F 2

$$$$
=
 OpenBabel11052410503D

 28 31  0  0  1  0  0  0  0  0999 V2000
  161.3710  203.6790  150.1910 C   0  0  0  0  0  0  0  0  0  0  0  0
  161.2150  208.2300  150.8000 N   0  0  0  0  0  0  0  0  0  0  0  0
  162.1310  204.1550  146.6990 C   0  0  0  0  0  3  0  0  0  0  0  0
  161.3010  207.8220  152.1750 C   0  0  0  0  0  0  0  0  0  0  0  0
  160.9440  206.5300  152.5990 O   0  0  0  0  0  0  0  0  0  0  0  0
  161.4550  207.6810  148.6590 C   0  0  0  0  0  0  0  0  0  0  0  0
  162.2610  208.6850  148.7850 N   0  0  0  0  0  0  0  0  0  0  0  0
  161.7800  204.7740  151.1350 C   0  0  0  0  0  2  0  0  0  0  0  0
  161.4180  206.7710  147.5150 C   0  0  2  0  0  3  0  0  0  0  0  0
  161.0620  204.3810  147.6930 C   0  0  0  0  0  0  0  0  0  0  0  0
  160.7690  207.4000  149.8160 O   0  0  0  0  0  0  0  0  0  0  0  0
  161.2260  203.9720  148.9240 C   0  0  0  0  0  0  0  0  0  0  0  0
  160.3690  205.6930  147.5420 C   0  0  0  0  0  2  0  0  0  0  0  0
  160.5560  205.4610  151.7370 C   0  0  0  0  0  2  0  0  0  0  0  0
  162.5380  206.5650  146.7980 C   0  0  0  0  0  2  0  0  0  0  0  0
  162.8070  205.2190  146.2290 C   0  0  0  0  0  3  0  0  0  0  0  0
  161.7210  208.6420  153.0320 O   0  0  0  0  0  0  0  0  0  0  0  0
  162.1490  209.1610  150.1700 C   0  0  1  0  0  3  0  0  0  0  0  0
  161.3360  212.7110  149.1280 C   0  0  0  0  0  3  0  0  0  0  0  0
  160.9040  211.0340  151.3230 C   0  0  0  0  0  3  0  0  0  0  0  0
  160.6310  213.1810  150.2400 C   0  0  0  0  0  0  0  0  0  0  0  0
  160.4150  212.3430  151.3370 C   0  0  0  0  0  3  0  0  0  0  0  0
  161.6110  210.5580  150.2090 C   0  0  0  0  0  0  0  0  0  0  0  0
  160.1580  214.4500  150.2530 F   0  0  0  0  0  0  0  0  0  0  0  0
  161.8250  211.4020  149.1130 C   0  0  0  0  0  3  0  0  0  0  0  0
  161.0620  202.3300  150.6890 C   0  0  0  0  0  0  0  0  0  0  0  0
  160.6750  201.4330  149.8920 O   0  0  0  0  0  0  0  0  0  0  0  0
  161.1890  202.0290  152.0410 O   0  0  0  0  0  1  0  0  0  0  0  0
  1 26  1  0  0  0  0
  1  8  1  0  0  0  0
  2  4  1  0  0  0  0
  3 10  1  0  0  0  0
  4  5  1  0  0  0  0
  4 17  2  0  0  0  0
  6  7  2  0  0  0  0
  6 11  1  0  0  0  0
  7 18  1  0  0  0  0
  8 14  1  0  0  0  0
  9 15  1  1  0  0  0
  9 13  1  0  0  0  0
  9  6  1  0  0  0  0
 10 12  2  0  0  0  0
 11  2  1  0  0  0  0
 12  1  2  0  0  0  0
 13 10  1  0  0  0  0
 14  5  1  0  0  0  0
 16  3  2  0  0  0  0
 16 15  1  0  0  0  0
 18 23  1  6  0  0  0
 18  2  1  0  0  0  0
 19 21  1  0  0  0  0
 20 22  1  0  0  0  0
 21 24  1  0  0  0  0
 21 22  2  0  0  0  0
 23 20  2  0  0  0  0
 25 19  2  0  0  0  0
 25 23  1  0  0  0  0
 26 28  1  0  0  0  0
 27 26  2  0  0  0  0
M  END
>  <MODEL>
5

>  <REMARK>
 VINA RESULT:      -7.4      1.932      2.405
  Name = 
  2 active torsions:
  status: ('A' for Active; 'I' for Inactive)
    1  A    between atoms: C_1  and  C_20
    2  A    between atoms: C_24  and  C_26
                            x       y       z     vdW  Elec       q    Type
                         _______ _______ _______ _____ _____    ______ ____

>  <TORSDO>
F 2

$$$$
=
 OpenBabel11052410503D

 28 31  0  0  1  0  0  0  0  0999 V2000
  161.5320  205.5690  147.7310 C   0  0  0  0  0  0  0  0  0  0  0  0
  161.7520  208.2300  151.4690 N   0  0  0  0  0  0  0  0  0  0  0  0
  160.4630  202.7830  149.7540 C   0  0  0  0  0  3  0  0  0  0  0  0
  161.7890  209.2530  150.4630 C   0  0  0  0  0  0  0  0  0  0  0  0
  162.1800  208.9910  149.1380 O   0  0  0  0  0  0  0  0  0  0  0  0
  161.3190  206.1080  151.9780 C   0  0  0  0  0  0  0  0  0  0  0  0
  160.5300  206.7550  152.7720 N   0  0  0  0  0  0  0  0  0  0  0  0
  161.2120  206.9460  148.2390 C   0  0  0  0  0  2  0  0  0  0  0  0
  161.2510  204.6720  151.7110 C   0  0  2  0  0  3  0  0  0  0  0  0
  161.6180  203.6780  149.5320 C   0  0  0  0  0  0  0  0  0  0  0  0
  162.1060  206.9380  151.2150 O   0  0  0  0  0  0  0  0  0  0  0  0
  161.5630  204.5810  148.5880 C   0  0  0  0  0  0  0  0  0  0  0  0
  162.2970  204.1050  150.7890 C   0  0  0  0  0  2  0  0  0  0  0  0
  162.4860  207.6990  148.6140 C   0  0  0  0  0  2  0  0  0  0  0  0
  160.0720  204.0350  151.8200 C   0  0  0  0  0  2  0  0  0  0  0  0
  159.7490  202.9240  150.8860 C   0  0  0  0  0  3  0  0  0  0  0  0
  161.4490  210.4260  150.7690 O   0  0  0  0  0  0  0  0  0  0  0  0
  160.7670  208.1880  152.5490 C   0  0  1  0  0  3  0  0  0  0  0  0
  161.7380  208.7310  156.1700 C   0  0  0  0  0  3  0  0  0  0  0  0
  161.8760  210.1170  153.7460 C   0  0  0  0  0  3  0  0  0  0  0  0
  162.3020  210.0080  156.1270 C   0  0  0  0  0  0  0  0  0  0  0  0
  162.3710  210.7020  154.9150 C   0  0  0  0  0  3  0  0  0  0  0  0
  161.3090  208.8350  153.7860 C   0  0  0  0  0  0  0  0  0  0  0  0
  162.7830  210.5750  157.2600 F   0  0  0  0  0  0  0  0  0  0  0  0
  161.2420  208.1450  155.0010 C   0  0  0  0  0  3  0  0  0  0  0  0
  161.8820  205.3480  146.3190 C   0  0  0  0  0  0  0  0  0  0  0  0
  162.9660  204.7820  146.0160 O   0  0  0  0  0  1  0  0  0  0  0  0
  161.0250  205.7650  145.3060 O   0  0  0  0  0  0  0  0  0  0  0  0
  1  8  1  0  0  0  0
  1 12  2  0  0  0  0
  2 18  1  0  0  0  0
  3 16  2  0  0  0  0
  4 17  2  0  0  0  0
  4  2  1  0  0  0  0
  5  4  1  0  0  0  0
  6  7  2  0  0  0  0
  8 14  1  0  0  0  0
  9 13  1  6  0  0  0
  9 15  1  0  0  0  0
  9  6  1  0  0  0  0
 10  3  1  0  0  0  0
 10 13  1  0  0  0  0
 11  2  1  0  0  0  0
 11  6  1  0  0  0  0
 12 10  2  0  0  0  0
 14  5  1  0  0  0  0
 16 15  1  0  0  0  0
 18  7  1  0  0  0  0
 18 23  1  1  0  0  0
 20 23  2  0  0  0  0
 20 22  1  0  0  0  0
 21 19  1  0  0  0  0
 21 24  1  0  0  0  0
 22 21  2  0  0  0  0
 23 25  1  0  0  0  0
 25 19  2  0  0  0  0
 26  1  1  0  0  0  0
 27 26  1  0  0  0  0
 28 26  2  0  0  0  0
M  END
>  <MODEL>
6

>  <REMARK>
 VINA RESULT:      -7.0      2.253      3.987
  Name = 
  2 active torsions:
  status: ('A' for Active; 'I' for Inactive)
    1  A    between atoms: C_1  and  C_20
    2  A    between atoms: C_24  and  C_26
                            x       y       z     vdW  Elec       q    Type
                         _______ _______ _______ _____ _____    ______ ____

>  <TORSDO>
F 2

$$$$
=
 OpenBabel11052410503D

 28 31  0  0  1  0  0  0  0  0999 V2000
  160.4680  211.2420  154.8710 C   0  0  0  0  0  0  0  0  0  0  0  0
  161.1560  208.2540  151.4510 N   0  0  0  0  0  0  0  0  0  0  0  0
  160.4990  208.5430  157.2610 C   0  0  0  0  0  3  0  0  0  0  0  0
  161.4810  209.4680  150.7570 C   0  0  0  0  0  0  0  0  0  0  0  0
  161.0320  210.7270  151.1930 O   0  0  0  0  0  0  0  0  0  0  0  0
  160.8280  207.2330  153.3990 C   0  0  0  0  0  0  0  0  0  0  0  0
  161.7870  206.5410  152.8760 N   0  0  0  0  0  0  0  0  0  0  0  0
  161.2400  211.0380  153.5990 C   0  0  0  0  0  2  0  0  0  0  0  0
  160.3970  207.1550  154.7950 C   0  0  2  0  0  3  0  0  0  0  0  0
  159.7250  209.0700  156.1170 C   0  0  0  0  0  0  0  0  0  0  0  0
  160.3800  208.2350  152.5710 O   0  0  0  0  0  0  0  0  0  0  0  0
  160.0930  210.1880  155.5470 C   0  0  0  0  0  0  0  0  0  0  0  0
  159.2270  208.0120  155.1910 C   0  0  0  0  0  2  0  0  0  0  0  0
  160.3020  210.9650  152.3960 C   0  0  0  0  0  2  0  0  0  0  0  0
  161.2840  206.7950  155.7400 C   0  0  0  0  0  2  0  0  0  0  0  0
  161.2100  207.4140  157.0890 C   0  0  0  0  0  3  0  0  0  0  0  0
  162.2020  209.4120  149.7270 O   0  0  0  0  0  0  0  0  0  0  0  0
  162.0600  207.1090  151.5490 C   0  0  1  0  0  3  0  0  0  0  0  0
  161.1170  203.8580  149.8480 C   0  0  0  0  0  3  0  0  0  0  0  0
  161.8650  206.4510  149.1170 C   0  0  0  0  0  3  0  0  0  0  0  0
  161.2160  204.2030  148.4970 C   0  0  0  0  0  0  0  0  0  0  0  0
  161.5900  205.4990  148.1310 C   0  0  0  0  0  3  0  0  0  0  0  0
  161.7660  206.1090  150.4740 C   0  0  0  0  0  0  0  0  0  0  0  0
  160.9490  203.2800  147.5420 F   0  0  0  0  0  0  0  0  0  0  0  0
  161.3910  204.8100  150.8340 C   0  0  0  0  0  3  0  0  0  0  0  0
  160.0720  212.5910  155.3060 C   0  0  0  0  0  0  0  0  0  0  0  0
  160.3710  212.9990  156.4600 O   0  0  0  0  0  1  0  0  0  0  0  0
  159.3610  213.4280  154.4520 O   0  0  0  0  0  0  0  0  0  0  0  0
  1 26  1  0  0  0  0
  1 12  2  0  0  0  0
  2 18  1  0  0  0  0
  2 11  1  0  0  0  0
  4  5  1  0  0  0  0
  4  2  1  0  0  0  0
  5 14  1  0  0  0  0
  6  9  1  0  0  0  0
  7  6  2  0  0  0  0
  8  1  1  0  0  0  0
  9 13  1  1  0  0  0
  9 15  1  0  0  0  0
 10  3  1  0  0  0  0
 11  6  1  0  0  0  0
 12 10  2  0  0  0  0
 13 10  1  0  0  0  0
 14  8  1  0  0  0  0
 15 16  1  0  0  0  0
 16  3  2  0  0  0  0
 17  4  2  0  0  0  0
 18 23  1  6  0  0  0
 18  7  1  0  0  0  0
 19 25  1  0  0  0  0
 20 23  1  0  0  0  0
 21 19  2  0  0  0  0
 22 21  1  0  0  0  0
 22 20  2  0  0  0  0
 23 25  2  0  0  0  0
 24 21  1  0  0  0  0
 26 27  1  0  0  0  0
 28 26  2  0  0  0  0
M  END
>  <MODEL>
7

>  <REMARK>
 VINA RESULT:      -6.9      3.539      8.039
  Name = 
  2 active torsions:
  status: ('A' for Active; 'I' for Inactive)
    1  A    between atoms: C_1  and  C_20
    2  A    between atoms: C_24  and  C_26
                            x       y       z     vdW  Elec       q    Type
                         _______ _______ _______ _____ _____    ______ ____

>  <TORSDO>
F 2

$$$$
=
 OpenBabel11052410503D

 28 31  0  0  1  0  0  0  0  0999 V2000
  162.1600  208.3190  150.5050 C   0  0  0  0  0  0  0  0  0  0  0  0
  161.4970  204.9670  147.4340 N   0  0  0  0  0  0  0  0  0  0  0  0
  161.4730  206.0170  153.1930 C   0  0  0  0  0  3  0  0  0  0  0  0
  162.1550  205.9210  146.5860 C   0  0  0  0  0  0  0  0  0  0  0  0
  162.2000  207.2930  146.8920 O   0  0  0  0  0  0  0  0  0  0  0  0
  161.0070  204.3140  149.5030 C   0  0  0  0  0  0  0  0  0  0  0  0
  161.6250  203.2850  149.0210 N   0  0  0  0  0  0  0  0  0  0  0  0
  162.7050  207.7390  149.2310 C   0  0  0  0  0  2  0  0  0  0  0  0
  160.6960  204.5230  150.9170 C   0  0  2  0  0  3  0  0  0  0  0  0
  160.8300  206.6690  152.0330 C   0  0  0  0  0  0  0  0  0  0  0  0
  160.8580  205.3250  148.5840 O   0  0  0  0  0  0  0  0  0  0  0  0
  161.5070  207.5300  151.3180 C   0  0  0  0  0  0  0  0  0  0  0  0
  159.9250  205.7670  151.2630 C   0  0  0  0  0  2  0  0  0  0  0  0
  161.6990  207.8830  148.0910 C   0  0  0  0  0  2  0  0  0  0  0  0
  161.4850  203.9690  151.8550 C   0  0  0  0  0  2  0  0  0  0  0  0
  161.7400  204.7000  153.1230 C   0  0  0  0  0  3  0  0  0  0  0  0
  162.7230  205.5200  145.5380 O   0  0  0  0  0  0  0  0  0  0  0  0
  161.9610  203.5940  147.6240 C   0  0  1  0  0  3  0  0  0  0  0  0
  160.5580  200.4060  146.1360 C   0  0  0  0  0  3  0  0  0  0  0  0
  160.6470  203.1310  145.5170 C   0  0  0  0  0  3  0  0  0  0  0  0
  159.9520  200.8780  144.9680 C   0  0  0  0  0  0  0  0  0  0  0  0
  159.9970  202.2400  144.6580 C   0  0  0  0  0  3  0  0  0  0  0  0
  161.2550  202.6620  146.6900 C   0  0  0  0  0  0  0  0  0  0  0  0
  159.3220  200.0140  144.1360 F   0  0  0  0  0  0  0  0  0  0  0  0
  161.2080  201.2970  146.9950 C   0  0  0  0  0  3  0  0  0  0  0  0
  162.2850  209.7560  150.7950 C   0  0  0  0  0  0  0  0  0  0  0  0
  162.6890  210.1420  151.9240 O   0  0  0  0  0  1  0  0  0  0  0  0
  161.9550  210.7020  149.8310 O   0  0  0  0  0  0  0  0  0  0  0  0
  1 26  1  0  0  0  0
  1 12  2  0  0  0  0
  2 18  1  0  0  0  0
  2 11  1  0  0  0  0
  4  5  1  0  0  0  0
  4  2  1  0  0  0  0
  5 14  1  0  0  0  0
  6  9  1  0  0  0  0
  7  6  2  0  0  0  0
  8  1  1  0  0  0  0
  9 13  1  1  0  0  0
  9 15  1  0  0  0  0
 10  3  1  0  0  0  0
 11  6  1  0  0  0  0
 12 10  2  0  0  0  0
 13 10  1  0  0  0  0
 14  8  1  0  0  0  0
 15 16  1  0  0  0  0
 16  3  2  0  0  0  0
 17  4  2  0  0  0  0
 18 23  1  6  0  0  0
 18  7  1  0  0  0  0
 19 25  1  0  0  0  0
 20 23  1  0  0  0  0
 21 19  2  0  0  0  0
 22 21  1  0  0  0  0
 22 20  2  0  0  0  0
 23 25  2  0  0  0  0
 24 21  1  0  0  0  0
 26 27  1  0  0  0  0
 28 26  2  0  0  0  0
M  END
>  <MODEL>
8

>  <REMARK>
 VINA RESULT:      -6.6      4.362      8.314
  Name = 
  2 active torsions:
  status: ('A' for Active; 'I' for Inactive)
    1  A    between atoms: C_1  and  C_20
    2  A    between atoms: C_24  and  C_26
                            x       y       z     vdW  Elec       q    Type
                         _______ _______ _______ _____ _____    ______ ____

>  <TORSDO>
F 2

$$$$
