=
 OpenBabel11042420173D

 51 54  0  0  1  0  0  0  0  0999 V2000
  160.9710  203.3740  149.4030 C   0  0  0  0  0  0  0  0  0  0  0  0
  160.1890  212.6670  153.9790 C   0  0  0  0  0  1  0  0  0  0  0  0
  162.3700  207.9480  149.5720 C   0  0  0  0  0  2  0  0  0  0  0  0
  162.2490  209.4510  149.8290 C   0  0  1  0  0  3  0  0  0  0  0  0
  161.5730  203.0880  150.6640 N   0  0  0  0  0  0  0  0  0  0  0  0
  162.2560  210.2260  148.5150 C   0  0  0  0  0  2  0  0  0  0  0  0
  160.7830  208.9330  153.4290 C   0  0  0  0  0  3  0  0  0  0  0  0
  161.1530  205.8110  149.9840 C   0  0  0  0  0  0  0  0  0  0  0  0
  161.2150  207.7800  155.5030 C   0  0  0  0  0  3  0  0  0  0  0  0
  160.6930  210.1750  154.0980 C   0  0  0  0  0  0  0  0  0  0  0  0
  161.1730  211.0850  151.0050 C   0  0  2  0  0  3  0  0  0  0  0  0
  160.9290  205.2440  154.1310 C   0  0  0  0  0  1  0  0  0  0  0  0
  160.4200  211.3830  153.3350 N   0  0  0  0  0  0  0  0  0  0  0  0
  161.6310  205.4480  151.1950 C   0  0  0  0  0  0  0  0  0  0  0  0
  161.8760  204.0300  151.5010 C   0  0  0  0  0  3  0  0  0  0  0  0
  162.0510  206.4600  152.2270 C   0  0  0  0  0  2  0  0  0  0  0  0
  160.7110  204.7910  148.9770 C   0  0  0  0  0  2  0  0  0  0  0  0
  161.0790  209.7560  150.5580 O   0  0  0  0  0  0  0  0  0  0  0  0
  161.0090  207.2490  149.5680 C   0  0  0  0  0  2  0  0  0  0  0  0
  160.6550  202.4260  148.6390 O   0  0  0  0  0  0  0  0  0  0  0  0
  161.1860  206.4900  153.4060 N   0  0  0  0  0  0  0  0  0  0  0  0
  161.1390  208.9870  156.1890 C   0  0  0  0  0  3  0  0  0  0  0  0
  162.2750  211.7140  148.8620 C   0  0  2  0  0  3  0  0  0  0  0  0
  159.9960  211.3420  151.9370 C   0  0  0  0  0  2  0  0  0  0  0  0
  160.8880  210.1930  155.5120 C   0  0  0  0  0  0  0  0  0  0  0  0
  161.1110  212.0390  149.8050 C   0  0  0  0  0  2  0  0  0  0  0  0
  161.0450  207.7360  154.1130 C   0  0  0  0  0  0  0  0  0  0  0  0
  162.3240  212.5930  147.6010 C   0  0  2  0  0  3  0  0  0  0  0  0
  163.2270  213.6380  147.8190 O   0  0  0  0  0  1  0  0  0  0  0  0
  160.9430  213.1730  147.2880 C   0  0  2  0  0  3  0  0  0  0  0  0
  159.9680  212.1730  147.3250 O   0  0  0  0  0  1  0  0  0  0  0  0
  160.9010  213.8460  145.9230 C   0  0  0  0  0  2  0  0  0  0  0  0
  159.6870  212.4280  144.3550 N   0  0  0  0  0  1  0  0  0  0  0  0
  161.0090  212.7820  144.8420 C   0  0  1  0  0  3  0  0  0  0  0  0
  163.1740  213.5720  144.1840 O   0  0  0  0  0  1  0  0  0  0  0  0
  162.0140  212.2790  142.7100 O   0  0  0  0  0  1  0  0  0  0  0  0
  161.9040  213.2580  143.6990 C   0  0  0  0  0  3  0  0  0  0  0  0
  160.8330  211.3870  156.2370 O   0  0  0  0  0  0  0  0  0  0  0  0
  159.7280  211.7620  157.0030 C   0  0  0  0  0  3  0  0  0  0  0  0
  158.5760  211.9300  156.4460 N   0  0  0  0  0  0  0  0  0  0  0  0
  157.4390  212.3460  157.2600 C   0  0  0  0  0  2  0  0  0  0  0  0
  156.1520  212.4090  156.4380 C   0  0  2  0  0  0  0  0  0  0  0  0
  155.3010  213.3540  157.0440 O   0  0  0  0  0  1  0  0  0  0  0  0
  155.5180  211.0050  156.5090 C   0  0  0  0  0  3  0  0  0  0  0  0
  155.6460  210.3350  155.2870 O   0  0  0  0  0  1  0  0  0  0  0  0
  154.1730  211.0510  156.8800 O   0  0  0  0  0  1  0  0  0  0  0  0
  156.4940  212.7410  155.0880 O   0  0  0  0  0  0  0  0  0  0  0  0
  155.5510  213.5640  154.4180 C   0  0  0  0  0  0  0  0  0  0  0  0
  154.8980  214.3300  155.3580 F   0  0  0  0  0  0  0  0  0  0  0  0
  154.5950  212.8020  153.7670 F   0  0  0  0  0  0  0  0  0  0  0  0
  156.1560  214.4260  153.5170 F   0  0  0  0  0  0  0  0  0  0  0  0
  1  5  1  0  0  0  0
  3  4  1  0  0  0  0
  4  6  1  6  0  0  0
  4 18  1  0  0  0  0
  5 15  2  0  0  0  0
  6 23  1  0  0  0  0
  7 10  2  0  0  0  0
  7 27  1  0  0  0  0
  8 14  2  0  0  0  0
  9 22  1  0  0  0  0
 10 25  1  0  0  0  0
 11 26  1  6  0  0  0
 11 24  1  0  0  0  0
 13  2  1  0  0  0  0
 13 10  1  0  0  0  0
 14 15  1  0  0  0  0
 14 16  1  0  0  0  0
 16 21  1  0  0  0  0
 17  1  1  0  0  0  0
 17  8  1  0  0  0  0
 18 11  1  0  0  0  0
 19  3  1  0  0  0  0
 19  8  1  0  0  0  0
 20  1  2  0  0  0  0
 21 27  1  0  0  0  0
 21 12  1  0  0  0  0
 23 28  1  6  0  0  0
 23 26  1  0  0  0  0
 24 13  1  0  0  0  0
 25 22  2  0  0  0  0
 25 38  1  0  0  0  0
 27  9  2  0  0  0  0
 28 29  1  1  0  0  0
 30 31  1  6  0  0  0
 30 28  1  0  0  0  0
 32 30  1  0  0  0  0
 34 33  1  6  0  0  0
 34 32  1  0  0  0  0
 36 37  1  0  0  0  0
 37 35  1  0  0  0  0
 37 34  1  0  0  0  0
 38 39  1  0  0  0  0
 40 39  2  0  0  0  0
 40 41  1  0  0  0  0
 42 44  1  0  0  0  0
 42 43  1  1  0  0  0
 42 41  1  0  0  0  0
 44 46  1  0  0  0  0
 45 44  1  0  0  0  0
 47 42  1  0  0  0  0
 48 47  1  0  0  0  0
 48 49  1  0  0  0  0
 50 48  1  0  0  0  0
 51 48  1  0  0  0  0
M  END
>  <MODEL>
1

>  <REMARK>
 VINA RESULT:      -6.2      0.000      0.000
  Name = 
  12 active torsions:
  status: ('A' for Active; 'I' for Inactive)
    1  A    between atoms: C_4  and  C_18
    2  A    between atoms: C_4  and  C_42
    3  A    between atoms: C_8  and  C_43
    4  A    between atoms: C_15  and  O_35
    5  A    between atoms: C_18  and  C_19
    6  A    between atoms: C_19  and  CA_23
    7  A    between atoms: C_22  and  CA_23
    8  A    between atoms: C_27  and  C_43
    9  A    between atoms: C_27  and  N_49
   10  A    between atoms: C_28  and  O_47
   11  A    between atoms: O_35  and  C_43
   12  A    between atoms: C_46  and  O_47
                            x       y       z     vdW  Elec       q    Type
                         _______ _______ _______ _____ _____    ______ ____

>  <TORSDO>
F 12

$$$$
=
 OpenBabel11042420173D

 51 54  0  0  1  0  0  0  0  0999 V2000
  160.8420  204.0820  146.1980 C   0  0  0  0  0  0  0  0  0  0  0  0
  160.6740  211.2320  153.7330 C   0  0  0  0  0  1  0  0  0  0  0  0
  162.6040  208.1700  147.9580 C   0  0  0  0  0  2  0  0  0  0  0  0
  162.5980  209.4930  148.7230 C   0  0  1  0  0  3  0  0  0  0  0  0
  161.3770  203.3230  147.2810 N   0  0  0  0  0  0  0  0  0  0  0  0
  162.7110  210.6730  147.7640 C   0  0  0  0  0  2  0  0  0  0  0  0
  160.9790  207.8860  151.9130 C   0  0  0  0  0  3  0  0  0  0  0  0
  161.2040  206.1380  147.5950 C   0  0  0  0  0  0  0  0  0  0  0  0
  161.2470  206.0500  153.4540 C   0  0  0  0  0  3  0  0  0  0  0  0
  160.9690  208.8210  152.9740 C   0  0  0  0  0  0  0  0  0  0  0  0
  161.6210  210.7040  150.3950 C   0  0  2  0  0  3  0  0  0  0  0  0
  160.7990  204.1860  151.2810 C   0  0  0  0  0  1  0  0  0  0  0  0
  160.8200  210.2380  152.6810 N   0  0  0  0  0  0  0  0  0  0  0  0
  161.6110  205.3360  148.6040 C   0  0  0  0  0  0  0  0  0  0  0  0
  161.7290  203.8850  148.3950 C   0  0  0  0  0  3  0  0  0  0  0  0
  162.0790  205.8850  149.9240 C   0  0  0  0  0  2  0  0  0  0  0  0
  160.7130  205.5760  146.2930 C   0  0  0  0  0  2  0  0  0  0  0  0
  161.4330  209.6280  149.5110 O   0  0  0  0  0  0  0  0  0  0  0  0
  161.1910  207.6380  147.7070 C   0  0  0  0  0  2  0  0  0  0  0  0
  160.4740  203.4910  145.1500 O   0  0  0  0  0  0  0  0  0  0  0  0
  161.1810  205.5790  151.0380 N   0  0  0  0  0  0  0  0  0  0  0  0
  161.2480  206.9450  154.5180 C   0  0  0  0  0  3  0  0  0  0  0  0
  162.8410  211.9400  148.6080 C   0  0  2  0  0  3  0  0  0  0  0  0
  160.4400  210.7230  151.3550 C   0  0  0  0  0  2  0  0  0  0  0  0
  161.1180  208.3280  154.3050 C   0  0  0  0  0  0  0  0  0  0  0  0
  161.6770  212.0180  149.6040 C   0  0  0  0  0  2  0  0  0  0  0  0
  161.1190  206.5080  152.1360 C   0  0  0  0  0  0  0  0  0  0  0  0
  163.0020  213.1950  147.7340 C   0  0  2  0  0  3  0  0  0  0  0  0
  162.5340  214.3020  148.4500 O   0  0  0  0  0  1  0  0  0  0  0  0
  162.2050  213.0590  146.4340 C   0  0  2  0  0  3  0  0  0  0  0  0
  163.0020  213.3800  145.3330 O   0  0  0  0  0  1  0  0  0  0  0  0
  160.9730  213.9530  146.4230 C   0  0  0  0  0  2  0  0  0  0  0  0
  158.9400  213.4550  147.6730 N   0  0  0  0  0  1  0  0  0  0  0  0
  159.7280  213.0840  146.5110 C   0  0  1  0  0  3  0  0  0  0  0  0
  159.0640  214.4530  144.6600 O   0  0  0  0  0  1  0  0  0  0  0  0
  159.2770  212.2120  144.3100 O   0  0  0  0  0  1  0  0  0  0  0  0
  158.9000  213.1910  145.2310 C   0  0  0  0  0  3  0  0  0  0  0  0
  161.1380  209.1950  155.4020 O   0  0  0  0  0  0  0  0  0  0  0  0
  159.9940  209.5260  156.1300 C   0  0  0  0  0  3  0  0  0  0  0  0
  159.7690  210.7510  156.4690 N   0  0  0  0  0  0  0  0  0  0  0  0
  158.5810  211.0710  157.2530 C   0  0  0  0  0  2  0  0  0  0  0  0
  157.7630  212.1870  156.6020 C   0  0  2  0  0  0  0  0  0  0  0  0
  158.1550  213.4060  157.1890 O   0  0  0  0  0  1  0  0  0  0  0  0
  156.2850  211.8940  156.9310 C   0  0  0  0  0  3  0  0  0  0  0  0
  155.6590  211.2220  155.8750 O   0  0  0  0  0  1  0  0  0  0  0  0
  155.5720  213.0550  157.2360 O   0  0  0  0  0  1  0  0  0  0  0  0
  157.9840  212.1430  155.1890 O   0  0  0  0  0  0  0  0  0  0  0  0
  157.9520  213.4060  154.5400 C   0  0  0  0  0  0  0  0  0  0  0  0
  157.7570  213.1970  153.1930 F   0  0  0  0  0  0  0  0  0  0  0  0
  159.1560  214.0740  154.6870 F   0  0  0  0  0  0  0  0  0  0  0  0
  156.9160  214.2040  154.9990 F   0  0  0  0  0  0  0  0  0  0  0  0
  1 17  1  0  0  0  0
  1  5  1  0  0  0  0
  3  4  1  0  0  0  0
  4  6  1  6  0  0  0
  4 18  1  0  0  0  0
  5 15  2  0  0  0  0
  6 23  1  0  0  0  0
  7 27  2  0  0  0  0
  7 10  1  0  0  0  0
  8 19  1  0  0  0  0
  8 14  2  0  0  0  0
  9 22  2  0  0  0  0
 10 25  2  0  0  0  0
 11 26  1  6  0  0  0
 11 24  1  0  0  0  0
 13 10  1  0  0  0  0
 13  2  1  0  0  0  0
 14 16  1  0  0  0  0
 15 14  1  0  0  0  0
 16 21  1  0  0  0  0
 17  8  1  0  0  0  0
 18 11  1  0  0  0  0
 19  3  1  0  0  0  0
 20  1  2  0  0  0  0
 21 12  1  0  0  0  0
 21 27  1  0  0  0  0
 23 28  1  6  0  0  0
 23 26  1  0  0  0  0
 24 13  1  0  0  0  0
 25 22  1  0  0  0  0
 25 38  1  0  0  0  0
 27  9  1  0  0  0  0
 28 29  1  1  0  0  0
 30 31  1  6  0  0  0
 30 28  1  0  0  0  0
 32 30  1  0  0  0  0
 32 34  1  0  0  0  0
 34 33  1  1  0  0  0
 35 37  1  0  0  0  0
 36 37  1  0  0  0  0
 37 34  1  0  0  0  0
 38 39  1  0  0  0  0
 39 40  2  0  0  0  0
 40 41  1  0  0  0  0
 42 44  1  0  0  0  0
 42 43  1  1  0  0  0
 42 41  1  0  0  0  0
 44 46  1  0  0  0  0
 45 44  1  0  0  0  0
 47 42  1  0  0  0  0
 48 50  1  0  0  0  0
 48 51  1  0  0  0  0
 48 47  1  0  0  0  0
 49 48  1  0  0  0  0
M  END
>  <MODEL>
2

>  <REMARK>
 VINA RESULT:      -5.8      1.844      2.410
  Name = 
  12 active torsions:
  status: ('A' for Active; 'I' for Inactive)
    1  A    between atoms: C_4  and  C_18
    2  A    between atoms: C_4  and  C_42
    3  A    between atoms: C_8  and  C_43
    4  A    between atoms: C_15  and  O_35
    5  A    between atoms: C_18  and  C_19
    6  A    between atoms: C_19  and  CA_23
    7  A    between atoms: C_22  and  CA_23
    8  A    between atoms: C_27  and  C_43
    9  A    between atoms: C_27  and  N_49
   10  A    between atoms: C_28  and  O_47
   11  A    between atoms: O_35  and  C_43
   12  A    between atoms: C_46  and  O_47
                            x       y       z     vdW  Elec       q    Type
                         _______ _______ _______ _____ _____    ______ ____

>  <TORSDO>
F 12

$$$$
=
 OpenBabel11042420173D

 51 54  0  0  1  0  0  0  0  0999 V2000
  159.0580  213.5520  156.3830 C   0  0  0  0  0  0  0  0  0  0  0  0
  162.9230  208.0290  148.4790 C   0  0  0  0  0  1  0  0  0  0  0  0
  159.1140  212.6890  151.6760 C   0  0  0  0  0  2  0  0  0  0  0  0
  159.6980  212.2730  150.3260 C   0  0  1  0  0  3  0  0  0  0  0  0
  158.4910  212.2730  156.6650 N   0  0  0  0  0  0  0  0  0  0  0  0
  159.8290  213.4770  149.3990 C   0  0  0  0  0  2  0  0  0  0  0  0
  161.1970  208.9450  151.7620 C   0  0  0  0  0  3  0  0  0  0  0  0
  159.6590  212.6710  154.1090 C   0  0  0  0  0  0  0  0  0  0  0  0
  160.5890  206.9870  153.0310 C   0  0  0  0  0  3  0  0  0  0  0  0
  161.7040  208.1490  150.7090 C   0  0  0  0  0  0  0  0  0  0  0  0
  161.2970  211.0400  149.2600 C   0  0  2  0  0  3  0  0  0  0  0  0
  160.0020  208.6710  155.3140 C   0  0  0  0  0  1  0  0  0  0  0  0
  162.2720  208.7900  149.5330 N   0  0  0  0  0  0  0  0  0  0  0  0
  159.1830  211.4650  154.4910 C   0  0  0  0  0  0  0  0  0  0  0  0
  158.5460  211.3030  155.8080 C   0  0  0  0  0  3  0  0  0  0  0  0
  159.1610  210.2810  153.5630 C   0  0  0  0  0  2  0  0  0  0  0  0
  159.7010  213.8350  155.0550 C   0  0  0  0  0  2  0  0  0  0  0  0
  160.9560  211.6480  150.4800 O   0  0  0  0  0  0  0  0  0  0  0  0
  160.1980  212.9290  152.7280 C   0  0  0  0  0  2  0  0  0  0  0  0
  159.0200  214.4530  157.2610 O   0  0  0  0  0  0  0  0  0  0  0  0
  160.0780  209.2110  153.9540 N   0  0  0  0  0  0  0  0  0  0  0  0
  161.0740  206.1760  152.0100 C   0  0  0  0  0  3  0  0  0  0  0  0
  160.2830  212.9570  148.0350 C   0  0  2  0  0  3  0  0  0  0  0  0
  162.5610  210.2220  149.4910 C   0  0  0  0  0  2  0  0  0  0  0  0
  161.6260  206.7310  150.8430 C   0  0  0  0  0  0  0  0  0  0  0  0
  161.5560  212.1190  148.1990 C   0  0  0  0  0  2  0  0  0  0  0  0
  160.6380  208.3820  152.9190 C   0  0  0  0  0  0  0  0  0  0  0  0
  160.4100  214.0930  147.0050 C   0  0  2  0  0  3  0  0  0  0  0  0
  159.1530  214.3230  146.4360 O   0  0  0  0  0  1  0  0  0  0  0  0
  161.4050  213.7200  145.9040 C   0  0  2  0  0  3  0  0  0  0  0  0
  162.5860  214.4520  146.0390 O   0  0  0  0  0  1  0  0  0  0  0  0
  160.8350  213.9650  144.5120 C   0  0  0  0  0  2  0  0  0  0  0  0
  159.4830  212.1080  143.6970 N   0  0  0  0  0  1  0  0  0  0  0  0
  160.8280  212.6540  143.7420 C   0  0  1  0  0  3  0  0  0  0  0  0
  162.6200  213.4980  142.3940 O   0  0  0  0  0  1  0  0  0  0  0  0
  161.5370  211.6240  141.6820 O   0  0  0  0  0  1  0  0  0  0  0  0
  161.3860  212.8490  142.3330 C   0  0  0  0  0  3  0  0  0  0  0  0
  162.0890  205.8800  149.8330 O   0  0  0  0  0  0  0  0  0  0  0  0
  161.2360  205.1360  149.0160 C   0  0  0  0  0  3  0  0  0  0  0  0
  161.0640  203.8750  149.2310 N   0  0  0  0  0  0  0  0  0  0  0  0
  160.1890  203.1100  148.3500 C   0  0  0  0  0  2  0  0  0  0  0  0
  160.9810  202.1350  147.4800 C   0  0  2  0  0  0  0  0  0  0  0  0
  160.0830  201.5430  146.5710 O   0  0  0  0  0  1  0  0  0  0  0  0
  161.5520  201.0630  148.4310 C   0  0  0  0  0  3  0  0  0  0  0  0
  161.7910  199.8640  147.7510 O   0  0  0  0  0  1  0  0  0  0  0  0
  160.7140  200.8250  149.5220 O   0  0  0  0  0  1  0  0  0  0  0  0
  162.0390  202.8570  146.8400 O   0  0  0  0  0  0  0  0  0  0  0  0
  161.6340  203.6590  145.7400 C   0  0  0  0  0  0  0  0  0  0  0  0
  161.0950  202.8350  144.7770 F   0  0  0  0  0  0  0  0  0  0  0  0
  162.7160  204.3100  145.1720 F   0  0  0  0  0  0  0  0  0  0  0  0
  160.6650  204.5840  146.0960 F   0  0  0  0  0  0  0  0  0  0  0  0
  1  5  1  0  0  0  0
  1 20  2  0  0  0  0
  2 13  1  0  0  0  0
  3 19  1  0  0  0  0
  4  6  1  6  0  0  0
  4 18  1  0  0  0  0
  4  3  1  0  0  0  0
  7 27  1  0  0  0  0
  8 14  2  0  0  0  0
  8 17  1  0  0  0  0
 10 25  1  0  0  0  0
 10  7  2  0  0  0  0
 11 26  1  6  0  0  0
 11 24  1  0  0  0  0
 11 18  1  0  0  0  0
 13 10  1  0  0  0  0
 14 15  1  0  0  0  0
 15  5  2  0  0  0  0
 16 21  1  0  0  0  0
 16 14  1  0  0  0  0
 17  1  1  0  0  0  0
 19  8  1  0  0  0  0
 21 12  1  0  0  0  0
 22  9  1  0  0  0  0
 23 28  1  6  0  0  0
 23 26  1  0  0  0  0
 23  6  1  0  0  0  0
 24 13  1  0  0  0  0
 25 22  2  0  0  0  0
 27  9  2  0  0  0  0
 27 21  1  0  0  0  0
 28 29  1  6  0  0  0
 30 31  1  1  0  0  0
 30 28  1  0  0  0  0
 32 30  1  0  0  0  0
 34 33  1  6  0  0  0
 34 32  1  0  0  0  0
 36 37  1  0  0  0  0
 37 35  1  0  0  0  0
 37 34  1  0  0  0  0
 38 25  1  0  0  0  0
 39 40  2  0  0  0  0
 39 38  1  0  0  0  0
 41 40  1  0  0  0  0
 42 43  1  6  0  0  0
 42 41  1  0  0  0  0
 42 44  1  0  0  0  0
 44 46  1  0  0  0  0
 45 44  1  0  0  0  0
 47 42  1  0  0  0  0
 48 51  1  0  0  0  0
 48 47  1  0  0  0  0
 49 48  1  0  0  0  0
 50 48  1  0  0  0  0
M  END
>  <MODEL>
3

>  <REMARK>
 VINA RESULT:      -5.0      3.933      8.726
  Name = 
  12 active torsions:
  status: ('A' for Active; 'I' for Inactive)
    1  A    between atoms: C_4  and  C_18
    2  A    between atoms: C_4  and  C_42
    3  A    between atoms: C_8  and  C_43
    4  A    between atoms: C_15  and  O_35
    5  A    between atoms: C_18  and  C_19
    6  A    between atoms: C_19  and  CA_23
    7  A    between atoms: C_22  and  CA_23
    8  A    between atoms: C_27  and  C_43
    9  A    between atoms: C_27  and  N_49
   10  A    between atoms: C_28  and  O_47
   11  A    between atoms: O_35  and  C_43
   12  A    between atoms: C_46  and  O_47
                            x       y       z     vdW  Elec       q    Type
                         _______ _______ _______ _____ _____    ______ ____

>  <TORSDO>
F 12

$$$$
=
 OpenBabel11042420173D

 51 54  0  0  1  0  0  0  0  0999 V2000
  160.6970  203.3790  146.3720 C   0  0  0  0  0  0  0  0  0  0  0  0
  160.7390  210.6430  153.7980 C   0  0  0  0  0  1  0  0  0  0  0  0
  162.5480  207.4610  148.0490 C   0  0  0  0  0  2  0  0  0  0  0  0
  162.5740  208.7960  148.7940 C   0  0  1  0  0  3  0  0  0  0  0  0
  161.2320  202.6270  147.4610 N   0  0  0  0  0  0  0  0  0  0  0  0
  162.6950  209.9590  147.8150 C   0  0  0  0  0  2  0  0  0  0  0  0
  160.9650  207.2650  152.0270 C   0  0  0  0  0  3  0  0  0  0  0  0
  161.1100  205.4490  147.7330 C   0  0  0  0  0  0  0  0  0  0  0  0
  161.2210  205.4490  153.5920 C   0  0  0  0  0  3  0  0  0  0  0  0
  160.9840  208.2160  153.0730 C   0  0  0  0  0  0  0  0  0  0  0  0
  161.6380  210.0490  150.4580 C   0  0  2  0  0  3  0  0  0  0  0  0
  160.7160  203.5600  151.4540 C   0  0  0  0  0  1  0  0  0  0  0  0
  160.8560  209.6310  152.7600 N   0  0  0  0  0  0  0  0  0  0  0  0
  161.5150  204.6550  148.7490 C   0  0  0  0  0  0  0  0  0  0  0  0
  161.6060  203.1990  148.5610 C   0  0  0  0  0  3  0  0  0  0  0  0
  162.0080  205.2150  150.0560 C   0  0  0  0  0  2  0  0  0  0  0  0
  160.5940  204.8750  146.4460 C   0  0  0  0  0  2  0  0  0  0  0  0
  161.4210  208.9620  149.5930 O   0  0  0  0  0  0  0  0  0  0  0  0
  161.1240  206.9510  147.8220 C   0  0  0  0  0  2  0  0  0  0  0  0
  160.3060  202.7780  145.3380 O   0  0  0  0  0  0  0  0  0  0  0  0
  161.1180  204.9420  151.1840 N   0  0  0  0  0  0  0  0  0  0  0  0
  161.2490  206.3590  154.6420 C   0  0  0  0  0  3  0  0  0  0  0  0
  162.8560  211.2360  148.6390 C   0  0  2  0  0  3  0  0  0  0  0  0
  160.4680  210.1030  151.4320 C   0  0  0  0  0  2  0  0  0  0  0  0
  161.1410  207.7410  154.4090 C   0  0  0  0  0  0  0  0  0  0  0  0
  161.7060  211.3490  149.6470 C   0  0  0  0  0  2  0  0  0  0  0  0
  161.0850  205.8890  152.2690 C   0  0  0  0  0  0  0  0  0  0  0  0
  163.0280  212.4750  147.7440 C   0  0  2  0  0  3  0  0  0  0  0  0
  164.0910  213.2390  148.2370 O   0  0  0  0  0  1  0  0  0  0  0  0
  161.7540  213.3230  147.7370 C   0  0  2  0  0  3  0  0  0  0  0  0
  160.6220  212.5110  147.8280 O   0  0  0  0  0  1  0  0  0  0  0  0
  161.6430  214.1780  146.4820 C   0  0  0  0  0  2  0  0  0  0  0  0
  160.0600  213.2100  144.9020 N   0  0  0  0  0  1  0  0  0  0  0  0
  161.4620  213.2690  145.2770 C   0  0  1  0  0  3  0  0  0  0  0  0
  163.4940  214.3320  144.5810 O   0  0  0  0  0  1  0  0  0  0  0  0
  162.6470  212.6770  143.2640 O   0  0  0  0  0  1  0  0  0  0  0  0
  162.3220  213.7420  144.1060 C   0  0  0  0  0  3  0  0  0  0  0  0
  161.1880  208.6240  155.4920 O   0  0  0  0  0  0  0  0  0  0  0  0
  160.0480  209.0520  156.1750 C   0  0  0  0  0  3  0  0  0  0  0  0
  159.8770  210.3040  156.4380 N   0  0  0  0  0  0  0  0  0  0  0  0
  158.6920  210.7270  157.1750 C   0  0  0  0  0  2  0  0  0  0  0  0
  157.9110  211.7990  156.4150 C   0  0  2  0  0  0  0  0  0  0  0  0
  157.4730  211.2340  155.2020 O   0  0  0  0  0  1  0  0  0  0  0  0
  158.9020  212.9470  156.1350 C   0  0  0  0  0  3  0  0  0  0  0  0
  159.0560  213.7650  157.2610 O   0  0  0  0  0  1  0  0  0  0  0  0
  158.5150  213.7240  155.0410 O   0  0  0  0  0  1  0  0  0  0  0  0
  156.8380  212.2510  157.2480 O   0  0  0  0  0  0  0  0  0  0  0  0
  155.5770  212.3420  156.6010 C   0  0  0  0  0  0  0  0  0  0  0  0
  154.8710  211.1890  156.8620 F   0  0  0  0  0  0  0  0  0  0  0  0
  155.7260  212.4370  155.2270 F   0  0  0  0  0  0  0  0  0  0  0  0
  154.8270  213.4120  157.0650 F   0  0  0  0  0  0  0  0  0  0  0  0
  1 17  1  0  0  0  0
  1  5  1  0  0  0  0
  3  4  1  0  0  0  0
  4  6  1  6  0  0  0
  4 18  1  0  0  0  0
  5 15  2  0  0  0  0
  6 23  1  0  0  0  0
  7 27  2  0  0  0  0
  7 10  1  0  0  0  0
  8 19  1  0  0  0  0
  8 14  2  0  0  0  0
  9 22  2  0  0  0  0
 10 25  2  0  0  0  0
 11 26  1  6  0  0  0
 11 24  1  0  0  0  0
 13 10  1  0  0  0  0
 13  2  1  0  0  0  0
 14 16  1  0  0  0  0
 15 14  1  0  0  0  0
 16 21  1  0  0  0  0
 17  8  1  0  0  0  0
 18 11  1  0  0  0  0
 19  3  1  0  0  0  0
 20  1  2  0  0  0  0
 21 12  1  0  0  0  0
 21 27  1  0  0  0  0
 23 28  1  6  0  0  0
 23 26  1  0  0  0  0
 24 13  1  0  0  0  0
 25 22  1  0  0  0  0
 25 38  1  0  0  0  0
 27  9  1  0  0  0  0
 28 29  1  1  0  0  0
 30 28  1  0  0  0  0
 30 31  1  6  0  0  0
 32 30  1  0  0  0  0
 34 33  1  6  0  0  0
 34 32  1  0  0  0  0
 36 37  1  0  0  0  0
 37 35  1  0  0  0  0
 37 34  1  0  0  0  0
 38 39  1  0  0  0  0
 39 40  2  0  0  0  0
 40 41  1  0  0  0  0
 42 43  1  6  0  0  0
 42 41  1  0  0  0  0
 42 47  1  0  0  0  0
 44 42  1  0  0  0  0
 44 45  1  0  0  0  0
 46 44  1  0  0  0  0
 48 49  1  0  0  0  0
 48 51  1  0  0  0  0
 48 47  1  0  0  0  0
 50 48  1  0  0  0  0
M  END
>  <MODEL>
4

>  <REMARK>
 VINA RESULT:      -4.2      1.663      2.470
  Name = 
  12 active torsions:
  status: ('A' for Active; 'I' for Inactive)
    1  A    between atoms: C_4  and  C_18
    2  A    between atoms: C_4  and  C_42
    3  A    between atoms: C_8  and  C_43
    4  A    between atoms: C_15  and  O_35
    5  A    between atoms: C_18  and  C_19
    6  A    between atoms: C_19  and  CA_23
    7  A    between atoms: C_22  and  CA_23
    8  A    between atoms: C_27  and  C_43
    9  A    between atoms: C_27  and  N_49
   10  A    between atoms: C_28  and  O_47
   11  A    between atoms: O_35  and  C_43
   12  A    between atoms: C_46  and  O_47
                            x       y       z     vdW  Elec       q    Type
                         _______ _______ _______ _____ _____    ______ ____

>  <TORSDO>
F 12

$$$$
=
 OpenBabel11042420173D

 51 54  0  0  1  0  0  0  0  0999 V2000
  160.9520  203.1730  149.8660 C   0  0  0  0  0  0  0  0  0  0  0  0
  160.2890  212.6750  154.0120 C   0  0  0  0  0  1  0  0  0  0  0  0
  162.3950  207.7360  149.8150 C   0  0  0  0  0  2  0  0  0  0  0  0
  162.2900  209.2500  150.0020 C   0  0  1  0  0  3  0  0  0  0  0  0
  161.5600  202.9400  151.1360 N   0  0  0  0  0  0  0  0  0  0  0  0
  162.2950  209.9630  148.6540 C   0  0  0  0  0  2  0  0  0  0  0  0
  160.8450  208.9140  153.6320 C   0  0  0  0  0  3  0  0  0  0  0  0
  161.1610  205.6320  150.3330 C   0  0  0  0  0  0  0  0  0  0  0  0
  161.2800  207.8540  155.7540 C   0  0  0  0  0  3  0  0  0  0  0  0
  160.7710  210.1870  154.2430 C   0  0  0  0  0  0  0  0  0  0  0  0
  161.2380  210.9480  151.1080 C   0  0  2  0  0  3  0  0  0  0  0  0
  160.9600  205.2610  154.5030 C   0  0  0  0  0  1  0  0  0  0  0  0
  160.5040  211.3610  153.4270 N   0  0  0  0  0  0  0  0  0  0  0  0
  161.6440  205.3210  151.5570 C   0  0  0  0  0  0  0  0  0  0  0  0
  161.8780  203.9160  151.9260 C   0  0  0  0  0  3  0  0  0  0  0  0
  162.0810  206.3750  152.5370 C   0  0  0  0  0  2  0  0  0  0  0  0
  160.7020  204.5710  149.3770 C   0  0  0  0  0  2  0  0  0  0  0  0
  161.1280  209.6010  150.7240 O   0  0  0  0  0  0  0  0  0  0  0  0
  161.0280  207.0510  149.8510 C   0  0  0  0  0  2  0  0  0  0  0  0
  160.6210  202.1930  149.1500 O   0  0  0  0  0  0  0  0  0  0  0  0
  161.2240  206.4690  153.7190 N   0  0  0  0  0  0  0  0  0  0  0  0
  161.2200  209.0920  156.3840 C   0  0  0  0  0  3  0  0  0  0  0  0
  162.3310  211.4660  148.9310 C   0  0  2  0  0  3  0  0  0  0  0  0
  160.0700  211.2590  152.0350 C   0  0  0  0  0  2  0  0  0  0  0  0
  160.9750  210.2680  155.6530 C   0  0  0  0  0  0  0  0  0  0  0  0
  161.1760  211.8460  149.8660 C   0  0  0  0  0  2  0  0  0  0  0  0
  161.1000  207.7480  154.3690 C   0  0  0  0  0  0  0  0  0  0  0  0
  162.3790  212.2850  147.6300 C   0  0  2  0  0  3  0  0  0  0  0  0
  162.9500  213.5310  147.9070 O   0  0  0  0  0  1  0  0  0  0  0  0
  160.9730  212.4870  147.0620 C   0  0  2  0  0  3  0  0  0  0  0  0
  161.0340  213.0340  145.7780 O   0  0  0  0  0  1  0  0  0  0  0  0
  160.1270  213.3990  147.9400 C   0  0  0  0  0  2  0  0  0  0  0  0
  158.5110  211.7650  147.1270 N   0  0  0  0  0  1  0  0  0  0  0  0
  158.6570  213.0890  147.7060 C   0  0  1  0  0  3  0  0  0  0  0  0
  158.1560  214.4170  149.6360 O   0  0  0  0  0  1  0  0  0  0  0  0
  156.4900  213.1330  148.7610 O   0  0  0  0  0  1  0  0  0  0  0  0
  157.8620  213.2080  149.0060 C   0  0  0  0  0  3  0  0  0  0  0  0
  160.9370  211.4950  156.3220 O   0  0  0  0  0  0  0  0  0  0  0  0
  159.8210  211.9390  157.0330 C   0  0  0  0  0  3  0  0  0  0  0  0
  158.9910  212.7680  156.4920 N   0  0  0  0  0  0  0  0  0  0  0  0
  157.8450  213.2390  157.2610 C   0  0  0  0  0  2  0  0  0  0  0  0
  156.6500  213.5450  156.3580 C   0  0  2  0  0  0  0  0  0  0  0  0
  155.7880  214.4070  157.0630 O   0  0  0  0  0  1  0  0  0  0  0  0
  155.9480  212.1990  156.0890 C   0  0  0  0  0  3  0  0  0  0  0  0
  154.6190  212.2290  156.5270 O   0  0  0  0  0  1  0  0  0  0  0  0
  156.6140  211.1270  156.6870 O   0  0  0  0  0  1  0  0  0  0  0  0
  157.1400  214.1110  155.1380 O   0  0  0  0  0  0  0  0  0  0  0  0
  156.6240  213.5180  153.9550 C   0  0  0  0  0  0  0  0  0  0  0  0
  157.4670  213.8290  152.9100 F   0  0  0  0  0  0  0  0  0  0  0  0
  155.3730  214.0260  153.6450 F   0  0  0  0  0  0  0  0  0  0  0  0
  156.5580  212.1370  154.0480 F   0  0  0  0  0  0  0  0  0  0  0  0
  1  5  1  0  0  0  0
  3 19  1  0  0  0  0
  3  4  1  0  0  0  0
  4  6  1  6  0  0  0
  4 18  1  0  0  0  0
  5 15  2  0  0  0  0
  6 23  1  0  0  0  0
  7 10  2  0  0  0  0
  7 27  1  0  0  0  0
  8 14  2  0  0  0  0
  9 22  1  0  0  0  0
 10 25  1  0  0  0  0
 11 26  1  6  0  0  0
 11 24  1  0  0  0  0
 13  2  1  0  0  0  0
 13 10  1  0  0  0  0
 14 15  1  0  0  0  0
 14 16  1  0  0  0  0
 16 21  1  0  0  0  0
 17  1  1  0  0  0  0
 17  8  1  0  0  0  0
 18 11  1  0  0  0  0
 19  8  1  0  0  0  0
 20  1  2  0  0  0  0
 21 27  1  0  0  0  0
 21 12  1  0  0  0  0
 23 28  1  6  0  0  0
 23 26  1  0  0  0  0
 24 13  1  0  0  0  0
 25 38  1  0  0  0  0
 25 22  2  0  0  0  0
 27  9  2  0  0  0  0
 28 29  1  1  0  0  0
 30 31  1  6  0  0  0
 30 28  1  0  0  0  0
 30 32  1  0  0  0  0
 34 33  1  1  0  0  0
 34 32  1  0  0  0  0
 34 37  1  0  0  0  0
 36 37  1  0  0  0  0
 37 35  1  0  0  0  0
 38 39  1  0  0  0  0
 40 39  2  0  0  0  0
 40 41  1  0  0  0  0
 42 43  1  1  0  0  0
 42 41  1  0  0  0  0
 44 42  1  0  0  0  0
 44 45  1  0  0  0  0
 44 46  1  0  0  0  0
 47 42  1  0  0  0  0
 48 51  1  0  0  0  0
 48 47  1  0  0  0  0
 49 48  1  0  0  0  0
 50 48  1  0  0  0  0
M  END
>  <MODEL>
5

>  <REMARK>
 VINA RESULT:      -4.2      1.303      2.201
  Name = 
  12 active torsions:
  status: ('A' for Active; 'I' for Inactive)
    1  A    between atoms: C_4  and  C_18
    2  A    between atoms: C_4  and  C_42
    3  A    between atoms: C_8  and  C_43
    4  A    between atoms: C_15  and  O_35
    5  A    between atoms: C_18  and  C_19
    6  A    between atoms: C_19  and  CA_23
    7  A    between atoms: C_22  and  CA_23
    8  A    between atoms: C_27  and  C_43
    9  A    between atoms: C_27  and  N_49
   10  A    between atoms: C_28  and  O_47
   11  A    between atoms: O_35  and  C_43
   12  A    between atoms: C_46  and  O_47
                            x       y       z     vdW  Elec       q    Type
                         _______ _______ _______ _____ _____    ______ ____

>  <TORSDO>
F 12

$$$$
