=
 OpenBabel11042420083D

 30 36  0  0  1  0  0  0  0  0999 V2000
  160.2090  212.9960  150.6650 C   0  0  0  0  0  2  0  0  0  0  0  0
  160.0610  212.3870  152.0510 C   0  0  1  0  0  0  0  0  0  0  0  0
  161.1680  206.9210  152.2630 C   0  0  0  0  0  0  0  0  0  0  0  0
  161.6260  211.2340  155.8160 C   0  0  0  0  0  0  0  0  0  0  0  0
  161.1490  205.9220  153.2370 C   0  0  0  0  0  3  0  0  0  0  0  0
  161.1850  204.5890  152.7960 C   0  0  0  0  0  3  0  0  0  0  0  0
  161.4750  212.1920  156.7650 F   0  0  0  0  0  0  0  0  0  0  0  0
  161.1400  208.2630  152.4360 N   0  0  0  0  0  0  0  0  0  0  0  0
  161.1300  209.0510  153.6510 C   0  0  0  0  0  0  0  0  0  0  0  0
  160.9190  210.3960  153.5460 C   0  0  0  0  0  0  0  0  0  0  0  0
  161.2020  210.2670  150.9560 C   0  0  0  0  0  2  0  0  0  0  0  0
  159.0940  211.1750  151.9720 C   0  0  1  0  0  3  0  0  0  0  0  0
  161.2950  208.3450  154.9460 C   0  0  0  0  0  3  0  0  0  0  0  0
  161.2170  206.6080  150.9260 C   0  0  0  0  0  0  0  0  0  0  0  0
  160.5790  210.9580  152.1730 C   0  0  2  0  0  0  0  0  0  0  0  0
  160.9150  211.3400  154.6950 C   0  0  0  0  0  3  0  0  0  0  0  0
  162.6190  210.1320  156.0050 C   0  0  2  0  0  3  0  0  0  0  0  0
  161.2260  207.7990  150.2250 C   0  0  0  0  0  0  0  0  0  0  0  0
  158.6090  212.5340  152.4070 C   0  0  2  0  0  0  0  0  0  0  0  0
  161.9540  208.0310  157.1370 F   0  0  0  0  0  0  0  0  0  0  0  0
  161.2880  207.9890  148.7470 C   0  0  0  0  0  1  0  0  0  0  0  0
  161.1710  208.7930  151.1900 C   0  0  0  0  0  0  0  0  0  0  0  0
  161.3080  204.9300  149.1270 N   0  0  0  0  0  1  0  0  0  0  0  0
  161.2370  204.2970  151.4590 N   0  0  0  0  0  0  0  0  0  0  0  0
  161.2550  205.2760  150.5070 C   0  0  0  0  0  0  0  0  0  0  0  0
  157.9440  213.4630  151.4130 C   0  0  0  0  0  2  0  0  0  0  0  0
  161.9160  208.8130  156.0280 C   0  0  0  0  0  0  0  0  0  0  0  0
  163.4530  210.3410  157.2600 C   0  0  0  0  0  1  0  0  0  0  0  0
  159.0510  213.9650  150.5030 C   0  0  0  0  0  2  0  0  0  0  0  0
  158.3780  212.7380  153.8260 N   0  0  0  0  0  1  0  0  0  0  0  0
  2  1  1  6  0  0  0
  2 15  1  0  0  0  0
  2 19  1  0  0  0  0
  3  8  1  0  0  0  0
  3  5  1  0  0  0  0
  4 17  1  0  0  0  0
  4  7  1  0  0  0  0
  6  5  2  0  0  0  0
  8  9  1  0  0  0  0
  9 13  1  0  0  0  0
 10  9  2  0  0  0  0
 10 16  1  0  0  0  0
 11 22  1  0  0  0  0
 11 15  1  0  0  0  0
 12  2  1  0  0  0  0
 12 15  1  0  0  0  0
 12 19  1  0  0  0  0
 13 27  2  0  0  0  0
 14  3  2  0  0  0  0
 15 10  1  0  0  0  0
 16  4  2  0  0  0  0
 17 27  1  0  0  0  0
 17 28  1  0  0  0  0
 18 14  1  0  0  0  0
 18 22  2  0  0  0  0
 19 30  1  0  0  0  0
 21 18  1  0  0  0  0
 22  8  1  0  0  0  0
 23 25  1  0  0  0  0
 24  6  1  0  0  0  0
 25 14  1  0  0  0  0
 25 24  2  0  0  0  0
 26 19  1  0  0  0  0
 27 20  1  0  0  0  0
 29  1  1  0  0  0  0
 29 26  1  0  0  0  0
M  END
>  <MODEL>
1

>  <REMARK>
 VINA RESULT:      -8.0      0.000      0.000
  Name = 
  0 active torsions:
  status: ('A' for Active; 'I' for Inactive)
                            x       y       z     vdW  Elec       q    Type
                         _______ _______ _______ _____ _____    ______ ____

>  <TORSDO>
F 0

$$$$
=
 OpenBabel11042420083D

 30 36  0  0  1  0  0  0  0  0999 V2000
  160.2690  213.5880  147.6830 C   0  0  0  0  0  2  0  0  0  0  0  0
  161.2000  212.4670  148.1170 C   0  0  1  0  0  0  0  0  0  0  0  0
  160.8290  211.1750  153.5340 C   0  0  0  0  0  0  0  0  0  0  0  0
  162.0540  208.3790  148.8310 C   0  0  0  0  0  0  0  0  0  0  0  0
  161.4580  210.2870  154.4080 C   0  0  0  0  0  3  0  0  0  0  0  0
  161.2920  210.5100  155.7850 C   0  0  0  0  0  3  0  0  0  0  0  0
  162.6240  207.7660  147.7630 F   0  0  0  0  0  0  0  0  0  0  0  0
  160.8400  211.1710  152.1800 N   0  0  0  0  0  0  0  0  0  0  0  0
  161.4530  210.2440  151.2510 C   0  0  0  0  0  0  0  0  0  0  0  0
  161.4640  210.5720  149.9260 C   0  0  0  0  0  0  0  0  0  0  0  0
  159.8190  212.5460  150.3710 C   0  0  0  0  0  2  0  0  0  0  0  0
  162.0580  212.9570  149.3150 C   0  0  1  0  0  3  0  0  0  0  0  0
  162.0820  209.0160  151.7990 C   0  0  0  0  0  3  0  0  0  0  0  0
  160.0790  212.2250  154.0070 C   0  0  0  0  0  0  0  0  0  0  0  0
  160.9500  211.9480  149.5290 C   0  0  2  0  0  0  0  0  0  0  0  0
  162.0220  209.7110  148.8510 C   0  0  0  0  0  3  0  0  0  0  0  0
  161.4180  207.5710  149.9170 C   0  0  2  0  0  3  0  0  0  0  0  0
  159.5930  212.9110  152.9090 C   0  0  0  0  0  0  0  0  0  0  0  0
  162.5930  212.9900  147.9070 C   0  0  2  0  0  0  0  0  0  0  0  0
  162.7590  206.8090  151.8550 F   0  0  0  0  0  0  0  0  0  0  0  0
  158.7160  214.1160  152.9000 C   0  0  0  0  0  1  0  0  0  0  0  0
  160.0900  212.2340  151.8050 C   0  0  0  0  0  0  0  0  0  0  0  0
  159.1500  213.5090  155.8910 N   0  0  0  0  0  1  0  0  0  0  0  0
  160.5380  211.5600  156.2360 N   0  0  0  0  0  0  0  0  0  0  0  0
  159.9240  212.4280  155.3800 C   0  0  0  0  0  0  0  0  0  0  0  0
  162.5280  214.2670  147.0950 C   0  0  0  0  0  2  0  0  0  0  0  0
  162.1210  207.8200  151.2130 C   0  0  0  0  0  0  0  0  0  0  0  0
  161.3960  206.0890  149.5710 C   0  0  0  0  0  1  0  0  0  0  0  0
  161.0670  214.4530  146.7230 C   0  0  0  0  0  2  0  0  0  0  0  0
  163.5470  211.9640  147.5300 N   0  0  0  0  0  1  0  0  0  0  0  0
  2  1  1  6  0  0  0
  2 12  1  0  0  0  0
  2 15  1  0  0  0  0
  3 14  2  0  0  0  0
  3  5  1  0  0  0  0
  4 16  2  0  0  0  0
  4 17  1  0  0  0  0
  5  6  2  0  0  0  0
  6 24  1  0  0  0  0
  7  4  1  0  0  0  0
  8  3  1  0  0  0  0
  9 13  1  0  0  0  0
  9  8  1  0  0  0  0
 10  9  2  0  0  0  0
 11 22  1  0  0  0  0
 12 15  1  0  0  0  0
 14 25  1  0  0  0  0
 15 10  1  0  0  0  0
 15 11  1  0  0  0  0
 16 10  1  0  0  0  0
 17 27  1  0  0  0  0
 18 14  1  0  0  0  0
 19  2  1  0  0  0  0
 19 12  1  0  0  0  0
 21 18  1  0  0  0  0
 22  8  1  0  0  0  0
 22 18  2  0  0  0  0
 25 23  1  0  0  0  0
 25 24  2  0  0  0  0
 26 19  1  0  0  0  0
 27 13  2  0  0  0  0
 27 20  1  0  0  0  0
 28 17  1  0  0  0  0
 29 26  1  0  0  0  0
 29  1  1  0  0  0  0
 30 19  1  0  0  0  0
M  END
>  <MODEL>
2

>  <REMARK>
 VINA RESULT:      -5.9      3.089      6.205
  Name = 
  0 active torsions:
  status: ('A' for Active; 'I' for Inactive)
                            x       y       z     vdW  Elec       q    Type
                         _______ _______ _______ _____ _____    ______ ____

>  <TORSDO>
F 0

$$$$
=
 OpenBabel11042420083D

 30 36  0  0  1  0  0  0  0  0999 V2000
  159.9610  207.3450  155.8990 C   0  0  0  0  0  2  0  0  0  0  0  0
  160.5060  208.5840  155.2050 C   0  0  1  0  0  0  0  0  0  0  0  0
  161.6000  207.8560  149.7800 C   0  0  0  0  0  0  0  0  0  0  0  0
  159.9960  212.1620  152.9930 C   0  0  0  0  0  0  0  0  0  0  0  0
  162.1220  208.6270  148.7410 C   0  0  0  0  0  3  0  0  0  0  0  0
  162.5390  207.9510  147.5830 C   0  0  0  0  0  3  0  0  0  0  0  0
  159.8920  213.2600  153.7850 F   0  0  0  0  0  0  0  0  0  0  0  0
  161.1360  208.2700  150.9830 N   0  0  0  0  0  0  0  0  0  0  0  0
  161.0020  209.6060  151.5260 C   0  0  0  0  0  0  0  0  0  0  0  0
  160.6710  209.7370  152.8430 C   0  0  0  0  0  0  0  0  0  0  0  0
  160.1270  207.1900  152.9890 C   0  0  0  0  0  2  0  0  0  0  0  0
  161.8430  208.2240  154.5020 C   0  0  1  0  0  3  0  0  0  0  0  0
  161.2860  210.7570  150.6320 C   0  0  0  0  0  3  0  0  0  0  0  0
  161.5010  206.4890  149.6700 C   0  0  0  0  0  0  0  0  0  0  0  0
  160.5910  208.4730  153.6860 C   0  0  2  0  0  0  0  0  0  0  0  0
  160.4630  211.0370  153.5340 C   0  0  0  0  0  3  0  0  0  0  0  0
  159.5300  212.2060  151.5730 C   0  0  2  0  0  3  0  0  0  0  0  0
  160.9500  206.0210  150.8490 C   0  0  0  0  0  0  0  0  0  0  0  0
  161.8250  208.8710  155.8630 C   0  0  2  0  0  0  0  0  0  0  0  0
  161.0840  212.8900  149.7690 F   0  0  0  0  0  0  0  0  0  0  0  0
  160.6310  204.6100  151.2100 C   0  0  0  0  0  1  0  0  0  0  0  0
  160.7460  207.1480  151.6320 C   0  0  0  0  0  0  0  0  0  0  0  0
  161.8250  204.4220  148.3750 N   0  0  0  0  0  1  0  0  0  0  0  0
  162.4310  206.5890  147.4920 N   0  0  0  0  0  0  0  0  0  0  0  0
  161.9200  205.8360  148.5090 C   0  0  0  0  0  0  0  0  0  0  0  0
  161.9540  208.0250  157.1130 C   0  0  0  0  0  2  0  0  0  0  0  0
  160.6790  211.9430  150.6540 C   0  0  0  0  0  0  0  0  0  0  0  0
  158.8480  213.5270  151.2500 C   0  0  0  0  0  1  0  0  0  0  0  0
  160.6320  207.2930  157.2600 C   0  0  0  0  0  2  0  0  0  0  0  0
  162.1420  210.2860  155.9340 N   0  0  0  0  0  1  0  0  0  0  0  0
  1 29  1  0  0  0  0
  2 19  1  0  0  0  0
  2  1  1  1  0  0  0
  3  8  1  0  0  0  0
  4 16  2  0  0  0  0
  4  7  1  0  0  0  0
  5  3  2  0  0  0  0
  6  5  1  0  0  0  0
  8  9  1  0  0  0  0
  8 22  1  0  0  0  0
  9 10  2  0  0  0  0
 10 16  1  0  0  0  0
 10 15  1  0  0  0  0
 11 15  1  0  0  0  0
 12  2  1  0  0  0  0
 12 19  1  0  0  0  0
 13 27  2  0  0  0  0
 13  9  1  0  0  0  0
 14  3  1  0  0  0  0
 14 18  1  0  0  0  0
 15 12  1  0  0  0  0
 15  2  1  0  0  0  0
 17  4  1  0  0  0  0
 18 21  1  0  0  0  0
 18 22  2  0  0  0  0
 19 30  1  0  0  0  0
 19 26  1  0  0  0  0
 20 27  1  0  0  0  0
 22 11  1  0  0  0  0
 23 25  1  0  0  0  0
 24  6  2  0  0  0  0
 24 25  1  0  0  0  0
 25 14  2  0  0  0  0
 26 29  1  0  0  0  0
 27 17  1  0  0  0  0
 28 17  1  0  0  0  0
M  END
>  <MODEL>
3

>  <REMARK>
 VINA RESULT:      -5.0      2.078      5.064
  Name = 
  0 active torsions:
  status: ('A' for Active; 'I' for Inactive)
                            x       y       z     vdW  Elec       q    Type
                         _______ _______ _______ _____ _____    ______ ____

>  <TORSDO>
F 0

$$$$
