=
 OpenBabel11052410283D

 35 38  0  0  1  0  0  0  0  0999 V2000
  160.9750  206.9490  151.5990 C   0  0  1  0  0  3  0  0  0  0  0  0
  161.0220  206.8290  153.0950 C   0  0  0  0  0  0  0  0  0  0  0  0
  161.1410  205.6890  153.6230 O   0  0  0  0  0  0  0  0  0  0  0  0
  161.5000  208.0430  155.2280 C   0  0  0  0  0  3  0  0  0  0  0  0
  160.9320  208.0310  153.9460 C   0  0  0  0  0  0  0  0  0  0  0  0
  159.5700  211.4580  153.7660 O   0  0  0  0  0  1  0  0  0  0  0  0
  160.2140  210.3310  154.2640 C   0  0  0  0  0  0  0  0  0  0  0  0
  160.7930  210.3410  155.5440 C   0  0  0  0  0  0  0  0  0  0  0  0
  160.2860  209.1800  153.4740 C   0  0  0  0  0  3  0  0  0  0  0  0
  161.4330  209.1880  156.0240 C   0  0  0  0  0  0  0  0  0  0  0  0
  161.9940  209.1700  157.2590 F   0  0  0  0  0  0  0  0  0  0  0  0
  160.6910  212.4800  157.0160 N   0  0  0  0  0  0  0  0  0  0  0  0
  160.7360  211.5280  156.3600 C   0  0  0  0  0  0  0  0  0  0  0  0
  162.3390  207.3080  151.0240 C   0  0  0  0  0  2  0  0  0  0  0  0
  162.2850  209.8540  150.8160 C   0  0  0  0  0  3  0  0  0  0  0  0
  161.9830  210.4010  148.5490 C   0  0  0  0  0  3  0  0  0  0  0  0
  162.2680  208.5870  150.2600 C   0  0  0  0  0  0  0  0  0  0  0  0
  162.1330  210.8650  149.8560 C   0  0  0  0  0  3  0  0  0  0  0  0
  162.0370  208.7200  148.6060 S   0  0  0  0  0  0  0  0  0  0  0  0
  160.4670  205.6590  150.9780 C   0  0  0  0  0  2  0  0  0  0  0  0
  161.6180  204.6820  150.8150 C   0  0  2  0  0  3  0  0  0  0  0  0
  161.3360  203.7700  149.7990 N   0  0  0  0  0  0  0  0  0  0  0  0
  161.0020  202.6290  152.2250 O   0  0  0  0  0  0  0  0  0  0  0  0
  161.2470  203.4320  151.2890 C   0  0  0  0  0  0  0  0  0  0  0  0
  161.2000  203.4140  148.3970 C   0  0  2  0  0  3  0  0  0  0  0  0
  161.6500  201.9720  148.1880 C   0  0  1  0  0  3  0  0  0  0  0  0
  160.4590  201.0380  148.2250 C   0  0  0  0  0  2  0  0  0  0  0  0
  161.1240  201.3370  146.8960 C   0  0  1  0  0  3  0  0  0  0  0  0
  159.9440  201.4840  145.0310 C   0  0  0  0  0  1  0  0  0  0  0  0
  160.3190  202.2110  146.1610 O   0  0  0  0  0  0  0  0  0  0  0  0
  161.9940  204.2640  147.6240 O   0  0  0  0  0  0  0  0  0  0  0  0
  161.1860  205.3750  147.3710 C   0  0  0  0  0  2  0  0  0  0  0  0
  162.1360  205.0870  145.0550 N   0  0  0  0  0  1  0  0  0  0  0  0
  160.1920  206.3050  145.4190 O   0  0  0  0  0  0  0  0  0  0  0  0
  161.1370  205.6340  145.9090 C   0  0  0  0  0  0  0  0  0  0  0  0
  1 20  1  6  0  0  0
  1  2  1  0  0  0  0
  2  3  2  0  0  0  0
  2  5  1  0  0  0  0
  4 10  1  0  0  0  0
  5  4  2  0  0  0  0
  6  7  1  0  0  0  0
  7  8  1  0  0  0  0
  8 10  2  0  0  0  0
  8 13  1  0  0  0  0
  9  5  1  0  0  0  0
  9  7  2  0  0  0  0
 10 11  1  0  0  0  0
 13 12  3  0  0  0  0
 14  1  1  0  0  0  0
 16 19  1  0  0  0  0
 16 18  2  0  0  0  0
 17 15  2  0  0  0  0
 17 14  1  0  0  0  0
 18 15  1  0  0  0  0
 19 17  1  0  0  0  0
 21 20  1  1  0  0  0
 21 24  1  0  0  0  0
 22 21  1  0  0  0  0
 22 24  1  0  0  0  0
 24 23  2  0  0  0  0
 25 31  1  6  0  0  0
 25 22  1  0  0  0  0
 26 27  1  0  0  0  0
 26 25  1  6  0  0  0
 28 30  1  6  0  0  0
 28 26  1  0  0  0  0
 28 27  1  0  0  0  0
 29 30  1  0  0  0  0
 32 31  1  0  0  0  0
 33 35  1  0  0  0  0
 34 35  2  0  0  0  0
 35 32  1  0  0  0  0
M  END
>  <MODEL>
1

>  <REMARK>
 VINA RESULT:      -7.1      0.000      0.000
  Name = 
  13 active torsions:
  status: ('A' for Active; 'I' for Inactive)
    1  A    between atoms: C_3  and  C_13
    2  A    between atoms: C_3  and  C_16
    3  A    between atoms: O_4  and  C_11
    4  A    between atoms: O_4  and  C_14
    5  A    between atoms: CA_5  and  C_22
    6  A    between atoms: N_6  and  C_11
    7  A    between atoms: C_8  and  C_13
    8  A    between atoms: C_8  and  C_30
    9  A    between atoms: C_11  and  C_19
   10  A    between atoms: C_13  and  C_22
   11  A    between atoms: C_14  and  C_26
   12  A    between atoms: C_23  and  C_31
   13  A    between atoms: O_32  and  C_34
                            x       y       z     vdW  Elec       q    Type
                         _______ _______ _______ _____ _____    ______ ____

>  <TORSDO>
F 13

$$$$
=
 OpenBabel11052410283D

 35 38  0  0  1  0  0  0  0  0999 V2000
  161.7220  206.3410  151.9990 C   0  0  1  0  0  3  0  0  0  0  0  0
  161.3090  204.8980  152.0140 C   0  0  0  0  0  0  0  0  0  0  0  0
  161.0380  204.3410  153.1140 O   0  0  0  0  0  0  0  0  0  0  0  0
  160.8620  202.7750  150.7720 C   0  0  0  0  0  3  0  0  0  0  0  0
  161.2170  204.1300  150.7580 C   0  0  0  0  0  0  0  0  0  0  0  0
  161.6250  204.6960  147.1310 O   0  0  0  0  0  1  0  0  0  0  0  0
  161.3690  204.0450  148.3330 C   0  0  0  0  0  0  0  0  0  0  0  0
  161.0030  202.6890  148.3520 C   0  0  0  0  0  0  0  0  0  0  0  0
  161.4740  204.7570  149.5310 C   0  0  0  0  0  3  0  0  0  0  0  0
  160.7540  202.0560  149.5790 C   0  0  0  0  0  0  0  0  0  0  0  0
  160.4060  200.7460  149.6260 F   0  0  0  0  0  0  0  0  0  0  0  0
  160.7770  201.3570  146.1320 N   0  0  0  0  0  0  0  0  0  0  0  0
  160.8780  201.9510  147.1210 C   0  0  0  0  0  0  0  0  0  0  0  0
  160.6880  207.2110  151.2970 C   0  0  0  0  0  2  0  0  0  0  0  0
  161.7460  209.5110  150.9570 C   0  0  0  0  0  3  0  0  0  0  0  0
  162.3020  209.7360  148.6830 C   0  0  0  0  0  3  0  0  0  0  0  0
  161.3540  208.2700  150.4860 C   0  0  0  0  0  0  0  0  0  0  0  0
  162.2820  210.3250  149.9480 C   0  0  0  0  0  3  0  0  0  0  0  0
  161.6420  208.1960  148.8370 S   0  0  0  0  0  0  0  0  0  0  0  0
  161.9560  206.8420  153.4140 C   0  0  0  0  0  2  0  0  0  0  0  0
  160.7620  207.6630  153.8690 C   0  0  2  0  0  3  0  0  0  0  0  0
  161.1820  208.7120  154.6860 N   0  0  0  0  0  0  0  0  0  0  0  0
  160.1010  206.7250  156.1640 O   0  0  0  0  0  0  0  0  0  0  0  0
  160.5210  207.4370  155.2170 C   0  0  0  0  0  0  0  0  0  0  0  0
  161.8000  210.0110  154.8890 C   0  0  2  0  0  3  0  0  0  0  0  0
  161.6190  210.4450  156.3400 C   0  0  1  0  0  3  0  0  0  0  0  0
  162.4850  209.6020  157.2520 C   0  0  0  0  0  2  0  0  0  0  0  0
  162.8820  211.0370  156.9740 C   0  0  1  0  0  3  0  0  0  0  0  0
  164.9570  211.7740  156.7590 C   0  0  0  0  0  1  0  0  0  0  0  0
  163.9650  211.0560  156.0900 O   0  0  0  0  0  0  0  0  0  0  0  0
  161.1970  210.9470  154.0470 O   0  0  0  0  0  0  0  0  0  0  0  0
  160.0020  211.2860  154.6870 C   0  0  0  0  0  2  0  0  0  0  0  0
  158.6220  211.6450  152.6100 N   0  0  0  0  0  1  0  0  0  0  0  0
  158.9830  213.3630  154.1310 O   0  0  0  0  0  0  0  0  0  0  0  0
  159.1940  212.1670  153.8040 C   0  0  0  0  0  0  0  0  0  0  0  0
  1 14  1  1  0  0  0
  1  2  1  0  0  0  0
  1 20  1  0  0  0  0
  2  3  2  0  0  0  0
  5  4  1  0  0  0  0
  5  2  1  0  0  0  0
  6  7  1  0  0  0  0
  7  8  2  0  0  0  0
  7  9  1  0  0  0  0
  8 10  1  0  0  0  0
  9  5  2  0  0  0  0
 10 11  1  0  0  0  0
 10  4  2  0  0  0  0
 12 13  3  0  0  0  0
 13  8  1  0  0  0  0
 16 19  1  0  0  0  0
 16 18  2  0  0  0  0
 17 15  2  0  0  0  0
 17 14  1  0  0  0  0
 18 15  1  0  0  0  0
 19 17  1  0  0  0  0
 21 20  1  1  0  0  0
 21 22  1  0  0  0  0
 21 24  1  0  0  0  0
 22 25  1  0  0  0  0
 22 24  1  0  0  0  0
 24 23  2  0  0  0  0
 25 31  1  6  0  0  0
 26 25  1  6  0  0  0
 26 28  1  0  0  0  0
 26 27  1  0  0  0  0
 28 30  1  6  0  0  0
 28 27  1  0  0  0  0
 30 29  1  0  0  0  0
 31 32  1  0  0  0  0
 33 35  1  0  0  0  0
 35 34  2  0  0  0  0
 35 32  1  0  0  0  0
M  END
>  <MODEL>
2

>  <REMARK>
 VINA RESULT:      -6.9      2.860      8.873
  Name = 
  13 active torsions:
  status: ('A' for Active; 'I' for Inactive)
    1  A    between atoms: C_3  and  C_13
    2  A    between atoms: C_3  and  C_16
    3  A    between atoms: O_4  and  C_11
    4  A    between atoms: O_4  and  C_14
    5  A    between atoms: CA_5  and  C_22
    6  A    between atoms: N_6  and  C_11
    7  A    between atoms: C_8  and  C_13
    8  A    between atoms: C_8  and  C_30
    9  A    between atoms: C_11  and  C_19
   10  A    between atoms: C_13  and  C_22
   11  A    between atoms: C_14  and  C_26
   12  A    between atoms: C_23  and  C_31
   13  A    between atoms: O_32  and  C_34
                            x       y       z     vdW  Elec       q    Type
                         _______ _______ _______ _____ _____    ______ ____

>  <TORSDO>
F 13

$$$$
=
 OpenBabel11052410283D

 35 38  0  0  1  0  0  0  0  0999 V2000
  160.8650  209.0420  152.6630 C   0  0  1  0  0  3  0  0  0  0  0  0
  161.5230  208.5620  151.4020 C   0  0  0  0  0  0  0  0  0  0  0  0
  162.2420  209.3570  150.7350 O   0  0  0  0  0  0  0  0  0  0  0  0
  161.3240  206.1100  151.8520 C   0  0  0  0  0  3  0  0  0  0  0  0
  161.3350  207.1740  150.9390 C   0  0  0  0  0  0  0  0  0  0  0  0
  160.7660  205.3640  147.7700 O   0  0  0  0  0  1  0  0  0  0  0  0
  160.9510  205.5980  149.1280 C   0  0  0  0  0  0  0  0  0  0  0  0
  160.9320  204.5370  150.0490 C   0  0  0  0  0  0  0  0  0  0  0  0
  161.1510  206.9060  149.5760 C   0  0  0  0  0  3  0  0  0  0  0  0
  161.1250  204.7990  151.4140 C   0  0  0  0  0  0  0  0  0  0  0  0
  161.1180  203.7920  152.3220 F   0  0  0  0  0  0  0  0  0  0  0  0
  160.5350  202.1010  149.2340 N   0  0  0  0  0  0  0  0  0  0  0  0
  160.7120  203.1850  149.5980 C   0  0  0  0  0  0  0  0  0  0  0  0
  161.8290  209.0090  153.8420 C   0  0  0  0  0  2  0  0  0  0  0  0
  160.1770  207.3920  154.9290 C   0  0  0  0  0  3  0  0  0  0  0  0
  160.4620  207.5050  157.2610 C   0  0  0  0  0  3  0  0  0  0  0  0
  161.2160  208.3020  155.0040 C   0  0  0  0  0  0  0  0  0  0  0  0
  159.7630  206.9440  156.1930 C   0  0  0  0  0  3  0  0  0  0  0  0
  161.5960  208.5670  156.6140 S   0  0  0  0  0  0  0  0  0  0  0  0
  160.3130  210.4440  152.4760 C   0  0  0  0  0  2  0  0  0  0  0  0
  159.3790  210.7840  153.6230 C   0  0  2  0  0  3  0  0  0  0  0  0
  158.9080  212.0900  153.4910 N   0  0  0  0  0  0  0  0  0  0  0  0
  160.8290  211.9550  155.3870 O   0  0  0  0  0  0  0  0  0  0  0  0
  159.9970  211.6780  154.4860 C   0  0  0  0  0  0  0  0  0  0  0  0
  158.0570  213.0890  152.8690 C   0  0  2  0  0  3  0  0  0  0  0  0
  158.9090  214.0430  152.0380 C   0  0  1  0  0  3  0  0  0  0  0  0
  159.4080  213.3500  150.7880 C   0  0  0  0  0  2  0  0  0  0  0  0
  158.3070  214.3840  150.6700 C   0  0  1  0  0  3  0  0  0  0  0  0
  157.1250  213.3600  149.1070 C   0  0  0  0  0  1  0  0  0  0  0  0
  157.0860  213.7400  150.4480 O   0  0  0  0  0  0  0  0  0  0  0  0
  157.3870  213.8090  153.8600 O   0  0  0  0  0  0  0  0  0  0  0  0
  156.1170  213.2300  153.9260 C   0  0  0  0  0  2  0  0  0  0  0  0
  156.1460  211.2230  155.4490 N   0  0  0  0  0  1  0  0  0  0  0  0
  155.5840  213.3330  156.2430 O   0  0  0  0  0  0  0  0  0  0  0  0
  155.9180  212.6150  155.2640 C   0  0  0  0  0  0  0  0  0  0  0  0
  1 20  1  6  0  0  0
  1 14  1  0  0  0  0
  2  1  1  0  0  0  0
  3  2  2  0  0  0  0
  5  2  1  0  0  0  0
  5  4  2  0  0  0  0
  6  7  1  0  0  0  0
  7  9  2  0  0  0  0
  7  8  1  0  0  0  0
  8 10  2  0  0  0  0
  9  5  1  0  0  0  0
 10  4  1  0  0  0  0
 10 11  1  0  0  0  0
 12 13  3  0  0  0  0
 13  8  1  0  0  0  0
 14 17  1  0  0  0  0
 15 17  2  0  0  0  0
 15 18  1  0  0  0  0
 17 19  1  0  0  0  0
 18 16  2  0  0  0  0
 19 16  1  0  0  0  0
 21 20  1  6  0  0  0
 21 24  1  0  0  0  0
 22 21  1  0  0  0  0
 22 24  1  0  0  0  0
 24 23  2  0  0  0  0
 25 22  1  0  0  0  0
 25 31  1  1  0  0  0
 26 25  1  1  0  0  0
 27 26  1  0  0  0  0
 28 30  1  1  0  0  0
 28 27  1  0  0  0  0
 28 26  1  0  0  0  0
 29 30  1  0  0  0  0
 31 32  1  0  0  0  0
 32 35  1  0  0  0  0
 35 33  1  0  0  0  0
 35 34  2  0  0  0  0
M  END
>  <MODEL>
3

>  <REMARK>
 VINA RESULT:      -6.9      3.555      9.330
  Name = 
  13 active torsions:
  status: ('A' for Active; 'I' for Inactive)
    1  A    between atoms: C_3  and  C_13
    2  A    between atoms: C_3  and  C_16
    3  A    between atoms: O_4  and  C_11
    4  A    between atoms: O_4  and  C_14
    5  A    between atoms: CA_5  and  C_22
    6  A    between atoms: N_6  and  C_11
    7  A    between atoms: C_8  and  C_13
    8  A    between atoms: C_8  and  C_30
    9  A    between atoms: C_11  and  C_19
   10  A    between atoms: C_13  and  C_22
   11  A    between atoms: C_14  and  C_26
   12  A    between atoms: C_23  and  C_31
   13  A    between atoms: O_32  and  C_34
                            x       y       z     vdW  Elec       q    Type
                         _______ _______ _______ _____ _____    ______ ____

>  <TORSDO>
F 13

$$$$
=
 OpenBabel11052410283D

 35 38  0  0  1  0  0  0  0  0999 V2000
  161.0300  208.8630  152.1830 C   0  0  1  0  0  3  0  0  0  0  0  0
  161.4090  208.3470  150.8250 C   0  0  0  0  0  0  0  0  0  0  0  0
  161.8980  209.1400  149.9730 O   0  0  0  0  0  0  0  0  0  0  0  0
  161.1920  206.5090  149.1430 C   0  0  0  0  0  3  0  0  0  0  0  0
  161.2150  206.9250  150.4820 C   0  0  0  0  0  0  0  0  0  0  0  0
  160.7590  203.6950  152.2120 O   0  0  0  0  0  1  0  0  0  0  0  0
  160.9010  204.6190  151.1840 C   0  0  0  0  0  0  0  0  0  0  0  0
  160.8880  204.2060  149.8410 C   0  0  0  0  0  0  0  0  0  0  0  0
  161.0640  205.9710  151.4960 C   0  0  0  0  0  3  0  0  0  0  0  0
  161.0300  205.1600  148.8210 C   0  0  0  0  0  0  0  0  0  0  0  0
  161.0130  204.7890  147.5160 F   0  0  0  0  0  0  0  0  0  0  0  0
  160.6120  201.6930  149.2400 N   0  0  0  0  0  0  0  0  0  0  0  0
  160.7350  202.8120  149.5080 C   0  0  0  0  0  0  0  0  0  0  0  0
  161.9820  208.3560  153.2580 C   0  0  0  0  0  2  0  0  0  0  0  0
  160.2670  207.2200  154.7730 C   0  0  0  0  0  3  0  0  0  0  0  0
  160.2730  208.3230  156.8490 C   0  0  0  0  0  3  0  0  0  0  0  0
  161.2610  208.1560  154.5480 C   0  0  0  0  0  0  0  0  0  0  0  0
  159.7230  207.3120  156.0630 C   0  0  0  0  0  3  0  0  0  0  0  0
  161.4400  209.1020  155.9200 S   0  0  0  0  0  0  0  0  0  0  0  0
  160.9970  210.3810  152.1850 C   0  0  0  0  0  2  0  0  0  0  0  0
  159.6690  210.8630  152.7400 C   0  0  2  0  0  3  0  0  0  0  0  0
  159.4070  212.1620  152.3050 N   0  0  0  0  0  0  0  0  0  0  0  0
  160.2340  212.1660  154.8780 O   0  0  0  0  0  0  0  0  0  0  0  0
  159.8870  211.8220  153.7190 C   0  0  0  0  0  0  0  0  0  0  0  0
  159.0100  213.1170  151.2850 C   0  0  2  0  0  3  0  0  0  0  0  0
  160.2500  213.6720  150.5910 C   0  0  1  0  0  3  0  0  0  0  0  0
  160.7530  212.6930  149.5520 C   0  0  0  0  0  2  0  0  0  0  0  0
  160.0520  213.9580  149.0990 C   0  0  1  0  0  3  0  0  0  0  0  0
  158.9390  213.1380  147.3720 C   0  0  0  0  0  1  0  0  0  0  0  0
  158.7620  213.6420  148.6610 O   0  0  0  0  0  0  0  0  0  0  0  0
  158.3040  214.1640  151.8810 O   0  0  0  0  0  0  0  0  0  0  0  0
  156.9590  213.8120  151.7420 C   0  0  0  0  0  2  0  0  0  0  0  0
  157.0150  213.9980  154.2550 N   0  0  0  0  0  1  0  0  0  0  0  0
  155.0160  214.1310  153.0790 O   0  0  0  0  0  0  0  0  0  0  0  0
  156.2640  213.9750  153.0460 C   0  0  0  0  0  0  0  0  0  0  0  0
  1 20  1  6  0  0  0
  1 14  1  0  0  0  0
  2  1  1  0  0  0  0
  3  2  2  0  0  0  0
  4  5  1  0  0  0  0
  5  2  1  0  0  0  0
  5  9  2  0  0  0  0
  7  9  1  0  0  0  0
  7  6  1  0  0  0  0
  8  7  2  0  0  0  0
 10  4  2  0  0  0  0
 10  8  1  0  0  0  0
 11 10  1  0  0  0  0
 12 13  3  0  0  0  0
 13  8  1  0  0  0  0
 14 17  1  0  0  0  0
 15 18  1  0  0  0  0
 17 15  2  0  0  0  0
 17 19  1  0  0  0  0
 18 16  2  0  0  0  0
 19 16  1  0  0  0  0
 21 20  1  6  0  0  0
 21 24  1  0  0  0  0
 22 21  1  0  0  0  0
 22 24  1  0  0  0  0
 24 23  2  0  0  0  0
 25 31  1  1  0  0  0
 25 22  1  0  0  0  0
 26 25  1  1  0  0  0
 27 26  1  0  0  0  0
 28 30  1  1  0  0  0
 28 27  1  0  0  0  0
 28 26  1  0  0  0  0
 29 30  1  0  0  0  0
 32 31  1  0  0  0  0
 32 35  1  0  0  0  0
 35 34  2  0  0  0  0
 35 33  1  0  0  0  0
M  END
>  <MODEL>
4

>  <REMARK>
 VINA RESULT:      -6.7      3.723      9.082
  Name = 
  13 active torsions:
  status: ('A' for Active; 'I' for Inactive)
    1  A    between atoms: C_3  and  C_13
    2  A    between atoms: C_3  and  C_16
    3  A    between atoms: O_4  and  C_11
    4  A    between atoms: O_4  and  C_14
    5  A    between atoms: CA_5  and  C_22
    6  A    between atoms: N_6  and  C_11
    7  A    between atoms: C_8  and  C_13
    8  A    between atoms: C_8  and  C_30
    9  A    between atoms: C_11  and  C_19
   10  A    between atoms: C_13  and  C_22
   11  A    between atoms: C_14  and  C_26
   12  A    between atoms: C_23  and  C_31
   13  A    between atoms: O_32  and  C_34
                            x       y       z     vdW  Elec       q    Type
                         _______ _______ _______ _____ _____    ______ ____

>  <TORSDO>
F 13

$$$$
=
 OpenBabel11052410283D

 35 38  0  0  1  0  0  0  0  0999 V2000
  160.9950  208.0790  152.4290 C   0  0  1  0  0  3  0  0  0  0  0  0
  161.7610  207.4340  151.3110 C   0  0  0  0  0  0  0  0  0  0  0  0
  162.6650  208.0870  150.7190 O   0  0  0  0  0  0  0  0  0  0  0  0
  161.2280  205.0530  151.8590 C   0  0  0  0  0  3  0  0  0  0  0  0
  161.4650  206.0480  150.9010 C   0  0  0  0  0  0  0  0  0  0  0  0
  161.0450  204.1110  147.7840 O   0  0  0  0  0  1  0  0  0  0  0  0
  161.1030  204.4110  149.1410 C   0  0  0  0  0  0  0  0  0  0  0  0
  160.8580  203.4200  150.1060 C   0  0  0  0  0  0  0  0  0  0  0  0
  161.4040  205.7150  149.5410 C   0  0  0  0  0  3  0  0  0  0  0  0
  160.9270  203.7470  151.4690 C   0  0  0  0  0  0  0  0  0  0  0  0
  160.7010  202.8070  152.4210 F   0  0  0  0  0  0  0  0  0  0  0  0
  160.2730  200.9930  149.3800 N   0  0  0  0  0  0  0  0  0  0  0  0
  160.5330  202.0740  149.7020 C   0  0  0  0  0  0  0  0  0  0  0  0
  161.8960  208.3870  153.6170 C   0  0  0  0  0  2  0  0  0  0  0  0
  160.1410  207.1470  154.9990 C   0  0  0  0  0  3  0  0  0  0  0  0
  160.4490  207.7140  157.2600 C   0  0  0  0  0  3  0  0  0  0  0  0
  161.2430  207.9770  154.8940 C   0  0  0  0  0  0  0  0  0  0  0  0
  159.7050  206.9960  156.3240 C   0  0  0  0  0  3  0  0  0  0  0  0
  161.6500  208.5390  156.4190 S   0  0  0  0  0  0  0  0  0  0  0  0
  160.3140  209.3480  151.9460 C   0  0  0  0  0  2  0  0  0  0  0  0
  161.2200  210.5410  152.1920 C   0  0  2  0  0  3  0  0  0  0  0  0
  160.4600  211.7010  152.3370 N   0  0  0  0  0  0  0  0  0  0  0  0
  161.6100  211.6120  149.8920 O   0  0  0  0  0  0  0  0  0  0  0  0
  161.2440  211.3540  151.0680 C   0  0  0  0  0  0  0  0  0  0  0  0
  159.5770  212.5680  153.0960 C   0  0  2  0  0  3  0  0  0  0  0  0
  158.3930  211.7620  153.6210 C   0  0  1  0  0  3  0  0  0  0  0  0
  158.7860  211.0060  154.8730 C   0  0  0  0  0  2  0  0  0  0  0  0
  157.8890  212.2200  154.9940 C   0  0  1  0  0  3  0  0  0  0  0  0
  157.8980  213.7300  156.6110 C   0  0  0  0  0  1  0  0  0  0  0  0
  158.6260  213.2930  155.5030 O   0  0  0  0  0  0  0  0  0  0  0  0
  159.1090  213.5920  152.2690 O   0  0  0  0  0  0  0  0  0  0  0  0
  158.0800  213.0090  151.5260 C   0  0  0  0  0  2  0  0  0  0  0  0
  159.1730  213.9890  149.4780 N   0  0  0  0  0  1  0  0  0  0  0  0
  156.8610  213.9090  149.6900 O   0  0  0  0  0  0  0  0  0  0  0  0
  157.9880  213.6680  150.1970 C   0  0  0  0  0  0  0  0  0  0  0  0
  1 20  1  6  0  0  0
  1 14  1  0  0  0  0
  2  1  1  0  0  0  0
  3  2  2  0  0  0  0
  5  2  1  0  0  0  0
  5  4  2  0  0  0  0
  6  7  1  0  0  0  0
  7  9  2  0  0  0  0
  7  8  1  0  0  0  0
  8 10  2  0  0  0  0
  9  5  1  0  0  0  0
 10  4  1  0  0  0  0
 10 11  1  0  0  0  0
 12 13  3  0  0  0  0
 13  8  1  0  0  0  0
 14 17  1  0  0  0  0
 15 18  1  0  0  0  0
 17 15  2  0  0  0  0
 17 19  1  0  0  0  0
 18 16  2  0  0  0  0
 19 16  1  0  0  0  0
 21 20  1  6  0  0  0
 21 22  1  0  0  0  0
 22 25  1  0  0  0  0
 23 24  2  0  0  0  0
 24 21  1  0  0  0  0
 24 22  1  0  0  0  0
 25 31  1  6  0  0  0
 26 25  1  1  0  0  0
 26 27  1  0  0  0  0
 26 28  1  0  0  0  0
 27 28  1  0  0  0  0
 28 30  1  1  0  0  0
 30 29  1  0  0  0  0
 32 31  1  0  0  0  0
 33 35  1  0  0  0  0
 34 35  2  0  0  0  0
 35 32  1  0  0  0  0
M  END
>  <MODEL>
5

>  <REMARK>
 VINA RESULT:      -6.6      3.462      9.061
  Name = 
  13 active torsions:
  status: ('A' for Active; 'I' for Inactive)
    1  A    between atoms: C_3  and  C_13
    2  A    between atoms: C_3  and  C_16
    3  A    between atoms: O_4  and  C_11
    4  A    between atoms: O_4  and  C_14
    5  A    between atoms: CA_5  and  C_22
    6  A    between atoms: N_6  and  C_11
    7  A    between atoms: C_8  and  C_13
    8  A    between atoms: C_8  and  C_30
    9  A    between atoms: C_11  and  C_19
   10  A    between atoms: C_13  and  C_22
   11  A    between atoms: C_14  and  C_26
   12  A    between atoms: C_23  and  C_31
   13  A    between atoms: O_32  and  C_34
                            x       y       z     vdW  Elec       q    Type
                         _______ _______ _______ _____ _____    ______ ____

>  <TORSDO>
F 13

$$$$
=
 OpenBabel11052410283D

 35 38  0  0  1  0  0  0  0  0999 V2000
  161.7410  208.4940  152.7650 C   0  0  1  0  0  3  0  0  0  0  0  0
  161.6770  209.9150  152.2820 C   0  0  0  0  0  0  0  0  0  0  0  0
  162.4130  210.2790  151.3240 O   0  0  0  0  0  0  0  0  0  0  0  0
  159.6960  211.4380  152.2000 C   0  0  0  0  0  3  0  0  0  0  0  0
  160.7640  210.8830  152.9180 C   0  0  0  0  0  0  0  0  0  0  0  0
  160.2860  212.4900  156.2090 O   0  0  0  0  0  1  0  0  0  0  0  0
  160.0790  212.1500  154.8770 C   0  0  0  0  0  0  0  0  0  0  0  0
  159.0040  212.6950  154.1550 C   0  0  0  0  0  0  0  0  0  0  0  0
  160.9500  211.2500  154.2580 C   0  0  0  0  0  3  0  0  0  0  0  0
  158.8200  212.3370  152.8110 C   0  0  0  0  0  0  0  0  0  0  0  0
  157.7940  212.8550  152.0890 F   0  0  0  0  0  0  0  0  0  0  0  0
  157.3590  214.3510  155.2970 N   0  0  0  0  0  0  0  0  0  0  0  0
  158.0910  213.6130  154.7890 C   0  0  0  0  0  0  0  0  0  0  0  0
  160.4170  208.0520  153.3730 C   0  0  0  0  0  2  0  0  0  0  0  0
  159.7290  206.9850  155.5910 C   0  0  0  0  0  3  0  0  0  0  0  0
  161.2000  207.7440  157.2610 C   0  0  0  0  0  3  0  0  0  0  0  0
  160.5740  207.7750  154.8310 C   0  0  0  0  0  0  0  0  0  0  0  0
  160.0870  206.9640  156.9470 C   0  0  0  0  0  3  0  0  0  0  0  0
  161.7290  208.4600  155.8320 S   0  0  0  0  0  0  0  0  0  0  0  0
  162.1330  207.5640  151.6300 C   0  0  0  0  0  2  0  0  0  0  0  0
  160.9470  207.3590  150.7040 C   0  0  2  0  0  3  0  0  0  0  0  0
  161.1270  206.2080  149.9380 N   0  0  0  0  0  0  0  0  0  0  0  0
  161.6140  208.4200  148.4650 O   0  0  0  0  0  0  0  0  0  0  0  0
  161.3200  207.6260  149.3950 C   0  0  0  0  0  0  0  0  0  0  0  0
  161.1470  204.7640  149.7790 C   0  0  2  0  0  3  0  0  0  0  0  0
  161.6970  204.1150  151.0440 C   0  0  1  0  0  3  0  0  0  0  0  0
  160.5800  203.8590  152.0330 C   0  0  0  0  0  2  0  0  0  0  0  0
  161.1870  202.6900  151.2850 C   0  0  1  0  0  3  0  0  0  0  0  0
  160.8530  201.0770  149.8090 C   0  0  0  0  0  1  0  0  0  0  0  0
  160.3020  202.2640  150.2910 O   0  0  0  0  0  0  0  0  0  0  0  0
  161.9610  204.4290  148.6940 O   0  0  0  0  0  0  0  0  0  0  0  0
  161.0740  204.2140  147.6360 C   0  0  0  0  0  2  0  0  0  0  0  0
  162.2650  205.8240  146.1060 N   0  0  0  0  0  1  0  0  0  0  0  0
  161.9030  203.6140  145.4870 O   0  0  0  0  0  0  0  0  0  0  0  0
  161.7510  204.5190  146.3480 C   0  0  0  0  0  0  0  0  0  0  0  0
  1 20  1  6  0  0  0
  1 14  1  0  0  0  0
  2  1  1  0  0  0  0
  2  5  1  0  0  0  0
  3  2  2  0  0  0  0
  4 10  2  0  0  0  0
  4  5  1  0  0  0  0
  5  9  2  0  0  0  0
  7  6  1  0  0  0  0
  8 13  1  0  0  0  0
  8  7  2  0  0  0  0
  9  7  1  0  0  0  0
 10  8  1  0  0  0  0
 11 10  1  0  0  0  0
 13 12  3  0  0  0  0
 14 17  1  0  0  0  0
 15 18  1  0  0  0  0
 17 15  2  0  0  0  0
 17 19  1  0  0  0  0
 18 16  2  0  0  0  0
 19 16  1  0  0  0  0
 21 20  1  1  0  0  0
 22 21  1  0  0  0  0
 23 24  2  0  0  0  0
 24 22  1  0  0  0  0
 24 21  1  0  0  0  0
 25 31  1  6  0  0  0
 25 22  1  0  0  0  0
 26 25  1  6  0  0  0
 26 28  1  0  0  0  0
 26 27  1  0  0  0  0
 28 30  1  6  0  0  0
 28 27  1  0  0  0  0
 29 30  1  0  0  0  0
 32 31  1  0  0  0  0
 33 35  1  0  0  0  0
 34 35  2  0  0  0  0
 35 32  1  0  0  0  0
M  END
>  <MODEL>
6

>  <REMARK>
 VINA RESULT:      -6.6      2.741      4.485
  Name = 
  13 active torsions:
  status: ('A' for Active; 'I' for Inactive)
    1  A    between atoms: C_3  and  C_13
    2  A    between atoms: C_3  and  C_16
    3  A    between atoms: O_4  and  C_11
    4  A    between atoms: O_4  and  C_14
    5  A    between atoms: CA_5  and  C_22
    6  A    between atoms: N_6  and  C_11
    7  A    between atoms: C_8  and  C_13
    8  A    between atoms: C_8  and  C_30
    9  A    between atoms: C_11  and  C_19
   10  A    between atoms: C_13  and  C_22
   11  A    between atoms: C_14  and  C_26
   12  A    between atoms: C_23  and  C_31
   13  A    between atoms: O_32  and  C_34
                            x       y       z     vdW  Elec       q    Type
                         _______ _______ _______ _____ _____    ______ ____

>  <TORSDO>
F 13

$$$$
=
 OpenBabel11052410283D

 35 38  0  0  1  0  0  0  0  0999 V2000
  160.8370  209.7420  151.6930 C   0  0  1  0  0  3  0  0  0  0  0  0
  160.9990  210.2280  153.1040 C   0  0  0  0  0  0  0  0  0  0  0  0
  162.1210  210.1250  153.6720 O   0  0  0  0  0  0  0  0  0  0  0  0
  159.6400  210.5340  155.1810 C   0  0  0  0  0  3  0  0  0  0  0  0
  159.8590  210.8240  153.8270 C   0  0  0  0  0  0  0  0  0  0  0  0
  157.0730  213.1570  153.1670 O   0  0  0  0  0  1  0  0  0  0  0  0
  157.9180  212.2870  153.8480 C   0  0  0  0  0  0  0  0  0  0  0  0
  157.7090  212.0000  155.2070 C   0  0  0  0  0  0  0  0  0  0  0  0
  158.9880  211.7000  153.1670 C   0  0  0  0  0  3  0  0  0  0  0  0
  158.5740  211.1160  155.8700 C   0  0  0  0  0  0  0  0  0  0  0  0
  158.3900  210.8160  157.1800 F   0  0  0  0  0  0  0  0  0  0  0  0
  155.7380  213.1010  156.4940 N   0  0  0  0  0  0  0  0  0  0  0  0
  156.6170  212.6120  155.9210 C   0  0  0  0  0  0  0  0  0  0  0  0
  162.0930  209.9910  150.8690 C   0  0  0  0  0  2  0  0  0  0  0  0
  162.3260  210.9810  148.5250 C   0  0  0  0  0  3  0  0  0  0  0  0
  161.2400  213.0660  148.4960 C   0  0  0  0  0  3  0  0  0  0  0  0
  161.8400  211.0210  149.8200 C   0  0  0  0  0  0  0  0  0  0  0  0
  161.9820  212.1230  147.7860 C   0  0  0  0  0  3  0  0  0  0  0  0
  161.0220  212.4650  150.0520 S   0  0  0  0  0  0  0  0  0  0  0  0
  160.4840  208.2650  151.6760 C   0  0  0  0  0  2  0  0  0  0  0  0
  161.7530  207.4370  151.5780 C   0  0  2  0  0  3  0  0  0  0  0  0
  161.4860  206.2170  150.9570 N   0  0  0  0  0  0  0  0  0  0  0  0
  161.7420  205.8910  153.6270 O   0  0  0  0  0  0  0  0  0  0  0  0
  161.6900  206.3720  152.4660 C   0  0  0  0  0  0  0  0  0  0  0  0
  161.2010  205.4130  149.7810 C   0  0  2  0  0  3  0  0  0  0  0  0
  160.4650  206.2580  148.7460 C   0  0  1  0  0  3  0  0  0  0  0  0
  161.3490  207.3900  148.2670 C   0  0  0  0  0  2  0  0  0  0  0  0
  161.0910  206.2140  147.3480 C   0  0  1  0  0  3  0  0  0  0  0  0
  162.3020  204.9740  145.9730 C   0  0  0  0  0  1  0  0  0  0  0  0
  162.2300  205.4050  147.2980 O   0  0  0  0  0  0  0  0  0  0  0  0
  160.4020  204.3270  150.1450 O   0  0  0  0  0  0  0  0  0  0  0  0
  161.2170  203.2070  149.9600 C   0  0  0  0  0  2  0  0  0  0  0  0
  159.5710  201.3870  149.3900 N   0  0  0  0  0  1  0  0  0  0  0  0
  160.9300  202.3370  147.7640 O   0  0  0  0  0  0  0  0  0  0  0  0
  160.5890  202.2890  148.9740 C   0  0  0  0  0  0  0  0  0  0  0  0
  1 14  1  6  0  0  0
  1  2  1  0  0  0  0
  2  3  2  0  0  0  0
  2  5  1  0  0  0  0
  4 10  1  0  0  0  0
  5  4  2  0  0  0  0
  6  7  1  0  0  0  0
  7  8  1  0  0  0  0
  8 10  2  0  0  0  0
  8 13  1  0  0  0  0
  9  5  1  0  0  0  0
  9  7  2  0  0  0  0
 10 11  1  0  0  0  0
 13 12  3  0  0  0  0
 15 17  2  0  0  0  0
 16 19  1  0  0  0  0
 17 19  1  0  0  0  0
 17 14  1  0  0  0  0
 18 16  2  0  0  0  0
 18 15  1  0  0  0  0
 20  1  1  0  0  0  0
 21 20  1  1  0  0  0
 21 24  1  0  0  0  0
 22 21  1  0  0  0  0
 22 24  1  0  0  0  0
 24 23  2  0  0  0  0
 25 31  1  1  0  0  0
 25 22  1  0  0  0  0
 26 25  1  1  0  0  0
 27 26  1  0  0  0  0
 28 30  1  1  0  0  0
 28 27  1  0  0  0  0
 28 26  1  0  0  0  0
 29 30  1  0  0  0  0
 32 31  1  0  0  0  0
 34 35  2  0  0  0  0
 35 33  1  0  0  0  0
 35 32  1  0  0  0  0
M  END
>  <MODEL>
7

>  <REMARK>
 VINA RESULT:      -6.4      2.396      3.753
  Name = 
  13 active torsions:
  status: ('A' for Active; 'I' for Inactive)
    1  A    between atoms: C_3  and  C_13
    2  A    between atoms: C_3  and  C_16
    3  A    between atoms: O_4  and  C_11
    4  A    between atoms: O_4  and  C_14
    5  A    between atoms: CA_5  and  C_22
    6  A    between atoms: N_6  and  C_11
    7  A    between atoms: C_8  and  C_13
    8  A    between atoms: C_8  and  C_30
    9  A    between atoms: C_11  and  C_19
   10  A    between atoms: C_13  and  C_22
   11  A    between atoms: C_14  and  C_26
   12  A    between atoms: C_23  and  C_31
   13  A    between atoms: O_32  and  C_34
                            x       y       z     vdW  Elec       q    Type
                         _______ _______ _______ _____ _____    ______ ____

>  <TORSDO>
F 13

$$$$
=
 OpenBabel11052410283D

 35 38  0  0  1  0  0  0  0  0999 V2000
  161.2780  208.6960  151.1200 C   0  0  1  0  0  3  0  0  0  0  0  0
  160.9390  208.4510  152.5620 C   0  0  0  0  0  0  0  0  0  0  0  0
  160.8640  207.2660  152.9900 O   0  0  0  0  0  0  0  0  0  0  0  0
  161.5330  209.8050  154.5780 C   0  0  0  0  0  3  0  0  0  0  0  0
  160.6940  209.5820  153.4780 C   0  0  0  0  0  0  0  0  0  0  0  0
  158.3290  212.3950  153.8360 O   0  0  0  0  0  1  0  0  0  0  0  0
  159.3960  211.5420  154.0940 C   0  0  0  0  0  0  0  0  0  0  0  0
  160.2450  211.7660  155.1910 C   0  0  0  0  0  0  0  0  0  0  0  0
  159.6240  210.4560  153.2460 C   0  0  0  0  0  3  0  0  0  0  0  0
  161.3130  210.8880  155.4320 C   0  0  0  0  0  0  0  0  0  0  0  0
  162.1430  211.0780  156.4870 F   0  0  0  0  0  0  0  0  0  0  0  0
  159.8530  213.7980  156.7630 N   0  0  0  0  0  0  0  0  0  0  0  0
  160.0260  212.8930  156.0630 C   0  0  0  0  0  0  0  0  0  0  0  0
  162.3530  209.7640  150.9730 C   0  0  0  0  0  2  0  0  0  0  0  0
  162.3250  210.7520  148.6170 C   0  0  0  0  0  3  0  0  0  0  0  0
  161.1380  212.7810  148.6830 C   0  0  0  0  0  3  0  0  0  0  0  0
  161.9550  210.7750  149.9500 C   0  0  0  0  0  0  0  0  0  0  0  0
  161.8600  211.8710  147.9110 C   0  0  0  0  0  3  0  0  0  0  0  0
  161.0900  212.1770  150.2530 S   0  0  0  0  0  0  0  0  0  0  0  0
  161.7240  207.4070  150.4520 C   0  0  0  0  0  2  0  0  0  0  0  0
  160.6940  206.9830  149.4200 C   0  0  2  0  0  3  0  0  0  0  0  0
  161.0240  205.7340  148.8950 N   0  0  0  0  0  0  0  0  0  0  0  0
  161.6450  207.6990  147.1460 O   0  0  0  0  0  0  0  0  0  0  0  0
  161.2450  207.0520  148.1480 C   0  0  0  0  0  0  0  0  0  0  0  0
  161.1170  204.2880  148.9890 C   0  0  2  0  0  3  0  0  0  0  0  0
  161.6090  203.8940  150.3780 C   0  0  1  0  0  3  0  0  0  0  0  0
  160.4530  203.8590  151.3550 C   0  0  0  0  0  2  0  0  0  0  0  0
  161.0580  202.5540  150.8770 C   0  0  1  0  0  3  0  0  0  0  0  0
  160.6900  200.6580  149.7990 C   0  0  0  0  0  1  0  0  0  0  0  0
  160.1970  201.9540  149.9540 O   0  0  0  0  0  0  0  0  0  0  0  0
  162.0160  203.8170  148.0290 O   0  0  0  0  0  0  0  0  0  0  0  0
  161.2240  203.5100  146.9200 C   0  0  0  0  0  2  0  0  0  0  0  0
  163.0940  204.6750  145.6970 N   0  0  0  0  0  1  0  0  0  0  0  0
  161.0110  204.3780  144.7140 O   0  0  0  0  0  0  0  0  0  0  0  0
  161.7470  204.2180  145.7220 C   0  0  0  0  0  0  0  0  0  0  0  0
  1 20  1  1  0  0  0
  1  2  1  0  0  0  0
  2  3  2  0  0  0  0
  2  5  1  0  0  0  0
  4 10  1  0  0  0  0
  5  4  2  0  0  0  0
  6  7  1  0  0  0  0
  7  8  1  0  0  0  0
  8 10  2  0  0  0  0
  8 13  1  0  0  0  0
  9  5  1  0  0  0  0
  9  7  2  0  0  0  0
 10 11  1  0  0  0  0
 13 12  3  0  0  0  0
 14  1  1  0  0  0  0
 15 17  2  0  0  0  0
 16 19  1  0  0  0  0
 17 19  1  0  0  0  0
 17 14  1  0  0  0  0
 18 15  1  0  0  0  0
 18 16  2  0  0  0  0
 21 20  1  1  0  0  0
 22 25  1  0  0  0  0
 22 21  1  0  0  0  0
 23 24  2  0  0  0  0
 24 22  1  0  0  0  0
 24 21  1  0  0  0  0
 25 31  1  6  0  0  0
 26 25  1  6  0  0  0
 26 28  1  0  0  0  0
 26 27  1  0  0  0  0
 28 30  1  6  0  0  0
 28 27  1  0  0  0  0
 29 30  1  0  0  0  0
 32 31  1  0  0  0  0
 33 35  1  0  0  0  0
 34 35  2  0  0  0  0
 35 32  1  0  0  0  0
M  END
>  <MODEL>
8

>  <REMARK>
 VINA RESULT:      -6.4      1.735      2.774
  Name = 
  13 active torsions:
  status: ('A' for Active; 'I' for Inactive)
    1  A    between atoms: C_3  and  C_13
    2  A    between atoms: C_3  and  C_16
    3  A    between atoms: O_4  and  C_11
    4  A    between atoms: O_4  and  C_14
    5  A    between atoms: CA_5  and  C_22
    6  A    between atoms: N_6  and  C_11
    7  A    between atoms: C_8  and  C_13
    8  A    between atoms: C_8  and  C_30
    9  A    between atoms: C_11  and  C_19
   10  A    between atoms: C_13  and  C_22
   11  A    between atoms: C_14  and  C_26
   12  A    between atoms: C_23  and  C_31
   13  A    between atoms: O_32  and  C_34
                            x       y       z     vdW  Elec       q    Type
                         _______ _______ _______ _____ _____    ______ ____

>  <TORSDO>
F 13

$$$$
=
 OpenBabel11052410283D

 35 38  0  0  1  0  0  0  0  0999 V2000
  161.7210  205.7740  149.9260 C   0  0  1  0  0  3  0  0  0  0  0  0
  161.0630  204.4740  150.2910 C   0  0  0  0  0  0  0  0  0  0  0  0
  160.4510  204.3750  151.3910 O   0  0  0  0  0  0  0  0  0  0  0  0
  161.1490  202.0100  149.8770 C   0  0  0  0  0  3  0  0  0  0  0  0
  161.1260  203.3180  149.3760 C   0  0  0  0  0  0  0  0  0  0  0  0
  161.2060  202.6630  145.7430 O   0  0  0  0  0  1  0  0  0  0  0  0
  161.1880  202.4320  147.1140 C   0  0  0  0  0  0  0  0  0  0  0  0
  161.2020  201.1220  147.6220 C   0  0  0  0  0  0  0  0  0  0  0  0
  161.1500  203.5190  147.9900 C   0  0  0  0  0  3  0  0  0  0  0  0
  161.1870  200.9170  149.0100 C   0  0  0  0  0  0  0  0  0  0  0  0
  161.2060  199.6620  149.5260 F   0  0  0  0  0  0  0  0  0  0  0  0
  161.2480  199.0870  146.0060 N   0  0  0  0  0  0  0  0  0  0  0  0
  161.2260  199.9930  146.7250 C   0  0  0  0  0  0  0  0  0  0  0  0
  160.7940  206.6560  149.1020 C   0  0  0  0  0  2  0  0  0  0  0  0
  160.0810  206.4730  146.6550 C   0  0  0  0  0  3  0  0  0  0  0  0
  161.9840  205.9740  145.3680 C   0  0  0  0  0  3  0  0  0  0  0  0
  161.0490  206.4700  147.6440 C   0  0  0  0  0  0  0  0  0  0  0  0
  160.6080  206.2030  145.3840 C   0  0  0  0  0  3  0  0  0  0  0  0
  162.5320  206.1070  146.9540 S   0  0  0  0  0  0  0  0  0  0  0  0
  162.1730  206.5100  151.1750 C   0  0  0  0  0  2  0  0  0  0  0  0
  160.9960  207.2490  151.7870 C   0  0  2  0  0  3  0  0  0  0  0  0
  161.4410  208.3760  152.4770 N   0  0  0  0  0  0  0  0  0  0  0  0
  160.8080  206.3920  154.1990 O   0  0  0  0  0  0  0  0  0  0  0  0
  160.9990  207.0820  153.1650 C   0  0  0  0  0  0  0  0  0  0  0  0
  161.9560  209.7330  152.5180 C   0  0  2  0  0  3  0  0  0  0  0  0
  160.7980  210.7190  152.6290 C   0  0  1  0  0  3  0  0  0  0  0  0
  159.8260  210.2710  153.6990 C   0  0  0  0  0  2  0  0  0  0  0  0
  160.7320  211.4530  153.9730 C   0  0  1  0  0  3  0  0  0  0  0  0
  161.1680  211.0910  156.1110 C   0  0  0  0  0  1  0  0  0  0  0  0
  161.7530  211.0640  154.8450 O   0  0  0  0  0  0  0  0  0  0  0  0
  162.6740  209.9910  151.3480 O   0  0  0  0  0  0  0  0  0  0  0  0
  161.8020  210.7380  150.5510 C   0  0  0  0  0  2  0  0  0  0  0  0
  162.5660  211.8280  148.4120 N   0  0  0  0  0  1  0  0  0  0  0  0
  162.3160  209.5240  148.5700 O   0  0  0  0  0  0  0  0  0  0  0  0
  162.2240  210.6480  149.1290 C   0  0  0  0  0  0  0  0  0  0  0  0
  1 14  1  1  0  0  0
  1  2  1  0  0  0  0
  1 20  1  0  0  0  0
  2  3  2  0  0  0  0
  5  4  1  0  0  0  0
  5  2  1  0  0  0  0
  6  7  1  0  0  0  0
  7  8  2  0  0  0  0
  7  9  1  0  0  0  0
  8 10  1  0  0  0  0
  9  5  2  0  0  0  0
 10 11  1  0  0  0  0
 10  4  2  0  0  0  0
 12 13  3  0  0  0  0
 13  8  1  0  0  0  0
 15 17  2  0  0  0  0
 16 18  2  0  0  0  0
 16 19  1  0  0  0  0
 17 14  1  0  0  0  0
 18 15  1  0  0  0  0
 19 17  1  0  0  0  0
 21 20  1  6  0  0  0
 21 22  1  0  0  0  0
 21 24  1  0  0  0  0
 22 25  1  0  0  0  0
 22 24  1  0  0  0  0
 24 23  2  0  0  0  0
 25 31  1  6  0  0  0
 26 25  1  1  0  0  0
 26 27  1  0  0  0  0
 26 28  1  0  0  0  0
 27 28  1  0  0  0  0
 28 30  1  1  0  0  0
 30 29  1  0  0  0  0
 32 31  1  0  0  0  0
 33 35  1  0  0  0  0
 34 35  2  0  0  0  0
 35 32  1  0  0  0  0
M  END
>  <MODEL>
9

>  <REMARK>
 VINA RESULT:      -6.4      3.249      8.636
  Name = 
  13 active torsions:
  status: ('A' for Active; 'I' for Inactive)
    1  A    between atoms: C_3  and  C_13
    2  A    between atoms: C_3  and  C_16
    3  A    between atoms: O_4  and  C_11
    4  A    between atoms: O_4  and  C_14
    5  A    between atoms: CA_5  and  C_22
    6  A    between atoms: N_6  and  C_11
    7  A    between atoms: C_8  and  C_13
    8  A    between atoms: C_8  and  C_30
    9  A    between atoms: C_11  and  C_19
   10  A    between atoms: C_13  and  C_22
   11  A    between atoms: C_14  and  C_26
   12  A    between atoms: C_23  and  C_31
   13  A    between atoms: O_32  and  C_34
                            x       y       z     vdW  Elec       q    Type
                         _______ _______ _______ _____ _____    ______ ____

>  <TORSDO>
F 13

$$$$
