=
 OpenBabel11052409303D

 67 73  0  0  1  0  0  0  0  0999 V2000
  159.2870  212.9680  150.5300 C   0  0  1  0  0  3  0  0  0  0  0  0
  156.7970  213.3700  150.9170 N   0  0  0  0  0  1  0  0  0  0  0  0
  158.1110  213.1570  151.4390 C   0  0  0  0  0  0  0  0  0  0  0  0
  158.2760  213.1000  152.6820 O   0  0  0  0  0  0  0  0  0  0  0  0
  160.2400  211.9310  151.0270 C   0  0  0  0  0  3  0  0  0  0  0  0
  159.9770  211.2510  152.1090 C   0  0  0  0  0  0  0  0  0  0  0  0
  159.7280  210.5550  153.1830 C   0  0  0  0  0  3  0  0  0  0  0  0
  160.6580  210.6170  154.3450 C   0  0  2  0  0  3  0  0  0  0  0  0
  161.9040  211.2350  153.9280 N   0  0  0  0  0  1  0  0  0  0  0  0
  160.9200  209.2130  154.8600 C   0  0  0  0  0  2  0  0  0  0  0  0
  159.7990  208.2780  154.4340 C   0  0  0  0  0  2  0  0  0  0  0  0
  160.1380  206.8380  154.7920 C   0  0  0  0  0  2  0  0  0  0  0  0
  161.4180  206.4040  154.0960 C   0  0  0  0  0  2  0  0  0  0  0  0
  160.4050  206.6370  147.5880 C   0  0  0  0  0  2  0  0  0  0  0  0
  161.6360  205.1270  146.4880 C   0  0  2  0  0  0  0  0  0  0  0  0
  162.9750  205.3960  146.8530 O   0  0  0  0  0  0  0  0  0  0  0  0
  162.2210  203.6850  148.3390 O   0  0  0  0  0  1  0  0  0  0  0  0
  160.8700  206.2890  146.3030 O   0  0  0  0  0  0  0  0  0  0  0  0
  162.4530  209.0240  150.2070 O   0  0  0  0  0  1  0  0  0  0  0  0
  162.2770  207.0520  149.0580 O   0  0  0  0  0  0  0  0  0  0  0  0
  161.3460  206.0640  148.6400 C   0  0  1  0  0  0  0  0  0  0  0  0
  160.7900  203.5720  151.8370 O   0  0  0  0  0  0  0  0  0  0  0  0
  161.6180  207.1040  151.3390 C   0  0  0  0  0  2  0  0  0  0  0  0
  161.0420  204.7670  152.1430 C   0  0  0  0  0  0  0  0  0  0  0  0
  160.5270  205.4290  149.7890 C   0  0  0  0  0  2  0  0  0  0  0  0
  161.6850  207.8740  150.0340 C   0  0  1  0  0  3  0  0  0  0  0  0
  162.0830  204.9980  147.8760 C   0  0  2  0  0  0  0  0  0  0  0  0
  161.0730  205.7660  151.1080 N   0  0  0  0  0  0  0  0  0  0  0  0
  161.2490  205.0740  153.5310 N   0  0  0  0  0  2  0  0  0  0  0  0
  161.4220  203.9240  145.5470 C   0  0  1  0  0  3  0  0  0  0  0  0
  160.9690  202.8210  146.2730 O   0  0  0  0  0  1  0  0  0  0  0  0
  159.3010  203.4170  144.2490 N   0  0  0  0  0  1  0  0  0  0  0  0
  160.4890  204.1830  144.4030 C   0  0  0  0  0  0  0  0  0  0  0  0
  160.7980  205.0710  143.5160 N   0  0  0  0  0  2  0  0  0  0  0  0
  158.8300  212.6270  149.1880 N   0  0  0  0  0  2  0  0  0  0  0  0
  160.8030  212.3860  147.5790 C   0  0  2  0  0  3  0  0  0  0  0  0
  157.8070  214.4530  147.1370 O   0  0  0  0  0  1  0  0  0  0  0  0
  161.8420  212.4850  148.6950 C   0  0  0  0  0  2  0  0  0  0  0  0
  163.1420  211.8210  148.2780 C   0  0  0  0  0  2  0  0  0  0  0  0
  162.3460  214.0770  146.3480 C   0  0  0  0  0  2  0  0  0  0  0  0
  163.6540  213.3060  146.2920 C   0  0  0  0  0  2  0  0  0  0  0  0
  161.1600  213.1130  146.2600 C   0  0  2  0  0  3  0  0  0  0  0  0
  159.5170  213.0000  147.9880 C   0  0  0  0  0  0  0  0  0  0  0  0
  164.0940  212.8470  147.6750 C   0  0  0  0  0  2  0  0  0  0  0  0
  159.9080  213.8980  145.8590 C   0  0  2  0  0  3  0  0  0  0  0  0
  159.0360  213.8060  147.0540 C   0  0  0  0  0  0  0  0  0  0  0  0
  161.0360  213.5620  143.2600 O   0  0  0  0  0  0  0  0  0  0  0  0
  159.9220  213.0140  143.4830 C   0  0  0  0  0  0  0  0  0  0  0  0
  159.2630  213.2290  144.7360 N   0  0  0  0  0  2  0  0  0  0  0  0
  159.2950  212.1160  142.4960 C   0  0  0  0  0  3  0  0  0  0  0  0
  157.9130  213.8690  138.9640 C   0  0  0  0  0  3  0  0  0  0  0  0
  159.2810  212.2600  141.1660 C   0  0  0  0  0  0  0  0  0  0  0  0
  158.5960  211.1820  140.3830 C   0  0  0  0  0  2  0  0  0  0  0  0
  157.6260  212.6170  138.5730 C   0  0  0  0  0  0  0  0  0  0  0  0
  159.0010  214.2820  139.7550 O   0  0  0  0  0  0  0  0  0  0  0  0
  159.9120  213.4590  140.4870 C   0  0  2  0  0  3  0  0  0  0  0  0
  158.5640  211.4840  138.8970 C   0  0  2  0  0  3  0  0  0  0  0  0
  158.2910  210.3240  138.1740 O   0  0  0  0  0  1  0  0  0  0  0  0
  163.3750  212.4910  139.9200 C   0  0  0  0  0  2  0  0  0  0  0  0
  162.3030  212.9930  140.6800 O   0  0  0  0  0  0  0  0  0  0  0  0
  161.2570  213.2590  139.7780 C   0  0  2  0  0  3  0  0  0  0  0  0
  161.6140  214.4530  138.8820 C   0  0  0  0  0  2  0  0  0  0  0  0
  163.9670  213.6040  139.0530 C   0  0  0  0  0  2  0  0  0  0  0  0
  162.8860  214.1200  138.1060 C   0  0  0  0  0  2  0  0  0  0  0  0
  156.1900  211.3470  137.1550 O   0  0  0  0  0  0  0  0  0  0  0  0
  156.3620  212.4020  137.8180 C   0  0  0  0  0  0  0  0  0  0  0  0
  155.3570  213.3600  137.8140 O   0  0  0  0  0  1  0  0  0  0  0  0
  1  5  1  1  0  0  0
  1  3  1  0  0  0  0
  2  3  1  0  0  0  0
  3  4  2  0  0  0  0
  5  6  2  0  0  0  0
  6  7  2  0  0  0  0
  7  8  1  0  0  0  0
  8  9  1  6  0  0  0
  8 10  1  0  0  0  0
 11 12  1  0  0  0  0
 11 10  1  0  0  0  0
 13 12  1  0  0  0  0
 15 30  1  6  0  0  0
 15 16  1  0  0  0  0
 15 27  1  0  0  0  0
 16 27  1  0  0  0  0
 18 15  1  0  0  0  0
 18 14  1  0  0  0  0
 20 26  1  0  0  0  0
 21 14  1  6  0  0  0
 21 20  1  0  0  0  0
 21 25  1  0  0  0  0
 22 24  2  0  0  0  0
 24 29  1  0  0  0  0
 25 28  1  0  0  0  0
 26 19  1  1  0  0  0
 26 23  1  0  0  0  0
 27 17  1  1  0  0  0
 27 21  1  0  0  0  0
 28 23  1  0  0  0  0
 28 24  1  0  0  0  0
 29 13  1  0  0  0  0
 30 31  1  1  0  0  0
 32 33  1  0  0  0  0
 33 30  1  0  0  0  0
 34 33  2  0  0  0  0
 35  1  1  0  0  0  0
 36 43  1  0  0  0  0
 36 38  1  1  0  0  0
 39 38  1  0  0  0  0
 41 40  1  0  0  0  0
 41 44  1  0  0  0  0
 42 40  1  1  0  0  0
 42 36  1  0  0  0  0
 43 35  1  0  0  0  0
 44 39  1  0  0  0  0
 45 49  1  6  0  0  0
 45 42  1  0  0  0  0
 45 46  1  0  0  0  0
 46 37  1  0  0  0  0
 46 43  2  0  0  0  0
 47 48  2  0  0  0  0
 48 49  1  0  0  0  0
 50 48  1  0  0  0  0
 51 55  1  0  0  0  0
 52 50  2  0  0  0  0
 53 52  1  0  0  0  0
 54 57  1  0  0  0  0
 54 51  2  0  0  0  0
 56 55  1  6  0  0  0
 56 52  1  0  0  0  0
 57 58  1  6  0  0  0
 57 53  1  0  0  0  0
 59 60  1  0  0  0  0
 61 62  1  1  0  0  0
 61 56  1  0  0  0  0
 61 60  1  0  0  0  0
 63 59  1  0  0  0  0
 64 62  1  0  0  0  0
 64 63  1  0  0  0  0
 65 66  2  0  0  0  0
 66 54  1  0  0  0  0
 67 66  1  0  0  0  0
M  END
>  <MODEL>
1

>  <REMARK>
 VINA RESULT:      -4.1      0.000      0.000
  Name = 
  16 active torsions:
  status: ('A' for Active; 'I' for Inactive)
    1  A    between atoms: C_2  and  C_13
    2  A    between atoms: C_4  and  C_15
    3  A    between atoms: C_4  and  C_51
    4  A    between atoms: C_5  and  C_9
    5  A    between atoms: C_9  and  C_42
    6  A    between atoms: N_12  and  C_23
    7  A    between atoms: N_12  and  C_46
    8  A    between atoms: C_15  and  N_67
    9  A    between atoms: C_18  and  C_23
   10  A    between atoms: C_19  and  C_23
   11  A    between atoms: N_22  and  C_61
   12  A    between atoms: C_31  and  C_36
   13  A    between atoms: C_41  and  C_49
   14  A    between atoms: C_41  and  C_54
   15  A    between atoms: C_49  and  C_51
   16  A    between atoms: C_52  and  C_63
                            x       y       z     vdW  Elec       q    Type
                         _______ _______ _______ _____ _____    ______ ____

>  <TORSDO>
F 16

$$$$
