=
 OpenBabel11042420173D

 51 55  0  0  1  0  0  0  0  0999 V2000
  161.4710  203.0970  146.7080 N   0  0  0  0  0  0  0  0  0  0  0  0
  160.5510  204.8350  152.0800 C   0  0  0  0  0  3  0  0  0  0  0  0
  161.7520  207.6850  148.8570 C   0  0  0  0  0  0  0  0  0  0  0  0
  161.3110  205.6770  152.8070 C   0  0  2  0  0  3  0  0  0  0  0  0
  162.6190  206.8380  151.0290 C   0  0  0  0  0  3  0  0  0  0  0  0
  161.4930  206.7750  150.0480 C   0  0  0  0  0  0  0  0  0  0  0  0
  162.5020  206.3670  152.2700 C   0  0  0  0  0  3  0  0  0  0  0  0
  160.7030  204.5110  150.6470 C   0  0  0  0  0  3  0  0  0  0  0  0
  161.7720  205.7500  147.3290 C   0  0  0  0  0  0  0  0  0  0  0  0
  161.9820  205.2880  146.0320 C   0  0  0  0  0  3  0  0  0  0  0  0
  161.2490  203.4980  147.9870 C   0  0  0  0  0  3  0  0  0  0  0  0
  161.9010  207.1810  147.6220 C   0  0  0  0  0  3  0  0  0  0  0  0
  161.1790  205.3370  149.7060 C   0  0  0  0  0  0  0  0  0  0  0  0
  161.8270  203.9650  145.7600 N   0  0  0  0  0  0  0  0  0  0  0  0
  161.3940  204.8480  148.3270 C   0  0  0  0  0  0  0  0  0  0  0  0
  161.8160  209.1590  149.0530 C   0  0  0  0  0  0  0  0  0  0  0  0
  162.0650  209.6970  150.3250 C   0  0  0  0  0  3  0  0  0  0  0  0
  162.1210  211.0810  150.5160 C   0  0  0  0  0  3  0  0  0  0  0  0
  161.9220  211.9440  149.4380 C   0  0  0  0  0  3  0  0  0  0  0  0
  161.6660  211.4300  148.1640 C   0  0  0  0  0  0  0  0  0  0  0  0
  161.6130  210.0410  147.9760 C   0  0  0  0  0  3  0  0  0  0  0  0
  161.4570  212.3330  147.0760 N   0  0  0  0  0  2  0  0  0  0  0  0
  161.8400  213.7350  147.1280 C   0  0  0  0  0  2  0  0  0  0  0  0
  162.5630  214.1190  145.8510 C   0  0  0  0  0  2  0  0  0  0  0  0
  162.5220  213.0580  144.9460 O   0  0  0  0  0  0  0  0  0  0  0  0
  162.0960  213.6340  143.7500 C   0  0  0  0  0  2  0  0  0  0  0  0
  162.1870  212.6080  142.6300 C   0  0  0  0  0  2  0  0  0  0  0  0
  160.8800  211.8350  142.4140 C   0  0  1  0  0  3  0  0  0  0  0  0
  158.9030  213.3540  142.5200 O   0  0  0  0  0  0  0  0  0  0  0  0
  159.4330  212.0400  144.3190 O   0  0  0  0  0  1  0  0  0  0  0  0
  159.7020  212.4050  143.1450 C   0  0  0  0  0  0  0  0  0  0  0  0
  160.6930  212.5840  139.9820 C   0  0  0  0  0  1  0  0  0  0  0  0
  160.5730  211.4290  140.9630 C   0  0  1  0  0  3  0  0  0  0  0  0
  161.4360  210.3360  140.5400 N   0  0  0  0  0  2  0  0  0  0  0  0
  161.5970  210.4310  139.0940 C   0  0  1  0  0  3  0  0  0  0  0  0
  162.9240  210.7510  138.7870 O   0  0  0  0  0  1  0  0  0  0  0  0
  161.1740  209.1260  138.4100 C   0  0  0  0  0  0  0  0  0  0  0  0
  159.6840  209.1230  138.1070 C   0  0  0  0  0  1  0  0  0  0  0  0
  161.8820  208.9740  137.2170 O   0  0  0  0  0  1  0  0  0  0  0  0
  161.4930  207.9500  139.3130 C   0  0  0  0  0  1  0  0  0  0  0  0
  161.0480  205.8320  154.2070 N   0  0  0  0  0  2  0  0  0  0  0  0
  160.5060  206.9590  156.2780 C   0  0  0  0  0  3  0  0  0  0  0  0
  160.9010  208.2780  154.1930 C   0  0  0  0  0  2  0  0  0  0  0  0
  160.3540  206.9770  154.7850 C   0  0  1  0  0  3  0  0  0  0  0  0
  160.2560  209.4550  154.9220 C   0  0  1  0  0  3  0  0  0  0  0  0
  160.4730  209.3400  156.3300 O   0  0  0  0  0  0  0  0  0  0  0  0
  160.5330  208.0970  156.9770 C   0  0  0  0  0  3  0  0  0  0  0  0
  160.8280  210.7720  154.4260 C   0  0  0  0  0  2  0  0  0  0  0  0
  159.5890  212.8500  153.8150 O   0  0  0  0  0  1  0  0  0  0  0  0
  159.8320  211.5010  153.5900 C   0  0  0  0  0  0  0  0  0  0  0  0
  159.2370  210.9030  152.6560 O   0  0  0  0  0  0  0  0  0  0  0  0
  1 11  1  0  0  0  0
  2  4  1  0  0  0  0
  3 16  1  0  0  0  0
  3  6  1  0  0  0  0
  4 41  1  1  0  0  0
  5  7  2  0  0  0  0
  6  5  1  0  0  0  0
  7  4  1  0  0  0  0
  8  2  2  0  0  0  0
  9 12  1  0  0  0  0
  9 15  1  0  0  0  0
 10  9  2  0  0  0  0
 11 15  2  0  0  0  0
 12  3  2  0  0  0  0
 13  6  2  0  0  0  0
 13  8  1  0  0  0  0
 14 10  1  0  0  0  0
 14  1  2  0  0  0  0
 15 13  1  0  0  0  0
 16 17  1  0  0  0  0
 17 18  2  0  0  0  0
 19 18  1  0  0  0  0
 20 19  2  0  0  0  0
 21 20  1  0  0  0  0
 21 16  2  0  0  0  0
 22 23  1  0  0  0  0
 22 20  1  0  0  0  0
 24 23  1  0  0  0  0
 25 24  1  0  0  0  0
 26 25  1  0  0  0  0
 27 26  1  0  0  0  0
 28 27  1  6  0  0  0
 28 31  1  0  0  0  0
 29 31  2  0  0  0  0
 31 30  1  0  0  0  0
 33 32  1  6  0  0  0
 33 28  1  0  0  0  0
 34 33  1  0  0  0  0
 35 36  1  1  0  0  0
 35 34  1  0  0  0  0
 37 35  1  0  0  0  0
 37 40  1  0  0  0  0
 38 37  1  0  0  0  0
 39 37  1  0  0  0  0
 42 47  2  0  0  0  0
 43 44  1  0  0  0  0
 43 45  1  0  0  0  0
 44 41  1  6  0  0  0
 44 42  1  0  0  0  0
 45 48  1  6  0  0  0
 45 46  1  0  0  0  0
 46 47  1  0  0  0  0
 50 49  1  0  0  0  0
 50 48  1  0  0  0  0
 51 50  2  0  0  0  0
M  END
>  <MODEL>
1

>  <REMARK>
 VINA RESULT:      -7.9      0.000      0.000
  Name = 
  17 active torsions:
  status: ('A' for Active; 'I' for Inactive)
    1  A    between atoms: C_4  and  C_5
    2  A    between atoms: C_8  and  C_24
    3  A    between atoms: C_8  and  N_51
    4  A    between atoms: C_10  and  N_33
    5  A    between atoms: C_18  and  C_19
    6  A    between atoms: C_18  and  C_48
    7  A    between atoms: C_19  and  O_45
    8  A    between atoms: C_21  and  N_33
    9  A    between atoms: C_22  and  C_48
   10  A    between atoms: C_22  and  N_51
   11  A    between atoms: C_26  and  C_31
   12  A    between atoms: C_27  and  N_50
   13  A    between atoms: C_29  and  C_31
   14  A    between atoms: C_39  and  C_44
   15  A    between atoms: C_39  and  N_50
   16  A    between atoms: C_44  and  O_45
   17  A    between atoms: C_48  and  C_49
                            x       y       z     vdW  Elec       q    Type
                         _______ _______ _______ _____ _____    ______ ____

>  <TORSDO>
F 17

$$$$
=
 OpenBabel11042420173D

 51 55  0  0  1  0  0  0  0  0999 V2000
  161.5630  203.3170  146.6210 N   0  0  0  0  0  0  0  0  0  0  0  0
  160.5810  204.8580  152.0420 C   0  0  0  0  0  3  0  0  0  0  0  0
  161.8080  207.8250  148.9380 C   0  0  0  0  0  0  0  0  0  0  0  0
  161.3300  205.6740  152.8080 C   0  0  2  0  0  3  0  0  0  0  0  0
  162.6540  206.9020  151.0880 C   0  0  0  0  0  3  0  0  0  0  0  0
  161.5390  206.8720  150.0920 C   0  0  0  0  0  0  0  0  0  0  0  0
  162.5250  206.3860  152.3090 C   0  0  0  0  0  3  0  0  0  0  0  0
  160.7490  204.5860  150.6000 C   0  0  0  0  0  3  0  0  0  0  0  0
  161.8500  205.9470  147.3410 C   0  0  0  0  0  0  0  0  0  0  0  0
  162.0760  205.5320  146.0300 C   0  0  0  0  0  3  0  0  0  0  0  0
  161.3260  203.6710  147.9110 C   0  0  0  0  0  3  0  0  0  0  0  0
  161.9720  207.3670  147.6870 C   0  0  0  0  0  3  0  0  0  0  0  0
  161.2330  205.4470  149.6950 C   0  0  0  0  0  0  0  0  0  0  0  0
  161.9280  204.2200  145.7090 N   0  0  0  0  0  0  0  0  0  0  0  0
  161.4640  205.0080  148.3020 C   0  0  0  0  0  0  0  0  0  0  0  0
  161.8660  209.2910  149.1880 C   0  0  0  0  0  0  0  0  0  0  0  0
  161.6230  209.8040  150.4720 C   0  0  0  0  0  3  0  0  0  0  0  0
  161.6710  211.1800  150.7110 C   0  0  0  0  0  3  0  0  0  0  0  0
  161.9560  212.0620  149.6670 C   0  0  0  0  0  3  0  0  0  0  0  0
  162.1940  211.5740  148.3800 C   0  0  0  0  0  0  0  0  0  0  0  0
  162.1480  210.1920  148.1450 C   0  0  0  0  0  3  0  0  0  0  0  0
  162.4750  212.4950  147.3240 N   0  0  0  0  0  2  0  0  0  0  0  0
  161.5230  212.8010  146.2680 C   0  0  0  0  0  2  0  0  0  0  0  0
  160.1410  212.3210  146.6680 C   0  0  0  0  0  2  0  0  0  0  0  0
  159.2780  212.3930  145.5730 O   0  0  0  0  0  0  0  0  0  0  0  0
  160.1190  212.3840  144.4630 C   0  0  0  0  0  2  0  0  0  0  0  0
  159.3030  212.6350  143.2030 C   0  0  0  0  0  2  0  0  0  0  0  0
  160.1310  213.2330  142.0580 C   0  0  1  0  0  3  0  0  0  0  0  0
  162.6090  213.1330  141.7790 O   0  0  0  0  0  1  0  0  0  0  0  0
  161.3440  211.2520  141.4540 O   0  0  0  0  0  0  0  0  0  0  0  0
  161.3860  212.4750  141.7480 C   0  0  0  0  0  0  0  0  0  0  0  0
  160.1920  213.7170  139.5540 C   0  0  0  0  0  1  0  0  0  0  0  0
  159.3390  213.6610  140.8110 C   0  0  1  0  0  3  0  0  0  0  0  0
  158.2030  212.7770  140.5930 N   0  0  0  0  0  2  0  0  0  0  0  0
  158.3960  212.1120  139.3100 C   0  0  1  0  0  3  0  0  0  0  0  0
  158.7490  210.7750  139.5190 O   0  0  0  0  0  1  0  0  0  0  0  0
  157.1360  212.2200  138.4440 C   0  0  0  0  0  0  0  0  0  0  0  0
  155.9290  211.6320  139.1550 C   0  0  0  0  0  1  0  0  0  0  0  0
  156.8850  213.5620  138.1530 O   0  0  0  0  0  1  0  0  0  0  0  0
  157.3480  211.4760  137.1390 C   0  0  0  0  0  1  0  0  0  0  0  0
  161.0520  205.7780  154.2090 N   0  0  0  0  0  2  0  0  0  0  0  0
  160.4980  206.8400  156.3120 C   0  0  0  0  0  3  0  0  0  0  0  0
  160.8720  208.2210  154.2640 C   0  0  0  0  0  2  0  0  0  0  0  0
  160.3440  206.8970  154.8200 C   0  0  1  0  0  3  0  0  0  0  0  0
  160.2130  209.3690  155.0260 C   0  0  1  0  0  3  0  0  0  0  0  0
  160.4330  209.2180  156.4300 O   0  0  0  0  0  0  0  0  0  0  0  0
  160.5120  207.9580  157.0420 C   0  0  0  0  0  3  0  0  0  0  0  0
  160.7660  210.7060  154.5660 C   0  0  0  0  0  2  0  0  0  0  0  0
  159.5300  212.8540  154.2670 O   0  0  0  0  0  1  0  0  0  0  0  0
  159.7040  211.5230  153.9100 C   0  0  0  0  0  0  0  0  0  0  0  0
  158.9890  211.0160  153.0080 O   0  0  0  0  0  0  0  0  0  0  0  0
  1 11  1  0  0  0  0
  2  4  1  0  0  0  0
  3 16  1  0  0  0  0
  3  6  1  0  0  0  0
  4 41  1  1  0  0  0
  5  7  2  0  0  0  0
  6  5  1  0  0  0  0
  7  4  1  0  0  0  0
  8  2  2  0  0  0  0
  9 12  1  0  0  0  0
  9 15  1  0  0  0  0
 10  9  2  0  0  0  0
 11 15  2  0  0  0  0
 12  3  2  0  0  0  0
 13  6  2  0  0  0  0
 13  8  1  0  0  0  0
 14 10  1  0  0  0  0
 14  1  2  0  0  0  0
 15 13  1  0  0  0  0
 16 17  1  0  0  0  0
 17 18  2  0  0  0  0
 19 18  1  0  0  0  0
 20 19  2  0  0  0  0
 21 20  1  0  0  0  0
 21 16  2  0  0  0  0
 22 20  1  0  0  0  0
 23 24  1  0  0  0  0
 23 22  1  0  0  0  0
 25 24  1  0  0  0  0
 26 25  1  0  0  0  0
 27 26  1  0  0  0  0
 28 27  1  1  0  0  0
 30 31  2  0  0  0  0
 31 29  1  0  0  0  0
 31 28  1  0  0  0  0
 33 32  1  6  0  0  0
 33 28  1  0  0  0  0
 34 33  1  0  0  0  0
 35 36  1  1  0  0  0
 35 34  1  0  0  0  0
 37 38  1  0  0  0  0
 37 35  1  0  0  0  0
 39 37  1  0  0  0  0
 40 37  1  0  0  0  0
 42 47  2  0  0  0  0
 43 44  1  0  0  0  0
 43 45  1  0  0  0  0
 44 41  1  6  0  0  0
 44 42  1  0  0  0  0
 45 48  1  6  0  0  0
 45 46  1  0  0  0  0
 46 47  1  0  0  0  0
 50 49  1  0  0  0  0
 50 48  1  0  0  0  0
 51 50  2  0  0  0  0
M  END
>  <MODEL>
2

>  <REMARK>
 VINA RESULT:      -7.1      1.742      2.256
  Name = 
  17 active torsions:
  status: ('A' for Active; 'I' for Inactive)
    1  A    between atoms: C_4  and  C_5
    2  A    between atoms: C_8  and  C_24
    3  A    between atoms: C_8  and  N_51
    4  A    between atoms: C_10  and  N_33
    5  A    between atoms: C_18  and  C_19
    6  A    between atoms: C_18  and  C_48
    7  A    between atoms: C_19  and  O_45
    8  A    between atoms: C_21  and  N_33
    9  A    between atoms: C_22  and  C_48
   10  A    between atoms: C_22  and  N_51
   11  A    between atoms: C_26  and  C_31
   12  A    between atoms: C_27  and  N_50
   13  A    between atoms: C_29  and  C_31
   14  A    between atoms: C_39  and  C_44
   15  A    between atoms: C_39  and  N_50
   16  A    between atoms: C_44  and  O_45
   17  A    between atoms: C_48  and  C_49
                            x       y       z     vdW  Elec       q    Type
                         _______ _______ _______ _____ _____    ______ ____

>  <TORSDO>
F 17

$$$$
=
 OpenBabel11042420173D

 51 55  0  0  1  0  0  0  0  0999 V2000
  159.0580  214.4030  156.5630 N   0  0  0  0  0  0  0  0  0  0  0  0
  157.4780  213.7010  151.1100 C   0  0  0  0  0  3  0  0  0  0  0  0
  160.3540  210.9250  153.1040 C   0  0  0  0  0  0  0  0  0  0  0  0
  158.2730  213.4220  150.0590 C   0  0  0  0  0  0  0  0  0  0  0  0
  160.3020  212.5140  151.1900 C   0  0  0  0  0  3  0  0  0  0  0  0
  159.5080  211.8980  152.2960 C   0  0  2  0  0  3  0  0  0  0  0  0
  159.7230  213.1650  150.1820 C   0  0  0  0  0  3  0  0  0  0  0  0
  157.8630  213.7270  152.5360 C   0  0  0  0  0  3  0  0  0  0  0  0
  160.0890  212.3070  155.1280 C   0  0  0  0  0  0  0  0  0  0  0  0
  160.4450  212.5100  156.4590 C   0  0  0  0  0  3  0  0  0  0  0  0
  158.6750  214.2460  155.2700 C   0  0  0  0  0  3  0  0  0  0  0  0
  160.6250  211.1540  154.3970 C   0  0  0  0  0  3  0  0  0  0  0  0
  158.8140  212.9720  153.1010 C   0  0  0  0  0  0  0  0  0  0  0  0
  159.9180  213.5610  157.1400 N   0  0  0  0  0  0  0  0  0  0  0  0
  159.1860  213.1820  154.5170 C   0  0  0  0  0  0  0  0  0  0  0  0
  160.8700  209.6850  152.4610 C   0  0  0  0  0  0  0  0  0  0  0  0
  161.0900  208.5270  153.2230 C   0  0  0  0  0  3  0  0  0  0  0  0
  161.5800  207.3620  152.6270 C   0  0  0  0  0  3  0  0  0  0  0  0
  161.8610  207.3430  151.2590 C   0  0  0  0  0  3  0  0  0  0  0  0
  161.6560  208.4860  150.4830 C   0  0  0  0  0  0  0  0  0  0  0  0
  161.1620  209.6520  151.0860 C   0  0  0  0  0  3  0  0  0  0  0  0
  161.9590  208.4450  149.0870 N   0  0  0  0  0  2  0  0  0  0  0  0
  162.6980  207.3540  148.4700 C   0  0  0  0  0  2  0  0  0  0  0  0
  161.7420  206.4450  147.7220 C   0  0  0  0  0  2  0  0  0  0  0  0
  162.4190  205.7850  146.6960 O   0  0  0  0  0  0  0  0  0  0  0  0
  161.4440  205.0050  146.0760 C   0  0  0  0  0  2  0  0  0  0  0  0
  161.8460  203.5400  146.1440 C   0  0  0  0  0  2  0  0  0  0  0  0
  160.6590  202.6020  146.4010 C   0  0  1  0  0  3  0  0  0  0  0  0
  159.3700  202.8880  144.2830 O   0  0  0  0  0  0  0  0  0  0  0  0
  160.1140  200.8110  144.8970 O   0  0  0  0  0  1  0  0  0  0  0  0
  160.0400  202.0410  145.1560 C   0  0  0  0  0  0  0  0  0  0  0  0
  161.7010  200.3770  147.0900 C   0  0  0  0  0  1  0  0  0  0  0  0
  160.8540  201.5640  147.5190 C   0  0  1  0  0  3  0  0  0  0  0  0
  161.4410  202.1830  148.6990 N   0  0  0  0  0  2  0  0  0  0  0  0
  160.3520  202.5460  149.5980 C   0  0  1  0  0  3  0  0  0  0  0  0
  159.9110  201.4120  150.2880 O   0  0  0  0  0  1  0  0  0  0  0  0
  160.7900  203.6470  150.5700 C   0  0  0  0  0  0  0  0  0  0  0  0
  160.6070  203.2080  152.0150 C   0  0  0  0  0  1  0  0  0  0  0  0
  162.1350  203.9500  150.3540 O   0  0  0  0  0  1  0  0  0  0  0  0
  159.9680  204.8980  150.3300 C   0  0  0  0  0  1  0  0  0  0  0  0
  157.7380  213.4940  148.7320 N   0  0  0  0  0  2  0  0  0  0  0  0
  157.5390  213.1130  146.3510 C   0  0  0  0  0  3  0  0  0  0  0  0
  159.6890  213.9390  147.3190 C   0  0  0  0  0  2  0  0  0  0  0  0
  158.4550  213.0610  147.5390 C   0  0  1  0  0  3  0  0  0  0  0  0
  160.3330  213.5530  145.9890 C   0  0  1  0  0  3  0  0  0  0  0  0
  159.3750  213.6500  144.9320 O   0  0  0  0  0  0  0  0  0  0  0  0
  158.0150  213.3710  145.1300 C   0  0  0  0  0  3  0  0  0  0  0  0
  161.5180  214.4530  145.6850 C   0  0  0  0  0  2  0  0  0  0  0  0
  162.1110  214.2070  143.2730 O   0  0  0  0  0  0  0  0  0  0  0  0
  162.3590  213.8750  144.5980 C   0  0  0  0  0  0  0  0  0  0  0  0
  163.3180  213.1120  144.8850 O   0  0  0  0  0  1  0  0  0  0  0  0
  1 14  1  0  0  0  0
  2  8  1  0  0  0  0
  3 12  2  0  0  0  0
  4  7  1  0  0  0  0
  4  2  2  0  0  0  0
  6  5  1  6  0  0  0
  6 13  1  0  0  0  0
  6  3  1  0  0  0  0
  7  5  2  0  0  0  0
  8 13  2  0  0  0  0
  9 10  1  0  0  0  0
 10 14  2  0  0  0  0
 11  1  2  0  0  0  0
 12  9  1  0  0  0  0
 13 15  1  0  0  0  0
 15  9  2  0  0  0  0
 15 11  1  0  0  0  0
 16  3  1  0  0  0  0
 16 17  1  0  0  0  0
 18 17  2  0  0  0  0
 19 18  1  0  0  0  0
 20 21  1  0  0  0  0
 20 19  2  0  0  0  0
 21 16  2  0  0  0  0
 22 20  1  0  0  0  0
 23 22  1  0  0  0  0
 24 23  1  0  0  0  0
 25 24  1  0  0  0  0
 26 27  1  0  0  0  0
 26 25  1  0  0  0  0
 28 27  1  6  0  0  0
 28 33  1  0  0  0  0
 29 31  2  0  0  0  0
 30 31  1  0  0  0  0
 31 28  1  0  0  0  0
 33 32  1  6  0  0  0
 33 34  1  0  0  0  0
 34 35  1  0  0  0  0
 35 36  1  1  0  0  0
 35 37  1  0  0  0  0
 37 38  1  0  0  0  0
 39 37  1  0  0  0  0
 40 37  1  0  0  0  0
 41  4  1  0  0  0  0
 42 44  1  0  0  0  0
 43 44  1  0  0  0  0
 44 41  1  1  0  0  0
 45 48  1  6  0  0  0
 45 43  1  0  0  0  0
 46 47  1  0  0  0  0
 46 45  1  0  0  0  0
 47 42  2  0  0  0  0
 49 50  2  0  0  0  0
 50 51  1  0  0  0  0
 50 48  1  0  0  0  0
M  END
>  <MODEL>
3

>  <REMARK>
 VINA RESULT:      -6.1      4.108     10.209
  Name = 
  17 active torsions:
  status: ('A' for Active; 'I' for Inactive)
    1  A    between atoms: C_4  and  C_5
    2  A    between atoms: C_8  and  C_24
    3  A    between atoms: C_8  and  N_51
    4  A    between atoms: C_10  and  N_33
    5  A    between atoms: C_18  and  C_19
    6  A    between atoms: C_18  and  C_48
    7  A    between atoms: C_19  and  O_45
    8  A    between atoms: C_21  and  N_33
    9  A    between atoms: C_22  and  C_48
   10  A    between atoms: C_22  and  N_51
   11  A    between atoms: C_26  and  C_31
   12  A    between atoms: C_27  and  N_50
   13  A    between atoms: C_29  and  C_31
   14  A    between atoms: C_39  and  C_44
   15  A    between atoms: C_39  and  N_50
   16  A    between atoms: C_44  and  O_45
   17  A    between atoms: C_48  and  C_49
                            x       y       z     vdW  Elec       q    Type
                         _______ _______ _______ _____ _____    ______ ____

>  <TORSDO>
F 17

$$$$
=
 OpenBabel11042420173D

 51 55  0  0  1  0  0  0  0  0999 V2000
  159.4220  212.0680  156.4220 N   0  0  0  0  0  0  0  0  0  0  0  0
  159.6660  213.0250  150.7870 C   0  0  0  0  0  3  0  0  0  0  0  0
  160.7970  209.0830  152.5570 C   0  0  0  0  0  0  0  0  0  0  0  0
  160.6600  212.6870  149.9440 C   0  0  0  0  0  0  0  0  0  0  0  0
  161.8450  210.9190  151.2450 C   0  0  0  0  0  3  0  0  0  0  0  0
  160.5820  210.4280  151.8780 C   0  0  2  0  0  3  0  0  0  0  0  0
  161.8490  211.9130  150.3570 C   0  0  0  0  0  3  0  0  0  0  0  0
  159.5330  212.6410  152.2070 C   0  0  0  0  0  3  0  0  0  0  0  0
  160.2540  210.0570  154.7550 C   0  0  0  0  0  0  0  0  0  0  0  0
  160.1760  209.8630  156.1330 C   0  0  0  0  0  3  0  0  0  0  0  0
  159.4750  212.3070  155.0860 C   0  0  0  0  0  3  0  0  0  0  0  0
  160.6630  208.9500  153.8850 C   0  0  0  0  0  3  0  0  0  0  0  0
  159.9840  211.5040  152.7540 C   0  0  0  0  0  0  0  0  0  0  0  0
  159.7630  210.8830  156.9300 N   0  0  0  0  0  0  0  0  0  0  0  0
  159.8940  211.2950  154.2150 C   0  0  0  0  0  0  0  0  0  0  0  0
  161.1350  207.8870  151.7370 C   0  0  0  0  0  0  0  0  0  0  0  0
  161.6370  206.7260  152.3450 C   0  0  0  0  0  3  0  0  0  0  0  0
  161.9610  205.6030  151.5800 C   0  0  0  0  0  3  0  0  0  0  0  0
  161.7920  205.6280  150.1950 C   0  0  0  0  0  3  0  0  0  0  0  0
  161.3000  206.7750  149.5680 C   0  0  0  0  0  0  0  0  0  0  0  0
  160.9730  207.9000  150.3400 C   0  0  0  0  0  3  0  0  0  0  0  0
  161.1420  206.7820  148.1470 N   0  0  0  0  0  2  0  0  0  0  0  0
  162.2670  206.8680  147.2280 C   0  0  0  0  0  2  0  0  0  0  0  0
  162.3750  205.5850  146.4260 C   0  0  0  0  0  2  0  0  0  0  0  0
  161.8620  205.7820  145.1440 O   0  0  0  0  0  0  0  0  0  0  0  0
  161.3530  204.5380  144.7750 C   0  0  0  0  0  2  0  0  0  0  0  0
  161.7140  203.5060  145.8320 C   0  0  0  0  0  2  0  0  0  0  0  0
  160.5480  202.5730  146.1860 C   0  0  1  0  0  3  0  0  0  0  0  0
  159.1220  202.5320  144.1380 O   0  0  0  0  0  0  0  0  0  0  0  0
  160.2160  200.6350  144.8080 O   0  0  0  0  0  1  0  0  0  0  0  0
  159.9620  201.8510  145.0100 C   0  0  0  0  0  0  0  0  0  0  0  0
  161.6590  200.4920  147.1570 C   0  0  0  0  0  1  0  0  0  0  0  0
  160.7530  201.6830  147.4230 C   0  0  1  0  0  3  0  0  0  0  0  0
  161.2780  202.4600  148.5360 N   0  0  0  0  0  2  0  0  0  0  0  0
  160.2640  202.4770  149.5830 C   0  0  1  0  0  3  0  0  0  0  0  0
  159.1470  201.7430  149.1710 O   0  0  0  0  0  1  0  0  0  0  0  0
  160.8280  201.9300  150.8990 C   0  0  0  0  0  0  0  0  0  0  0  0
  160.2910  202.7050  152.0920 C   0  0  0  0  0  1  0  0  0  0  0  0
  160.4750  200.5860  151.0340 O   0  0  0  0  0  1  0  0  0  0  0  0
  162.3410  202.0320  150.8880 C   0  0  0  0  0  1  0  0  0  0  0  0
  160.6520  213.1950  148.6050 N   0  0  0  0  0  2  0  0  0  0  0  0
  158.4990  212.7250  147.6050 C   0  0  0  0  0  3  0  0  0  0  0  0
  160.5030  213.1000  146.1610 C   0  0  0  0  0  2  0  0  0  0  0  0
  159.9840  212.5400  147.4870 C   0  0  1  0  0  3  0  0  0  0  0  0
  159.6830  212.4980  145.0210 C   0  0  1  0  0  3  0  0  0  0  0  0
  158.2910  212.7450  145.2330 O   0  0  0  0  0  0  0  0  0  0  0  0
  157.7280  212.7930  146.5170 C   0  0  0  0  0  3  0  0  0  0  0  0
  160.1060  213.0870  143.6870 C   0  0  0  0  0  2  0  0  0  0  0  0
  160.4000  211.0840  142.2280 O   0  0  0  0  0  0  0  0  0  0  0  0
  160.9720  212.1330  142.9360 C   0  0  0  0  0  0  0  0  0  0  0  0
  162.2190  212.2980  142.9160 O   0  0  0  0  0  1  0  0  0  0  0  0
  1 14  1  0  0  0  0
  2  8  1  0  0  0  0
  3 12  2  0  0  0  0
  4  7  1  0  0  0  0
  4  2  2  0  0  0  0
  6  5  1  1  0  0  0
  6  3  1  0  0  0  0
  6 13  1  0  0  0  0
  7  5  2  0  0  0  0
  8 13  2  0  0  0  0
  9 10  1  0  0  0  0
 10 14  2  0  0  0  0
 11  1  2  0  0  0  0
 12  9  1  0  0  0  0
 13 15  1  0  0  0  0
 15  9  2  0  0  0  0
 15 11  1  0  0  0  0
 16 17  1  0  0  0  0
 16  3  1  0  0  0  0
 18 17  2  0  0  0  0
 19 18  1  0  0  0  0
 20 19  2  0  0  0  0
 20 21  1  0  0  0  0
 21 16  2  0  0  0  0
 22 20  1  0  0  0  0
 23 22  1  0  0  0  0
 24 23  1  0  0  0  0
 25 24  1  0  0  0  0
 26 25  1  0  0  0  0
 26 27  1  0  0  0  0
 28 27  1  6  0  0  0
 28 33  1  0  0  0  0
 29 31  2  0  0  0  0
 30 31  1  0  0  0  0
 31 28  1  0  0  0  0
 33 32  1  6  0  0  0
 33 34  1  0  0  0  0
 34 35  1  0  0  0  0
 35 36  1  6  0  0  0
 35 37  1  0  0  0  0
 37 39  1  0  0  0  0
 37 38  1  0  0  0  0
 40 37  1  0  0  0  0
 41  4  1  0  0  0  0
 43 44  1  0  0  0  0
 44 42  1  0  0  0  0
 44 41  1  1  0  0  0
 45 48  1  6  0  0  0
 45 46  1  0  0  0  0
 45 43  1  0  0  0  0
 46 47  1  0  0  0  0
 47 42  2  0  0  0  0
 49 50  2  0  0  0  0
 50 48  1  0  0  0  0
 51 50  1  0  0  0  0
M  END
>  <MODEL>
4

>  <REMARK>
 VINA RESULT:      -5.7      3.770      9.977
  Name = 
  17 active torsions:
  status: ('A' for Active; 'I' for Inactive)
    1  A    between atoms: C_4  and  C_5
    2  A    between atoms: C_8  and  C_24
    3  A    between atoms: C_8  and  N_51
    4  A    between atoms: C_10  and  N_33
    5  A    between atoms: C_18  and  C_19
    6  A    between atoms: C_18  and  C_48
    7  A    between atoms: C_19  and  O_45
    8  A    between atoms: C_21  and  N_33
    9  A    between atoms: C_22  and  C_48
   10  A    between atoms: C_22  and  N_51
   11  A    between atoms: C_26  and  C_31
   12  A    between atoms: C_27  and  N_50
   13  A    between atoms: C_29  and  C_31
   14  A    between atoms: C_39  and  C_44
   15  A    between atoms: C_39  and  N_50
   16  A    between atoms: C_44  and  O_45
   17  A    between atoms: C_48  and  C_49
                            x       y       z     vdW  Elec       q    Type
                         _______ _______ _______ _____ _____    ______ ____

>  <TORSDO>
F 17

$$$$
=
 OpenBabel11042420173D

 51 55  0  0  1  0  0  0  0  0999 V2000
  157.8100  212.8440  157.2600 N   0  0  0  0  0  0  0  0  0  0  0  0
  161.6640  210.6500  153.6470 C   0  0  0  0  0  3  0  0  0  0  0  0
  158.2440  213.1400  152.2140 C   0  0  0  0  0  0  0  0  0  0  0  0
  161.4250  210.0340  152.4740 C   0  0  0  0  0  0  0  0  0  0  0  0
  159.1190  210.8260  151.9500 C   0  0  0  0  0  3  0  0  0  0  0  0
  159.3460  212.1600  152.5860 C   0  0  2  0  0  3  0  0  0  0  0  0
  160.0760  209.9010  151.8850 C   0  0  0  0  0  3  0  0  0  0  0  0
  160.6840  211.3520  154.5000 C   0  0  0  0  0  3  0  0  0  0  0  0
  157.5580  213.3300  154.5740 C   0  0  0  0  0  0  0  0  0  0  0  0
  156.6430  213.8500  155.4880 C   0  0  0  0  0  3  0  0  0  0  0  0
  158.7320  212.3190  156.4130 C   0  0  0  0  0  3  0  0  0  0  0  0
  157.4210  213.6410  153.1480 C   0  0  0  0  0  3  0  0  0  0  0  0
  159.5920  211.9960  154.0670 C   0  0  0  0  0  0  0  0  0  0  0  0
  156.7960  213.5870  156.8120 N   0  0  0  0  0  0  0  0  0  0  0  0
  158.6250  212.5550  155.0370 C   0  0  0  0  0  0  0  0  0  0  0  0
  158.0860  213.5730  150.7980 C   0  0  0  0  0  0  0  0  0  0  0  0
  156.8500  214.0480  150.3330 C   0  0  0  0  0  3  0  0  0  0  0  0
  156.6960  214.4510  149.0040 C   0  0  0  0  0  3  0  0  0  0  0  0
  157.7740  214.3780  148.1210 C   0  0  0  0  0  3  0  0  0  0  0  0
  159.0120  213.9020  148.5610 C   0  0  0  0  0  0  0  0  0  0  0  0
  159.1640  213.5010  149.8970 C   0  0  0  0  0  3  0  0  0  0  0  0
  160.1000  213.8280  147.6380 N   0  0  0  0  0  2  0  0  0  0  0  0
  161.4900  213.9770  148.0420 C   0  0  0  0  0  2  0  0  0  0  0  0
  162.2270  212.6670  147.8400 C   0  0  0  0  0  2  0  0  0  0  0  0
  163.0010  212.7310  146.6810 O   0  0  0  0  0  0  0  0  0  0  0  0
  162.3040  213.5990  145.8420 C   0  0  0  0  0  2  0  0  0  0  0  0
  162.7560  213.3910  144.4040 C   0  0  0  0  0  2  0  0  0  0  0  0
  161.6580  212.8050  143.5070 C   0  0  1  0  0  3  0  0  0  0  0  0
  159.4400  213.8870  143.8810 O   0  0  0  0  0  0  0  0  0  0  0  0
  159.9090  211.8710  144.8620 O   0  0  0  0  0  1  0  0  0  0  0  0
  160.2910  212.8160  144.1240 C   0  0  0  0  0  0  0  0  0  0  0  0
  163.0480  213.7390  141.5820 C   0  0  0  0  0  1  0  0  0  0  0  0
  161.6800  213.2570  142.0380 C   0  0  1  0  0  3  0  0  0  0  0  0
  161.2210  212.1890  141.1620 N   0  0  0  0  0  2  0  0  0  0  0  0
  162.2830  211.9130  140.2020 C   0  0  1  0  0  3  0  0  0  0  0  0
  162.9220  210.7150  140.5360 O   0  0  0  0  0  1  0  0  0  0  0  0
  161.7290  211.8620  138.7740 C   0  0  0  0  0  0  0  0  0  0  0  0
  162.6590  212.5650  137.7980 C   0  0  0  0  0  1  0  0  0  0  0  0
  161.5770  210.5310  138.3810 O   0  0  0  0  0  1  0  0  0  0  0  0
  160.3710  212.5360  138.7290 C   0  0  0  0  0  1  0  0  0  0  0  0
  162.4940  209.3560  151.8030 N   0  0  0  0  0  2  0  0  0  0  0  0
  161.6750  207.1470  152.3550 C   0  0  0  0  0  3  0  0  0  0  0  0
  161.7590  207.9010  149.9750 C   0  0  0  0  0  2  0  0  0  0  0  0
  162.4260  207.9720  151.3500 C   0  0  1  0  0  3  0  0  0  0  0  0
  161.5750  206.4320  149.5960 C   0  0  1  0  0  3  0  0  0  0  0  0
  160.8410  205.7500  150.6160 O   0  0  0  0  0  0  0  0  0  0  0  0
  160.9560  206.0890  151.9720 C   0  0  0  0  0  3  0  0  0  0  0  0
  160.8420  206.3070  148.2730 C   0  0  0  0  0  2  0  0  0  0  0  0
  161.5580  203.9240  148.0770 O   0  0  0  0  0  1  0  0  0  0  0  0
  161.3730  205.1630  147.4770 C   0  0  0  0  0  0  0  0  0  0  0  0
  161.6220  205.3110  146.2530 O   0  0  0  0  0  0  0  0  0  0  0  0
  2  8  1  0  0  0  0
  3  6  1  0  0  0  0
  3 12  2  0  0  0  0
  4  2  2  0  0  0  0
  6  5  1  1  0  0  0
  6 13  1  0  0  0  0
  7  5  2  0  0  0  0
  7  4  1  0  0  0  0
  9 15  2  0  0  0  0
  9 10  1  0  0  0  0
 10 14  2  0  0  0  0
 11  1  2  0  0  0  0
 12  9  1  0  0  0  0
 13  8  2  0  0  0  0
 13 15  1  0  0  0  0
 14  1  1  0  0  0  0
 15 11  1  0  0  0  0
 16  3  1  0  0  0  0
 17 16  1  0  0  0  0
 18 17  2  0  0  0  0
 19 20  2  0  0  0  0
 19 18  1  0  0  0  0
 20 21  1  0  0  0  0
 21 16  2  0  0  0  0
 22 23  1  0  0  0  0
 22 20  1  0  0  0  0
 24 23  1  0  0  0  0
 25 24  1  0  0  0  0
 26 25  1  0  0  0  0
 27 26  1  0  0  0  0
 28 31  1  0  0  0  0
 28 27  1  1  0  0  0
 29 31  2  0  0  0  0
 31 30  1  0  0  0  0
 33 32  1  6  0  0  0
 33 28  1  0  0  0  0
 34 33  1  0  0  0  0
 35 36  1  1  0  0  0
 35 34  1  0  0  0  0
 37 35  1  0  0  0  0
 38 37  1  0  0  0  0
 39 37  1  0  0  0  0
 40 37  1  0  0  0  0
 41  4  1  0  0  0  0
 43 44  1  0  0  0  0
 44 41  1  1  0  0  0
 44 42  1  0  0  0  0
 45 48  1  6  0  0  0
 45 43  1  0  0  0  0
 45 46  1  0  0  0  0
 46 47  1  0  0  0  0
 47 42  2  0  0  0  0
 50 49  1  0  0  0  0
 50 48  1  0  0  0  0
 51 50  2  0  0  0  0
M  END
>  <MODEL>
5

>  <REMARK>
 VINA RESULT:      -5.4      3.365      6.686
  Name = 
  17 active torsions:
  status: ('A' for Active; 'I' for Inactive)
    1  A    between atoms: C_4  and  C_5
    2  A    between atoms: C_8  and  C_24
    3  A    between atoms: C_8  and  N_51
    4  A    between atoms: C_10  and  N_33
    5  A    between atoms: C_18  and  C_19
    6  A    between atoms: C_18  and  C_48
    7  A    between atoms: C_19  and  O_45
    8  A    between atoms: C_21  and  N_33
    9  A    between atoms: C_22  and  C_48
   10  A    between atoms: C_22  and  N_51
   11  A    between atoms: C_26  and  C_31
   12  A    between atoms: C_27  and  N_50
   13  A    between atoms: C_29  and  C_31
   14  A    between atoms: C_39  and  C_44
   15  A    between atoms: C_39  and  N_50
   16  A    between atoms: C_44  and  O_45
   17  A    between atoms: C_48  and  C_49
                            x       y       z     vdW  Elec       q    Type
                         _______ _______ _______ _____ _____    ______ ____

>  <TORSDO>
F 17

$$$$
