=
 OpenBabel11042420443D

 27 30  0  0  1  0  0  0  0  0999 V2000
  161.5960  204.1810  151.1180 C   0  0  2  0  0  3  0  0  0  0  0  0
  160.8650  211.0110  153.3080 C   0  0  0  0  0  3  0  0  0  0  0  0
  161.0450  207.3870  153.2800 O   0  0  0  0  0  0  0  0  0  0  0  0
  161.2220  206.3280  152.3830 C   0  0  0  0  0  0  0  0  0  0  0  0
  161.5620  206.5560  151.1310 C   0  0  0  0  0  0  0  0  0  0  0  0
  161.0010  209.7760  153.8140 C   0  0  0  0  0  0  0  0  0  0  0  0
  161.5600  210.3690  151.0390 C   0  0  0  0  0  0  0  0  0  0  0  0
  160.9740  204.6140  152.7940 S   0  0  0  0  0  0  0  0  0  0  0  0
  161.2060  211.3220  151.9050 C   0  0  0  0  0  3  0  0  0  0  0  0
  161.6570  207.9350  150.6210 C   0  0  0  0  0  3  0  0  0  0  0  0
  161.6110  208.6710  152.9820 C   0  0  2  0  0  3  0  0  0  0  0  0
  161.5960  208.9600  151.4890 C   0  0  0  0  0  0  0  0  0  0  0  0
  161.7020  205.3990  150.3250 N   0  0  0  0  0  2  0  0  0  0  0  0
  159.7520  210.5820  155.8840 C   0  0  0  0  0  2  0  0  0  0  0  0
  160.6440  209.5240  155.2530 C   0  0  0  0  0  0  0  0  0  0  0  0
  159.1780  209.2240  155.5090 C   0  0  0  0  0  2  0  0  0  0  0  0
  161.6660  208.8080  156.1540 C   0  0  2  0  0  3  0  0  0  0  0  0
  161.0070  207.6670  156.9120 C   0  0  0  0  0  1  0  0  0  0  0  0
  163.2560  210.6420  156.4000 N   0  0  0  0  0  1  0  0  0  0  0  0
  162.3990  209.7240  157.1310 C   0  0  0  0  0  2  0  0  0  0  0  0
  162.0580  211.0270  148.5750 N   0  0  0  0  0  0  0  0  0  0  0  0
  161.8360  210.7320  149.6730 C   0  0  0  0  0  0  0  0  0  0  0  0
  160.7000  203.1510  150.4390 C   0  0  0  0  0  2  0  0  0  0  0  0
  161.0680  202.4010  146.8660 O   0  0  0  0  0  0  0  0  0  0  0  0
  161.0080  202.2060  148.1100 C   0  0  0  0  0  0  0  0  0  0  0  0
  160.7230  203.3010  148.9870 N   0  0  0  0  0  2  0  0  0  0  0  0
  161.2470  200.8340  148.6500 C   0  0  0  0  0  1  0  0  0  0  0  0
  1 23  1  6  0  0  0
  1  8  1  0  0  0  0
  2  6  2  0  0  0  0
  4  8  1  0  0  0  0
  4  3  1  0  0  0  0
  5  4  2  0  0  0  0
  6 15  1  0  0  0  0
  7 12  1  0  0  0  0
  7  9  2  0  0  0  0
  9  2  1  0  0  0  0
 10  5  1  0  0  0  0
 10 12  2  0  0  0  0
 11 12  1  6  0  0  0
 11  3  1  0  0  0  0
 11  6  1  0  0  0  0
 13  1  1  0  0  0  0
 13  5  1  0  0  0  0
 15 16  1  0  0  0  0
 15 14  1  0  0  0  0
 15 17  1  0  0  0  0
 16 14  1  0  0  0  0
 17 18  1  1  0  0  0
 17 20  1  0  0  0  0
 19 20  1  0  0  0  0
 21 22  3  0  0  0  0
 22  7  1  0  0  0  0
 24 25  2  0  0  0  0
 25 27  1  0  0  0  0
 25 26  1  0  0  0  0
 26 23  1  0  0  0  0
M  END
>  <MODEL>
1

>  <REMARK>
 VINA RESULT:      -6.4      0.000      0.000
  Name = 
  6 active torsions:
  status: ('A' for Active; 'I' for Inactive)
    1  A    between atoms: C_1  and  C_22
    2  A    between atoms: C_5  and  C_9
    3  A    between atoms: C_5  and  C_20
    4  A    between atoms: C_9  and  C_15
    5  A    between atoms: N_10  and  C_22
    6  A    between atoms: C_14  and  C_16
                            x       y       z     vdW  Elec       q    Type
                         _______ _______ _______ _____ _____    ______ ____

>  <TORSDO>
F 6

$$$$
=
 OpenBabel11042420443D

 27 30  0  0  1  0  0  0  0  0999 V2000
  161.3800  209.0340  150.3530 C   0  0  2  0  0  3  0  0  0  0  0  0
  161.3270  202.5150  147.2720 C   0  0  0  0  0  3  0  0  0  0  0  0
  161.1960  205.1820  149.7300 O   0  0  0  0  0  0  0  0  0  0  0  0
  161.3190  206.5730  149.8110 C   0  0  0  0  0  0  0  0  0  0  0  0
  161.3880  207.3080  148.7210 C   0  0  0  0  0  0  0  0  0  0  0  0
  161.0500  203.1020  148.4470 C   0  0  0  0  0  0  0  0  0  0  0  0
  161.3870  204.6240  146.0110 C   0  0  0  0  0  0  0  0  0  0  0  0
  161.4400  207.4810  151.3380 S   0  0  0  0  0  0  0  0  0  0  0  0
  161.4420  203.2890  146.0210 C   0  0  0  0  0  3  0  0  0  0  0  0
  161.4480  206.6720  147.3930 C   0  0  0  0  0  3  0  0  0  0  0  0
  160.7420  204.5810  148.5090 C   0  0  2  0  0  3  0  0  0  0  0  0
  161.2240  205.3500  147.2890 C   0  0  0  0  0  0  0  0  0  0  0  0
  161.5190  208.7010  148.9400 N   0  0  0  0  0  2  0  0  0  0  0  0
  159.7040  201.3710  149.7450 C   0  0  0  0  0  2  0  0  0  0  0  0
  160.9380  202.2570  149.6860 C   0  0  0  0  0  0  0  0  0  0  0  0
  161.0690  200.7620  149.4590 C   0  0  0  0  0  2  0  0  0  0  0  0
  161.4970  202.8090  151.0100 C   0  0  2  0  0  3  0  0  0  0  0  0
  162.4470  201.8100  151.6500 C   0  0  0  0  0  1  0  0  0  0  0  0
  160.9510  204.2860  152.8740 N   0  0  0  0  0  1  0  0  0  0  0  0
  160.4320  203.2300  152.0200 C   0  0  0  0  0  2  0  0  0  0  0  0
  161.6870  205.8820  143.7560 N   0  0  0  0  0  0  0  0  0  0  0  0
  161.5520  205.3220  144.7620 C   0  0  0  0  0  0  0  0  0  0  0  0
  162.4540  210.0200  150.8010 C   0  0  0  0  0  2  0  0  0  0  0  0
  161.7720  210.7080  154.3400 O   0  0  0  0  0  0  0  0  0  0  0  0
  161.5910  210.6650  153.0920 C   0  0  0  0  0  0  0  0  0  0  0  0
  162.5760  210.0480  152.2550 N   0  0  0  0  0  2  0  0  0  0  0  0
  160.3570  211.2680  152.5070 C   0  0  0  0  0  1  0  0  0  0  0  0
  1 23  1  1  0  0  0
  1  8  1  0  0  0  0
  2  6  2  0  0  0  0
  3  4  1  0  0  0  0
  4  8  1  0  0  0  0
  5 13  1  0  0  0  0
  5  4  2  0  0  0  0
  6 11  1  0  0  0  0
  6 15  1  0  0  0  0
  7  9  2  0  0  0  0
  7 12  1  0  0  0  0
  9  2  1  0  0  0  0
 10  5  1  0  0  0  0
 11 12  1  6  0  0  0
 11  3  1  0  0  0  0
 12 10  2  0  0  0  0
 13  1  1  0  0  0  0
 15 14  1  0  0  0  0
 15 17  1  0  0  0  0
 16 15  1  0  0  0  0
 16 14  1  0  0  0  0
 17 18  1  1  0  0  0
 17 20  1  0  0  0  0
 20 19  1  0  0  0  0
 21 22  3  0  0  0  0
 22  7  1  0  0  0  0
 23 26  1  0  0  0  0
 25 24  2  0  0  0  0
 26 25  1  0  0  0  0
 27 25  1  0  0  0  0
M  END
>  <MODEL>
2

>  <REMARK>
 VINA RESULT:      -6.3      2.723      7.778
  Name = 
  6 active torsions:
  status: ('A' for Active; 'I' for Inactive)
    1  A    between atoms: C_1  and  C_22
    2  A    between atoms: C_5  and  C_9
    3  A    between atoms: C_5  and  C_20
    4  A    between atoms: C_9  and  C_15
    5  A    between atoms: N_10  and  C_22
    6  A    between atoms: C_14  and  C_16
                            x       y       z     vdW  Elec       q    Type
                         _______ _______ _______ _____ _____    ______ ____

>  <TORSDO>
F 6

$$$$
=
 OpenBabel11042420443D

 27 30  0  0  1  0  0  0  0  0999 V2000
  160.5630  208.7860  155.3020 C   0  0  2  0  0  3  0  0  0  0  0  0
  161.7470  205.7590  148.8660 C   0  0  0  0  0  3  0  0  0  0  0  0
  160.9490  206.2280  152.3750 O   0  0  0  0  0  0  0  0  0  0  0  0
  160.8840  207.2440  153.3340 C   0  0  0  0  0  0  0  0  0  0  0  0
  161.0090  208.5080  152.9860 C   0  0  0  0  0  0  0  0  0  0  0  0
  161.2410  205.4540  150.0710 C   0  0  0  0  0  0  0  0  0  0  0  0
  161.7140  208.1860  149.2510 C   0  0  0  0  0  0  0  0  0  0  0  0
  160.6820  206.9640  155.0800 S   0  0  0  0  0  0  0  0  0  0  0  0
  161.9340  207.1560  148.4290 C   0  0  0  0  0  3  0  0  0  0  0  0
  161.3280  208.8720  151.5940 C   0  0  0  0  0  3  0  0  0  0  0  0
  160.7440  206.5450  150.9910 C   0  0  2  0  0  3  0  0  0  0  0  0
  161.2880  207.9230  150.6420 C   0  0  0  0  0  0  0  0  0  0  0  0
  160.9330  209.4380  154.0520 N   0  0  0  0  0  2  0  0  0  0  0  0
  162.0640  203.4980  151.4820 C   0  0  0  0  0  2  0  0  0  0  0  0
  161.0670  204.0100  150.4550 C   0  0  0  0  0  0  0  0  0  0  0  0
  160.6230  203.7740  151.8870 C   0  0  0  0  0  2  0  0  0  0  0  0
  160.5470  203.0200  149.3960 C   0  0  2  0  0  3  0  0  0  0  0  0
  160.5260  201.6040  149.9480 C   0  0  0  0  0  1  0  0  0  0  0  0
  160.9630  201.8840  147.2770 N   0  0  0  0  0  1  0  0  0  0  0  0
  161.3100  203.0500  148.0740 C   0  0  0  0  0  2  0  0  0  0  0  0
  162.1580  210.6000  148.3970 N   0  0  0  0  0  0  0  0  0  0  0  0
  161.9590  209.5240  148.7770 C   0  0  0  0  0  0  0  0  0  0  0  0
  161.4330  209.2650  156.4590 C   0  0  0  0  0  2  0  0  0  0  0  0
  160.6640  212.8430  156.7310 O   0  0  0  0  0  0  0  0  0  0  0  0
  160.5030  211.5940  156.8080 C   0  0  0  0  0  0  0  0  0  0  0  0
  161.5770  210.7180  156.4490 N   0  0  0  0  0  2  0  0  0  0  0  0
  159.1880  211.0500  157.2610 C   0  0  0  0  0  1  0  0  0  0  0  0
  1 23  1  1  0  0  0
  2  6  2  0  0  0  0
  3  4  1  0  0  0  0
  4  8  1  0  0  0  0
  5  4  2  0  0  0  0
  5 13  1  0  0  0  0
  6 15  1  0  0  0  0
  7 12  1  0  0  0  0
  8  1  1  0  0  0  0
  9  2  1  0  0  0  0
  9  7  2  0  0  0  0
 10  5  1  0  0  0  0
 11  6  1  6  0  0  0
 11  3  1  0  0  0  0
 12 11  1  0  0  0  0
 12 10  2  0  0  0  0
 13  1  1  0  0  0  0
 14 16  1  0  0  0  0
 15 14  1  0  0  0  0
 15 16  1  0  0  0  0
 17 18  1  1  0  0  0
 17 15  1  0  0  0  0
 19 20  1  0  0  0  0
 20 17  1  0  0  0  0
 21 22  3  0  0  0  0
 22  7  1  0  0  0  0
 24 25  2  0  0  0  0
 25 27  1  0  0  0  0
 26 23  1  0  0  0  0
 26 25  1  0  0  0  0
M  END
>  <MODEL>
3

>  <REMARK>
 VINA RESULT:      -6.3      2.163      7.694
  Name = 
  6 active torsions:
  status: ('A' for Active; 'I' for Inactive)
    1  A    between atoms: C_1  and  C_22
    2  A    between atoms: C_5  and  C_9
    3  A    between atoms: C_5  and  C_20
    4  A    between atoms: C_9  and  C_15
    5  A    between atoms: N_10  and  C_22
    6  A    between atoms: C_14  and  C_16
                            x       y       z     vdW  Elec       q    Type
                         _______ _______ _______ _____ _____    ______ ____

>  <TORSDO>
F 6

$$$$
=
 OpenBabel11042420443D

 27 30  0  0  1  0  0  0  0  0999 V2000
  162.3380  211.0410  149.3640 C   0  0  2  0  0  3  0  0  0  0  0  0
  160.8670  204.6130  152.2810 C   0  0  0  0  0  3  0  0  0  0  0  0
  161.6300  207.2350  149.8910 O   0  0  0  0  0  0  0  0  0  0  0  0
  161.8290  208.6190  149.8450 C   0  0  0  0  0  0  0  0  0  0  0  0
  161.9190  209.3250  150.9530 C   0  0  0  0  0  0  0  0  0  0  0  0
  161.2830  205.1480  151.1230 C   0  0  0  0  0  0  0  0  0  0  0  0
  161.2770  206.6500  153.5950 C   0  0  0  0  0  0  0  0  0  0  0  0
  161.9350  209.5660  148.3410 S   0  0  0  0  0  0  0  0  0  0  0  0
  160.9190  205.3630  153.5510 C   0  0  0  0  0  3  0  0  0  0  0  0
  161.7010  208.6890  152.2640 C   0  0  0  0  0  3  0  0  0  0  0  0
  161.9220  206.5180  151.0990 C   0  0  2  0  0  3  0  0  0  0  0  0
  161.6160  207.3480  152.3360 C   0  0  0  0  0  0  0  0  0  0  0  0
  162.1120  210.7160  150.7680 N   0  0  0  0  0  2  0  0  0  0  0  0
  161.5650  202.8600  150.0360 C   0  0  0  0  0  2  0  0  0  0  0  0
  161.2120  204.3290  149.8630 C   0  0  0  0  0  0  0  0  0  0  0  0
  160.1150  203.2790  149.8400 C   0  0  0  0  0  2  0  0  0  0  0  0
  161.5540  205.0030  148.5220 C   0  0  2  0  0  3  0  0  0  0  0  0
  160.3670  205.7970  148.0010 C   0  0  0  0  0  1  0  0  0  0  0  0
  162.8180  204.7790  146.4480 N   0  0  0  0  0  1  0  0  0  0  0  0
  162.0510  204.0460  147.4420 C   0  0  0  0  0  2  0  0  0  0  0  0
  161.2510  207.8920  155.8770 N   0  0  0  0  0  0  0  0  0  0  0  0
  161.2630  207.3370  154.8600 C   0  0  0  0  0  0  0  0  0  0  0  0
  161.5240  212.2570  148.9360 C   0  0  0  0  0  2  0  0  0  0  0  0
  161.9950  213.4580  145.5010 O   0  0  0  0  0  0  0  0  0  0  0  0
  161.4260  212.9380  146.5000 C   0  0  0  0  0  0  0  0  0  0  0  0
  162.1040  212.8970  147.7600 N   0  0  0  0  0  2  0  0  0  0  0  0
  160.0570  212.3630  146.3470 C   0  0  0  0  0  1  0  0  0  0  0  0
  1 23  1  6  0  0  0
  1 13  1  0  0  0  0
  2  9  1  0  0  0  0
  4  3  1  0  0  0  0
  4  5  2  0  0  0  0
  5 10  1  0  0  0  0
  6  2  2  0  0  0  0
  7 22  1  0  0  0  0
  8  1  1  0  0  0  0
  8  4  1  0  0  0  0
  9  7  2  0  0  0  0
 10 12  2  0  0  0  0
 11  3  1  6  0  0  0
 11  6  1  0  0  0  0
 11 12  1  0  0  0  0
 12  7  1  0  0  0  0
 13  5  1  0  0  0  0
 15 14  1  0  0  0  0
 15  6  1  0  0  0  0
 16 15  1  0  0  0  0
 16 14  1  0  0  0  0
 17 18  1  6  0  0  0
 17 15  1  0  0  0  0
 19 20  1  0  0  0  0
 20 17  1  0  0  0  0
 22 21  3  0  0  0  0
 24 25  2  0  0  0  0
 25 26  1  0  0  0  0
 26 23  1  0  0  0  0
 27 25  1  0  0  0  0
M  END
>  <MODEL>
4

>  <REMARK>
 VINA RESULT:      -6.2      3.144      7.710
  Name = 
  6 active torsions:
  status: ('A' for Active; 'I' for Inactive)
    1  A    between atoms: C_1  and  C_22
    2  A    between atoms: C_5  and  C_9
    3  A    between atoms: C_5  and  C_20
    4  A    between atoms: C_9  and  C_15
    5  A    between atoms: N_10  and  C_22
    6  A    between atoms: C_14  and  C_16
                            x       y       z     vdW  Elec       q    Type
                         _______ _______ _______ _____ _____    ______ ____

>  <TORSDO>
F 6

$$$$
=
 OpenBabel11042420443D

 27 30  0  0  1  0  0  0  0  0999 V2000
  161.3950  209.2500  149.6630 C   0  0  2  0  0  3  0  0  0  0  0  0
  161.3540  202.4570  147.2460 C   0  0  0  0  0  3  0  0  0  0  0  0
  161.2480  205.3540  149.4300 O   0  0  0  0  0  0  0  0  0  0  0  0
  161.3540  206.7470  149.3690 C   0  0  0  0  0  0  0  0  0  0  0  0
  161.3870  207.3710  148.2100 C   0  0  0  0  0  0  0  0  0  0  0  0
  161.0980  203.1550  148.3630 C   0  0  0  0  0  0  0  0  0  0  0  0
  161.3550  204.4310  145.7800 C   0  0  0  0  0  0  0  0  0  0  0  0
  161.5000  207.8040  150.7950 S   0  0  0  0  0  0  0  0  0  0  0  0
  161.4280  203.1050  145.9210 C   0  0  0  0  0  3  0  0  0  0  0  0
  161.4220  206.6070  146.9500 C   0  0  0  0  0  3  0  0  0  0  0  0
  160.7720  204.6290  148.2860 C   0  0  2  0  0  3  0  0  0  0  0  0
  161.2130  205.2790  146.9840 C   0  0  0  0  0  0  0  0  0  0  0  0
  161.5040  208.7810  148.2870 N   0  0  0  0  0  2  0  0  0  0  0  0
  159.8300  201.5130  149.8430 C   0  0  0  0  0  2  0  0  0  0  0  0
  161.0280  202.4360  149.6820 C   0  0  0  0  0  0  0  0  0  0  0  0
  161.2160  200.9320  149.6060 C   0  0  0  0  0  2  0  0  0  0  0  0
  161.5730  203.1400  150.9380 C   0  0  2  0  0  3  0  0  0  0  0  0
  162.3650  202.1680  151.7970 C   0  0  0  0  0  1  0  0  0  0  0  0
  161.1480  204.6990  152.7660 N   0  0  0  0  0  1  0  0  0  0  0  0
  160.5110  203.8340  151.7860 C   0  0  0  0  0  2  0  0  0  0  0  0
  161.5810  205.4650  143.4070 N   0  0  0  0  0  0  0  0  0  0  0  0
  161.4800  205.0030  144.4650 C   0  0  0  0  0  0  0  0  0  0  0  0
  162.4660  210.2880  149.9830 C   0  0  0  0  0  2  0  0  0  0  0  0
  162.0070  213.6200  148.5170 O   0  0  0  0  0  0  0  0  0  0  0  0
  162.4200  212.4340  148.6420 C   0  0  0  0  0  0  0  0  0  0  0  0
  161.9780  211.6440  149.7510 N   0  0  0  0  0  2  0  0  0  0  0  0
  163.3720  211.8780  147.6350 C   0  0  0  0  0  1  0  0  0  0  0  0
  1 23  1  1  0  0  0
  1  8  1  0  0  0  0
  2  6  2  0  0  0  0
  4  3  1  0  0  0  0
  4  8  1  0  0  0  0
  5 13  1  0  0  0  0
  5  4  2  0  0  0  0
  6 15  1  0  0  0  0
  7  9  2  0  0  0  0
  7 12  1  0  0  0  0
  9  2  1  0  0  0  0
 10 12  2  0  0  0  0
 10  5  1  0  0  0  0
 11 12  1  6  0  0  0
 11  6  1  0  0  0  0
 11  3  1  0  0  0  0
 13  1  1  0  0  0  0
 15 14  1  0  0  0  0
 15 17  1  0  0  0  0
 16 15  1  0  0  0  0
 16 14  1  0  0  0  0
 17 20  1  0  0  0  0
 17 18  1  1  0  0  0
 20 19  1  0  0  0  0
 21 22  3  0  0  0  0
 22  7  1  0  0  0  0
 24 25  2  0  0  0  0
 25 26  1  0  0  0  0
 26 23  1  0  0  0  0
 27 25  1  0  0  0  0
M  END
>  <MODEL>
5

>  <REMARK>
 VINA RESULT:      -5.9      4.033      7.905
  Name = 
  6 active torsions:
  status: ('A' for Active; 'I' for Inactive)
    1  A    between atoms: C_1  and  C_22
    2  A    between atoms: C_5  and  C_9
    3  A    between atoms: C_5  and  C_20
    4  A    between atoms: C_9  and  C_15
    5  A    between atoms: N_10  and  C_22
    6  A    between atoms: C_14  and  C_16
                            x       y       z     vdW  Elec       q    Type
                         _______ _______ _______ _____ _____    ______ ____

>  <TORSDO>
F 6

$$$$
=
 OpenBabel11042420443D

 27 30  0  0  1  0  0  0  0  0999 V2000
  162.3530  211.0400  149.3450 C   0  0  2  0  0  3  0  0  0  0  0  0
  160.7720  204.4930  151.9190 C   0  0  0  0  0  3  0  0  0  0  0  0
  161.5820  207.2250  149.6710 O   0  0  0  0  0  0  0  0  0  0  0  0
  161.8040  208.6050  149.6970 C   0  0  0  0  0  0  0  0  0  0  0  0
  161.9020  209.2510  150.8410 C   0  0  0  0  0  0  0  0  0  0  0  0
  161.1990  205.0820  150.7910 C   0  0  0  0  0  0  0  0  0  0  0  0
  161.2120  206.4520  153.3380 C   0  0  0  0  0  0  0  0  0  0  0  0
  161.9280  209.6280  148.2450 S   0  0  0  0  0  0  0  0  0  0  0  0
  160.8330  205.1760  153.2270 C   0  0  0  0  0  3  0  0  0  0  0  0
  161.6720  208.5510  152.1170 C   0  0  0  0  0  3  0  0  0  0  0  0
  161.8600  206.4400  150.8400 C   0  0  2  0  0  3  0  0  0  0  0  0
  161.5650  207.2100  152.1180 C   0  0  0  0  0  0  0  0  0  0  0  0
  162.1190  210.6460  150.7290 N   0  0  0  0  0  2  0  0  0  0  0  0
  160.6640  205.1620  148.3010 C   0  0  0  0  0  2  0  0  0  0  0  0
  161.1180  204.3310  149.4900 C   0  0  0  0  0  0  0  0  0  0  0  0
  162.1250  204.7570  148.4370 C   0  0  0  0  0  2  0  0  0  0  0  0
  160.7350  202.8400  149.5200 C   0  0  2  0  0  3  0  0  0  0  0  0
  161.5000  202.1100  150.6120 C   0  0  0  0  0  1  0  0  0  0  0  0
  161.2030  200.7100  148.4260 N   0  0  0  0  0  1  0  0  0  0  0  0
  160.9130  202.1150  148.1890 C   0  0  0  0  0  2  0  0  0  0  0  0
  161.2010  207.5740  155.6820 N   0  0  0  0  0  0  0  0  0  0  0  0
  161.2060  207.0720  154.6370 C   0  0  0  0  0  0  0  0  0  0  0  0
  161.5590  212.2900  148.9800 C   0  0  0  0  0  2  0  0  0  0  0  0
  162.4500  213.9120  145.8110 O   0  0  0  0  0  0  0  0  0  0  0  0
  161.7760  213.2500  146.6470 C   0  0  0  0  0  0  0  0  0  0  0  0
  162.2620  213.0940  147.9850 N   0  0  0  0  0  2  0  0  0  0  0  0
  160.4860  212.6290  146.2230 C   0  0  0  0  0  1  0  0  0  0  0  0
  1 23  1  6  0  0  0
  1 13  1  0  0  0  0
  2  9  1  0  0  0  0
  3  4  1  0  0  0  0
  4  5  2  0  0  0  0
  5 10  1  0  0  0  0
  6 11  1  0  0  0  0
  6  2  2  0  0  0  0
  7 22  1  0  0  0  0
  8  1  1  0  0  0  0
  8  4  1  0  0  0  0
  9  7  2  0  0  0  0
 10 12  2  0  0  0  0
 11  3  1  6  0  0  0
 11 12  1  0  0  0  0
 12  7  1  0  0  0  0
 13  5  1  0  0  0  0
 14 16  1  0  0  0  0
 14 15  1  0  0  0  0
 15 17  1  0  0  0  0
 15  6  1  0  0  0  0
 16 15  1  0  0  0  0
 17 18  1  1  0  0  0
 20 19  1  0  0  0  0
 20 17  1  0  0  0  0
 22 21  3  0  0  0  0
 24 25  2  0  0  0  0
 25 26  1  0  0  0  0
 26 23  1  0  0  0  0
 27 25  1  0  0  0  0
M  END
>  <MODEL>
6

>  <REMARK>
 VINA RESULT:      -5.9      3.126      7.908
  Name = 
  6 active torsions:
  status: ('A' for Active; 'I' for Inactive)
    1  A    between atoms: C_1  and  C_22
    2  A    between atoms: C_5  and  C_9
    3  A    between atoms: C_5  and  C_20
    4  A    between atoms: C_9  and  C_15
    5  A    between atoms: N_10  and  C_22
    6  A    between atoms: C_14  and  C_16
                            x       y       z     vdW  Elec       q    Type
                         _______ _______ _______ _____ _____    ______ ____

>  <TORSDO>
F 6

$$$$
=
 OpenBabel11042420443D

 27 30  0  0  1  0  0  0  0  0999 V2000
  162.0760  204.9230  147.1470 C   0  0  2  0  0  3  0  0  0  0  0  0
  161.2300  209.6700  152.5080 C   0  0  0  0  0  3  0  0  0  0  0  0
  161.4850  206.5680  150.6400 O   0  0  0  0  0  0  0  0  0  0  0  0
  161.6730  206.1180  149.3290 C   0  0  0  0  0  0  0  0  0  0  0  0
  161.9930  206.9590  148.3670 C   0  0  0  0  0  0  0  0  0  0  0  0
  161.3970  208.3520  152.3140 C   0  0  0  0  0  0  0  0  0  0  0  0
  161.9090  210.2880  150.2270 C   0  0  0  0  0  0  0  0  0  0  0  0
  161.4660  204.4280  148.8100 S   0  0  0  0  0  0  0  0  0  0  0  0
  161.5470  210.6590  151.4580 C   0  0  0  0  0  3  0  0  0  0  0  0
  162.0520  208.4080  148.6290 C   0  0  0  0  0  3  0  0  0  0  0  0
  162.0200  207.8390  151.0360 C   0  0  2  0  0  3  0  0  0  0  0  0
  161.9800  208.8480  149.8980 C   0  0  0  0  0  0  0  0  0  0  0  0
  162.1470  206.3770  147.0850 N   0  0  0  0  0  2  0  0  0  0  0  0
  160.5750  206.0300  152.9680 C   0  0  0  0  0  2  0  0  0  0  0  0
  161.0640  207.3950  153.4260 C   0  0  0  0  0  0  0  0  0  0  0  0
  161.9800  206.1890  153.5320 C   0  0  0  0  0  2  0  0  0  0  0  0
  160.5050  207.9590  154.7450 C   0  0  2  0  0  3  0  0  0  0  0  0
  161.6240  208.5220  155.6060 C   0  0  0  0  0  1  0  0  0  0  0  0
  160.1410  206.9450  156.9340 N   0  0  0  0  0  1  0  0  0  0  0  0
  159.6760  206.9670  155.5560 C   0  0  0  0  0  2  0  0  0  0  0  0
  162.3600  212.1180  148.4390 N   0  0  0  0  0  0  0  0  0  0  0  0
  162.1600  211.3020  149.2370 C   0  0  0  0  0  0  0  0  0  0  0  0
  161.1930  204.3600  146.0380 C   0  0  0  0  0  2  0  0  0  0  0  0
  160.4010  200.8630  145.2560 O   0  0  0  0  0  0  0  0  0  0  0  0
  160.3500  202.1230  145.2050 C   0  0  0  0  0  0  0  0  0  0  0  0
  161.2440  202.9010  146.0080 N   0  0  0  0  0  2  0  0  0  0  0  0
  159.3490  202.7820  144.3140 C   0  0  0  0  0  1  0  0  0  0  0  0
  1 23  1  6  0  0  0
  1  8  1  0  0  0  0
  3 11  1  0  0  0  0
  4  3  1  0  0  0  0
  5 10  1  0  0  0  0
  5  4  2  0  0  0  0
  6  2  2  0  0  0  0
  6 15  1  0  0  0  0
  7  9  2  0  0  0  0
  8  4  1  0  0  0  0
  9  2  1  0  0  0  0
 10 12  2  0  0  0  0
 11 12  1  6  0  0  0
 11  6  1  0  0  0  0
 12  7  1  0  0  0  0
 13  1  1  0  0  0  0
 13  5  1  0  0  0  0
 14 15  1  0  0  0  0
 14 16  1  0  0  0  0
 15 16  1  0  0  0  0
 15 17  1  0  0  0  0
 17 20  1  0  0  0  0
 17 18  1  1  0  0  0
 20 19  1  0  0  0  0
 21 22  3  0  0  0  0
 22  7  1  0  0  0  0
 25 24  2  0  0  0  0
 25 26  1  0  0  0  0
 26 23  1  0  0  0  0
 27 25  1  0  0  0  0
M  END
>  <MODEL>
7

>  <REMARK>
 VINA RESULT:      -5.9      2.367      3.160
  Name = 
  6 active torsions:
  status: ('A' for Active; 'I' for Inactive)
    1  A    between atoms: C_1  and  C_22
    2  A    between atoms: C_5  and  C_9
    3  A    between atoms: C_5  and  C_20
    4  A    between atoms: C_9  and  C_15
    5  A    between atoms: N_10  and  C_22
    6  A    between atoms: C_14  and  C_16
                            x       y       z     vdW  Elec       q    Type
                         _______ _______ _______ _____ _____    ______ ____

>  <TORSDO>
F 6

$$$$
=
 OpenBabel11042420443D

 27 30  0  0  1  0  0  0  0  0999 V2000
  161.5870  207.5780  151.7110 C   0  0  2  0  0  3  0  0  0  0  0  0
  161.0140  202.4510  146.6740 C   0  0  0  0  0  3  0  0  0  0  0  0
  161.6850  205.6040  148.3420 O   0  0  0  0  0  0  0  0  0  0  0  0
  161.5610  206.1980  149.6020 C   0  0  0  0  0  0  0  0  0  0  0  0
  161.2180  205.4840  150.6540 C   0  0  0  0  0  0  0  0  0  0  0  0
  161.5560  203.6660  146.8510 C   0  0  0  0  0  0  0  0  0  0  0  0
  160.6140  202.0670  149.0690 C   0  0  0  0  0  0  0  0  0  0  0  0
  161.7940  207.9350  149.9180 S   0  0  0  0  0  0  0  0  0  0  0  0
  160.5870  201.6140  147.8130 C   0  0  0  0  0  3  0  0  0  0  0  0
  160.8520  204.0640  150.5060 C   0  0  0  0  0  3  0  0  0  0  0  0
  161.8430  204.1810  148.2430 C   0  0  2  0  0  3  0  0  0  0  0  0
  161.0680  203.4510  149.3290 C   0  0  0  0  0  0  0  0  0  0  0  0
  161.1190  206.2070  151.8680 N   0  0  0  0  0  2  0  0  0  0  0  0
  163.1270  205.4320  145.8980 C   0  0  0  0  0  2  0  0  0  0  0  0
  161.9780  204.4680  145.6500 C   0  0  0  0  0  0  0  0  0  0  0  0
  163.3630  204.1470  145.1170 C   0  0  0  0  0  2  0  0  0  0  0  0
  160.9110  204.8640  144.6130 C   0  0  2  0  0  3  0  0  0  0  0  0
  161.5370  205.6470  143.4710 C   0  0  0  0  0  1  0  0  0  0  0  0
  160.2100  206.7750  145.9570 N   0  0  0  0  0  1  0  0  0  0  0  0
  159.7280  205.6400  145.1870 C   0  0  0  0  0  2  0  0  0  0  0  0
  159.7580  200.5310  150.9830 N   0  0  0  0  0  0  0  0  0  0  0  0
  160.1410  201.2160  150.1300 C   0  0  0  0  0  0  0  0  0  0  0  0
  160.6360  208.5710  152.3710 C   0  0  0  0  0  2  0  0  0  0  0  0
  161.6740  209.3890  155.7940 O   0  0  0  0  0  0  0  0  0  0  0  0
  161.1530  208.7440  154.8430 C   0  0  0  0  0  0  0  0  0  0  0  0
  161.2680  209.2390  153.5050 N   0  0  0  0  0  2  0  0  0  0  0  0
  160.4160  207.4780  155.1320 C   0  0  0  0  0  1  0  0  0  0  0  0
  1 13  1  0  0  0  0
  1 23  1  6  0  0  0
  2  6  2  0  0  0  0
  2  9  1  0  0  0  0
  3  4  1  0  0  0  0
  4  8  1  0  0  0  0
  4  5  2  0  0  0  0
  5 13  1  0  0  0  0
  7 12  1  0  0  0  0
  7 22  1  0  0  0  0
  8  1  1  0  0  0  0
  9  7  2  0  0  0  0
 10  5  1  0  0  0  0
 11  6  1  6  0  0  0
 11  3  1  0  0  0  0
 11 12  1  0  0  0  0
 12 10  2  0  0  0  0
 15 14  1  0  0  0  0
 15  6  1  0  0  0  0
 16 15  1  0  0  0  0
 16 14  1  0  0  0  0
 17 18  1  6  0  0  0
 17 20  1  0  0  0  0
 17 15  1  0  0  0  0
 20 19  1  0  0  0  0
 22 21  3  0  0  0  0
 23 26  1  0  0  0  0
 25 27  1  0  0  0  0
 25 24  2  0  0  0  0
 26 25  1  0  0  0  0
M  END
>  <MODEL>
8

>  <REMARK>
 VINA RESULT:      -5.9      3.043      9.037
  Name = 
  6 active torsions:
  status: ('A' for Active; 'I' for Inactive)
    1  A    between atoms: C_1  and  C_22
    2  A    between atoms: C_5  and  C_9
    3  A    between atoms: C_5  and  C_20
    4  A    between atoms: C_9  and  C_15
    5  A    between atoms: N_10  and  C_22
    6  A    between atoms: C_14  and  C_16
                            x       y       z     vdW  Elec       q    Type
                         _______ _______ _______ _____ _____    ______ ____

>  <TORSDO>
F 6

$$$$
=
 OpenBabel11042420443D

 27 30  0  0  1  0  0  0  0  0999 V2000
  161.9560  211.8070  149.5070 C   0  0  2  0  0  3  0  0  0  0  0  0
  161.0800  204.6510  149.5750 C   0  0  0  0  0  3  0  0  0  0  0  0
  161.6460  208.0570  148.4580 O   0  0  0  0  0  0  0  0  0  0  0  0
  161.6950  209.3580  148.9680 C   0  0  0  0  0  0  0  0  0  0  0  0
  161.6640  209.5750  150.2670 C   0  0  0  0  0  0  0  0  0  0  0  0
  161.4800  205.6320  148.7520 C   0  0  0  0  0  0  0  0  0  0  0  0
  161.2150  206.0320  151.6040 C   0  0  0  0  0  0  0  0  0  0  0  0
  161.7560  210.8270  147.9630 S   0  0  0  0  0  0  0  0  0  0  0  0
  161.0010  204.8410  151.0370 C   0  0  0  0  0  3  0  0  0  0  0  0
  161.4660  208.4580  151.2070 C   0  0  0  0  0  3  0  0  0  0  0  0
  161.9670  206.9490  149.3120 C   0  0  2  0  0  3  0  0  0  0  0  0
  161.5250  207.1960  150.7460 C   0  0  0  0  0  0  0  0  0  0  0  0
  161.7130  210.9380  150.6520 N   0  0  0  0  0  2  0  0  0  0  0  0
  160.3840  205.9350  146.4720 C   0  0  0  0  0  2  0  0  0  0  0  0
  161.5480  205.3730  147.2720 C   0  0  0  0  0  0  0  0  0  0  0  0
  161.7480  206.6070  146.4110 C   0  0  0  0  0  2  0  0  0  0  0  0
  162.2030  204.0700  146.7780 C   0  0  2  0  0  3  0  0  0  0  0  0
  163.4560  204.3710  145.9720 C   0  0  0  0  0  1  0  0  0  0  0  0
  160.9080  202.0020  146.7750 N   0  0  0  0  0  1  0  0  0  0  0  0
  161.2770  203.1600  145.9760 C   0  0  0  0  0  2  0  0  0  0  0  0
  160.9680  206.2670  154.1800 N   0  0  0  0  0  0  0  0  0  0  0  0
  161.0770  206.1610  153.0310 C   0  0  0  0  0  0  0  0  0  0  0  0
  161.0320  213.0190  149.5220 C   0  0  0  0  0  2  0  0  0  0  0  0
  158.0800  213.4010  151.6680 O   0  0  0  0  0  0  0  0  0  0  0  0
  158.7770  213.3780  150.6170 C   0  0  0  0  0  0  0  0  0  0  0  0
  160.1580  213.0070  150.6920 N   0  0  0  0  0  2  0  0  0  0  0  0
  158.1520  213.7480  149.3130 C   0  0  0  0  0  1  0  0  0  0  0  0
  1 23  1  6  0  0  0
  1 13  1  0  0  0  0
  2  9  1  0  0  0  0
  3  4  1  0  0  0  0
  4  5  2  0  0  0  0
  5 13  1  0  0  0  0
  5 10  1  0  0  0  0
  6 11  1  0  0  0  0
  6  2  2  0  0  0  0
  7 22  1  0  0  0  0
  8  4  1  0  0  0  0
  8  1  1  0  0  0  0
  9  7  2  0  0  0  0
 11  3  1  6  0  0  0
 11 12  1  0  0  0  0
 12 10  2  0  0  0  0
 12  7  1  0  0  0  0
 14 15  1  0  0  0  0
 15  6  1  0  0  0  0
 16 14  1  0  0  0  0
 16 15  1  0  0  0  0
 17 18  1  6  0  0  0
 17 15  1  0  0  0  0
 20 19  1  0  0  0  0
 20 17  1  0  0  0  0
 22 21  3  0  0  0  0
 23 26  1  0  0  0  0
 25 26  1  0  0  0  0
 25 24  2  0  0  0  0
 27 25  1  0  0  0  0
M  END
>  <MODEL>
9

>  <REMARK>
 VINA RESULT:      -5.8      3.673      8.642
  Name = 
  6 active torsions:
  status: ('A' for Active; 'I' for Inactive)
    1  A    between atoms: C_1  and  C_22
    2  A    between atoms: C_5  and  C_9
    3  A    between atoms: C_5  and  C_20
    4  A    between atoms: C_9  and  C_15
    5  A    between atoms: N_10  and  C_22
    6  A    between atoms: C_14  and  C_16
                            x       y       z     vdW  Elec       q    Type
                         _______ _______ _______ _____ _____    ______ ____

>  <TORSDO>
F 6

$$$$
