=
 OpenBabel11052410393D

 53 55  0  0  1  0  0  0  0  0999 V2000
  160.4570  212.7210  149.5350 C   0  0  1  0  0  3  0  0  0  0  0  0
  160.4790  214.1720  149.9620 C   0  0  1  0  0  3  0  0  0  0  0  0
  159.9950  213.8210  148.5680 C   0  0  1  0  0  3  0  0  0  0  0  0
  161.0350  214.2590  147.5470 C   0  0  0  0  0  2  0  0  0  0  0  0
  160.3770  214.3980  146.1890 C   0  0  0  0  0  2  0  0  0  0  0  0
  160.4800  213.0970  145.4020 C   0  0  1  0  0  3  0  0  0  0  0  0
  159.1730  212.3300  145.4870 C   0  0  0  0  0  1  0  0  0  0  0  0
  160.2680  212.2390  143.0260 C   0  0  0  0  0  1  0  0  0  0  0  0
  160.9190  213.2740  143.9350 C   0  0  2  0  0  3  0  0  0  0  0  0
  163.1870  213.2660  144.5950 O   0  0  0  0  0  0  0  0  0  0  0  0
  162.9620  213.6030  142.2940 C   0  0  0  0  0  1  0  0  0  0  0  0
  162.4060  213.3780  143.6630 C   0  0  0  0  0  0  0  0  0  0  0  0
  161.8880  212.2260  149.3380 C   0  0  0  0  0  2  0  0  0  0  0  0
  161.9200  210.7330  149.2570 C   0  0  0  0  0  0  0  0  0  0  0  0
  162.4290  208.0600  148.8380 C   0  0  1  0  0  3  0  0  0  0  0  0
  161.4400  208.6880  148.0570 O   0  0  0  0  0  0  0  0  0  0  0  0
  162.2140  210.0180  150.3520 C   0  0  0  0  0  3  0  0  0  0  0  0
  161.8250  210.0380  147.9170 C   0  0  0  0  0  2  0  0  0  0  0  0
  162.3090  208.5180  150.2950 C   0  0  0  0  0  2  0  0  0  0  0  0
  160.9500  204.1580  145.4410 O   0  0  0  0  0  0  0  0  0  0  0  0
  161.4830  206.5590  146.5550 O   0  0  0  0  0  0  0  0  0  0  0  0
  161.1980  202.2420  146.7230 N   0  0  0  0  0  2  0  0  0  0  0  0
  161.7170  204.4920  147.6290 N   0  0  0  0  0  2  0  0  0  0  0  0
  161.8220  205.9180  147.5870 C   0  0  0  0  0  0  0  0  0  0  0  0
  161.2770  203.6580  146.5490 C   0  0  0  0  0  0  0  0  0  0  0  0
  162.3140  206.6090  148.7390 N   0  0  0  0  0  2  0  0  0  0  0  0
  161.5090  201.5830  147.9880 C   0  0  2  0  0  3  0  0  0  0  0  0
  161.5290  200.0740  147.8060 C   0  0  0  0  0  1  0  0  0  0  0  0
  160.4990  201.9730  149.0680 C   0  0  1  0  0  3  0  0  0  0  0  0
  159.4890  200.8530  149.2690 C   0  0  0  0  0  2  0  0  0  0  0  0
  158.1910  201.3600  149.1800 O   0  0  0  0  0  1  0  0  0  0  0  0
  161.1460  202.2570  150.2780 O   0  0  0  0  0  0  0  0  0  0  0  0
  160.5680  203.4490  150.7250 C   0  0  0  0  0  2  0  0  0  0  0  0
  161.0080  203.7360  152.1500 C   0  0  0  0  0  2  0  0  0  0  0  0
  161.5380  205.6910  153.6040 O   0  0  0  0  0  1  0  0  0  0  0  0
  161.0520  205.2040  152.3990 C   0  0  0  0  0  0  0  0  0  0  0  0
  160.6200  206.0030  151.5270 O   0  0  0  0  0  0  0  0  0  0  0  0
  159.2850  214.4530  150.8540 C   0  0  0  0  0  2  0  0  0  0  0  0
  158.6470  213.1410  151.2840 C   0  0  0  0  0  2  0  0  0  0  0  0
  159.5140  211.2400  152.6980 C   0  0  0  0  0  1  0  0  0  0  0  0
  159.1360  212.7170  152.6640 C   0  0  2  0  0  3  0  0  0  0  0  0
  157.4190  211.8460  157.2400 C   0  0  0  0  0  1  0  0  0  0  0  0
  155.9090  212.7860  155.4850 C   0  0  0  0  0  0  0  0  0  0  0  0
  156.7030  214.1820  152.2290 O   0  0  0  0  0  0  0  0  0  0  0  0
  156.8600  213.6180  153.3450 C   0  0  0  0  0  0  0  0  0  0  0  0
  154.5180  214.2490  153.9950 C   0  0  0  0  0  1  0  0  0  0  0  0
  158.1240  213.0160  153.6860 N   0  0  0  0  0  0  0  0  0  0  0  0
  155.7720  213.5590  154.2810 N   0  0  0  0  0  0  0  0  0  0  0  0
  157.1810  212.0120  155.7440 C   0  0  1  0  0  3  0  0  0  0  0  0
  158.3850  212.7170  155.1030 C   0  0  1  0  0  3  0  0  0  0  0  0
  154.9340  212.6910  156.2890 O   0  0  0  0  0  0  0  0  0  0  0  0
  159.5390  211.9330  155.2450 O   0  0  0  0  0  0  0  0  0  0  0  0
  160.3050  212.5940  156.2080 C   0  0  0  0  0  1  0  0  0  0  0  0
  1 13  1  6  0  0  0
  1  2  1  0  0  0  0
  2 38  1  1  0  0  0
  3  4  1  6  0  0  0
  3  1  1  0  0  0  0
  3  2  1  0  0  0  0
  5  4  1  0  0  0  0
  6  7  1  6  0  0  0
  6  5  1  0  0  0  0
  9  8  1  6  0  0  0
  9  6  1  0  0  0  0
 11 12  1  0  0  0  0
 12  9  1  0  0  0  0
 12 10  2  0  0  0  0
 14 13  1  0  0  0  0
 14 17  2  0  0  0  0
 15 26  1  1  0  0  0
 15 19  1  0  0  0  0
 16 15  1  0  0  0  0
 18 16  1  0  0  0  0
 18 14  1  0  0  0  0
 19 17  1  0  0  0  0
 20 25  2  0  0  0  0
 21 24  2  0  0  0  0
 22 27  1  0  0  0  0
 24 23  1  0  0  0  0
 24 26  1  0  0  0  0
 25 22  1  0  0  0  0
 25 23  1  0  0  0  0
 27 28  1  6  0  0  0
 27 29  1  0  0  0  0
 29 30  1  1  0  0  0
 29 32  1  0  0  0  0
 31 30  1  0  0  0  0
 32 33  1  0  0  0  0
 33 34  1  0  0  0  0
 34 36  1  0  0  0  0
 36 35  1  0  0  0  0
 37 36  2  0  0  0  0
 38 39  1  0  0  0  0
 39 41  1  0  0  0  0
 41 40  1  6  0  0  0
 41 47  1  0  0  0  0
 43 49  1  0  0  0  0
 43 51  2  0  0  0  0
 44 45  2  0  0  0  0
 45 47  1  0  0  0  0
 45 48  1  0  0  0  0
 46 48  1  0  0  0  0
 47 50  1  0  0  0  0
 48 43  1  0  0  0  0
 49 42  1  1  0  0  0
 50 52  1  6  0  0  0
 50 49  1  0  0  0  0
 52 53  1  0  0  0  0
M  END
>  <MODEL>
1

>  <REMARK>
 VINA RESULT:      -5.4      0.000      0.000
  Name = 
  20 active torsions:
  status: ('A' for Active; 'I' for Inactive)
    1  A    between atoms: C_1  and  C_30
    2  A    between atoms: C_2  and  N_37
    3  A    between atoms: N_5  and  C_42
    4  A    between atoms: C_6  and  C_14
    5  A    between atoms: C_6  and  C_22
    6  A    between atoms: C_7  and  C_48
    7  A    between atoms: C_7  and  O_53
    8  A    between atoms: C_8  and  C_17
    9  A    between atoms: O_13  and  C_47
   10  A    between atoms: C_14  and  C_52
   11  A    between atoms: C_17  and  C_42
   12  A    between atoms: C_17  and  O_53
   13  A    between atoms: C_21  and  C_30
   14  A    between atoms: C_22  and  C_27
   15  A    between atoms: C_25  and  C_39
   16  A    between atoms: N_35  and  C_50
   17  A    between atoms: C_36  and  C_52
   18  A    between atoms: C_38  and  C_48
   19  A    between atoms: C_39  and  C_40
   20  A    between atoms: C_40  and  C_50
                            x       y       z     vdW  Elec       q    Type
                         _______ _______ _______ _____ _____    ______ ____

>  <TORSDO>
F 20

$$$$
=
 OpenBabel11052410393D

 53 55  0  0  1  0  0  0  0  0999 V2000
  162.1660  205.6730  149.3850 C   0  0  1  0  0  3  0  0  0  0  0  0
  160.9220  206.5310  149.3140 C   0  0  1  0  0  3  0  0  0  0  0  0
  161.0880  205.5650  150.4730 C   0  0  1  0  0  3  0  0  0  0  0  0
  160.1180  204.4040  150.3050 C   0  0  0  0  0  2  0  0  0  0  0  0
  160.6310  203.2060  151.0790 C   0  0  0  0  0  2  0  0  0  0  0  0
  161.1070  202.1120  150.1310 C   0  0  1  0  0  3  0  0  0  0  0  0
  161.2730  200.8040  150.8830 C   0  0  0  0  0  1  0  0  0  0  0  0
  158.8870  201.2740  149.2370 C   0  0  0  0  0  1  0  0  0  0  0  0
  160.2210  201.9210  148.8840 C   0  0  2  0  0  3  0  0  0  0  0  0
  161.4260  200.1830  147.8340 O   0  0  0  0  0  0  0  0  0  0  0  0
  160.7880  201.8320  146.3060 C   0  0  0  0  0  1  0  0  0  0  0  0
  160.8500  201.2490  147.6810 C   0  0  0  0  0  0  0  0  0  0  0  0
  162.1140  204.6060  148.2930 C   0  0  0  0  0  2  0  0  0  0  0  0
  161.8070  205.2260  146.9680 C   0  0  0  0  0  0  0  0  0  0  0  0
  161.2980  205.8740  144.3410 C   0  0  1  0  0  3  0  0  0  0  0  0
  162.5600  206.1890  144.8800 O   0  0  0  0  0  0  0  0  0  0  0  0
  160.5580  205.6300  146.7000 C   0  0  0  0  0  3  0  0  0  0  0  0
  162.8400  205.2160  145.8630 C   0  0  0  0  0  2  0  0  0  0  0  0
  160.2010  206.2070  145.3570 C   0  0  0  0  0  2  0  0  0  0  0  0
  163.0120  206.1080  139.2460 O   0  0  0  0  0  0  0  0  0  0  0  0
  162.6850  205.4390  141.8410 O   0  0  0  0  0  0  0  0  0  0  0  0
  161.8030  207.8860  138.3800 N   0  0  0  0  0  2  0  0  0  0  0  0
  161.5340  207.1510  140.7340 N   0  0  0  0  0  2  0  0  0  0  0  0
  161.8100  206.3480  141.8840 C   0  0  0  0  0  0  0  0  0  0  0  0
  162.1530  207.0050  139.4480 C   0  0  0  0  0  0  0  0  0  0  0  0
  161.0820  206.5940  143.0910 N   0  0  0  0  0  2  0  0  0  0  0  0
  160.8550  208.9850  138.5410 C   0  0  2  0  0  3  0  0  0  0  0  0
  159.5710  208.6890  137.7820 C   0  0  0  0  0  1  0  0  0  0  0  0
  161.4630  210.3040  138.0590 C   0  0  1  0  0  3  0  0  0  0  0  0
  160.4640  211.0520  137.1890 C   0  0  0  0  0  2  0  0  0  0  0  0
  159.5700  211.7630  137.9930 O   0  0  0  0  0  1  0  0  0  0  0  0
  161.8460  211.1030  139.1450 O   0  0  0  0  0  0  0  0  0  0  0  0
  163.2220  211.2950  138.9830 C   0  0  0  0  0  2  0  0  0  0  0  0
  163.4830  212.6450  138.3380 C   0  0  0  0  0  2  0  0  0  0  0  0
  165.3180  214.1750  139.0530 O   0  0  0  0  0  0  0  0  0  0  0  0
  164.0910  213.5850  139.3210 C   0  0  0  0  0  0  0  0  0  0  0  0
  163.5050  213.8220  140.4100 O   0  0  0  0  0  1  0  0  0  0  0  0
  161.2520  207.9360  149.7780 C   0  0  0  0  0  2  0  0  0  0  0  0
  160.9670  208.0650  151.2670 C   0  0  0  0  0  2  0  0  0  0  0  0
  162.5880  209.9790  151.5360 C   0  0  0  0  0  1  0  0  0  0  0  0
  161.1540  209.5010  151.7400 C   0  0  2  0  0  3  0  0  0  0  0  0
  159.8680  212.5300  155.4580 C   0  0  0  0  0  1  0  0  0  0  0  0
  160.7820  210.2550  155.9440 C   0  0  0  0  0  0  0  0  0  0  0  0
  161.3040  207.4290  153.7250 O   0  0  0  0  0  0  0  0  0  0  0  0
  161.0170  208.5950  154.1100 C   0  0  0  0  0  0  0  0  0  0  0  0
  161.1190  207.8320  156.5000 C   0  0  0  0  0  1  0  0  0  0  0  0
  160.7590  209.6370  153.1490 N   0  0  0  0  0  0  0  0  0  0  0  0
  160.9590  208.8960  155.5130 N   0  0  0  0  0  0  0  0  0  0  0  0
  160.6910  211.3640  154.9210 C   0  0  1  0  0  3  0  0  0  0  0  0
  160.0690  210.8490  153.6150 C   0  0  1  0  0  3  0  0  0  0  0  0
  160.7800  210.5300  157.1810 O   0  0  0  0  0  0  0  0  0  0  0  0
  160.0980  211.8510  152.6350 O   0  0  0  0  0  0  0  0  0  0  0  0
  158.7720  211.9810  152.2150 C   0  0  0  0  0  1  0  0  0  0  0  0
  1 13  1  6  0  0  0
  1  3  1  0  0  0  0
  2  1  1  0  0  0  0
  2 38  1  1  0  0  0
  2  3  1  0  0  0  0
  3  4  1  6  0  0  0
  4  5  1  0  0  0  0
  6  7  1  1  0  0  0
  6  5  1  0  0  0  0
  9  8  1  1  0  0  0
  9  6  1  0  0  0  0
 11 12  1  0  0  0  0
 12 10  2  0  0  0  0
 12  9  1  0  0  0  0
 14 13  1  0  0  0  0
 15 26  1  6  0  0  0
 15 16  1  0  0  0  0
 15 19  1  0  0  0  0
 16 18  1  0  0  0  0
 17 14  2  0  0  0  0
 18 14  1  0  0  0  0
 19 17  1  0  0  0  0
 20 25  2  0  0  0  0
 21 24  2  0  0  0  0
 22 27  1  0  0  0  0
 22 25  1  0  0  0  0
 23 24  1  0  0  0  0
 24 26  1  0  0  0  0
 25 23  1  0  0  0  0
 27 28  1  6  0  0  0
 29 30  1  1  0  0  0
 29 27  1  0  0  0  0
 29 32  1  0  0  0  0
 30 31  1  0  0  0  0
 33 32  1  0  0  0  0
 34 33  1  0  0  0  0
 34 36  1  0  0  0  0
 35 36  2  0  0  0  0
 36 37  1  0  0  0  0
 38 39  1  0  0  0  0
 39 41  1  0  0  0  0
 41 40  1  1  0  0  0
 41 47  1  0  0  0  0
 43 51  2  0  0  0  0
 44 45  2  0  0  0  0
 45 48  1  0  0  0  0
 47 50  1  0  0  0  0
 47 45  1  0  0  0  0
 48 43  1  0  0  0  0
 48 46  1  0  0  0  0
 49 42  1  1  0  0  0
 49 43  1  0  0  0  0
 50 52  1  6  0  0  0
 50 49  1  0  0  0  0
 53 52  1  0  0  0  0
M  END
>  <MODEL>
2

>  <REMARK>
 VINA RESULT:      -4.9      3.959      9.809
  Name = 
  20 active torsions:
  status: ('A' for Active; 'I' for Inactive)
    1  A    between atoms: C_1  and  C_30
    2  A    between atoms: C_2  and  N_37
    3  A    between atoms: N_5  and  C_42
    4  A    between atoms: C_6  and  C_14
    5  A    between atoms: C_6  and  C_22
    6  A    between atoms: C_7  and  C_48
    7  A    between atoms: C_7  and  O_53
    8  A    between atoms: C_8  and  C_17
    9  A    between atoms: O_13  and  C_47
   10  A    between atoms: C_14  and  C_52
   11  A    between atoms: C_17  and  C_42
   12  A    between atoms: C_17  and  O_53
   13  A    between atoms: C_21  and  C_30
   14  A    between atoms: C_22  and  C_27
   15  A    between atoms: C_25  and  C_39
   16  A    between atoms: N_35  and  C_50
   17  A    between atoms: C_36  and  C_52
   18  A    between atoms: C_38  and  C_48
   19  A    between atoms: C_39  and  C_40
   20  A    between atoms: C_40  and  C_50
                            x       y       z     vdW  Elec       q    Type
                         _______ _______ _______ _____ _____    ______ ____

>  <TORSDO>
F 20

$$$$
=
 OpenBabel11052410393D

 53 55  0  0  1  0  0  0  0  0999 V2000
  162.0430  205.6900  149.2480 C   0  0  1  0  0  3  0  0  0  0  0  0
  160.6700  206.3210  149.3230 C   0  0  1  0  0  3  0  0  0  0  0  0
  161.1210  205.3980  150.4400 C   0  0  1  0  0  3  0  0  0  0  0  0
  160.3510  204.0880  150.3550 C   0  0  0  0  0  2  0  0  0  0  0  0
  161.1480  202.9930  151.0360 C   0  0  0  0  0  2  0  0  0  0  0  0
  161.1800  201.7340  150.1790 C   0  0  1  0  0  3  0  0  0  0  0  0
  160.7900  200.5250  151.0110 C   0  0  0  0  0  1  0  0  0  0  0  0
  158.9000  201.3440  149.1390 C   0  0  0  0  0  1  0  0  0  0  0  0
  160.3290  201.8150  148.8960 C   0  0  2  0  0  3  0  0  0  0  0  0
  161.5800  200.1770  147.7420 O   0  0  0  0  0  0  0  0  0  0  0  0
  160.6650  201.7510  146.2780 C   0  0  0  0  0  1  0  0  0  0  0  0
  160.9030  201.1880  147.6420 C   0  0  0  0  0  0  0  0  0  0  0  0
  162.0570  204.6290  148.1480 C   0  0  0  0  0  2  0  0  0  0  0  0
  161.7800  205.2500  146.8170 C   0  0  0  0  0  0  0  0  0  0  0  0
  161.3060  205.8960  144.1820 C   0  0  1  0  0  3  0  0  0  0  0  0
  162.5770  206.1670  144.7240 O   0  0  0  0  0  0  0  0  0  0  0  0
  160.5480  205.6990  146.5400 C   0  0  0  0  0  3  0  0  0  0  0  0
  162.8160  205.1920  145.7160 C   0  0  0  0  0  2  0  0  0  0  0  0
  160.2190  206.2790  145.1920 C   0  0  0  0  0  2  0  0  0  0  0  0
  162.9810  205.9660  139.0700 O   0  0  0  0  0  0  0  0  0  0  0  0
  162.6380  205.3480  141.6760 O   0  0  0  0  0  0  0  0  0  0  0  0
  161.8760  207.8050  138.1940 N   0  0  0  0  0  2  0  0  0  0  0  0
  161.5850  207.1150  140.5580 N   0  0  0  0  0  2  0  0  0  0  0  0
  161.8220  206.3090  141.7160 C   0  0  0  0  0  0  0  0  0  0  0  0
  162.1810  206.9170  139.2690 C   0  0  0  0  0  0  0  0  0  0  0  0
  161.1230  206.6140  142.9260 N   0  0  0  0  0  2  0  0  0  0  0  0
  160.9990  208.9630  138.3500 C   0  0  2  0  0  3  0  0  0  0  0  0
  160.0250  209.0470  137.1860 C   0  0  0  0  0  1  0  0  0  0  0  0
  161.8130  210.2540  138.4540 C   0  0  1  0  0  3  0  0  0  0  0  0
  161.4810  211.1770  137.2910 C   0  0  0  0  0  2  0  0  0  0  0  0
  162.5620  212.0210  137.0290 O   0  0  0  0  0  1  0  0  0  0  0  0
  161.5650  210.9050  139.6690 O   0  0  0  0  0  0  0  0  0  0  0  0
  160.3320  211.5410  139.4920 C   0  0  0  0  0  2  0  0  0  0  0  0
  159.7880  212.0000  140.8340 C   0  0  0  0  0  2  0  0  0  0  0  0
  161.5490  213.6700  141.4060 O   0  0  0  0  0  0  0  0  0  0  0  0
  160.8930  212.4850  141.7080 C   0  0  0  0  0  0  0  0  0  0  0  0
  161.2510  211.8050  142.7040 O   0  0  0  0  0  1  0  0  0  0  0  0
  160.8020  207.7620  149.7760 C   0  0  0  0  0  2  0  0  0  0  0  0
  161.3550  207.8060  151.1920 C   0  0  0  0  0  2  0  0  0  0  0  0
  162.7240  209.8200  151.8520 C   0  0  0  0  0  1  0  0  0  0  0  0
  161.3240  209.2240  151.7500 C   0  0  2  0  0  3  0  0  0  0  0  0
  159.2800  211.9570  155.3560 C   0  0  0  0  0  1  0  0  0  0  0  0
  160.1090  209.6500  155.8390 C   0  0  0  0  0  0  0  0  0  0  0  0
  161.1020  207.0030  153.5600 O   0  0  0  0  0  0  0  0  0  0  0  0
  160.7280  208.1370  153.9680 C   0  0  0  0  0  0  0  0  0  0  0  0
  160.3600  207.1900  156.2640 C   0  0  0  0  0  1  0  0  0  0  0  0
  160.6540  209.2510  153.0570 N   0  0  0  0  0  0  0  0  0  0  0  0
  160.3870  208.3270  155.3500 N   0  0  0  0  0  0  0  0  0  0  0  0
  160.2090  210.8350  154.9070 C   0  0  1  0  0  3  0  0  0  0  0  0
  159.8680  210.4250  153.4670 C   0  0  1  0  0  3  0  0  0  0  0  0
  159.8560  209.8280  157.0680 O   0  0  0  0  0  0  0  0  0  0  0  0
  160.0790  211.5000  152.5930 O   0  0  0  0  0  0  0  0  0  0  0  0
  158.8070  211.8320  152.1190 C   0  0  0  0  0  1  0  0  0  0  0  0
  1 13  1  6  0  0  0
  1  2  1  0  0  0  0
  1  3  1  0  0  0  0
  2 38  1  1  0  0  0
  2  3  1  0  0  0  0
  3  4  1  6  0  0  0
  4  5  1  0  0  0  0
  6  7  1  1  0  0  0
  6  5  1  0  0  0  0
  9  8  1  1  0  0  0
  9  6  1  0  0  0  0
 11 12  1  0  0  0  0
 12 10  2  0  0  0  0
 12  9  1  0  0  0  0
 14 13  1  0  0  0  0
 15 26  1  6  0  0  0
 15 16  1  0  0  0  0
 15 19  1  0  0  0  0
 16 18  1  0  0  0  0
 17 14  2  0  0  0  0
 18 14  1  0  0  0  0
 19 17  1  0  0  0  0
 20 25  2  0  0  0  0
 21 24  2  0  0  0  0
 22 27  1  0  0  0  0
 22 25  1  0  0  0  0
 23 24  1  0  0  0  0
 24 26  1  0  0  0  0
 25 23  1  0  0  0  0
 27 28  1  6  0  0  0
 27 29  1  0  0  0  0
 29 30  1  6  0  0  0
 29 32  1  0  0  0  0
 31 30  1  0  0  0  0
 33 32  1  0  0  0  0
 33 34  1  0  0  0  0
 34 36  1  0  0  0  0
 35 36  2  0  0  0  0
 36 37  1  0  0  0  0
 38 39  1  0  0  0  0
 39 41  1  0  0  0  0
 41 40  1  1  0  0  0
 41 47  1  0  0  0  0
 43 51  2  0  0  0  0
 44 45  2  0  0  0  0
 45 48  1  0  0  0  0
 47 50  1  0  0  0  0
 47 45  1  0  0  0  0
 48 43  1  0  0  0  0
 48 46  1  0  0  0  0
 49 42  1  1  0  0  0
 49 43  1  0  0  0  0
 50 52  1  6  0  0  0
 50 49  1  0  0  0  0
 53 52  1  0  0  0  0
M  END
>  <MODEL>
3

>  <REMARK>
 VINA RESULT:      -4.7      3.877      9.573
  Name = 
  20 active torsions:
  status: ('A' for Active; 'I' for Inactive)
    1  A    between atoms: C_1  and  C_30
    2  A    between atoms: C_2  and  N_37
    3  A    between atoms: N_5  and  C_42
    4  A    between atoms: C_6  and  C_14
    5  A    between atoms: C_6  and  C_22
    6  A    between atoms: C_7  and  C_48
    7  A    between atoms: C_7  and  O_53
    8  A    between atoms: C_8  and  C_17
    9  A    between atoms: O_13  and  C_47
   10  A    between atoms: C_14  and  C_52
   11  A    between atoms: C_17  and  C_42
   12  A    between atoms: C_17  and  O_53
   13  A    between atoms: C_21  and  C_30
   14  A    between atoms: C_22  and  C_27
   15  A    between atoms: C_25  and  C_39
   16  A    between atoms: N_35  and  C_50
   17  A    between atoms: C_36  and  C_52
   18  A    between atoms: C_38  and  C_48
   19  A    between atoms: C_39  and  C_40
   20  A    between atoms: C_40  and  C_50
                            x       y       z     vdW  Elec       q    Type
                         _______ _______ _______ _____ _____    ______ ____

>  <TORSDO>
F 20

$$$$
=
 OpenBabel11052410393D

 53 55  0  0  1  0  0  0  0  0999 V2000
  162.1710  205.4640  149.0750 C   0  0  1  0  0  3  0  0  0  0  0  0
  160.8890  206.2450  149.2650 C   0  0  1  0  0  3  0  0  0  0  0  0
  161.3140  205.2550  150.3320 C   0  0  1  0  0  3  0  0  0  0  0  0
  160.3950  204.0420  150.2910 C   0  0  0  0  0  2  0  0  0  0  0  0
  161.0470  202.8930  151.0340 C   0  0  0  0  0  2  0  0  0  0  0  0
  161.1100  201.6490  150.1580 C   0  0  1  0  0  3  0  0  0  0  0  0
  160.6770  200.4280  150.9500 C   0  0  0  0  0  1  0  0  0  0  0  0
  158.8680  201.3280  149.0190 C   0  0  0  0  0  1  0  0  0  0  0  0
  160.3190  201.7570  148.8400 C   0  0  2  0  0  3  0  0  0  0  0  0
  161.6580  200.1470  147.7480 O   0  0  0  0  0  0  0  0  0  0  0  0
  160.6640  201.6140  146.2250 C   0  0  0  0  0  1  0  0  0  0  0  0
  160.9280  201.1160  147.6090 C   0  0  0  0  0  0  0  0  0  0  0  0
  161.9800  204.4320  147.9650 C   0  0  0  0  0  2  0  0  0  0  0  0
  161.7280  205.1090  146.6570 C   0  0  0  0  0  0  0  0  0  0  0  0
  161.3390  205.8720  144.0400 C   0  0  1  0  0  3  0  0  0  0  0  0
  162.5660  206.1840  144.6570 O   0  0  0  0  0  0  0  0  0  0  0  0
  160.4860  205.5020  146.3430 C   0  0  0  0  0  3  0  0  0  0  0  0
  162.8160  205.1700  145.6060 C   0  0  0  0  0  2  0  0  0  0  0  0
  160.1860  206.1360  145.0130 C   0  0  0  0  0  2  0  0  0  0  0  0
  162.8980  206.0330  138.8930 O   0  0  0  0  0  0  0  0  0  0  0  0
  162.5770  205.3390  141.4820 O   0  0  0  0  0  0  0  0  0  0  0  0
  161.8900  207.9690  138.1120 N   0  0  0  0  0  2  0  0  0  0  0  0
  161.6100  207.2090  140.4570 N   0  0  0  0  0  2  0  0  0  0  0  0
  161.8230  206.3470  141.5780 C   0  0  0  0  0  0  0  0  0  0  0  0
  162.1630  207.0230  139.1470 C   0  0  0  0  0  0  0  0  0  0  0  0
  161.1720  206.6470  142.8150 N   0  0  0  0  0  2  0  0  0  0  0  0
  161.0900  209.1710  138.3330 C   0  0  2  0  0  3  0  0  0  0  0  0
  160.3120  209.5250  137.0750 C   0  0  0  0  0  1  0  0  0  0  0  0
  161.9750  210.3450  138.7560 C   0  0  1  0  0  3  0  0  0  0  0  0
  162.4860  211.0840  137.5280 C   0  0  0  0  0  2  0  0  0  0  0  0
  162.8420  212.3900  137.8720 O   0  0  0  0  0  1  0  0  0  0  0  0
  161.2730  211.2270  139.5880 O   0  0  0  0  0  0  0  0  0  0  0  0
  161.4750  210.7390  140.8830 C   0  0  0  0  0  2  0  0  0  0  0  0
  161.6890  211.8960  141.8440 C   0  0  0  0  0  2  0  0  0  0  0  0
  159.3610  212.7900  141.8120 O   0  0  0  0  0  0  0  0  0  0  0  0
  160.4150  212.2460  142.5320 C   0  0  0  0  0  0  0  0  0  0  0  0
  160.3040  212.0740  143.7740 O   0  0  0  0  0  1  0  0  0  0  0  0
  161.2200  207.6530  149.7220 C   0  0  0  0  0  2  0  0  0  0  0  0
  160.7860  207.8370  151.1680 C   0  0  0  0  0  2  0  0  0  0  0  0
  162.3870  209.7870  151.1550 C   0  0  0  0  0  1  0  0  0  0  0  0
  161.0390  209.2640  151.6400 C   0  0  2  0  0  3  0  0  0  0  0  0
  160.2890  206.8900  155.9360 C   0  0  0  0  0  1  0  0  0  0  0  0
  159.9320  209.3590  155.7800 C   0  0  0  0  0  0  0  0  0  0  0  0
  160.8830  211.6930  153.1660 O   0  0  0  0  0  0  0  0  0  0  0  0
  160.7130  210.6010  153.7750 C   0  0  0  0  0  0  0  0  0  0  0  0
  160.1220  211.8590  155.8670 C   0  0  0  0  0  1  0  0  0  0  0  0
  160.9470  209.3480  153.1040 N   0  0  0  0  0  0  0  0  0  0  0  0
  160.2680  210.6010  155.1410 N   0  0  0  0  0  0  0  0  0  0  0  0
  160.0130  208.0650  155.0040 C   0  0  1  0  0  3  0  0  0  0  0  0
  161.1090  208.1430  153.9320 C   0  0  1  0  0  3  0  0  0  0  0  0
  159.4930  209.3590  156.9690 O   0  0  0  0  0  0  0  0  0  0  0  0
  161.0980  206.9860  153.1400 O   0  0  0  0  0  0  0  0  0  0  0  0
  162.1040  206.1760  153.6730 C   0  0  0  0  0  1  0  0  0  0  0  0
  1 13  1  6  0  0  0
  1  2  1  0  0  0  0
  1  3  1  0  0  0  0
  2 38  1  1  0  0  0
  2  3  1  0  0  0  0
  3  4  1  6  0  0  0
  4  5  1  0  0  0  0
  6  7  1  1  0  0  0
  6  5  1  0  0  0  0
  9  8  1  1  0  0  0
  9  6  1  0  0  0  0
 11 12  1  0  0  0  0
 12 10  2  0  0  0  0
 12  9  1  0  0  0  0
 14 13  1  0  0  0  0
 15 26  1  6  0  0  0
 15 16  1  0  0  0  0
 15 19  1  0  0  0  0
 16 18  1  0  0  0  0
 17 14  2  0  0  0  0
 18 14  1  0  0  0  0
 19 17  1  0  0  0  0
 20 25  2  0  0  0  0
 21 24  2  0  0  0  0
 22 27  1  0  0  0  0
 22 25  1  0  0  0  0
 23 24  1  0  0  0  0
 24 26  1  0  0  0  0
 25 23  1  0  0  0  0
 27 28  1  6  0  0  0
 27 29  1  0  0  0  0
 29 30  1  6  0  0  0
 29 32  1  0  0  0  0
 30 31  1  0  0  0  0
 32 33  1  0  0  0  0
 33 34  1  0  0  0  0
 34 36  1  0  0  0  0
 35 36  2  0  0  0  0
 36 37  1  0  0  0  0
 38 39  1  0  0  0  0
 39 41  1  0  0  0  0
 41 40  1  1  0  0  0
 41 47  1  0  0  0  0
 43 51  2  0  0  0  0
 44 45  2  0  0  0  0
 45 48  1  0  0  0  0
 47 45  1  0  0  0  0
 47 50  1  0  0  0  0
 48 43  1  0  0  0  0
 48 46  1  0  0  0  0
 49 43  1  0  0  0  0
 49 42  1  1  0  0  0
 50 52  1  6  0  0  0
 50 49  1  0  0  0  0
 52 53  1  0  0  0  0
M  END
>  <MODEL>
4

>  <REMARK>
 VINA RESULT:      -4.4      3.850      9.484
  Name = 
  20 active torsions:
  status: ('A' for Active; 'I' for Inactive)
    1  A    between atoms: C_1  and  C_30
    2  A    between atoms: C_2  and  N_37
    3  A    between atoms: N_5  and  C_42
    4  A    between atoms: C_6  and  C_14
    5  A    between atoms: C_6  and  C_22
    6  A    between atoms: C_7  and  C_48
    7  A    between atoms: C_7  and  O_53
    8  A    between atoms: C_8  and  C_17
    9  A    between atoms: O_13  and  C_47
   10  A    between atoms: C_14  and  C_52
   11  A    between atoms: C_17  and  C_42
   12  A    between atoms: C_17  and  O_53
   13  A    between atoms: C_21  and  C_30
   14  A    between atoms: C_22  and  C_27
   15  A    between atoms: C_25  and  C_39
   16  A    between atoms: N_35  and  C_50
   17  A    between atoms: C_36  and  C_52
   18  A    between atoms: C_38  and  C_48
   19  A    between atoms: C_39  and  C_40
   20  A    between atoms: C_40  and  C_50
                            x       y       z     vdW  Elec       q    Type
                         _______ _______ _______ _____ _____    ______ ____

>  <TORSDO>
F 20

$$$$
=
 OpenBabel11052410393D

 53 55  0  0  1  0  0  0  0  0999 V2000
  162.0900  205.8830  149.8670 C   0  0  1  0  0  3  0  0  0  0  0  0
  160.8200  205.9080  150.6880 C   0  0  1  0  0  3  0  0  0  0  0  0
  162.1090  205.4410  151.3370 C   0  0  1  0  0  3  0  0  0  0  0  0
  162.0480  203.9370  151.5590 C   0  0  0  0  0  2  0  0  0  0  0  0
  160.7700  203.3920  150.9550 C   0  0  0  0  0  2  0  0  0  0  0  0
  161.0510  202.1500  150.1200 C   0  0  1  0  0  3  0  0  0  0  0  0
  160.9810  200.9070  150.9890 C   0  0  0  0  0  1  0  0  0  0  0  0
  158.8770  201.2320  149.1940 C   0  0  0  0  0  1  0  0  0  0  0  0
  160.1530  202.0020  148.8760 C   0  0  2  0  0  3  0  0  0  0  0  0
  160.7010  202.1340  146.5830 O   0  0  0  0  0  0  0  0  0  0  0  0
  161.5720  200.2010  147.5650 C   0  0  0  0  0  1  0  0  0  0  0  0
  160.8010  201.4810  147.6090 C   0  0  0  0  0  0  0  0  0  0  0  0
  162.0120  204.7560  148.8390 C   0  0  0  0  0  2  0  0  0  0  0  0
  161.7260  205.3060  147.4780 C   0  0  0  0  0  0  0  0  0  0  0  0
  161.1810  205.8090  144.8270 C   0  0  1  0  0  3  0  0  0  0  0  0
  162.4980  205.9950  145.2910 O   0  0  0  0  0  0  0  0  0  0  0  0
  160.5280  205.8510  147.2230 C   0  0  0  0  0  3  0  0  0  0  0  0
  162.6950  205.0730  146.3400 C   0  0  0  0  0  2  0  0  0  0  0  0
  160.1870  206.3640  145.8510 C   0  0  0  0  0  2  0  0  0  0  0  0
  163.1260  205.8240  139.8100 O   0  0  0  0  0  0  0  0  0  0  0  0
  162.6980  205.2870  142.4210 O   0  0  0  0  0  0  0  0  0  0  0  0
  161.9030  207.5090  138.7920 N   0  0  0  0  0  2  0  0  0  0  0  0
  161.5460  206.8950  141.1680 N   0  0  0  0  0  2  0  0  0  0  0  0
  161.7930  206.1660  142.3730 C   0  0  0  0  0  0  0  0  0  0  0  0
  162.2290  206.7010  139.9220 C   0  0  0  0  0  0  0  0  0  0  0  0
  161.0020  206.4520  143.5300 N   0  0  0  0  0  2  0  0  0  0  0  0
  160.9130  208.5820  138.8470 C   0  0  2  0  0  3  0  0  0  0  0  0
  159.9570  208.4780  137.6690 C   0  0  0  0  0  1  0  0  0  0  0  0
  161.5940  209.9510  138.8580 C   0  0  1  0  0  3  0  0  0  0  0  0
  161.6540  210.5170  137.4470 C   0  0  0  0  0  2  0  0  0  0  0  0
  161.6140  211.9120  137.4910 O   0  0  0  0  0  1  0  0  0  0  0  0
  160.9140  210.8400  139.7020 O   0  0  0  0  0  0  0  0  0  0  0  0
  161.6940  210.9060  140.8600 C   0  0  0  0  0  2  0  0  0  0  0  0
  161.1630  211.9910  141.7810 C   0  0  0  0  0  2  0  0  0  0  0  0
  162.9630  213.6960  141.5180 O   0  0  0  0  0  0  0  0  0  0  0  0
  162.2830  212.8020  142.3340 C   0  0  0  0  0  0  0  0  0  0  0  0
  162.6330  212.6560  143.5340 O   0  0  0  0  0  1  0  0  0  0  0  0
  160.5250  207.3320  151.1180 C   0  0  0  0  0  2  0  0  0  0  0  0
  161.7710  207.9500  151.7330 C   0  0  0  0  0  2  0  0  0  0  0  0
  160.5820  207.2230  153.8370 C   0  0  0  0  0  1  0  0  0  0  0  0
  161.5820  208.1990  153.2240 C   0  0  2  0  0  3  0  0  0  0  0  0
  159.4970  211.4630  156.3290 C   0  0  0  0  0  1  0  0  0  0  0  0
  159.5700  211.9280  153.8750 C   0  0  0  0  0  0  0  0  0  0  0  0
  161.4510  210.2770  151.2450 O   0  0  0  0  0  0  0  0  0  0  0  0
  160.9780  210.5210  152.3880 C   0  0  0  0  0  0  0  0  0  0  0  0
  160.1180  212.7310  151.5620 C   0  0  0  0  0  1  0  0  0  0  0  0
  161.1670  209.5870  153.4690 N   0  0  0  0  0  0  0  0  0  0  0  0
  160.2340  211.7280  152.6160 N   0  0  0  0  0  0  0  0  0  0  0  0
  159.6300  210.8550  154.9380 C   0  0  1  0  0  3  0  0  0  0  0  0
  160.9440  210.0670  154.8410 C   0  0  1  0  0  3  0  0  0  0  0  0
  158.8720  212.9690  154.0620 O   0  0  0  0  0  0  0  0  0  0  0  0
  160.9390  209.0010  155.7510 O   0  0  0  0  0  0  0  0  0  0  0  0
  162.0490  209.2210  156.5690 C   0  0  0  0  0  1  0  0  0  0  0  0
  1 13  1  6  0  0  0
  1  2  1  0  0  0  0
  1  3  1  0  0  0  0
  2 38  1  1  0  0  0
  2  3  1  0  0  0  0
  3  4  1  6  0  0  0
  5  4  1  0  0  0  0
  6  5  1  0  0  0  0
  6  7  1  1  0  0  0
  9  8  1  1  0  0  0
  9  6  1  0  0  0  0
 10 12  2  0  0  0  0
 11 12  1  0  0  0  0
 12  9  1  0  0  0  0
 14 13  1  0  0  0  0
 15 26  1  6  0  0  0
 15 16  1  0  0  0  0
 15 19  1  0  0  0  0
 16 18  1  0  0  0  0
 17 14  2  0  0  0  0
 18 14  1  0  0  0  0
 19 17  1  0  0  0  0
 20 25  2  0  0  0  0
 22 27  1  0  0  0  0
 22 25  1  0  0  0  0
 23 24  1  0  0  0  0
 24 21  2  0  0  0  0
 24 26  1  0  0  0  0
 25 23  1  0  0  0  0
 27 28  1  6  0  0  0
 27 29  1  0  0  0  0
 29 30  1  6  0  0  0
 29 32  1  0  0  0  0
 30 31  1  0  0  0  0
 32 33  1  0  0  0  0
 33 34  1  0  0  0  0
 34 36  1  0  0  0  0
 35 36  2  0  0  0  0
 36 37  1  0  0  0  0
 38 39  1  0  0  0  0
 39 41  1  0  0  0  0
 41 47  1  0  0  0  0
 41 40  1  6  0  0  0
 43 51  2  0  0  0  0
 43 49  1  0  0  0  0
 44 45  2  0  0  0  0
 45 48  1  0  0  0  0
 45 47  1  0  0  0  0
 46 48  1  0  0  0  0
 47 50  1  0  0  0  0
 48 43  1  0  0  0  0
 49 42  1  1  0  0  0
 50 49  1  0  0  0  0
 50 52  1  1  0  0  0
 52 53  1  0  0  0  0
M  END
>  <MODEL>
5

>  <REMARK>
 VINA RESULT:      -4.2      3.604      9.180
  Name = 
  20 active torsions:
  status: ('A' for Active; 'I' for Inactive)
    1  A    between atoms: C_1  and  C_30
    2  A    between atoms: C_2  and  N_37
    3  A    between atoms: N_5  and  C_42
    4  A    between atoms: C_6  and  C_14
    5  A    between atoms: C_6  and  C_22
    6  A    between atoms: C_7  and  C_48
    7  A    between atoms: C_7  and  O_53
    8  A    between atoms: C_8  and  C_17
    9  A    between atoms: O_13  and  C_47
   10  A    between atoms: C_14  and  C_52
   11  A    between atoms: C_17  and  C_42
   12  A    between atoms: C_17  and  O_53
   13  A    between atoms: C_21  and  C_30
   14  A    between atoms: C_22  and  C_27
   15  A    between atoms: C_25  and  C_39
   16  A    between atoms: N_35  and  C_50
   17  A    between atoms: C_36  and  C_52
   18  A    between atoms: C_38  and  C_48
   19  A    between atoms: C_39  and  C_40
   20  A    between atoms: C_40  and  C_50
                            x       y       z     vdW  Elec       q    Type
                         _______ _______ _______ _____ _____    ______ ____

>  <TORSDO>
F 20

$$$$
=
 OpenBabel11052410393D

 53 55  0  0  1  0  0  0  0  0999 V2000
  161.9630  204.7600  148.6000 C   0  0  1  0  0  3  0  0  0  0  0  0
  160.5260  204.8430  149.0640 C   0  0  1  0  0  3  0  0  0  0  0  0
  161.5400  204.1190  149.9300 C   0  0  1  0  0  3  0  0  0  0  0  0
  161.2790  202.6210  149.8680 C   0  0  0  0  0  2  0  0  0  0  0  0
  159.7890  202.3760  149.7420 C   0  0  0  0  0  2  0  0  0  0  0  0
  159.5110  201.1800  148.8400 C   0  0  1  0  0  3  0  0  0  0  0  0
  158.0150  200.9620  148.7060 C   0  0  0  0  0  1  0  0  0  0  0  0
  159.1530  201.4260  146.3420 C   0  0  0  0  0  1  0  0  0  0  0  0
  160.1810  201.2580  147.4550 C   0  0  2  0  0  3  0  0  0  0  0  0
  162.0100  199.8470  147.9460 O   0  0  0  0  0  0  0  0  0  0  0  0
  161.2080  199.4930  145.7800 C   0  0  0  0  0  1  0  0  0  0  0  0
  161.1870  200.1790  147.1080 C   0  0  0  0  0  0  0  0  0  0  0  0
  162.0600  203.8090  147.4090 C   0  0  0  0  0  2  0  0  0  0  0  0
  161.7690  204.5330  146.1340 C   0  0  0  0  0  0  0  0  0  0  0  0
  161.7310  205.7310  143.6550 C   0  0  1  0  0  3  0  0  0  0  0  0
  161.8770  206.5460  144.7940 O   0  0  0  0  0  0  0  0  0  0  0  0
  160.9420  203.9830  145.2340 C   0  0  0  0  0  3  0  0  0  0  0  0
  162.5520  205.7740  145.7640 C   0  0  0  0  0  2  0  0  0  0  0  0
  160.6700  204.6570  143.9170 C   0  0  0  0  0  2  0  0  0  0  0  0
  162.8090  206.3060  138.4150 O   0  0  0  0  0  0  0  0  0  0  0  0
  162.7920  205.4610  140.9790 O   0  0  0  0  0  0  0  0  0  0  0  0
  161.5320  208.1490  137.8280 N   0  0  0  0  0  2  0  0  0  0  0  0
  161.5420  207.2540  140.1420 N   0  0  0  0  0  2  0  0  0  0  0  0
  161.9440  206.3710  141.1920 C   0  0  0  0  0  0  0  0  0  0  0  0
  161.9960  207.1940  138.7830 C   0  0  0  0  0  0  0  0  0  0  0  0
  161.3750  206.5380  142.4930 N   0  0  0  0  0  2  0  0  0  0  0  0
  160.6290  209.2420  138.1800 C   0  0  2  0  0  3  0  0  0  0  0  0
  159.2970  209.0740  137.4670 C   0  0  0  0  0  1  0  0  0  0  0  0
  161.2500  210.5960  137.8310 C   0  0  1  0  0  3  0  0  0  0  0  0
  160.1570  211.6110  137.5330 C   0  0  0  0  0  2  0  0  0  0  0  0
  160.7180  212.8790  137.3650 O   0  0  0  0  0  1  0  0  0  0  0  0
  162.0610  211.0580  138.8760 O   0  0  0  0  0  0  0  0  0  0  0  0
  161.3120  210.8410  140.0360 C   0  0  0  0  0  2  0  0  0  0  0  0
  161.3630  212.0740  140.9220 C   0  0  0  0  0  2  0  0  0  0  0  0
  160.0930  211.7980  143.0500 O   0  0  0  0  0  1  0  0  0  0  0  0
  160.1110  212.1960  141.7210 C   0  0  0  0  0  0  0  0  0  0  0  0
  159.0610  212.6330  141.1820 O   0  0  0  0  0  0  0  0  0  0  0  0
  160.2620  206.2200  149.6420 C   0  0  0  0  0  2  0  0  0  0  0  0
  160.5660  206.2180  151.1320 C   0  0  0  0  0  2  0  0  0  0  0  0
  162.6210  206.2250  152.5950 C   0  0  0  0  0  1  0  0  0  0  0  0
  161.9060  206.8840  151.4210 C   0  0  2  0  0  3  0  0  0  0  0  0
  159.8080  210.4360  154.1830 C   0  0  0  0  0  1  0  0  0  0  0  0
  160.5780  210.9370  151.8590 C   0  0  0  0  0  0  0  0  0  0  0  0
  162.6850  208.9920  149.6310 O   0  0  0  0  0  0  0  0  0  0  0  0
  162.0020  209.3020  150.6450 C   0  0  0  0  0  0  0  0  0  0  0  0
  161.8300  211.6640  149.8100 C   0  0  0  0  0  1  0  0  0  0  0  0
  161.7270  208.3220  151.6650 N   0  0  0  0  0  0  0  0  0  0  0  0
  161.4790  210.6320  150.7810 N   0  0  0  0  0  0  0  0  0  0  0  0
  160.1580  209.8490  152.8200 C   0  0  1  0  0  3  0  0  0  0  0  0
  161.2710  208.8040  152.9780 C   0  0  1  0  0  3  0  0  0  0  0  0
  160.0760  212.0970  151.9540 O   0  0  0  0  0  0  0  0  0  0  0  0
  160.8290  207.7400  153.7770 O   0  0  0  0  0  0  0  0  0  0  0  0
  161.2250  208.0760  155.0730 C   0  0  0  0  0  1  0  0  0  0  0  0
  1 13  1  6  0  0  0
  1  2  1  0  0  0  0
  1  3  1  0  0  0  0
  2 38  1  1  0  0  0
  2  3  1  0  0  0  0
  3  4  1  6  0  0  0
  5  4  1  0  0  0  0
  6  7  1  6  0  0  0
  6  5  1  0  0  0  0
  9  8  1  6  0  0  0
  9  6  1  0  0  0  0
 11 12  1  0  0  0  0
 12  9  1  0  0  0  0
 12 10  2  0  0  0  0
 14 13  1  0  0  0  0
 15 26  1  6  0  0  0
 15 19  1  0  0  0  0
 15 16  1  0  0  0  0
 16 18  1  0  0  0  0
 17 14  2  0  0  0  0
 18 14  1  0  0  0  0
 19 17  1  0  0  0  0
 20 25  2  0  0  0  0
 21 24  2  0  0  0  0
 22 27  1  0  0  0  0
 22 25  1  0  0  0  0
 23 24  1  0  0  0  0
 24 26  1  0  0  0  0
 25 23  1  0  0  0  0
 27 28  1  6  0  0  0
 29 30  1  1  0  0  0
 29 27  1  0  0  0  0
 29 32  1  0  0  0  0
 31 30  1  0  0  0  0
 32 33  1  0  0  0  0
 33 34  1  0  0  0  0
 34 36  1  0  0  0  0
 36 35  1  0  0  0  0
 37 36  2  0  0  0  0
 38 39  1  0  0  0  0
 39 41  1  0  0  0  0
 41 47  1  0  0  0  0
 41 40  1  1  0  0  0
 43 51  2  0  0  0  0
 43 49  1  0  0  0  0
 44 45  2  0  0  0  0
 45 48  1  0  0  0  0
 45 47  1  0  0  0  0
 46 48  1  0  0  0  0
 47 50  1  0  0  0  0
 48 43  1  0  0  0  0
 49 50  1  0  0  0  0
 49 42  1  1  0  0  0
 50 52  1  1  0  0  0
 52 53  1  0  0  0  0
M  END
>  <MODEL>
6

>  <REMARK>
 VINA RESULT:      -3.3      3.987      9.980
  Name = 
  20 active torsions:
  status: ('A' for Active; 'I' for Inactive)
    1  A    between atoms: C_1  and  C_30
    2  A    between atoms: C_2  and  N_37
    3  A    between atoms: N_5  and  C_42
    4  A    between atoms: C_6  and  C_14
    5  A    between atoms: C_6  and  C_22
    6  A    between atoms: C_7  and  C_48
    7  A    between atoms: C_7  and  O_53
    8  A    between atoms: C_8  and  C_17
    9  A    between atoms: O_13  and  C_47
   10  A    between atoms: C_14  and  C_52
   11  A    between atoms: C_17  and  C_42
   12  A    between atoms: C_17  and  O_53
   13  A    between atoms: C_21  and  C_30
   14  A    between atoms: C_22  and  C_27
   15  A    between atoms: C_25  and  C_39
   16  A    between atoms: N_35  and  C_50
   17  A    between atoms: C_36  and  C_52
   18  A    between atoms: C_38  and  C_48
   19  A    between atoms: C_39  and  C_40
   20  A    between atoms: C_40  and  C_50
                            x       y       z     vdW  Elec       q    Type
                         _______ _______ _______ _____ _____    ______ ____

>  <TORSDO>
F 20

$$$$
=
 OpenBabel11052410393D

 53 55  0  0  1  0  0  0  0  0999 V2000
  162.2440  208.8970  155.4280 C   0  0  1  0  0  3  0  0  0  0  0  0
  161.3750  210.0120  154.8920 C   0  0  1  0  0  3  0  0  0  0  0  0
  161.8470  210.0720  156.3320 C   0  0  1  0  0  3  0  0  0  0  0  0
  160.6710  209.8030  157.2610 C   0  0  0  0  0  2  0  0  0  0  0  0
  159.7160  210.9790  157.2150 C   0  0  0  0  0  2  0  0  0  0  0  0
  158.8500  210.9250  155.9630 C   0  0  1  0  0  3  0  0  0  0  0  0
  157.7690  209.8710  156.1200 C   0  0  0  0  0  1  0  0  0  0  0  0
  159.0340  213.4480  156.1260 C   0  0  0  0  0  1  0  0  0  0  0  0
  158.2410  212.2800  155.5520 C   0  0  2  0  0  3  0  0  0  0  0  0
  155.9860  212.2490  154.8510 O   0  0  0  0  0  0  0  0  0  0  0  0
  156.1840  212.9070  157.0840 C   0  0  0  0  0  1  0  0  0  0  0  0
  156.7550  212.4690  155.7740 C   0  0  0  0  0  0  0  0  0  0  0  0
  161.4070  207.6290  155.5860 C   0  0  0  0  0  2  0  0  0  0  0  0
  161.2490  206.9370  154.2710 C   0  0  0  0  0  0  0  0  0  0  0  0
  160.4460  205.6350  151.9810 C   0  0  1  0  0  3  0  0  0  0  0  0
  161.1080  204.8950  152.9790 O   0  0  0  0  0  0  0  0  0  0  0  0
  161.3430  207.6430  153.1360 C   0  0  0  0  0  3  0  0  0  0  0  0
  160.7880  205.4970  154.2150 C   0  0  0  0  0  2  0  0  0  0  0  0
  161.1360  206.9910  151.7970 C   0  0  0  0  0  2  0  0  0  0  0  0
  161.5000  200.7760  149.9230 O   0  0  0  0  0  0  0  0  0  0  0  0
  161.2140  202.8740  151.5990 O   0  0  0  0  0  0  0  0  0  0  0  0
  161.0870  201.0770  147.6620 N   0  0  0  0  0  2  0  0  0  0  0  0
  160.7970  202.9210  149.2960 N   0  0  0  0  0  2  0  0  0  0  0  0
  160.8290  203.5270  150.5910 C   0  0  0  0  0  0  0  0  0  0  0  0
  161.1410  201.5600  149.0050 C   0  0  0  0  0  0  0  0  0  0  0  0
  160.4210  204.8920  150.7260 N   0  0  0  0  0  2  0  0  0  0  0  0
  160.7310  201.9290  146.5310 C   0  0  2  0  0  3  0  0  0  0  0  0
  160.4580  201.0820  145.2980 C   0  0  0  0  0  1  0  0  0  0  0  0
  161.8400  202.9430  146.2420 C   0  0  1  0  0  3  0  0  0  0  0  0
  161.6200  203.5840  144.8800 C   0  0  0  0  0  2  0  0  0  0  0  0
  160.4410  204.3310  144.8900 O   0  0  0  0  0  1  0  0  0  0  0  0
  161.8850  203.9300  147.2350 O   0  0  0  0  0  0  0  0  0  0  0  0
  162.7410  204.9130  146.7280 C   0  0  0  0  0  2  0  0  0  0  0  0
  162.6880  206.1500  147.6070 C   0  0  0  0  0  2  0  0  0  0  0  0
  160.8530  207.5730  148.5170 O   0  0  0  0  0  1  0  0  0  0  0  0
  161.3750  206.8390  147.4610 C   0  0  0  0  0  0  0  0  0  0  0  0
  160.7250  206.7330  146.3880 O   0  0  0  0  0  0  0  0  0  0  0  0
  162.2200  210.9460  154.0460 C   0  0  0  0  0  2  0  0  0  0  0  0
  161.9460  210.6900  152.5720 C   0  0  0  0  0  2  0  0  0  0  0  0
  159.5980  209.9810  151.9790 C   0  0  0  0  0  1  0  0  0  0  0  0
  160.5480  211.1570  152.1830 C   0  0  2  0  0  3  0  0  0  0  0  0
  158.2360  214.4340  149.2570 C   0  0  0  0  0  1  0  0  0  0  0  0
  160.1110  213.0470  148.3600 C   0  0  0  0  0  0  0  0  0  0  0  0
  162.5340  210.9880  150.1130 O   0  0  0  0  0  0  0  0  0  0  0  0
  161.5380  211.7350  149.9150 C   0  0  0  0  0  0  0  0  0  0  0  0
  162.3160  212.1520  147.5640 C   0  0  0  0  0  1  0  0  0  0  0  0
  160.5990  211.9950  150.9770 N   0  0  0  0  0  0  0  0  0  0  0  0
  161.3240  212.3220  148.6220 N   0  0  0  0  0  0  0  0  0  0  0  0
  159.0530  213.1590  149.4330 C   0  0  1  0  0  3  0  0  0  0  0  0
  159.6920  213.1440  150.8290 C   0  0  1  0  0  3  0  0  0  0  0  0
  159.8980  213.5240  147.2060 O   0  0  0  0  0  0  0  0  0  0  0  0
  158.6980  213.1280  151.8180 O   0  0  0  0  0  0  0  0  0  0  0  0
  158.6000  214.4530  152.2490 C   0  0  0  0  0  1  0  0  0  0  0  0
  1 13  1  1  0  0  0
  1  3  1  0  0  0  0
  2 38  1  6  0  0  0
  2  1  1  0  0  0  0
  2  3  1  0  0  0  0
  3  4  1  1  0  0  0
  5  4  1  0  0  0  0
  6  7  1  1  0  0  0
  6  5  1  0  0  0  0
  9 12  1  0  0  0  0
  9  6  1  0  0  0  0
  9  8  1  1  0  0  0
 10 12  2  0  0  0  0
 12 11  1  0  0  0  0
 14 13  1  0  0  0  0
 15 26  1  6  0  0  0
 15 16  1  0  0  0  0
 16 18  1  0  0  0  0
 17 14  2  0  0  0  0
 18 14  1  0  0  0  0
 19 15  1  0  0  0  0
 19 17  1  0  0  0  0
 22 25  1  0  0  0  0
 23 24  1  0  0  0  0
 24 26  1  0  0  0  0
 24 21  2  0  0  0  0
 25 23  1  0  0  0  0
 25 20  2  0  0  0  0
 27 28  1  6  0  0  0
 27 22  1  0  0  0  0
 29 30  1  6  0  0  0
 29 27  1  0  0  0  0
 29 32  1  0  0  0  0
 30 31  1  0  0  0  0
 33 32  1  0  0  0  0
 33 34  1  0  0  0  0
 36 34  1  0  0  0  0
 36 35  1  0  0  0  0
 37 36  2  0  0  0  0
 39 38  1  0  0  0  0
 41 40  1  6  0  0  0
 41 39  1  0  0  0  0
 43 48  1  0  0  0  0
 43 49  1  0  0  0  0
 45 44  2  0  0  0  0
 45 47  1  0  0  0  0
 46 48  1  0  0  0  0
 47 41  1  0  0  0  0
 48 45  1  0  0  0  0
 49 42  1  6  0  0  0
 49 50  1  0  0  0  0
 50 47  1  0  0  0  0
 50 52  1  1  0  0  0
 51 43  2  0  0  0  0
 52 53  1  0  0  0  0
M  END
>  <MODEL>
7

>  <REMARK>
 VINA RESULT:      -2.8      2.450      7.330
  Name = 
  20 active torsions:
  status: ('A' for Active; 'I' for Inactive)
    1  A    between atoms: C_1  and  C_30
    2  A    between atoms: C_2  and  N_37
    3  A    between atoms: N_5  and  C_42
    4  A    between atoms: C_6  and  C_14
    5  A    between atoms: C_6  and  C_22
    6  A    between atoms: C_7  and  C_48
    7  A    between atoms: C_7  and  O_53
    8  A    between atoms: C_8  and  C_17
    9  A    between atoms: O_13  and  C_47
   10  A    between atoms: C_14  and  C_52
   11  A    between atoms: C_17  and  C_42
   12  A    between atoms: C_17  and  O_53
   13  A    between atoms: C_21  and  C_30
   14  A    between atoms: C_22  and  C_27
   15  A    between atoms: C_25  and  C_39
   16  A    between atoms: N_35  and  C_50
   17  A    between atoms: C_36  and  C_52
   18  A    between atoms: C_38  and  C_48
   19  A    between atoms: C_39  and  C_40
   20  A    between atoms: C_40  and  C_50
                            x       y       z     vdW  Elec       q    Type
                         _______ _______ _______ _____ _____    ______ ____

>  <TORSDO>
F 20

$$$$
=
 OpenBabel11052410393D

 53 55  0  0  1  0  0  0  0  0999 V2000
  162.5390  212.6530  148.2600 C   0  0  1  0  0  3  0  0  0  0  0  0
  161.5540  212.7680  147.1180 C   0  0  1  0  0  3  0  0  0  0  0  0
  161.9360  214.0160  147.8930 C   0  0  1  0  0  3  0  0  0  0  0  0
  160.7610  214.4530  148.7560 C   0  0  0  0  0  2  0  0  0  0  0  0
  159.4860  213.8310  148.2220 C   0  0  0  0  0  2  0  0  0  0  0  0
  158.2900  214.2280  149.0770 C   0  0  1  0  0  3  0  0  0  0  0  0
  157.0630  214.4190  148.2040 C   0  0  0  0  0  1  0  0  0  0  0  0
  156.5430  213.3710  150.7030 C   0  0  0  0  0  1  0  0  0  0  0  0
  157.9910  213.2620  150.2410 C   0  0  2  0  0  3  0  0  0  0  0  0
  160.1320  213.4610  151.2180 O   0  0  0  0  0  0  0  0  0  0  0  0
  158.4810  213.0980  152.8310 C   0  0  0  0  0  1  0  0  0  0  0  0
  158.9420  213.2810  151.4210 C   0  0  0  0  0  0  0  0  0  0  0  0
  161.8790  211.9310  149.4320 C   0  0  0  0  0  2  0  0  0  0  0  0
  161.9710  210.4490  149.2560 C   0  0  0  0  0  0  0  0  0  0  0  0
  162.5010  207.8390  148.5580 C   0  0  1  0  0  3  0  0  0  0  0  0
  161.3070  208.4290  148.1000 O   0  0  0  0  0  0  0  0  0  0  0  0
  162.5820  209.7080  150.1920 C   0  0  0  0  0  3  0  0  0  0  0  0
  161.5660  209.8080  147.9470 C   0  0  0  0  0  2  0  0  0  0  0  0
  162.7420  208.2230  150.0220 C   0  0  0  0  0  2  0  0  0  0  0  0
  160.6050  204.0020  145.2970 O   0  0  0  0  0  0  0  0  0  0  0  0
  161.2150  206.3810  146.4180 O   0  0  0  0  0  0  0  0  0  0  0  0
  161.1930  202.0520  146.4050 N   0  0  0  0  0  2  0  0  0  0  0  0
  161.7580  204.2880  147.3160 N   0  0  0  0  0  2  0  0  0  0  0  0
  161.7790  205.7180  147.3320 C   0  0  0  0  0  0  0  0  0  0  0  0
  161.1640  203.4750  146.2950 C   0  0  0  0  0  0  0  0  0  0  0  0
  162.4440  206.3890  148.4050 N   0  0  0  0  0  2  0  0  0  0  0  0
  161.7740  201.3600  147.5520 C   0  0  2  0  0  3  0  0  0  0  0  0
  161.7060  199.8540  147.3500 C   0  0  0  0  0  1  0  0  0  0  0  0
  161.0600  201.7540  148.8450 C   0  0  1  0  0  3  0  0  0  0  0  0
  159.6250  201.2490  148.8250 C   0  0  0  0  0  2  0  0  0  0  0  0
  159.3050  200.6730  150.0560 O   0  0  0  0  0  1  0  0  0  0  0  0
  161.7320  201.2420  149.9630 O   0  0  0  0  0  0  0  0  0  0  0  0
  161.8790  202.3330  150.8260 C   0  0  0  0  0  2  0  0  0  0  0  0
  161.0380  203.4980  150.3350 C   0  0  0  0  0  2  0  0  0  0  0  0
  160.5120  204.1310  152.6890 O   0  0  0  0  0  1  0  0  0  0  0  0
  160.8810  204.5190  151.4090 C   0  0  0  0  0  0  0  0  0  0  0  0
  161.0560  205.7380  151.1480 O   0  0  0  0  0  0  0  0  0  0  0  0
  162.3050  212.7440  145.8000 C   0  0  0  0  0  2  0  0  0  0  0  0
  161.3710  213.1520  144.6710 C   0  0  0  0  0  2  0  0  0  0  0  0
  163.0530  213.2140  142.7910 C   0  0  0  0  0  1  0  0  0  0  0  0
  161.8060  212.5340  143.3480 C   0  0  2  0  0  3  0  0  0  0  0  0
  160.4150  212.1900  138.5940 C   0  0  0  0  0  1  0  0  0  0  0  0
  158.9850  213.4090  140.2410 C   0  0  0  0  0  0  0  0  0  0  0  0
  159.1420  213.4750  143.8680 O   0  0  0  0  0  0  0  0  0  0  0  0
  159.4530  213.2160  142.6740 C   0  0  0  0  0  0  0  0  0  0  0  0
  157.2410  214.1180  141.9000 C   0  0  0  0  0  1  0  0  0  0  0  0
  160.7110  212.5820  142.3700 N   0  0  0  0  0  0  0  0  0  0  0  0
  158.5600  213.5680  141.6050 N   0  0  0  0  0  0  0  0  0  0  0  0
  160.3780  212.9090  139.9380 C   0  0  1  0  0  3  0  0  0  0  0  0
  160.8680  211.9630  141.0440 C   0  0  1  0  0  3  0  0  0  0  0  0
  158.2180  213.7640  139.2960 O   0  0  0  0  0  0  0  0  0  0  0  0
  162.2020  211.5990  140.8160 O   0  0  0  0  0  0  0  0  0  0  0  0
  162.1460  210.2600  140.4190 C   0  0  0  0  0  1  0  0  0  0  0  0
  1 13  1  1  0  0  0
  2 38  1  6  0  0  0
  2  3  1  0  0  0  0
  2  1  1  0  0  0  0
  3  1  1  0  0  0  0
  3  4  1  1  0  0  0
  5  4  1  0  0  0  0
  5  6  1  0  0  0  0
  6  7  1  6  0  0  0
  6  9  1  0  0  0  0
  9  8  1  1  0  0  0
  9 12  1  0  0  0  0
 10 12  2  0  0  0  0
 12 11  1  0  0  0  0
 14 13  1  0  0  0  0
 14 17  2  0  0  0  0
 15 26  1  1  0  0  0
 15 19  1  0  0  0  0
 16 15  1  0  0  0  0
 18 16  1  0  0  0  0
 18 14  1  0  0  0  0
 19 17  1  0  0  0  0
 20 25  2  0  0  0  0
 21 24  2  0  0  0  0
 22 27  1  0  0  0  0
 23 24  1  0  0  0  0
 24 26  1  0  0  0  0
 25 22  1  0  0  0  0
 25 23  1  0  0  0  0
 27 28  1  6  0  0  0
 27 29  1  0  0  0  0
 29 30  1  6  0  0  0
 29 32  1  0  0  0  0
 30 31  1  0  0  0  0
 32 33  1  0  0  0  0
 34 33  1  0  0  0  0
 34 36  1  0  0  0  0
 36 35  1  0  0  0  0
 37 36  2  0  0  0  0
 39 38  1  0  0  0  0
 41 40  1  6  0  0  0
 41 39  1  0  0  0  0
 43 48  1  0  0  0  0
 45 44  2  0  0  0  0
 47 45  1  0  0  0  0
 47 41  1  0  0  0  0
 48 46  1  0  0  0  0
 48 45  1  0  0  0  0
 49 42  1  6  0  0  0
 49 43  1  0  0  0  0
 49 50  1  0  0  0  0
 50 52  1  6  0  0  0
 50 47  1  0  0  0  0
 51 43  2  0  0  0  0
 53 52  1  0  0  0  0
M  END
>  <MODEL>
8

>  <REMARK>
 VINA RESULT:      -2.5      2.927      7.835
  Name = 
  20 active torsions:
  status: ('A' for Active; 'I' for Inactive)
    1  A    between atoms: C_1  and  C_30
    2  A    between atoms: C_2  and  N_37
    3  A    between atoms: N_5  and  C_42
    4  A    between atoms: C_6  and  C_14
    5  A    between atoms: C_6  and  C_22
    6  A    between atoms: C_7  and  C_48
    7  A    between atoms: C_7  and  O_53
    8  A    between atoms: C_8  and  C_17
    9  A    between atoms: O_13  and  C_47
   10  A    between atoms: C_14  and  C_52
   11  A    between atoms: C_17  and  C_42
   12  A    between atoms: C_17  and  O_53
   13  A    between atoms: C_21  and  C_30
   14  A    between atoms: C_22  and  C_27
   15  A    between atoms: C_25  and  C_39
   16  A    between atoms: N_35  and  C_50
   17  A    between atoms: C_36  and  C_52
   18  A    between atoms: C_38  and  C_48
   19  A    between atoms: C_39  and  C_40
   20  A    between atoms: C_40  and  C_50
                            x       y       z     vdW  Elec       q    Type
                         _______ _______ _______ _____ _____    ______ ____

>  <TORSDO>
F 20

$$$$
