=
 OpenBabel11052410163D

 25 28  0  0  1  0  0  0  0  0999 V2000
  161.1130  207.7160  148.3960 N   0  0  0  0  0  0  0  0  0  0  0  0
  161.0900  205.3850  148.2270 C   0  0  1  0  0  3  0  0  0  0  0  0
  161.1830  205.8330  149.6610 C   0  0  0  0  0  0  0  0  0  0  0  0
  161.1800  205.0260  150.7390 C   0  0  0  0  0  0  0  0  0  0  0  0
  161.4770  206.6980  152.5860 N   0  0  0  0  0  0  0  0  0  0  0  0
  161.0010  206.6450  147.5070 N   0  0  0  0  0  2  0  0  0  0  0  0
  161.3620  205.4900  152.1260 C   0  0  0  0  0  3  0  0  0  0  0  0
  161.4620  207.9820  151.9550 C   0  0  0  0  0  3  0  0  0  0  0  0
  161.2250  207.2900  149.6060 C   0  0  0  0  0  0  0  0  0  0  0  0
  161.3500  208.2090  150.6860 N   0  0  0  0  0  0  0  0  0  0  0  0
  161.5500  202.6960  151.3890 N   0  0  0  0  0  0  0  0  0  0  0  0
  160.2530  202.9040  149.4830 C   0  0  0  0  0  2  0  0  0  0  0  0
  160.4230  201.4170  149.7920 C   0  0  2  0  0  3  0  0  0  0  0  0
  161.2500  201.3970  150.9850 N   0  0  0  0  0  2  0  0  0  0  0  0
  161.0060  203.5560  150.6000 C   0  0  0  0  0  0  0  0  0  0  0  0
  161.1300  200.7610  148.6910 C   0  0  0  0  0  0  0  0  0  0  0  0
  161.6880  200.2410  147.8210 N   0  0  0  0  0  0  0  0  0  0  0  0
  162.3490  204.6790  147.8210 C   0  0  0  0  0  3  0  0  0  0  0  0
  162.4610  203.8960  146.7460 C   0  0  0  0  0  3  0  0  0  0  0  0
  161.3800  203.5720  145.7980 C   0  0  0  0  0  0  0  0  0  0  0  0
  159.9560  203.7710  144.1030 N   0  0  0  0  0  0  0  0  0  0  0  0
  159.8160  202.5830  144.7350 C   0  0  0  0  0  3  0  0  0  0  0  0
  160.9410  204.3770  144.7810 C   0  0  0  0  0  0  0  0  0  0  0  0
  161.4400  205.6720  144.4660 N   0  0  0  0  0  1  0  0  0  0  0  0
  160.6710  202.4280  145.7730 N   0  0  0  0  0  2  0  0  0  0  0  0
  1  9  2  0  0  0  0
  2 18  1  6  0  0  0
  2  3  1  0  0  0  0
  3  4  2  0  0  0  0
  4  7  1  0  0  0  0
  6  2  1  0  0  0  0
  6  1  1  0  0  0  0
  7  5  2  0  0  0  0
  8  5  1  0  0  0  0
  9  3  1  0  0  0  0
  9 10  1  0  0  0  0
 10  8  2  0  0  0  0
 12 13  1  0  0  0  0
 12 15  1  0  0  0  0
 13 16  1  6  0  0  0
 13 14  1  0  0  0  0
 14 11  1  0  0  0  0
 15  4  1  0  0  0  0
 15 11  2  0  0  0  0
 17 16  3  0  0  0  0
 19 18  2  0  0  0  0
 20 19  1  0  0  0  0
 21 22  2  0  0  0  0
 21 23  1  0  0  0  0
 22 25  1  0  0  0  0
 23 20  2  0  0  0  0
 24 23  1  0  0  0  0
 25 20  1  0  0  0  0
M  END
>  <MODEL>
1

>  <REMARK>
 VINA RESULT:      -7.9      0.000      0.000
  Name = 
  4 active torsions:
  status: ('A' for Active; 'I' for Inactive)
    1  A    between atoms: C_3  and  C_6
    2  A    between atoms: C_4  and  C_16
    3  A    between atoms: C_8  and  C_12
    4  A    between atoms: C_10  and  C_22
                            x       y       z     vdW  Elec       q    Type
                         _______ _______ _______ _____ _____    ______ ____

>  <TORSDO>
F 4

$$$$
=
 OpenBabel11052410163D

 25 28  0  0  1  0  0  0  0  0999 V2000
  160.6330  202.8870  152.1800 N   0  0  0  0  0  0  0  0  0  0  0  0
  161.0620  204.9070  151.0850 C   0  0  1  0  0  3  0  0  0  0  0  0
  161.0590  203.7480  150.1240 C   0  0  0  0  0  0  0  0  0  0  0  0
  161.2070  203.8330  148.7880 C   0  0  0  0  0  0  0  0  0  0  0  0
  161.1660  201.4070  148.1490 N   0  0  0  0  0  0  0  0  0  0  0  0
  160.7340  204.2690  152.3490 N   0  0  0  0  0  2  0  0  0  0  0  0
  161.2890  202.6710  147.8840 C   0  0  0  0  0  3  0  0  0  0  0  0
  160.9060  200.6900  149.3590 C   0  0  0  0  0  3  0  0  0  0  0  0
  160.8190  202.5680  150.9470 C   0  0  0  0  0  0  0  0  0  0  0  0
  160.7580  201.2050  150.5370 N   0  0  0  0  0  0  0  0  0  0  0  0
  162.1590  205.3940  147.1620 N   0  0  0  0  0  0  0  0  0  0  0  0
  160.5390  206.3650  148.5010 C   0  0  0  0  0  2  0  0  0  0  0  0
  161.0650  207.4240  147.5320 C   0  0  2  0  0  3  0  0  0  0  0  0
  162.0710  206.7230  146.7550 N   0  0  0  0  0  2  0  0  0  0  0  0
  161.3200  205.1500  148.1080 C   0  0  0  0  0  0  0  0  0  0  0  0
  161.6940  208.5130  148.2840 C   0  0  0  0  0  0  0  0  0  0  0  0
  162.1920  209.3730  148.8760 N   0  0  0  0  0  0  0  0  0  0  0  0
  162.4350  205.5000  151.1780 C   0  0  0  0  0  3  0  0  0  0  0  0
  162.7040  206.7010  151.6960 C   0  0  0  0  0  3  0  0  0  0  0  0
  161.7130  207.6500  152.2350 C   0  0  0  0  0  0  0  0  0  0  0  0
  160.3400  208.6490  153.6680 N   0  0  0  0  0  0  0  0  0  0  0  0
  160.3390  209.2660  152.4640 C   0  0  0  0  0  3  0  0  0  0  0  0
  161.2070  207.6400  153.5070 C   0  0  2  0  0  3  0  0  0  0  0  0
  161.5380  206.7080  154.5300 N   0  0  0  0  0  1  0  0  0  0  0  0
  161.1670  208.6820  151.5670 N   0  0  0  0  0  0  0  0  0  0  0  0
  1  6  1  0  0  0  0
  2 18  1  1  0  0  0
  2  6  1  0  0  0  0
  3  9  1  0  0  0  0
  3  2  1  0  0  0  0
  4  3  2  0  0  0  0
  5  8  1  0  0  0  0
  7  5  2  0  0  0  0
  7  4  1  0  0  0  0
  8 10  2  0  0  0  0
  9  1  2  0  0  0  0
 10  9  1  0  0  0  0
 11 15  2  0  0  0  0
 13 16  1  1  0  0  0
 13 12  1  0  0  0  0
 14 11  1  0  0  0  0
 14 13  1  0  0  0  0
 15 12  1  0  0  0  0
 15  4  1  0  0  0  0
 16 17  3  0  0  0  0
 18 19  2  0  0  0  0
 19 20  1  0  0  0  0
 20 23  1  0  0  0  0
 22 21  2  0  0  0  0
 23 21  1  0  0  0  0
 23 24  1  1  0  0  0
 25 20  2  0  0  0  0
 25 22  1  0  0  0  0
M  END
>  <MODEL>
2

>  <REMARK>
 VINA RESULT:      -7.6      1.894      6.809
  Name = 
  4 active torsions:
  status: ('A' for Active; 'I' for Inactive)
    1  A    between atoms: C_3  and  C_6
    2  A    between atoms: C_4  and  C_16
    3  A    between atoms: C_8  and  C_12
    4  A    between atoms: C_10  and  C_22
                            x       y       z     vdW  Elec       q    Type
                         _______ _______ _______ _____ _____    ______ ____

>  <TORSDO>
F 4

$$$$
=
 OpenBabel11052410163D

 25 28  0  0  1  0  0  0  0  0999 V2000
  160.6820  203.5060  152.3580 N   0  0  0  0  0  0  0  0  0  0  0  0
  161.1350  205.2020  150.8160 C   0  0  1  0  0  3  0  0  0  0  0  0
  161.0710  203.8540  150.1500 C   0  0  0  0  0  0  0  0  0  0  0  0
  161.1810  203.6240  148.8270 C   0  0  0  0  0  0  0  0  0  0  0  0
  161.0510  201.1190  148.7680 N   0  0  0  0  0  0  0  0  0  0  0  0
  160.8280  204.8850  152.2010 N   0  0  0  0  0  2  0  0  0  0  0  0
  161.2030  202.2830  148.2150 C   0  0  0  0  0  3  0  0  0  0  0  0
  160.8080  200.7100  150.1170 C   0  0  0  0  0  3  0  0  0  0  0  0
  160.8210  202.9040  151.2290 C   0  0  0  0  0  0  0  0  0  0  0  0
  160.7100  201.4870  151.1460 N   0  0  0  0  0  0  0  0  0  0  0  0
  160.5090  205.7500  147.8200 N   0  0  0  0  0  0  0  0  0  0  0  0
  162.3320  204.7900  146.7650 C   0  0  0  0  0  2  0  0  0  0  0  0
  161.9990  206.1020  146.0560 C   0  0  2  0  0  3  0  0  0  0  0  0
  160.8490  206.6130  146.7800 N   0  0  0  0  0  2  0  0  0  0  0  0
  161.3120  204.7440  147.8590 C   0  0  0  0  0  0  0  0  0  0  0  0
  161.6250  205.8320  144.6660 C   0  0  0  0  0  0  0  0  0  0  0  0
  161.3290  205.6180  143.5680 N   0  0  0  0  0  0  0  0  0  0  0  0
  162.5280  205.7530  150.7390 C   0  0  0  0  0  3  0  0  0  0  0  0
  162.8790  206.9740  151.1490 C   0  0  0  0  0  3  0  0  0  0  0  0
  161.9730  207.9880  151.7160 C   0  0  0  0  0  0  0  0  0  0  0  0
  160.7520  209.8370  151.8930 N   0  0  0  0  0  0  0  0  0  0  0  0
  160.6310  209.0530  152.9880 C   0  0  0  0  0  3  0  0  0  0  0  0
  161.5960  209.1540  151.1060 C   0  0  0  0  0  0  0  0  0  0  0  0
  162.0190  209.6000  149.8220 N   0  0  0  0  0  1  0  0  0  0  0  0
  161.3610  207.9160  152.9120 N   0  0  0  0  0  2  0  0  0  0  0  0
  2 18  1  1  0  0  0
  2  6  1  0  0  0  0
  3  2  1  0  0  0  0
  3  9  1  0  0  0  0
  4  3  2  0  0  0  0
  5  8  1  0  0  0  0
  6  1  1  0  0  0  0
  7  5  2  0  0  0  0
  7  4  1  0  0  0  0
  8 10  2  0  0  0  0
  9  1  2  0  0  0  0
 10  9  1  0  0  0  0
 11 15  2  0  0  0  0
 12 15  1  0  0  0  0
 13 16  1  6  0  0  0
 13 12  1  0  0  0  0
 13 14  1  0  0  0  0
 14 11  1  0  0  0  0
 15  4  1  0  0  0  0
 17 16  3  0  0  0  0
 18 19  2  0  0  0  0
 19 20  1  0  0  0  0
 20 25  1  0  0  0  0
 21 22  2  0  0  0  0
 23 20  2  0  0  0  0
 23 21  1  0  0  0  0
 24 23  1  0  0  0  0
 25 22  1  0  0  0  0
M  END
>  <MODEL>
3

>  <REMARK>
 VINA RESULT:      -7.4      1.643      6.271
  Name = 
  4 active torsions:
  status: ('A' for Active; 'I' for Inactive)
    1  A    between atoms: C_3  and  C_6
    2  A    between atoms: C_4  and  C_16
    3  A    between atoms: C_8  and  C_12
    4  A    between atoms: C_10  and  C_22
                            x       y       z     vdW  Elec       q    Type
                         _______ _______ _______ _____ _____    ______ ____

>  <TORSDO>
F 4

$$$$
=
 OpenBabel11052410163D

 25 28  0  0  1  0  0  0  0  0999 V2000
  161.5530  209.8070  150.5360 N   0  0  0  0  0  0  0  0  0  0  0  0
  161.5420  207.5970  149.7770 C   0  0  1  0  0  3  0  0  0  0  0  0
  161.4060  207.6660  151.2740 C   0  0  0  0  0  0  0  0  0  0  0  0
  161.2250  206.6160  152.0980 C   0  0  0  0  0  0  0  0  0  0  0  0
  161.2330  207.7560  154.3320 N   0  0  0  0  0  0  0  0  0  0  0  0
  161.5780  209.0000  149.3970 N   0  0  0  0  0  2  0  0  0  0  0  0
  161.1860  206.7080  153.5680 C   0  0  0  0  0  3  0  0  0  0  0  0
  161.3290  209.1560  154.0550 C   0  0  0  0  0  3  0  0  0  0  0  0
  161.4660  209.0870  151.5990 C   0  0  0  0  0  0  0  0  0  0  0  0
  161.4230  209.6990  152.8850 N   0  0  0  0  0  0  0  0  0  0  0  0
  161.7520  204.2300  151.9750 N   0  0  0  0  0  0  0  0  0  0  0  0
  160.1540  204.8790  150.4320 C   0  0  0  0  0  2  0  0  0  0  0  0
  160.4070  203.3820  150.2640 C   0  0  2  0  0  3  0  0  0  0  0  0
  161.4200  203.0810  151.2600 N   0  0  0  0  0  2  0  0  0  0  0  0
  161.0650  205.2380  151.5640 C   0  0  0  0  0  0  0  0  0  0  0  0
  160.9390  203.1160  148.9250 C   0  0  0  0  0  0  0  0  0  0  0  0
  161.3590  202.9080  147.8670 N   0  0  0  0  0  0  0  0  0  0  0  0
  162.8440  206.9560  149.4020 C   0  0  0  0  0  3  0  0  0  0  0  0
  163.0810  206.3560  148.2340 C   0  0  0  0  0  3  0  0  0  0  0  0
  162.1130  206.1970  147.1330 C   0  0  0  0  0  0  0  0  0  0  0  0
  161.2180  205.5070  145.2200 N   0  0  0  0  0  0  0  0  0  0  0  0
  160.3740  206.3140  145.9030 C   0  0  0  0  0  3  0  0  0  0  0  0
  162.3020  205.4440  146.0060 C   0  0  0  0  0  0  0  0  0  0  0  0
  163.4680  204.6910  145.6890 N   0  0  0  0  0  1  0  0  0  0  0  0
  160.8890  206.7510  147.0760 N   0  0  0  0  0  2  0  0  0  0  0  0
  1  9  2  0  0  0  0
  2 18  1  1  0  0  0
  2  3  1  0  0  0  0
  3  9  1  0  0  0  0
  3  4  2  0  0  0  0
  4  7  1  0  0  0  0
  6  2  1  0  0  0  0
  6  1  1  0  0  0  0
  7  5  2  0  0  0  0
  8  5  1  0  0  0  0
  9 10  1  0  0  0  0
 10  8  2  0  0  0  0
 12 15  1  0  0  0  0
 13 16  1  6  0  0  0
 13 12  1  0  0  0  0
 13 14  1  0  0  0  0
 14 11  1  0  0  0  0
 15 11  2  0  0  0  0
 15  4  1  0  0  0  0
 17 16  3  0  0  0  0
 19 18  2  0  0  0  0
 20 19  1  0  0  0  0
 21 22  2  0  0  0  0
 21 23  1  0  0  0  0
 22 25  1  0  0  0  0
 23 20  2  0  0  0  0
 24 23  1  0  0  0  0
 25 20  1  0  0  0  0
M  END
>  <MODEL>
4

>  <REMARK>
 VINA RESULT:      -6.8      1.790      2.641
  Name = 
  4 active torsions:
  status: ('A' for Active; 'I' for Inactive)
    1  A    between atoms: C_3  and  C_6
    2  A    between atoms: C_4  and  C_16
    3  A    between atoms: C_8  and  C_12
    4  A    between atoms: C_10  and  C_22
                            x       y       z     vdW  Elec       q    Type
                         _______ _______ _______ _____ _____    ______ ____

>  <TORSDO>
F 4

$$$$
=
 OpenBabel11052410163D

 25 28  0  0  1  0  0  0  0  0999 V2000
  161.4970  205.3780  152.8980 N   0  0  0  0  0  0  0  0  0  0  0  0
  161.5280  206.3850  150.7890 C   0  0  1  0  0  3  0  0  0  0  0  0
  161.5130  207.4110  151.8900 C   0  0  0  0  0  0  0  0  0  0  0  0
  161.5830  208.7450  151.7230 C   0  0  0  0  0  0  0  0  0  0  0  0
  161.3790  209.5330  154.0970 N   0  0  0  0  0  0  0  0  0  0  0  0
  161.5670  205.1320  151.5250 N   0  0  0  0  0  2  0  0  0  0  0  0
  161.4760  209.7280  152.8170 C   0  0  0  0  0  3  0  0  0  0  0  0
  161.3480  208.3490  154.8990 C   0  0  0  0  0  3  0  0  0  0  0  0
  161.4570  206.6430  153.1300 C   0  0  0  0  0  0  0  0  0  0  0  0
  161.3870  207.1310  154.4660 N   0  0  0  0  0  0  0  0  0  0  0  0
  162.3160  208.7290  149.3890 N   0  0  0  0  0  0  0  0  0  0  0  0
  161.3960  210.7540  150.0300 C   0  0  0  0  0  2  0  0  0  0  0  0
  161.8210  210.8580  148.5660 C   0  0  2  0  0  3  0  0  0  0  0  0
  162.3880  209.5550  148.2690 N   0  0  0  0  0  2  0  0  0  0  0  0
  161.7610  209.3440  150.3750 C   0  0  0  0  0  0  0  0  0  0  0  0
  162.8520  211.8880  148.4210 C   0  0  0  0  0  0  0  0  0  0  0  0
  163.6660  212.7020  148.3060 N   0  0  0  0  0  0  0  0  0  0  0  0
  160.2540  206.4490  150.0020 C   0  0  0  0  0  3  0  0  0  0  0  0
  160.1270  206.0430  148.7370 C   0  0  0  0  0  3  0  0  0  0  0  0
  161.2050  205.4920  147.8960 C   0  0  0  0  0  0  0  0  0  0  0  0
  162.5830  204.0180  146.9630 N   0  0  0  0  0  0  0  0  0  0  0  0
  162.7970  205.2690  146.4930 C   0  0  0  0  0  3  0  0  0  0  0  0
  161.5810  204.1770  147.8400 C   0  0  2  0  0  3  0  0  0  0  0  0
  161.0080  203.1110  148.5900 N   0  0  0  0  0  1  0  0  0  0  0  0
  161.9720  206.1910  147.0410 N   0  0  0  0  0  0  0  0  0  0  0  0
  1  9  2  0  0  0  0
  2 18  1  1  0  0  0
  2  6  1  0  0  0  0
  2  3  1  0  0  0  0
  3  9  1  0  0  0  0
  4  3  2  0  0  0  0
  4  7  1  0  0  0  0
  5  8  1  0  0  0  0
  6  1  1  0  0  0  0
  7  5  2  0  0  0  0
  9 10  1  0  0  0  0
 10  8  2  0  0  0  0
 11 15  2  0  0  0  0
 12 15  1  0  0  0  0
 13 16  1  1  0  0  0
 13 12  1  0  0  0  0
 14 13  1  0  0  0  0
 14 11  1  0  0  0  0
 15  4  1  0  0  0  0
 17 16  3  0  0  0  0
 19 18  2  0  0  0  0
 20 19  1  0  0  0  0
 21 23  1  0  0  0  0
 22 21  2  0  0  0  0
 22 25  1  0  0  0  0
 23 20  1  0  0  0  0
 23 24  1  6  0  0  0
 25 20  2  0  0  0  0
M  END
>  <MODEL>
5

>  <REMARK>
 VINA RESULT:      -6.6      2.488      5.842
  Name = 
  4 active torsions:
  status: ('A' for Active; 'I' for Inactive)
    1  A    between atoms: C_3  and  C_6
    2  A    between atoms: C_4  and  C_16
    3  A    between atoms: C_8  and  C_12
    4  A    between atoms: C_10  and  C_22
                            x       y       z     vdW  Elec       q    Type
                         _______ _______ _______ _____ _____    ______ ____

>  <TORSDO>
F 4

$$$$
=
 OpenBabel11052410163D

 25 28  0  0  1  0  0  0  0  0999 V2000
  161.8070  207.6710  152.3240 N   0  0  0  0  0  0  0  0  0  0  0  0
  161.5330  206.0230  150.6890 C   0  0  1  0  0  3  0  0  0  0  0  0
  161.7840  207.3740  150.0740 C   0  0  0  0  0  0  0  0  0  0  0  0
  161.9150  207.6270  148.7580 C   0  0  0  0  0  0  0  0  0  0  0  0
  162.1880  210.1210  148.7780 N   0  0  0  0  0  0  0  0  0  0  0  0
  161.6160  206.3040  152.1130 N   0  0  0  0  0  2  0  0  0  0  0  0
  162.0710  208.9750  148.1810 C   0  0  0  0  0  3  0  0  0  0  0  0
  162.2190  210.4990  150.1580 C   0  0  0  0  0  3  0  0  0  0  0  0
  161.8960  208.2940  151.2010 C   0  0  0  0  0  0  0  0  0  0  0  0
  162.0970  209.7030  151.1710 N   0  0  0  0  0  0  0  0  0  0  0  0
  162.8920  205.7520  147.5270 N   0  0  0  0  0  0  0  0  0  0  0  0
  160.7390  206.2560  146.8410 C   0  0  0  0  0  2  0  0  0  0  0  0
  161.2490  205.0810  146.0080 C   0  0  2  0  0  3  0  0  0  0  0  0
  162.5950  204.8540  146.5050 N   0  0  0  0  0  2  0  0  0  0  0  0
  161.8910  206.5300  147.7570 C   0  0  0  0  0  0  0  0  0  0  0  0
  161.3040  205.4620  144.5950 C   0  0  0  0  0  0  0  0  0  0  0  0
  161.3480  205.7640  143.4790 N   0  0  0  0  0  0  0  0  0  0  0  0
  160.1470  205.5540  150.3640 C   0  0  0  0  0  3  0  0  0  0  0  0
  159.7650  204.2750  150.3610 C   0  0  0  0  0  3  0  0  0  0  0  0
  160.6290  203.1160  150.6470 C   0  0  0  0  0  0  0  0  0  0  0  0
  161.6810  201.1760  150.3820 N   0  0  0  0  0  0  0  0  0  0  0  0
  161.9980  201.7580  151.5610 C   0  0  0  0  0  3  0  0  0  0  0  0
  160.8230  202.0410  149.8220 C   0  0  0  0  0  0  0  0  0  0  0  0
  160.2180  201.8450  148.5480 N   0  0  0  0  0  1  0  0  0  0  0  0
  161.3750  202.9440  151.7530 N   0  0  0  0  0  2  0  0  0  0  0  0
  2 18  1  1  0  0  0
  2  6  1  0  0  0  0
  3  2  1  0  0  0  0
  3  9  1  0  0  0  0
  4  3  2  0  0  0  0
  5  8  1  0  0  0  0
  6  1  1  0  0  0  0
  7  4  1  0  0  0  0
  7  5  2  0  0  0  0
  8 10  2  0  0  0  0
  9  1  2  0  0  0  0
 10  9  1  0  0  0  0
 11 15  2  0  0  0  0
 12 15  1  0  0  0  0
 13 16  1  6  0  0  0
 13 14  1  0  0  0  0
 13 12  1  0  0  0  0
 14 11  1  0  0  0  0
 15  4  1  0  0  0  0
 17 16  3  0  0  0  0
 19 18  2  0  0  0  0
 19 20  1  0  0  0  0
 20 25  1  0  0  0  0
 21 22  2  0  0  0  0
 22 25  1  0  0  0  0
 23 21  1  0  0  0  0
 23 20  2  0  0  0  0
 24 23  1  0  0  0  0
M  END
>  <MODEL>
6

>  <REMARK>
 VINA RESULT:      -6.5      1.680      4.905
  Name = 
  4 active torsions:
  status: ('A' for Active; 'I' for Inactive)
    1  A    between atoms: C_3  and  C_6
    2  A    between atoms: C_4  and  C_16
    3  A    between atoms: C_8  and  C_12
    4  A    between atoms: C_10  and  C_22
                            x       y       z     vdW  Elec       q    Type
                         _______ _______ _______ _____ _____    ______ ____

>  <TORSDO>
F 4

$$$$
=
 OpenBabel11052410163D

 25 28  0  0  1  0  0  0  0  0999 V2000
  161.9870  205.6740  152.1400 N   0  0  0  0  0  0  0  0  0  0  0  0
  161.4700  204.4590  150.2130 C   0  0  1  0  0  3  0  0  0  0  0  0
  161.7290  205.9070  149.8980 C   0  0  0  0  0  0  0  0  0  0  0  0
  161.7430  206.4560  148.6680 C   0  0  0  0  0  0  0  0  0  0  0  0
  162.1460  208.8680  149.2260 N   0  0  0  0  0  0  0  0  0  0  0  0
  161.7060  204.4000  151.6460 N   0  0  0  0  0  2  0  0  0  0  0  0
  161.9120  207.8950  148.4000 C   0  0  0  0  0  3  0  0  0  0  0  0
  162.3310  208.9140  150.6440 C   0  0  0  0  0  3  0  0  0  0  0  0
  161.9980  206.5380  151.1860 C   0  0  0  0  0  0  0  0  0  0  0  0
  162.2670  207.9100  151.4560 N   0  0  0  0  0  0  0  0  0  0  0  0
  162.3110  204.6110  147.1640 N   0  0  0  0  0  0  0  0  0  0  0  0
  160.5600  205.9070  146.3800 C   0  0  0  0  0  2  0  0  0  0  0  0
  160.8310  204.7950  145.3660 C   0  0  2  0  0  3  0  0  0  0  0  0
  161.9400  204.0550  145.9420 N   0  0  0  0  0  2  0  0  0  0  0  0
  161.5650  205.6210  147.4510 C   0  0  0  0  0  0  0  0  0  0  0  0
  161.2400  205.3800  144.0870 C   0  0  0  0  0  0  0  0  0  0  0  0
  161.5650  205.8410  143.0770 N   0  0  0  0  0  0  0  0  0  0  0  0
  160.0360  204.1160  149.9390 C   0  0  0  0  0  3  0  0  0  0  0  0
  159.6310  203.0040  149.3210 C   0  0  0  0  0  3  0  0  0  0  0  0
  160.5070  201.9470  148.7860 C   0  0  0  0  0  0  0  0  0  0  0  0
  161.8900  200.2080  148.7270 N   0  0  0  0  0  0  0  0  0  0  0  0
  161.5830  200.6430  147.4840 C   0  0  0  0  0  3  0  0  0  0  0  0
  161.2060  201.0360  149.5310 C   0  0  2  0  0  3  0  0  0  0  0  0
  161.2210  200.9530  150.9520 N   0  0  0  0  0  1  0  0  0  0  0  0
  160.7400  201.7020  147.4840 N   0  0  0  0  0  0  0  0  0  0  0  0
  2 18  1  1  0  0  0
  2  6  1  0  0  0  0
  3  2  1  0  0  0  0
  3  9  1  0  0  0  0
  4  3  2  0  0  0  0
  5  8  1  0  0  0  0
  6  1  1  0  0  0  0
  7  4  1  0  0  0  0
  7  5  2  0  0  0  0
  8 10  2  0  0  0  0
  9 10  1  0  0  0  0
  9  1  2  0  0  0  0
 11 15  2  0  0  0  0
 12 15  1  0  0  0  0
 13 16  1  6  0  0  0
 13 14  1  0  0  0  0
 13 12  1  0  0  0  0
 14 11  1  0  0  0  0
 15  4  1  0  0  0  0
 17 16  3  0  0  0  0
 19 18  2  0  0  0  0
 20 19  1  0  0  0  0
 20 23  1  0  0  0  0
 21 23  1  0  0  0  0
 22 21  2  0  0  0  0
 23 24  1  6  0  0  0
 25 22  1  0  0  0  0
 25 20  2  0  0  0  0
M  END
>  <MODEL>
7

>  <REMARK>
 VINA RESULT:      -6.2      1.497      4.500
  Name = 
  4 active torsions:
  status: ('A' for Active; 'I' for Inactive)
    1  A    between atoms: C_3  and  C_6
    2  A    between atoms: C_4  and  C_16
    3  A    between atoms: C_8  and  C_12
    4  A    between atoms: C_10  and  C_22
                            x       y       z     vdW  Elec       q    Type
                         _______ _______ _______ _____ _____    ______ ____

>  <TORSDO>
F 4

$$$$
=
 OpenBabel11052410163D

 25 28  0  0  1  0  0  0  0  0999 V2000
  162.3330  210.3280  152.0680 N   0  0  0  0  0  0  0  0  0  0  0  0
  161.8460  208.1710  152.8250 C   0  0  1  0  0  3  0  0  0  0  0  0
  161.8160  208.2490  151.3220 C   0  0  0  0  0  0  0  0  0  0  0  0
  161.6130  207.2140  150.4840 C   0  0  0  0  0  0  0  0  0  0  0  0
  161.6420  208.3840  148.2650 N   0  0  0  0  0  0  0  0  0  0  0  0
  162.2300  209.5220  153.2030 N   0  0  0  0  0  2  0  0  0  0  0  0
  161.5000  207.3380  149.0200 C   0  0  0  0  0  3  0  0  0  0  0  0
  161.9560  209.7500  148.5500 C   0  0  0  0  0  3  0  0  0  0  0  0
  162.0980  209.6440  151.0040 C   0  0  0  0  0  0  0  0  0  0  0  0
  162.1500  210.2630  149.7220 N   0  0  0  0  0  0  0  0  0  0  0  0
  162.3470  205.2360  151.7230 N   0  0  0  0  0  0  0  0  0  0  0  0
  160.3140  204.9290  150.6590 C   0  0  0  0  0  2  0  0  0  0  0  0
  160.6750  203.6380  151.3930 C   0  0  2  0  0  3  0  0  0  0  0  0
  161.9560  203.9300  152.0100 N   0  0  0  0  0  2  0  0  0  0  0  0
  161.4630  205.8270  150.9970 C   0  0  0  0  0  0  0  0  0  0  0  0
  160.8310  202.5470  150.4280 C   0  0  0  0  0  0  0  0  0  0  0  0
  160.9550  201.6850  149.6660 N   0  0  0  0  0  0  0  0  0  0  0  0
  160.4740  207.8860  153.3580 C   0  0  0  0  0  3  0  0  0  0  0  0
  160.0800  208.1500  154.6050 C   0  0  0  0  0  3  0  0  0  0  0  0
  160.9170  208.7340  155.6690 C   0  0  0  0  0  0  0  0  0  0  0  0
  161.7520  210.2240  157.0910 N   0  0  0  0  0  0  0  0  0  0  0  0
  162.3310  209.0110  157.2430 C   0  0  0  0  0  3  0  0  0  0  0  0
  160.8670  210.0320  156.1020 C   0  0  0  0  0  0  0  0  0  0  0  0
  160.0090  211.0490  155.5970 N   0  0  0  0  0  1  0  0  0  0  0  0
  161.8430  208.0780  156.3910 N   0  0  0  0  0  2  0  0  0  0  0  0
  1  6  1  0  0  0  0
  2  6  1  0  0  0  0
  2 18  1  1  0  0  0
  3  2  1  0  0  0  0
  4 15  1  0  0  0  0
  4  3  2  0  0  0  0
  5  8  1  0  0  0  0
  5  7  2  0  0  0  0
  7  4  1  0  0  0  0
  8 10  2  0  0  0  0
  9  3  1  0  0  0  0
  9  1  2  0  0  0  0
 10  9  1  0  0  0  0
 11 14  1  0  0  0  0
 12 15  1  0  0  0  0
 12 13  1  0  0  0  0
 13 16  1  6  0  0  0
 13 14  1  0  0  0  0
 15 11  2  0  0  0  0
 17 16  3  0  0  0  0
 18 19  2  0  0  0  0
 19 20  1  0  0  0  0
 20 23  2  0  0  0  0
 20 25  1  0  0  0  0
 21 22  2  0  0  0  0
 23 21  1  0  0  0  0
 24 23  1  0  0  0  0
 25 22  1  0  0  0  0
M  END
>  <MODEL>
8

>  <REMARK>
 VINA RESULT:      -5.9      3.023      7.349
  Name = 
  4 active torsions:
  status: ('A' for Active; 'I' for Inactive)
    1  A    between atoms: C_3  and  C_6
    2  A    between atoms: C_4  and  C_16
    3  A    between atoms: C_8  and  C_12
    4  A    between atoms: C_10  and  C_22
                            x       y       z     vdW  Elec       q    Type
                         _______ _______ _______ _____ _____    ______ ____

>  <TORSDO>
F 4

$$$$
=
 OpenBabel11052410163D

 25 28  0  0  1  0  0  0  0  0999 V2000
  161.4580  204.3120  152.9100 N   0  0  0  0  0  0  0  0  0  0  0  0
  161.2290  204.2010  150.5870 C   0  0  1  0  0  3  0  0  0  0  0  0
  161.2980  205.6260  151.0670 C   0  0  0  0  0  0  0  0  0  0  0  0
  161.3050  206.7210  150.2830 C   0  0  0  0  0  0  0  0  0  0  0  0
  161.3290  208.5420  152.0090 N   0  0  0  0  0  0  0  0  0  0  0  0
  161.3880  203.4440  151.8180 N   0  0  0  0  0  2  0  0  0  0  0  0
  161.2820  208.1060  150.7880 C   0  0  0  0  0  3  0  0  0  0  0  0
  161.4250  207.8790  153.2730 C   0  0  0  0  0  3  0  0  0  0  0  0
  161.4010  205.5370  152.5190 C   0  0  0  0  0  0  0  0  0  0  0  0
  161.4580  206.6000  153.4650 N   0  0  0  0  0  0  0  0  0  0  0  0
  160.2640  206.3710  148.0960 N   0  0  0  0  0  0  0  0  0  0  0  0
  162.5570  206.6660  147.9660 C   0  0  0  0  0  2  0  0  0  0  0  0
  162.0160  206.4530  146.5530 C   0  0  2  0  0  3  0  0  0  0  0  0
  160.5890  206.2690  146.7450 N   0  0  0  0  0  2  0  0  0  0  0  0
  161.3160  206.6070  148.8010 C   0  0  0  0  0  0  0  0  0  0  0  0
  162.5960  205.2360  145.9800 C   0  0  0  0  0  0  0  0  0  0  0  0
  163.0530  204.2750  145.5260 N   0  0  0  0  0  0  0  0  0  0  0  0
  159.8760  203.9130  150.0080 C   0  0  0  0  0  3  0  0  0  0  0  0
  159.5840  202.8410  149.2680 C   0  0  0  0  0  3  0  0  0  0  0  0
  160.5310  201.7810  148.8740 C   0  0  0  0  0  0  0  0  0  0  0  0
  161.8140  200.4940  147.5950 N   0  0  0  0  0  0  0  0  0  0  0  0
  161.9230  200.1640  148.9020 C   0  0  0  0  0  3  0  0  0  0  0  0
  160.9390  201.5100  147.5960 C   0  0  0  0  0  0  0  0  0  0  0  0
  160.5150  202.1930  146.4210 N   0  0  0  0  0  1  0  0  0  0  0  0
  161.1540  200.9310  149.7100 N   0  0  0  0  0  2  0  0  0  0  0  0
  2 18  1  1  0  0  0
  2  3  1  0  0  0  0
  2  6  1  0  0  0  0
  3  9  1  0  0  0  0
  4  7  1  0  0  0  0
  4  3  2  0  0  0  0
  5  8  1  0  0  0  0
  6  1  1  0  0  0  0
  7  5  2  0  0  0  0
  8 10  2  0  0  0  0
  9  1  2  0  0  0  0
  9 10  1  0  0  0  0
 11 15  2  0  0  0  0
 12 15  1  0  0  0  0
 13 16  1  1  0  0  0
 13 14  1  0  0  0  0
 13 12  1  0  0  0  0
 14 11  1  0  0  0  0
 15  4  1  0  0  0  0
 17 16  3  0  0  0  0
 19 18  2  0  0  0  0
 20 19  1  0  0  0  0
 20 25  1  0  0  0  0
 21 23  1  0  0  0  0
 21 22  2  0  0  0  0
 22 25  1  0  0  0  0
 23 20  2  0  0  0  0
 24 23  1  0  0  0  0
M  END
>  <MODEL>
9

>  <REMARK>
 VINA RESULT:      -5.8      1.524      4.236
  Name = 
  4 active torsions:
  status: ('A' for Active; 'I' for Inactive)
    1  A    between atoms: C_3  and  C_6
    2  A    between atoms: C_4  and  C_16
    3  A    between atoms: C_8  and  C_12
    4  A    between atoms: C_10  and  C_22
                            x       y       z     vdW  Elec       q    Type
                         _______ _______ _______ _____ _____    ______ ____

>  <TORSDO>
F 4

$$$$
