=
 OpenBabel11042420563D

 46 48  0  0  1  0  0  0  0  0999 V2000
  162.1960  209.8130  151.6170 C   0  0  0  0  0  3  0  0  0  0  0  0
  162.1440  208.5080  151.3270 C   0  0  0  0  0  0  0  0  0  0  0  0
  161.6190  208.0600  150.1070 O   0  0  0  0  0  0  0  0  0  0  0  0
  162.4800  207.6590  147.8900 C   0  0  0  0  0  1  0  0  0  0  0  0
  161.9000  208.6770  148.8560 C   0  0  0  0  0  2  0  0  0  0  0  0
  162.6480  207.4850  152.2970 C   0  0  0  0  0  2  0  0  0  0  0  0
  162.5250  206.0840  151.7170 C   0  0  0  0  0  2  0  0  0  0  0  0
  161.2070  205.4640  153.6060 O   0  0  0  0  0  1  0  0  0  0  0  0
  161.2590  205.4030  152.2110 C   0  0  2  0  0  3  0  0  0  0  0  0
  161.2550  204.0140  151.7830 N   0  0  0  0  0  2  0  0  0  0  0  0
  160.4640  203.9350  150.5620 C   0  0  1  0  0  3  0  0  0  0  0  0
  160.5120  205.2690  149.8320 C   0  0  0  0  0  1  0  0  0  0  0  0
  161.9920  203.1910  148.6390 C   0  0  0  0  0  2  0  0  0  0  0  0
  159.7470  201.9780  149.1350 C   0  0  0  0  0  2  0  0  0  0  0  0
  160.1390  200.5670  148.6920 C   0  0  0  0  0  2  0  0  0  0  0  0
  161.6170  203.0050  147.1560 C   0  0  1  0  0  3  0  0  0  0  0  0
  160.9350  202.7680  149.6870 C   0  0  2  0  0  3  0  0  0  0  0  0
  161.3930  200.5190  147.8180 C   0  0  0  0  0  2  0  0  0  0  0  0
  161.3630  201.5560  146.6960 C   0  0  0  0  0  2  0  0  0  0  0  0
  160.4860  203.9340  146.7350 C   0  0  0  0  0  2  0  0  0  0  0  0
  159.9890  205.4320  144.9120 O   0  0  0  0  0  1  0  0  0  0  0  0
  160.9900  205.0320  145.8040 C   0  0  2  0  0  3  0  0  0  0  0  0
  163.0830  205.5240  145.3890 O   0  0  0  0  0  1  0  0  0  0  0  0
  162.1480  204.6320  145.1140 O   0  0  0  0  0  0  0  0  0  0  0  0
  162.7500  210.3470  152.8980 C   0  0  0  0  0  2  0  0  0  0  0  0
  162.3190  210.7570  155.5720 S   0  0  0  0  0  0  0  0  0  0  0  0
  160.6700  209.3980  153.8390 C   0  0  0  0  0  2  0  0  0  0  0  0
  161.6300  210.5740  153.8970 C   0  0  2  0  0  3  0  0  0  0  0  0
  159.3640  209.5530  156.0410 C   0  0  2  0  0  3  0  0  0  0  0  0
  160.8470  211.6730  156.1150 C   0  0  0  0  0  2  0  0  0  0  0  0
  159.3340  209.7130  154.5130 C   0  0  0  0  0  2  0  0  0  0  0  0
  159.8530  210.7720  156.8420 C   0  0  1  0  0  3  0  0  0  0  0  0
  160.0200  208.2900  156.5060 C   0  0  0  0  0  3  0  0  0  0  0  0
  159.4520  207.2190  156.3850 O   0  0  0  0  0  0  0  0  0  0  0  0
  158.7140  211.5740  157.2610 N   0  0  0  0  0  2  0  0  0  0  0  0
  158.6490  212.7360  156.3870 C   0  0  0  0  0  2  0  0  0  0  0  0
  157.2020  212.9760  155.9510 C   0  0  1  0  0  3  0  0  0  0  0  0
  157.1240  213.0580  154.4110 C   0  0  0  0  0  3  0  0  0  0  0  0
  156.3780  214.3840  152.4130 C   0  0  0  0  0  2  0  0  0  0  0  0
  158.5050  212.8980  153.7620 C   0  0  0  0  0  2  0  0  0  0  0  0
  158.3840  212.8980  152.2420 C   0  0  0  0  0  2  0  0  0  0  0  0
  157.7490  214.2010  151.7670 C   0  0  0  0  0  2  0  0  0  0  0  0
  156.5100  214.3790  153.9320 C   0  0  0  0  0  2  0  0  0  0  0  0
  155.9180  210.8880  155.4050 C   0  0  0  0  0  1  0  0  0  0  0  0
  156.2890  211.8650  156.5040 C   0  0  2  0  0  3  0  0  0  0  0  0
  155.1070  212.3910  157.0330 O   0  0  0  0  0  1  0  0  0  0  0  0
  1 25  1  0  0  0  0
  2  1  2  0  0  0  0
  2  6  1  0  0  0  0
  3  2  1  0  0  0  0
  4  5  1  0  0  0  0
  5  3  1  0  0  0  0
  7  9  1  0  0  0  0
  7  6  1  0  0  0  0
  9  8  1  1  0  0  0
 10  9  1  0  0  0  0
 11 12  1  6  0  0  0
 11 10  1  0  0  0  0
 13 17  1  0  0  0  0
 14 17  1  0  0  0  0
 15 14  1  0  0  0  0
 16 20  1  1  0  0  0
 16 13  1  0  0  0  0
 17 11  1  6  0  0  0
 18 15  1  0  0  0  0
 19 16  1  0  0  0  0
 19 18  1  0  0  0  0
 22 21  1  6  0  0  0
 22 20  1  0  0  0  0
 24 23  1  0  0  0  0
 24 22  1  0  0  0  0
 26 30  1  0  0  0  0
 27 28  1  0  0  0  0
 27 31  1  0  0  0  0
 28 25  1  6  0  0  0
 28 26  1  0  0  0  0
 29 33  1  6  0  0  0
 29 32  1  0  0  0  0
 30 32  1  0  0  0  0
 31 29  1  0  0  0  0
 32 35  1  6  0  0  0
 34 33  2  0  0  0  0
 36 35  1  0  0  0  0
 37 36  1  6  0  0  0
 37 45  1  0  0  0  0
 38 37  1  0  0  0  0
 39 43  1  0  0  0  0
 40 38  1  0  0  0  0
 41 40  1  0  0  0  0
 42 41  1  0  0  0  0
 42 39  1  0  0  0  0
 43 38  1  0  0  0  0
 45 44  1  6  0  0  0
 45 46  1  0  0  0  0
M  END
>  <MODEL>
1

>  <REMARK>
 VINA RESULT:      -4.7      0.000      0.000
  Name = 
  19 active torsions:
  status: ('A' for Active; 'I' for Inactive)
    1  A    between atoms: O_4  and  C_14
    2  A    between atoms: O_4  and  C_19
    3  A    between atoms: C_6  and  C_31
    4  A    between atoms: C_6  and  C_41
    5  A    between atoms: C_9  and  C_33
    6  A    between atoms: C_13  and  C_42
    7  A    between atoms: C_16  and  O_32
    8  A    between atoms: C_16  and  C_44
    9  A    between atoms: C_17  and  C_42
   10  A    between atoms: C_18  and  C_24
   11  A    between atoms: C_19  and  C_31
   12  A    between atoms: C_20  and  C_44
   13  A    between atoms: N_21  and  C_29
   14  A    between atoms: N_21  and  C_41
   15  A    between atoms: C_22  and  C_29
   16  A    between atoms: C_23  and  C_33
   17  A    between atoms: N_27  and  C_39
   18  A    between atoms: N_27  and  C_43
   19  A    between atoms: C_33  and  C_43
                            x       y       z     vdW  Elec       q    Type
                         _______ _______ _______ _____ _____    ______ ____

>  <TORSDO>
F 19

$$$$
=
 OpenBabel11042420563D

 46 48  0  0  1  0  0  0  0  0999 V2000
  160.4550  207.6650  155.3130 C   0  0  0  0  0  3  0  0  0  0  0  0
  160.9070  207.0800  154.1970 C   0  0  0  0  0  0  0  0  0  0  0  0
  160.6140  205.7390  153.9170 O   0  0  0  0  0  0  0  0  0  0  0  0
  160.7240  203.6000  152.8070 C   0  0  0  0  0  1  0  0  0  0  0  0
  160.9670  205.0940  152.6980 C   0  0  0  0  0  2  0  0  0  0  0  0
  161.7370  207.8430  153.2120 C   0  0  0  0  0  2  0  0  0  0  0  0
  160.9150  208.2160  151.9880 C   0  0  0  0  0  2  0  0  0  0  0  0
  162.1780  209.2100  150.2240 O   0  0  0  0  0  1  0  0  0  0  0  0
  161.7100  207.9870  150.7120 C   0  0  2  0  0  3  0  0  0  0  0  0
  160.8600  207.3570  149.7160 N   0  0  0  0  0  2  0  0  0  0  0  0
  161.7290  206.8220  148.6750 C   0  0  1  0  0  3  0  0  0  0  0  0
  163.1030  207.4680  148.7710 C   0  0  0  0  0  1  0  0  0  0  0  0
  162.5740  204.6600  147.5810 C   0  0  0  0  0  2  0  0  0  0  0  0
  160.4080  204.6960  149.0180 C   0  0  0  0  0  2  0  0  0  0  0  0
  160.4810  203.2790  149.5890 C   0  0  0  0  0  2  0  0  0  0  0  0
  161.7930  203.7020  146.6590 C   0  0  1  0  0  3  0  0  0  0  0  0
  161.7920  205.2930  148.7570 C   0  0  2  0  0  3  0  0  0  0  0  0
  161.4370  202.3550  148.8330 C   0  0  0  0  0  2  0  0  0  0  0  0
  161.2400  202.4240  147.3190 C   0  0  0  0  0  2  0  0  0  0  0  0
  160.7210  204.4310  145.8610 C   0  0  0  0  0  2  0  0  0  0  0  0
  160.0550  206.7270  145.5400 O   0  0  0  0  0  1  0  0  0  0  0  0
  161.1510  205.8570  145.5290 C   0  0  2  0  0  3  0  0  0  0  0  0
  161.2040  205.0880  143.4800 O   0  0  0  0  0  1  0  0  0  0  0  0
  161.8280  205.9170  144.2980 O   0  0  0  0  0  0  0  0  0  0  0  0
  160.7310  209.0920  155.6610 C   0  0  0  0  0  2  0  0  0  0  0  0
  161.3080  211.2390  154.0610 S   0  0  0  0  0  0  0  0  0  0  0  0
  158.8960  210.7010  155.2690 C   0  0  0  0  0  2  0  0  0  0  0  0
  160.0930  210.0120  154.6360 C   0  0  2  0  0  3  0  0  0  0  0  0
  158.4570  212.7130  153.7400 C   0  0  2  0  0  3  0  0  0  0  0  0
  160.3800  211.4850  152.5190 C   0  0  0  0  0  2  0  0  0  0  0  0
  157.9790  211.3350  154.2230 C   0  0  0  0  0  2  0  0  0  0  0  0
  159.4770  212.7130  152.5880 C   0  0  1  0  0  3  0  0  0  0  0  0
  158.8770  213.6300  154.8460 C   0  0  0  0  0  3  0  0  0  0  0  0
  158.2360  213.6840  155.8810 O   0  0  0  0  0  0  0  0  0  0  0  0
  158.7830  212.8560  151.3180 N   0  0  0  0  0  2  0  0  0  0  0  0
  159.3840  213.9780  150.6130 C   0  0  0  0  0  2  0  0  0  0  0  0
  158.7820  214.0920  149.2110 C   0  0  1  0  0  3  0  0  0  0  0  0
  159.7820  213.5550  148.1630 C   0  0  0  0  0  3  0  0  0  0  0  0
  160.7750  213.8290  145.8740 C   0  0  0  0  0  2  0  0  0  0  0  0
  161.1980  213.4320  148.7400 C   0  0  0  0  0  2  0  0  0  0  0  0
  162.1420  212.8190  147.7110 C   0  0  0  0  0  2  0  0  0  0  0  0
  162.1790  213.6840  146.4550 C   0  0  0  0  0  2  0  0  0  0  0  0
  159.8390  214.4380  146.9120 C   0  0  0  0  0  2  0  0  0  0  0  0
  156.7190  213.6500  147.8480 C   0  0  0  0  0  1  0  0  0  0  0  0
  157.4380  213.3400  149.1470 C   0  0  2  0  0  3  0  0  0  0  0  0
  156.5990  213.7020  150.2040 O   0  0  0  0  0  1  0  0  0  0  0  0
  1 25  1  0  0  0  0
  2  1  2  0  0  0  0
  3  2  1  0  0  0  0
  5  4  1  0  0  0  0
  5  3  1  0  0  0  0
  6  2  1  0  0  0  0
  7  6  1  0  0  0  0
  9  8  1  6  0  0  0
  9  7  1  0  0  0  0
 10  9  1  0  0  0  0
 11 12  1  1  0  0  0
 11 10  1  0  0  0  0
 13 17  1  0  0  0  0
 14 15  1  0  0  0  0
 16 20  1  1  0  0  0
 16 19  1  0  0  0  0
 16 13  1  0  0  0  0
 17 11  1  6  0  0  0
 17 14  1  0  0  0  0
 18 15  1  0  0  0  0
 19 18  1  0  0  0  0
 22 21  1  6  0  0  0
 22 20  1  0  0  0  0
 23 24  1  0  0  0  0
 24 22  1  0  0  0  0
 26 28  1  0  0  0  0
 28 27  1  0  0  0  0
 28 25  1  1  0  0  0
 29 31  1  0  0  0  0
 29 33  1  1  0  0  0
 30 32  1  0  0  0  0
 30 26  1  0  0  0  0
 31 27  1  0  0  0  0
 32 35  1  6  0  0  0
 32 29  1  0  0  0  0
 33 34  2  0  0  0  0
 36 35  1  0  0  0  0
 37 36  1  1  0  0  0
 38 40  1  0  0  0  0
 38 37  1  0  0  0  0
 39 42  1  0  0  0  0
 39 43  1  0  0  0  0
 41 40  1  0  0  0  0
 42 41  1  0  0  0  0
 43 38  1  0  0  0  0
 45 44  1  6  0  0  0
 45 37  1  0  0  0  0
 45 46  1  0  0  0  0
M  END
>  <MODEL>
2

>  <REMARK>
 VINA RESULT:      -4.4      2.812      4.660
  Name = 
  19 active torsions:
  status: ('A' for Active; 'I' for Inactive)
    1  A    between atoms: O_4  and  C_14
    2  A    between atoms: O_4  and  C_19
    3  A    between atoms: C_6  and  C_31
    4  A    between atoms: C_6  and  C_41
    5  A    between atoms: C_9  and  C_33
    6  A    between atoms: C_13  and  C_42
    7  A    between atoms: C_16  and  O_32
    8  A    between atoms: C_16  and  C_44
    9  A    between atoms: C_17  and  C_42
   10  A    between atoms: C_18  and  C_24
   11  A    between atoms: C_19  and  C_31
   12  A    between atoms: C_20  and  C_44
   13  A    between atoms: N_21  and  C_29
   14  A    between atoms: N_21  and  C_41
   15  A    between atoms: C_22  and  C_29
   16  A    between atoms: C_23  and  C_33
   17  A    between atoms: N_27  and  C_39
   18  A    between atoms: N_27  and  C_43
   19  A    between atoms: C_33  and  C_43
                            x       y       z     vdW  Elec       q    Type
                         _______ _______ _______ _____ _____    ______ ____

>  <TORSDO>
F 19

$$$$
=
 OpenBabel11042420563D

 46 48  0  0  1  0  0  0  0  0999 V2000
  160.5410  207.2430  155.0240 C   0  0  0  0  0  3  0  0  0  0  0  0
  161.0730  206.5640  154.0000 C   0  0  0  0  0  0  0  0  0  0  0  0
  160.6490  205.2630  153.7000 O   0  0  0  0  0  0  0  0  0  0  0  0
  161.2140  203.3400  152.3570 C   0  0  0  0  0  1  0  0  0  0  0  0
  160.6080  204.7320  152.3800 C   0  0  0  0  0  2  0  0  0  0  0  0
  162.1360  207.1770  153.1410 C   0  0  0  0  0  2  0  0  0  0  0  0
  161.6210  207.4060  151.7280 C   0  0  0  0  0  2  0  0  0  0  0  0
  163.4180  205.8800  151.3600 O   0  0  0  0  0  1  0  0  0  0  0  0
  162.3210  206.4850  150.7410 C   0  0  2  0  0  3  0  0  0  0  0  0
  162.7710  207.2540  149.5930 N   0  0  0  0  0  2  0  0  0  0  0  0
  161.5870  207.6710  148.8540 C   0  0  1  0  0  3  0  0  0  0  0  0
  161.6350  209.1720  148.6120 C   0  0  0  0  0  1  0  0  0  0  0  0
  160.2560  205.8890  147.5740 C   0  0  0  0  0  2  0  0  0  0  0  0
  162.7910  206.2600  147.1380 C   0  0  0  0  0  2  0  0  0  0  0  0
  162.8310  205.8940  145.6540 C   0  0  0  0  0  2  0  0  0  0  0  0
  160.5820  204.3890  147.4330 C   0  0  1  0  0  3  0  0  0  0  0  0
  161.4510  206.8710  147.5540 C   0  0  2  0  0  3  0  0  0  0  0  0
  161.6050  205.1140  145.1760 C   0  0  0  0  0  2  0  0  0  0  0  0
  161.2460  203.9600  146.1100 C   0  0  0  0  0  2  0  0  0  0  0  0
  161.3420  203.8570  148.6400 C   0  0  0  0  0  2  0  0  0  0  0  0
  161.7120  201.6750  147.6820 O   0  0  0  0  0  1  0  0  0  0  0  0
  161.1690  202.3480  148.7820 C   0  0  2  0  0  3  0  0  0  0  0  0
  159.7650  201.2600  150.0620 O   0  0  0  0  0  1  0  0  0  0  0  0
  159.8190  201.9990  148.9690 O   0  0  0  0  0  0  0  0  0  0  0  0
  160.9510  208.6340  155.3860 C   0  0  0  0  0  2  0  0  0  0  0  0
  161.4000  210.8820  153.8870 S   0  0  0  0  0  0  0  0  0  0  0  0
  159.1250  210.2990  155.3190 C   0  0  0  0  0  2  0  0  0  0  0  0
  160.2260  209.6370  154.5080 C   0  0  2  0  0  3  0  0  0  0  0  0
  158.5700  212.4250  153.9950 C   0  0  2  0  0  3  0  0  0  0  0  0
  160.3120  211.2560  152.4810 C   0  0  0  0  0  2  0  0  0  0  0  0
  158.1130  211.0240  154.4310 C   0  0  0  0  0  2  0  0  0  0  0  0
  159.4530  212.4910  152.7380 C   0  0  1  0  0  3  0  0  0  0  0  0
  159.1340  213.2520  155.1090 C   0  0  0  0  0  3  0  0  0  0  0  0
  158.4060  213.9600  155.7820 O   0  0  0  0  0  0  0  0  0  0  0  0
  158.6260  212.7380  151.5690 N   0  0  0  0  0  2  0  0  0  0  0  0
  158.7450  214.1500  151.2370 C   0  0  0  0  0  2  0  0  0  0  0  0
  158.5300  214.3500  149.7350 C   0  0  1  0  0  3  0  0  0  0  0  0
  159.5230  213.4740  148.9400 C   0  0  0  0  0  3  0  0  0  0  0  0
  160.3020  212.7040  146.6810 C   0  0  0  0  0  2  0  0  0  0  0  0
  160.9790  213.7850  149.3130 C   0  0  0  0  0  2  0  0  0  0  0  0
  161.9300  212.8470  148.5770 C   0  0  0  0  0  2  0  0  0  0  0  0
  161.7490  212.9960  147.0690 C   0  0  0  0  0  2  0  0  0  0  0  0
  159.3600  213.6440  147.4260 C   0  0  0  0  0  2  0  0  0  0  0  0
  156.1320  214.4520  150.4760 C   0  0  0  0  0  1  0  0  0  0  0  0
  157.0700  214.0310  149.3600 C   0  0  2  0  0  3  0  0  0  0  0  0
  156.8880  212.6640  149.1330 O   0  0  0  0  0  1  0  0  0  0  0  0
  1 25  1  0  0  0  0
  2  1  2  0  0  0  0
  3  2  1  0  0  0  0
  4  5  1  0  0  0  0
  5  3  1  0  0  0  0
  6  2  1  0  0  0  0
  7  6  1  0  0  0  0
  9  8  1  1  0  0  0
  9  7  1  0  0  0  0
 10  9  1  0  0  0  0
 11 12  1  6  0  0  0
 11 10  1  0  0  0  0
 14 17  1  0  0  0  0
 15 14  1  0  0  0  0
 16 13  1  0  0  0  0
 16 20  1  1  0  0  0
 17 13  1  0  0  0  0
 17 11  1  1  0  0  0
 18 15  1  0  0  0  0
 18 19  1  0  0  0  0
 19 16  1  0  0  0  0
 20 22  1  0  0  0  0
 22 21  1  6  0  0  0
 22 24  1  0  0  0  0
 24 23  1  0  0  0  0
 26 28  1  0  0  0  0
 28 27  1  0  0  0  0
 28 25  1  1  0  0  0
 29 31  1  0  0  0  0
 29 33  1  1  0  0  0
 30 32  1  0  0  0  0
 30 26  1  0  0  0  0
 31 27  1  0  0  0  0
 32 35  1  6  0  0  0
 32 29  1  0  0  0  0
 33 34  2  0  0  0  0
 36 35  1  0  0  0  0
 37 36  1  1  0  0  0
 38 40  1  0  0  0  0
 38 37  1  0  0  0  0
 39 42  1  0  0  0  0
 39 43  1  0  0  0  0
 41 40  1  0  0  0  0
 42 41  1  0  0  0  0
 43 38  1  0  0  0  0
 45 37  1  0  0  0  0
 45 44  1  1  0  0  0
 46 45  1  0  0  0  0
M  END
>  <MODEL>
3

>  <REMARK>
 VINA RESULT:      -4.4      2.870      4.911
  Name = 
  19 active torsions:
  status: ('A' for Active; 'I' for Inactive)
    1  A    between atoms: O_4  and  C_14
    2  A    between atoms: O_4  and  C_19
    3  A    between atoms: C_6  and  C_31
    4  A    between atoms: C_6  and  C_41
    5  A    between atoms: C_9  and  C_33
    6  A    between atoms: C_13  and  C_42
    7  A    between atoms: C_16  and  O_32
    8  A    between atoms: C_16  and  C_44
    9  A    between atoms: C_17  and  C_42
   10  A    between atoms: C_18  and  C_24
   11  A    between atoms: C_19  and  C_31
   12  A    between atoms: C_20  and  C_44
   13  A    between atoms: N_21  and  C_29
   14  A    between atoms: N_21  and  C_41
   15  A    between atoms: C_22  and  C_29
   16  A    between atoms: C_23  and  C_33
   17  A    between atoms: N_27  and  C_39
   18  A    between atoms: N_27  and  C_43
   19  A    between atoms: C_33  and  C_43
                            x       y       z     vdW  Elec       q    Type
                         _______ _______ _______ _____ _____    ______ ____

>  <TORSDO>
F 19

$$$$
=
 OpenBabel11042420563D

 46 48  0  0  1  0  0  0  0  0999 V2000
  161.3800  205.3660  152.4550 C   0  0  0  0  0  3  0  0  0  0  0  0
  161.2820  204.2860  151.6700 C   0  0  0  0  0  0  0  0  0  0  0  0
  160.9190  203.0400  152.2000 O   0  0  0  0  0  0  0  0  0  0  0  0
  160.8740  200.8780  151.1320 C   0  0  0  0  0  1  0  0  0  0  0  0
  161.6670  201.8470  151.9900 C   0  0  0  0  0  2  0  0  0  0  0  0
  161.5550  204.3770  150.2010 C   0  0  0  0  0  2  0  0  0  0  0  0
  160.3680  203.8650  149.3990 C   0  0  0  0  0  2  0  0  0  0  0  0
  162.0700  202.3910  148.6100 O   0  0  0  0  0  1  0  0  0  0  0  0
  160.6870  202.5240  148.7570 C   0  0  2  0  0  3  0  0  0  0  0  0
  160.0480  202.4440  147.4540 N   0  0  0  0  0  2  0  0  0  0  0  0
  161.0580  202.0110  146.4980 C   0  0  1  0  0  3  0  0  0  0  0  0
  160.6270  200.7010  145.8540 C   0  0  0  0  0  1  0  0  0  0  0  0
  162.7860  203.6390  145.5230 C   0  0  0  0  0  2  0  0  0  0  0  0
  160.2440  204.1840  145.5000 C   0  0  0  0  0  2  0  0  0  0  0  0
  160.1910  205.0040  144.2090 C   0  0  0  0  0  2  0  0  0  0  0  0
  162.9720  205.1310  145.8630 C   0  0  1  0  0  3  0  0  0  0  0  0
  161.3330  203.1100  145.4660 C   0  0  2  0  0  3  0  0  0  0  0  0
  161.5580  205.5020  143.7350 C   0  0  0  0  0  2  0  0  0  0  0  0
  162.3710  206.1360  144.8620 C   0  0  0  0  0  2  0  0  0  0  0  0
  162.5530  205.4430  147.2930 C   0  0  0  0  0  2  0  0  0  0  0  0
  162.8470  207.6550  148.2090 O   0  0  0  0  0  1  0  0  0  0  0  0
  162.0110  206.8640  147.4130 C   0  0  2  0  0  3  0  0  0  0  0  0
  160.7210  207.5250  149.0540 O   0  0  0  0  0  1  0  0  0  0  0  0
  160.6930  206.8720  147.9070 O   0  0  0  0  0  0  0  0  0  0  0  0
  161.7580  206.7190  151.9450 C   0  0  0  0  0  2  0  0  0  0  0  0
  161.5530  209.4420  152.1590 S   0  0  0  0  0  0  0  0  0  0  0  0
  161.2910  207.6170  154.2000 C   0  0  0  0  0  2  0  0  0  0  0  0
  161.0160  207.7940  152.7170 C   0  0  2  0  0  3  0  0  0  0  0  0
  160.6560  209.8810  155.2250 C   0  0  2  0  0  3  0  0  0  0  0  0
  160.0000  210.1830  152.7410 C   0  0  0  0  0  2  0  0  0  0  0  0
  160.3000  208.3950  155.0660 C   0  0  0  0  0  2  0  0  0  0  0  0
  160.1550  210.8220  154.1170 C   0  0  1  0  0  3  0  0  0  0  0  0
  162.0980  210.1270  155.5460 C   0  0  0  0  0  3  0  0  0  0  0  0
  162.5280  209.9030  156.6640 O   0  0  0  0  0  0  0  0  0  0  0  0
  158.8830  211.4080  154.5080 N   0  0  0  0  0  2  0  0  0  0  0  0
  158.1900  211.8050  153.2920 C   0  0  0  0  0  2  0  0  0  0  0  0
  158.0380  213.3270  153.2550 C   0  0  1  0  0  3  0  0  0  0  0  0
  158.3420  213.8520  151.8350 C   0  0  0  0  0  3  0  0  0  0  0  0
  160.1050  214.4530  150.1500 C   0  0  0  0  0  2  0  0  0  0  0  0
  157.6250  213.0260  150.7580 C   0  0  0  0  0  2  0  0  0  0  0  0
  157.8750  213.6190  149.3760 C   0  0  0  0  0  2  0  0  0  0  0  0
  159.3720  213.6470  149.0810 C   0  0  0  0  0  2  0  0  0  0  0  0
  159.8440  213.8540  151.5280 C   0  0  0  0  0  2  0  0  0  0  0  0
  155.9790  212.6040  154.4990 C   0  0  0  0  0  1  0  0  0  0  0  0
  156.6240  213.7320  153.7150 C   0  0  2  0  0  3  0  0  0  0  0  0
  155.7980  214.0310  152.6280 O   0  0  0  0  0  1  0  0  0  0  0  0
  2  3  1  0  0  0  0
  2  1  2  0  0  0  0
  4  5  1  0  0  0  0
  5  3  1  0  0  0  0
  6  2  1  0  0  0  0
  7  6  1  0  0  0  0
  9  8  1  6  0  0  0
  9  7  1  0  0  0  0
 10  9  1  0  0  0  0
 11 12  1  6  0  0  0
 11 10  1  0  0  0  0
 13 16  1  0  0  0  0
 15 14  1  0  0  0  0
 16 20  1  1  0  0  0
 17 14  1  0  0  0  0
 17 13  1  0  0  0  0
 17 11  1  1  0  0  0
 18 15  1  0  0  0  0
 18 19  1  0  0  0  0
 19 16  1  0  0  0  0
 20 22  1  0  0  0  0
 22 24  1  0  0  0  0
 22 21  1  1  0  0  0
 24 23  1  0  0  0  0
 25  1  1  0  0  0  0
 26 28  1  0  0  0  0
 26 30  1  0  0  0  0
 27 31  1  0  0  0  0
 28 25  1  6  0  0  0
 28 27  1  0  0  0  0
 29 33  1  6  0  0  0
 30 32  1  0  0  0  0
 31 29  1  0  0  0  0
 32 35  1  1  0  0  0
 32 29  1  0  0  0  0
 33 34  2  0  0  0  0
 36 35  1  0  0  0  0
 37 36  1  6  0  0  0
 37 45  1  0  0  0  0
 38 37  1  0  0  0  0
 39 43  1  0  0  0  0
 40 38  1  0  0  0  0
 41 40  1  0  0  0  0
 42 41  1  0  0  0  0
 42 39  1  0  0  0  0
 43 38  1  0  0  0  0
 45 44  1  6  0  0  0
 46 45  1  0  0  0  0
M  END
>  <MODEL>
4

>  <REMARK>
 VINA RESULT:      -3.9      2.230      4.226
  Name = 
  19 active torsions:
  status: ('A' for Active; 'I' for Inactive)
    1  A    between atoms: O_4  and  C_14
    2  A    between atoms: O_4  and  C_19
    3  A    between atoms: C_6  and  C_31
    4  A    between atoms: C_6  and  C_41
    5  A    between atoms: C_9  and  C_33
    6  A    between atoms: C_13  and  C_42
    7  A    between atoms: C_16  and  O_32
    8  A    between atoms: C_16  and  C_44
    9  A    between atoms: C_17  and  C_42
   10  A    between atoms: C_18  and  C_24
   11  A    between atoms: C_19  and  C_31
   12  A    between atoms: C_20  and  C_44
   13  A    between atoms: N_21  and  C_29
   14  A    between atoms: N_21  and  C_41
   15  A    between atoms: C_22  and  C_29
   16  A    between atoms: C_23  and  C_33
   17  A    between atoms: N_27  and  C_39
   18  A    between atoms: N_27  and  C_43
   19  A    between atoms: C_33  and  C_43
                            x       y       z     vdW  Elec       q    Type
                         _______ _______ _______ _____ _____    ______ ____

>  <TORSDO>
F 19

$$$$
=
 OpenBabel11042420563D

 46 48  0  0  1  0  0  0  0  0999 V2000
  161.9590  209.8040  148.6530 C   0  0  0  0  0  3  0  0  0  0  0  0
  161.6090  211.0680  148.3860 C   0  0  0  0  0  0  0  0  0  0  0  0
  161.0520  211.4150  147.1480 O   0  0  0  0  0  0  0  0  0  0  0  0
  162.1500  213.3350  146.1840 C   0  0  0  0  0  1  0  0  0  0  0  0
  160.8530  212.7600  146.7240 C   0  0  0  0  0  2  0  0  0  0  0  0
  161.7990  212.1490  149.4040 C   0  0  0  0  0  2  0  0  0  0  0  0
  160.4710  212.5300  150.0400 C   0  0  0  0  0  2  0  0  0  0  0  0
  160.8810  210.9630  151.7920 O   0  0  0  0  0  1  0  0  0  0  0  0
  160.4980  212.2830  151.5400 C   0  0  2  0  0  3  0  0  0  0  0  0
  159.1780  212.5230  152.0970 N   0  0  0  0  0  2  0  0  0  0  0  0
  159.3600  213.0890  153.4270 C   0  0  1  0  0  3  0  0  0  0  0  0
  158.0730  213.7630  153.8800 C   0  0  0  0  0  1  0  0  0  0  0  0
  158.8240  210.8630  154.5840 C   0  0  0  0  0  2  0  0  0  0  0  0
  160.3420  212.6460  155.7120 C   0  0  0  0  0  2  0  0  0  0  0  0
  161.2620  211.7100  156.4970 C   0  0  0  0  0  2  0  0  0  0  0  0
  158.2440  210.6500  155.9960 C   0  0  1  0  0  3  0  0  0  0  0  0
  159.8400  212.0170  154.4110 C   0  0  2  0  0  3  0  0  0  0  0  0
  160.7150  210.2900  156.6510 C   0  0  0  0  0  2  0  0  0  0  0  0
  159.2540  210.2720  157.0970 C   0  0  0  0  0  2  0  0  0  0  0  0
  157.3550  211.8090  156.4250 C   0  0  0  0  0  2  0  0  0  0  0  0
  155.5490  211.3290  154.9000 O   0  0  0  0  0  1  0  0  0  0  0  0
  155.8780  211.4680  156.2530 C   0  0  2  0  0  3  0  0  0  0  0  0
  155.3000  213.5790  156.2890 O   0  0  0  0  0  1  0  0  0  0  0  0
  155.0520  212.4220  156.8760 O   0  0  0  0  0  0  0  0  0  0  0  0
  162.5510  209.3750  149.9570 C   0  0  0  0  0  2  0  0  0  0  0  0
  160.4560  207.6110  149.9930 S   0  0  0  0  0  0  0  0  0  0  0  0
  162.6630  207.5630  151.6330 C   0  0  0  0  0  2  0  0  0  0  0  0
  162.2370  207.9140  150.2180 C   0  0  2  0  0  3  0  0  0  0  0  0
  161.3830  205.4000  152.1490 C   0  0  2  0  0  3  0  0  0  0  0  0
  160.7600  205.8480  149.6770 C   0  0  0  0  0  2  0  0  0  0  0  0
  162.7430  206.0510  151.8500 C   0  0  0  0  0  2  0  0  0  0  0  0
  160.5390  205.0010  150.9270 C   0  0  1  0  0  3  0  0  0  0  0  0
  160.5680  206.1380  153.1640 C   0  0  0  0  0  3  0  0  0  0  0  0
  160.9630  206.2500  154.3110 O   0  0  0  0  0  0  0  0  0  0  0  0
  160.7820  203.6060  150.5960 N   0  0  0  0  0  2  0  0  0  0  0  0
  161.6120  203.5760  149.4000 C   0  0  0  0  0  2  0  0  0  0  0  0
  160.7750  203.1310  148.1990 C   0  0  1  0  0  3  0  0  0  0  0  0
  161.4610  203.5730  146.8880 C   0  0  0  0  0  3  0  0  0  0  0  0
  161.1610  204.4090  144.5390 C   0  0  0  0  0  2  0  0  0  0  0  0
  162.4870  204.6880  147.1310 C   0  0  0  0  0  2  0  0  0  0  0  0
  163.2060  205.0430  145.8340 C   0  0  0  0  0  2  0  0  0  0  0  0
  162.1990  205.5010  144.7840 C   0  0  0  0  0  2  0  0  0  0  0  0
  160.4500  204.0590  145.8420 C   0  0  0  0  0  2  0  0  0  0  0  0
  159.4130  201.2550  149.1660 C   0  0  0  0  0  1  0  0  0  0  0  0
  160.5600  201.6060  148.2370 C   0  0  2  0  0  3  0  0  0  0  0  0
  161.7020  200.9390  148.6880 O   0  0  0  0  0  1  0  0  0  0  0  0
  1 25  1  0  0  0  0
  2  1  2  0  0  0  0
  2  6  1  0  0  0  0
  3  2  1  0  0  0  0
  4  5  1  0  0  0  0
  5  3  1  0  0  0  0
  6  7  1  0  0  0  0
  7  9  1  0  0  0  0
  9  8  1  6  0  0  0
  9 10  1  0  0  0  0
 10 11  1  0  0  0  0
 11 12  1  1  0  0  0
 13 16  1  0  0  0  0
 14 15  1  0  0  0  0
 15 18  1  0  0  0  0
 16 20  1  1  0  0  0
 16 19  1  0  0  0  0
 17 11  1  6  0  0  0
 17 13  1  0  0  0  0
 17 14  1  0  0  0  0
 18 19  1  0  0  0  0
 22 21  1  6  0  0  0
 22 20  1  0  0  0  0
 22 24  1  0  0  0  0
 23 24  1  0  0  0  0
 26 28  1  0  0  0  0
 27 31  1  0  0  0  0
 28 25  1  1  0  0  0
 28 27  1  0  0  0  0
 29 33  1  1  0  0  0
 30 26  1  0  0  0  0
 30 32  1  0  0  0  0
 31 29  1  0  0  0  0
 32 35  1  6  0  0  0
 32 29  1  0  0  0  0
 33 34  2  0  0  0  0
 36 35  1  0  0  0  0
 37 45  1  0  0  0  0
 37 36  1  1  0  0  0
 38 40  1  0  0  0  0
 38 37  1  0  0  0  0
 39 42  1  0  0  0  0
 39 43  1  0  0  0  0
 41 40  1  0  0  0  0
 42 41  1  0  0  0  0
 43 38  1  0  0  0  0
 45 46  1  0  0  0  0
 45 44  1  1  0  0  0
M  END
>  <MODEL>
5

>  <REMARK>
 VINA RESULT:      -3.5      2.425     10.266
  Name = 
  19 active torsions:
  status: ('A' for Active; 'I' for Inactive)
    1  A    between atoms: O_4  and  C_14
    2  A    between atoms: O_4  and  C_19
    3  A    between atoms: C_6  and  C_31
    4  A    between atoms: C_6  and  C_41
    5  A    between atoms: C_9  and  C_33
    6  A    between atoms: C_13  and  C_42
    7  A    between atoms: C_16  and  O_32
    8  A    between atoms: C_16  and  C_44
    9  A    between atoms: C_17  and  C_42
   10  A    between atoms: C_18  and  C_24
   11  A    between atoms: C_19  and  C_31
   12  A    between atoms: C_20  and  C_44
   13  A    between atoms: N_21  and  C_29
   14  A    between atoms: N_21  and  C_41
   15  A    between atoms: C_22  and  C_29
   16  A    between atoms: C_23  and  C_33
   17  A    between atoms: N_27  and  C_39
   18  A    between atoms: N_27  and  C_43
   19  A    between atoms: C_33  and  C_43
                            x       y       z     vdW  Elec       q    Type
                         _______ _______ _______ _____ _____    ______ ____

>  <TORSDO>
F 19

$$$$
=
 OpenBabel11042420563D

 46 48  0  0  1  0  0  0  0  0999 V2000
  161.9270  207.6790  152.4410 C   0  0  0  0  0  3  0  0  0  0  0  0
  161.1960  208.6880  152.9310 C   0  0  0  0  0  0  0  0  0  0  0  0
  160.9860  208.8230  154.3100 O   0  0  0  0  0  0  0  0  0  0  0  0
  160.9780  206.9370  155.8140 C   0  0  0  0  0  1  0  0  0  0  0  0
  160.1430  207.9600  155.0660 C   0  0  0  0  0  2  0  0  0  0  0  0
  160.5820  209.7050  152.0190 C   0  0  0  0  0  2  0  0  0  0  0  0
  160.0320  210.8790  152.8140 C   0  0  0  0  0  2  0  0  0  0  0  0
  158.2970  211.9980  151.6170 O   0  0  0  0  0  1  0  0  0  0  0  0
  159.6670  212.0320  151.8930 C   0  0  2  0  0  3  0  0  0  0  0  0
  160.4170  211.9210  150.6530 N   0  0  0  0  0  2  0  0  0  0  0  0
  160.1000  213.0900  149.8430 C   0  0  1  0  0  3  0  0  0  0  0  0
  159.9180  214.3040  150.7430 C   0  0  0  0  0  1  0  0  0  0  0  0
  160.7440  214.3450  147.7000 C   0  0  0  0  0  2  0  0  0  0  0  0
  161.6850  211.9790  148.2210 C   0  0  0  0  0  2  0  0  0  0  0  0
  163.0500  212.1140  147.5450 C   0  0  0  0  0  2  0  0  0  0  0  0
  160.6400  213.8430  146.2460 C   0  0  1  0  0  3  0  0  0  0  0  0
  161.1700  213.3110  148.7690 C   0  0  2  0  0  3  0  0  0  0  0  0
  163.1410  213.2810  146.5600 C   0  0  0  0  0  2  0  0  0  0  0  0
  161.9470  213.3350  145.6070 C   0  0  0  0  0  2  0  0  0  0  0  0
  159.5040  212.8450  146.0710 C   0  0  0  0  0  2  0  0  0  0  0  0
  157.4270  212.6000  147.2710 O   0  0  0  0  0  1  0  0  0  0  0  0
  158.1610  213.4620  146.4490 C   0  0  2  0  0  3  0  0  0  0  0  0
  156.2320  214.2110  145.7350 O   0  0  0  0  0  1  0  0  0  0  0  0
  157.4200  213.8220  145.3090 O   0  0  0  0  0  0  0  0  0  0  0  0
  162.1880  207.4890  150.9820 C   0  0  0  0  0  2  0  0  0  0  0  0
  160.2640  205.7570  150.0870 S   0  0  0  0  0  0  0  0  0  0  0  0
  162.3380  205.1590  151.7920 C   0  0  0  0  0  2  0  0  0  0  0  0
  161.9890  206.0340  150.6010 C   0  0  2  0  0  3  0  0  0  0  0  0
  161.2240  202.9100  151.2590 C   0  0  2  0  0  3  0  0  0  0  0  0
  160.7500  204.2950  149.1250 C   0  0  0  0  0  2  0  0  0  0  0  0
  162.5370  203.6960  151.3920 C   0  0  0  0  0  2  0  0  0  0  0  0
  160.5130  203.0010  149.8980 C   0  0  1  0  0  3  0  0  0  0  0  0
  160.2710  203.1260  152.3930 C   0  0  0  0  0  3  0  0  0  0  0  0
  160.4340  204.0520  153.1690 O   0  0  0  0  0  0  0  0  0  0  0  0
  160.9050  201.8770  149.0630 N   0  0  0  0  0  2  0  0  0  0  0  0
  161.7570  202.3940  148.0020 C   0  0  0  0  0  2  0  0  0  0  0  0
  161.0390  202.2750  146.6560 C   0  0  1  0  0  3  0  0  0  0  0  0
  161.5290  203.3840  145.6990 C   0  0  0  0  0  3  0  0  0  0  0  0
  160.9060  205.0780  143.9530 C   0  0  0  0  0  2  0  0  0  0  0  0
  162.3150  204.4710  146.4440 C   0  0  0  0  0  2  0  0  0  0  0  0
  162.8570  205.5040  145.4620 C   0  0  0  0  0  2  0  0  0  0  0  0
  161.7090  206.1470  144.6900 C   0  0  0  0  0  2  0  0  0  0  0  0
  160.3730  204.0480  144.9430 C   0  0  0  0  0  2  0  0  0  0  0  0
  160.0460  200.4380  145.2610 C   0  0  0  0  0  1  0  0  0  0  0  0
  161.2620  200.8730  146.0570 C   0  0  2  0  0  3  0  0  0  0  0  0
  161.4900  199.9220  147.0540 O   0  0  0  0  0  1  0  0  0  0  0  0
  1  2  2  0  0  0  0
  2  3  1  0  0  0  0
  3  5  1  0  0  0  0
  5  4  1  0  0  0  0
  6  7  1  0  0  0  0
  6  2  1  0  0  0  0
  9  8  1  6  0  0  0
  9  7  1  0  0  0  0
 10  9  1  0  0  0  0
 11 10  1  0  0  0  0
 11 12  1  1  0  0  0
 13 17  1  0  0  0  0
 14 17  1  0  0  0  0
 15 14  1  0  0  0  0
 16 20  1  1  0  0  0
 16 13  1  0  0  0  0
 17 11  1  1  0  0  0
 18 15  1  0  0  0  0
 19 16  1  0  0  0  0
 19 18  1  0  0  0  0
 20 22  1  0  0  0  0
 22 21  1  6  0  0  0
 24 23  1  0  0  0  0
 24 22  1  0  0  0  0
 25  1  1  0  0  0  0
 26 28  1  0  0  0  0
 28 25  1  1  0  0  0
 28 27  1  0  0  0  0
 29 31  1  0  0  0  0
 29 33  1  1  0  0  0
 30 32  1  0  0  0  0
 30 26  1  0  0  0  0
 31 27  1  0  0  0  0
 32 35  1  6  0  0  0
 32 29  1  0  0  0  0
 33 34  2  0  0  0  0
 36 35  1  0  0  0  0
 37 36  1  1  0  0  0
 38 40  1  0  0  0  0
 38 37  1  0  0  0  0
 39 42  1  0  0  0  0
 39 43  1  0  0  0  0
 41 40  1  0  0  0  0
 42 41  1  0  0  0  0
 43 38  1  0  0  0  0
 45 44  1  1  0  0  0
 45 37  1  0  0  0  0
 45 46  1  0  0  0  0
M  END
>  <MODEL>
6

>  <REMARK>
 VINA RESULT:      -3.5      3.875     10.125
  Name = 
  19 active torsions:
  status: ('A' for Active; 'I' for Inactive)
    1  A    between atoms: O_4  and  C_14
    2  A    between atoms: O_4  and  C_19
    3  A    between atoms: C_6  and  C_31
    4  A    between atoms: C_6  and  C_41
    5  A    between atoms: C_9  and  C_33
    6  A    between atoms: C_13  and  C_42
    7  A    between atoms: C_16  and  O_32
    8  A    between atoms: C_16  and  C_44
    9  A    between atoms: C_17  and  C_42
   10  A    between atoms: C_18  and  C_24
   11  A    between atoms: C_19  and  C_31
   12  A    between atoms: C_20  and  C_44
   13  A    between atoms: N_21  and  C_29
   14  A    between atoms: N_21  and  C_41
   15  A    between atoms: C_22  and  C_29
   16  A    between atoms: C_23  and  C_33
   17  A    between atoms: N_27  and  C_39
   18  A    between atoms: N_27  and  C_43
   19  A    between atoms: C_33  and  C_43
                            x       y       z     vdW  Elec       q    Type
                         _______ _______ _______ _____ _____    ______ ____

>  <TORSDO>
F 19

$$$$
=
 OpenBabel11042420563D

 46 48  0  0  1  0  0  0  0  0999 V2000
  161.2550  205.0830  152.1950 C   0  0  0  0  0  3  0  0  0  0  0  0
  160.8760  203.9860  151.5260 C   0  0  0  0  0  0  0  0  0  0  0  0
  160.6020  202.7890  152.2000 O   0  0  0  0  0  0  0  0  0  0  0  0
  162.8310  201.8670  152.2060 C   0  0  0  0  0  1  0  0  0  0  0  0
  161.3500  201.5920  152.0150 C   0  0  0  0  0  2  0  0  0  0  0  0
  160.7320  204.0080  150.0350 C   0  0  0  0  0  2  0  0  0  0  0  0
  161.4450  202.8200  149.4070 C   0  0  0  0  0  2  0  0  0  0  0  0
  161.0680  200.7180  148.3420 O   0  0  0  0  0  1  0  0  0  0  0  0
  160.4640  201.9410  148.6470 C   0  0  2  0  0  3  0  0  0  0  0  0
  160.0660  202.6070  147.4180 N   0  0  0  0  0  2  0  0  0  0  0  0
  160.8680  202.0490  146.3370 C   0  0  1  0  0  3  0  0  0  0  0  0
  160.0240  201.0850  145.5170 C   0  0  0  0  0  1  0  0  0  0  0  0
  162.7960  203.7230  146.0790 C   0  0  0  0  0  2  0  0  0  0  0  0
  160.4320  204.2160  145.1160 C   0  0  0  0  0  2  0  0  0  0  0  0
  160.8420  205.0490  143.9010 C   0  0  0  0  0  2  0  0  0  0  0  0
  162.8080  205.2140  146.4680 C   0  0  1  0  0  3  0  0  0  0  0  0
  161.4800  203.1650  145.4850 C   0  0  2  0  0  3  0  0  0  0  0  0
  162.2750  205.5800  143.9690 C   0  0  0  0  0  2  0  0  0  0  0  0
  162.5980  206.2190  145.3190 C   0  0  0  0  0  2  0  0  0  0  0  0
  161.8820  205.5010  147.6420 C   0  0  0  0  0  2  0  0  0  0  0  0
  162.9020  207.6180  148.1820 O   0  0  0  0  0  1  0  0  0  0  0  0
  161.6930  207.0010  147.8440 C   0  0  2  0  0  3  0  0  0  0  0  0
  159.9320  206.2010  148.8690 O   0  0  0  0  0  1  0  0  0  0  0  0
  160.7040  207.2710  148.8070 O   0  0  0  0  0  0  0  0  0  0  0  0
  161.5550  206.3860  151.5290 C   0  0  0  0  0  2  0  0  0  0  0  0
  161.7810  209.0840  151.9470 S   0  0  0  0  0  0  0  0  0  0  0  0
  160.9490  207.2090  153.7800 C   0  0  0  0  0  2  0  0  0  0  0  0
  160.9070  207.5250  152.2950 C   0  0  2  0  0  3  0  0  0  0  0  0
  160.5710  209.4810  154.9100 C   0  0  2  0  0  3  0  0  0  0  0  0
  160.3110  210.0490  152.3990 C   0  0  0  0  0  2  0  0  0  0  0  0
  159.9960  208.0940  154.5830 C   0  0  0  0  0  2  0  0  0  0  0  0
  160.3860  210.5630  153.8340 C   0  0  1  0  0  3  0  0  0  0  0  0
  161.9780  209.4470  155.4220 C   0  0  0  0  0  3  0  0  0  0  0  0
  162.2850  210.0660  156.4260 O   0  0  0  0  0  0  0  0  0  0  0  0
  159.1900  211.3390  154.1170 N   0  0  0  0  0  2  0  0  0  0  0  0
  159.0070  212.2820  153.0240 C   0  0  0  0  0  2  0  0  0  0  0  0
  157.5960  212.8720  153.0780 C   0  0  1  0  0  3  0  0  0  0  0  0
  157.1100  212.9410  154.5420 C   0  0  0  0  0  3  0  0  0  0  0  0
  156.1670  214.3740  156.3760 C   0  0  0  0  0  2  0  0  0  0  0  0
  156.0270  211.8940  154.8310 C   0  0  0  0  0  2  0  0  0  0  0  0
  155.6290  211.9300  156.3030 C   0  0  0  0  0  2  0  0  0  0  0  0
  155.1060  213.3160  156.6710 C   0  0  0  0  0  2  0  0  0  0  0  0
  156.5600  214.3260  154.9030 C   0  0  0  0  0  2  0  0  0  0  0  0
  156.2910  214.4500  151.6240 C   0  0  0  0  0  1  0  0  0  0  0  0
  157.5750  214.2600  152.4090 C   0  0  2  0  0  3  0  0  0  0  0  0
  158.6480  214.4200  151.5290 O   0  0  0  0  0  1  0  0  0  0  0  0
  2  1  2  0  0  0  0
  2  3  1  0  0  0  0
  5  3  1  0  0  0  0
  5  4  1  0  0  0  0
  6  2  1  0  0  0  0
  7  6  1  0  0  0  0
  9  8  1  6  0  0  0
  9  7  1  0  0  0  0
 10  9  1  0  0  0  0
 11 12  1  6  0  0  0
 11 10  1  0  0  0  0
 13 16  1  0  0  0  0
 14 17  1  0  0  0  0
 15 18  1  0  0  0  0
 15 14  1  0  0  0  0
 16 20  1  1  0  0  0
 17 13  1  0  0  0  0
 17 11  1  1  0  0  0
 18 19  1  0  0  0  0
 19 16  1  0  0  0  0
 20 22  1  0  0  0  0
 22 21  1  1  0  0  0
 22 24  1  0  0  0  0
 24 23  1  0  0  0  0
 25  1  1  0  0  0  0
 26 28  1  0  0  0  0
 26 30  1  0  0  0  0
 27 31  1  0  0  0  0
 28 25  1  6  0  0  0
 28 27  1  0  0  0  0
 29 33  1  6  0  0  0
 30 32  1  0  0  0  0
 31 29  1  0  0  0  0
 32 35  1  1  0  0  0
 32 29  1  0  0  0  0
 33 34  2  0  0  0  0
 36 35  1  0  0  0  0
 37 36  1  1  0  0  0
 37 38  1  0  0  0  0
 38 40  1  0  0  0  0
 38 43  1  0  0  0  0
 39 42  1  0  0  0  0
 40 41  1  0  0  0  0
 41 42  1  0  0  0  0
 43 39  1  0  0  0  0
 45 44  1  6  0  0  0
 45 37  1  0  0  0  0
 46 45  1  0  0  0  0
M  END
>  <MODEL>
7

>  <REMARK>
 VINA RESULT:      -3.3      2.344      4.544
  Name = 
  19 active torsions:
  status: ('A' for Active; 'I' for Inactive)
    1  A    between atoms: O_4  and  C_14
    2  A    between atoms: O_4  and  C_19
    3  A    between atoms: C_6  and  C_31
    4  A    between atoms: C_6  and  C_41
    5  A    between atoms: C_9  and  C_33
    6  A    between atoms: C_13  and  C_42
    7  A    between atoms: C_16  and  O_32
    8  A    between atoms: C_16  and  C_44
    9  A    between atoms: C_17  and  C_42
   10  A    between atoms: C_18  and  C_24
   11  A    between atoms: C_19  and  C_31
   12  A    between atoms: C_20  and  C_44
   13  A    between atoms: N_21  and  C_29
   14  A    between atoms: N_21  and  C_41
   15  A    between atoms: C_22  and  C_29
   16  A    between atoms: C_23  and  C_33
   17  A    between atoms: N_27  and  C_39
   18  A    between atoms: N_27  and  C_43
   19  A    between atoms: C_33  and  C_43
                            x       y       z     vdW  Elec       q    Type
                         _______ _______ _______ _____ _____    ______ ____

>  <TORSDO>
F 19

$$$$
=
 OpenBabel11042420563D

 46 48  0  0  1  0  0  0  0  0999 V2000
  160.9820  209.0750  154.9320 C   0  0  0  0  0  3  0  0  0  0  0  0
  160.7300  209.7790  156.0420 C   0  0  0  0  0  0  0  0  0  0  0  0
  161.6370  209.7920  157.1100 O   0  0  0  0  0  0  0  0  0  0  0  0
  163.4060  211.1790  156.2360 C   0  0  0  0  0  1  0  0  0  0  0  0
  163.0480  209.8840  156.9440 C   0  0  0  0  0  2  0  0  0  0  0  0
  159.4700  210.5780  156.1750 C   0  0  0  0  0  2  0  0  0  0  0  0
  159.4990  211.7870  155.2520 C   0  0  0  0  0  2  0  0  0  0  0  0
  157.1420  211.9300  155.5970 O   0  0  0  0  0  1  0  0  0  0  0  0
  158.3080  212.6950  155.5130 C   0  0  2  0  0  3  0  0  0  0  0  0
  158.1830  213.6570  154.4310 N   0  0  0  0  0  2  0  0  0  0  0  0
  158.0110  212.9060  153.1950 C   0  0  1  0  0  3  0  0  0  0  0  0
  156.6780  213.2650  152.5560 C   0  0  0  0  0  1  0  0  0  0  0  0
  159.0730  214.4530  151.4440 C   0  0  0  0  0  2  0  0  0  0  0  0
  159.4960  211.8880  151.4220 C   0  0  0  0  0  2  0  0  0  0  0  0
  160.9170  211.8890  150.8570 C   0  0  0  0  0  2  0  0  0  0  0  0
  159.0060  214.3260  149.9100 C   0  0  1  0  0  3  0  0  0  0  0  0
  159.1960  213.1390  152.2510 C   0  0  2  0  0  3  0  0  0  0  0  0
  161.3150  213.2050  150.1850 C   0  0  0  0  0  2  0  0  0  0  0  0
  160.2440  213.7170  149.2240 C   0  0  0  0  0  2  0  0  0  0  0  0
  157.7210  213.6490  149.4520 C   0  0  0  0  0  2  0  0  0  0  0  0
  155.6780  214.2920  148.3430 O   0  0  0  0  0  1  0  0  0  0  0  0
  157.0710  214.4150  148.3030 C   0  0  2  0  0  3  0  0  0  0  0  0
  156.5810  213.4150  146.4180 O   0  0  0  0  0  1  0  0  0  0  0  0
  157.5770  214.0010  147.0570 O   0  0  0  0  0  0  0  0  0  0  0  0
  160.0550  209.0290  153.7620 C   0  0  0  0  0  2  0  0  0  0  0  0
  161.6760  206.8230  153.6700 S   0  0  0  0  0  0  0  0  0  0  0  0
  160.5990  208.1510  151.5160 C   0  0  0  0  0  2  0  0  0  0  0  0
  160.2940  207.7670  152.9540 C   0  0  2  0  0  3  0  0  0  0  0  0
  161.7170  206.0600  150.5370 C   0  0  2  0  0  3  0  0  0  0  0  0
  161.0630  205.2880  152.9190 C   0  0  0  0  0  2  0  0  0  0  0  0
  160.4730  206.9610  150.5640 C   0  0  0  0  0  2  0  0  0  0  0  0
  161.7850  204.9640  151.6150 C   0  0  1  0  0  3  0  0  0  0  0  0
  163.0070  206.8120  150.4350 C   0  0  0  0  0  3  0  0  0  0  0  0
  163.1050  207.7730  149.6910 O   0  0  0  0  0  0  0  0  0  0  0  0
  161.2570  203.7190  151.0830 N   0  0  0  0  0  2  0  0  0  0  0  0
  160.3680  204.0530  149.9800 C   0  0  0  0  0  2  0  0  0  0  0  0
  160.4990  203.0060  148.8720 C   0  0  1  0  0  3  0  0  0  0  0  0
  161.2880  203.5960  147.6820 C   0  0  0  0  0  3  0  0  0  0  0  0
  161.5870  203.6680  145.1900 C   0  0  0  0  0  2  0  0  0  0  0  0
  161.2880  205.1300  147.7050 C   0  0  0  0  0  2  0  0  0  0  0  0
  162.1440  205.6800  146.5690 C   0  0  0  0  0  2  0  0  0  0  0  0
  161.6080  205.1940  145.2260 C   0  0  0  0  0  2  0  0  0  0  0  0
  160.7320  203.1280  146.3320 C   0  0  0  0  0  2  0  0  0  0  0  0
  161.4800  200.7680  148.2910 C   0  0  0  0  0  1  0  0  0  0  0  0
  161.1730  201.7340  149.4200 C   0  0  2  0  0  3  0  0  0  0  0  0
  160.3520  201.0770  150.3410 O   0  0  0  0  0  1  0  0  0  0  0  0
  1  2  2  0  0  0  0
  2  6  1  0  0  0  0
  2  3  1  0  0  0  0
  4  5  1  0  0  0  0
  5  3  1  0  0  0  0
  7  9  1  0  0  0  0
  7  6  1  0  0  0  0
  9  8  1  6  0  0  0
 10  9  1  0  0  0  0
 11 12  1  6  0  0  0
 11 10  1  0  0  0  0
 13 17  1  0  0  0  0
 14 17  1  0  0  0  0
 15 14  1  0  0  0  0
 16 20  1  1  0  0  0
 16 13  1  0  0  0  0
 17 11  1  6  0  0  0
 18 15  1  0  0  0  0
 19 16  1  0  0  0  0
 19 18  1  0  0  0  0
 22 21  1  6  0  0  0
 22 20  1  0  0  0  0
 23 24  1  0  0  0  0
 24 22  1  0  0  0  0
 25  1  1  0  0  0  0
 27 28  1  0  0  0  0
 28 26  1  0  0  0  0
 28 25  1  1  0  0  0
 29 33  1  1  0  0  0
 29 31  1  0  0  0  0
 29 32  1  0  0  0  0
 30 26  1  0  0  0  0
 31 27  1  0  0  0  0
 32 35  1  6  0  0  0
 32 30  1  0  0  0  0
 34 33  2  0  0  0  0
 36 35  1  0  0  0  0
 37 45  1  0  0  0  0
 37 36  1  1  0  0  0
 38 40  1  0  0  0  0
 38 37  1  0  0  0  0
 39 42  1  0  0  0  0
 39 43  1  0  0  0  0
 41 40  1  0  0  0  0
 42 41  1  0  0  0  0
 43 38  1  0  0  0  0
 45 44  1  6  0  0  0
 45 46  1  0  0  0  0
M  END
>  <MODEL>
8

>  <REMARK>
 VINA RESULT:      -3.3      2.967      9.827
  Name = 
  19 active torsions:
  status: ('A' for Active; 'I' for Inactive)
    1  A    between atoms: O_4  and  C_14
    2  A    between atoms: O_4  and  C_19
    3  A    between atoms: C_6  and  C_31
    4  A    between atoms: C_6  and  C_41
    5  A    between atoms: C_9  and  C_33
    6  A    between atoms: C_13  and  C_42
    7  A    between atoms: C_16  and  O_32
    8  A    between atoms: C_16  and  C_44
    9  A    between atoms: C_17  and  C_42
   10  A    between atoms: C_18  and  C_24
   11  A    between atoms: C_19  and  C_31
   12  A    between atoms: C_20  and  C_44
   13  A    between atoms: N_21  and  C_29
   14  A    between atoms: N_21  and  C_41
   15  A    between atoms: C_22  and  C_29
   16  A    between atoms: C_23  and  C_33
   17  A    between atoms: N_27  and  C_39
   18  A    between atoms: N_27  and  C_43
   19  A    between atoms: C_33  and  C_43
                            x       y       z     vdW  Elec       q    Type
                         _______ _______ _______ _____ _____    ______ ____

>  <TORSDO>
F 19

$$$$
=
 OpenBabel11042420563D

 46 48  0  0  1  0  0  0  0  0999 V2000
  161.5120  205.7860  149.2200 C   0  0  0  0  0  3  0  0  0  0  0  0
  161.0300  205.9390  150.4590 C   0  0  0  0  0  0  0  0  0  0  0  0
  160.7060  204.8270  151.2490 O   0  0  0  0  0  0  0  0  0  0  0  0
  160.8930  202.4280  151.0790 C   0  0  0  0  0  1  0  0  0  0  0  0
  161.5840  203.7260  151.4570 C   0  0  0  0  0  2  0  0  0  0  0  0
  160.8260  207.3030  151.0410 C   0  0  0  0  0  2  0  0  0  0  0  0
  161.9350  207.6420  152.0250 C   0  0  0  0  0  2  0  0  0  0  0  0
  160.5500  207.1020  153.8920 O   0  0  0  0  0  1  0  0  0  0  0  0
  161.3580  208.1070  153.3520 C   0  0  2  0  0  3  0  0  0  0  0  0
  160.5670  209.3090  153.1450 N   0  0  0  0  0  2  0  0  0  0  0  0
  160.4890  210.0060  154.4220 C   0  0  1  0  0  3  0  0  0  0  0  0
  161.8100  210.7050  154.7080 C   0  0  0  0  0  1  0  0  0  0  0  0
  158.5880  211.0740  153.0680 C   0  0  0  0  0  2  0  0  0  0  0  0
  159.6800  212.3070  155.0790 C   0  0  0  0  0  2  0  0  0  0  0  0
  158.4600  213.0920  155.5650 C   0  0  0  0  0  2  0  0  0  0  0  0
  158.5750  212.4590  152.3910 C   0  0  1  0  0  3  0  0  0  0  0  0
  159.2980  210.9710  154.4390 C   0  0  2  0  0  3  0  0  0  0  0  0
  157.3320  213.1820  154.5350 C   0  0  0  0  0  2  0  0  0  0  0  0
  157.8370  213.5790  153.1490 C   0  0  0  0  0  2  0  0  0  0  0  0
  159.9700  212.8940  151.9640 C   0  0  0  0  0  2  0  0  0  0  0  0
  158.6990  213.3190  149.9590 O   0  0  0  0  0  1  0  0  0  0  0  0
  159.9840  213.3600  150.5110 C   0  0  2  0  0  3  0  0  0  0  0  0
  160.9300  213.1730  148.5460 O   0  0  0  0  0  1  0  0  0  0  0  0
  160.8880  212.6080  149.7380 O   0  0  0  0  0  0  0  0  0  0  0  0
  161.8790  206.9330  148.3360 C   0  0  0  0  0  2  0  0  0  0  0  0
  160.3060  206.4730  146.1410 S   0  0  0  0  0  0  0  0  0  0  0  0
  162.5710  205.0820  146.8510 C   0  0  0  0  0  2  0  0  0  0  0  0
  161.9650  206.4750  146.8920 C   0  0  2  0  0  3  0  0  0  0  0  0
  161.9210  204.1890  144.5360 C   0  0  2  0  0  3  0  0  0  0  0  0
  161.0220  206.6150  144.4770 C   0  0  0  0  0  2  0  0  0  0  0  0
  163.0460  204.7030  145.4480 C   0  0  0  0  0  2  0  0  0  0  0  0
  161.1160  205.2610  143.7810 C   0  0  1  0  0  3  0  0  0  0  0  0
  161.0240  203.1840  145.1880 C   0  0  0  0  0  3  0  0  0  0  0  0
  160.0030  202.8150  144.6330 O   0  0  0  0  0  0  0  0  0  0  0  0
  161.6780  205.4540  142.4540 N   0  0  0  0  0  2  0  0  0  0  0  0
  161.7610  206.8870  142.2160 C   0  0  0  0  0  2  0  0  0  0  0  0
  161.5300  207.1810  140.7330 C   0  0  1  0  0  3  0  0  0  0  0  0
  161.3110  208.6960  140.5250 C   0  0  0  0  0  3  0  0  0  0  0  0
  162.3740  210.9550  140.2600 C   0  0  0  0  0  2  0  0  0  0  0  0
  160.4470  208.9800  139.2880 C   0  0  0  0  0  2  0  0  0  0  0  0
  160.1780  210.4760  139.1590 C   0  0  0  0  0  2  0  0  0  0  0  0
  161.4960  211.2370  139.0440 C   0  0  0  0  0  2  0  0  0  0  0  0
  162.6330  209.4570  140.3820 C   0  0  0  0  0  2  0  0  0  0  0  0
  162.3330  206.5760  138.4310 C   0  0  0  0  0  1  0  0  0  0  0  0
  162.7160  206.6620  139.8970 C   0  0  2  0  0  3  0  0  0  0  0  0
  163.1180  205.3910  140.3150 O   0  0  0  0  0  1  0  0  0  0  0  0
  1  2  2  0  0  0  0
  2  6  1  0  0  0  0
  2  3  1  0  0  0  0
  3  5  1  0  0  0  0
  4  5  1  0  0  0  0
  6  7  1  0  0  0  0
  7  9  1  0  0  0  0
  9  8  1  6  0  0  0
 10  9  1  0  0  0  0
 10 11  1  0  0  0  0
 11 12  1  6  0  0  0
 13 17  1  0  0  0  0
 14 15  1  0  0  0  0
 16 20  1  1  0  0  0
 16 13  1  0  0  0  0
 16 19  1  0  0  0  0
 17 11  1  6  0  0  0
 17 14  1  0  0  0  0
 18 15  1  0  0  0  0
 19 18  1  0  0  0  0
 22 21  1  6  0  0  0
 22 20  1  0  0  0  0
 23 24  1  0  0  0  0
 24 22  1  0  0  0  0
 25  1  1  0  0  0  0
 26 28  1  0  0  0  0
 27 28  1  0  0  0  0
 28 25  1  1  0  0  0
 29 33  1  1  0  0  0
 29 31  1  0  0  0  0
 30 26  1  0  0  0  0
 31 27  1  0  0  0  0
 32 35  1  6  0  0  0
 32 30  1  0  0  0  0
 32 29  1  0  0  0  0
 34 33  2  0  0  0  0
 36 35  1  0  0  0  0
 37 36  1  1  0  0  0
 38 37  1  0  0  0  0
 39 43  1  0  0  0  0
 40 38  1  0  0  0  0
 41 40  1  0  0  0  0
 42 41  1  0  0  0  0
 42 39  1  0  0  0  0
 43 38  1  0  0  0  0
 45 44  1  6  0  0  0
 45 46  1  0  0  0  0
 45 37  1  0  0  0  0
M  END
>  <MODEL>
9

>  <REMARK>
 VINA RESULT:      -3.1      4.517     11.602
  Name = 
  19 active torsions:
  status: ('A' for Active; 'I' for Inactive)
    1  A    between atoms: O_4  and  C_14
    2  A    between atoms: O_4  and  C_19
    3  A    between atoms: C_6  and  C_31
    4  A    between atoms: C_6  and  C_41
    5  A    between atoms: C_9  and  C_33
    6  A    between atoms: C_13  and  C_42
    7  A    between atoms: C_16  and  O_32
    8  A    between atoms: C_16  and  C_44
    9  A    between atoms: C_17  and  C_42
   10  A    between atoms: C_18  and  C_24
   11  A    between atoms: C_19  and  C_31
   12  A    between atoms: C_20  and  C_44
   13  A    between atoms: N_21  and  C_29
   14  A    between atoms: N_21  and  C_41
   15  A    between atoms: C_22  and  C_29
   16  A    between atoms: C_23  and  C_33
   17  A    between atoms: N_27  and  C_39
   18  A    between atoms: N_27  and  C_43
   19  A    between atoms: C_33  and  C_43
                            x       y       z     vdW  Elec       q    Type
                         _______ _______ _______ _____ _____    ______ ____

>  <TORSDO>
F 19

$$$$
