=
 OpenBabel11052411273D

 43 46  0  0  1  0  0  0  0  0999 V2000
  162.0070  208.5060  148.5360 O   0  0  0  0  0  0  0  0  0  0  0  0
  160.2040  210.0030  152.5520 O   0  0  0  0  0  0  0  0  0  0  0  0
  160.8930  209.3190  153.5630 C   0  0  2  0  0  3  0  0  0  0  0  0
  160.9000  206.9060  154.1870 O   0  0  0  0  0  1  0  0  0  0  0  0
  160.9690  211.0190  152.1700 O   0  0  0  0  0  0  0  0  0  0  0  0
  161.5510  208.1590  150.6840 C   0  0  0  0  0  0  0  0  0  0  0  0
  161.6530  207.5850  149.4100 C   0  0  0  0  0  0  0  0  0  0  0  0
  161.8640  209.4950  150.4890 C   0  0  0  0  0  0  0  0  0  0  0  0
  161.0290  207.8640  153.1890 C   0  0  0  0  0  0  0  0  0  0  0  0
  162.0300  210.4870  151.4980 N   0  0  0  0  0  2  0  0  0  0  0  0
  162.1550  209.6490  149.1590 C   0  0  0  0  0  0  0  0  0  0  0  0
  161.2960  207.4200  151.9490 C   0  0  0  0  0  3  0  0  0  0  0  0
  161.1130  205.2110  150.0140 C   0  0  0  0  0  3  0  0  0  0  0  0
  161.4290  206.1650  149.0340 C   0  0  0  0  0  0  0  0  0  0  0  0
  160.9180  203.8730  149.6730 C   0  0  0  0  0  3  0  0  0  0  0  0
  161.0370  203.4670  148.3450 C   0  0  0  0  0  3  0  0  0  0  0  0
  161.5460  205.7480  147.6900 C   0  0  0  0  0  0  0  0  0  0  0  0
  161.3490  204.4000  147.3470 C   0  0  0  0  0  0  0  0  0  0  0  0
  161.8360  206.6470  146.7100 F   0  0  0  0  0  0  0  0  0  0  0  0
  161.4830  203.9640  145.9170 C   0  0  2  0  0  3  0  0  0  0  0  0
  161.3870  205.2610  144.1210 C   0  0  0  0  0  1  0  0  0  0  0  0
  160.5900  204.6710  145.1040 O   0  0  0  0  0  0  0  0  0  0  0  0
  161.2400  202.4900  145.8000 C   0  0  0  0  0  3  0  0  0  0  0  0
  160.1880  202.0280  145.1310 C   0  0  0  0  0  2  0  0  0  0  0  0
  162.5670  210.8710  148.5400 N   0  0  0  0  0  2  0  0  0  0  0  0
  161.6660  211.8210  147.9640 C   0  0  0  0  0  0  0  0  0  0  0  0
  162.2080  213.0600  147.3480 C   0  0  0  0  0  1  0  0  0  0  0  0
  160.4220  211.6230  147.9720 O   0  0  0  0  0  0  0  0  0  0  0  0
  160.1550  209.4930  154.8860 C   0  0  0  0  0  2  0  0  0  0  0  0
  160.9470  210.3710  155.8460 C   0  0  0  0  0  2  0  0  0  0  0  0
  160.5300  211.8000  155.7350 C   0  0  0  0  0  3  0  0  0  0  0  0
  159.3450  212.1190  155.2340 C   0  0  0  0  0  3  0  0  0  0  0  0
  158.9600  213.4560  155.1450 O   0  0  0  0  0  0  0  0  0  0  0  0
  157.6640  213.8400  154.6870 C   0  0  1  0  0  3  0  0  0  0  0  0
  158.1470  213.5260  151.1960 C   0  0  0  0  0  2  0  0  0  0  0  0
  158.8440  213.7900  152.4910 C   0  0  0  0  0  2  0  0  0  0  0  0
  157.7380  214.4200  153.2750 C   0  0  1  0  0  3  0  0  0  0  0  0
  156.5670  214.1220  152.5680 O   0  0  0  0  0  0  0  0  0  0  0  0
  156.9070  214.1730  151.2850 O   0  0  0  0  0  0  0  0  0  0  0  0
  156.6930  212.6620  154.7480 C   0  0  0  0  0  2  0  0  0  0  0  0
  156.1010  211.8030  156.8920 O   0  0  0  0  0  1  0  0  0  0  0  0
  154.9920  213.7020  156.2450 O   0  0  0  0  0  0  0  0  0  0  0  0
  155.9110  212.6870  156.0160 C   0  0  0  0  0  0  0  0  0  0  0  0
  1 11  1  0  0  0  0
  1  7  1  0  0  0  0
  2  3  1  0  0  0  0
  3 29  1  1  0  0  0
  5  2  1  0  0  0  0
  6 12  1  0  0  0  0
  7  6  2  0  0  0  0
  8  6  1  0  0  0  0
  8 10  1  0  0  0  0
  9  3  1  0  0  0  0
  9  4  1  0  0  0  0
 10  5  1  0  0  0  0
 11  8  2  0  0  0  0
 12  9  2  0  0  0  0
 14  7  1  0  0  0  0
 14 13  2  0  0  0  0
 15 13  1  0  0  0  0
 16 15  2  0  0  0  0
 17 14  1  0  0  0  0
 18 17  2  0  0  0  0
 18 16  1  0  0  0  0
 19 17  1  0  0  0  0
 20 23  1  1  0  0  0
 20 18  1  0  0  0  0
 21 22  1  0  0  0  0
 22 20  1  0  0  0  0
 24 23  2  0  0  0  0
 25 11  1  0  0  0  0
 26 28  2  0  0  0  0
 26 25  1  0  0  0  0
 27 26  1  0  0  0  0
 29 30  1  0  0  0  0
 31 30  1  0  0  0  0
 32 31  2  0  0  0  0
 33 32  1  0  0  0  0
 34 40  1  6  0  0  0
 34 33  1  0  0  0  0
 35 39  1  0  0  0  0
 35 36  1  0  0  0  0
 36 37  1  0  0  0  0
 37 34  1  1  0  0  0
 38 37  1  0  0  0  0
 39 38  1  0  0  0  0
 40 43  1  0  0  0  0
 43 42  2  0  0  0  0
 43 41  1  0  0  0  0
M  END
>  <MODEL>
1

>  <REMARK>
 VINA RESULT:      -8.2      0.000      0.000
  Name = 
  13 active torsions:
  status: ('A' for Active; 'I' for Inactive)
    1  A    between atoms: O_1  and  C_5
    2  A    between atoms: O_1  and  C_42
    3  A    between atoms: N_2  and  C_40
    4  A    between atoms: C_5  and  C_22
    5  A    between atoms: C_5  and  C_24
    6  A    between atoms: C_10  and  C_27
    7  A    between atoms: C_11  and  C_41
    8  A    between atoms: C_12  and  O_30
    9  A    between atoms: C_12  and  C_32
   10  A    between atoms: C_12  and  C_33
   11  A    between atoms: C_20  and  C_21
   12  A    between atoms: C_21  and  C_41
   13  A    between atoms: C_22  and  C_38
                            x       y       z     vdW  Elec       q    Type
                         _______ _______ _______ _____ _____    ______ ____

>  <TORSDO>
F 13

$$$$
=
 OpenBabel11052411273D

 43 46  0  0  1  0  0  0  0  0999 V2000
  162.0140  209.0760  148.5960 O   0  0  0  0  0  0  0  0  0  0  0  0
  160.2990  209.3510  152.9100 O   0  0  0  0  0  0  0  0  0  0  0  0
  161.1600  208.5920  153.7160 C   0  0  2  0  0  3  0  0  0  0  0  0
  161.5900  206.1380  153.7840 O   0  0  0  0  0  1  0  0  0  0  0  0
  160.8660  210.5390  152.7370 O   0  0  0  0  0  0  0  0  0  0  0  0
  161.7780  208.2040  150.6280 C   0  0  0  0  0  0  0  0  0  0  0  0
  161.8740  207.9430  149.2550 C   0  0  0  0  0  0  0  0  0  0  0  0
  161.8620  209.5850  150.7250 C   0  0  0  0  0  0  0  0  0  0  0  0
  161.4930  207.2960  153.0210 C   0  0  0  0  0  0  0  0  0  0  0  0
  161.9450  210.3500  151.9240 N   0  0  0  0  0  2  0  0  0  0  0  0
  162.0270  210.0670  149.4540 C   0  0  0  0  0  0  0  0  0  0  0  0
  161.7340  207.1790  151.7050 C   0  0  0  0  0  3  0  0  0  0  0  0
  162.3440  206.4770  147.2750 C   0  0  0  0  0  3  0  0  0  0  0  0
  161.8470  206.6200  148.5800 C   0  0  0  0  0  0  0  0  0  0  0  0
  162.3080  205.2430  146.6260 C   0  0  0  0  0  3  0  0  0  0  0  0
  161.7730  204.1310  147.2730 C   0  0  0  0  0  3  0  0  0  0  0  0
  161.3080  205.4880  149.2310 C   0  0  0  0  0  0  0  0  0  0  0  0
  161.2720  204.2460  148.5770 C   0  0  0  0  0  0  0  0  0  0  0  0
  160.8310  205.5840  150.5020 F   0  0  0  0  0  0  0  0  0  0  0  0
  160.6900  203.0500  149.2740 C   0  0  2  0  0  3  0  0  0  0  0  0
  160.7210  202.8000  151.4770 C   0  0  0  0  0  1  0  0  0  0  0  0
  161.5110  202.6550  150.3350 O   0  0  0  0  0  0  0  0  0  0  0  0
  160.5130  201.9210  148.3040 C   0  0  0  0  0  3  0  0  0  0  0  0
  161.2320  200.8090  148.4190 C   0  0  0  0  0  2  0  0  0  0  0  0
  162.1960  211.4450  149.1090 N   0  0  0  0  0  2  0  0  0  0  0  0
  161.5570  212.0770  147.9970 C   0  0  0  0  0  0  0  0  0  0  0  0
  161.8060  213.5190  147.7340 C   0  0  0  0  0  1  0  0  0  0  0  0
  160.7870  211.4310  147.2370 O   0  0  0  0  0  0  0  0  0  0  0  0
  160.5030  208.3510  155.0720 C   0  0  0  0  0  2  0  0  0  0  0  0
  161.1810  209.1670  156.1630 C   0  0  0  0  0  2  0  0  0  0  0  0
  160.6800  210.5740  156.1720 C   0  0  0  0  0  3  0  0  0  0  0  0
  159.3790  210.8250  156.1510 C   0  0  0  0  0  3  0  0  0  0  0  0
  158.9200  212.1420  156.1720 O   0  0  0  0  0  0  0  0  0  0  0  0
  157.6630  212.5130  155.6060 C   0  0  1  0  0  3  0  0  0  0  0  0
  158.2500  213.8230  152.3720 C   0  0  0  0  0  2  0  0  0  0  0  0
  158.9160  213.3950  153.6390 C   0  0  0  0  0  2  0  0  0  0  0  0
  157.8310  213.6760  154.6290 C   0  0  1  0  0  3  0  0  0  0  0  0
  156.6690  213.8370  153.8660 O   0  0  0  0  0  0  0  0  0  0  0  0
  157.0580  214.4530  152.7550 O   0  0  0  0  0  0  0  0  0  0  0  0
  156.9960  211.3170  154.9300 C   0  0  0  0  0  2  0  0  0  0  0  0
  155.0880  209.9310  155.2770 O   0  0  0  0  0  0  0  0  0  0  0  0
  155.2700  211.7340  156.6800 O   0  0  0  0  0  1  0  0  0  0  0  0
  155.7290  210.9550  155.6260 C   0  0  0  0  0  0  0  0  0  0  0  0
  1  7  1  0  0  0  0
  1 11  1  0  0  0  0
  2  3  1  0  0  0  0
  3 29  1  1  0  0  0
  5  2  1  0  0  0  0
  6  8  1  0  0  0  0
  6 12  1  0  0  0  0
  7  6  2  0  0  0  0
  8 10  1  0  0  0  0
  9  3  1  0  0  0  0
  9  4  1  0  0  0  0
 10  5  1  0  0  0  0
 11  8  2  0  0  0  0
 12  9  2  0  0  0  0
 13 14  1  0  0  0  0
 14 17  2  0  0  0  0
 14  7  1  0  0  0  0
 15 16  1  0  0  0  0
 15 13  2  0  0  0  0
 16 18  2  0  0  0  0
 17 19  1  0  0  0  0
 18 17  1  0  0  0  0
 18 20  1  0  0  0  0
 20 23  1  6  0  0  0
 20 22  1  0  0  0  0
 22 21  1  0  0  0  0
 23 24  2  0  0  0  0
 25 11  1  0  0  0  0
 26 25  1  0  0  0  0
 27 26  1  0  0  0  0
 28 26  2  0  0  0  0
 29 30  1  0  0  0  0
 30 31  1  0  0  0  0
 32 31  2  0  0  0  0
 32 33  1  0  0  0  0
 34 40  1  6  0  0  0
 34 33  1  0  0  0  0
 35 39  1  0  0  0  0
 35 36  1  0  0  0  0
 36 37  1  0  0  0  0
 37 34  1  1  0  0  0
 38 37  1  0  0  0  0
 39 38  1  0  0  0  0
 40 43  1  0  0  0  0
 41 43  2  0  0  0  0
 43 42  1  0  0  0  0
M  END
>  <MODEL>
2

>  <REMARK>
 VINA RESULT:      -8.1      1.593      2.255
  Name = 
  13 active torsions:
  status: ('A' for Active; 'I' for Inactive)
    1  A    between atoms: O_1  and  C_5
    2  A    between atoms: O_1  and  C_42
    3  A    between atoms: N_2  and  C_40
    4  A    between atoms: C_5  and  C_22
    5  A    between atoms: C_5  and  C_24
    6  A    between atoms: C_10  and  C_27
    7  A    between atoms: C_11  and  C_41
    8  A    between atoms: C_12  and  O_30
    9  A    between atoms: C_12  and  C_32
   10  A    between atoms: C_12  and  C_33
   11  A    between atoms: C_20  and  C_21
   12  A    between atoms: C_21  and  C_41
   13  A    between atoms: C_22  and  C_38
                            x       y       z     vdW  Elec       q    Type
                         _______ _______ _______ _____ _____    ______ ____

>  <TORSDO>
F 13

$$$$
=
 OpenBabel11052411273D

 43 46  0  0  1  0  0  0  0  0999 V2000
  161.4150  211.3030  151.6400 O   0  0  0  0  0  0  0  0  0  0  0  0
  162.8050  206.8780  151.3150 O   0  0  0  0  0  0  0  0  0  0  0  0
  161.6780  206.0970  151.6080 C   0  0  2  0  0  3  0  0  0  0  0  0
  160.4090  205.7960  153.7310 O   0  0  0  0  0  1  0  0  0  0  0  0
  162.7060  207.2540  150.0460 O   0  0  0  0  0  0  0  0  0  0  0  0
  161.1850  209.1700  152.2240 C   0  0  0  0  0  0  0  0  0  0  0  0
  161.1010  210.5050  152.6410 C   0  0  0  0  0  0  0  0  0  0  0  0
  161.5840  209.2450  150.8980 C   0  0  0  0  0  0  0  0  0  0  0  0
  160.9600  206.6710  152.8040 C   0  0  0  0  0  0  0  0  0  0  0  0
  161.6900  208.1620  149.9790 N   0  0  0  0  0  2  0  0  0  0  0  0
  161.6910  210.5750  150.5860 C   0  0  0  0  0  0  0  0  0  0  0  0
  160.7880  207.9840  153.0280 C   0  0  0  0  0  3  0  0  0  0  0  0
  161.6010  210.9350  155.0610 C   0  0  0  0  0  3  0  0  0  0  0  0
  160.7090  211.0130  153.9800 C   0  0  0  0  0  0  0  0  0  0  0  0
  161.2360  211.3940  156.3260 C   0  0  0  0  0  3  0  0  0  0  0  0
  159.9700  211.9390  156.5310 C   0  0  0  0  0  3  0  0  0  0  0  0
  159.4280  211.5690  154.1940 C   0  0  0  0  0  0  0  0  0  0  0  0
  159.0610  212.0320  155.4680 C   0  0  0  0  0  0  0  0  0  0  0  0
  158.5410  211.6770  153.1670 F   0  0  0  0  0  0  0  0  0  0  0  0
  157.6950  212.6140  155.6890 C   0  0  2  0  0  3  0  0  0  0  0  0
  156.4490  214.1430  156.7050 C   0  0  0  0  0  1  0  0  0  0  0  0
  157.7410  213.6140  156.6660 O   0  0  0  0  0  0  0  0  0  0  0  0
  156.7310  211.5380  156.0880 C   0  0  0  0  0  3  0  0  0  0  0  0
  155.9600  210.9480  155.1800 C   0  0  0  0  0  2  0  0  0  0  0  0
  162.0420  211.0950  149.3010 N   0  0  0  0  0  2  0  0  0  0  0  0
  161.5840  212.3510  148.7930 C   0  0  0  0  0  0  0  0  0  0  0  0
  162.0150  212.7920  147.4400 C   0  0  0  0  0  1  0  0  0  0  0  0
  160.8230  213.0880  149.4730 O   0  0  0  0  0  0  0  0  0  0  0  0
  162.1090  204.6540  151.8500 C   0  0  0  0  0  2  0  0  0  0  0  0
  161.0720  203.6740  151.3200 C   0  0  0  0  0  2  0  0  0  0  0  0
  160.6500  204.0350  149.9340 C   0  0  0  0  0  3  0  0  0  0  0  0
  161.4330  203.7640  148.9000 C   0  0  0  0  0  3  0  0  0  0  0  0
  161.0260  204.0950  147.6080 O   0  0  0  0  0  0  0  0  0  0  0  0
  161.9030  203.9850  146.4870 C   0  0  1  0  0  3  0  0  0  0  0  0
  159.6420  201.4400  145.5200 C   0  0  0  0  0  2  0  0  0  0  0  0
  160.8880  201.7150  146.2980 C   0  0  0  0  0  2  0  0  0  0  0  0
  161.4350  202.8810  145.5390 C   0  0  1  0  0  3  0  0  0  0  0  0
  160.3720  203.3400  144.7510 O   0  0  0  0  0  0  0  0  0  0  0  0
  159.7130  202.2480  144.3780 O   0  0  0  0  0  0  0  0  0  0  0  0
  162.0250  205.3220  145.7590 C   0  0  0  0  0  2  0  0  0  0  0  0
  159.8800  206.2770  145.3450 O   0  0  0  0  0  0  0  0  0  0  0  0
  160.9160  206.9660  147.2700 O   0  0  0  0  0  1  0  0  0  0  0  0
  160.8840  206.2170  146.1020 C   0  0  0  0  0  0  0  0  0  0  0  0
  1  7  1  0  0  0  0
  2  3  1  0  0  0  0
  3 29  1  1  0  0  0
  3  9  1  0  0  0  0
  5  2  1  0  0  0  0
  6  7  2  0  0  0  0
  6 12  1  0  0  0  0
  7 14  1  0  0  0  0
  8  6  1  0  0  0  0
  9 12  2  0  0  0  0
  9  4  1  0  0  0  0
 10  5  1  0  0  0  0
 10  8  1  0  0  0  0
 11  8  2  0  0  0  0
 11  1  1  0  0  0  0
 13 15  1  0  0  0  0
 14 17  1  0  0  0  0
 14 13  2  0  0  0  0
 15 16  2  0  0  0  0
 17 18  2  0  0  0  0
 18 20  1  0  0  0  0
 18 16  1  0  0  0  0
 19 17  1  0  0  0  0
 20 23  1  1  0  0  0
 20 22  1  0  0  0  0
 22 21  1  0  0  0  0
 24 23  2  0  0  0  0
 25 11  1  0  0  0  0
 26 25  1  0  0  0  0
 26 28  2  0  0  0  0
 27 26  1  0  0  0  0
 30 29  1  0  0  0  0
 31 30  1  0  0  0  0
 32 31  2  0  0  0  0
 33 32  1  0  0  0  0
 34 40  1  6  0  0  0
 34 33  1  0  0  0  0
 35 36  1  0  0  0  0
 37 36  1  0  0  0  0
 37 34  1  1  0  0  0
 38 37  1  0  0  0  0
 39 38  1  0  0  0  0
 39 35  1  0  0  0  0
 40 43  1  0  0  0  0
 41 43  2  0  0  0  0
 43 42  1  0  0  0  0
M  END
>  <MODEL>
3

>  <REMARK>
 VINA RESULT:      -7.9      2.323      9.767
  Name = 
  13 active torsions:
  status: ('A' for Active; 'I' for Inactive)
    1  A    between atoms: O_1  and  C_5
    2  A    between atoms: O_1  and  C_42
    3  A    between atoms: N_2  and  C_40
    4  A    between atoms: C_5  and  C_22
    5  A    between atoms: C_5  and  C_24
    6  A    between atoms: C_10  and  C_27
    7  A    between atoms: C_11  and  C_41
    8  A    between atoms: C_12  and  O_30
    9  A    between atoms: C_12  and  C_32
   10  A    between atoms: C_12  and  C_33
   11  A    between atoms: C_20  and  C_21
   12  A    between atoms: C_21  and  C_41
   13  A    between atoms: C_22  and  C_38
                            x       y       z     vdW  Elec       q    Type
                         _______ _______ _______ _____ _____    ______ ____

>  <TORSDO>
F 13

$$$$
=
 OpenBabel11052411273D

 43 46  0  0  1  0  0  0  0  0999 V2000
  162.0390  208.3640  147.9350 O   0  0  0  0  0  0  0  0  0  0  0  0
  160.4550  208.2540  152.3060 O   0  0  0  0  0  0  0  0  0  0  0  0
  161.1810  207.2440  152.9540 C   0  0  2  0  0  3  0  0  0  0  0  0
  161.1780  204.7720  152.6340 O   0  0  0  0  0  1  0  0  0  0  0  0
  161.2180  209.3410  152.2910 O   0  0  0  0  0  0  0  0  0  0  0  0
  161.6810  207.2410  149.8200 C   0  0  0  0  0  0  0  0  0  0  0  0
  161.7120  207.1830  148.4210 C   0  0  0  0  0  0  0  0  0  0  0  0
  162.0060  208.5550  150.1210 C   0  0  0  0  0  0  0  0  0  0  0  0
  161.2750  206.0330  152.0590 C   0  0  0  0  0  0  0  0  0  0  0  0
  162.2370  209.1000  151.4160 N   0  0  0  0  0  2  0  0  0  0  0  0
  162.2350  209.1930  148.9300 C   0  0  0  0  0  0  0  0  0  0  0  0
  161.4740  206.0840  150.7310 C   0  0  0  0  0  3  0  0  0  0  0  0
  161.1290  206.1750  146.2000 C   0  0  0  0  0  3  0  0  0  0  0  0
  161.4470  206.0050  147.5560 C   0  0  0  0  0  0  0  0  0  0  0  0
  160.8620  205.0760  145.3830 C   0  0  0  0  0  3  0  0  0  0  0  0
  160.9070  203.7880  145.9120 C   0  0  0  0  0  3  0  0  0  0  0  0
  161.4930  204.6960  148.0850 C   0  0  0  0  0  0  0  0  0  0  0  0
  161.2240  203.5900  147.2630 C   0  0  0  0  0  0  0  0  0  0  0  0
  161.8130  204.4900  149.3920 F   0  0  0  0  0  0  0  0  0  0  0  0
  161.2680  202.2030  147.8350 C   0  0  2  0  0  3  0  0  0  0  0  0
  161.6240  200.0870  147.2700 C   0  0  0  0  0  1  0  0  0  0  0  0
  160.9880  201.2560  146.8440 O   0  0  0  0  0  0  0  0  0  0  0  0
  160.2940  202.0780  148.9660 C   0  0  0  0  0  3  0  0  0  0  0  0
  160.7070  201.7370  150.1830 C   0  0  0  0  0  2  0  0  0  0  0  0
  162.6360  210.5590  148.7910 N   0  0  0  0  0  2  0  0  0  0  0  0
  161.8500  211.5630  148.1450 C   0  0  0  0  0  0  0  0  0  0  0  0
  162.3690  212.9540  148.0590 C   0  0  0  0  0  1  0  0  0  0  0  0
  160.7260  211.2880  147.6480 O   0  0  0  0  0  0  0  0  0  0  0  0
  160.5100  206.9100  154.2820 C   0  0  0  0  0  2  0  0  0  0  0  0
  161.1060  207.7290  155.4190 C   0  0  0  0  0  2  0  0  0  0  0  0
  160.3550  209.0040  155.6140 C   0  0  0  0  0  3  0  0  0  0  0  0
  160.7260  209.8680  156.5480 C   0  0  0  0  0  3  0  0  0  0  0  0
  160.0250  211.0620  156.7150 O   0  0  0  0  0  0  0  0  0  0  0  0
  158.9740  211.4510  155.8300 C   0  0  1  0  0  3  0  0  0  0  0  0
  156.0510  213.3350  156.4820 C   0  0  0  0  0  2  0  0  0  0  0  0
  157.4940  213.1840  156.8400 C   0  0  0  0  0  2  0  0  0  0  0  0
  157.6850  211.7200  156.6040 C   0  0  1  0  0  3  0  0  0  0  0  0
  156.5760  211.3210  155.8490 O   0  0  0  0  0  0  0  0  0  0  0  0
  155.5560  212.0340  156.3140 O   0  0  0  0  0  0  0  0  0  0  0  0
  159.3840  212.6680  155.0020 C   0  0  0  0  0  2  0  0  0  0  0  0
  158.7330  213.5680  152.8920 O   0  0  0  0  0  0  0  0  0  0  0  0
  158.6540  211.2840  153.0610 O   0  0  0  0  0  1  0  0  0  0  0  0
  158.8980  212.5400  153.5990 C   0  0  0  0  0  0  0  0  0  0  0  0
  1  7  1  0  0  0  0
  1 11  1  0  0  0  0
  2  3  1  0  0  0  0
  3 29  1  1  0  0  0
  5  2  1  0  0  0  0
  6  8  1  0  0  0  0
  6 12  1  0  0  0  0
  7  6  2  0  0  0  0
  8 10  1  0  0  0  0
  9  4  1  0  0  0  0
  9  3  1  0  0  0  0
 10  5  1  0  0  0  0
 11  8  2  0  0  0  0
 12  9  2  0  0  0  0
 13 14  1  0  0  0  0
 14 17  2  0  0  0  0
 14  7  1  0  0  0  0
 15 16  1  0  0  0  0
 15 13  2  0  0  0  0
 16 18  2  0  0  0  0
 17 19  1  0  0  0  0
 18 20  1  0  0  0  0
 18 17  1  0  0  0  0
 20 23  1  1  0  0  0
 22 21  1  0  0  0  0
 22 20  1  0  0  0  0
 23 24  2  0  0  0  0
 25 11  1  0  0  0  0
 26 25  1  0  0  0  0
 27 26  1  0  0  0  0
 28 26  2  0  0  0  0
 29 30  1  0  0  0  0
 30 31  1  0  0  0  0
 31 32  2  0  0  0  0
 32 33  1  0  0  0  0
 34 40  1  1  0  0  0
 34 33  1  0  0  0  0
 35 36  1  0  0  0  0
 37 34  1  6  0  0  0
 37 36  1  0  0  0  0
 38 39  1  0  0  0  0
 38 37  1  0  0  0  0
 39 35  1  0  0  0  0
 41 43  2  0  0  0  0
 42 43  1  0  0  0  0
 43 40  1  0  0  0  0
M  END
>  <MODEL>
4

>  <REMARK>
 VINA RESULT:      -7.6      1.629      3.180
  Name = 
  13 active torsions:
  status: ('A' for Active; 'I' for Inactive)
    1  A    between atoms: O_1  and  C_5
    2  A    between atoms: O_1  and  C_42
    3  A    between atoms: N_2  and  C_40
    4  A    between atoms: C_5  and  C_22
    5  A    between atoms: C_5  and  C_24
    6  A    between atoms: C_10  and  C_27
    7  A    between atoms: C_11  and  C_41
    8  A    between atoms: C_12  and  O_30
    9  A    between atoms: C_12  and  C_32
   10  A    between atoms: C_12  and  C_33
   11  A    between atoms: C_20  and  C_21
   12  A    between atoms: C_21  and  C_41
   13  A    between atoms: C_22  and  C_38
                            x       y       z     vdW  Elec       q    Type
                         _______ _______ _______ _____ _____    ______ ____

>  <TORSDO>
F 13

$$$$
=
 OpenBabel11052411273D

 43 46  0  0  1  0  0  0  0  0999 V2000
  157.4450  213.9760  152.7630 O   0  0  0  0  0  0  0  0  0  0  0  0
  159.3530  210.1820  154.6570 O   0  0  0  0  0  0  0  0  0  0  0  0
  160.7230  210.2530  154.3660 C   0  0  2  0  0  3  0  0  0  0  0  0
  161.9400  210.0780  152.1980 O   0  0  0  0  0  1  0  0  0  0  0  0
  159.1320  210.9630  155.7080 O   0  0  0  0  0  0  0  0  0  0  0  0
  159.0600  212.4480  152.7900 C   0  0  0  0  0  0  0  0  0  0  0  0
  158.2460  213.2640  151.9940 C   0  0  0  0  0  0  0  0  0  0  0  0
  158.6670  212.7270  154.0900 C   0  0  0  0  0  0  0  0  0  0  0  0
  160.9140  210.6660  152.9280 C   0  0  0  0  0  0  0  0  0  0  0  0
  159.2800  212.2510  155.2850 N   0  0  0  0  0  2  0  0  0  0  0  0
  157.6900  213.6840  154.0160 C   0  0  0  0  0  0  0  0  0  0  0  0
  160.1740  211.5940  152.2990 C   0  0  0  0  0  3  0  0  0  0  0  0
  157.0460  213.2540  149.7920 C   0  0  0  0  0  3  0  0  0  0  0  0
  158.2440  213.3750  150.5130 C   0  0  0  0  0  0  0  0  0  0  0  0
  157.0360  213.3390  148.4000 C   0  0  0  0  0  3  0  0  0  0  0  0
  158.2260  213.5480  147.7060 C   0  0  0  0  0  3  0  0  0  0  0  0
  159.4460  213.5890  149.8040 C   0  0  0  0  0  0  0  0  0  0  0  0
  159.4360  213.6750  148.4020 C   0  0  0  0  0  0  0  0  0  0  0  0
  160.6250  213.7270  150.4690 F   0  0  0  0  0  0  0  0  0  0  0  0
  160.7200  213.8940  147.6560 C   0  0  2  0  0  3  0  0  0  0  0  0
  161.5130  214.0090  145.5870 C   0  0  0  0  0  1  0  0  0  0  0  0
  160.4660  214.4530  146.3990 O   0  0  0  0  0  0  0  0  0  0  0  0
  161.4630  212.6010  147.5120 C   0  0  0  0  0  3  0  0  0  0  0  0
  162.3680  212.2350  148.4140 C   0  0  0  0  0  2  0  0  0  0  0  0
  157.0380  214.2850  155.1390 N   0  0  0  0  0  2  0  0  0  0  0  0
  156.0370  213.6350  155.9260 C   0  0  0  0  0  0  0  0  0  0  0  0
  155.4260  214.3570  157.0730 C   0  0  0  0  0  1  0  0  0  0  0  0
  155.6650  212.4610  155.6630 O   0  0  0  0  0  0  0  0  0  0  0  0
  161.3730  208.9040  154.6550 C   0  0  0  0  0  2  0  0  0  0  0  0
  160.5590  207.7630  154.0600 C   0  0  0  0  0  2  0  0  0  0  0  0
  161.4070  206.8940  153.1910 C   0  0  0  0  0  3  0  0  0  0  0  0
  160.9000  205.8090  152.6240 C   0  0  0  0  0  3  0  0  0  0  0  0
  161.6960  205.0100  151.8040 O   0  0  0  0  0  0  0  0  0  0  0  0
  161.3880  204.7960  150.4270 C   0  0  1  0  0  3  0  0  0  0  0  0
  161.2090  201.4920  149.1750 C   0  0  0  0  0  2  0  0  0  0  0  0
  160.9010  202.9200  148.8600 C   0  0  0  0  0  2  0  0  0  0  0  0
  160.6700  203.4610  150.2340 C   0  0  1  0  0  3  0  0  0  0  0  0
  161.1970  202.4990  151.1030 O   0  0  0  0  0  0  0  0  0  0  0  0
  160.9280  201.3270  150.5380 O   0  0  0  0  0  0  0  0  0  0  0  0
  160.5620  205.9530  149.8680 C   0  0  0  0  0  2  0  0  0  0  0  0
  162.0260  207.7370  149.2710 O   0  0  0  0  0  1  0  0  0  0  0  0
  161.3810  206.3680  147.5500 O   0  0  0  0  0  0  0  0  0  0  0  0
  161.3570  206.7430  148.8860 C   0  0  0  0  0  0  0  0  0  0  0  0
  1 11  1  0  0  0  0
  2  5  1  0  0  0  0
  3 29  1  6  0  0  0
  3  2  1  0  0  0  0
  4  9  1  0  0  0  0
  6  8  1  0  0  0  0
  7  1  1  0  0  0  0
  7  6  2  0  0  0  0
  8 10  1  0  0  0  0
  9  3  1  0  0  0  0
 10  5  1  0  0  0  0
 11  8  2  0  0  0  0
 11 25  1  0  0  0  0
 12  6  1  0  0  0  0
 12  9  2  0  0  0  0
 13 14  1  0  0  0  0
 14  7  1  0  0  0  0
 15 13  2  0  0  0  0
 16 15  1  0  0  0  0
 16 18  2  0  0  0  0
 17 19  1  0  0  0  0
 17 14  2  0  0  0  0
 18 17  1  0  0  0  0
 20 23  1  6  0  0  0
 20 18  1  0  0  0  0
 21 22  1  0  0  0  0
 22 20  1  0  0  0  0
 23 24  2  0  0  0  0
 25 26  1  0  0  0  0
 26 27  1  0  0  0  0
 28 26  2  0  0  0  0
 30 29  1  0  0  0  0
 31 30  1  0  0  0  0
 32 31  2  0  0  0  0
 33 32  1  0  0  0  0
 34 40  1  1  0  0  0
 34 33  1  0  0  0  0
 35 39  1  0  0  0  0
 36 35  1  0  0  0  0
 36 37  1  0  0  0  0
 37 34  1  6  0  0  0
 37 38  1  0  0  0  0
 39 38  1  0  0  0  0
 42 43  2  0  0  0  0
 43 41  1  0  0  0  0
 43 40  1  0  0  0  0
M  END
>  <MODEL>
5

>  <REMARK>
 VINA RESULT:      -7.4      2.805      8.866
  Name = 
  13 active torsions:
  status: ('A' for Active; 'I' for Inactive)
    1  A    between atoms: O_1  and  C_5
    2  A    between atoms: O_1  and  C_42
    3  A    between atoms: N_2  and  C_40
    4  A    between atoms: C_5  and  C_22
    5  A    between atoms: C_5  and  C_24
    6  A    between atoms: C_10  and  C_27
    7  A    between atoms: C_11  and  C_41
    8  A    between atoms: C_12  and  O_30
    9  A    between atoms: C_12  and  C_32
   10  A    between atoms: C_12  and  C_33
   11  A    between atoms: C_20  and  C_21
   12  A    between atoms: C_21  and  C_41
   13  A    between atoms: C_22  and  C_38
                            x       y       z     vdW  Elec       q    Type
                         _______ _______ _______ _____ _____    ______ ____

>  <TORSDO>
F 13

$$$$
=
 OpenBabel11052411273D

 43 46  0  0  1  0  0  0  0  0999 V2000
  161.2050  211.4650  151.7060 O   0  0  0  0  0  0  0  0  0  0  0  0
  162.7320  207.0820  151.9860 O   0  0  0  0  0  0  0  0  0  0  0  0
  161.6120  206.3030  152.3100 C   0  0  2  0  0  3  0  0  0  0  0  0
  160.2350  206.2120  154.3850 O   0  0  0  0  0  1  0  0  0  0  0  0
  162.6940  207.3030  150.6770 O   0  0  0  0  0  0  0  0  0  0  0  0
  161.0010  209.4100  152.5280 C   0  0  0  0  0  0  0  0  0  0  0  0
  160.8580  210.7800  152.7770 C   0  0  0  0  0  0  0  0  0  0  0  0
  161.4720  209.3410  151.2250 C   0  0  0  0  0  0  0  0  0  0  0  0
  160.8140  206.9900  153.3900 C   0  0  0  0  0  0  0  0  0  0  0  0
  161.6590  208.1620  150.4480 N   0  0  0  0  0  2  0  0  0  0  0  0
  161.5600  210.6280  150.7630 C   0  0  0  0  0  0  0  0  0  0  0  0
  160.5930  208.3140  153.4460 C   0  0  0  0  0  3  0  0  0  0  0  0
  161.1970  211.4780  155.1620 C   0  0  0  0  0  3  0  0  0  0  0  0
  160.3780  211.4300  154.0240 C   0  0  0  0  0  0  0  0  0  0  0  0
  160.7480  212.0700  156.3430 C   0  0  0  0  0  3  0  0  0  0  0  0
  159.4710  212.6240  156.4030 C   0  0  0  0  0  3  0  0  0  0  0  0
  159.0850  211.9950  154.0910 C   0  0  0  0  0  0  0  0  0  0  0  0
  158.6340  212.5920  155.2800 C   0  0  0  0  0  0  0  0  0  0  0  0
  158.2680  211.9820  153.0030 F   0  0  0  0  0  0  0  0  0  0  0  0
  157.2550  213.1830  155.3440 C   0  0  2  0  0  3  0  0  0  0  0  0
  155.9860  214.4530  156.6470 C   0  0  0  0  0  1  0  0  0  0  0  0
  157.2650  214.3650  156.0930 O   0  0  0  0  0  0  0  0  0  0  0  0
  156.2960  212.1970  155.9380 C   0  0  0  0  0  3  0  0  0  0  0  0
  155.8760  211.1510  155.2330 C   0  0  0  0  0  2  0  0  0  0  0  0
  161.9680  211.0040  149.4450 N   0  0  0  0  0  2  0  0  0  0  0  0
  161.5860  212.2250  148.8060 C   0  0  0  0  0  0  0  0  0  0  0  0
  162.0710  212.5130  147.4300 C   0  0  0  0  0  1  0  0  0  0  0  0
  160.8460  213.0600  149.3900 O   0  0  0  0  0  0  0  0  0  0  0  0
  162.0690  204.9150  152.7450 C   0  0  0  0  0  2  0  0  0  0  0  0
  161.1030  203.8420  152.2610 C   0  0  0  0  0  2  0  0  0  0  0  0
  160.5380  204.1920  150.9240 C   0  0  0  0  0  3  0  0  0  0  0  0
  161.3130  204.2120  149.8490 C   0  0  0  0  0  3  0  0  0  0  0  0
  160.7730  204.5290  148.6040 O   0  0  0  0  0  0  0  0  0  0  0  0
  160.9530  203.6870  147.4650 C   0  0  1  0  0  3  0  0  0  0  0  0
  160.8010  204.9800  144.1750 C   0  0  0  0  0  2  0  0  0  0  0  0
  161.2380  203.8070  144.9920 C   0  0  0  0  0  2  0  0  0  0  0  0
  161.5390  204.4750  146.2950 C   0  0  1  0  0  3  0  0  0  0  0  0
  160.9350  205.7350  146.2110 O   0  0  0  0  0  0  0  0  0  0  0  0
  161.0830  206.1150  144.9470 O   0  0  0  0  0  0  0  0  0  0  0  0
  161.8280  202.4830  147.8120 C   0  0  0  0  0  2  0  0  0  0  0  0
  159.9160  201.3610  148.6890 O   0  0  0  0  0  1  0  0  0  0  0  0
  161.3870  200.0470  147.5220 O   0  0  0  0  0  0  0  0  0  0  0  0
  160.9920  201.2710  148.0430 C   0  0  0  0  0  0  0  0  0  0  0  0
  1  7  1  0  0  0  0
  2  3  1  0  0  0  0
  3 29  1  1  0  0  0
  3  9  1  0  0  0  0
  5  2  1  0  0  0  0
  6  7  2  0  0  0  0
  6 12  1  0  0  0  0
  7 14  1  0  0  0  0
  8  6  1  0  0  0  0
  9 12  2  0  0  0  0
  9  4  1  0  0  0  0
 10  5  1  0  0  0  0
 10  8  1  0  0  0  0
 11  8  2  0  0  0  0
 11  1  1  0  0  0  0
 13 15  1  0  0  0  0
 14 17  1  0  0  0  0
 14 13  2  0  0  0  0
 15 16  2  0  0  0  0
 17 18  2  0  0  0  0
 18 20  1  0  0  0  0
 18 16  1  0  0  0  0
 19 17  1  0  0  0  0
 20 23  1  1  0  0  0
 20 22  1  0  0  0  0
 22 21  1  0  0  0  0
 24 23  2  0  0  0  0
 25 11  1  0  0  0  0
 26 28  2  0  0  0  0
 26 25  1  0  0  0  0
 27 26  1  0  0  0  0
 30 29  1  0  0  0  0
 31 30  1  0  0  0  0
 32 31  2  0  0  0  0
 33 32  1  0  0  0  0
 34 40  1  1  0  0  0
 34 33  1  0  0  0  0
 35 39  1  0  0  0  0
 35 36  1  0  0  0  0
 36 37  1  0  0  0  0
 37 34  1  1  0  0  0
 38 37  1  0  0  0  0
 39 38  1  0  0  0  0
 40 43  1  0  0  0  0
 42 43  2  0  0  0  0
 43 41  1  0  0  0  0
M  END
>  <MODEL>
6

>  <REMARK>
 VINA RESULT:      -7.2      2.335      9.724
  Name = 
  13 active torsions:
  status: ('A' for Active; 'I' for Inactive)
    1  A    between atoms: O_1  and  C_5
    2  A    between atoms: O_1  and  C_42
    3  A    between atoms: N_2  and  C_40
    4  A    between atoms: C_5  and  C_22
    5  A    between atoms: C_5  and  C_24
    6  A    between atoms: C_10  and  C_27
    7  A    between atoms: C_11  and  C_41
    8  A    between atoms: C_12  and  O_30
    9  A    between atoms: C_12  and  C_32
   10  A    between atoms: C_12  and  C_33
   11  A    between atoms: C_20  and  C_21
   12  A    between atoms: C_21  and  C_41
   13  A    between atoms: C_22  and  C_38
                            x       y       z     vdW  Elec       q    Type
                         _______ _______ _______ _____ _____    ______ ____

>  <TORSDO>
F 13

$$$$
=
 OpenBabel11052411273D

 43 46  0  0  1  0  0  0  0  0999 V2000
  160.6000  206.0840  153.4950 O   0  0  0  0  0  0  0  0  0  0  0  0
  162.5740  209.7960  151.5090 O   0  0  0  0  0  0  0  0  0  0  0  0
  161.8890  209.9980  150.3020 C   0  0  2  0  0  3  0  0  0  0  0  0
  161.8100  208.6250  148.2230 O   0  0  0  0  0  1  0  0  0  0  0  0
  161.8360  210.3300  152.4750 O   0  0  0  0  0  0  0  0  0  0  0  0
  161.1050  207.2420  151.6650 C   0  0  0  0  0  0  0  0  0  0  0  0
  160.9450  205.9690  152.2280 C   0  0  0  0  0  0  0  0  0  0  0  0
  160.8370  208.1180  152.7070 C   0  0  0  0  0  0  0  0  0  0  0  0
  161.6880  208.6750  149.6060 C   0  0  0  0  0  0  0  0  0  0  0  0
  160.7370  209.5360  152.6210 N   0  0  0  0  0  2  0  0  0  0  0  0
  160.5140  207.3560  153.7980 C   0  0  0  0  0  0  0  0  0  0  0  0
  161.3690  207.5290  150.2300 C   0  0  0  0  0  3  0  0  0  0  0  0
  161.5390  203.5330  152.2800 C   0  0  0  0  0  3  0  0  0  0  0  0
  161.1050  204.6540  151.5560 C   0  0  0  0  0  0  0  0  0  0  0  0
  161.7080  202.2980  151.6540 C   0  0  0  0  0  3  0  0  0  0  0  0
  161.4470  202.1650  150.2930 C   0  0  0  0  0  3  0  0  0  0  0  0
  160.8390  204.5120  150.1760 C   0  0  0  0  0  0  0  0  0  0  0  0
  161.0100  203.2680  149.5470 C   0  0  0  0  0  0  0  0  0  0  0  0
  160.4010  205.5720  149.4440 F   0  0  0  0  0  0  0  0  0  0  0  0
  160.7330  203.1280  148.0780 C   0  0  2  0  0  3  0  0  0  0  0  0
  160.8260  201.6940  146.3880 C   0  0  0  0  0  1  0  0  0  0  0  0
  160.5170  201.7860  147.7470 O   0  0  0  0  0  0  0  0  0  0  0  0
  161.8720  203.6860  147.2800 C   0  0  0  0  0  3  0  0  0  0  0  0
  161.7330  204.8230  146.6040 C   0  0  0  0  0  2  0  0  0  0  0  0
  160.1300  207.8680  155.0770 N   0  0  0  0  0  2  0  0  0  0  0  0
  160.9930  208.6260  155.9280 C   0  0  0  0  0  0  0  0  0  0  0  0
  160.4860  209.1100  157.2400 C   0  0  0  0  0  1  0  0  0  0  0  0
  162.1750  208.8910  155.5840 O   0  0  0  0  0  0  0  0  0  0  0  0
  162.6710  210.9770  149.4320 C   0  0  0  0  0  2  0  0  0  0  0  0
  161.7350  211.8290  148.5860 C   0  0  0  0  0  2  0  0  0  0  0  0
  161.2150  212.9920  149.3650 C   0  0  0  0  0  3  0  0  0  0  0  0
  160.2030  212.8400  150.2080 C   0  0  0  0  0  3  0  0  0  0  0  0
  159.7330  213.9290  150.9390 O   0  0  0  0  0  0  0  0  0  0  0  0
  158.6300  213.8160  151.8390 C   0  0  1  0  0  3  0  0  0  0  0  0
  155.7130  213.7040  149.8400 C   0  0  0  0  0  2  0  0  0  0  0  0
  157.1740  214.0180  149.8260 C   0  0  0  0  0  2  0  0  0  0  0  0
  157.3750  214.4520  151.2420 C   0  0  1  0  0  3  0  0  0  0  0  0
  156.2380  214.0130  151.9290 O   0  0  0  0  0  0  0  0  0  0  0  0
  155.2310  214.1600  151.0740 O   0  0  0  0  0  0  0  0  0  0  0  0
  158.3820  212.3570  152.2150 C   0  0  0  0  0  2  0  0  0  0  0  0
  159.3700  212.9150  154.3120 O   0  0  0  0  0  0  0  0  0  0  0  0
  157.9760  211.0960  154.3270 O   0  0  0  0  0  1  0  0  0  0  0  0
  158.6150  212.1390  153.6710 C   0  0  0  0  0  0  0  0  0  0  0  0
  1 11  1  0  0  0  0
  2  5  1  0  0  0  0
  3 29  1  6  0  0  0
  3  2  1  0  0  0  0
  4  9  1  0  0  0  0
  5 10  1  0  0  0  0
  6  7  2  0  0  0  0
  6  8  1  0  0  0  0
  7  1  1  0  0  0  0
  8 11  2  0  0  0  0
  9 12  2  0  0  0  0
  9  3  1  0  0  0  0
 10  8  1  0  0  0  0
 11 25  1  0  0  0  0
 12  6  1  0  0  0  0
 14  7  1  0  0  0  0
 14 13  2  0  0  0  0
 15 13  1  0  0  0  0
 16 15  2  0  0  0  0
 17 14  1  0  0  0  0
 18 17  2  0  0  0  0
 18 16  1  0  0  0  0
 19 17  1  0  0  0  0
 20 23  1  6  0  0  0
 20 18  1  0  0  0  0
 21 22  1  0  0  0  0
 22 20  1  0  0  0  0
 24 23  2  0  0  0  0
 25 26  1  0  0  0  0
 26 27  1  0  0  0  0
 28 26  2  0  0  0  0
 30 31  1  0  0  0  0
 30 29  1  0  0  0  0
 31 32  2  0  0  0  0
 32 33  1  0  0  0  0
 33 34  1  0  0  0  0
 34 40  1  6  0  0  0
 35 39  1  0  0  0  0
 36 35  1  0  0  0  0
 36 37  1  0  0  0  0
 37 34  1  1  0  0  0
 37 38  1  0  0  0  0
 39 38  1  0  0  0  0
 40 43  1  0  0  0  0
 43 41  2  0  0  0  0
 43 42  1  0  0  0  0
M  END
>  <MODEL>
7

>  <REMARK>
 VINA RESULT:      -6.7      2.003      4.489
  Name = 
  13 active torsions:
  status: ('A' for Active; 'I' for Inactive)
    1  A    between atoms: O_1  and  C_5
    2  A    between atoms: O_1  and  C_42
    3  A    between atoms: N_2  and  C_40
    4  A    between atoms: C_5  and  C_22
    5  A    between atoms: C_5  and  C_24
    6  A    between atoms: C_10  and  C_27
    7  A    between atoms: C_11  and  C_41
    8  A    between atoms: C_12  and  O_30
    9  A    between atoms: C_12  and  C_32
   10  A    between atoms: C_12  and  C_33
   11  A    between atoms: C_20  and  C_21
   12  A    between atoms: C_21  and  C_41
   13  A    between atoms: C_22  and  C_38
                            x       y       z     vdW  Elec       q    Type
                         _______ _______ _______ _____ _____    ______ ____

>  <TORSDO>
F 13

$$$$
=
 OpenBabel11052411273D

 43 46  0  0  1  0  0  0  0  0999 V2000
  160.6220  205.6410  153.1130 O   0  0  0  0  0  0  0  0  0  0  0  0
  162.5870  209.5510  151.5400 O   0  0  0  0  0  0  0  0  0  0  0  0
  161.9180  209.8670  150.3490 C   0  0  2  0  0  3  0  0  0  0  0  0
  161.8810  208.7100  148.1420 O   0  0  0  0  0  1  0  0  0  0  0  0
  161.8310  209.9790  152.5440 O   0  0  0  0  0  0  0  0  0  0  0  0
  161.1410  206.9820  151.4170 C   0  0  0  0  0  0  0  0  0  0  0  0
  160.9860  205.6570  151.8460 C   0  0  0  0  0  0  0  0  0  0  0  0
  160.8500  207.7460  152.5370 C   0  0  0  0  0  0  0  0  0  0  0  0
  161.7400  208.6190  149.5210 C   0  0  0  0  0  0  0  0  0  0  0  0
  160.7370  209.1650  152.5930 N   0  0  0  0  0  2  0  0  0  0  0  0
  160.5190  206.8750  153.5410 C   0  0  0  0  0  0  0  0  0  0  0  0
  161.4230  207.4130  150.0220 C   0  0  0  0  0  3  0  0  0  0  0  0
  161.6380  203.2430  151.6550 C   0  0  0  0  0  3  0  0  0  0  0  0
  161.1680  204.4180  151.0480 C   0  0  0  0  0  0  0  0  0  0  0  0
  161.8290  202.0790  150.9110 C   0  0  0  0  0  3  0  0  0  0  0  0
  161.5530  202.0720  149.5450 C   0  0  0  0  0  3  0  0  0  0  0  0
  160.8890  204.4040  149.6640 C   0  0  0  0  0  0  0  0  0  0  0  0
  161.0810  203.2310  148.9150 C   0  0  0  0  0  0  0  0  0  0  0  0
  160.4170  205.5190  149.0430 F   0  0  0  0  0  0  0  0  0  0  0  0
  160.7880  203.2270  147.4420 C   0  0  2  0  0  3  0  0  0  0  0  0
  160.4570  201.9830  145.6360 C   0  0  0  0  0  1  0  0  0  0  0  0
  161.0680  201.9720  146.8910 O   0  0  0  0  0  0  0  0  0  0  0  0
  161.5880  204.2900  146.7520 C   0  0  0  0  0  3  0  0  0  0  0  0
  162.8600  204.5010  147.0790 C   0  0  0  0  0  2  0  0  0  0  0  0
  160.1120  207.2530  154.8600 N   0  0  0  0  0  2  0  0  0  0  0  0
  160.9630  207.9080  155.8040 C   0  0  0  0  0  0  0  0  0  0  0  0
  160.4320  208.2540  157.1490 C   0  0  0  0  0  1  0  0  0  0  0  0
  162.1550  208.1950  155.5140 O   0  0  0  0  0  0  0  0  0  0  0  0
  162.7020  210.9350  149.5950 C   0  0  0  0  0  2  0  0  0  0  0  0
  161.7670  211.9200  148.9060 C   0  0  0  0  0  2  0  0  0  0  0  0
  160.8300  212.5460  149.8850 C   0  0  0  0  0  3  0  0  0  0  0  0
  160.5300  213.8340  149.8000 C   0  0  0  0  0  3  0  0  0  0  0  0
  159.6450  214.4070  150.7130 O   0  0  0  0  0  0  0  0  0  0  0  0
  158.5510  213.6760  151.2660 C   0  0  1  0  0  3  0  0  0  0  0  0
  157.9960  211.8960  154.2730 C   0  0  0  0  0  2  0  0  0  0  0  0
  157.4770  213.0020  153.4130 C   0  0  0  0  0  2  0  0  0  0  0  0
  158.7430  213.4660  152.7670 C   0  0  1  0  0  3  0  0  0  0  0  0
  159.6700  212.4430  152.9960 O   0  0  0  0  0  0  0  0  0  0  0  0
  159.3930  211.9800  154.2110 O   0  0  0  0  0  0  0  0  0  0  0  0
  157.2250  214.3760  150.9730 C   0  0  0  0  0  2  0  0  0  0  0  0
  157.1740  212.9420  149.0690 O   0  0  0  0  0  0  0  0  0  0  0  0
  155.2300  214.0730  149.5090 O   0  0  0  0  0  1  0  0  0  0  0  0
  156.5520  213.7620  149.7930 C   0  0  0  0  0  0  0  0  0  0  0  0
  1 11  1  0  0  0  0
  2  5  1  0  0  0  0
  3 29  1  6  0  0  0
  3  2  1  0  0  0  0
  4  9  1  0  0  0  0
  5 10  1  0  0  0  0
  6  7  2  0  0  0  0
  6  8  1  0  0  0  0
  7  1  1  0  0  0  0
  8 10  1  0  0  0  0
  8 11  2  0  0  0  0
  9 12  2  0  0  0  0
  9  3  1  0  0  0  0
 11 25  1  0  0  0  0
 12  6  1  0  0  0  0
 14 13  1  0  0  0  0
 14  7  1  0  0  0  0
 15 13  2  0  0  0  0
 16 15  1  0  0  0  0
 17 14  2  0  0  0  0
 18 16  2  0  0  0  0
 18 17  1  0  0  0  0
 19 17  1  0  0  0  0
 20 23  1  6  0  0  0
 20 18  1  0  0  0  0
 21 22  1  0  0  0  0
 22 20  1  0  0  0  0
 23 24  2  0  0  0  0
 25 26  1  0  0  0  0
 26 27  1  0  0  0  0
 28 26  2  0  0  0  0
 30 29  1  0  0  0  0
 30 31  1  0  0  0  0
 32 31  2  0  0  0  0
 32 33  1  0  0  0  0
 33 34  1  0  0  0  0
 34 40  1  1  0  0  0
 36 35  1  0  0  0  0
 37 34  1  6  0  0  0
 37 38  1  0  0  0  0
 37 36  1  0  0  0  0
 38 39  1  0  0  0  0
 39 35  1  0  0  0  0
 41 43  2  0  0  0  0
 42 43  1  0  0  0  0
 43 40  1  0  0  0  0
M  END
>  <MODEL>
8

>  <REMARK>
 VINA RESULT:      -6.6      2.137      4.807
  Name = 
  13 active torsions:
  status: ('A' for Active; 'I' for Inactive)
    1  A    between atoms: O_1  and  C_5
    2  A    between atoms: O_1  and  C_42
    3  A    between atoms: N_2  and  C_40
    4  A    between atoms: C_5  and  C_22
    5  A    between atoms: C_5  and  C_24
    6  A    between atoms: C_10  and  C_27
    7  A    between atoms: C_11  and  C_41
    8  A    between atoms: C_12  and  O_30
    9  A    between atoms: C_12  and  C_32
   10  A    between atoms: C_12  and  C_33
   11  A    between atoms: C_20  and  C_21
   12  A    between atoms: C_21  and  C_41
   13  A    between atoms: C_22  and  C_38
                            x       y       z     vdW  Elec       q    Type
                         _______ _______ _______ _____ _____    ______ ____

>  <TORSDO>
F 13

$$$$
=
 OpenBabel11052411273D

 43 46  0  0  1  0  0  0  0  0999 V2000
  161.1220  205.7410  153.2090 O   0  0  0  0  0  0  0  0  0  0  0  0
  162.8780  209.4880  151.0870 O   0  0  0  0  0  0  0  0  0  0  0  0
  161.9430  209.8510  150.1070 C   0  0  2  0  0  3  0  0  0  0  0  0
  161.2420  208.6940  148.0140 O   0  0  0  0  0  1  0  0  0  0  0  0
  162.4470  209.9740  152.2450 O   0  0  0  0  0  0  0  0  0  0  0  0
  161.2700  207.0350  151.4060 C   0  0  0  0  0  0  0  0  0  0  0  0
  161.1390  205.7270  151.8900 C   0  0  0  0  0  0  0  0  0  0  0  0
  161.3410  207.8220  152.5460 C   0  0  0  0  0  0  0  0  0  0  0  0
  161.4630  208.6180  149.3840 C   0  0  0  0  0  0  0  0  0  0  0  0
  161.3500  209.2450  152.5980 N   0  0  0  0  0  2  0  0  0  0  0  0
  161.2250  206.9810  153.6210 C   0  0  0  0  0  0  0  0  0  0  0  0
  161.2040  207.4410  149.9770 C   0  0  0  0  0  3  0  0  0  0  0  0
  160.5700  203.2910  151.7090 C   0  0  0  0  0  3  0  0  0  0  0  0
  161.0140  204.4760  151.1000 C   0  0  0  0  0  0  0  0  0  0  0  0
  160.4660  202.1070  150.9790 C   0  0  0  0  0  3  0  0  0  0  0  0
  160.8050  202.0880  149.6280 C   0  0  0  0  0  3  0  0  0  0  0  0
  161.3540  204.4510  149.7300 C   0  0  0  0  0  0  0  0  0  0  0  0
  161.2480  203.2580  148.9950 C   0  0  0  0  0  0  0  0  0  0  0  0
  161.7730  205.5830  149.1010 F   0  0  0  0  0  0  0  0  0  0  0  0
  161.6200  203.2390  147.5410 C   0  0  2  0  0  3  0  0  0  0  0  0
  162.0850  205.0320  146.3210 C   0  0  0  0  0  1  0  0  0  0  0  0
  161.0220  204.3110  146.8700 O   0  0  0  0  0  0  0  0  0  0  0  0
  161.2080  201.9390  146.9180 C   0  0  0  0  0  3  0  0  0  0  0  0
  160.4640  201.9210  145.8170 C   0  0  0  0  0  2  0  0  0  0  0  0
  161.2090  207.3910  154.9910 N   0  0  0  0  0  2  0  0  0  0  0  0
  160.0720  207.2750  155.8490 C   0  0  0  0  0  0  0  0  0  0  0  0
  160.1700  207.7350  157.2600 C   0  0  0  0  0  1  0  0  0  0  0  0
  158.9880  206.7890  155.4290 O   0  0  0  0  0  0  0  0  0  0  0  0
  162.5750  210.8550  149.1490 C   0  0  0  0  0  2  0  0  0  0  0  0
  161.6830  212.0750  148.9650 C   0  0  0  0  0  2  0  0  0  0  0  0
  161.7400  212.5740  147.5590 C   0  0  0  0  0  3  0  0  0  0  0  0
  160.9000  213.5100  147.1420 C   0  0  0  0  0  3  0  0  0  0  0  0
  160.9690  213.9790  145.8310 O   0  0  0  0  0  0  0  0  0  0  0  0
  159.9100  213.7710  144.8970 C   0  0  1  0  0  3  0  0  0  0  0  0
  160.7980  211.9510  141.9960 C   0  0  0  0  0  2  0  0  0  0  0  0
  161.3130  212.4700  143.2990 C   0  0  0  0  0  2  0  0  0  0  0  0
  160.4530  213.6810  143.4710 C   0  0  1  0  0  3  0  0  0  0  0  0
  159.4010  213.5190  142.5630 O   0  0  0  0  0  0  0  0  0  0  0  0
  159.9420  212.9410  141.4960 O   0  0  0  0  0  0  0  0  0  0  0  0
  159.1020  212.5260  145.2580 C   0  0  0  0  0  2  0  0  0  0  0  0
  157.1500  212.1960  146.5870 O   0  0  0  0  0  1  0  0  0  0  0  0
  157.1180  214.0360  145.2200 O   0  0  0  0  0  0  0  0  0  0  0  0
  157.7360  212.8980  145.7220 C   0  0  0  0  0  0  0  0  0  0  0  0
  1 11  1  0  0  0  0
  2  5  1  0  0  0  0
  3 29  1  6  0  0  0
  3  2  1  0  0  0  0
  4  9  1  0  0  0  0
  5 10  1  0  0  0  0
  6  7  2  0  0  0  0
  6  8  1  0  0  0  0
  7  1  1  0  0  0  0
  8 10  1  0  0  0  0
  8 11  2  0  0  0  0
  9 12  2  0  0  0  0
  9  3  1  0  0  0  0
 11 25  1  0  0  0  0
 12  6  1  0  0  0  0
 14 13  1  0  0  0  0
 14  7  1  0  0  0  0
 15 13  2  0  0  0  0
 16 15  1  0  0  0  0
 17 14  2  0  0  0  0
 18 16  2  0  0  0  0
 18 17  1  0  0  0  0
 19 17  1  0  0  0  0
 20 23  1  6  0  0  0
 20 18  1  0  0  0  0
 21 22  1  0  0  0  0
 22 20  1  0  0  0  0
 24 23  2  0  0  0  0
 25 26  1  0  0  0  0
 26 27  1  0  0  0  0
 28 26  2  0  0  0  0
 30 29  1  0  0  0  0
 31 30  1  0  0  0  0
 32 31  2  0  0  0  0
 33 32  1  0  0  0  0
 34 40  1  1  0  0  0
 34 33  1  0  0  0  0
 35 36  1  0  0  0  0
 36 37  1  0  0  0  0
 37 34  1  1  0  0  0
 38 37  1  0  0  0  0
 39 35  1  0  0  0  0
 39 38  1  0  0  0  0
 40 43  1  0  0  0  0
 42 43  2  0  0  0  0
 43 41  1  0  0  0  0
M  END
>  <MODEL>
9

>  <REMARK>
 VINA RESULT:      -6.6      3.597      6.717
  Name = 
  13 active torsions:
  status: ('A' for Active; 'I' for Inactive)
    1  A    between atoms: O_1  and  C_5
    2  A    between atoms: O_1  and  C_42
    3  A    between atoms: N_2  and  C_40
    4  A    between atoms: C_5  and  C_22
    5  A    between atoms: C_5  and  C_24
    6  A    between atoms: C_10  and  C_27
    7  A    between atoms: C_11  and  C_41
    8  A    between atoms: C_12  and  O_30
    9  A    between atoms: C_12  and  C_32
   10  A    between atoms: C_12  and  C_33
   11  A    between atoms: C_20  and  C_21
   12  A    between atoms: C_21  and  C_41
   13  A    between atoms: C_22  and  C_38
                            x       y       z     vdW  Elec       q    Type
                         _______ _______ _______ _____ _____    ______ ____

>  <TORSDO>
F 13

$$$$
