=
 OpenBabel11042422343D

 60 66  0  0  1  0  0  0  0  0999 V2000
  159.5830  213.1650  144.7910 C   0  0  0  0  0  0  0  0  0  0  0  0
  159.6210  213.1950  147.6120 C   0  0  0  0  0  0  0  0  0  0  0  0
  158.5940  213.8310  146.8980 C   0  0  0  0  0  3  0  0  0  0  0  0
  160.6350  212.5190  146.8930 C   0  0  0  0  0  0  0  0  0  0  0  0
  158.5680  213.8080  145.5030 C   0  0  0  0  0  3  0  0  0  0  0  0
  161.7890  211.8500  147.5620 C   0  0  0  0  0  1  0  0  0  0  0  0
  160.6140  212.5200  145.4920 C   0  0  0  0  0  3  0  0  0  0  0  0
  159.6110  213.3090  149.0880 C   0  0  0  0  0  0  0  0  0  0  0  0
  159.6830  214.4520  149.6200 O   0  0  0  0  0  0  0  0  0  0  0  0
  159.4830  212.1070  149.9670 C   0  0  0  0  0  2  0  0  0  0  0  0
  162.2860  208.9700  149.1530 C   0  0  0  0  0  3  0  0  0  0  0  0
  162.3340  207.8650  148.3060 C   0  0  0  0  0  3  0  0  0  0  0  0
  161.1470  206.5560  149.9510 C   0  0  0  0  0  3  0  0  0  0  0  0
  161.3360  210.1930  154.5790 C   0  0  0  0  0  2  0  0  0  0  0  0
  160.5960  211.4240  154.8350 N   0  0  0  0  0  0  0  0  0  0  0  0
  161.4320  210.0660  151.0070 C   0  0  0  0  0  2  0  0  0  0  0  0
  160.8650  209.4960  153.3410 C   0  0  0  0  0  0  0  0  0  0  0  0
  160.8000  207.3310  152.1050 C   0  0  0  0  0  2  0  0  0  0  0  0
  161.1290  207.6370  150.8370 C   0  0  0  0  0  0  0  0  0  0  0  0
  160.9440  208.1710  153.3090 C   0  0  0  0  0  3  0  0  0  0  0  0
  159.6250  212.5060  151.4010 C   0  0  0  0  0  3  0  0  0  0  0  0
  161.6430  208.8980  150.3950 C   0  0  0  0  0  0  0  0  0  0  0  0
  159.7150  213.4150  153.9860 O   0  0  0  0  0  0  0  0  0  0  0  0
  160.0930  211.7090  152.3750 C   0  0  0  0  0  0  0  0  0  0  0  0
  161.7310  206.6610  148.6820 C   0  0  0  0  0  0  0  0  0  0  0  0
  160.1260  212.2430  153.7530 C   0  0  0  0  0  0  0  0  0  0  0  0
  160.4550  210.2580  152.1210 C   0  0  1  0  0  3  0  0  0  0  0  0
  161.0370  204.3480  148.0960 O   0  0  0  0  0  1  0  0  0  0  0  0
  161.7260  205.5110  147.7650 C   0  0  0  0  0  0  0  0  0  0  0  0
  162.3780  205.5540  146.6900 O   0  0  0  0  0  0  0  0  0  0  0  0
  160.6230  211.9540  156.1910 C   0  0  0  0  0  2  0  0  0  0  0  0
  159.2070  212.1250  156.7010 C   0  0  0  0  0  2  0  0  0  0  0  0
  158.3520  210.9490  156.2730 C   0  0  0  0  0  2  0  0  0  0  0  0
  156.7180  211.2980  154.5820 O   0  0  0  0  0  0  0  0  0  0  0  0
  157.0370  211.4400  155.7890 C   0  0  0  0  0  0  0  0  0  0  0  0
  156.1170  211.9730  156.6850 O   0  0  0  0  0  1  0  0  0  0  0  0
  159.5690  213.2170  143.3620 N   0  0  0  0  0  2  0  0  0  0  0  0
  158.8380  214.2250  142.6000 C   0  0  0  0  0  2  0  0  0  0  0  0
  158.0100  213.5560  141.6020 N   0  0  0  0  0  0  0  0  0  0  0  0
  156.7430  214.0140  141.7920 O   0  0  0  0  0  1  0  0  0  0  0  0
  157.4020  214.4480  139.2570 C   0  0  0  0  0  2  0  0  0  0  0  0
  157.7830  212.9780  139.1490 C   0  0  1  0  0  3  0  0  0  0  0  0
  158.4370  213.8690  140.2160 C   0  0  2  0  0  0  0  0  0  0  0  0
  156.5160  210.8560  138.8830 C   0  0  0  0  0  2  0  0  0  0  0  0
  156.6230  212.1460  139.6750 C   0  0  2  0  0  3  0  0  0  0  0  0
  155.5690  212.0120  138.5860 C   0  0  2  0  0  3  0  0  0  0  0  0
  153.5770  210.7570  139.1120 O   0  0  0  0  0  0  0  0  0  0  0  0
  153.6850  212.8770  139.9690 O   0  0  0  0  0  1  0  0  0  0  0  0
  154.2300  211.8300  139.2380 C   0  0  0  0  0  0  0  0  0  0  0  0
  159.9080  214.1530  139.9030 C   0  0  0  0  0  2  0  0  0  0  0  0
  160.5250  212.9640  139.1880 C   0  0  0  0  0  2  0  0  0  0  0  0
  161.6940  212.5630  139.8350 O   0  0  0  0  0  0  0  0  0  0  0  0
  161.4370  211.2490  140.2370 C   0  0  0  0  0  2  0  0  0  0  0  0
  162.7450  210.3610  138.2530 C   0  0  1  0  0  3  0  0  0  0  0  0
  161.5780  209.7020  137.4950 C   0  0  0  0  0  2  0  0  0  0  0  0
  162.2960  208.8950  140.2700 C   0  0  0  0  0  2  0  0  0  0  0  0
  162.9520  211.7190  137.7780 N   0  0  0  0  0  1  0  0  0  0  0  0
  162.5610  210.3260  139.7770 C   0  0  2  0  0  3  0  0  0  0  0  0
  161.6900  207.9990  139.1840 C   0  0  0  0  0  2  0  0  0  0  0  0
  160.7980  208.7740  138.3240 N   0  0  0  0  0  2  0  0  0  0  0  0
  1  7  2  0  0  0  0
  1  5  1  0  0  0  0
  2  8  1  0  0  0  0
  3  2  1  0  0  0  0
  4  6  1  0  0  0  0
  4  2  2  0  0  0  0
  5  3  2  0  0  0  0
  7  4  1  0  0  0  0
  8  9  2  0  0  0  0
  8 10  1  0  0  0  0
 10 21  1  0  0  0  0
 11 22  1  0  0  0  0
 12 25  1  0  0  0  0
 12 11  2  0  0  0  0
 13 19  1  0  0  0  0
 14 15  1  0  0  0  0
 15 31  1  0  0  0  0
 17 14  1  0  0  0  0
 18 20  1  0  0  0  0
 19 18  1  0  0  0  0
 20 17  2  0  0  0  0
 21 24  2  0  0  0  0
 22 19  2  0  0  0  0
 22 16  1  0  0  0  0
 24 26  1  0  0  0  0
 25 13  2  0  0  0  0
 26 23  2  0  0  0  0
 26 15  1  0  0  0  0
 27 16  1  6  0  0  0
 27 24  1  0  0  0  0
 27 17  1  0  0  0  0
 29 28  1  0  0  0  0
 29 25  1  0  0  0  0
 30 29  2  0  0  0  0
 31 32  1  0  0  0  0
 33 32  1  0  0  0  0
 34 35  2  0  0  0  0
 35 33  1  0  0  0  0
 35 36  1  0  0  0  0
 37  1  1  0  0  0  0
 38 37  1  0  0  0  0
 39 40  1  0  0  0  0
 39 38  1  0  0  0  0
 41 43  1  0  0  0  0
 42 41  1  6  0  0  0
 42 45  1  0  0  0  0
 42 43  1  0  0  0  0
 43 50  1  6  0  0  0
 43 39  1  0  0  0  0
 45 44  1  6  0  0  0
 46 44  1  0  0  0  0
 46 49  1  1  0  0  0
 46 45  1  0  0  0  0
 47 49  2  0  0  0  0
 49 48  1  0  0  0  0
 51 52  1  0  0  0  0
 51 50  1  0  0  0  0
 52 53  1  0  0  0  0
 54 57  1  6  0  0  0
 54 58  1  0  0  0  0
 55 54  1  0  0  0  0
 55 60  1  0  0  0  0
 58 53  1  6  0  0  0
 58 56  1  0  0  0  0
 59 56  1  0  0  0  0
 60 59  1  0  0  0  0
M  END
>  <MODEL>
1

>  <REMARK>
 VINA RESULT:      -5.0      0.000      0.000
  Name = 
  19 active torsions:
  status: ('A' for Active; 'I' for Inactive)
    1  A    between atoms: C_1  and  C_6
    2  A    between atoms: C_1  and  C_28
    3  A    between atoms: C_2  and  N_29
    4  A    between atoms: C_2  and  C_60
    5  A    between atoms: C_3  and  C_24
    6  A    between atoms: C_3  and  O_59
    7  A    between atoms: C_4  and  N_12
    8  A    between atoms: N_8  and  C_42
    9  A    between atoms: N_8  and  C_58
   10  A    between atoms: N_12  and  C_42
   11  A    between atoms: C_17  and  C_50
   12  A    between atoms: C_27  and  C_49
   13  A    between atoms: C_28  and  C_39
   14  A    between atoms: C_38  and  C_47
   15  A    between atoms: C_45  and  C_57
   16  A    between atoms: C_45  and  O_59
   17  A    between atoms: C_49  and  C_60
   18  A    between atoms: C_52  and  C_56
   19  A    between atoms: C_57  and  C_58
                            x       y       z     vdW  Elec       q    Type
                         _______ _______ _______ _____ _____    ______ ____

>  <TORSDO>
F 19

$$$$
=
 OpenBabel11042422343D

 60 66  0  0  1  0  0  0  0  0999 V2000
  161.9930  206.7430  148.4900 C   0  0  0  0  0  0  0  0  0  0  0  0
  162.2270  209.5280  148.8770 C   0  0  0  0  0  0  0  0  0  0  0  0
  162.0740  208.9900  147.5900 C   0  0  0  0  0  3  0  0  0  0  0  0
  162.2450  208.6500  149.9870 C   0  0  0  0  0  0  0  0  0  0  0  0
  161.9470  207.6130  147.3980 C   0  0  0  0  0  3  0  0  0  0  0  0
  162.4450  209.1260  151.3870 C   0  0  0  0  0  1  0  0  0  0  0  0
  162.1400  207.2680  149.7840 C   0  0  0  0  0  3  0  0  0  0  0  0
  162.4100  210.9920  148.9960 C   0  0  0  0  0  0  0  0  0  0  0  0
  163.5720  211.4580  149.1610 O   0  0  0  0  0  0  0  0  0  0  0  0
  161.2580  211.9380  148.8950 C   0  0  0  0  0  2  0  0  0  0  0  0
  158.8030  214.4300  151.3690 C   0  0  0  0  0  3  0  0  0  0  0  0
  158.1370  214.2890  152.5850 C   0  0  0  0  0  3  0  0  0  0  0  0
  156.2400  213.3390  151.4330 C   0  0  0  0  0  3  0  0  0  0  0  0
  157.6960  214.4530  145.8360 C   0  0  0  0  0  2  0  0  0  0  0  0
  158.6960  213.8190  144.9830 N   0  0  0  0  0  0  0  0  0  0  0  0
  159.0290  213.9450  149.1140 C   0  0  0  0  0  2  0  0  0  0  0  0
  157.5460  213.7530  147.1500 C   0  0  0  0  0  0  0  0  0  0  0  0
  156.0670  213.3900  149.1240 C   0  0  0  0  0  2  0  0  0  0  0  0
  156.8690  213.5150  150.1970 C   0  0  0  0  0  0  0  0  0  0  0  0
  156.3500  213.7680  147.7270 C   0  0  0  0  0  3  0  0  0  0  0  0
  161.0460  212.3350  147.4690 C   0  0  0  0  0  3  0  0  0  0  0  0
  158.2160  214.0010  150.1720 C   0  0  0  0  0  0  0  0  0  0  0  0
  160.8340  212.8940  144.7940 O   0  0  0  0  0  0  0  0  0  0  0  0
  159.9370  212.9240  146.9950 C   0  0  0  0  0  0  0  0  0  0  0  0
  156.8660  213.7070  152.6300 C   0  0  0  0  0  0  0  0  0  0  0  0
  159.8680  213.2100  145.5460 C   0  0  0  0  0  0  0  0  0  0  0  0
  158.7250  213.1770  147.8700 C   0  0  1  0  0  3  0  0  0  0  0  0
  155.2700  214.4360  154.3890 O   0  0  0  0  0  0  0  0  0  0  0  0
  156.1870  213.5000  153.9180 C   0  0  0  0  0  0  0  0  0  0  0  0
  156.4560  212.4950  154.6240 O   0  0  0  0  0  1  0  0  0  0  0  0
  158.6320  214.0940  143.5550 C   0  0  0  0  0  2  0  0  0  0  0  0
  159.0510  212.8640  142.7780 C   0  0  0  0  0  2  0  0  0  0  0  0
  158.6390  212.9980  141.3250 C   0  0  0  0  0  2  0  0  0  0  0  0
  160.9180  213.1670  140.6670 O   0  0  0  0  0  1  0  0  0  0  0  0
  159.7900  212.6590  140.4490 C   0  0  0  0  0  0  0  0  0  0  0  0
  159.6450  211.7110  139.4420 O   0  0  0  0  0  0  0  0  0  0  0  0
  161.9310  205.3330  148.2590 N   0  0  0  0  0  2  0  0  0  0  0  0
  161.5410  204.3660  149.2800 C   0  0  0  0  0  2  0  0  0  0  0  0
  161.0270  205.0840  150.4420 N   0  0  0  0  0  0  0  0  0  0  0  0
  159.7050  205.2970  150.2020 O   0  0  0  0  0  1  0  0  0  0  0  0
  162.1120  203.1010  151.6880 C   0  0  0  0  0  2  0  0  0  0  0  0
  160.6080  202.8770  151.6070 C   0  0  1  0  0  3  0  0  0  0  0  0
  161.1740  204.3030  151.6950 C   0  0  2  0  0  0  0  0  0  0  0  0
  159.5620  201.0990  150.2210 C   0  0  0  0  0  2  0  0  0  0  0  0
  160.2680  202.4410  150.1890 C   0  0  2  0  0  3  0  0  0  0  0  0
  161.0400  201.1730  149.8570 C   0  0  2  0  0  3  0  0  0  0  0  0
  161.0910  202.1440  147.6490 O   0  0  0  0  0  0  0  0  0  0  0  0
  161.6310  199.9230  147.7840 O   0  0  0  0  0  1  0  0  0  0  0  0
  161.2610  201.1250  148.3740 C   0  0  0  0  0  0  0  0  0  0  0  0
  160.8860  204.9520  153.0510 C   0  0  0  0  0  2  0  0  0  0  0  0
  161.6480  206.2600  153.1730 C   0  0  0  0  0  2  0  0  0  0  0  0
  161.4850  206.7980  154.4500 O   0  0  0  0  0  0  0  0  0  0  0  0
  160.5530  207.8250  154.2790 C   0  0  0  0  0  2  0  0  0  0  0  0
  160.0470  209.9150  155.6250 C   0  0  1  0  0  3  0  0  0  0  0  0
  161.4300  210.5840  155.5240 C   0  0  0  0  0  2  0  0  0  0  0  0
  161.0830  207.8830  156.7280 C   0  0  0  0  0  2  0  0  0  0  0  0
  159.1770  210.3920  154.5640 N   0  0  0  0  0  1  0  0  0  0  0  0
  160.1260  208.3810  155.6350 C   0  0  2  0  0  3  0  0  0  0  0  0
  162.1400  208.9260  157.1090 C   0  0  0  0  0  2  0  0  0  0  0  0
  162.5320  209.7040  155.9360 N   0  0  0  0  0  2  0  0  0  0  0  0
  1  7  1  0  0  0  0
  2  8  1  0  0  0  0
  2  4  1  0  0  0  0
  3  2  2  0  0  0  0
  4  6  1  0  0  0  0
  5  3  1  0  0  0  0
  5  1  2  0  0  0  0
  7  4  2  0  0  0  0
  8  9  2  0  0  0  0
 10  8  1  0  0  0  0
 11 12  1  0  0  0  0
 12 25  2  0  0  0  0
 13 25  1  0  0  0  0
 14 17  1  0  0  0  0
 15 26  1  0  0  0  0
 15 14  1  0  0  0  0
 16 22  1  0  0  0  0
 17 20  2  0  0  0  0
 17 27  1  0  0  0  0
 18 19  1  0  0  0  0
 19 13  2  0  0  0  0
 20 18  1  0  0  0  0
 21 10  1  0  0  0  0
 22 19  1  0  0  0  0
 22 11  2  0  0  0  0
 23 26  2  0  0  0  0
 24 21  2  0  0  0  0
 24 27  1  0  0  0  0
 25 29  1  0  0  0  0
 26 24  1  0  0  0  0
 27 16  1  1  0  0  0
 29 28  2  0  0  0  0
 29 30  1  0  0  0  0
 31 15  1  0  0  0  0
 32 31  1  0  0  0  0
 33 32  1  0  0  0  0
 35 34  1  0  0  0  0
 35 33  1  0  0  0  0
 36 35  2  0  0  0  0
 37  1  1  0  0  0  0
 37 38  1  0  0  0  0
 38 39  1  0  0  0  0
 39 43  1  0  0  0  0
 40 39  1  0  0  0  0
 41 43  1  0  0  0  0
 42 41  1  6  0  0  0
 42 43  1  0  0  0  0
 43 50  1  1  0  0  0
 45 44  1  1  0  0  0
 45 42  1  0  0  0  0
 46 49  1  6  0  0  0
 46 45  1  0  0  0  0
 46 44  1  0  0  0  0
 47 49  2  0  0  0  0
 48 49  1  0  0  0  0
 50 51  1  0  0  0  0
 51 52  1  0  0  0  0
 53 52  1  0  0  0  0
 54 57  1  6  0  0  0
 54 58  1  0  0  0  0
 55 54  1  0  0  0  0
 55 60  1  0  0  0  0
 56 59  1  0  0  0  0
 58 53  1  6  0  0  0
 58 56  1  0  0  0  0
 60 59  1  0  0  0  0
M  END
>  <MODEL>
2

>  <REMARK>
 VINA RESULT:      -3.6      3.156     12.299
  Name = 
  19 active torsions:
  status: ('A' for Active; 'I' for Inactive)
    1  A    between atoms: C_1  and  C_6
    2  A    between atoms: C_1  and  C_28
    3  A    between atoms: C_2  and  N_29
    4  A    between atoms: C_2  and  C_60
    5  A    between atoms: C_3  and  C_24
    6  A    between atoms: C_3  and  O_59
    7  A    between atoms: C_4  and  N_12
    8  A    between atoms: N_8  and  C_42
    9  A    between atoms: N_8  and  C_58
   10  A    between atoms: N_12  and  C_42
   11  A    between atoms: C_17  and  C_50
   12  A    between atoms: C_27  and  C_49
   13  A    between atoms: C_28  and  C_39
   14  A    between atoms: C_38  and  C_47
   15  A    between atoms: C_45  and  C_57
   16  A    between atoms: C_45  and  O_59
   17  A    between atoms: C_49  and  C_60
   18  A    between atoms: C_52  and  C_56
   19  A    between atoms: C_57  and  C_58
                            x       y       z     vdW  Elec       q    Type
                         _______ _______ _______ _____ _____    ______ ____

>  <TORSDO>
F 19

$$$$
=
 OpenBabel11042422343D

 60 66  0  0  1  0  0  0  0  0999 V2000
  160.6830  212.6540  144.0210 C   0  0  0  0  0  0  0  0  0  0  0  0
  161.7520  212.5700  146.6300 C   0  0  0  0  0  0  0  0  0  0  0  0
  160.7050  211.7160  146.2530 C   0  0  0  0  0  3  0  0  0  0  0  0
  162.2800  213.4690  145.6720 C   0  0  0  0  0  0  0  0  0  0  0  0
  160.1820  211.7480  144.9590 C   0  0  0  0  0  3  0  0  0  0  0  0
  163.3640  214.4430  145.9930 C   0  0  0  0  0  1  0  0  0  0  0  0
  161.7330  213.5120  144.3830 C   0  0  0  0  0  3  0  0  0  0  0  0
  162.2170  212.5140  148.0340 C   0  0  0  0  0  0  0  0  0  0  0  0
  163.1800  213.2470  148.3950 O   0  0  0  0  0  0  0  0  0  0  0  0
  161.5560  211.6360  149.0470 C   0  0  0  0  0  2  0  0  0  0  0  0
  159.0870  211.8250  152.5430 C   0  0  0  0  0  3  0  0  0  0  0  0
  158.9700  212.6740  153.6430 C   0  0  0  0  0  3  0  0  0  0  0  0
  160.7080  211.4410  154.7770 C   0  0  0  0  0  3  0  0  0  0  0  0
  161.2390  206.7810  151.2140 C   0  0  0  0  0  2  0  0  0  0  0  0
  161.8480  206.6760  149.8910 N   0  0  0  0  0  0  0  0  0  0  0  0
  160.2380  210.2110  151.3430 C   0  0  0  0  0  2  0  0  0  0  0  0
  161.4620  208.1250  151.8350 C   0  0  0  0  0  0  0  0  0  0  0  0
  161.4950  209.4200  153.9650 C   0  0  0  0  0  2  0  0  0  0  0  0
  160.8100  210.5480  153.7050 C   0  0  0  0  0  0  0  0  0  0  0  0
  161.5570  208.1870  153.1580 C   0  0  0  0  0  3  0  0  0  0  0  0
  161.7390  210.2000  148.6760 C   0  0  0  0  0  3  0  0  0  0  0  0
  160.0340  210.7940  152.5280 C   0  0  0  0  0  0  0  0  0  0  0  0
  162.2010  207.6460  147.7950 O   0  0  0  0  0  0  0  0  0  0  0  0
  161.6520  209.1710  149.5330 C   0  0  0  0  0  0  0  0  0  0  0  0
  159.8060  212.5120  154.7510 C   0  0  0  0  0  0  0  0  0  0  0  0
  161.9060  207.8100  149.0120 C   0  0  0  0  0  0  0  0  0  0  0  0
  161.4350  209.3790  151.0190 C   0  0  1  0  0  3  0  0  0  0  0  0
  160.4570  213.2020  157.0480 O   0  0  0  0  0  1  0  0  0  0  0  0
  159.7270  213.4430  155.8860 C   0  0  0  0  0  0  0  0  0  0  0  0
  158.9700  214.4470  155.8340 O   0  0  0  0  0  0  0  0  0  0  0  0
  162.1030  205.3390  149.3740 C   0  0  0  0  0  2  0  0  0  0  0  0
  160.7970  204.5850  149.2410 C   0  0  0  0  0  2  0  0  0  0  0  0
  161.0620  203.0970  149.1350 C   0  0  0  0  0  2  0  0  0  0  0  0
  160.2800  201.2010  150.3390 O   0  0  0  0  0  0  0  0  0  0  0  0
  160.5910  202.4180  150.3700 C   0  0  0  0  0  0  0  0  0  0  0  0
  160.5790  203.1010  151.5810 O   0  0  0  0  0  1  0  0  0  0  0  0
  160.0810  212.7150  142.7240 N   0  0  0  0  0  2  0  0  0  0  0  0
  158.7210  212.2660  142.4460 C   0  0  0  0  0  2  0  0  0  0  0  0
  158.0810  213.2200  141.5450 N   0  0  0  0  0  0  0  0  0  0  0  0
  158.3100  214.4530  142.0720 O   0  0  0  0  0  1  0  0  0  0  0  0
  157.9570  213.9660  139.0780 C   0  0  0  0  0  2  0  0  0  0  0  0
  157.7390  212.4620  139.1550 C   0  0  1  0  0  3  0  0  0  0  0  0
  158.6480  213.1650  140.1750 C   0  0  2  0  0  0  0  0  0  0  0  0
  155.7320  211.0090  138.9580 C   0  0  0  0  0  2  0  0  0  0  0  0
  156.3270  212.2120  139.6660 C   0  0  2  0  0  3  0  0  0  0  0  0
  155.3400  212.4170  138.5270 C   0  0  2  0  0  3  0  0  0  0  0  0
  153.1270  213.3710  138.3920 O   0  0  0  0  0  0  0  0  0  0  0  0
  153.8000  212.6790  140.4690 O   0  0  0  0  0  1  0  0  0  0  0  0
  154.0240  212.8420  139.1070 C   0  0  0  0  0  0  0  0  0  0  0  0
  160.1240  212.8210  139.9600 C   0  0  0  0  0  2  0  0  0  0  0  0
  160.7330  213.7640  138.9360 C   0  0  0  0  0  2  0  0  0  0  0  0
  161.1850  213.0490  137.8270 O   0  0  0  0  0  0  0  0  0  0  0  0
  162.0020  213.9510  137.1400 C   0  0  0  0  0  2  0  0  0  0  0  0
  163.5920  212.0920  137.8110 C   0  0  1  0  0  3  0  0  0  0  0  0
  163.5690  212.3190  139.3340 C   0  0  0  0  0  2  0  0  0  0  0  0
  164.4390  214.4510  137.4460 C   0  0  0  0  0  2  0  0  0  0  0  0
  162.5980  211.1010  137.4350 N   0  0  0  0  0  1  0  0  0  0  0  0
  163.4160  213.3910  137.0110 C   0  0  2  0  0  3  0  0  0  0  0  0
  164.9410  214.2370  138.8790 C   0  0  0  0  0  2  0  0  0  0  0  0
  163.8690  213.7050  139.7180 N   0  0  0  0  0  2  0  0  0  0  0  0
  1  7  2  0  0  0  0
  1  5  1  0  0  0  0
  2  8  1  0  0  0  0
  3  2  1  0  0  0  0
  4  6  1  0  0  0  0
  4  2  2  0  0  0  0
  5  3  2  0  0  0  0
  7  4  1  0  0  0  0
  8  9  2  0  0  0  0
  8 10  1  0  0  0  0
 11 12  1  0  0  0  0
 12 25  2  0  0  0  0
 14 17  1  0  0  0  0
 15 14  1  0  0  0  0
 16 22  1  0  0  0  0
 17 20  2  0  0  0  0
 19 18  1  0  0  0  0
 19 13  2  0  0  0  0
 20 18  1  0  0  0  0
 21 10  1  0  0  0  0
 21 24  2  0  0  0  0
 22 11  2  0  0  0  0
 22 19  1  0  0  0  0
 23 26  2  0  0  0  0
 24 27  1  0  0  0  0
 25 13  1  0  0  0  0
 25 29  1  0  0  0  0
 26 24  1  0  0  0  0
 26 15  1  0  0  0  0
 27 16  1  6  0  0  0
 27 17  1  0  0  0  0
 29 28  1  0  0  0  0
 30 29  2  0  0  0  0
 31 15  1  0  0  0  0
 32 31  1  0  0  0  0
 33 32  1  0  0  0  0
 33 35  1  0  0  0  0
 34 35  2  0  0  0  0
 35 36  1  0  0  0  0
 37  1  1  0  0  0  0
 38 37  1  0  0  0  0
 39 40  1  0  0  0  0
 39 38  1  0  0  0  0
 41 43  1  0  0  0  0
 42 41  1  6  0  0  0
 42 45  1  0  0  0  0
 42 43  1  0  0  0  0
 43 50  1  6  0  0  0
 43 39  1  0  0  0  0
 45 44  1  6  0  0  0
 46 44  1  0  0  0  0
 46 49  1  1  0  0  0
 46 45  1  0  0  0  0
 47 49  2  0  0  0  0
 49 48  1  0  0  0  0
 51 50  1  0  0  0  0
 52 51  1  0  0  0  0
 53 52  1  0  0  0  0
 54 57  1  1  0  0  0
 54 55  1  0  0  0  0
 55 60  1  0  0  0  0
 56 59  1  0  0  0  0
 58 53  1  1  0  0  0
 58 56  1  0  0  0  0
 58 54  1  0  0  0  0
 59 60  1  0  0  0  0
M  END
>  <MODEL>
3

>  <REMARK>
 VINA RESULT:      -3.3      2.197      5.694
  Name = 
  19 active torsions:
  status: ('A' for Active; 'I' for Inactive)
    1  A    between atoms: C_1  and  C_6
    2  A    between atoms: C_1  and  C_28
    3  A    between atoms: C_2  and  N_29
    4  A    between atoms: C_2  and  C_60
    5  A    between atoms: C_3  and  C_24
    6  A    between atoms: C_3  and  O_59
    7  A    between atoms: C_4  and  N_12
    8  A    between atoms: N_8  and  C_42
    9  A    between atoms: N_8  and  C_58
   10  A    between atoms: N_12  and  C_42
   11  A    between atoms: C_17  and  C_50
   12  A    between atoms: C_27  and  C_49
   13  A    between atoms: C_28  and  C_39
   14  A    between atoms: C_38  and  C_47
   15  A    between atoms: C_45  and  C_57
   16  A    between atoms: C_45  and  O_59
   17  A    between atoms: C_49  and  C_60
   18  A    between atoms: C_52  and  C_56
   19  A    between atoms: C_57  and  C_58
                            x       y       z     vdW  Elec       q    Type
                         _______ _______ _______ _____ _____    ______ ____

>  <TORSDO>
F 19

$$$$
=
 OpenBabel11042422343D

 60 66  0  0  1  0  0  0  0  0999 V2000
  162.1880  206.5280  148.7500 C   0  0  0  0  0  0  0  0  0  0  0  0
  161.7980  207.6220  151.3210 C   0  0  0  0  0  0  0  0  0  0  0  0
  162.2300  208.4250  150.2540 C   0  0  0  0  0  3  0  0  0  0  0  0
  161.5420  206.2500  151.0830 C   0  0  0  0  0  0  0  0  0  0  0  0
  162.4130  207.8870  148.9790 C   0  0  0  0  0  3  0  0  0  0  0  0
  161.1210  205.3100  152.1630 C   0  0  0  0  0  1  0  0  0  0  0  0
  161.7520  205.7140  149.8060 C   0  0  0  0  0  3  0  0  0  0  0  0
  161.6780  208.2510  152.6550 C   0  0  0  0  0  0  0  0  0  0  0  0
  161.5000  207.5190  153.6690 O   0  0  0  0  0  0  0  0  0  0  0  0
  161.7940  209.7290  152.8400 C   0  0  0  0  0  2  0  0  0  0  0  0
  160.5500  211.1550  148.9960 C   0  0  0  0  0  3  0  0  0  0  0  0
  161.1850  211.5420  147.8170 C   0  0  0  0  0  3  0  0  0  0  0  0
  161.4610  213.7710  148.7000 C   0  0  0  0  0  3  0  0  0  0  0  0
  158.0600  213.4700  153.4990 C   0  0  0  0  0  2  0  0  0  0  0  0
  158.2930  212.7970  154.7730 N   0  0  0  0  0  0  0  0  0  0  0  0
  160.0050  211.5220  151.2180 C   0  0  0  0  0  2  0  0  0  0  0  0
  159.2600  213.4220  152.6060 C   0  0  0  0  0  0  0  0  0  0  0  0
  160.3950  214.4530  150.6400 C   0  0  0  0  0  2  0  0  0  0  0  0
  160.7840  213.4190  149.8720 C   0  0  0  0  0  0  0  0  0  0  0  0
  159.4540  214.4400  151.7750 C   0  0  0  0  0  3  0  0  0  0  0  0
  160.8040  210.1970  153.8590 C   0  0  0  0  0  3  0  0  0  0  0  0
  160.3880  212.0560  150.0550 C   0  0  0  0  0  0  0  0  0  0  0  0
  159.1210  210.9230  155.8970 O   0  0  0  0  0  0  0  0  0  0  0  0
  160.0250  211.2820  153.7280 C   0  0  0  0  0  0  0  0  0  0  0  0
  161.6790  212.8420  147.6760 C   0  0  0  0  0  0  0  0  0  0  0  0
  159.1310  211.6330  154.8520 C   0  0  0  0  0  0  0  0  0  0  0  0
  160.1370  212.2120  152.5360 C   0  0  1  0  0  3  0  0  0  0  0  0
  163.6640  212.7080  146.1870 O   0  0  0  0  0  1  0  0  0  0  0  0
  162.4040  213.2350  146.4580 C   0  0  0  0  0  0  0  0  0  0  0  0
  161.9090  214.0810  145.6690 O   0  0  0  0  0  0  0  0  0  0  0  0
  157.4170  213.1400  155.8840 C   0  0  0  0  0  2  0  0  0  0  0  0
  157.0620  211.8900  156.6610 C   0  0  0  0  0  2  0  0  0  0  0  0
  155.5760  211.6150  156.5570 C   0  0  0  0  0  2  0  0  0  0  0  0
  156.2160  210.1760  154.7750 O   0  0  0  0  0  0  0  0  0  0  0  0
  155.3430  210.4800  155.6270 C   0  0  0  0  0  0  0  0  0  0  0  0
  154.2040  209.6940  155.7550 O   0  0  0  0  0  1  0  0  0  0  0  0
  162.4520  205.9900  147.4500 N   0  0  0  0  0  2  0  0  0  0  0  0
  161.9480  206.5830  146.2160 C   0  0  0  0  0  2  0  0  0  0  0  0
  162.3050  205.7200  145.0950 N   0  0  0  0  0  0  0  0  0  0  0  0
  162.8680  204.6080  145.6370 O   0  0  0  0  0  1  0  0  0  0  0  0
  159.8230  205.0130  145.0310 C   0  0  0  0  0  2  0  0  0  0  0  0
  160.6820  203.8680  144.5130 C   0  0  1  0  0  3  0  0  0  0  0  0
  161.1210  205.3230  144.2920 C   0  0  2  0  0  0  0  0  0  0  0  0
  161.0410  201.7160  145.7040 C   0  0  0  0  0  2  0  0  0  0  0  0
  161.3530  203.2000  145.7050 C   0  0  2  0  0  3  0  0  0  0  0  0
  160.2850  202.6530  146.6390 C   0  0  2  0  0  3  0  0  0  0  0  0
  162.0540  202.8750  148.2650 O   0  0  0  0  0  0  0  0  0  0  0  0
  159.9970  202.3000  149.0890 O   0  0  0  0  0  1  0  0  0  0  0  0
  160.8370  202.6300  148.0330 C   0  0  0  0  0  0  0  0  0  0  0  0
  161.0020  205.7420  142.8250 C   0  0  0  0  0  2  0  0  0  0  0  0
  162.3550  206.1940  142.3030 C   0  0  0  0  0  2  0  0  0  0  0  0
  162.3400  206.2590  140.9100 O   0  0  0  0  0  0  0  0  0  0  0  0
  161.5740  207.3930  140.6230 C   0  0  0  0  0  2  0  0  0  0  0  0
  161.9590  209.6050  139.4430 C   0  0  1  0  0  3  0  0  0  0  0  0
  160.4950  210.0780  139.3750 C   0  0  0  0  0  2  0  0  0  0  0  0
  161.3720  207.5210  138.1280 C   0  0  0  0  0  2  0  0  0  0  0  0
  162.6050  210.1320  140.6330 N   0  0  0  0  0  1  0  0  0  0  0  0
  162.0960  208.0780  139.3630 C   0  0  2  0  0  3  0  0  0  0  0  0
  160.2410  208.4350  137.6430 C   0  0  0  0  0  2  0  0  0  0  0  0
  159.5920  209.0860  138.7790 N   0  0  0  0  0  2  0  0  0  0  0  0
  1  5  2  0  0  0  0
  1  7  1  0  0  0  0
  2  8  1  0  0  0  0
  3  2  2  0  0  0  0
  4  2  1  0  0  0  0
  4  6  1  0  0  0  0
  5  3  1  0  0  0  0
  7  4  2  0  0  0  0
  8 10  1  0  0  0  0
  8  9  2  0  0  0  0
 10 21  1  0  0  0  0
 11 22  1  0  0  0  0
 12 11  2  0  0  0  0
 13 19  1  0  0  0  0
 14 15  1  0  0  0  0
 15 26  1  0  0  0  0
 15 31  1  0  0  0  0
 17 14  1  0  0  0  0
 18 20  1  0  0  0  0
 19 22  2  0  0  0  0
 19 18  1  0  0  0  0
 20 17  2  0  0  0  0
 22 16  1  0  0  0  0
 24 21  2  0  0  0  0
 24 26  1  0  0  0  0
 25 12  1  0  0  0  0
 25 13  2  0  0  0  0
 26 23  2  0  0  0  0
 27 16  1  6  0  0  0
 27 17  1  0  0  0  0
 27 24  1  0  0  0  0
 28 29  1  0  0  0  0
 29 25  1  0  0  0  0
 30 29  2  0  0  0  0
 31 32  1  0  0  0  0
 33 32  1  0  0  0  0
 34 35  2  0  0  0  0
 35 36  1  0  0  0  0
 35 33  1  0  0  0  0
 37  1  1  0  0  0  0
 38 37  1  0  0  0  0
 39 40  1  0  0  0  0
 39 38  1  0  0  0  0
 42 41  1  1  0  0  0
 42 45  1  0  0  0  0
 43 50  1  6  0  0  0
 43 42  1  0  0  0  0
 43 41  1  0  0  0  0
 43 39  1  0  0  0  0
 44 46  1  0  0  0  0
 45 44  1  6  0  0  0
 45 46  1  0  0  0  0
 46 49  1  1  0  0  0
 49 47  2  0  0  0  0
 49 48  1  0  0  0  0
 51 50  1  0  0  0  0
 52 51  1  0  0  0  0
 53 52  1  0  0  0  0
 54 57  1  1  0  0  0
 55 54  1  0  0  0  0
 56 58  1  0  0  0  0
 58 54  1  0  0  0  0
 58 53  1  1  0  0  0
 59 56  1  0  0  0  0
 59 60  1  0  0  0  0
 60 55  1  0  0  0  0
M  END
>  <MODEL>
4

>  <REMARK>
 VINA RESULT:      -2.1      3.464      7.349
  Name = 
  19 active torsions:
  status: ('A' for Active; 'I' for Inactive)
    1  A    between atoms: C_1  and  C_6
    2  A    between atoms: C_1  and  C_28
    3  A    between atoms: C_2  and  N_29
    4  A    between atoms: C_2  and  C_60
    5  A    between atoms: C_3  and  C_24
    6  A    between atoms: C_3  and  O_59
    7  A    between atoms: C_4  and  N_12
    8  A    between atoms: N_8  and  C_42
    9  A    between atoms: N_8  and  C_58
   10  A    between atoms: N_12  and  C_42
   11  A    between atoms: C_17  and  C_50
   12  A    between atoms: C_27  and  C_49
   13  A    between atoms: C_28  and  C_39
   14  A    between atoms: C_38  and  C_47
   15  A    between atoms: C_45  and  C_57
   16  A    between atoms: C_45  and  O_59
   17  A    between atoms: C_49  and  C_60
   18  A    between atoms: C_52  and  C_56
   19  A    between atoms: C_57  and  C_58
                            x       y       z     vdW  Elec       q    Type
                         _______ _______ _______ _____ _____    ______ ____

>  <TORSDO>
F 19

$$$$
