=
 OpenBabel11052410213D

 55 61  0  0  1  0  0  0  0  0999 V2000
  159.8150  211.0610  152.6110 N   0  0  1  0  0  0  0  0  0  0  0  0
  157.9060  212.9910  154.4030 N   0  0  0  0  0  0  0  0  0  0  0  0
  157.4670  210.7200  154.7720 O   0  0  0  0  0  0  0  0  0  0  0  0
  160.4260  208.8190  154.1920 C   0  0  0  0  0  0  0  0  0  0  0  0
  158.3080  211.6110  154.4710 C   0  0  0  0  0  0  0  0  0  0  0  0
  161.2690  207.6820  152.2070 C   0  0  0  0  0  0  0  0  0  0  0  0
  158.6600  213.8980  153.5370 C   0  0  0  0  0  2  0  0  0  0  0  0
  159.7030  211.2090  154.0880 C   0  0  1  0  0  3  0  0  0  0  0  0
  160.0200  210.0050  154.8070 O   0  0  0  0  0  0  0  0  0  0  0  0
  160.8540  208.8600  152.8700 C   0  0  0  0  0  0  0  0  0  0  0  0
  160.4040  207.6060  154.8910 C   0  0  0  0  0  0  0  0  0  0  0  0
  159.9870  212.3910  151.9640 C   0  0  2  0  0  3  0  0  0  0  0  0
  157.5960  212.7470  151.6910 O   0  0  0  0  0  1  0  0  0  0  0  0
  161.2240  206.4510  152.9100 C   0  0  0  0  0  0  0  0  0  0  0  0
  158.7880  213.3360  152.1230 C   0  0  1  0  0  3  0  0  0  0  0  0
  160.9830  210.2180  152.2670 C   0  0  2  0  0  3  0  0  0  0  0  0
  162.1810  210.8100  152.6900 O   0  0  0  0  0  1  0  0  0  0  0  0
  160.7920  206.4330  154.2440 C   0  0  0  0  0  3  0  0  0  0  0  0
  161.7410  207.7450  150.8030 C   0  0  0  0  0  0  0  0  0  0  0  0
  162.6820  206.8180  150.3310 C   0  0  0  0  0  3  0  0  0  0  0  0
  163.0550  207.9060  146.8590 F   0  0  0  0  0  0  0  0  0  0  0  0
  161.2460  208.7260  149.9300 C   0  0  0  0  0  3  0  0  0  0  0  0
  161.6870  208.7800  148.6040 C   0  0  0  0  0  3  0  0  0  0  0  0
  162.6270  207.8530  148.1420 C   0  0  0  0  0  0  0  0  0  0  0  0
  163.1240  206.8730  149.0050 C   0  0  0  0  0  3  0  0  0  0  0  0
  154.5970  214.4460  156.5850 N   0  0  0  0  0  0  0  0  0  0  0  0
  155.7190  214.0670  157.2510 C   0  0  0  0  0  3  0  0  0  0  0  0
  156.8240  213.5870  156.5450 C   0  0  0  0  0  3  0  0  0  0  0  0
  156.7770  213.5030  155.1440 C   0  0  0  0  0  0  0  0  0  0  0  0
  154.5160  214.3710  155.2290 C   0  0  0  0  0  3  0  0  0  0  0  0
  155.5990  213.8970  154.4890 C   0  0  0  0  0  3  0  0  0  0  0  0
  161.4280  211.9180  150.1130 O   0  0  0  0  0  1  0  0  0  0  0  0
  159.3080  212.5830  149.5520 O   0  0  0  0  0  0  0  0  0  0  0  0
  160.2830  212.2750  150.4920 C   0  0  0  0  0  0  0  0  0  0  0  0
  161.5990  205.1880  152.2420 C   0  0  0  0  0  3  0  0  0  0  0  0
  161.0240  204.7540  151.1210 C   0  0  0  0  0  3  0  0  0  0  0  0
  160.8280  201.1730  150.4350 C   0  0  2  0  0  3  0  0  0  0  0  0
  159.9280  200.3130  151.0600 O   0  0  0  0  0  1  0  0  0  0  0  0
  160.5960  203.1750  149.2300 C   0  0  2  0  0  3  0  0  0  0  0  0
  161.4270  203.4670  150.4660 C   0  0  2  0  0  3  0  0  0  0  0  0
  161.2100  202.2880  151.3760 C   0  0  0  0  0  2  0  0  0  0  0  0
  160.2040  201.7680  149.2580 N   0  0  0  0  0  2  0  0  0  0  0  0
  161.3960  203.4620  148.0020 C   0  0  0  0  0  3  0  0  0  0  0  0
  160.8960  203.2520  146.8400 N   0  0  0  0  0  0  0  0  0  0  0  0
  160.8000  204.2660  144.6490 C   0  0  0  0  0  2  0  0  0  0  0  0
  161.6600  203.5240  145.6510 C   0  0  1  0  0  3  0  0  0  0  0  0
  162.8940  205.3170  144.7150 C   0  0  0  0  0  2  0  0  0  0  0  0
  162.7930  204.4660  145.9550 C   0  0  0  0  0  2  0  0  0  0  0  0
  161.5680  205.3870  144.1160 N   0  0  0  0  0  2  0  0  0  0  0  0
  159.9340  207.5470  156.3060 C   0  0  0  0  0  2  0  0  0  0  0  0
  160.3770  208.7880  157.0560 C   0  0  0  0  0  2  0  0  0  0  0  0
  161.8910  208.8370  157.1000 C   0  0  0  0  0  2  0  0  0  0  0  0
  163.5680  210.4860  156.6850 O   0  0  0  0  0  0  0  0  0  0  0  0
  161.4970  211.2920  157.2510 O   0  0  0  0  0  1  0  0  0  0  0  0
  162.3700  210.2440  156.9880 C   0  0  0  0  0  0  0  0  0  0  0  0
  1  8  1  0  0  0  0
  2  5  1  0  0  0  0
  2 29  1  0  0  0  0
  4  9  1  0  0  0  0
  4 11  1  0  0  0  0
  5  3  2  0  0  0  0
  6 10  1  0  0  0  0
  6 14  2  0  0  0  0
  7  2  1  0  0  0  0
  8  5  1  0  0  0  0
  8  9  1  0  0  0  0
 10  4  2  0  0  0  0
 11 50  1  0  0  0  0
 12 15  1  0  0  0  0
 12  1  1  0  0  0  0
 13 15  1  0  0  0  0
 14 18  1  0  0  0  0
 15  7  1  0  0  0  0
 16  1  1  0  0  0  0
 16 17  1  0  0  0  0
 16 10  1  0  0  0  0
 18 11  2  0  0  0  0
 19  6  1  0  0  0  0
 20 19  1  0  0  0  0
 21 24  1  0  0  0  0
 22 19  2  0  0  0  0
 23 22  1  0  0  0  0
 24 23  2  0  0  0  0
 24 25  1  0  0  0  0
 25 20  2  0  0  0  0
 26 27  1  0  0  0  0
 28 27  2  0  0  0  0
 29 28  1  0  0  0  0
 30 26  2  0  0  0  0
 31 29  2  0  0  0  0
 31 30  1  0  0  0  0
 32 34  1  0  0  0  0
 33 34  2  0  0  0  0
 34 12  1  0  0  0  0
 35 14  1  0  0  0  0
 36 35  2  0  0  0  0
 37 38  1  0  0  0  0
 37 41  1  0  0  0  0
 39 42  1  0  0  0  0
 39 40  1  0  0  0  0
 40 36  1  0  0  0  0
 40 41  1  0  0  0  0
 42 37  1  0  0  0  0
 43 39  1  0  0  0  0
 44 43  2  0  0  0  0
 45 46  1  0  0  0  0
 46 48  1  0  0  0  0
 46 44  1  0  0  0  0
 47 48  1  0  0  0  0
 49 45  1  0  0  0  0
 49 47  1  0  0  0  0
 50 51  1  0  0  0  0
 51 52  1  0  0  0  0
 53 55  2  0  0  0  0
 55 52  1  0  0  0  0
 55 54  1  0  0  0  0
M  END
>  <MODEL>
1

>  <REMARK>
 VINA RESULT:      -5.9      0.000      0.000
  Name = 
  11 active torsions:
  status: ('A' for Active; 'I' for Inactive)
    1  A    between atoms: C_2  and  C_20
    2  A    between atoms: C_2  and  C_27
    3  A    between atoms: N_7  and  C_41
    4  A    between atoms: C_13  and  C_16
    5  A    between atoms: C_20  and  C_44
    6  A    between atoms: C_23  and  N_33
    7  A    between atoms: C_26  and  C_32
    8  A    between atoms: C_28  and  C_53
    9  A    between atoms: C_30  and  C_44
   10  A    between atoms: C_34  and  C_36
   11  A    between atoms: C_38  and  C_46
                            x       y       z     vdW  Elec       q    Type
                         _______ _______ _______ _____ _____    ______ ____

>  <TORSDO>
F 11

$$$$
=
 OpenBabel11052410213D

 55 61  0  0  1  0  0  0  0  0999 V2000
  160.2710  210.6440  152.2050 N   0  0  1  0  0  0  0  0  0  0  0  0
  158.6390  212.7340  154.0900 N   0  0  0  0  0  0  0  0  0  0  0  0
  158.0740  210.5060  154.5410 O   0  0  0  0  0  0  0  0  0  0  0  0
  160.8440  208.3920  153.7870 C   0  0  0  0  0  0  0  0  0  0  0  0
  158.9490  211.3300  154.1590 C   0  0  0  0  0  0  0  0  0  0  0  0
  161.4550  207.1650  151.7710 C   0  0  0  0  0  0  0  0  0  0  0  0
  159.3860  213.5700  153.1500 C   0  0  0  0  0  2  0  0  0  0  0  0
  160.2810  210.8250  153.6830 C   0  0  1  0  0  3  0  0  0  0  0  0
  160.5670  209.6140  154.4030 O   0  0  0  0  0  0  0  0  0  0  0  0
  161.1730  208.3800  152.4360 C   0  0  0  0  0  0  0  0  0  0  0  0
  160.7910  207.1960  154.5120 C   0  0  0  0  0  0  0  0  0  0  0  0
  160.4840  211.9470  151.5170 C   0  0  2  0  0  3  0  0  0  0  0  0
  158.1090  212.4650  151.4140 O   0  0  0  0  0  1  0  0  0  0  0  0
  161.3780  205.9520  152.5020 C   0  0  0  0  0  0  0  0  0  0  0  0
  159.3680  212.9760  151.7440 C   0  0  1  0  0  3  0  0  0  0  0  0
  161.3490  209.7150  151.7950 C   0  0  2  0  0  3  0  0  0  0  0  0
  162.6120  210.2290  152.1140 O   0  0  0  0  0  1  0  0  0  0  0  0
  161.0480  205.9870  153.8650 C   0  0  0  0  0  3  0  0  0  0  0  0
  161.8230  207.1700  150.3340 C   0  0  0  0  0  0  0  0  0  0  0  0
  160.8290  207.2750  149.3500 C   0  0  0  0  0  3  0  0  0  0  0  0
  162.8520  207.2030  146.3030 F   0  0  0  0  0  0  0  0  0  0  0  0
  163.1680  207.0790  149.9450 C   0  0  0  0  0  3  0  0  0  0  0  0
  163.5140  207.0900  148.5910 C   0  0  0  0  0  3  0  0  0  0  0  0
  162.5170  207.1940  147.6160 C   0  0  0  0  0  0  0  0  0  0  0  0
  161.1760  207.2860  147.9950 C   0  0  0  0  0  3  0  0  0  0  0  0
  155.6080  214.4530  156.4740 N   0  0  0  0  0  0  0  0  0  0  0  0
  156.7030  213.9170  157.0740 C   0  0  0  0  0  3  0  0  0  0  0  0
  157.7170  213.3480  156.3000 C   0  0  0  0  0  3  0  0  0  0  0  0
  157.6060  213.3350  154.9000 C   0  0  0  0  0  0  0  0  0  0  0  0
  155.4670  214.4520  155.1220 C   0  0  0  0  0  3  0  0  0  0  0  0
  156.4580  213.8920  154.3150 C   0  0  0  0  0  3  0  0  0  0  0  0
  160.1800  212.6460  149.2500 O   0  0  0  0  0  0  0  0  0  0  0  0
  161.3260  210.6790  149.5170 O   0  0  0  0  0  1  0  0  0  0  0  0
  160.6600  211.7850  150.0310 C   0  0  0  0  0  0  0  0  0  0  0  0
  161.6140  204.6550  151.8370 C   0  0  0  0  0  3  0  0  0  0  0  0
  161.1760  204.3690  150.6120 C   0  0  0  0  0  3  0  0  0  0  0  0
  160.6950  200.7910  150.0650 C   0  0  2  0  0  3  0  0  0  0  0  0
  159.8120  200.0070  150.8050 O   0  0  0  0  0  1  0  0  0  0  0  0
  160.4650  202.7720  148.8240 C   0  0  2  0  0  3  0  0  0  0  0  0
  161.4320  203.0430  149.9630 C   0  0  2  0  0  3  0  0  0  0  0  0
  161.2360  201.9050  150.9270 C   0  0  0  0  0  2  0  0  0  0  0  0
  159.9940  201.3930  148.9370 N   0  0  0  0  0  2  0  0  0  0  0  0
  161.1540  202.9750  147.5150 C   0  0  0  0  0  3  0  0  0  0  0  0
  160.5540  203.5790  146.5550 N   0  0  0  0  0  0  0  0  0  0  0  0
  160.5730  204.9440  144.5610 C   0  0  0  0  0  2  0  0  0  0  0  0
  161.2100  203.7780  145.2900 C   0  0  1  0  0  3  0  0  0  0  0  0
  162.8990  205.1630  144.3720 C   0  0  0  0  0  2  0  0  0  0  0  0
  162.6420  204.1910  145.4940 C   0  0  0  0  0  2  0  0  0  0  0  0
  161.6320  205.8020  144.0390 N   0  0  0  0  0  2  0  0  0  0  0  0
  160.4260  207.1940  155.9590 C   0  0  0  0  0  2  0  0  0  0  0  0
  160.4840  208.6040  156.5150 C   0  0  0  0  0  2  0  0  0  0  0  0
  161.8930  208.9040  156.9830 C   0  0  0  0  0  2  0  0  0  0  0  0
  161.0990  211.1390  157.2600 O   0  0  0  0  0  1  0  0  0  0  0  0
  163.3740  210.9030  157.1010 O   0  0  0  0  0  0  0  0  0  0  0  0
  162.0900  210.3730  157.1330 C   0  0  0  0  0  0  0  0  0  0  0  0
  1  8  1  0  0  0  0
  2  5  1  0  0  0  0
  2 29  1  0  0  0  0
  4  9  1  0  0  0  0
  4 11  1  0  0  0  0
  5  3  2  0  0  0  0
  6 10  1  0  0  0  0
  6 14  2  0  0  0  0
  7  2  1  0  0  0  0
  8  5  1  0  0  0  0
  8  9  1  0  0  0  0
 10  4  2  0  0  0  0
 11 50  1  0  0  0  0
 12 15  1  0  0  0  0
 12  1  1  0  0  0  0
 13 15  1  0  0  0  0
 14 18  1  0  0  0  0
 15  7  1  0  0  0  0
 16 17  1  0  0  0  0
 16  1  1  0  0  0  0
 16 10  1  0  0  0  0
 18 11  2  0  0  0  0
 19  6  1  0  0  0  0
 20 19  2  0  0  0  0
 21 24  1  0  0  0  0
 22 19  1  0  0  0  0
 23 22  2  0  0  0  0
 24 25  2  0  0  0  0
 24 23  1  0  0  0  0
 25 20  1  0  0  0  0
 26 27  1  0  0  0  0
 28 27  2  0  0  0  0
 29 28  1  0  0  0  0
 30 26  2  0  0  0  0
 31 29  2  0  0  0  0
 31 30  1  0  0  0  0
 32 34  2  0  0  0  0
 33 34  1  0  0  0  0
 34 12  1  0  0  0  0
 35 14  1  0  0  0  0
 36 35  2  0  0  0  0
 37 38  1  0  0  0  0
 37 41  1  0  0  0  0
 39 42  1  0  0  0  0
 39 40  1  0  0  0  0
 40 36  1  0  0  0  0
 40 41  1  0  0  0  0
 42 37  1  0  0  0  0
 43 39  1  0  0  0  0
 44 43  2  0  0  0  0
 45 46  1  0  0  0  0
 46 48  1  0  0  0  0
 46 44  1  0  0  0  0
 47 48  1  0  0  0  0
 49 47  1  0  0  0  0
 49 45  1  0  0  0  0
 50 51  1  0  0  0  0
 51 52  1  0  0  0  0
 52 55  1  0  0  0  0
 54 55  2  0  0  0  0
 55 53  1  0  0  0  0
M  END
>  <MODEL>
2

>  <REMARK>
 VINA RESULT:      -4.9      0.782      1.111
  Name = 
  11 active torsions:
  status: ('A' for Active; 'I' for Inactive)
    1  A    between atoms: C_2  and  C_20
    2  A    between atoms: C_2  and  C_27
    3  A    between atoms: N_7  and  C_41
    4  A    between atoms: C_13  and  C_16
    5  A    between atoms: C_20  and  C_44
    6  A    between atoms: C_23  and  N_33
    7  A    between atoms: C_26  and  C_32
    8  A    between atoms: C_28  and  C_53
    9  A    between atoms: C_30  and  C_44
   10  A    between atoms: C_34  and  C_36
   11  A    between atoms: C_38  and  C_46
                            x       y       z     vdW  Elec       q    Type
                         _______ _______ _______ _____ _____    ______ ____

>  <TORSDO>
F 11

$$$$
