=
 OpenBabel11042420453D

 27 30  0  0  1  0  0  0  0  0999 V2000
  162.2710  208.1200  151.3460 C   0  0  2  0  0  3  0  0  0  0  0  0
  161.0260  206.1960  151.7300 N   0  0  0  0  0  0  0  0  0  0  0  0
  161.6440  206.0890  150.4510 C   0  0  2  0  0  3  0  0  0  0  0  0
  162.5340  209.0070  148.6180 C   0  0  0  0  0  3  0  0  0  0  0  0
  161.9390  209.9060  149.6480 C   0  0  0  0  0  0  0  0  0  0  0  0
  161.7440  209.4620  150.9040 C   0  0  0  0  0  3  0  0  0  0  0  0
  162.3390  207.1930  150.1820 C   0  0  1  0  0  3  0  0  0  0  0  0
  162.7070  207.7010  148.8540 C   0  0  0  0  0  3  0  0  0  0  0  0
  161.3360  207.3520  152.2230 C   0  0  0  0  0  0  0  0  0  0  0  0
  160.3640  201.3180  149.7810 C   0  0  0  0  0  1  0  0  0  0  0  0
  161.4760  205.1090  148.1380 C   0  0  0  0  0  3  0  0  0  0  0  0
  161.3630  204.9650  149.5290 C   0  0  0  0  0  0  0  0  0  0  0  0
  160.8560  202.7910  147.8260 C   0  0  0  0  0  3  0  0  0  0  0  0
  160.7480  202.6350  149.2090 C   0  0  0  0  0  0  0  0  0  0  0  0
  161.2210  204.0280  147.2890 C   0  0  0  0  0  0  0  0  0  0  0  0
  161.3310  204.1840  145.9140 O   0  0  0  0  0  1  0  0  0  0  0  0
  161.0030  203.7180  150.0560 C   0  0  0  0  0  3  0  0  0  0  0  0
  160.3020  208.9380  155.3900 C   0  0  0  0  0  0  0  0  0  0  0  0
  160.5000  206.9620  154.4700 N   0  0  0  0  0  0  0  0  0  0  0  0
  160.1380  207.6790  155.6120 N   0  0  0  0  0  0  0  0  0  0  0  0
  160.8870  207.7850  153.5530 C   0  0  0  0  0  0  0  0  0  0  0  0
  160.8150  209.2020  154.0130 C   0  0  0  0  0  2  0  0  0  0  0  0
  158.9900  210.8630  156.1640 C   0  0  0  0  0  1  0  0  0  0  0  0
  160.0220  209.9080  156.3500 O   0  0  0  0  0  0  0  0  0  0  0  0
  161.4980  211.2580  149.2660 C   0  0  0  0  0  0  0  0  0  0  0  0
  161.5420  211.6800  147.9050 N   0  0  0  0  0  1  0  0  0  0  0  0
  161.0740  212.0580  150.1430 O   0  0  0  0  0  0  0  0  0  0  0  0
  1  6  1  6  0  0  0
  1  9  1  0  0  0  0
  2  9  2  0  0  0  0
  3 12  1  6  0  0  0
  3  2  1  0  0  0  0
  4  8  2  0  0  0  0
  4  5  1  0  0  0  0
  5  6  2  0  0  0  0
  7  8  1  6  0  0  0
  7  3  1  0  0  0  0
  7  1  1  0  0  0  0
  9 21  1  0  0  0  0
 11 12  1  0  0  0  0
 12 17  2  0  0  0  0
 13 14  2  0  0  0  0
 14 10  1  0  0  0  0
 14 17  1  0  0  0  0
 15 13  1  0  0  0  0
 15 11  2  0  0  0  0
 16 15  1  0  0  0  0
 18 20  2  0  0  0  0
 18 24  1  0  0  0  0
 19 20  1  0  0  0  0
 21 22  1  0  0  0  0
 21 19  2  0  0  0  0
 22 18  1  0  0  0  0
 23 24  1  0  0  0  0
 25  5  1  0  0  0  0
 25 27  2  0  0  0  0
 26 25  1  0  0  0  0
M  END
>  <MODEL>
1

>  <REMARK>
 VINA RESULT:      -8.0      0.000      0.000
  Name = 
  4 active torsions:
  status: ('A' for Active; 'I' for Inactive)
    1  A    between atoms: C_4  and  O_13
    2  A    between atoms: C_5  and  C_16
    3  A    between atoms: C_6  and  C_11
    4  A    between atoms: C_21  and  C_26
                            x       y       z     vdW  Elec       q    Type
                         _______ _______ _______ _____ _____    ______ ____

>  <TORSDO>
F 4

$$$$
=
 OpenBabel11042420453D

 27 30  0  0  1  0  0  0  0  0999 V2000
  162.2790  208.0080  151.4080 C   0  0  2  0  0  3  0  0  0  0  0  0
  161.0260  206.0990  151.8400 N   0  0  0  0  0  0  0  0  0  0  0  0
  161.6420  205.9590  150.5630 C   0  0  2  0  0  3  0  0  0  0  0  0
  162.5450  208.8270  148.6600 C   0  0  0  0  0  3  0  0  0  0  0  0
  161.9550  209.7540  149.6670 C   0  0  0  0  0  0  0  0  0  0  0  0
  161.7590  209.3410  150.9340 C   0  0  0  0  0  3  0  0  0  0  0  0
  162.3420  207.0530  150.2670 C   0  0  1  0  0  3  0  0  0  0  0  0
  162.7120  207.5260  148.9270 C   0  0  0  0  0  3  0  0  0  0  0  0
  161.3410  207.2650  152.3040 C   0  0  0  0  0  0  0  0  0  0  0  0
  161.5720  204.0280  145.9680 C   0  0  0  0  0  1  0  0  0  0  0  0
  160.8240  203.6120  150.1600 C   0  0  0  0  0  3  0  0  0  0  0  0
  161.3550  204.8140  149.6690 C   0  0  0  0  0  0  0  0  0  0  0  0
  160.7920  202.6870  147.9240 C   0  0  0  0  0  3  0  0  0  0  0  0
  161.3130  203.8810  147.4240 C   0  0  0  0  0  0  0  0  0  0  0  0
  160.5460  202.5520  149.2920 C   0  0  0  0  0  0  0  0  0  0  0  0
  160.0250  201.3650  149.7910 O   0  0  0  0  0  1  0  0  0  0  0  0
  161.5910  204.9410  148.2930 C   0  0  0  0  0  3  0  0  0  0  0  0
  160.2910  208.9340  155.4230 C   0  0  0  0  0  0  0  0  0  0  0  0
  160.5550  206.9330  154.5780 N   0  0  0  0  0  0  0  0  0  0  0  0
  160.1820  207.6800  155.6970 N   0  0  0  0  0  0  0  0  0  0  0  0
  160.8940  207.7330  153.6230 C   0  0  0  0  0  0  0  0  0  0  0  0
  160.7720  209.1630  154.0280 C   0  0  0  0  0  2  0  0  0  0  0  0
  158.9590  210.8780  156.1110 C   0  0  0  0  0  1  0  0  0  0  0  0
  159.9860  209.9290  156.3490 O   0  0  0  0  0  0  0  0  0  0  0  0
  161.5200  211.0980  149.2530 C   0  0  0  0  0  0  0  0  0  0  0  0
  161.5560  211.4830  147.8810 N   0  0  0  0  0  1  0  0  0  0  0  0
  161.1080  211.9230  150.1110 O   0  0  0  0  0  0  0  0  0  0  0  0
  1  6  1  6  0  0  0
  1  9  1  0  0  0  0
  2  9  2  0  0  0  0
  3 12  1  6  0  0  0
  3  2  1  0  0  0  0
  4  8  2  0  0  0  0
  4  5  1  0  0  0  0
  5  6  2  0  0  0  0
  7  8  1  6  0  0  0
  7  3  1  0  0  0  0
  7  1  1  0  0  0  0
  9 21  1  0  0  0  0
 10 14  1  0  0  0  0
 12 11  1  0  0  0  0
 13 15  1  0  0  0  0
 14 13  2  0  0  0  0
 14 17  1  0  0  0  0
 15 16  1  0  0  0  0
 15 11  2  0  0  0  0
 17 12  2  0  0  0  0
 18 20  2  0  0  0  0
 18 24  1  0  0  0  0
 19 20  1  0  0  0  0
 21 22  1  0  0  0  0
 21 19  2  0  0  0  0
 22 18  1  0  0  0  0
 23 24  1  0  0  0  0
 25  5  1  0  0  0  0
 25 27  2  0  0  0  0
 26 25  1  0  0  0  0
M  END
>  <MODEL>
2

>  <REMARK>
 VINA RESULT:      -7.9      1.004      1.631
  Name = 
  4 active torsions:
  status: ('A' for Active; 'I' for Inactive)
    1  A    between atoms: C_4  and  O_13
    2  A    between atoms: C_5  and  C_16
    3  A    between atoms: C_6  and  C_11
    4  A    between atoms: C_21  and  C_26
                            x       y       z     vdW  Elec       q    Type
                         _______ _______ _______ _____ _____    ______ ____

>  <TORSDO>
F 4

$$$$
=
 OpenBabel11042420453D

 27 30  0  0  1  0  0  0  0  0999 V2000
  161.8820  204.5930  149.0860 C   0  0  2  0  0  3  0  0  0  0  0  0
  161.1650  206.8040  149.0630 N   0  0  0  0  0  0  0  0  0  0  0  0
  161.4870  206.4440  150.4030 C   0  0  2  0  0  3  0  0  0  0  0  0
  161.3400  203.0470  151.4540 C   0  0  0  0  0  3  0  0  0  0  0  0
  160.8270  202.5980  150.1280 C   0  0  0  0  0  0  0  0  0  0  0  0
  161.0140  203.3630  149.0350 C   0  0  0  0  0  3  0  0  0  0  0  0
  161.8680  205.1690  150.4590 C   0  0  1  0  0  3  0  0  0  0  0  0
  161.8190  204.2840  151.6300 C   0  0  0  0  0  3  0  0  0  0  0  0
  161.3420  205.7580  148.3200 C   0  0  0  0  0  0  0  0  0  0  0  0
  160.5870  207.0480  155.2690 C   0  0  0  0  0  1  0  0  0  0  0  0
  161.1520  208.7400  151.3800 C   0  0  0  0  0  3  0  0  0  0  0  0
  161.2340  207.3490  151.5470 C   0  0  0  0  0  0  0  0  0  0  0  0
  160.7130  209.0210  153.7430 C   0  0  0  0  0  3  0  0  0  0  0  0
  160.7850  207.6380  153.9190 C   0  0  0  0  0  0  0  0  0  0  0  0
  160.8950  209.5730  152.4730 C   0  0  0  0  0  0  0  0  0  0  0  0
  160.8220  210.9480  152.2960 O   0  0  0  0  0  1  0  0  0  0  0  0
  161.0410  206.8060  152.8250 C   0  0  0  0  0  3  0  0  0  0  0  0
  161.2610  205.5370  144.6390 C   0  0  0  0  0  0  0  0  0  0  0  0
  160.1120  206.3530  146.3130 N   0  0  0  0  0  0  0  0  0  0  0  0
  160.1950  206.2020  144.9270 N   0  0  0  0  0  0  0  0  0  0  0  0
  161.1280  205.7810  146.8680 C   0  0  0  0  0  0  0  0  0  0  0  0
  162.0340  205.1600  145.8590 C   0  0  0  0  0  2  0  0  0  0  0  0
  161.5810  206.2040  142.2970 C   0  0  0  0  0  1  0  0  0  0  0  0
  161.6140  205.2280  143.3270 O   0  0  0  0  0  0  0  0  0  0  0  0
  160.0510  201.3500  150.0320 C   0  0  0  0  0  0  0  0  0  0  0  0
  158.7790  201.3330  149.3870 N   0  0  0  0  0  1  0  0  0  0  0  0
  160.5060  200.2810  150.5190 O   0  0  0  0  0  0  0  0  0  0  0  0
  1  6  1  1  0  0  0
  1  7  1  0  0  0  0
  2  3  1  0  0  0  0
  3  7  1  0  0  0  0
  3 12  1  1  0  0  0
  4  8  2  0  0  0  0
  5  4  1  0  0  0  0
  6  5  2  0  0  0  0
  7  8  1  1  0  0  0
  9  2  2  0  0  0  0
  9  1  1  0  0  0  0
 11 12  2  0  0  0  0
 11 15  1  0  0  0  0
 12 17  1  0  0  0  0
 13 14  1  0  0  0  0
 14 10  1  0  0  0  0
 15 13  2  0  0  0  0
 16 15  1  0  0  0  0
 17 14  2  0  0  0  0
 18 20  2  0  0  0  0
 18 22  1  0  0  0  0
 19 21  2  0  0  0  0
 20 19  1  0  0  0  0
 21  9  1  0  0  0  0
 22 21  1  0  0  0  0
 23 24  1  0  0  0  0
 24 18  1  0  0  0  0
 25  5  1  0  0  0  0
 25 27  2  0  0  0  0
 26 25  1  0  0  0  0
M  END
>  <MODEL>
3

>  <REMARK>
 VINA RESULT:      -7.8      2.901      8.175
  Name = 
  4 active torsions:
  status: ('A' for Active; 'I' for Inactive)
    1  A    between atoms: C_4  and  O_13
    2  A    between atoms: C_5  and  C_16
    3  A    between atoms: C_6  and  C_11
    4  A    between atoms: C_21  and  C_26
                            x       y       z     vdW  Elec       q    Type
                         _______ _______ _______ _____ _____    ______ ____

>  <TORSDO>
F 4

$$$$
=
 OpenBabel11042420453D

 27 30  0  0  1  0  0  0  0  0999 V2000
  161.8340  204.5990  149.1940 C   0  0  2  0  0  3  0  0  0  0  0  0
  161.1080  206.8060  149.2050 N   0  0  0  0  0  0  0  0  0  0  0  0
  161.4090  206.4200  150.5420 C   0  0  2  0  0  3  0  0  0  0  0  0
  161.2610  203.0020  151.5210 C   0  0  0  0  0  3  0  0  0  0  0  0
  160.7700  202.5780  150.1780 C   0  0  0  0  0  0  0  0  0  0  0  0
  160.9710  203.3660  149.1040 C   0  0  0  0  0  3  0  0  0  0  0  0
  161.7960  205.1460  150.5780 C   0  0  1  0  0  3  0  0  0  0  0  0
  161.7310  204.2370  151.7300 C   0  0  0  0  0  3  0  0  0  0  0  0
  161.3010  205.7770  148.4440 C   0  0  0  0  0  0  0  0  0  0  0  0
  160.5240  210.9880  152.3310 C   0  0  0  0  0  1  0  0  0  0  0  0
  161.0750  206.8000  153.0090 C   0  0  0  0  0  3  0  0  0  0  0  0
  161.1340  207.3020  151.7000 C   0  0  0  0  0  0  0  0  0  0  0  0
  160.6490  209.0230  153.8660 C   0  0  0  0  0  3  0  0  0  0  0  0
  160.7130  209.5330  152.5680 C   0  0  0  0  0  0  0  0  0  0  0  0
  160.8310  207.6550  154.0870 C   0  0  0  0  0  0  0  0  0  0  0  0
  160.7690  207.1460  155.3770 O   0  0  0  0  0  1  0  0  0  0  0  0
  160.9580  208.6760  151.4910 C   0  0  0  0  0  3  0  0  0  0  0  0
  161.2460  205.5810  144.7600 C   0  0  0  0  0  0  0  0  0  0  0  0
  160.1690  206.5090  146.4240 N   0  0  0  0  0  0  0  0  0  0  0  0
  160.2550  206.3560  145.0390 N   0  0  0  0  0  0  0  0  0  0  0  0
  161.1100  205.8290  146.9890 C   0  0  0  0  0  0  0  0  0  0  0  0
  161.9570  205.1170  145.9880 C   0  0  0  0  0  2  0  0  0  0  0  0
  161.5810  206.2030  142.4090 C   0  0  0  0  0  1  0  0  0  0  0  0
  161.5810  205.2410  143.4510 O   0  0  0  0  0  0  0  0  0  0  0  0
  160.0010  201.3300  150.0450 C   0  0  0  0  0  0  0  0  0  0  0  0
  158.7370  201.3220  149.3860 N   0  0  0  0  0  1  0  0  0  0  0  0
  160.4560  200.2520  150.5110 O   0  0  0  0  0  0  0  0  0  0  0  0
  1  6  1  1  0  0  0
  1  7  1  0  0  0  0
  2  3  1  0  0  0  0
  3  7  1  0  0  0  0
  3 12  1  1  0  0  0
  4  8  2  0  0  0  0
  5  4  1  0  0  0  0
  6  5  2  0  0  0  0
  7  8  1  1  0  0  0
  9  1  1  0  0  0  0
  9  2  2  0  0  0  0
 10 14  1  0  0  0  0
 11 15  1  0  0  0  0
 12 11  2  0  0  0  0
 13 15  2  0  0  0  0
 14 13  1  0  0  0  0
 15 16  1  0  0  0  0
 17 12  1  0  0  0  0
 17 14  2  0  0  0  0
 18 20  2  0  0  0  0
 18 22  1  0  0  0  0
 19 21  2  0  0  0  0
 20 19  1  0  0  0  0
 21  9  1  0  0  0  0
 22 21  1  0  0  0  0
 23 24  1  0  0  0  0
 24 18  1  0  0  0  0
 25  5  1  0  0  0  0
 25 27  2  0  0  0  0
 26 25  1  0  0  0  0
M  END
>  <MODEL>
4

>  <REMARK>
 VINA RESULT:      -7.7      2.934      8.312
  Name = 
  4 active torsions:
  status: ('A' for Active; 'I' for Inactive)
    1  A    between atoms: C_4  and  O_13
    2  A    between atoms: C_5  and  C_16
    3  A    between atoms: C_6  and  C_11
    4  A    between atoms: C_21  and  C_26
                            x       y       z     vdW  Elec       q    Type
                         _______ _______ _______ _____ _____    ______ ____

>  <TORSDO>
F 4

$$$$
=
 OpenBabel11042420453D

 27 30  0  0  1  0  0  0  0  0999 V2000
  162.1740  209.2750  151.4490 C   0  0  2  0  0  3  0  0  0  0  0  0
  161.0440  207.3430  152.0690 N   0  0  0  0  0  0  0  0  0  0  0  0
  161.6440  207.1290  150.7950 C   0  0  2  0  0  3  0  0  0  0  0  0
  162.3420  209.8700  148.6360 C   0  0  0  0  0  3  0  0  0  0  0  0
  161.7160  210.8440  149.5750 C   0  0  0  0  0  0  0  0  0  0  0  0
  161.5680  210.5310  150.8760 C   0  0  0  0  0  3  0  0  0  0  0  0
  162.2730  208.2310  150.3910 C   0  0  1  0  0  3  0  0  0  0  0  0
  162.5900  208.6090  149.0080 C   0  0  0  0  0  3  0  0  0  0  0  0
  161.2990  208.5600  152.4260 C   0  0  0  0  0  0  0  0  0  0  0  0
  160.7810  202.2200  150.6790 C   0  0  0  0  0  1  0  0  0  0  0  0
  161.4130  205.9090  148.6040 C   0  0  0  0  0  3  0  0  0  0  0  0
  161.4090  205.8970  150.0080 C   0  0  0  0  0  0  0  0  0  0  0  0
  160.9970  203.5260  148.5610 C   0  0  0  0  0  3  0  0  0  0  0  0
  160.9980  203.5010  149.9570 C   0  0  0  0  0  0  0  0  0  0  0  0
  161.2050  204.7290  147.8840 C   0  0  0  0  0  0  0  0  0  0  0  0
  161.2060  204.7550  146.4960 O   0  0  0  0  0  1  0  0  0  0  0  0
  161.2070  204.6820  150.6770 C   0  0  0  0  0  3  0  0  0  0  0  0
  159.9020  210.3080  155.3600 C   0  0  0  0  0  0  0  0  0  0  0  0
  161.1980  208.6190  154.8520 N   0  0  0  0  0  0  0  0  0  0  0  0
  160.6100  209.3630  155.8770 N   0  0  0  0  0  0  0  0  0  0  0  0
  160.8490  209.1130  153.7110 C   0  0  0  0  0  0  0  0  0  0  0  0
  159.9480  210.2910  153.8680 C   0  0  0  0  0  2  0  0  0  0  0  0
  158.0440  211.8880  155.6420 C   0  0  0  0  0  1  0  0  0  0  0  0
  159.1910  211.2190  156.1390 O   0  0  0  0  0  0  0  0  0  0  0  0
  161.1950  212.1210  149.0590 C   0  0  0  0  0  0  0  0  0  0  0  0
  161.2790  212.4320  147.6700 N   0  0  0  0  0  1  0  0  0  0  0  0
  160.6660  212.9530  149.8430 O   0  0  0  0  0  0  0  0  0  0  0  0
  1  6  1  6  0  0  0
  1  9  1  0  0  0  0
  2  9  2  0  0  0  0
  3 12  1  6  0  0  0
  3  2  1  0  0  0  0
  4  8  2  0  0  0  0
  4  5  1  0  0  0  0
  5  6  2  0  0  0  0
  7  8  1  6  0  0  0
  7  3  1  0  0  0  0
  7  1  1  0  0  0  0
  9 21  1  0  0  0  0
 11 12  1  0  0  0  0
 12 17  2  0  0  0  0
 13 14  2  0  0  0  0
 14 17  1  0  0  0  0
 14 10  1  0  0  0  0
 15 13  1  0  0  0  0
 15 11  2  0  0  0  0
 16 15  1  0  0  0  0
 18 20  2  0  0  0  0
 18 24  1  0  0  0  0
 19 20  1  0  0  0  0
 21 22  1  0  0  0  0
 21 19  2  0  0  0  0
 22 18  1  0  0  0  0
 23 24  1  0  0  0  0
 25  5  1  0  0  0  0
 25 27  2  0  0  0  0
 26 25  1  0  0  0  0
M  END
>  <MODEL>
5

>  <REMARK>
 VINA RESULT:      -7.7      1.073      1.203
  Name = 
  4 active torsions:
  status: ('A' for Active; 'I' for Inactive)
    1  A    between atoms: C_4  and  O_13
    2  A    between atoms: C_5  and  C_16
    3  A    between atoms: C_6  and  C_11
    4  A    between atoms: C_21  and  C_26
                            x       y       z     vdW  Elec       q    Type
                         _______ _______ _______ _____ _____    ______ ____

>  <TORSDO>
F 4

$$$$
=
 OpenBabel11042420453D

 27 30  0  0  1  0  0  0  0  0999 V2000
  162.2990  209.7840  151.5130 C   0  0  2  0  0  3  0  0  0  0  0  0
  161.2030  208.0750  152.6420 N   0  0  0  0  0  0  0  0  0  0  0  0
  161.7170  207.5550  151.4200 C   0  0  2  0  0  3  0  0  0  0  0  0
  162.2860  209.6950  148.6340 C   0  0  0  0  0  3  0  0  0  0  0  0
  161.7280  210.8760  149.3530 C   0  0  0  0  0  0  0  0  0  0  0  0
  161.6630  210.8810  150.6990 C   0  0  0  0  0  3  0  0  0  0  0  0
  162.3240  208.5180  150.7280 C   0  0  1  0  0  3  0  0  0  0  0  0
  162.5520  208.5520  149.2780 C   0  0  0  0  0  3  0  0  0  0  0  0
  161.4860  209.3370  152.6840 C   0  0  0  0  0  0  0  0  0  0  0  0
  161.0260  204.3450  147.6680 C   0  0  0  0  0  1  0  0  0  0  0  0
  161.1730  205.1380  151.8710 C   0  0  0  0  0  3  0  0  0  0  0  0
  161.4250  206.1770  150.9620 C   0  0  0  0  0  0  0  0  0  0  0  0
  160.8360  203.5900  150.0410 C   0  0  0  0  0  3  0  0  0  0  0  0
  161.0780  204.6190  149.1280 C   0  0  0  0  0  0  0  0  0  0  0  0
  160.8820  203.8490  151.4130 C   0  0  0  0  0  0  0  0  0  0  0  0
  160.6400  202.8280  152.3220 O   0  0  0  0  0  1  0  0  0  0  0  0
  161.3680  205.9070  149.5880 C   0  0  0  0  0  3  0  0  0  0  0  0
  160.0800  211.4580  155.3560 C   0  0  0  0  0  0  0  0  0  0  0  0
  161.9760  210.5680  154.7200 N   0  0  0  0  0  0  0  0  0  0  0  0
  161.3270  211.3590  155.6690 N   0  0  0  0  0  0  0  0  0  0  0  0
  161.1250  210.1860  153.8270 C   0  0  0  0  0  0  0  0  0  0  0  0
  159.7550  210.7070  154.1070 C   0  0  0  0  0  2  0  0  0  0  0  0
  159.0830  213.6010  156.0180 C   0  0  0  0  0  1  0  0  0  0  0  0
  159.1750  212.1890  156.1220 O   0  0  0  0  0  0  0  0  0  0  0  0
  161.1800  212.0060  148.5830 C   0  0  0  0  0  0  0  0  0  0  0  0
  160.8870  213.2460  149.2220 N   0  0  0  0  0  1  0  0  0  0  0  0
  160.9680  211.8870  147.3470 O   0  0  0  0  0  0  0  0  0  0  0  0
  1  6  1  6  0  0  0
  1  9  1  0  0  0  0
  2  9  2  0  0  0  0
  3 12  1  6  0  0  0
  3  2  1  0  0  0  0
  4  8  2  0  0  0  0
  4  5  1  0  0  0  0
  5  6  2  0  0  0  0
  7  8  1  6  0  0  0
  7  3  1  0  0  0  0
  7  1  1  0  0  0  0
  9 21  1  0  0  0  0
 10 14  1  0  0  0  0
 12 11  2  0  0  0  0
 13 15  2  0  0  0  0
 14 17  2  0  0  0  0
 14 13  1  0  0  0  0
 15 11  1  0  0  0  0
 15 16  1  0  0  0  0
 17 12  1  0  0  0  0
 18 20  2  0  0  0  0
 18 24  1  0  0  0  0
 19 20  1  0  0  0  0
 21 22  1  0  0  0  0
 21 19  2  0  0  0  0
 22 18  1  0  0  0  0
 23 24  1  0  0  0  0
 25 26  1  0  0  0  0
 25  5  1  0  0  0  0
 27 25  2  0  0  0  0
M  END
>  <MODEL>
6

>  <REMARK>
 VINA RESULT:      -7.6      2.139      2.728
  Name = 
  4 active torsions:
  status: ('A' for Active; 'I' for Inactive)
    1  A    between atoms: C_4  and  O_13
    2  A    between atoms: C_5  and  C_16
    3  A    between atoms: C_6  and  C_11
    4  A    between atoms: C_21  and  C_26
                            x       y       z     vdW  Elec       q    Type
                         _______ _______ _______ _____ _____    ______ ____

>  <TORSDO>
F 4

$$$$
=
 OpenBabel11042420453D

 27 30  0  0  1  0  0  0  0  0999 V2000
  162.3180  208.0120  151.0440 C   0  0  2  0  0  3  0  0  0  0  0  0
  161.5870  208.7100  148.9520 N   0  0  0  0  0  0  0  0  0  0  0  0
  161.9540  209.8580  149.7110 C   0  0  2  0  0  3  0  0  0  0  0  0
  161.8630  209.7840  153.2680 C   0  0  0  0  0  3  0  0  0  0  0  0
  161.3100  208.4000  153.2830 C   0  0  0  0  0  0  0  0  0  0  0  0
  161.4560  207.6000  152.2090 C   0  0  0  0  0  3  0  0  0  0  0  0
  162.3450  209.4970  150.9320 C   0  0  1  0  0  3  0  0  0  0  0  0
  162.3390  210.3280  152.1420 C   0  0  0  0  0  3  0  0  0  0  0  0
  161.7460  207.6700  149.7060 C   0  0  0  0  0  0  0  0  0  0  0  0
  159.7270  214.2880  150.2330 C   0  0  0  0  0  1  0  0  0  0  0  0
  162.3370  211.7020  148.0400 C   0  0  0  0  0  3  0  0  0  0  0  0
  161.7320  211.2360  149.2170 C   0  0  0  0  0  0  0  0  0  0  0  0
  161.2480  213.8470  148.3030 C   0  0  0  0  0  3  0  0  0  0  0  0
  160.6350  213.3920  149.4710 C   0  0  0  0  0  0  0  0  0  0  0  0
  162.0980  213.0020  147.5850 C   0  0  0  0  0  0  0  0  0  0  0  0
  162.7060  213.4530  146.4220 O   0  0  0  0  0  1  0  0  0  0  0  0
  160.8750  212.0900  149.9250 C   0  0  0  0  0  3  0  0  0  0  0  0
  160.9180  204.1440  149.0050 C   0  0  0  0  0  0  0  0  0  0  0  0
  161.7170  205.9260  148.0160 N   0  0  0  0  0  0  0  0  0  0  0  0
  161.3660  204.5820  147.8780 N   0  0  0  0  0  0  0  0  0  0  0  0
  161.4850  206.3060  149.2280 C   0  0  0  0  0  0  0  0  0  0  0  0
  160.9260  205.2010  150.0590 C   0  0  0  0  0  2  0  0  0  0  0  0
  160.8310  201.8080  148.2540 C   0  0  0  0  0  1  0  0  0  0  0  0
  160.4870  202.8300  149.1760 O   0  0  0  0  0  0  0  0  0  0  0  0
  160.5390  207.9360  154.4500 C   0  0  0  0  0  0  0  0  0  0  0  0
  159.9950  208.8710  155.3790 N   0  0  0  0  0  1  0  0  0  0  0  0
  160.3500  206.7050  154.6360 O   0  0  0  0  0  0  0  0  0  0  0  0
  1  6  1  1  0  0  0
  2  9  2  0  0  0  0
  2  3  1  0  0  0  0
  3 12  1  1  0  0  0
  3  7  1  0  0  0  0
  4  5  1  0  0  0  0
  5 25  1  0  0  0  0
  6  5  2  0  0  0  0
  7  1  1  0  0  0  0
  7  8  1  1  0  0  0
  8  4  2  0  0  0  0
  9  1  1  0  0  0  0
 11 12  1  0  0  0  0
 12 17  2  0  0  0  0
 13 14  2  0  0  0  0
 14 17  1  0  0  0  0
 14 10  1  0  0  0  0
 15 11  2  0  0  0  0
 15 13  1  0  0  0  0
 16 15  1  0  0  0  0
 18 24  1  0  0  0  0
 18 22  1  0  0  0  0
 19 21  2  0  0  0  0
 20 19  1  0  0  0  0
 20 18  2  0  0  0  0
 21  9  1  0  0  0  0
 21 22  1  0  0  0  0
 23 24  1  0  0  0  0
 25 27  2  0  0  0  0
 25 26  1  0  0  0  0
M  END
>  <MODEL>
7

>  <REMARK>
 VINA RESULT:      -7.6      2.250      7.379
  Name = 
  4 active torsions:
  status: ('A' for Active; 'I' for Inactive)
    1  A    between atoms: C_4  and  O_13
    2  A    between atoms: C_5  and  C_16
    3  A    between atoms: C_6  and  C_11
    4  A    between atoms: C_21  and  C_26
                            x       y       z     vdW  Elec       q    Type
                         _______ _______ _______ _____ _____    ______ ____

>  <TORSDO>
F 4

$$$$
=
 OpenBabel11042420453D

 27 30  0  0  1  0  0  0  0  0999 V2000
  162.3330  208.0150  151.0470 C   0  0  2  0  0  3  0  0  0  0  0  0
  161.5980  208.7230  148.9600 N   0  0  0  0  0  0  0  0  0  0  0  0
  161.9490  209.8680  149.7310 C   0  0  2  0  0  3  0  0  0  0  0  0
  161.8530  209.7610  153.2860 C   0  0  0  0  0  3  0  0  0  0  0  0
  161.3160  208.3710  153.2880 C   0  0  0  0  0  0  0  0  0  0  0  0
  161.4750  207.5820  152.2080 C   0  0  0  0  0  3  0  0  0  0  0  0
  162.3430  209.5010  150.9490 C   0  0  1  0  0  3  0  0  0  0  0  0
  162.3240  210.3220  152.1660 C   0  0  0  0  0  3  0  0  0  0  0  0
  161.7690  207.6780  149.7050 C   0  0  0  0  0  0  0  0  0  0  0  0
  162.7200  213.3950  146.2920 C   0  0  0  0  0  1  0  0  0  0  0  0
  160.9400  212.1620  149.9830 C   0  0  0  0  0  3  0  0  0  0  0  0
  161.7120  211.2480  149.2480 C   0  0  0  0  0  0  0  0  0  0  0  0
  161.3250  213.8660  148.3080 C   0  0  0  0  0  3  0  0  0  0  0  0
  162.1000  212.9670  147.5730 C   0  0  0  0  0  0  0  0  0  0  0  0
  160.7450  213.4640  149.5140 C   0  0  0  0  0  0  0  0  0  0  0  0
  159.9760  214.3580  150.2480 O   0  0  0  0  0  1  0  0  0  0  0  0
  162.2940  211.6650  148.0440 C   0  0  0  0  0  3  0  0  0  0  0  0
  161.0250  204.1380  148.9810 C   0  0  0  0  0  0  0  0  0  0  0  0
  161.6830  205.9700  147.9810 N   0  0  0  0  0  0  0  0  0  0  0  0
  161.3740  204.6160  147.8360 N   0  0  0  0  0  0  0  0  0  0  0  0
  161.5250  206.3150  149.2150 C   0  0  0  0  0  0  0  0  0  0  0  0
  161.0690  205.1710  150.0580 C   0  0  0  0  0  2  0  0  0  0  0  0
  160.8670  201.8390  148.1330 C   0  0  0  0  0  1  0  0  0  0  0  0
  160.6580  202.8050  149.1510 O   0  0  0  0  0  0  0  0  0  0  0  0
  160.5490  207.8880  154.4490 C   0  0  0  0  0  0  0  0  0  0  0  0
  160.0010  208.8060  155.3910 N   0  0  0  0  0  1  0  0  0  0  0  0
  160.3670  206.6530  154.6190 O   0  0  0  0  0  0  0  0  0  0  0  0
  1  6  1  1  0  0  0
  2  9  2  0  0  0  0
  2  3  1  0  0  0  0
  3 12  1  1  0  0  0
  3  7  1  0  0  0  0
  4  5  1  0  0  0  0
  5 25  1  0  0  0  0
  6  5  2  0  0  0  0
  7  1  1  0  0  0  0
  7  8  1  1  0  0  0
  8  4  2  0  0  0  0
  9  1  1  0  0  0  0
 10 14  1  0  0  0  0
 12 11  2  0  0  0  0
 13 15  2  0  0  0  0
 14 17  2  0  0  0  0
 14 13  1  0  0  0  0
 15 11  1  0  0  0  0
 15 16  1  0  0  0  0
 17 12  1  0  0  0  0
 18 24  1  0  0  0  0
 18 22  1  0  0  0  0
 19 21  2  0  0  0  0
 20 19  1  0  0  0  0
 20 18  2  0  0  0  0
 21  9  1  0  0  0  0
 21 22  1  0  0  0  0
 23 24  1  0  0  0  0
 25 27  2  0  0  0  0
 25 26  1  0  0  0  0
M  END
>  <MODEL>
8

>  <REMARK>
 VINA RESULT:      -7.5      2.164      7.513
  Name = 
  4 active torsions:
  status: ('A' for Active; 'I' for Inactive)
    1  A    between atoms: C_4  and  O_13
    2  A    between atoms: C_5  and  C_16
    3  A    between atoms: C_6  and  C_11
    4  A    between atoms: C_21  and  C_26
                            x       y       z     vdW  Elec       q    Type
                         _______ _______ _______ _____ _____    ______ ____

>  <TORSDO>
F 4

$$$$
=
 OpenBabel11042420453D

 27 30  0  0  1  0  0  0  0  0999 V2000
  162.3360  208.9800  150.3450 C   0  0  2  0  0  3  0  0  0  0  0  0
  161.2980  210.7050  151.5050 N   0  0  0  0  0  0  0  0  0  0  0  0
  161.3360  209.5530  152.3420 C   0  0  2  0  0  3  0  0  0  0  0  0
  161.4910  206.2900  150.9300 C   0  0  0  0  0  3  0  0  0  0  0  0
  161.3960  206.8230  149.5410 C   0  0  0  0  0  0  0  0  0  0  0  0
  161.7170  208.1060  149.2850 C   0  0  0  0  0  3  0  0  0  0  0  0
  161.8940  208.5320  151.6940 C   0  0  1  0  0  3  0  0  0  0  0  0
  161.7040  207.1030  151.9720 C   0  0  0  0  0  3  0  0  0  0  0  0
  161.8180  210.3820  150.3650 C   0  0  0  0  0  0  0  0  0  0  0  0
  160.3690  207.1130  156.5800 C   0  0  0  0  0  1  0  0  0  0  0  0
  159.8560  210.5680  154.1090 C   0  0  0  0  0  3  0  0  0  0  0  0
  160.6680  209.5140  153.6630 C   0  0  0  0  0  0  0  0  0  0  0  0
  159.3920  209.3720  156.1610 C   0  0  0  0  0  3  0  0  0  0  0  0
  160.1910  208.3150  155.7240 C   0  0  0  0  0  0  0  0  0  0  0  0
  159.2230  210.4990  155.3530 C   0  0  0  0  0  0  0  0  0  0  0  0
  158.4260  211.5510  155.7850 O   0  0  0  0  0  1  0  0  0  0  0  0
  160.8240  208.3850  154.4780 C   0  0  0  0  0  3  0  0  0  0  0  0
  161.7770  213.0670  147.8340 C   0  0  0  0  0  0  0  0  0  0  0  0
  162.8530  211.2290  148.3370 N   0  0  0  0  0  0  0  0  0  0  0  0
  162.7360  212.2970  147.4470 N   0  0  0  0  0  0  0  0  0  0  0  0
  161.9640  211.3460  149.2660 C   0  0  0  0  0  0  0  0  0  0  0  0
  161.1260  212.5660  149.0810 C   0  0  0  0  0  2  0  0  0  0  0  0
  161.8250  214.4380  145.7980 C   0  0  0  0  0  1  0  0  0  0  0  0
  161.4220  214.2220  147.1410 O   0  0  0  0  0  0  0  0  0  0  0  0
  160.8790  205.9620  148.4640 C   0  0  0  0  0  0  0  0  0  0  0  0
  160.8380  204.5460  148.6230 N   0  0  0  0  0  1  0  0  0  0  0  0
  160.4660  206.4710  147.3890 O   0  0  0  0  0  0  0  0  0  0  0  0
  1  6  1  6  0  0  0
  1  9  1  0  0  0  0
  1  7  1  0  0  0  0
  2  3  1  0  0  0  0
  3 12  1  6  0  0  0
  4  8  2  0  0  0  0
  5  4  1  0  0  0  0
  6  5  2  0  0  0  0
  7  8  1  6  0  0  0
  7  3  1  0  0  0  0
  9  2  2  0  0  0  0
 11 15  1  0  0  0  0
 12 11  2  0  0  0  0
 12 17  1  0  0  0  0
 14 13  1  0  0  0  0
 14 10  1  0  0  0  0
 15 16  1  0  0  0  0
 15 13  2  0  0  0  0
 17 14  2  0  0  0  0
 18 22  1  0  0  0  0
 19 21  2  0  0  0  0
 20 18  2  0  0  0  0
 20 19  1  0  0  0  0
 21  9  1  0  0  0  0
 22 21  1  0  0  0  0
 23 24  1  0  0  0  0
 24 18  1  0  0  0  0
 25 26  1  0  0  0  0
 25  5  1  0  0  0  0
 27 25  2  0  0  0  0
M  END
>  <MODEL>
9

>  <REMARK>
 VINA RESULT:      -7.4      2.473      7.295
  Name = 
  4 active torsions:
  status: ('A' for Active; 'I' for Inactive)
    1  A    between atoms: C_4  and  O_13
    2  A    between atoms: C_5  and  C_16
    3  A    between atoms: C_6  and  C_11
    4  A    between atoms: C_21  and  C_26
                            x       y       z     vdW  Elec       q    Type
                         _______ _______ _______ _____ _____    ______ ____

>  <TORSDO>
F 4

$$$$
