=
 OpenBabel11052409583D

 39 43  0  0  1  0  0  0  0  0999 V2000
  160.7530  209.8870  153.3690 C   0  0  1  0  0  3  0  0  0  0  0  0
  160.6760  207.4370  153.2130 N   0  0  0  0  0  2  0  0  0  0  0  0
  161.9200  210.0480  152.4040 C   0  0  0  0  0  2  0  0  0  0  0  0
  160.8490  208.5620  154.1220 C   0  0  0  0  0  2  0  0  0  0  0  0
  161.9900  207.1260  152.6680 C   0  0  0  0  0  2  0  0  0  0  0  0
  162.1930  207.7640  151.2880 C   0  0  2  0  0  3  0  0  0  0  0  0
  161.6790  209.2060  151.1540 C   0  0  2  0  0  3  0  0  0  0  0  0
  160.7790  205.0380  149.2400 N   0  0  0  0  0  0  0  0  0  0  0  0
  161.3170  205.6100  150.4210 C   0  0  0  0  0  3  0  0  0  0  0  0
  161.3560  207.3170  148.7840 C   0  0  1  0  0  3  0  0  0  0  0  0
  160.8160  206.0410  148.2430 C   0  0  0  0  0  0  0  0  0  0  0  0
  160.4350  205.8600  147.0570 O   0  0  0  0  0  0  0  0  0  0  0  0
  161.6310  206.8870  150.2080 C   0  0  0  0  0  0  0  0  0  0  0  0
  162.6530  207.6610  148.0700 C   0  0  0  0  0  1  0  0  0  0  0  0
  160.6100  203.7120  149.0200 O   0  0  0  0  0  0  0  0  0  0  0  0
  160.6740  203.1210  150.2840 C   0  0  0  0  0  1  0  0  0  0  0  0
  160.7650  211.0460  154.3530 C   0  0  0  0  0  2  0  0  0  0  0  0
  158.2210  213.1220  155.0290 C   0  0  0  0  0  0  0  0  0  0  0  0
  157.6280  213.8490  155.8690 O   0  0  0  0  0  0  0  0  0  0  0  0
  159.9910  212.2350  153.8030 C   0  0  1  0  0  3  0  0  0  0  0  0
  158.6740  211.7720  153.1590 C   0  0  0  0  0  2  0  0  0  0  0  0
  157.5280  212.2390  154.0590 C   0  0  1  0  0  3  0  0  0  0  0  0
  159.6250  213.1170  154.8960 N   0  0  0  0  0  2  0  0  0  0  0  0
  156.8630  211.0150  154.7070 C   0  0  1  0  0  3  0  0  0  0  0  0
  157.5530  210.5550  155.8340 O   0  0  0  0  0  1  0  0  0  0  0  0
  154.9030  210.4430  156.2120 C   0  0  0  0  0  1  0  0  0  0  0  0
  155.3760  211.2160  154.9930 C   0  0  0  0  0  2  0  0  0  0  0  0
  162.3040  209.8430  150.0050 N   0  0  0  0  0  2  0  0  0  0  0  0
  160.8290  213.0950  149.4520 C   0  0  0  0  0  3  0  0  0  0  0  0
  160.9590  212.0100  150.2010 C   0  0  0  0  0  3  0  0  0  0  0  0
  161.9010  211.1290  149.5310 C   0  0  0  0  0  0  0  0  0  0  0  0
  161.6910  212.9900  148.2290 C   0  0  1  0  0  3  0  0  0  0  0  0
  162.3340  211.6520  148.4010 C   0  0  0  0  0  3  0  0  0  0  0  0
  160.8650  213.0270  146.9810 C   0  0  0  0  0  0  0  0  0  0  0  0
  159.5190  212.5520  147.0250 N   0  0  0  0  0  2  0  0  0  0  0  0
  161.3460  213.4830  145.9070 O   0  0  0  0  0  0  0  0  0  0  0  0
  157.2230  212.3860  146.2830 C   0  0  0  0  0  2  0  0  0  0  0  0
  158.6640  212.5580  145.8500 C   0  0  0  0  0  3  0  0  0  0  0  0
  157.7420  213.7590  145.9140 C   0  0  0  0  0  2  0  0  0  0  0  0
  1  4  1  0  0  0  0
  1 17  1  1  0  0  0
  2  4  1  0  0  0  0
  3  1  1  0  0  0  0
  5  2  1  0  0  0  0
  6 13  1  6  0  0  0
  6  5  1  0  0  0  0
  7 28  1  6  0  0  0
  7  6  1  0  0  0  0
  7  3  1  0  0  0  0
  8  9  1  0  0  0  0
 10 14  1  6  0  0  0
 10 13  1  0  0  0  0
 11 10  1  0  0  0  0
 11  8  1  0  0  0  0
 12 11  2  0  0  0  0
 13  9  2  0  0  0  0
 15  8  1  0  0  0  0
 15 16  1  0  0  0  0
 18 19  2  0  0  0  0
 20 17  1  1  0  0  0
 20 23  1  0  0  0  0
 21 20  1  0  0  0  0
 21 22  1  0  0  0  0
 22 24  1  1  0  0  0
 22 18  1  0  0  0  0
 23 18  1  0  0  0  0
 24 27  1  0  0  0  0
 24 25  1  1  0  0  0
 27 26  1  0  0  0  0
 29 30  2  0  0  0  0
 31 28  1  0  0  0  0
 31 30  1  0  0  0  0
 32 34  1  6  0  0  0
 32 33  1  0  0  0  0
 32 29  1  0  0  0  0
 33 31  2  0  0  0  0
 34 35  1  0  0  0  0
 36 34  2  0  0  0  0
 38 39  1  0  0  0  0
 38 37  1  0  0  0  0
 38 35  1  0  0  0  0
 39 37  1  0  0  0  0
M  END
>  <MODEL>
1

>  <REMARK>
 VINA RESULT:      -7.0      0.000      0.000
  Name = 
  10 active torsions:
  status: ('A' for Active; 'I' for Inactive)
    1  A    between atoms: N_1  and  O_6
    2  A    between atoms: C_2  and  C_24
    3  A    between atoms: C_5  and  C_23
    4  A    between atoms: C_7  and  N_33
    5  A    between atoms: C_12  and  C_27
    6  A    between atoms: C_12  and  C_37
    7  A    between atoms: C_13  and  C_24
    8  A    between atoms: C_19  and  N_32
    9  A    between atoms: C_28  and  C_36
   10  A    between atoms: C_30  and  N_32
                            x       y       z     vdW  Elec       q    Type
                         _______ _______ _______ _____ _____    ______ ____

>  <TORSDO>
F 10

$$$$
=
 OpenBabel11052409583D

 39 43  0  0  1  0  0  0  0  0999 V2000
  161.3140  210.7050  148.7540 C   0  0  1  0  0  3  0  0  0  0  0  0
  161.1490  210.7000  151.2050 N   0  0  0  0  0  2  0  0  0  0  0  0
  162.4090  209.6490  148.6900 C   0  0  0  0  0  2  0  0  0  0  0  0
  161.4250  211.5260  150.0370 C   0  0  0  0  0  2  0  0  0  0  0  0
  162.4090  210.0790  151.5920 C   0  0  0  0  0  2  0  0  0  0  0  0
  162.5270  208.6530  151.0410 C   0  0  2  0  0  3  0  0  0  0  0  0
  162.0490  208.4720  149.5910 C   0  0  2  0  0  3  0  0  0  0  0  0
  160.6680  206.9210  153.7190 N   0  0  0  0  0  0  0  0  0  0  0  0
  161.2330  208.0490  153.0710 C   0  0  0  0  0  3  0  0  0  0  0  0
  161.8050  206.1730  151.7490 C   0  0  1  0  0  3  0  0  0  0  0  0
  161.0200  205.7860  152.9520 C   0  0  0  0  0  0  0  0  0  0  0  0
  160.7010  204.6080  153.2610 O   0  0  0  0  0  0  0  0  0  0  0  0
  161.8580  207.6700  151.9570 C   0  0  0  0  0  0  0  0  0  0  0  0
  163.1980  205.5710  151.8380 C   0  0  0  0  0  1  0  0  0  0  0  0
  160.2060  206.9010  154.9930 O   0  0  0  0  0  0  0  0  0  0  0  0
  160.5070  208.1630  155.5100 C   0  0  0  0  0  1  0  0  0  0  0  0
  161.4360  211.6150  147.5430 C   0  0  0  0  0  2  0  0  0  0  0  0
  159.3070  213.5150  145.7830 C   0  0  0  0  0  0  0  0  0  0  0  0
  158.3680  213.5750  144.9470 O   0  0  0  0  0  0  0  0  0  0  0  0
  160.4920  212.8030  147.6570 C   0  0  1  0  0  3  0  0  0  0  0  0
  161.1600  214.0780  147.1150 C   0  0  0  0  0  2  0  0  0  0  0  0
  160.4620  214.4470  145.8050 C   0  0  1  0  0  3  0  0  0  0  0  0
  159.3230  212.5700  146.8300 N   0  0  0  0  0  2  0  0  0  0  0  0
  161.4380  214.2430  144.6360 C   0  0  1  0  0  3  0  0  0  0  0  0
  162.7730  214.4530  145.0010 O   0  0  0  0  0  1  0  0  0  0  0  0
  162.4230  212.5560  143.0180 C   0  0  0  0  0  1  0  0  0  0  0  0
  161.2490  212.9110  143.9140 C   0  0  0  0  0  2  0  0  0  0  0  0
  162.6060  207.2440  149.0430 N   0  0  0  0  0  2  0  0  0  0  0  0
  160.6740  206.1880  146.1780 C   0  0  0  0  0  3  0  0  0  0  0  0
  160.8410  207.0060  147.2060 C   0  0  0  0  0  3  0  0  0  0  0  0
  162.0720  206.6200  147.8730 C   0  0  0  0  0  0  0  0  0  0  0  0
  161.8030  205.2030  146.1060 C   0  0  1  0  0  3  0  0  0  0  0  0
  162.6450  205.5920  147.2780 C   0  0  0  0  0  3  0  0  0  0  0  0
  161.3040  203.7990  146.2520 C   0  0  0  0  0  0  0  0  0  0  0  0
  161.0620  203.2800  147.5590 N   0  0  0  0  0  2  0  0  0  0  0  0
  161.0890  203.0870  145.2320 O   0  0  0  0  0  0  0  0  0  0  0  0
  161.5750  201.1710  148.6270 C   0  0  0  0  0  2  0  0  0  0  0  0
  160.5790  201.9250  147.7710 C   0  0  0  0  0  3  0  0  0  0  0  0
  160.3090  201.7200  149.2470 C   0  0  0  0  0  2  0  0  0  0  0  0
  1 17  1  6  0  0  0
  1  4  1  0  0  0  0
  2  5  1  0  0  0  0
  3  1  1  0  0  0  0
  3  7  1  0  0  0  0
  4  2  1  0  0  0  0
  6  5  1  0  0  0  0
  6 13  1  1  0  0  0
  7 28  1  6  0  0  0
  7  6  1  0  0  0  0
  8 15  1  0  0  0  0
  9  8  1  0  0  0  0
 10 14  1  1  0  0  0
 10 13  1  0  0  0  0
 10 11  1  0  0  0  0
 11 12  2  0  0  0  0
 11  8  1  0  0  0  0
 13  9  2  0  0  0  0
 15 16  1  0  0  0  0
 18 22  1  0  0  0  0
 18 23  1  0  0  0  0
 19 18  2  0  0  0  0
 20 17  1  6  0  0  0
 21 20  1  0  0  0  0
 22 24  1  6  0  0  0
 22 21  1  0  0  0  0
 23 20  1  0  0  0  0
 24 25  1  1  0  0  0
 26 27  1  0  0  0  0
 27 24  1  0  0  0  0
 29 30  2  0  0  0  0
 30 31  1  0  0  0  0
 31 28  1  0  0  0  0
 32 29  1  0  0  0  0
 32 34  1  1  0  0  0
 32 33  1  0  0  0  0
 33 31  2  0  0  0  0
 34 35  1  0  0  0  0
 35 38  1  0  0  0  0
 36 34  2  0  0  0  0
 37 39  1  0  0  0  0
 38 37  1  0  0  0  0
 38 39  1  0  0  0  0
M  END
>  <MODEL>
2

>  <REMARK>
 VINA RESULT:      -6.8      3.098      7.910
  Name = 
  10 active torsions:
  status: ('A' for Active; 'I' for Inactive)
    1  A    between atoms: N_1  and  O_6
    2  A    between atoms: C_2  and  C_24
    3  A    between atoms: C_5  and  C_23
    4  A    between atoms: C_7  and  N_33
    5  A    between atoms: C_12  and  C_27
    6  A    between atoms: C_12  and  C_37
    7  A    between atoms: C_13  and  C_24
    8  A    between atoms: C_19  and  N_32
    9  A    between atoms: C_28  and  C_36
   10  A    between atoms: C_30  and  N_32
                            x       y       z     vdW  Elec       q    Type
                         _______ _______ _______ _____ _____    ______ ____

>  <TORSDO>
F 10

$$$$
=
 OpenBabel11052409583D

 39 43  0  0  1  0  0  0  0  0999 V2000
  160.9280  209.6110  152.5410 C   0  0  1  0  0  3  0  0  0  0  0  0
  161.0130  207.1670  152.3080 N   0  0  0  0  0  2  0  0  0  0  0  0
  162.0220  209.8830  151.5170 C   0  0  0  0  0  2  0  0  0  0  0  0
  161.1600  208.2750  153.2430 C   0  0  0  0  0  2  0  0  0  0  0  0
  162.3110  206.9670  151.6790 C   0  0  0  0  0  2  0  0  0  0  0  0
  162.3870  207.6580  150.3120 C   0  0  2  0  0  3  0  0  0  0  0  0
  161.7670  209.0630  150.2550 C   0  0  2  0  0  3  0  0  0  0  0  0
  160.8970  206.2100  147.2620 N   0  0  0  0  0  0  0  0  0  0  0  0
  161.3230  207.2670  148.1050 C   0  0  0  0  0  3  0  0  0  0  0  0
  161.7530  205.2660  149.2890 C   0  0  1  0  0  3  0  0  0  0  0  0
  161.1270  205.0050  147.9650 C   0  0  0  0  0  0  0  0  0  0  0  0
  160.8340  203.8660  147.5140 O   0  0  0  0  0  0  0  0  0  0  0  0
  161.8250  206.7760  149.2370 C   0  0  0  0  0  0  0  0  0  0  0  0
  160.8110  204.8140  150.3930 C   0  0  0  0  0  1  0  0  0  0  0  0
  160.1020  206.3490  146.1720 O   0  0  0  0  0  0  0  0  0  0  0  0
  160.8980  205.9670  145.0900 C   0  0  0  0  0  1  0  0  0  0  0  0
  160.9170  210.7380  153.5610 C   0  0  0  0  0  2  0  0  0  0  0  0
  158.6300  213.0150  154.4680 C   0  0  0  0  0  0  0  0  0  0  0  0
  158.2250  213.8390  155.3290 O   0  0  0  0  0  0  0  0  0  0  0  0
  160.1220  211.9300  153.0480 C   0  0  1  0  0  3  0  0  0  0  0  0
  158.6940  211.5040  152.6700 C   0  0  0  0  0  2  0  0  0  0  0  0
  157.7400  212.1080  153.7020 C   0  0  1  0  0  3  0  0  0  0  0  0
  159.9900  212.9120  154.1070 N   0  0  0  0  0  2  0  0  0  0  0  0
  157.1340  210.9810  154.5510 C   0  0  1  0  0  3  0  0  0  0  0  0
  157.9300  210.6390  155.6510 O   0  0  0  0  0  1  0  0  0  0  0  0
  154.9700  209.9850  155.4230 C   0  0  0  0  0  1  0  0  0  0  0  0
  155.6850  211.2420  154.9580 C   0  0  0  0  0  2  0  0  0  0  0  0
  162.2780  209.7770  149.0940 N   0  0  0  0  0  2  0  0  0  0  0  0
  161.0990  213.1920  149.0880 C   0  0  0  0  0  3  0  0  0  0  0  0
  161.0010  211.9490  149.5350 C   0  0  0  0  0  3  0  0  0  0  0  0
  162.0490  211.1730  148.8950 C   0  0  0  0  0  0  0  0  0  0  0  0
  162.2350  213.3080  148.1160 C   0  0  1  0  0  3  0  0  0  0  0  0
  162.7680  211.9130  148.0740 C   0  0  0  0  0  3  0  0  0  0  0  0
  161.7480  213.7320  146.7650 C   0  0  0  0  0  0  0  0  0  0  0  0
  162.5990  213.5570  145.6330 N   0  0  0  0  0  2  0  0  0  0  0  0
  160.5950  214.2280  146.6260 O   0  0  0  0  0  0  0  0  0  0  0  0
  163.1930  213.4190  143.2920 C   0  0  0  0  0  2  0  0  0  0  0  0
  162.1890  213.9490  144.2950 C   0  0  0  0  0  3  0  0  0  0  0  0
  161.8740  212.7050  143.4890 C   0  0  0  0  0  2  0  0  0  0  0  0
  1  4  1  0  0  0  0
  1 17  1  1  0  0  0
  2  4  1  0  0  0  0
  3  1  1  0  0  0  0
  5  2  1  0  0  0  0
  6 13  1  6  0  0  0
  6  5  1  0  0  0  0
  7 28  1  6  0  0  0
  7  6  1  0  0  0  0
  7  3  1  0  0  0  0
  8 11  1  0  0  0  0
  8  9  1  0  0  0  0
  9 13  2  0  0  0  0
 10 14  1  1  0  0  0
 11 10  1  0  0  0  0
 12 11  2  0  0  0  0
 13 10  1  0  0  0  0
 15  8  1  0  0  0  0
 16 15  1  0  0  0  0
 18 19  2  0  0  0  0
 20 17  1  1  0  0  0
 20 23  1  0  0  0  0
 21 20  1  0  0  0  0
 21 22  1  0  0  0  0
 22 18  1  0  0  0  0
 22 24  1  1  0  0  0
 23 18  1  0  0  0  0
 24 27  1  0  0  0  0
 24 25  1  1  0  0  0
 27 26  1  0  0  0  0
 29 30  2  0  0  0  0
 31 28  1  0  0  0  0
 31 30  1  0  0  0  0
 32 34  1  6  0  0  0
 32 29  1  0  0  0  0
 33 32  1  0  0  0  0
 33 31  2  0  0  0  0
 35 34  1  0  0  0  0
 36 34  2  0  0  0  0
 37 39  1  0  0  0  0
 37 38  1  0  0  0  0
 38 35  1  0  0  0  0
 39 38  1  0  0  0  0
M  END
>  <MODEL>
3

>  <REMARK>
 VINA RESULT:      -6.8      1.582      2.310
  Name = 
  10 active torsions:
  status: ('A' for Active; 'I' for Inactive)
    1  A    between atoms: N_1  and  O_6
    2  A    between atoms: C_2  and  C_24
    3  A    between atoms: C_5  and  C_23
    4  A    between atoms: C_7  and  N_33
    5  A    between atoms: C_12  and  C_27
    6  A    between atoms: C_12  and  C_37
    7  A    between atoms: C_13  and  C_24
    8  A    between atoms: C_19  and  N_32
    9  A    between atoms: C_28  and  C_36
   10  A    between atoms: C_30  and  N_32
                            x       y       z     vdW  Elec       q    Type
                         _______ _______ _______ _____ _____    ______ ____

>  <TORSDO>
F 10

$$$$
=
 OpenBabel11052409583D

 39 43  0  0  1  0  0  0  0  0999 V2000
  160.7680  209.8980  153.6060 C   0  0  1  0  0  3  0  0  0  0  0  0
  160.6490  207.4560  153.3680 N   0  0  0  0  0  2  0  0  0  0  0  0
  161.9360  210.0710  152.6440 C   0  0  0  0  0  2  0  0  0  0  0  0
  160.8430  208.5470  154.3140 C   0  0  0  0  0  2  0  0  0  0  0  0
  161.9570  207.1420  152.8100 C   0  0  0  0  0  2  0  0  0  0  0  0
  162.1680  207.8220  151.4510 C   0  0  2  0  0  3  0  0  0  0  0  0
  161.6780  209.2770  151.3670 C   0  0  2  0  0  3  0  0  0  0  0  0
  160.6980  205.1940  149.3180 N   0  0  0  0  0  0  0  0  0  0  0  0
  161.2450  205.7170  150.5160 C   0  0  0  0  0  3  0  0  0  0  0  0
  161.3290  207.4710  148.9330 C   0  0  1  0  0  3  0  0  0  0  0  0
  160.7610  206.2250  148.3520 C   0  0  0  0  0  0  0  0  0  0  0  0
  160.3800  206.0890  147.1600 O   0  0  0  0  0  0  0  0  0  0  0  0
  161.5900  206.9920  150.3440 C   0  0  0  0  0  0  0  0  0  0  0  0
  162.6350  207.8070  148.2320 C   0  0  0  0  0  1  0  0  0  0  0  0
  160.5000  203.8790  149.0570 O   0  0  0  0  0  0  0  0  0  0  0  0
  160.9000  203.2120  150.2170 C   0  0  0  0  0  1  0  0  0  0  0  0
  160.8020  211.0230  154.6280 C   0  0  0  0  0  2  0  0  0  0  0  0
  157.6030  211.2830  155.5980 C   0  0  0  0  0  0  0  0  0  0  0  0
  156.3850  211.1400  155.3150 O   0  0  0  0  0  0  0  0  0  0  0  0
  159.8580  210.7340  155.7870 C   0  0  1  0  0  3  0  0  0  0  0  0
  159.5990  212.0110  156.6030 C   0  0  0  0  0  2  0  0  0  0  0  0
  158.1530  212.4390  156.3490 C   0  0  1  0  0  3  0  0  0  0  0  0
  158.5710  210.3120  155.2660 N   0  0  0  0  0  2  0  0  0  0  0  0
  158.1450  213.7510  155.5510 C   0  0  1  0  0  3  0  0  0  0  0  0
  159.3510  214.4530  155.6490 O   0  0  0  0  0  1  0  0  0  0  0  0
  158.8560  213.7170  153.1170 C   0  0  0  0  0  1  0  0  0  0  0  0
  157.7060  213.5730  154.0990 C   0  0  0  0  0  2  0  0  0  0  0  0
  162.3130  209.9410  150.2380 N   0  0  0  0  0  2  0  0  0  0  0  0
  160.5960  213.0370  149.5160 C   0  0  0  0  0  3  0  0  0  0  0  0
  160.7750  211.9840  150.2990 C   0  0  0  0  0  3  0  0  0  0  0  0
  161.8280  211.1770  149.7090 C   0  0  0  0  0  0  0  0  0  0  0  0
  161.5370  212.9840  148.3490 C   0  0  1  0  0  3  0  0  0  0  0  0
  162.2820  211.7130  148.5930 C   0  0  0  0  0  3  0  0  0  0  0  0
  160.7880  212.9230  147.0550 C   0  0  0  0  0  0  0  0  0  0  0  0
  159.3780  212.6990  147.0780 N   0  0  0  0  0  2  0  0  0  0  0  0
  161.3910  213.0780  145.9570 O   0  0  0  0  0  0  0  0  0  0  0  0
  157.1300  212.4570  146.2180 C   0  0  0  0  0  2  0  0  0  0  0  0
  158.5910  212.6260  145.8580 C   0  0  0  0  0  3  0  0  0  0  0  0
  157.6520  213.8140  145.8010 C   0  0  0  0  0  2  0  0  0  0  0  0
  1  4  1  0  0  0  0
  1 17  1  1  0  0  0
  2  4  1  0  0  0  0
  3  1  1  0  0  0  0
  5  2  1  0  0  0  0
  6 13  1  6  0  0  0
  6  5  1  0  0  0  0
  7 28  1  6  0  0  0
  7  6  1  0  0  0  0
  7  3  1  0  0  0  0
  8  9  1  0  0  0  0
 10 14  1  6  0  0  0
 10 13  1  0  0  0  0
 11 10  1  0  0  0  0
 11  8  1  0  0  0  0
 12 11  2  0  0  0  0
 13  9  2  0  0  0  0
 15  8  1  0  0  0  0
 15 16  1  0  0  0  0
 18 22  1  0  0  0  0
 19 18  2  0  0  0  0
 20 17  1  6  0  0  0
 20 21  1  0  0  0  0
 22 24  1  6  0  0  0
 22 21  1  0  0  0  0
 23 18  1  0  0  0  0
 23 20  1  0  0  0  0
 24 25  1  6  0  0  0
 26 27  1  0  0  0  0
 27 24  1  0  0  0  0
 29 30  2  0  0  0  0
 31 28  1  0  0  0  0
 31 30  1  0  0  0  0
 32 34  1  6  0  0  0
 32 33  1  0  0  0  0
 32 29  1  0  0  0  0
 33 31  2  0  0  0  0
 34 35  1  0  0  0  0
 36 34  2  0  0  0  0
 38 37  1  0  0  0  0
 38 35  1  0  0  0  0
 39 38  1  0  0  0  0
 39 37  1  0  0  0  0
M  END
>  <MODEL>
4

>  <REMARK>
 VINA RESULT:      -6.8      1.013      1.786
  Name = 
  10 active torsions:
  status: ('A' for Active; 'I' for Inactive)
    1  A    between atoms: N_1  and  O_6
    2  A    between atoms: C_2  and  C_24
    3  A    between atoms: C_5  and  C_23
    4  A    between atoms: C_7  and  N_33
    5  A    between atoms: C_12  and  C_27
    6  A    between atoms: C_12  and  C_37
    7  A    between atoms: C_13  and  C_24
    8  A    between atoms: C_19  and  N_32
    9  A    between atoms: C_28  and  C_36
   10  A    between atoms: C_30  and  N_32
                            x       y       z     vdW  Elec       q    Type
                         _______ _______ _______ _____ _____    ______ ____

>  <TORSDO>
F 10

$$$$
=
 OpenBabel11052409583D

 39 43  0  0  1  0  0  0  0  0999 V2000
  162.1750  208.8860  149.6840 C   0  0  1  0  0  3  0  0  0  0  0  0
  161.7910  206.9750  148.1890 N   0  0  0  0  0  2  0  0  0  0  0  0
  161.1150  208.4790  150.6990 C   0  0  0  0  0  2  0  0  0  0  0  0
  161.7870  208.4290  148.2790 C   0  0  0  0  0  2  0  0  0  0  0  0
  160.4730  206.5200  148.6110 C   0  0  0  0  0  2  0  0  0  0  0  0
  160.4720  206.0830  150.0810 C   0  0  2  0  0  3  0  0  0  0  0  0
  161.2600  206.9980  151.0340 C   0  0  2  0  0  3  0  0  0  0  0  0
  161.3490  202.5300  149.6010 N   0  0  0  0  0  0  0  0  0  0  0  0
  160.8310  203.7890  149.2060 C   0  0  0  0  0  3  0  0  0  0  0  0
  161.4940  204.0290  151.4630 C   0  0  1  0  0  3  0  0  0  0  0  0
  161.7300  202.6510  150.9580 C   0  0  0  0  0  0  0  0  0  0  0  0
  162.2080  201.7030  151.6360 O   0  0  0  0  0  0  0  0  0  0  0  0
  160.9150  204.6560  150.2140 C   0  0  0  0  0  0  0  0  0  0  0  0
  160.4570  203.9920  152.5730 C   0  0  0  0  0  1  0  0  0  0  0  0
  161.1720  201.3660  148.9310 O   0  0  0  0  0  0  0  0  0  0  0  0
  160.8340  201.7420  147.6290 C   0  0  0  0  0  1  0  0  0  0  0  0
  162.3310  210.3980  149.7140 C   0  0  0  0  0  2  0  0  0  0  0  0
  162.3740  213.2840  148.0080 C   0  0  0  0  0  0  0  0  0  0  0  0
  162.8680  214.4330  147.8630 O   0  0  0  0  0  0  0  0  0  0  0  0
  162.3220  210.9750  148.3050 C   0  0  1  0  0  3  0  0  0  0  0  0
  160.9090  211.4480  147.9250 C   0  0  0  0  0  2  0  0  0  0  0  0
  160.9290  212.9770  147.8780 C   0  0  1  0  0  3  0  0  0  0  0  0
  163.1730  212.1490  148.2610 N   0  0  0  0  0  2  0  0  0  0  0  0
  160.0770  213.5290  149.0310 C   0  0  1  0  0  3  0  0  0  0  0  0
  160.8390  214.1960  149.9980 O   0  0  0  0  0  1  0  0  0  0  0  0
  157.7020  213.5280  148.1410 C   0  0  0  0  0  1  0  0  0  0  0  0
  158.8940  214.3720  148.5590 C   0  0  0  0  0  2  0  0  0  0  0  0
  160.8320  206.7600  152.4040 N   0  0  0  0  0  2  0  0  0  0  0  0
  161.0280  208.6620  155.4700 C   0  0  0  0  0  3  0  0  0  0  0  0
  160.9030  207.4970  154.8530 C   0  0  0  0  0  3  0  0  0  0  0  0
  160.9490  207.7540  153.4240 C   0  0  0  0  0  0  0  0  0  0  0  0
  161.1680  209.7700  154.4690 C   0  0  1  0  0  3  0  0  0  0  0  0
  161.0940  209.0390  153.1670 C   0  0  0  0  0  3  0  0  0  0  0  0
  160.0470  210.7540  154.5920 C   0  0  0  0  0  0  0  0  0  0  0  0
  159.5370  211.3760  153.4130 N   0  0  0  0  0  2  0  0  0  0  0  0
  159.5520  211.0230  155.7210 O   0  0  0  0  0  0  0  0  0  0  0  0
  158.9580  213.6850  152.9800 C   0  0  0  0  0  2  0  0  0  0  0  0
  158.4510  212.3420  153.4630 C   0  0  0  0  0  3  0  0  0  0  0  0
  158.1390  212.8100  152.0570 C   0  0  0  0  0  2  0  0  0  0  0  0
  1 17  1  6  0  0  0
  1  3  1  0  0  0  0
  2  4  1  0  0  0  0
  2  5  1  0  0  0  0
  3  7  1  0  0  0  0
  4  1  1  0  0  0  0
  5  6  1  0  0  0  0
  6 13  1  6  0  0  0
  6  7  1  0  0  0  0
  7 28  1  1  0  0  0
  8 11  1  0  0  0  0
  9  8  1  0  0  0  0
  9 13  2  0  0  0  0
 10 14  1  1  0  0  0
 11 10  1  0  0  0  0
 11 12  2  0  0  0  0
 13 10  1  0  0  0  0
 15  8  1  0  0  0  0
 16 15  1  0  0  0  0
 18 23  1  0  0  0  0
 19 18  2  0  0  0  0
 20 17  1  1  0  0  0
 21 20  1  0  0  0  0
 22 21  1  0  0  0  0
 22 18  1  0  0  0  0
 22 24  1  1  0  0  0
 23 20  1  0  0  0  0
 24 25  1  1  0  0  0
 26 27  1  0  0  0  0
 27 24  1  0  0  0  0
 28 31  1  0  0  0  0
 30 29  2  0  0  0  0
 31 30  1  0  0  0  0
 32 34  1  6  0  0  0
 32 29  1  0  0  0  0
 33 31  2  0  0  0  0
 33 32  1  0  0  0  0
 34 36  2  0  0  0  0
 35 38  1  0  0  0  0
 35 34  1  0  0  0  0
 37 38  1  0  0  0  0
 39 37  1  0  0  0  0
 39 38  1  0  0  0  0
M  END
>  <MODEL>
5

>  <REMARK>
 VINA RESULT:      -6.4      2.154      6.120
  Name = 
  10 active torsions:
  status: ('A' for Active; 'I' for Inactive)
    1  A    between atoms: N_1  and  O_6
    2  A    between atoms: C_2  and  C_24
    3  A    between atoms: C_5  and  C_23
    4  A    between atoms: C_7  and  N_33
    5  A    between atoms: C_12  and  C_27
    6  A    between atoms: C_12  and  C_37
    7  A    between atoms: C_13  and  C_24
    8  A    between atoms: C_19  and  N_32
    9  A    between atoms: C_28  and  C_36
   10  A    between atoms: C_30  and  N_32
                            x       y       z     vdW  Elec       q    Type
                         _______ _______ _______ _____ _____    ______ ____

>  <TORSDO>
F 10

$$$$
=
 OpenBabel11052409583D

 39 43  0  0  1  0  0  0  0  0999 V2000
  161.2640  208.6270  149.5770 C   0  0  1  0  0  3  0  0  0  0  0  0
  161.5200  210.7280  150.8240 N   0  0  0  0  0  2  0  0  0  0  0  0
  161.7190  207.7330  150.7230 C   0  0  0  0  0  2  0  0  0  0  0  0
  161.9500  209.9890  149.6440 C   0  0  0  0  0  2  0  0  0  0  0  0
  162.3940  210.3270  151.9180 C   0  0  0  0  0  2  0  0  0  0  0  0
  161.7460  209.2420  152.7870 C   0  0  2  0  0  3  0  0  0  0  0  0
  161.0080  208.1390  152.0110 C   0  0  2  0  0  3  0  0  0  0  0  0
  159.1060  210.9750  154.6970 N   0  0  0  0  0  0  0  0  0  0  0  0
  159.7650  210.5450  153.5170 C   0  0  0  0  0  3  0  0  0  0  0  0
  161.0780  209.7720  155.3260 C   0  0  1  0  0  3  0  0  0  0  0  0
  159.8920  210.5390  155.7890 C   0  0  0  0  0  0  0  0  0  0  0  0
  159.6070  210.7770  156.9920 O   0  0  0  0  0  0  0  0  0  0  0  0
  160.8590  209.8530  153.8310 C   0  0  0  0  0  0  0  0  0  0  0  0
  162.3460  210.5120  155.7210 C   0  0  0  0  0  1  0  0  0  0  0  0
  158.1310  211.9150  154.7500 O   0  0  0  0  0  0  0  0  0  0  0  0
  158.7790  213.1260  154.4970 C   0  0  0  0  0  1  0  0  0  0  0  0
  161.5920  207.9440  148.2590 C   0  0  0  0  0  2  0  0  0  0  0  0
  162.6970  205.2020  146.6780 C   0  0  0  0  0  0  0  0  0  0  0  0
  163.4970  204.6950  145.8490 O   0  0  0  0  0  0  0  0  0  0  0  0
  161.9780  206.4890  148.4810 C   0  0  1  0  0  3  0  0  0  0  0  0
  160.8300  205.5560  148.0620 C   0  0  0  0  0  2  0  0  0  0  0  0
  161.2660  204.8260  146.7900 C   0  0  1  0  0  3  0  0  0  0  0  0
  163.1070  206.1560  147.6330 N   0  0  0  0  0  2  0  0  0  0  0  0
  160.4090  205.3110  145.6100 C   0  0  1  0  0  3  0  0  0  0  0  0
  160.7370  206.6070  145.1970 O   0  0  0  0  0  1  0  0  0  0  0  0
  160.4410  202.8800  144.8860 C   0  0  0  0  0  1  0  0  0  0  0  0
  160.3820  204.3300  144.4390 C   0  0  0  0  0  2  0  0  0  0  0  0
  160.8360  206.9730  152.8650 N   0  0  0  0  0  2  0  0  0  0  0  0
  162.5830  204.0350  151.6940 C   0  0  0  0  0  3  0  0  0  0  0  0
  162.5810  205.3300  151.9720 C   0  0  0  0  0  3  0  0  0  0  0  0
  161.2580  205.6670  152.4670 C   0  0  0  0  0  0  0  0  0  0  0  0
  161.2420  203.4350  151.9970 C   0  0  1  0  0  3  0  0  0  0  0  0
  160.4660  204.6130  152.4900 C   0  0  0  0  0  3  0  0  0  0  0  0
  160.6150  202.8630  150.7630 C   0  0  0  0  0  0  0  0  0  0  0  0
  161.0540  201.5910  150.2870 N   0  0  0  0  0  2  0  0  0  0  0  0
  159.7040  203.4910  150.1570 O   0  0  0  0  0  0  0  0  0  0  0  0
  161.1320  201.5940  147.8700 C   0  0  0  0  0  2  0  0  0  0  0  0
  160.4900  200.9790  149.0960 C   0  0  0  0  0  3  0  0  0  0  0  0
  161.5810  200.2340  148.3560 C   0  0  0  0  0  2  0  0  0  0  0  0
  1 17  1  6  0  0  0
  1  4  1  0  0  0  0
  1  3  1  0  0  0  0
  2  5  1  0  0  0  0
  3  7  1  0  0  0  0
  4  2  1  0  0  0  0
  5  6  1  0  0  0  0
  6 13  1  1  0  0  0
  7  6  1  0  0  0  0
  7 28  1  1  0  0  0
  8 15  1  0  0  0  0
  8 11  1  0  0  0  0
  9 13  2  0  0  0  0
  9  8  1  0  0  0  0
 10 14  1  6  0  0  0
 10 11  1  0  0  0  0
 11 12  2  0  0  0  0
 13 10  1  0  0  0  0
 16 15  1  0  0  0  0
 18 22  1  0  0  0  0
 18 23  1  0  0  0  0
 19 18  2  0  0  0  0
 20 17  1  6  0  0  0
 21 20  1  0  0  0  0
 22 24  1  6  0  0  0
 22 21  1  0  0  0  0
 23 20  1  0  0  0  0
 24 25  1  6  0  0  0
 27 26  1  0  0  0  0
 27 24  1  0  0  0  0
 29 30  2  0  0  0  0
 29 32  1  0  0  0  0
 30 31  1  0  0  0  0
 31 33  2  0  0  0  0
 31 28  1  0  0  0  0
 32 34  1  6  0  0  0
 32 33  1  0  0  0  0
 35 34  1  0  0  0  0
 36 34  2  0  0  0  0
 37 39  1  0  0  0  0
 37 38  1  0  0  0  0
 38 35  1  0  0  0  0
 39 38  1  0  0  0  0
M  END
>  <MODEL>
6

>  <REMARK>
 VINA RESULT:      -6.4      2.968      9.392
  Name = 
  10 active torsions:
  status: ('A' for Active; 'I' for Inactive)
    1  A    between atoms: N_1  and  O_6
    2  A    between atoms: C_2  and  C_24
    3  A    between atoms: C_5  and  C_23
    4  A    between atoms: C_7  and  N_33
    5  A    between atoms: C_12  and  C_27
    6  A    between atoms: C_12  and  C_37
    7  A    between atoms: C_13  and  C_24
    8  A    between atoms: C_19  and  N_32
    9  A    between atoms: C_28  and  C_36
   10  A    between atoms: C_30  and  N_32
                            x       y       z     vdW  Elec       q    Type
                         _______ _______ _______ _____ _____    ______ ____

>  <TORSDO>
F 10

$$$$
=
 OpenBabel11052409583D

 39 43  0  0  1  0  0  0  0  0999 V2000
  161.9130  205.8790  152.8400 C   0  0  1  0  0  3  0  0  0  0  0  0
  160.8500  206.5510  154.9500 N   0  0  0  0  0  2  0  0  0  0  0  0
  161.3720  207.0540  152.0360 C   0  0  0  0  0  2  0  0  0  0  0  0
  160.9440  205.4910  153.9560 C   0  0  0  0  0  2  0  0  0  0  0  0
  159.8210  207.4740  154.4910 C   0  0  0  0  0  2  0  0  0  0  0  0
  160.4300  208.6820  153.7680 C   0  0  2  0  0  3  0  0  0  0  0  0
  161.5850  208.3530  152.8080 C   0  0  2  0  0  3  0  0  0  0  0  0
  162.1040  210.8400  156.2490 N   0  0  0  0  0  0  0  0  0  0  0  0
  161.9730  209.6930  155.4270 C   0  0  0  0  0  3  0  0  0  0  0  0
  160.0170  210.9760  155.0850 C   0  0  1  0  0  3  0  0  0  0  0  0
  160.9300  211.6090  156.0730 C   0  0  0  0  0  0  0  0  0  0  0  0
  160.7040  212.6880  156.6820 O   0  0  0  0  0  0  0  0  0  0  0  0
  160.8290  209.7460  154.7470 C   0  0  0  0  0  0  0  0  0  0  0  0
  158.7180  210.5870  155.7720 C   0  0  0  0  0  1  0  0  0  0  0  0
  162.9950  210.9810  157.2610 O   0  0  0  0  0  0  0  0  0  0  0  0
  164.1630  211.4500  156.6550 C   0  0  0  0  0  1  0  0  0  0  0  0
  162.1280  204.7000  151.9060 C   0  0  0  0  0  2  0  0  0  0  0  0
  160.9790  201.8040  150.6660 C   0  0  0  0  0  0  0  0  0  0  0  0
  161.2070  200.6020  150.3720 O   0  0  0  0  0  0  0  0  0  0  0  0
  160.9420  203.7470  151.9490 C   0  0  1  0  0  3  0  0  0  0  0  0
  160.0360  203.9560  150.7240 C   0  0  0  0  0  2  0  0  0  0  0  0
  160.1880  202.7310  149.8200 C   0  0  1  0  0  3  0  0  0  0  0  0
  161.4200  202.3790  151.8760 N   0  0  0  0  0  2  0  0  0  0  0  0
  160.9030  203.1440  148.5250 C   0  0  1  0  0  3  0  0  0  0  0  0
  161.9370  204.0620  148.7430 O   0  0  0  0  0  1  0  0  0  0  0  0
  160.4760  201.7080  146.4780 C   0  0  0  0  0  1  0  0  0  0  0  0
  161.3660  201.9560  147.6840 C   0  0  0  0  0  2  0  0  0  0  0  0
  161.7730  209.4530  151.8740 N   0  0  0  0  0  2  0  0  0  0  0  0
  161.9600  209.6500  148.2710 C   0  0  0  0  0  3  0  0  0  0  0  0
  161.6750  210.2160  149.4340 C   0  0  0  0  0  3  0  0  0  0  0  0
  161.9620  209.2420  150.4730 C   0  0  0  0  0  0  0  0  0  0  0  0
  162.4600  208.2510  148.4800 C   0  0  1  0  0  3  0  0  0  0  0  0
  162.4050  208.1080  149.9670 C   0  0  0  0  0  3  0  0  0  0  0  0
  161.5640  207.2530  147.8160 C   0  0  0  0  0  0  0  0  0  0  0  0
  161.9570  206.6940  146.5620 N   0  0  0  0  0  2  0  0  0  0  0  0
  160.4820  206.9010  148.3600 O   0  0  0  0  0  0  0  0  0  0  0  0
  161.3810  205.8400  144.3740 C   0  0  0  0  0  2  0  0  0  0  0  0
  161.1340  205.7210  145.8630 C   0  0  0  0  0  3  0  0  0  0  0  0
  162.0320  204.7240  145.1600 C   0  0  0  0  0  2  0  0  0  0  0  0
  1 17  1  6  0  0  0
  1  4  1  0  0  0  0
  3  7  1  0  0  0  0
  3  1  1  0  0  0  0
  4  2  1  0  0  0  0
  5  2  1  0  0  0  0
  6  5  1  0  0  0  0
  6 13  1  1  0  0  0
  7 28  1  6  0  0  0
  7  6  1  0  0  0  0
  8 15  1  0  0  0  0
  9  8  1  0  0  0  0
 10 14  1  1  0  0  0
 10 11  1  0  0  0  0
 11  8  1  0  0  0  0
 11 12  2  0  0  0  0
 13 10  1  0  0  0  0
 13  9  2  0  0  0  0
 16 15  1  0  0  0  0
 18 23  1  0  0  0  0
 19 18  2  0  0  0  0
 20 17  1  6  0  0  0
 21 20  1  0  0  0  0
 22 24  1  6  0  0  0
 22 18  1  0  0  0  0
 22 21  1  0  0  0  0
 23 20  1  0  0  0  0
 24 25  1  1  0  0  0
 26 27  1  0  0  0  0
 27 24  1  0  0  0  0
 29 32  1  0  0  0  0
 29 30  2  0  0  0  0
 30 31  1  0  0  0  0
 31 28  1  0  0  0  0
 32 34  1  6  0  0  0
 32 33  1  0  0  0  0
 33 31  2  0  0  0  0
 34 36  2  0  0  0  0
 35 34  1  0  0  0  0
 37 39  1  0  0  0  0
 37 38  1  0  0  0  0
 38 35  1  0  0  0  0
 39 38  1  0  0  0  0
M  END
>  <MODEL>
7

>  <REMARK>
 VINA RESULT:      -6.4      3.069      8.258
  Name = 
  10 active torsions:
  status: ('A' for Active; 'I' for Inactive)
    1  A    between atoms: N_1  and  O_6
    2  A    between atoms: C_2  and  C_24
    3  A    between atoms: C_5  and  C_23
    4  A    between atoms: C_7  and  N_33
    5  A    between atoms: C_12  and  C_27
    6  A    between atoms: C_12  and  C_37
    7  A    between atoms: C_13  and  C_24
    8  A    between atoms: C_19  and  N_32
    9  A    between atoms: C_28  and  C_36
   10  A    between atoms: C_30  and  N_32
                            x       y       z     vdW  Elec       q    Type
                         _______ _______ _______ _____ _____    ______ ____

>  <TORSDO>
F 10

$$$$
=
 OpenBabel11052409583D

 39 43  0  0  1  0  0  0  0  0999 V2000
  160.9190  209.7010  152.3670 C   0  0  1  0  0  3  0  0  0  0  0  0
  160.9950  207.2510  152.2100 N   0  0  0  0  0  2  0  0  0  0  0  0
  162.0370  209.9350  151.3590 C   0  0  0  0  0  2  0  0  0  0  0  0
  161.1280  208.3860  153.1140 C   0  0  0  0  0  2  0  0  0  0  0  0
  162.3060  207.0250  151.6170 C   0  0  0  0  0  2  0  0  0  0  0  0
  162.4160  207.6730  150.2310 C   0  0  2  0  0  3  0  0  0  0  0  0
  161.8050  209.0790  150.1180 C   0  0  2  0  0  3  0  0  0  0  0  0
  160.9840  206.1400  147.1950 N   0  0  0  0  0  0  0  0  0  0  0  0
  161.3980  207.2200  148.0140 C   0  0  0  0  0  3  0  0  0  0  0  0
  161.7900  205.2540  149.2680 C   0  0  1  0  0  3  0  0  0  0  0  0
  161.1920  204.9550  147.9400 C   0  0  0  0  0  0  0  0  0  0  0  0
  160.9030  203.8050  147.5170 O   0  0  0  0  0  0  0  0  0  0  0  0
  161.8720  206.7610  149.1710 C   0  0  0  0  0  0  0  0  0  0  0  0
  160.8210  204.8410  150.3640 C   0  0  0  0  0  1  0  0  0  0  0  0
  160.2150  206.2490  146.0840 O   0  0  0  0  0  0  0  0  0  0  0  0
  161.0310  205.8280  145.0320 C   0  0  0  0  0  1  0  0  0  0  0  0
  160.8920  210.8590  153.3510 C   0  0  0  0  0  2  0  0  0  0  0  0
  158.5140  211.1380  155.6980 C   0  0  0  0  0  0  0  0  0  0  0  0
  157.2880  211.1630  155.9790 O   0  0  0  0  0  0  0  0  0  0  0  0
  160.4990  210.3830  154.7420 C   0  0  1  0  0  3  0  0  0  0  0  0
  160.8420  211.4500  155.7950 C   0  0  0  0  0  2  0  0  0  0  0  0
  159.5250  212.0380  156.3050 C   0  0  1  0  0  3  0  0  0  0  0  0
  159.0610  210.1990  154.7980 N   0  0  0  0  0  2  0  0  0  0  0  0
  159.4090  213.4970  155.8390 C   0  0  1  0  0  3  0  0  0  0  0  0
  158.6770  213.6320  154.6540 O   0  0  0  0  0  1  0  0  0  0  0  0
  157.3930  214.4320  157.0620 C   0  0  0  0  0  1  0  0  0  0  0  0
  158.9060  214.4420  156.9280 C   0  0  0  0  0  2  0  0  0  0  0  0
  162.3450  209.7540  148.9480 N   0  0  0  0  0  2  0  0  0  0  0  0
  161.1380  213.1550  148.7700 C   0  0  0  0  0  3  0  0  0  0  0  0
  161.0280  211.9250  149.2510 C   0  0  0  0  0  3  0  0  0  0  0  0
  162.1150  211.1410  148.6920 C   0  0  0  0  0  0  0  0  0  0  0  0
  162.3220  213.2520  147.8550 C   0  0  1  0  0  3  0  0  0  0  0  0
  162.8700  211.8620  147.8870 C   0  0  0  0  0  3  0  0  0  0  0  0
  161.9030  213.6280  146.4680 C   0  0  0  0  0  0  0  0  0  0  0  0
  160.5840  213.3050  146.0290 N   0  0  0  0  0  2  0  0  0  0  0  0
  162.7010  214.2330  145.6990 O   0  0  0  0  0  0  0  0  0  0  0  0
  159.9400  212.3660  143.8960 C   0  0  0  0  0  2  0  0  0  0  0  0
  160.1140  213.6400  144.6950 C   0  0  0  0  0  3  0  0  0  0  0  0
  158.7320  213.0530  144.4940 C   0  0  0  0  0  2  0  0  0  0  0  0
  1  4  1  0  0  0  0
  1 17  1  1  0  0  0
  2  4  1  0  0  0  0
  3  1  1  0  0  0  0
  5  2  1  0  0  0  0
  6 13  1  6  0  0  0
  6  5  1  0  0  0  0
  7 28  1  6  0  0  0
  7  6  1  0  0  0  0
  7  3  1  0  0  0  0
  8 11  1  0  0  0  0
  8  9  1  0  0  0  0
  9 13  2  0  0  0  0
 10 14  1  1  0  0  0
 11 10  1  0  0  0  0
 12 11  2  0  0  0  0
 13 10  1  0  0  0  0
 15  8  1  0  0  0  0
 16 15  1  0  0  0  0
 18 19  2  0  0  0  0
 18 22  1  0  0  0  0
 20 17  1  6  0  0  0
 20 23  1  0  0  0  0
 20 21  1  0  0  0  0
 21 22  1  0  0  0  0
 22 24  1  6  0  0  0
 23 18  1  0  0  0  0
 24 25  1  6  0  0  0
 24 27  1  0  0  0  0
 27 26  1  0  0  0  0
 29 30  2  0  0  0  0
 31 28  1  0  0  0  0
 31 30  1  0  0  0  0
 32 34  1  6  0  0  0
 32 33  1  0  0  0  0
 32 29  1  0  0  0  0
 33 31  2  0  0  0  0
 35 34  1  0  0  0  0
 36 34  2  0  0  0  0
 37 39  1  0  0  0  0
 37 38  1  0  0  0  0
 38 35  1  0  0  0  0
 39 38  1  0  0  0  0
M  END
>  <MODEL>
8

>  <REMARK>
 VINA RESULT:      -6.3      1.630      2.560
  Name = 
  10 active torsions:
  status: ('A' for Active; 'I' for Inactive)
    1  A    between atoms: N_1  and  O_6
    2  A    between atoms: C_2  and  C_24
    3  A    between atoms: C_5  and  C_23
    4  A    between atoms: C_7  and  N_33
    5  A    between atoms: C_12  and  C_27
    6  A    between atoms: C_12  and  C_37
    7  A    between atoms: C_13  and  C_24
    8  A    between atoms: C_19  and  N_32
    9  A    between atoms: C_28  and  C_36
   10  A    between atoms: C_30  and  N_32
                            x       y       z     vdW  Elec       q    Type
                         _______ _______ _______ _____ _____    ______ ____

>  <TORSDO>
F 10

$$$$
=
 OpenBabel11052409583D

 39 43  0  0  1  0  0  0  0  0999 V2000
  162.0740  206.6250  152.1620 C   0  0  1  0  0  3  0  0  0  0  0  0
  161.5700  206.8010  154.5600 N   0  0  0  0  0  2  0  0  0  0  0  0
  161.2210  207.8200  151.7570 C   0  0  0  0  0  2  0  0  0  0  0  0
  161.4900  205.9330  153.3920 C   0  0  0  0  0  2  0  0  0  0  0  0
  160.3690  207.6260  154.5580 C   0  0  0  0  0  2  0  0  0  0  0  0
  160.6360  209.0060  153.9440 C   0  0  2  0  0  3  0  0  0  0  0  0
  161.5100  209.0000  152.6800 C   0  0  2  0  0  3  0  0  0  0  0  0
  162.6740  210.8780  156.3870 N   0  0  0  0  0  0  0  0  0  0  0  0
  162.4160  209.8350  155.4610 C   0  0  0  0  0  3  0  0  0  0  0  0
  160.4340  211.1200  155.5770 C   0  0  1  0  0  3  0  0  0  0  0  0
  161.4890  211.6430  156.4840 C   0  0  0  0  0  0  0  0  0  0  0  0
  161.3610  212.6380  157.2460 O   0  0  0  0  0  0  0  0  0  0  0  0
  161.1820  209.9510  154.9730 C   0  0  0  0  0  0  0  0  0  0  0  0
  159.2530  210.6310  156.4000 C   0  0  0  0  0  1  0  0  0  0  0  0
  163.7090  210.9100  157.2610 O   0  0  0  0  0  0  0  0  0  0  0  0
  164.6270  211.8050  156.7070 C   0  0  0  0  0  1  0  0  0  0  0  0
  162.1380  205.6490  150.9990 C   0  0  0  0  0  2  0  0  0  0  0  0
  160.9800  202.6330  150.1010 C   0  0  0  0  0  0  0  0  0  0  0  0
  161.1260  201.3830  150.1200 O   0  0  0  0  0  0  0  0  0  0  0  0
  160.8710  204.8100  150.9200 C   0  0  1  0  0  3  0  0  0  0  0  0
  160.3170  204.8020  149.4860 C   0  0  0  0  0  2  0  0  0  0  0  0
  160.5320  203.4000  148.9130 C   0  0  1  0  0  3  0  0  0  0  0  0
  161.1850  203.4320  151.2460 N   0  0  0  0  0  2  0  0  0  0  0  0
  161.5810  203.4670  147.7930 C   0  0  1  0  0  3  0  0  0  0  0  0
  161.2730  202.6350  146.7100 O   0  0  0  0  0  1  0  0  0  0  0  0
  162.4180  204.9560  145.9180 C   0  0  0  0  0  1  0  0  0  0  0  0
  161.8980  204.8910  147.3440 C   0  0  0  0  0  2  0  0  0  0  0  0
  161.3260  210.2480  151.9530 N   0  0  0  0  0  2  0  0  0  0  0  0
  158.1660  211.7950  152.7780 C   0  0  0  0  0  3  0  0  0  0  0  0
  158.9180  210.7080  152.6830 C   0  0  0  0  0  3  0  0  0  0  0  0
  160.2250  211.1240  152.2060 C   0  0  0  0  0  0  0  0  0  0  0  0
  158.9480  213.0060  152.3660 C   0  0  1  0  0  3  0  0  0  0  0  0
  160.2780  212.4260  152.0090 C   0  0  0  0  0  3  0  0  0  0  0  0
  158.3230  213.6740  151.1810 C   0  0  0  0  0  0  0  0  0  0  0  0
  158.9780  213.5990  149.9150 N   0  0  0  0  0  2  0  0  0  0  0  0
  157.2250  214.2860  151.2950 O   0  0  0  0  0  0  0  0  0  0  0  0
  158.7850  213.3920  147.5130 C   0  0  0  0  0  2  0  0  0  0  0  0
  158.4270  214.2260  148.7250 C   0  0  0  0  0  3  0  0  0  0  0  0
  157.3980  213.3010  148.1080 C   0  0  0  0  0  2  0  0  0  0  0  0
  1 17  1  6  0  0  0
  1  4  1  0  0  0  0
  3  1  1  0  0  0  0
  3  7  1  0  0  0  0
  4  2  1  0  0  0  0
  5  2  1  0  0  0  0
  6  5  1  0  0  0  0
  6 13  1  1  0  0  0
  7 28  1  6  0  0  0
  7  6  1  0  0  0  0
  8 11  1  0  0  0  0
  8 15  1  0  0  0  0
  9  8  1  0  0  0  0
 10 14  1  1  0  0  0
 10 11  1  0  0  0  0
 11 12  2  0  0  0  0
 13  9  2  0  0  0  0
 13 10  1  0  0  0  0
 16 15  1  0  0  0  0
 18 19  2  0  0  0  0
 18 23  1  0  0  0  0
 20 17  1  6  0  0  0
 20 23  1  0  0  0  0
 21 20  1  0  0  0  0
 22 24  1  6  0  0  0
 22 21  1  0  0  0  0
 22 18  1  0  0  0  0
 24 25  1  6  0  0  0
 26 27  1  0  0  0  0
 27 24  1  0  0  0  0
 28 31  1  0  0  0  0
 30 29  2  0  0  0  0
 31 30  1  0  0  0  0
 32 34  1  6  0  0  0
 32 29  1  0  0  0  0
 33 31  2  0  0  0  0
 33 32  1  0  0  0  0
 34 36  2  0  0  0  0
 35 34  1  0  0  0  0
 37 39  1  0  0  0  0
 37 38  1  0  0  0  0
 38 35  1  0  0  0  0
 39 38  1  0  0  0  0
M  END
>  <MODEL>
9

>  <REMARK>
 VINA RESULT:      -6.2      2.726      7.890
  Name = 
  10 active torsions:
  status: ('A' for Active; 'I' for Inactive)
    1  A    between atoms: N_1  and  O_6
    2  A    between atoms: C_2  and  C_24
    3  A    between atoms: C_5  and  C_23
    4  A    between atoms: C_7  and  N_33
    5  A    between atoms: C_12  and  C_27
    6  A    between atoms: C_12  and  C_37
    7  A    between atoms: C_13  and  C_24
    8  A    between atoms: C_19  and  N_32
    9  A    between atoms: C_28  and  C_36
   10  A    between atoms: C_30  and  N_32
                            x       y       z     vdW  Elec       q    Type
                         _______ _______ _______ _____ _____    ______ ____

>  <TORSDO>
F 10

$$$$
