=
 OpenBabel11052409343D

 44 47  0  0  1  0  0  0  0  0999 V2000
  159.5920  211.0840  153.7300 O   0  0  0  0  0  0  0  0  0  0  0  0
  157.2290  214.1720  151.5420 C   0  0  1  0  0  3  0  0  0  0  0  0
  157.1920  212.5460  154.7020 C   0  0  0  0  0  0  0  0  0  0  0  0
  156.7690  213.5620  149.2790 C   0  0  1  0  0  3  0  0  0  0  0  0
  158.1240  212.9090  153.6070 C   0  0  0  0  0  0  0  0  0  0  0  0
  156.0720  213.2040  154.6030 N   0  0  0  0  0  0  0  0  0  0  0  0
  156.2110  214.0700  153.4800 C   0  0  2  0  0  3  0  0  0  0  0  0
  157.8860  213.5400  150.3550 C   0  0  0  0  0  2  0  0  0  0  0  0
  154.4110  214.1480  149.5890 O   0  0  0  0  0  0  0  0  0  0  0  0
  155.9460  214.4530  151.3460 N   0  0  0  0  0  0  0  0  0  0  0  0
  155.5900  214.0990  150.0300 C   0  0  0  0  0  0  0  0  0  0  0  0
  155.2570  214.2970  152.4970 C   0  0  0  0  0  2  0  0  0  0  0  0
  159.1280  212.2350  153.1380 N   0  0  0  0  0  0  0  0  0  0  0  0
  157.4340  213.9580  152.8860 C   0  0  2  0  0  3  0  0  0  0  0  0
  158.2670  211.8830  156.7150 O   0  0  0  0  0  1  0  0  0  0  0  0
  156.6990  210.4380  155.8970 O   0  0  0  0  0  0  0  0  0  0  0  0
  157.4340  211.6120  155.8120 C   0  0  0  0  0  0  0  0  0  0  0  0
  157.1250  214.4530  148.2490 O   0  0  0  0  0  0  0  0  0  0  0  0
  157.2570  212.3640  147.3410 O   0  0  0  0  0  1  0  0  0  0  0  0
  156.4780  214.0530  146.0570 O   0  0  0  0  0  1  0  0  0  0  0  0
  157.3940  213.7240  147.0650 C   0  0  0  0  0  0  0  0  0  0  0  0
  159.8170  212.5790  147.2880 C   0  0  0  0  0  1  0  0  0  0  0  0
  159.0960  214.0280  146.4530 S   0  0  0  0  0  0  0  0  0  0  0  0
  160.9680  210.9410  154.0370 C   0  0  1  0  0  3  0  0  0  0  0  0
  162.5290  210.6550  155.9680 C   0  0  0  0  0  1  0  0  0  0  0  0
  161.1610  211.1460  155.5320 C   0  0  0  0  0  2  0  0  0  0  0  0
  161.4360  209.5500  153.6280 C   0  0  0  0  0  2  0  0  0  0  0  0
  160.4260  208.5070  154.0640 C   0  0  0  0  0  2  0  0  0  0  0  0
  161.1450  207.3550  154.7380 C   0  0  0  0  0  2  0  0  0  0  0  0
  161.8950  206.6080  153.7450 N   0  0  0  0  0  2  0  0  0  0  0  0
  160.9510  205.7270  153.0770 C   0  0  0  0  0  2  0  0  0  0  0  0
  161.5350  205.2480  151.7620 C   0  0  0  0  0  2  0  0  0  0  0  0
  161.5710  206.3960  150.7670 C   0  0  0  0  0  2  0  0  0  0  0  0
  160.8400  204.6180  149.1680 C   0  0  0  0  0  2  0  0  0  0  0  0
  161.7170  205.5730  146.2050 C   0  0  1  0  0  3  0  0  0  0  0  0
  160.7900  206.5010  147.0160 C   0  0  0  0  0  2  0  0  0  0  0  0
  162.5250  207.8320  148.1310 N   0  0  0  0  0  1  0  0  0  0  0  0
  161.3670  206.9850  148.3560 C   0  0  2  0  0  3  0  0  0  0  0  0
  161.2320  203.7510  147.9590 C   0  0  0  0  0  2  0  0  0  0  0  0
  161.7170  205.8660  149.3500 C   0  0  1  0  0  3  0  0  0  0  0  0
  162.2660  204.3960  147.0290 C   0  0  0  0  0  2  0  0  0  0  0  0
  159.7370  205.5240  145.0760 O   0  0  0  0  0  1  0  0  0  0  0  0
  161.0180  205.0860  145.0100 N   0  0  0  0  0  0  0  0  0  0  0  0
  161.5710  205.6960  143.9310 O   0  0  0  0  0  1  0  0  0  0  0  0
  1 24  1  0  0  0  0
  2  8  1  6  0  0  0
  2 14  1  0  0  0  0
  3 17  1  0  0  0  0
  4 18  1  6  0  0  0
  4 11  1  0  0  0  0
  4  8  1  0  0  0  0
  5  3  1  0  0  0  0
  6  3  2  0  0  0  0
  7 12  1  6  0  0  0
  7  6  1  0  0  0  0
  9 11  2  0  0  0  0
 10  2  1  0  0  0  0
 10 12  1  0  0  0  0
 11 10  1  0  0  0  0
 13  5  2  0  0  0  0
 13  1  1  0  0  0  0
 14  7  1  0  0  0  0
 14  5  1  6  0  0  0
 17 16  2  0  0  0  0
 17 15  1  0  0  0  0
 20 21  1  0  0  0  0
 21 19  1  0  0  0  0
 21 18  1  0  0  0  0
 23 21  1  0  0  0  0
 23 22  1  0  0  0  0
 24 27  1  1  0  0  0
 24 26  1  0  0  0  0
 26 25  1  0  0  0  0
 27 28  1  0  0  0  0
 28 29  1  0  0  0  0
 30 29  1  0  0  0  0
 31 30  1  0  0  0  0
 32 31  1  0  0  0  0
 33 32  1  0  0  0  0
 34 40  1  0  0  0  0
 35 43  1  6  0  0  0
 35 36  1  0  0  0  0
 35 41  1  0  0  0  0
 36 38  1  0  0  0  0
 38 37  1  6  0  0  0
 38 40  1  0  0  0  0
 39 34  1  0  0  0  0
 40 33  1  1  0  0  0
 41 39  1  0  0  0  0
 43 42  1  0  0  0  0
 44 43  1  0  0  0  0
M  END
>  <MODEL>
1

>  <REMARK>
 VINA RESULT:      -6.8      0.000      0.000
  Name = 
  16 active torsions:
  status: ('A' for Active; 'I' for Inactive)
    1  A    between atoms: O_1  and  C_10
    2  A    between atoms: O_1  and  C_33
    3  A    between atoms: O_3  and  C_12
    4  A    between atoms: O_3  and  N_42
    5  A    between atoms: C_5  and  C_17
    6  A    between atoms: C_5  and  C_41
    7  A    between atoms: C_6  and  N_14
    8  A    between atoms: C_6  and  C_25
    9  A    between atoms: C_8  and  C_12
   10  A    between atoms: C_8  and  C_25
   11  A    between atoms: CA_9  and  C_38
   12  A    between atoms: C_12  and  C_26
   13  A    between atoms: N_14  and  C_37
   14  A    between atoms: C_15  and  N_39
   15  A    between atoms: C_17  and  C_37
   16  A    between atoms: S_28  and  C_33
                            x       y       z     vdW  Elec       q    Type
                         _______ _______ _______ _____ _____    ______ ____

>  <TORSDO>
F 16

$$$$
=
 OpenBabel11052409343D

 44 47  0  0  1  0  0  0  0  0999 V2000
  160.9010  211.9720  147.1070 O   0  0  0  0  0  0  0  0  0  0  0  0
  160.2480  213.4950  142.9650 C   0  0  1  0  0  3  0  0  0  0  0  0
  158.6730  213.6880  146.1440 C   0  0  0  0  0  0  0  0  0  0  0  0
  160.5690  211.8180  141.2940 C   0  0  1  0  0  3  0  0  0  0  0  0
  160.0050  213.4620  145.5330 C   0  0  0  0  0  0  0  0  0  0  0  0
  157.8390  214.1900  145.2780 N   0  0  0  0  0  0  0  0  0  0  0  0
  158.5710  214.3720  144.0700 C   0  0  2  0  0  3  0  0  0  0  0  0
  161.1610  212.3590  142.6210 C   0  0  0  0  0  2  0  0  0  0  0  0
  158.4480  212.4460  140.2410 O   0  0  0  0  0  0  0  0  0  0  0  0
  159.2250  213.6200  142.1260 N   0  0  0  0  0  0  0  0  0  0  0  0
  159.3320  212.6440  141.1170 C   0  0  0  0  0  0  0  0  0  0  0  0
  158.1330  214.0570  142.7910 C   0  0  0  0  0  2  0  0  0  0  0  0
  160.9480  212.6590  145.9160 N   0  0  0  0  0  0  0  0  0  0  0  0
  159.8760  213.9930  144.1920 C   0  0  2  0  0  3  0  0  0  0  0  0
  158.8540  214.0350  148.4880 O   0  0  0  0  0  1  0  0  0  0  0  0
  157.2090  212.6010  147.8140 O   0  0  0  0  0  0  0  0  0  0  0  0
  158.2740  213.4480  147.5400 C   0  0  0  0  0  0  0  0  0  0  0  0
  161.4670  212.0720  140.2390 O   0  0  0  0  0  0  0  0  0  0  0  0
  162.9320  210.3220  140.2450 O   0  0  0  0  0  1  0  0  0  0  0  0
  160.7700  209.9200  139.7200 O   0  0  0  0  0  1  0  0  0  0  0  0
  161.8100  210.8520  139.6070 C   0  0  0  0  0  0  0  0  0  0  0  0
  162.9900  212.7230  138.0770 C   0  0  0  0  0  1  0  0  0  0  0  0
  162.2080  211.0960  137.8330 S   0  0  0  0  0  0  0  0  0  0  0  0
  162.0500  211.8900  147.9320 C   0  0  1  0  0  3  0  0  0  0  0  0
  162.3570  214.3350  148.3490 C   0  0  0  0  0  1  0  0  0  0  0  0
  162.9290  213.1040  147.6710 C   0  0  0  0  0  2  0  0  0  0  0  0
  161.6210  211.8510  149.3940 C   0  0  0  0  0  2  0  0  0  0  0  0
  162.1010  210.5700  150.0470 C   0  0  0  0  0  2  0  0  0  0  0  0
  161.4920  210.4450  151.4290 C   0  0  0  0  0  2  0  0  0  0  0  0
  162.1120  209.3360  152.1310 N   0  0  0  0  0  2  0  0  0  0  0  0
  161.3150  208.1550  151.8450 C   0  0  0  0  0  2  0  0  0  0  0  0
  162.1700  207.1120  151.1510 C   0  0  0  0  0  2  0  0  0  0  0  0
  161.3160  205.9100  150.7830 C   0  0  0  0  0  2  0  0  0  0  0  0
  160.7940  204.2150  149.0210 C   0  0  0  0  0  2  0  0  0  0  0  0
  161.7300  205.4600  146.1860 C   0  0  1  0  0  3  0  0  0  0  0  0
  160.7010  206.2520  147.0160 C   0  0  0  0  0  2  0  0  0  0  0  0
  162.2780  207.6130  148.3150 N   0  0  0  0  0  1  0  0  0  0  0  0
  161.1780  206.6700  148.4160 C   0  0  2  0  0  3  0  0  0  0  0  0
  161.3050  203.4760  147.7720 C   0  0  0  0  0  2  0  0  0  0  0  0
  161.5650  205.5040  149.3410 C   0  0  1  0  0  3  0  0  0  0  0  0
  162.3290  204.2640  146.9470 C   0  0  0  0  0  2  0  0  0  0  0  0
  159.8110  205.3500  144.9600 O   0  0  0  0  0  1  0  0  0  0  0  0
  161.1260  205.0190  144.9240 N   0  0  0  0  0  0  0  0  0  0  0  0
  161.6730  205.7570  143.9250 O   0  0  0  0  0  1  0  0  0  0  0  0
  1 24  1  0  0  0  0
  2  8  1  1  0  0  0
  2 14  1  0  0  0  0
  3 17  1  0  0  0  0
  4 18  1  6  0  0  0
  4  8  1  0  0  0  0
  5 13  2  0  0  0  0
  5  3  1  0  0  0  0
  6  3  2  0  0  0  0
  7 12  1  6  0  0  0
  7 14  1  0  0  0  0
  7  6  1  0  0  0  0
  9 11  2  0  0  0  0
 10 12  1  0  0  0  0
 10  2  1  0  0  0  0
 11  4  1  0  0  0  0
 11 10  1  0  0  0  0
 13  1  1  0  0  0  0
 14  5  1  1  0  0  0
 17 16  2  0  0  0  0
 17 15  1  0  0  0  0
 21 20  1  0  0  0  0
 21 18  1  0  0  0  0
 21 19  1  0  0  0  0
 23 22  1  0  0  0  0
 23 21  1  0  0  0  0
 24 26  1  1  0  0  0
 24 27  1  0  0  0  0
 26 25  1  0  0  0  0
 27 28  1  0  0  0  0
 28 29  1  0  0  0  0
 29 30  1  0  0  0  0
 31 30  1  0  0  0  0
 32 31  1  0  0  0  0
 33 32  1  0  0  0  0
 34 40  1  0  0  0  0
 35 43  1  6  0  0  0
 35 41  1  0  0  0  0
 35 36  1  0  0  0  0
 36 38  1  0  0  0  0
 38 37  1  6  0  0  0
 38 40  1  0  0  0  0
 39 34  1  0  0  0  0
 40 33  1  1  0  0  0
 41 39  1  0  0  0  0
 43 42  1  0  0  0  0
 44 43  1  0  0  0  0
M  END
>  <MODEL>
2

>  <REMARK>
 VINA RESULT:      -6.5      4.340      7.005
  Name = 
  16 active torsions:
  status: ('A' for Active; 'I' for Inactive)
    1  A    between atoms: O_1  and  C_10
    2  A    between atoms: O_1  and  C_33
    3  A    between atoms: O_3  and  C_12
    4  A    between atoms: O_3  and  N_42
    5  A    between atoms: C_5  and  C_17
    6  A    between atoms: C_5  and  C_41
    7  A    between atoms: C_6  and  N_14
    8  A    between atoms: C_6  and  C_25
    9  A    between atoms: C_8  and  C_12
   10  A    between atoms: C_8  and  C_25
   11  A    between atoms: CA_9  and  C_38
   12  A    between atoms: C_12  and  C_26
   13  A    between atoms: N_14  and  C_37
   14  A    between atoms: C_15  and  N_39
   15  A    between atoms: C_17  and  C_37
   16  A    between atoms: S_28  and  C_33
                            x       y       z     vdW  Elec       q    Type
                         _______ _______ _______ _____ _____    ______ ____

>  <TORSDO>
F 16

$$$$
=
 OpenBabel11052409343D

 44 47  0  0  1  0  0  0  0  0999 V2000
  160.8650  206.9620  149.7660 O   0  0  0  0  0  0  0  0  0  0  0  0
  161.0600  209.3530  153.5280 C   0  0  1  0  0  3  0  0  0  0  0  0
  161.2270  205.9450  152.5360 C   0  0  0  0  0  0  0  0  0  0  0  0
  159.3700  211.0380  153.6500 C   0  0  1  0  0  3  0  0  0  0  0  0
  161.4660  207.3100  152.0070 C   0  0  0  0  0  0  0  0  0  0  0  0
  161.1320  205.9560  153.8360 N   0  0  0  0  0  0  0  0  0  0  0  0
  161.3510  207.3030  154.2450 C   0  0  2  0  0  3  0  0  0  0  0  0
  160.3760  210.3750  152.6730 C   0  0  0  0  0  2  0  0  0  0  0  0
  158.8000  210.3160  155.9200 O   0  0  0  0  0  0  0  0  0  0  0  0
  160.5590  209.2740  154.7550 N   0  0  0  0  0  0  0  0  0  0  0  0
  159.5340  210.2290  154.9000 C   0  0  0  0  0  0  0  0  0  0  0  0
  160.6190  207.9990  155.1980 C   0  0  0  0  0  2  0  0  0  0  0  0
  161.2400  207.7690  150.8160 N   0  0  0  0  0  0  0  0  0  0  0  0
  161.5970  208.1330  153.1900 C   0  0  2  0  0  3  0  0  0  0  0  0
  162.1300  203.9240  151.6710 O   0  0  0  0  0  1  0  0  0  0  0  0
  159.9290  204.3160  151.2030 O   0  0  0  0  0  0  0  0  0  0  0  0
  161.1380  204.6900  151.7740 C   0  0  0  0  0  0  0  0  0  0  0  0
  159.7540  212.3700  153.8900 O   0  0  0  0  0  0  0  0  0  0  0  0
  157.5320  212.5640  153.4070 O   0  0  0  0  0  1  0  0  0  0  0  0
  158.6160  214.3610  154.2480 O   0  0  0  0  0  1  0  0  0  0  0  0
  158.7500  213.2460  153.4100 C   0  0  0  0  0  0  0  0  0  0  0  0
  157.3610  214.1390  151.2870 C   0  0  0  0  0  1  0  0  0  0  0  0
  159.1050  213.8150  151.7030 S   0  0  0  0  0  0  0  0  0  0  0  0
  161.7500  206.7370  148.6830 C   0  0  1  0  0  3  0  0  0  0  0  0
  161.8330  205.9530  146.3110 C   0  0  0  0  0  1  0  0  0  0  0  0
  160.9340  206.4240  147.4390 C   0  0  0  0  0  2  0  0  0  0  0  0
  162.6030  207.9790  148.4600 C   0  0  0  0  0  2  0  0  0  0  0  0
  161.7220  209.2080  148.3540 C   0  0  0  0  0  2  0  0  0  0  0  0
  162.4910  210.4260  148.8260 C   0  0  0  0  0  2  0  0  0  0  0  0
  161.6220  211.5890  148.7880 N   0  0  0  0  0  2  0  0  0  0  0  0
  162.1100  212.4480  147.7220 C   0  0  0  0  0  2  0  0  0  0  0  0
  161.0470  212.5950  146.6510 C   0  0  0  0  0  2  0  0  0  0  0  0
  161.2600  213.8930  145.8900 C   0  0  0  0  0  2  0  0  0  0  0  0
  162.5620  213.1980  143.8720 C   0  0  0  0  0  2  0  0  0  0  0  0
  160.4270  212.5470  141.5300 C   0  0  1  0  0  3  0  0  0  0  0  0
  160.3100  211.7600  142.8510 C   0  0  0  0  0  2  0  0  0  0  0  0
  158.7920  213.2870  144.0300 N   0  0  0  0  0  1  0  0  0  0  0  0
  160.0810  212.6220  144.1030 C   0  0  2  0  0  3  0  0  0  0  0  0
  162.7330  213.3490  142.3510 C   0  0  0  0  0  2  0  0  0  0  0  0
  161.1890  213.6480  144.3930 C   0  0  1  0  0  3  0  0  0  0  0  0
  161.4420  213.7020  141.6030 C   0  0  0  0  0  2  0  0  0  0  0  0
  161.2710  210.5040  140.9730 O   0  0  0  0  0  1  0  0  0  0  0  0
  160.7590  211.6360  140.4300 N   0  0  0  0  0  0  0  0  0  0  0  0
  159.5970  211.2740  139.8300 O   0  0  0  0  0  1  0  0  0  0  0  0
  1 13  1  0  0  0  0
  2  8  1  6  0  0  0
  2 10  1  0  0  0  0
  3  6  2  0  0  0  0
  4 18  1  1  0  0  0
  4 11  1  0  0  0  0
  5  3  1  0  0  0  0
  6  7  1  0  0  0  0
  7 12  1  6  0  0  0
  8  4  1  0  0  0  0
 10 11  1  0  0  0  0
 10 12  1  0  0  0  0
 11  9  2  0  0  0  0
 13  5  2  0  0  0  0
 14  5  1  6  0  0  0
 14  2  1  0  0  0  0
 14  7  1  0  0  0  0
 15 17  1  0  0  0  0
 16 17  2  0  0  0  0
 17  3  1  0  0  0  0
 19 21  1  0  0  0  0
 21 18  1  0  0  0  0
 21 20  1  0  0  0  0
 22 23  1  0  0  0  0
 23 21  1  0  0  0  0
 24 26  1  6  0  0  0
 24  1  1  0  0  0  0
 25 26  1  0  0  0  0
 27 24  1  0  0  0  0
 28 27  1  0  0  0  0
 28 29  1  0  0  0  0
 30 29  1  0  0  0  0
 31 30  1  0  0  0  0
 32 31  1  0  0  0  0
 33 32  1  0  0  0  0
 34 40  1  0  0  0  0
 35 43  1  6  0  0  0
 35 41  1  0  0  0  0
 35 36  1  0  0  0  0
 36 38  1  0  0  0  0
 38 37  1  6  0  0  0
 38 40  1  0  0  0  0
 39 34  1  0  0  0  0
 40 33  1  1  0  0  0
 41 39  1  0  0  0  0
 43 42  1  0  0  0  0
 44 43  1  0  0  0  0
M  END
>  <MODEL>
3

>  <REMARK>
 VINA RESULT:      -6.0      3.774      7.837
  Name = 
  16 active torsions:
  status: ('A' for Active; 'I' for Inactive)
    1  A    between atoms: O_1  and  C_10
    2  A    between atoms: O_1  and  C_33
    3  A    between atoms: O_3  and  C_12
    4  A    between atoms: O_3  and  N_42
    5  A    between atoms: C_5  and  C_17
    6  A    between atoms: C_5  and  C_41
    7  A    between atoms: C_6  and  N_14
    8  A    between atoms: C_6  and  C_25
    9  A    between atoms: C_8  and  C_12
   10  A    between atoms: C_8  and  C_25
   11  A    between atoms: CA_9  and  C_38
   12  A    between atoms: C_12  and  C_26
   13  A    between atoms: N_14  and  C_37
   14  A    between atoms: C_15  and  N_39
   15  A    between atoms: C_17  and  C_37
   16  A    between atoms: S_28  and  C_33
                            x       y       z     vdW  Elec       q    Type
                         _______ _______ _______ _____ _____    ______ ____

>  <TORSDO>
F 16

$$$$
=
 OpenBabel11052409343D

 44 47  0  0  1  0  0  0  0  0999 V2000
  159.4340  210.7620  153.8350 O   0  0  0  0  0  0  0  0  0  0  0  0
  157.4450  214.0660  151.5930 C   0  0  1  0  0  3  0  0  0  0  0  0
  157.1000  212.3840  154.7040 C   0  0  0  0  0  0  0  0  0  0  0  0
  157.0730  213.5390  149.2920 C   0  0  1  0  0  3  0  0  0  0  0  0
  158.1190  212.6970  153.6730 C   0  0  0  0  0  0  0  0  0  0  0  0
  156.0410  213.1290  154.5570 N   0  0  0  0  0  0  0  0  0  0  0  0
  156.3110  214.0050  153.4660 C   0  0  2  0  0  3  0  0  0  0  0  0
  158.1210  213.4090  150.4290 C   0  0  0  0  0  2  0  0  0  0  0  0
  154.7530  214.2990  149.4820 O   0  0  0  0  0  0  0  0  0  0  0  0
  156.2000  214.4490  151.3310 N   0  0  0  0  0  0  0  0  0  0  0  0
  155.8970  214.1500  149.9880 C   0  0  0  0  0  0  0  0  0  0  0  0
  155.4350  214.3240  152.4370 C   0  0  0  0  0  2  0  0  0  0  0  0
  159.0940  211.9570  153.2460 N   0  0  0  0  0  0  0  0  0  0  0  0
  157.5540  213.8100  152.9400 C   0  0  2  0  0  3  0  0  0  0  0  0
  156.6770  210.2740  155.7120 O   0  0  0  0  0  0  0  0  0  0  0  0
  157.9380  211.7330  156.9370 O   0  0  0  0  0  1  0  0  0  0  0  0
  157.2040  211.4130  155.8040 C   0  0  0  0  0  0  0  0  0  0  0  0
  157.5550  214.4200  148.3060 O   0  0  0  0  0  0  0  0  0  0  0  0
  157.4840  212.3990  147.2500 O   0  0  0  0  0  1  0  0  0  0  0  0
  156.3860  214.1430  146.3210 O   0  0  0  0  0  1  0  0  0  0  0  0
  157.5290  213.7780  147.0440 C   0  0  0  0  0  0  0  0  0  0  0  0
  160.1100  213.0270  146.9550 C   0  0  0  0  0  1  0  0  0  0  0  0
  159.0200  214.1720  146.0510 S   0  0  0  0  0  0  0  0  0  0  0  0
  160.7370  210.2280  153.6750 C   0  0  1  0  0  3  0  0  0  0  0  0
  161.0060  209.3610  156.0040 C   0  0  0  0  0  1  0  0  0  0  0  0
  160.8680  208.9840  154.5400 C   0  0  0  0  0  2  0  0  0  0  0  0
  160.9660  209.8810  152.2100 C   0  0  0  0  0  2  0  0  0  0  0  0
  161.2730  208.4050  152.0610 C   0  0  0  0  0  2  0  0  0  0  0  0
  162.1220  208.1840  150.8260 C   0  0  0  0  0  2  0  0  0  0  0  0
  161.5870  208.9690  149.7270 N   0  0  0  0  0  2  0  0  0  0  0  0
  162.0610  208.3540  148.4980 C   0  0  0  0  0  2  0  0  0  0  0  0
  161.5500  206.9300  148.4040 C   0  0  0  0  0  2  0  0  0  0  0  0
  162.6930  205.9960  148.0430 C   0  0  0  0  0  2  0  0  0  0  0  0
  160.9600  204.2210  148.3550 C   0  0  0  0  0  2  0  0  0  0  0  0
  160.9170  202.4380  145.6560 C   0  0  1  0  0  3  0  0  0  0  0  0
  160.6520  203.9510  145.5240 C   0  0  0  0  0  2  0  0  0  0  0  0
  162.9730  204.6800  145.1950 N   0  0  0  0  0  1  0  0  0  0  0  0
  161.7910  204.8560  146.0210 C   0  0  2  0  0  3  0  0  0  0  0  0
  160.6220  202.7280  148.1980 C   0  0  0  0  0  2  0  0  0  0  0  0
  162.1540  204.6810  147.5050 C   0  0  1  0  0  3  0  0  0  0  0  0
  161.3780  202.0250  147.0650 C   0  0  0  0  0  2  0  0  0  0  0  0
  159.1950  202.2880  144.1690 O   0  0  0  0  0  1  0  0  0  0  0  0
  159.7230  201.6830  145.2620 N   0  0  0  0  0  0  0  0  0  0  0  0
  160.1280  200.4540  144.8530 O   0  0  0  0  0  1  0  0  0  0  0  0
  2  8  1  6  0  0  0
  2 14  1  0  0  0  0
  3 17  1  0  0  0  0
  4 18  1  6  0  0  0
  4 11  1  0  0  0  0
  4  8  1  0  0  0  0
  5  3  1  0  0  0  0
  6  3  2  0  0  0  0
  7 12  1  6  0  0  0
  7  6  1  0  0  0  0
  9 11  2  0  0  0  0
 10  2  1  0  0  0  0
 10 12  1  0  0  0  0
 11 10  1  0  0  0  0
 13  5  2  0  0  0  0
 13  1  1  0  0  0  0
 14  7  1  0  0  0  0
 14  5  1  6  0  0  0
 15 17  2  0  0  0  0
 17 16  1  0  0  0  0
 20 21  1  0  0  0  0
 21 19  1  0  0  0  0
 21 18  1  0  0  0  0
 23 22  1  0  0  0  0
 23 21  1  0  0  0  0
 24 27  1  6  0  0  0
 24  1  1  0  0  0  0
 24 26  1  0  0  0  0
 26 25  1  0  0  0  0
 28 27  1  0  0  0  0
 29 28  1  0  0  0  0
 30 29  1  0  0  0  0
 31 30  1  0  0  0  0
 32 31  1  0  0  0  0
 33 32  1  0  0  0  0
 35 43  1  1  0  0  0
 35 41  1  0  0  0  0
 36 35  1  0  0  0  0
 36 38  1  0  0  0  0
 38 37  1  6  0  0  0
 38 40  1  0  0  0  0
 39 34  1  0  0  0  0
 40 33  1  1  0  0  0
 40 34  1  0  0  0  0
 41 39  1  0  0  0  0
 42 43  1  0  0  0  0
 44 43  1  0  0  0  0
M  END
>  <MODEL>
4

>  <REMARK>
 VINA RESULT:      -5.9      1.528      2.327
  Name = 
  16 active torsions:
  status: ('A' for Active; 'I' for Inactive)
    1  A    between atoms: O_1  and  C_10
    2  A    between atoms: O_1  and  C_33
    3  A    between atoms: O_3  and  C_12
    4  A    between atoms: O_3  and  N_42
    5  A    between atoms: C_5  and  C_17
    6  A    between atoms: C_5  and  C_41
    7  A    between atoms: C_6  and  N_14
    8  A    between atoms: C_6  and  C_25
    9  A    between atoms: C_8  and  C_12
   10  A    between atoms: C_8  and  C_25
   11  A    between atoms: CA_9  and  C_38
   12  A    between atoms: C_12  and  C_26
   13  A    between atoms: N_14  and  C_37
   14  A    between atoms: C_15  and  N_39
   15  A    between atoms: C_17  and  C_37
   16  A    between atoms: S_28  and  C_33
                            x       y       z     vdW  Elec       q    Type
                         _______ _______ _______ _____ _____    ______ ____

>  <TORSDO>
F 16

$$$$
=
 OpenBabel11052409343D

 44 47  0  0  1  0  0  0  0  0999 V2000
  160.8540  205.5120  148.2010 O   0  0  0  0  0  0  0  0  0  0  0  0
  161.7950  206.4220  152.4660 C   0  0  1  0  0  3  0  0  0  0  0  0
  160.9780  203.5970  150.4710 C   0  0  0  0  0  0  0  0  0  0  0  0
  160.6480  208.3520  153.2820 C   0  0  1  0  0  3  0  0  0  0  0  0
  161.5780  204.9490  150.3590 C   0  0  0  0  0  0  0  0  0  0  0  0
  160.9190  203.2120  151.7150 N   0  0  0  0  0  0  0  0  0  0  0  0
  161.5150  204.2490  152.4880 C   0  0  2  0  0  3  0  0  0  0  0  0
  161.4060  207.8060  152.0440 C   0  0  0  0  0  2  0  0  0  0  0  0
  159.9490  207.1090  155.2720 O   0  0  0  0  0  0  0  0  0  0  0  0
  161.3190  206.0820  153.6590 N   0  0  0  0  0  0  0  0  0  0  0  0
  160.6060  207.1700  154.1990 C   0  0  0  0  0  0  0  0  0  0  0  0
  161.0290  204.7640  153.6820 C   0  0  0  0  0  2  0  0  0  0  0  0
  161.4630  205.8100  149.3980 N   0  0  0  0  0  0  0  0  0  0  0  0
  161.9610  205.2810  151.7150 C   0  0  2  0  0  3  0  0  0  0  0  0
  161.1590  202.6610  148.2940 O   0  0  0  0  0  0  0  0  0  0  0  0
  159.4090  201.9180  149.5600 O   0  0  0  0  0  1  0  0  0  0  0  0
  160.5240  202.7240  149.3780 C   0  0  0  0  0  0  0  0  0  0  0  0
  161.3950  209.3890  153.8720 O   0  0  0  0  0  0  0  0  0  0  0  0
  160.9310  211.4150  152.9310 O   0  0  0  0  0  1  0  0  0  0  0  0
  159.2350  210.2350  153.8460 O   0  0  0  0  0  1  0  0  0  0  0  0
  160.5930  210.5520  153.9730 C   0  0  0  0  0  0  0  0  0  0  0  0
  162.3820  210.5130  155.9810 C   0  0  0  0  0  1  0  0  0  0  0  0
  160.8610  211.4240  155.5640 S   0  0  0  0  0  0  0  0  0  0  0  0
  161.4480  205.9080  146.9760 C   0  0  1  0  0  3  0  0  0  0  0  0
  160.6870  205.6420  144.6100 C   0  0  0  0  0  1  0  0  0  0  0  0
  160.3450  206.2140  145.9740 C   0  0  0  0  0  2  0  0  0  0  0  0
  162.3110  207.1410  147.2080 C   0  0  0  0  0  2  0  0  0  0  0  0
  161.5700  208.1480  148.0650 C   0  0  0  0  0  2  0  0  0  0  0  0
  162.5630  209.0880  148.7180 C   0  0  0  0  0  2  0  0  0  0  0  0
  161.8610  210.2530  149.2260 N   0  0  0  0  0  2  0  0  0  0  0  0
  161.4990  211.0640  148.0740 C   0  0  0  0  0  2  0  0  0  0  0  0
  162.4720  212.2180  147.9300 C   0  0  0  0  0  2  0  0  0  0  0  0
  161.7180  213.4820  147.5530 C   0  0  0  0  0  2  0  0  0  0  0  0
  162.9100  213.0150  145.4050 C   0  0  0  0  0  2  0  0  0  0  0  0
  160.7850  213.4740  143.0100 C   0  0  1  0  0  3  0  0  0  0  0  0
  160.4330  212.4380  144.0970 C   0  0  0  0  0  2  0  0  0  0  0  0
  159.2590  213.9420  145.6410 N   0  0  0  0  0  1  0  0  0  0  0  0
  160.3560  212.9970  145.5260 C   0  0  2  0  0  3  0  0  0  0  0  0
  163.1760  213.4880  143.9660 C   0  0  0  0  0  2  0  0  0  0  0  0
  161.6570  213.6330  146.0430 C   0  0  1  0  0  3  0  0  0  0  0  0
  162.0350  214.3050  143.3490 C   0  0  0  0  0  2  0  0  0  0  0  0
  160.6760  211.4900  141.8920 O   0  0  0  0  0  1  0  0  0  0  0  0
  160.9440  212.8060  141.7130 N   0  0  0  0  0  0  0  0  0  0  0  0
  159.9780  213.2790  140.8850 O   0  0  0  0  0  1  0  0  0  0  0  0
  1 13  1  0  0  0  0
  2  8  1  6  0  0  0
  2 10  1  0  0  0  0
  3  6  2  0  0  0  0
  4 18  1  1  0  0  0
  4 11  1  0  0  0  0
  5  3  1  0  0  0  0
  6  7  1  0  0  0  0
  7 12  1  1  0  0  0
  8  4  1  0  0  0  0
 10 12  1  0  0  0  0
 10 11  1  0  0  0  0
 11  9  2  0  0  0  0
 13  5  2  0  0  0  0
 14  5  1  6  0  0  0
 14  2  1  0  0  0  0
 14  7  1  0  0  0  0
 15 17  2  0  0  0  0
 17 16  1  0  0  0  0
 17  3  1  0  0  0  0
 18 21  1  0  0  0  0
 19 21  1  0  0  0  0
 20 21  1  0  0  0  0
 21 23  1  0  0  0  0
 23 22  1  0  0  0  0
 24 26  1  6  0  0  0
 24 27  1  0  0  0  0
 24  1  1  0  0  0  0
 25 26  1  0  0  0  0
 27 28  1  0  0  0  0
 28 29  1  0  0  0  0
 29 30  1  0  0  0  0
 31 30  1  0  0  0  0
 32 31  1  0  0  0  0
 33 32  1  0  0  0  0
 34 40  1  0  0  0  0
 35 43  1  6  0  0  0
 35 41  1  0  0  0  0
 35 36  1  0  0  0  0
 36 38  1  0  0  0  0
 38 37  1  6  0  0  0
 38 40  1  0  0  0  0
 39 34  1  0  0  0  0
 40 33  1  1  0  0  0
 41 39  1  0  0  0  0
 43 42  1  0  0  0  0
 44 43  1  0  0  0  0
M  END
>  <MODEL>
5

>  <REMARK>
 VINA RESULT:      -5.7      4.272      9.097
  Name = 
  16 active torsions:
  status: ('A' for Active; 'I' for Inactive)
    1  A    between atoms: O_1  and  C_10
    2  A    between atoms: O_1  and  C_33
    3  A    between atoms: O_3  and  C_12
    4  A    between atoms: O_3  and  N_42
    5  A    between atoms: C_5  and  C_17
    6  A    between atoms: C_5  and  C_41
    7  A    between atoms: C_6  and  N_14
    8  A    between atoms: C_6  and  C_25
    9  A    between atoms: C_8  and  C_12
   10  A    between atoms: C_8  and  C_25
   11  A    between atoms: CA_9  and  C_38
   12  A    between atoms: C_12  and  C_26
   13  A    between atoms: N_14  and  C_37
   14  A    between atoms: C_15  and  N_39
   15  A    between atoms: C_17  and  C_37
   16  A    between atoms: S_28  and  C_33
                            x       y       z     vdW  Elec       q    Type
                         _______ _______ _______ _____ _____    ______ ____

>  <TORSDO>
F 16

$$$$
=
 OpenBabel11052409343D

 44 47  0  0  1  0  0  0  0  0999 V2000
  161.5700  208.5260  153.9730 O   0  0  0  0  0  0  0  0  0  0  0  0
  159.4590  212.4550  153.8840 C   0  0  1  0  0  3  0  0  0  0  0  0
  160.1740  209.8770  156.2230 C   0  0  0  0  0  0  0  0  0  0  0  0
  158.0490  212.7130  151.9730 C   0  0  1  0  0  3  0  0  0  0  0  0
  160.6920  210.4630  154.9630 C   0  0  0  0  0  0  0  0  0  0  0  0
  159.3110  210.6720  156.7890 N   0  0  0  0  0  0  0  0  0  0  0  0
  159.2440  211.8400  155.9770 C   0  0  2  0  0  3  0  0  0  0  0  0
  159.4380  212.1810  152.4120 C   0  0  0  0  0  2  0  0  0  0  0  0
  156.2160  213.4660  153.4120 O   0  0  0  0  0  0  0  0  0  0  0  0
  158.3150  212.9530  154.3420 N   0  0  0  0  0  0  0  0  0  0  0  0
  157.4180  213.1150  153.2690 C   0  0  0  0  0  0  0  0  0  0  0  0
  158.0880  212.5100  155.5980 C   0  0  0  0  0  2  0  0  0  0  0  0
  161.2370  209.8610  153.9520 N   0  0  0  0  0  0  0  0  0  0  0  0
  160.0840  211.7740  154.9040 C   0  0  2  0  0  3  0  0  0  0  0  0
  159.7270  207.6610  156.9580 O   0  0  0  0  0  0  0  0  0  0  0  0
  161.8660  208.4040  157.2610 O   0  0  0  0  0  1  0  0  0  0  0  0
  160.5580  208.5990  156.8430 C   0  0  0  0  0  0  0  0  0  0  0  0
  158.2170  213.8440  151.1520 O   0  0  0  0  0  0  0  0  0  0  0  0
  157.1600  212.2970  149.8490 O   0  0  0  0  0  1  0  0  0  0  0  0
  156.4170  214.4310  149.8100 O   0  0  0  0  0  1  0  0  0  0  0  0
  157.5620  213.6320  149.9140 C   0  0  0  0  0  0  0  0  0  0  0  0
  157.3620  213.8020  147.2370 C   0  0  0  0  0  1  0  0  0  0  0  0
  158.6690  213.9790  148.4930 S   0  0  0  0  0  0  0  0  0  0  0  0
  161.9630  207.8670  152.7810 C   0  0  1  0  0  3  0  0  0  0  0  0
  161.7700  205.3840  153.0010 C   0  0  0  0  0  1  0  0  0  0  0  0
  161.0650  206.6570  152.5720 C   0  0  0  0  0  2  0  0  0  0  0  0
  161.8400  208.8290  151.6060 C   0  0  0  0  0  2  0  0  0  0  0  0
  161.2550  208.1160  150.4040 C   0  0  0  0  0  2  0  0  0  0  0  0
  162.0190  208.5140  149.1560 C   0  0  0  0  0  2  0  0  0  0  0  0
  162.4550  207.3190  148.4560 N   0  0  0  0  0  2  0  0  0  0  0  0
  161.7330  207.2800  147.1960 C   0  0  0  0  0  2  0  0  0  0  0  0
  161.1550  205.8950  146.9760 C   0  0  0  0  0  2  0  0  0  0  0  0
  161.4680  205.0110  148.1720 C   0  0  0  0  0  2  0  0  0  0  0  0
  160.4210  202.7780  148.5840 C   0  0  0  0  0  2  0  0  0  0  0  0
  161.2650  200.8540  146.1250 C   0  0  1  0  0  3  0  0  0  0  0  0
  160.5160  202.1610  145.7930 C   0  0  0  0  0  2  0  0  0  0  0  0
  162.4710  203.6220  145.5290 N   0  0  0  0  0  1  0  0  0  0  0  0
  161.2210  203.4480  146.2500 C   0  0  2  0  0  3  0  0  0  0  0  0
  160.6290  201.2540  148.5880 C   0  0  0  0  0  2  0  0  0  0  0  0
  161.4670  203.5480  147.7640 C   0  0  1  0  0  3  0  0  0  0  0  0
  161.6920  200.7600  147.6000 C   0  0  0  0  0  2  0  0  0  0  0  0
  159.7710  200.0200  144.6180 O   0  0  0  0  0  1  0  0  0  0  0  0
  160.4470  199.6970  145.7490 N   0  0  0  0  0  0  0  0  0  0  0  0
  161.2890  198.6890  145.4080 O   0  0  0  0  0  1  0  0  0  0  0  0
  2  8  1  6  0  0  0
  2 10  1  0  0  0  0
  2 14  1  0  0  0  0
  3  6  2  0  0  0  0
  3 17  1  0  0  0  0
  4 18  1  6  0  0  0
  4  8  1  0  0  0  0
  4 11  1  0  0  0  0
  5  3  1  0  0  0  0
  7 12  1  6  0  0  0
  7  6  1  0  0  0  0
 10 12  1  0  0  0  0
 11  9  2  0  0  0  0
 11 10  1  0  0  0  0
 13  1  1  0  0  0  0
 13  5  2  0  0  0  0
 14  5  1  6  0  0  0
 14  7  1  0  0  0  0
 17 15  2  0  0  0  0
 17 16  1  0  0  0  0
 19 21  1  0  0  0  0
 20 21  1  0  0  0  0
 21 18  1  0  0  0  0
 22 23  1  0  0  0  0
 23 21  1  0  0  0  0
 24 27  1  6  0  0  0
 24  1  1  0  0  0  0
 26 24  1  0  0  0  0
 26 25  1  0  0  0  0
 28 27  1  0  0  0  0
 29 28  1  0  0  0  0
 30 29  1  0  0  0  0
 31 30  1  0  0  0  0
 32 31  1  0  0  0  0
 32 33  1  0  0  0  0
 34 39  1  0  0  0  0
 35 43  1  1  0  0  0
 35 41  1  0  0  0  0
 36 35  1  0  0  0  0
 36 38  1  0  0  0  0
 38 37  1  6  0  0  0
 38 40  1  0  0  0  0
 40 33  1  1  0  0  0
 40 34  1  0  0  0  0
 41 39  1  0  0  0  0
 42 43  1  0  0  0  0
 44 43  1  0  0  0  0
M  END
>  <MODEL>
6

>  <REMARK>
 VINA RESULT:      -5.3      2.713      4.251
  Name = 
  16 active torsions:
  status: ('A' for Active; 'I' for Inactive)
    1  A    between atoms: O_1  and  C_10
    2  A    between atoms: O_1  and  C_33
    3  A    between atoms: O_3  and  C_12
    4  A    between atoms: O_3  and  N_42
    5  A    between atoms: C_5  and  C_17
    6  A    between atoms: C_5  and  C_41
    7  A    between atoms: C_6  and  N_14
    8  A    between atoms: C_6  and  C_25
    9  A    between atoms: C_8  and  C_12
   10  A    between atoms: C_8  and  C_25
   11  A    between atoms: CA_9  and  C_38
   12  A    between atoms: C_12  and  C_26
   13  A    between atoms: N_14  and  C_37
   14  A    between atoms: C_15  and  N_39
   15  A    between atoms: C_17  and  C_37
   16  A    between atoms: S_28  and  C_33
                            x       y       z     vdW  Elec       q    Type
                         _______ _______ _______ _____ _____    ______ ____

>  <TORSDO>
F 16

$$$$
=
 OpenBabel11052409343D

 44 47  0  0  1  0  0  0  0  0999 V2000
  161.1970  204.0450  147.7860 O   0  0  0  0  0  0  0  0  0  0  0  0
  161.9660  205.4680  151.9430 C   0  0  1  0  0  3  0  0  0  0  0  0
  160.7750  202.5430  150.3160 C   0  0  0  0  0  0  0  0  0  0  0  0
  161.1540  207.6810  152.3360 C   0  0  1  0  0  3  0  0  0  0  0  0
  161.6320  203.7280  150.0690 C   0  0  0  0  0  0  0  0  0  0  0  0
  160.5470  202.3860  151.5890 N   0  0  0  0  0  0  0  0  0  0  0  0
  161.2720  203.4140  152.2590 C   0  0  2  0  0  3  0  0  0  0  0  0
  161.8860  206.8090  151.2820 C   0  0  0  0  0  2  0  0  0  0  0  0
  160.0780  206.9300  154.4040 O   0  0  0  0  0  0  0  0  0  0  0  0
  161.3440  205.4220  153.1160 N   0  0  0  0  0  0  0  0  0  0  0  0
  160.8150  206.6940  153.4100 C   0  0  0  0  0  0  0  0  0  0  0  0
  160.8040  204.1980  153.3050 C   0  0  0  0  0  2  0  0  0  0  0  0
  161.7590  204.4250  148.9830 N   0  0  0  0  0  0  0  0  0  0  0  0
  161.9660  204.2080  151.3930 C   0  0  2  0  0  3  0  0  0  0  0  0
  159.0200  201.3150  149.2860 O   0  0  0  0  0  1  0  0  0  0  0  0
  161.0980  201.0420  148.3780 O   0  0  0  0  0  0  0  0  0  0  0  0
  160.2460  201.5960  149.3230 C   0  0  0  0  0  0  0  0  0  0  0  0
  162.0400  208.6510  152.8420 O   0  0  0  0  0  0  0  0  0  0  0  0
  161.8100  210.8280  152.1980 O   0  0  0  0  0  1  0  0  0  0  0  0
  159.9660  209.6900  152.8420 O   0  0  0  0  0  1  0  0  0  0  0  0
  161.3360  209.8560  153.0800 C   0  0  0  0  0  0  0  0  0  0  0  0
  159.8010  210.5640  155.1720 C   0  0  0  0  0  1  0  0  0  0  0  0
  161.5800  210.4570  154.7960 S   0  0  0  0  0  0  0  0  0  0  0  0
  161.9370  204.1500  146.5820 C   0  0  1  0  0  3  0  0  0  0  0  0
  160.5010  202.3720  145.5710 C   0  0  0  0  0  1  0  0  0  0  0  0
  161.0310  203.7850  145.4160 C   0  0  0  0  0  2  0  0  0  0  0  0
  162.4530  205.5750  146.4270 C   0  0  0  0  0  2  0  0  0  0  0  0
  161.4540  206.5600  147.0020 C   0  0  0  0  0  2  0  0  0  0  0  0
  162.1920  207.6630  147.7330 C   0  0  0  0  0  2  0  0  0  0  0  0
  161.2310  208.5590  148.3520 N   0  0  0  0  0  2  0  0  0  0  0  0
  161.9910  209.5270  149.1240 C   0  0  0  0  0  2  0  0  0  0  0  0
  162.3430  210.7180  148.2550 C   0  0  0  0  0  2  0  0  0  0  0  0
  161.8690  211.9990  148.9200 C   0  0  0  0  0  2  0  0  0  0  0  0
  161.0060  212.1360  146.5770 C   0  0  0  0  0  2  0  0  0  0  0  0
  158.7410  214.4460  146.5230 C   0  0  1  0  0  3  0  0  0  0  0  0
  158.5440  213.2650  147.4950 C   0  0  0  0  0  2  0  0  0  0  0  0
  159.6990  214.2220  149.4390 N   0  0  0  0  0  1  0  0  0  0  0  0
  159.6620  213.0860  148.5350 C   0  0  2  0  0  3  0  0  0  0  0  0
  160.6130  213.0650  145.4160 C   0  0  0  0  0  2  0  0  0  0  0  0
  161.0590  212.8350  147.9440 C   0  0  1  0  0  3  0  0  0  0  0  0
  160.1270  214.4520  145.8540 C   0  0  0  0  0  2  0  0  0  0  0  0
  158.1640  213.8300  144.4050 O   0  0  0  0  0  1  0  0  0  0  0  0
  157.6790  214.4460  145.5110 N   0  0  0  0  0  0  0  0  0  0  0  0
  156.6720  213.6600  145.9700 O   0  0  0  0  0  1  0  0  0  0  0  0
  1 13  1  0  0  0  0
  2  8  1  6  0  0  0
  2 10  1  0  0  0  0
  3  6  2  0  0  0  0
  4 18  1  1  0  0  0
  4 11  1  0  0  0  0
  5  3  1  0  0  0  0
  6  7  1  0  0  0  0
  7 12  1  6  0  0  0
  8  4  1  0  0  0  0
 10 12  1  0  0  0  0
 10 11  1  0  0  0  0
 11  9  2  0  0  0  0
 13  5  2  0  0  0  0
 14  5  1  6  0  0  0
 14  2  1  0  0  0  0
 14  7  1  0  0  0  0
 15 17  1  0  0  0  0
 16 17  2  0  0  0  0
 17  3  1  0  0  0  0
 18 21  1  0  0  0  0
 19 21  1  0  0  0  0
 20 21  1  0  0  0  0
 21 23  1  0  0  0  0
 23 22  1  0  0  0  0
 24 26  1  6  0  0  0
 24  1  1  0  0  0  0
 26 25  1  0  0  0  0
 27 24  1  0  0  0  0
 27 28  1  0  0  0  0
 28 29  1  0  0  0  0
 29 30  1  0  0  0  0
 30 31  1  0  0  0  0
 32 33  1  0  0  0  0
 32 31  1  0  0  0  0
 34 40  1  0  0  0  0
 35 43  1  6  0  0  0
 35 36  1  0  0  0  0
 36 38  1  0  0  0  0
 38 37  1  6  0  0  0
 39 41  1  0  0  0  0
 39 34  1  0  0  0  0
 40 38  1  0  0  0  0
 40 33  1  1  0  0  0
 41 35  1  0  0  0  0
 42 43  1  0  0  0  0
 43 44  1  0  0  0  0
M  END
>  <MODEL>
7

>  <REMARK>
 VINA RESULT:      -5.2      3.330      9.486
  Name = 
  16 active torsions:
  status: ('A' for Active; 'I' for Inactive)
    1  A    between atoms: O_1  and  C_10
    2  A    between atoms: O_1  and  C_33
    3  A    between atoms: O_3  and  C_12
    4  A    between atoms: O_3  and  N_42
    5  A    between atoms: C_5  and  C_17
    6  A    between atoms: C_5  and  C_41
    7  A    between atoms: C_6  and  N_14
    8  A    between atoms: C_6  and  C_25
    9  A    between atoms: C_8  and  C_12
   10  A    between atoms: C_8  and  C_25
   11  A    between atoms: CA_9  and  C_38
   12  A    between atoms: C_12  and  C_26
   13  A    between atoms: N_14  and  C_37
   14  A    between atoms: C_15  and  N_39
   15  A    between atoms: C_17  and  C_37
   16  A    between atoms: S_28  and  C_33
                            x       y       z     vdW  Elec       q    Type
                         _______ _______ _______ _____ _____    ______ ____

>  <TORSDO>
F 16

$$$$
=
 OpenBabel11052409343D

 44 47  0  0  1  0  0  0  0  0999 V2000
  162.0950  208.1340  151.5860 O   0  0  0  0  0  0  0  0  0  0  0  0
  160.6820  204.5590  149.3230 C   0  0  1  0  0  3  0  0  0  0  0  0
  161.0890  205.5700  152.7050 C   0  0  0  0  0  0  0  0  0  0  0  0
  162.1210  203.9770  147.5070 C   0  0  1  0  0  3  0  0  0  0  0  0
  160.8830  206.1400  151.3510 C   0  0  0  0  0  0  0  0  0  0  0  0
  160.8280  204.2940  152.7210 N   0  0  0  0  0  0  0  0  0  0  0  0
  160.3890  203.9550  151.4090 C   0  0  2  0  0  3  0  0  0  0  0  0
  161.4780  205.1930  148.2240 C   0  0  0  0  0  2  0  0  0  0  0  0
  162.1170  201.6400  148.2400 O   0  0  0  0  0  0  0  0  0  0  0  0
  160.8370  203.2420  149.3930 N   0  0  0  0  0  0  0  0  0  0  0  0
  161.6970  202.8210  148.3600 C   0  0  0  0  0  0  0  0  0  0  0  0
  160.7720  202.8370  150.6800 C   0  0  0  0  0  2  0  0  0  0  0  0
  161.3810  207.2230  150.8420 N   0  0  0  0  0  0  0  0  0  0  0  0
  160.3650  205.0340  150.5750 C   0  0  2  0  0  3  0  0  0  0  0  0
  162.6970  206.3320  154.2800 O   0  0  0  0  0  0  0  0  0  0  0  0
  160.5360  206.9580  154.6750 O   0  0  0  0  0  1  0  0  0  0  0  0
  161.4910  206.2840  153.9270 C   0  0  0  0  0  0  0  0  0  0  0  0
  161.5710  203.8450  146.2180 O   0  0  0  0  0  0  0  0  0  0  0  0
  162.8700  205.7130  146.0370 O   0  0  0  0  0  1  0  0  0  0  0  0
  163.2990  203.9620  144.6740 O   0  0  0  0  0  1  0  0  0  0  0  0
  162.2780  204.6760  145.3150 C   0  0  0  0  0  0  0  0  0  0  0  0
  160.0650  206.2020  145.2600 C   0  0  0  0  0  1  0  0  0  0  0  0
  161.1670  205.4040  144.0500 S   0  0  0  0  0  0  0  0  0  0  0  0
  161.6570  209.4780  151.6870 C   0  0  1  0  0  3  0  0  0  0  0  0
  160.8110  210.9790  153.4980 C   0  0  0  0  0  1  0  0  0  0  0  0
  161.8640  209.9550  153.1170 C   0  0  0  0  0  2  0  0  0  0  0  0
  162.4520  210.3440  150.7190 C   0  0  0  0  0  2  0  0  0  0  0  0
  161.5380  210.9130  149.6510 C   0  0  0  0  0  2  0  0  0  0  0  0
  162.3530  211.7250  148.6650 C   0  0  0  0  0  2  0  0  0  0  0  0
  161.8110  213.0700  148.5860 N   0  0  0  0  0  2  0  0  0  0  0  0
  160.4820  212.9570  148.0080 C   0  0  0  0  0  2  0  0  0  0  0  0
  160.5880  212.6920  146.5190 C   0  0  0  0  0  2  0  0  0  0  0  0
  160.6980  214.0090  145.7680 C   0  0  0  0  0  2  0  0  0  0  0  0
  162.6030  213.4080  144.2650 C   0  0  0  0  0  2  0  0  0  0  0  0
  161.3450  212.6280  141.3880 C   0  0  1  0  0  3  0  0  0  0  0  0
  160.8740  211.8300  142.6210 C   0  0  0  0  0  2  0  0  0  0  0  0
  158.9720  213.2490  143.2460 N   0  0  0  0  0  1  0  0  0  0  0  0
  160.2140  212.6700  143.7260 C   0  0  2  0  0  3  0  0  0  0  0  0
  163.2270  213.5760  142.8690 C   0  0  0  0  0  2  0  0  0  0  0  0
  161.1100  213.7650  144.3270 C   0  0  1  0  0  3  0  0  0  0  0  0
  162.2120  213.8460  141.7520 C   0  0  0  0  0  2  0  0  0  0  0  0
  161.3420  210.5990  140.3500 O   0  0  0  0  0  1  0  0  0  0  0  0
  162.0580  211.7450  140.4600 N   0  0  0  0  0  0  0  0  0  0  0  0
  162.0310  212.3260  139.2340 O   0  0  0  0  0  1  0  0  0  0  0  0
  1 24  1  0  0  0  0
  2  8  1  1  0  0  0
  2 10  1  0  0  0  0
  2 14  1  0  0  0  0
  3  6  2  0  0  0  0
  3 17  1  0  0  0  0
  4 18  1  6  0  0  0
  4  8  1  0  0  0  0
  4 11  1  0  0  0  0
  5  3  1  0  0  0  0
  7 12  1  6  0  0  0
  7  6  1  0  0  0  0
  9 11  2  0  0  0  0
 10 12  1  0  0  0  0
 11 10  1  0  0  0  0
 13  5  2  0  0  0  0
 13  1  1  0  0  0  0
 14  5  1  1  0  0  0
 14  7  1  0  0  0  0
 17 15  2  0  0  0  0
 17 16  1  0  0  0  0
 20 21  1  0  0  0  0
 21 19  1  0  0  0  0
 21 18  1  0  0  0  0
 23 22  1  0  0  0  0
 23 21  1  0  0  0  0
 24 27  1  6  0  0  0
 24 26  1  0  0  0  0
 26 25  1  0  0  0  0
 28 27  1  0  0  0  0
 29 28  1  0  0  0  0
 30 29  1  0  0  0  0
 31 30  1  0  0  0  0
 32 31  1  0  0  0  0
 33 32  1  0  0  0  0
 34 40  1  0  0  0  0
 35 43  1  6  0  0  0
 35 41  1  0  0  0  0
 35 36  1  0  0  0  0
 36 38  1  0  0  0  0
 38 37  1  6  0  0  0
 38 40  1  0  0  0  0
 39 34  1  0  0  0  0
 40 33  1  1  0  0  0
 41 39  1  0  0  0  0
 42 43  1  0  0  0  0
 44 43  1  0  0  0  0
M  END
>  <MODEL>
8

>  <REMARK>
 VINA RESULT:      -4.9      4.601      8.992
  Name = 
  16 active torsions:
  status: ('A' for Active; 'I' for Inactive)
    1  A    between atoms: O_1  and  C_10
    2  A    between atoms: O_1  and  C_33
    3  A    between atoms: O_3  and  C_12
    4  A    between atoms: O_3  and  N_42
    5  A    between atoms: C_5  and  C_17
    6  A    between atoms: C_5  and  C_41
    7  A    between atoms: C_6  and  N_14
    8  A    between atoms: C_6  and  C_25
    9  A    between atoms: C_8  and  C_12
   10  A    between atoms: C_8  and  C_25
   11  A    between atoms: CA_9  and  C_38
   12  A    between atoms: C_12  and  C_26
   13  A    between atoms: N_14  and  C_37
   14  A    between atoms: C_15  and  N_39
   15  A    between atoms: C_17  and  C_37
   16  A    between atoms: S_28  and  C_33
                            x       y       z     vdW  Elec       q    Type
                         _______ _______ _______ _____ _____    ______ ____

>  <TORSDO>
F 16

$$$$
=
 OpenBabel11052409343D

 44 47  0  0  1  0  0  0  0  0999 V2000
  161.9880  210.9150  151.0070 O   0  0  0  0  0  0  0  0  0  0  0  0
  160.6910  206.6470  151.0850 C   0  0  1  0  0  3  0  0  0  0  0  0
  161.4640  209.2310  153.4000 C   0  0  0  0  0  0  0  0  0  0  0  0
  161.9090  205.2740  149.5560 C   0  0  1  0  0  3  0  0  0  0  0  0
  160.9970  209.0380  152.0050 C   0  0  0  0  0  0  0  0  0  0  0  0
  161.3600  208.1280  154.0850 N   0  0  0  0  0  0  0  0  0  0  0  0
  160.7780  207.1630  153.2130 C   0  0  2  0  0  3  0  0  0  0  0  0
  161.2390  206.6670  149.6920 C   0  0  0  0  0  2  0  0  0  0  0  0
  162.2870  203.6220  151.3240 O   0  0  0  0  0  0  0  0  0  0  0  0
  161.0090  205.5480  151.7610 N   0  0  0  0  0  0  0  0  0  0  0  0
  161.7530  204.6910  150.9270 C   0  0  0  0  0  0  0  0  0  0  0  0
  161.1790  205.8420  153.0680 C   0  0  0  0  0  2  0  0  0  0  0  0
  161.2860  209.7330  150.9490 N   0  0  0  0  0  0  0  0  0  0  0  0
  160.5060  207.6770  151.9790 C   0  0  2  0  0  3  0  0  0  0  0  0
  161.1890  211.4600  154.1750 O   0  0  0  0  0  0  0  0  0  0  0  0
  163.2570  210.5420  154.4840 O   0  0  0  0  0  1  0  0  0  0  0  0
  161.9520  210.4720  154.0180 C   0  0  0  0  0  0  0  0  0  0  0  0
  161.1960  204.4980  148.6230 O   0  0  0  0  0  0  0  0  0  0  0  0
  160.5320  205.9210  146.9680 O   0  0  0  0  0  1  0  0  0  0  0  0
  162.7440  205.5530  147.2540 O   0  0  0  0  0  1  0  0  0  0  0  0
  161.4780  204.9560  147.3130 C   0  0  0  0  0  0  0  0  0  0  0  0
  161.0380  204.6860  144.6730 C   0  0  0  0  0  1  0  0  0  0  0  0
  161.3980  203.5940  146.0860 S   0  0  0  0  0  0  0  0  0  0  0  0
  161.7210  211.9530  150.0790 C   0  0  1  0  0  3  0  0  0  0  0  0
  162.9690  212.1870  147.9260 C   0  0  0  0  0  1  0  0  0  0  0  0
  161.9000  211.4090  148.6700 C   0  0  0  0  0  2  0  0  0  0  0  0
  160.2970  212.4550  150.2770 C   0  0  0  0  0  2  0  0  0  0  0  0
  160.1580  213.8650  149.7400 C   0  0  0  0  0  2  0  0  0  0  0  0
  158.7770  214.0470  149.1420 C   0  0  0  0  0  2  0  0  0  0  0  0
  158.7130  213.3700  147.8590 N   0  0  0  0  0  2  0  0  0  0  0  0
  159.3540  214.2430  146.8890 C   0  0  0  0  0  2  0  0  0  0  0  0
  160.1250  213.4130  145.8810 C   0  0  0  0  0  2  0  0  0  0  0  0
  160.2890  214.1950  144.5890 C   0  0  0  0  0  2  0  0  0  0  0  0
  159.6520  213.3590  142.3200 C   0  0  0  0  0  2  0  0  0  0  0  0
  162.2350  211.8440  141.0960 C   0  0  1  0  0  3  0  0  0  0  0  0
  162.3930  213.3220  141.5070 C   0  0  0  0  0  2  0  0  0  0  0  0
  163.0860  212.9610  143.8340 N   0  0  0  0  0  1  0  0  0  0  0  0
  162.1070  213.6190  142.9870 C   0  0  2  0  0  3  0  0  0  0  0  0
  159.6920  212.1730  141.3410 C   0  0  0  0  0  2  0  0  0  0  0  0
  160.6840  213.2670  143.4530 C   0  0  1  0  0  3  0  0  0  0  0  0
  160.8900  211.2360  141.5340 C   0  0  0  0  0  2  0  0  0  0  0  0
  163.6060  212.2720  139.3260 O   0  0  0  0  0  1  0  0  0  0  0  0
  162.4190  211.7030  139.6480 N   0  0  0  0  0  0  0  0  0  0  0  0
  162.5490  210.3800  139.3750 O   0  0  0  0  0  1  0  0  0  0  0  0
  2  8  1  6  0  0  0
  2 10  1  0  0  0  0
  2 14  1  0  0  0  0
  3 17  1  0  0  0  0
  3  6  2  0  0  0  0
  4 18  1  6  0  0  0
  4  8  1  0  0  0  0
  4 11  1  0  0  0  0
  5  3  1  0  0  0  0
  7 12  1  6  0  0  0
  7  6  1  0  0  0  0
 10 12  1  0  0  0  0
 11  9  2  0  0  0  0
 11 10  1  0  0  0  0
 13  1  1  0  0  0  0
 13  5  2  0  0  0  0
 14  5  1  6  0  0  0
 14  7  1  0  0  0  0
 17 15  2  0  0  0  0
 17 16  1  0  0  0  0
 19 21  1  0  0  0  0
 20 21  1  0  0  0  0
 21 18  1  0  0  0  0
 22 23  1  0  0  0  0
 23 21  1  0  0  0  0
 24 26  1  6  0  0  0
 24 27  1  0  0  0  0
 24  1  1  0  0  0  0
 25 26  1  0  0  0  0
 28 27  1  0  0  0  0
 29 28  1  0  0  0  0
 30 29  1  0  0  0  0
 31 30  1  0  0  0  0
 32 31  1  0  0  0  0
 33 32  1  0  0  0  0
 34 40  1  0  0  0  0
 35 43  1  6  0  0  0
 35 36  1  0  0  0  0
 35 41  1  0  0  0  0
 36 38  1  0  0  0  0
 38 40  1  0  0  0  0
 38 37  1  1  0  0  0
 39 41  1  0  0  0  0
 39 34  1  0  0  0  0
 40 33  1  1  0  0  0
 42 43  1  0  0  0  0
 44 43  1  0  0  0  0
M  END
>  <MODEL>
9

>  <REMARK>
 VINA RESULT:      -4.7      4.274      8.551
  Name = 
  16 active torsions:
  status: ('A' for Active; 'I' for Inactive)
    1  A    between atoms: O_1  and  C_10
    2  A    between atoms: O_1  and  C_33
    3  A    between atoms: O_3  and  C_12
    4  A    between atoms: O_3  and  N_42
    5  A    between atoms: C_5  and  C_17
    6  A    between atoms: C_5  and  C_41
    7  A    between atoms: C_6  and  N_14
    8  A    between atoms: C_6  and  C_25
    9  A    between atoms: C_8  and  C_12
   10  A    between atoms: C_8  and  C_25
   11  A    between atoms: CA_9  and  C_38
   12  A    between atoms: C_12  and  C_26
   13  A    between atoms: N_14  and  C_37
   14  A    between atoms: C_15  and  N_39
   15  A    between atoms: C_17  and  C_37
   16  A    between atoms: S_28  and  C_33
                            x       y       z     vdW  Elec       q    Type
                         _______ _______ _______ _____ _____    ______ ____

>  <TORSDO>
F 16

$$$$
