=
 OpenBabel11042421123D

 64 69  0  0  1  0  0  0  0  0999 V2000
  161.8060  206.6840  151.0670 C   0  0  0  0  0  0  0  0  0  0  0  0
  161.4860  207.7170  151.8390 C   0  0  0  0  0  0  0  0  0  0  0  0
  160.8370  204.7280  152.1870 C   0  0  0  0  0  0  0  0  0  0  0  0
  160.2520  205.2840  153.2530 C   0  0  0  0  0  3  0  0  0  0  0  0
  161.2010  207.6330  153.2930 C   0  0  0  0  0  0  0  0  0  0  0  0
  161.5050  209.0250  151.1320 C   0  0  0  0  0  2  0  0  0  0  0  0
  160.6290  206.5670  153.8820 C   0  0  0  0  0  3  0  0  0  0  0  0
  162.3310  208.8220  149.8730 C   0  0  1  0  0  3  0  0  0  0  0  0
  162.0750  205.3200  151.6010 C   0  0  0  0  0  2  0  0  0  0  0  0
  162.1550  207.0850  149.3670 S   0  0  0  0  0  0  0  0  0  0  0  0
  160.4790  203.0130  150.2810 C   0  0  0  0  0  0  0  0  0  0  0  0
  160.3670  203.4920  151.6290 N   0  0  0  0  0  2  0  0  0  0  0  0
  159.9360  201.9150  149.9930 O   0  0  0  0  0  0  0  0  0  0  0  0
  161.2310  203.7690  149.2530 C   0  0  0  0  0  3  0  0  0  0  0  0
  161.7290  203.2960  148.1040 C   0  0  0  0  0  0  0  0  0  0  0  0
  161.4640  200.8250  147.3480 N   0  0  0  0  0  0  0  0  0  0  0  0
  161.5800  201.9260  147.6850 C   0  0  0  0  0  0  0  0  0  0  0  0
  162.4520  204.2370  147.1980 C   0  0  0  0  0  2  0  0  0  0  0  0
  160.4780  203.7900  145.7190 C   0  0  0  0  0  3  0  0  0  0  0  0
  161.5260  205.4700  143.7340 C   0  0  0  0  0  0  0  0  0  0  0  0
  160.2970  204.8190  143.5360 C   0  0  0  0  0  3  0  0  0  0  0  0
  159.7760  203.9820  144.5260 C   0  0  0  0  0  3  0  0  0  0  0  0
  161.7040  204.4360  145.9230 C   0  0  0  0  0  0  0  0  0  0  0  0
  162.2200  205.2770  144.9320 C   0  0  0  0  0  3  0  0  0  0  0  0
  162.0760  206.3050  142.7600 O   0  0  0  0  0  0  0  0  0  0  0  0
  161.9300  206.0630  141.3660 C   0  0  0  0  0  2  0  0  0  0  0  0
  162.4400  207.2580  140.5870 C   0  0  0  0  0  2  0  0  0  0  0  0
  161.2660  208.0790  140.0600 C   0  0  0  0  0  2  0  0  0  0  0  0
  161.6850  209.2860  139.3390 N   0  0  0  0  0  0  0  0  0  0  0  0
  161.6080  209.0850  137.8900 C   0  0  0  0  0  2  0  0  0  0  0  0
  161.3710  207.7410  137.6100 O   0  0  0  0  0  1  0  0  0  0  0  0
  160.9690  210.4750  139.8400 C   0  0  0  0  0  2  0  0  0  0  0  0
  159.4800  213.0180  139.8730 C   0  0  0  0  0  1  0  0  0  0  0  0
  161.7650  211.7940  139.8490 C   0  0  2  0  0  0  0  0  0  0  0  0
  162.8710  213.2920  141.3820 O   0  0  0  0  0  1  0  0  0  0  0  0
  161.6740  212.6120  141.1360 C   0  0  1  0  0  3  0  0  0  0  0  0
  160.9980  213.1090  139.8540 C   0  0  2  0  0  0  0  0  0  0  0  0
  163.0050  211.8270  139.2040 O   0  0  0  0  0  1  0  0  0  0  0  0
  161.6400  214.2760  139.1070 C   0  0  0  0  0  2  0  0  0  0  0  0
  161.5090  214.0870  137.6720 N   0  0  0  0  0  1  0  0  0  0  0  0
  161.7350  209.9240  148.5640 S   0  0  0  0  0  0  0  0  0  0  0  0
  162.0310  211.3300  149.5350 O   0  0  0  0  0  0  0  0  0  0  0  0
  160.3890  212.9230  150.1960 C   0  0  0  0  0  0  0  0  0  0  0  0
  161.0500  211.7840  150.4090 C   0  0  0  0  0  3  0  0  0  0  0  0
  158.7940  214.0240  144.5180 N   0  0  0  0  0  1  0  0  0  0  0  0
  157.5190  212.3330  146.1110 O   0  0  0  0  0  1  0  0  0  0  0  0
  159.7000  213.7690  147.9090 N   0  0  0  0  0  0  0  0  0  0  0  0
  160.6470  213.7280  148.9850 C   0  0  0  0  0  0  0  0  0  0  0  0
  157.6800  213.5940  146.6930 C   0  0  2  0  0  3  0  0  0  0  0  0
  160.0080  214.3350  146.6110 C   0  0  0  0  0  2  0  0  0  0  0  0
  161.7190  214.3860  148.8980 O   0  0  0  0  0  0  0  0  0  0  0  0
  158.6740  214.4530  145.9020 C   0  0  1  0  0  3  0  0  0  0  0  0
  158.3030  213.4180  148.0640 C   0  0  0  0  0  2  0  0  0  0  0  0
  158.2550  212.6210  151.4370 O   0  0  0  0  0  0  0  0  0  0  0  0
  159.5790  214.4430  151.8370 O   0  0  0  0  0  1  0  0  0  0  0  0
  159.3990  213.3730  151.1950 C   0  0  0  0  0  0  0  0  0  0  0  0
  161.4790  208.8590  154.1250 C   0  0  2  0  0  3  0  0  0  0  0  0
  161.5690  208.5490  155.6170 C   0  0  1  0  0  3  0  0  0  0  0  0
  159.7060  209.9620  156.7290 N   0  0  0  0  0  2  0  0  0  0  0  0
  162.3250  209.4990  156.2510 O   0  0  0  0  0  0  0  0  0  0  0  0
  160.8290  209.4730  156.3230 C   0  0  0  0  0  0  0  0  0  0  0  0
  160.5200  209.9780  153.8350 C   0  0  0  0  0  0  0  0  0  0  0  0
  160.9630  211.3880  154.0070 C   0  0  0  0  0  1  0  0  0  0  0  0
  159.3860  209.7450  153.4490 O   0  0  0  0  0  0  0  0  0  0  0  0
  1  9  1  0  0  0  0
  1  2  2  0  0  0  0
  2  5  1  0  0  0  0
  3  4  2  0  0  0  0
  4  7  1  0  0  0  0
  5  7  2  0  0  0  0
  5 57  1  0  0  0  0
  6  2  1  0  0  0  0
  8 41  1  6  0  0  0
  8  6  1  0  0  0  0
  9  3  1  0  0  0  0
 10  8  1  0  0  0  0
 10  1  1  0  0  0  0
 11 12  1  0  0  0  0
 12  3  1  0  0  0  0
 13 11  2  0  0  0  0
 14 11  1  0  0  0  0
 15 14  2  0  0  0  0
 16 17  3  0  0  0  0
 17 15  1  0  0  0  0
 18 15  1  0  0  0  0
 19 23  1  0  0  0  0
 20 24  1  0  0  0  0
 21 20  2  0  0  0  0
 21 22  1  0  0  0  0
 22 19  2  0  0  0  0
 23 18  1  0  0  0  0
 24 23  2  0  0  0  0
 25 20  1  0  0  0  0
 26 25  1  0  0  0  0
 27 26  1  0  0  0  0
 28 27  1  0  0  0  0
 29 32  1  0  0  0  0
 29 28  1  0  0  0  0
 30 29  1  0  0  0  0
 31 30  1  0  0  0  0
 32 34  1  0  0  0  0
 34 38  1  6  0  0  0
 34 37  1  0  0  0  0
 34 36  1  0  0  0  0
 36 35  1  6  0  0  0
 37 33  1  6  0  0  0
 37 36  1  0  0  0  0
 39 37  1  0  0  0  0
 40 39  1  0  0  0  0
 41 42  1  0  0  0  0
 42 44  1  0  0  0  0
 43 44  2  0  0  0  0
 43 56  1  0  0  0  0
 47 53  1  0  0  0  0
 47 48  1  0  0  0  0
 48 43  1  0  0  0  0
 49 46  1  6  0  0  0
 49 53  1  0  0  0  0
 50 47  1  0  0  0  0
 51 48  2  0  0  0  0
 52 45  1  6  0  0  0
 52 50  1  0  0  0  0
 52 49  1  0  0  0  0
 56 54  2  0  0  0  0
 56 55  1  0  0  0  0
 57 62  1  1  0  0  0
 58 57  1  6  0  0  0
 58 60  1  0  0  0  0
 58 61  1  0  0  0  0
 60 61  1  0  0  0  0
 61 59  2  0  0  0  0
 62 63  1  0  0  0  0
 64 62  2  0  0  0  0
M  END
>  <MODEL>
1

>  <REMARK>
 VINA RESULT:      -4.6      0.000      0.000
  Name = 
  22 active torsions:
  status: ('A' for Active; 'I' for Inactive)
    1  A    between atoms: C_3  and  C_10
    2  A    between atoms: C_4  and  N_17
    3  A    between atoms: N_5  and  C_6
    4  A    between atoms: N_5  and  C_54
    5  A    between atoms: N_5  and  C_61
    6  A    between atoms: C_8  and  C_38
    7  A    between atoms: C_9  and  C_38
    8  A    between atoms: C_12  and  C_19
    9  A    between atoms: C_12  and  C_61
   10  A    between atoms: C_13  and  O_39
   11  A    between atoms: C_19  and  O_39
   12  A    between atoms: C_20  and  C_53
   13  A    between atoms: C_21  and  C_38
   14  A    between atoms: C_25  and  C_54
   15  A    between atoms: C_30  and  C_33
   16  A    between atoms: C_30  and  C_58
   17  A    between atoms: C_32  and  C_42
   18  A    between atoms: C_37  and  O_46
   19  A    between atoms: C_42  and  C_56
   20  A    between atoms: O_46  and  S_63
   21  A    between atoms: C_50  and  C_56
   22  A    between atoms: C_51  and  S_63
                            x       y       z     vdW  Elec       q    Type
                         _______ _______ _______ _____ _____    ______ ____

>  <TORSDO>
F 22

$$$$
=
 OpenBabel11042421123D

 64 69  0  0  1  0  0  0  0  0999 V2000
  161.9370  207.1650  151.6960 C   0  0  0  0  0  0  0  0  0  0  0  0
  161.6160  208.2820  152.3400 C   0  0  0  0  0  0  0  0  0  0  0  0
  160.9910  205.3530  153.0550 C   0  0  0  0  0  0  0  0  0  0  0  0
  160.4110  206.0310  154.0500 C   0  0  0  0  0  3  0  0  0  0  0  0
  161.3440  208.3730  153.7970 C   0  0  0  0  0  0  0  0  0  0  0  0
  161.6200  209.4940  151.4790 C   0  0  0  0  0  2  0  0  0  0  0  0
  160.7840  207.3830  154.5160 C   0  0  0  0  0  3  0  0  0  0  0  0
  162.4360  209.1450  150.2470 C   0  0  1  0  0  3  0  0  0  0  0  0
  162.2200  205.8770  152.3900 C   0  0  0  0  0  2  0  0  0  0  0  0
  162.2680  207.3580  149.9580 S   0  0  0  0  0  0  0  0  0  0  0  0
  160.6970  203.3860  151.3980 C   0  0  0  0  0  0  0  0  0  0  0  0
  160.5250  204.0560  152.6550 N   0  0  0  0  0  2  0  0  0  0  0  0
  160.1470  202.2650  151.2410 O   0  0  0  0  0  0  0  0  0  0  0  0
  161.5170  203.9750  150.3150 C   0  0  0  0  0  3  0  0  0  0  0  0
  161.7930  203.4330  149.1220 C   0  0  0  0  0  0  0  0  0  0  0  0
  160.8930  201.1120  148.3770 N   0  0  0  0  0  0  0  0  0  0  0  0
  161.2930  202.1460  148.7070 C   0  0  0  0  0  0  0  0  0  0  0  0
  162.6390  204.2050  148.1650 C   0  0  0  0  0  2  0  0  0  0  0  0
  160.5370  205.4540  147.6110 C   0  0  0  0  0  3  0  0  0  0  0  0
  161.4830  205.9920  145.0270 C   0  0  0  0  0  0  0  0  0  0  0  0
  160.2210  206.4590  145.4320 C   0  0  0  0  0  3  0  0  0  0  0  0
  159.7510  206.1900  146.7200 C   0  0  0  0  0  3  0  0  0  0  0  0
  161.7950  204.9860  147.2140 C   0  0  0  0  0  0  0  0  0  0  0  0
  162.2660  205.2610  145.9260 C   0  0  0  0  0  3  0  0  0  0  0  0
  161.9750  206.2370  143.7440 O   0  0  0  0  0  0  0  0  0  0  0  0
  161.3800  205.6910  142.5730 C   0  0  0  0  0  2  0  0  0  0  0  0
  162.1660  206.1270  141.3540 C   0  0  0  0  0  2  0  0  0  0  0  0
  161.2980  207.0090  140.4610 C   0  0  0  0  0  2  0  0  0  0  0  0
  162.0380  207.5940  139.3370 N   0  0  0  0  0  0  0  0  0  0  0  0
  162.4750  206.5570  138.4000 C   0  0  0  0  0  2  0  0  0  0  0  0
  162.7240  207.1230  137.1500 O   0  0  0  0  0  1  0  0  0  0  0  0
  161.2800  208.7040  138.7260 C   0  0  0  0  0  2  0  0  0  0  0  0
  159.9940  211.0280  137.4490 C   0  0  0  0  0  1  0  0  0  0  0  0
  161.4910  210.0960  139.3500 C   0  0  2  0  0  0  0  0  0  0  0  0
  160.6030  211.5120  141.0890 O   0  0  0  0  0  1  0  0  0  0  0  0
  160.2540  210.7310  139.9830 C   0  0  1  0  0  3  0  0  0  0  0  0
  160.8370  211.3000  138.6850 C   0  0  2  0  0  0  0  0  0  0  0  0
  162.6990  210.3550  140.0030 O   0  0  0  0  0  1  0  0  0  0  0  0
  161.6040  212.6190  138.7580 C   0  0  0  0  0  2  0  0  0  0  0  0
  160.7160  213.7310  138.4620 N   0  0  0  0  0  1  0  0  0  0  0  0
  161.8220  210.0750  148.8190 S   0  0  0  0  0  0  0  0  0  0  0  0
  161.7710  211.5500  149.7320 O   0  0  0  0  0  0  0  0  0  0  0  0
  160.3580  213.3620  149.1090 C   0  0  0  0  0  0  0  0  0  0  0  0
  160.5810  212.2610  149.8280 C   0  0  0  0  0  3  0  0  0  0  0  0
  162.3760  213.0480  143.4670 N   0  0  0  0  0  1  0  0  0  0  0  0
  160.1980  211.8090  144.3300 O   0  0  0  0  0  1  0  0  0  0  0  0
  161.1920  213.6260  146.7300 N   0  0  0  0  0  0  0  0  0  0  0  0
  161.3620  213.8430  148.1370 C   0  0  0  0  0  0  0  0  0  0  0  0
  160.1910  213.1730  144.6360 C   0  0  2  0  0  3  0  0  0  0  0  0
  162.2490  213.8530  145.7660 C   0  0  0  0  0  2  0  0  0  0  0  0
  162.3830  214.4520  148.5560 O   0  0  0  0  0  0  0  0  0  0  0  0
  161.5700  213.8050  144.4120 C   0  0  1  0  0  3  0  0  0  0  0  0
  159.9120  213.3350  146.1180 C   0  0  0  0  0  2  0  0  0  0  0  0
  158.2910  214.4140  148.2120 O   0  0  0  0  0  0  0  0  0  0  0  0
  158.7290  214.4530  150.4560 O   0  0  0  0  0  1  0  0  0  0  0  0
  159.0940  214.1000  149.3020 C   0  0  0  0  0  0  0  0  0  0  0  0
  161.6200  209.6930  154.4710 C   0  0  2  0  0  3  0  0  0  0  0  0
  162.2180  209.5260  155.8650 C   0  0  1  0  0  3  0  0  0  0  0  0
  160.4530  208.2010  157.2200 N   0  0  0  0  0  2  0  0  0  0  0  0
  161.7540  210.5100  156.6980 O   0  0  0  0  0  0  0  0  0  0  0  0
  161.2370  209.1050  156.7380 C   0  0  0  0  0  0  0  0  0  0  0  0
  160.4210  210.5980  154.4720 C   0  0  0  0  0  0  0  0  0  0  0  0
  159.0940  210.0590  154.8740 C   0  0  0  0  0  1  0  0  0  0  0  0
  160.5250  211.7720  154.1550 O   0  0  0  0  0  0  0  0  0  0  0  0
  1  2  2  0  0  0  0
  1  9  1  0  0  0  0
  2  5  1  0  0  0  0
  3  4  2  0  0  0  0
  4  7  1  0  0  0  0
  5 57  1  0  0  0  0
  5  7  2  0  0  0  0
  6  2  1  0  0  0  0
  8 41  1  6  0  0  0
  8  6  1  0  0  0  0
  9  3  1  0  0  0  0
 10  8  1  0  0  0  0
 10  1  1  0  0  0  0
 11 12  1  0  0  0  0
 12  3  1  0  0  0  0
 13 11  2  0  0  0  0
 14 11  1  0  0  0  0
 15 14  2  0  0  0  0
 16 17  3  0  0  0  0
 17 15  1  0  0  0  0
 18 15  1  0  0  0  0
 20 21  2  0  0  0  0
 20 24  1  0  0  0  0
 21 22  1  0  0  0  0
 22 19  2  0  0  0  0
 23 19  1  0  0  0  0
 23 18  1  0  0  0  0
 24 23  2  0  0  0  0
 25 20  1  0  0  0  0
 26 25  1  0  0  0  0
 27 26  1  0  0  0  0
 28 27  1  0  0  0  0
 29 28  1  0  0  0  0
 30 29  1  0  0  0  0
 31 30  1  0  0  0  0
 32 29  1  0  0  0  0
 32 34  1  0  0  0  0
 34 36  1  0  0  0  0
 34 38  1  1  0  0  0
 36 35  1  1  0  0  0
 37 33  1  6  0  0  0
 37 39  1  0  0  0  0
 37 34  1  0  0  0  0
 37 36  1  0  0  0  0
 40 39  1  0  0  0  0
 41 42  1  0  0  0  0
 42 44  1  0  0  0  0
 43 56  1  0  0  0  0
 43 44  2  0  0  0  0
 47 48  1  0  0  0  0
 48 51  2  0  0  0  0
 48 43  1  0  0  0  0
 49 46  1  1  0  0  0
 49 53  1  0  0  0  0
 50 47  1  0  0  0  0
 52 45  1  6  0  0  0
 52 49  1  0  0  0  0
 52 50  1  0  0  0  0
 53 47  1  0  0  0  0
 54 56  2  0  0  0  0
 56 55  1  0  0  0  0
 57 62  1  1  0  0  0
 58 57  1  6  0  0  0
 58 60  1  0  0  0  0
 58 61  1  0  0  0  0
 60 61  1  0  0  0  0
 61 59  2  0  0  0  0
 62 63  1  0  0  0  0
 64 62  2  0  0  0  0
M  END
>  <MODEL>
2

>  <REMARK>
 VINA RESULT:      -4.1      1.586      1.845
  Name = 
  22 active torsions:
  status: ('A' for Active; 'I' for Inactive)
    1  A    between atoms: C_3  and  C_10
    2  A    between atoms: C_4  and  N_17
    3  A    between atoms: N_5  and  C_6
    4  A    between atoms: N_5  and  C_54
    5  A    between atoms: N_5  and  C_61
    6  A    between atoms: C_8  and  C_38
    7  A    between atoms: C_9  and  C_38
    8  A    between atoms: C_12  and  C_19
    9  A    between atoms: C_12  and  C_61
   10  A    between atoms: C_13  and  O_39
   11  A    between atoms: C_19  and  O_39
   12  A    between atoms: C_20  and  C_53
   13  A    between atoms: C_21  and  C_38
   14  A    between atoms: C_25  and  C_54
   15  A    between atoms: C_30  and  C_33
   16  A    between atoms: C_30  and  C_58
   17  A    between atoms: C_32  and  C_42
   18  A    between atoms: C_37  and  O_46
   19  A    between atoms: C_42  and  C_56
   20  A    between atoms: O_46  and  S_63
   21  A    between atoms: C_50  and  C_56
   22  A    between atoms: C_51  and  S_63
                            x       y       z     vdW  Elec       q    Type
                         _______ _______ _______ _____ _____    ______ ____

>  <TORSDO>
F 22

$$$$
=
 OpenBabel11042421123D

 64 70  0  0  1  0  0  0  0  0999 V2000
  161.8180  209.1820  152.0530 C   0  0  0  0  0  0  0  0  0  0  0  0
  161.1840  208.0870  151.6460 C   0  0  0  0  0  0  0  0  0  0  0  0
  161.9980  210.5940  150.0540 C   0  0  0  0  0  0  0  0  0  0  0  0
  161.3860  209.8440  149.1330 C   0  0  0  0  0  3  0  0  0  0  0  0
  161.1790  207.5800  150.2510 C   0  0  0  0  0  0  0  0  0  0  0  0
  160.5150  207.3380  152.7420 C   0  0  0  0  0  2  0  0  0  0  0  0
  161.2340  208.3740  149.1660 C   0  0  0  0  0  3  0  0  0  0  0  0
  161.1540  207.8060  154.0370 C   0  0  1  0  0  3  0  0  0  0  0  0
  162.7420  209.9600  151.1810 C   0  0  0  0  0  2  0  0  0  0  0  0
  161.7030  209.5220  153.7970 S   0  0  2  0  0  3  0  0  0  0  0  0
  161.5710  212.8650  148.8880 C   0  0  0  0  0  0  0  0  0  0  0  0
  162.0560  212.0240  149.9450 N   0  0  0  0  0  2  0  0  0  0  0  0
  161.7830  214.1030  148.9690 O   0  0  0  0  0  0  0  0  0  0  0  0
  160.8190  212.3070  147.7400 C   0  0  0  0  0  3  0  0  0  0  0  0
  161.1200  212.4290  146.4410 C   0  0  0  0  0  0  0  0  0  0  0  0
  163.2060  213.7130  145.5770 N   0  0  0  0  0  0  0  0  0  0  0  0
  162.2780  213.1410  145.9630 C   0  0  0  0  0  0  0  0  0  0  0  0
  160.2270  211.7770  145.4380 C   0  0  0  0  0  2  0  0  0  0  0  0
  158.0920  212.8230  146.2320 C   0  0  0  0  0  3  0  0  0  0  0  0
  157.6320  213.9210  143.6930 C   0  0  0  0  0  0  0  0  0  0  0  0
  156.7200  214.1430  144.7380 C   0  0  0  0  0  3  0  0  0  0  0  0
  156.9500  213.5950  146.0020 C   0  0  0  0  0  3  0  0  0  0  0  0
  159.0050  212.5970  145.1940 C   0  0  0  0  0  0  0  0  0  0  0  0
  158.7740  213.1510  143.9310 C   0  0  0  0  0  3  0  0  0  0  0  0
  157.4240  214.4470  142.4170 O   0  0  0  0  0  0  0  0  0  0  0  0
  158.1120  213.9710  141.2660 C   0  0  0  0  0  2  0  0  0  0  0  0
  157.2640  214.2100  140.0340 C   0  0  0  0  0  2  0  0  0  0  0  0
  156.5640  212.9180  139.6220 C   0  0  0  0  0  2  0  0  0  0  0  0
  157.4890  211.7910  139.4570 N   0  0  0  0  0  0  0  0  0  0  0  0
  156.8880  210.7350  138.6390 C   0  0  0  0  0  2  0  0  0  0  0  0
  156.4890  211.2570  137.4100 O   0  0  0  0  0  1  0  0  0  0  0  0
  158.8120  212.2560  138.9970 C   0  0  0  0  0  2  0  0  0  0  0  0
  161.1070  211.3050  137.4120 C   0  0  0  0  0  1  0  0  0  0  0  0
  160.0310  211.6810  139.7410 C   0  0  2  0  0  0  0  0  0  0  0  0
  162.0530  212.4030  140.8400 O   0  0  0  0  0  1  0  0  0  0  0  0
  161.3080  212.5170  139.6630 C   0  0  1  0  0  3  0  0  0  0  0  0
  161.2140  211.1780  138.9240 C   0  0  2  0  0  0  0  0  0  0  0  0
  159.8190  211.0220  140.9550 O   0  0  0  0  0  1  0  0  0  0  0  0
  161.9790  209.9860  139.4940 C   0  0  0  0  0  2  0  0  0  0  0  0
  162.0740  208.9290  138.5000 N   0  0  0  0  0  1  0  0  0  0  0  0
  159.9480  207.7130  155.3860 S   0  0  0  0  0  0  0  0  0  0  0  0
  160.5290  209.1920  156.0820 O   0  0  0  0  0  0  0  0  0  0  0  0
  159.6460  211.2740  155.3370 C   0  0  2  0  0  3  0  0  0  0  0  0
  160.5980  210.3410  155.3020 C   0  0  2  0  0  3  0  0  0  0  0  0
  154.3530  213.5290  157.0390 N   0  0  0  0  0  1  0  0  0  0  0  0
  155.7620  214.4470  154.9910 O   0  0  0  0  0  1  0  0  0  0  0  0
  157.2740  211.8560  156.0160 N   0  0  0  0  0  0  0  0  0  0  0  0
  158.4940  211.1410  156.2540 C   0  0  0  0  0  0  0  0  0  0  0  0
  155.5610  213.0650  154.9220 C   0  0  2  0  0  3  0  0  0  0  0  0
  156.2150  211.9560  157.0000 C   0  0  0  0  0  2  0  0  0  0  0  0
  158.5900  210.3890  157.2610 O   0  0  0  0  0  0  0  0  0  0  0  0
  155.0230  212.5110  156.2480 C   0  0  1  0  0  3  0  0  0  0  0  0
  156.9040  212.3910  154.7210 C   0  0  0  0  0  2  0  0  0  0  0  0
  159.5400  213.7250  154.9300 O   0  0  0  0  0  1  0  0  0  0  0  0
  160.0420  212.2890  153.2220 O   0  0  0  0  0  0  0  0  0  0  0  0
  159.7550  212.4420  154.4410 C   0  0  0  0  0  0  0  0  0  0  0  0
  160.9950  206.0960  150.0550 C   0  0  2  0  0  3  0  0  0  0  0  0
  161.9100  205.2670  150.9510 C   0  0  1  0  0  3  0  0  0  0  0  0
  161.3260  202.7970  150.4380 N   0  0  0  0  0  2  0  0  0  0  0  0
  161.2550  204.9230  152.1040 O   0  0  0  0  0  0  0  0  0  0  0  0
  161.4680  203.9620  150.9750 C   0  0  0  0  0  0  0  0  0  0  0  0
  161.0950  205.6920  148.6110 C   0  0  0  0  0  0  0  0  0  0  0  0
  162.2470  206.1630  147.7950 C   0  0  0  0  0  1  0  0  0  0  0  0
  160.2490  204.9750  148.1020 O   0  0  0  0  0  0  0  0  0  0  0  0
  2  1  2  0  0  0  0
  2  6  1  0  0  0  0
  3  9  1  0  0  0  0
  4  7  1  0  0  0  0
  4  3  2  0  0  0  0
  5  2  1  0  0  0  0
  7  5  2  0  0  0  0
  8  6  1  6  0  0  0
  8 41  1  0  0  0  0
  9  1  1  0  0  0  0
 10  1  1  6  0  0  0
 10  8  1  0  0  0  0
 10 44  1  0  0  0  0
 11 13  2  0  0  0  0
 11 12  1  0  0  0  0
 12  3  1  0  0  0  0
 14 11  1  0  0  0  0
 15 14  2  0  0  0  0
 16 17  3  0  0  0  0
 17 15  1  0  0  0  0
 18 15  1  0  0  0  0
 20 24  2  0  0  0  0
 20 21  1  0  0  0  0
 21 22  2  0  0  0  0
 22 19  1  0  0  0  0
 23 18  1  0  0  0  0
 23 19  2  0  0  0  0
 24 23  1  0  0  0  0
 25 20  1  0  0  0  0
 26 25  1  0  0  0  0
 27 26  1  0  0  0  0
 28 27  1  0  0  0  0
 29 28  1  0  0  0  0
 30 29  1  0  0  0  0
 31 30  1  0  0  0  0
 32 29  1  0  0  0  0
 32 34  1  0  0  0  0
 34 38  1  1  0  0  0
 36 34  1  0  0  0  0
 36 35  1  1  0  0  0
 37 33  1  6  0  0  0
 37 39  1  0  0  0  0
 37 36  1  0  0  0  0
 37 34  1  0  0  0  0
 40 39  1  0  0  0  0
 41 42  1  0  0  0  0
 43 56  1  6  0  0  0
 43 48  1  0  0  0  0
 44 43  1  6  0  0  0
 44 42  1  0  0  0  0
 47 48  1  0  0  0  0
 47 50  1  0  0  0  0
 48 51  2  0  0  0  0
 49 46  1  1  0  0  0
 49 52  1  0  0  0  0
 52 50  1  0  0  0  0
 52 45  1  1  0  0  0
 53 49  1  0  0  0  0
 53 47  1  0  0  0  0
 55 56  2  0  0  0  0
 56 54  1  0  0  0  0
 57 62  1  6  0  0  0
 57  5  1  0  0  0  0
 58 57  1  6  0  0  0
 58 61  1  0  0  0  0
 58 60  1  0  0  0  0
 59 61  2  0  0  0  0
 61 60  1  0  0  0  0
 63 62  1  0  0  0  0
 64 62  2  0  0  0  0
M  END
>  <MODEL>
3

>  <REMARK>
 VINA RESULT:      -2.0      3.026      7.422
  Name = 
  22 active torsions:
  status: ('A' for Active; 'I' for Inactive)
    1  A    between atoms: C_3  and  C_10
    2  A    between atoms: C_4  and  N_17
    3  A    between atoms: N_5  and  C_6
    4  A    between atoms: N_5  and  C_54
    5  A    between atoms: N_5  and  C_61
    6  A    between atoms: C_8  and  C_38
    7  A    between atoms: C_9  and  C_38
    8  A    between atoms: C_12  and  C_19
    9  A    between atoms: C_12  and  C_61
   10  A    between atoms: C_13  and  O_39
   11  A    between atoms: C_19  and  O_39
   12  A    between atoms: C_20  and  C_53
   13  A    between atoms: C_21  and  C_38
   14  A    between atoms: C_25  and  C_54
   15  A    between atoms: C_30  and  C_33
   16  A    between atoms: C_30  and  C_58
   17  A    between atoms: C_32  and  C_42
   18  A    between atoms: C_37  and  O_46
   19  A    between atoms: C_42  and  C_56
   20  A    between atoms: O_46  and  S_63
   21  A    between atoms: C_50  and  C_56
   22  A    between atoms: C_51  and  S_63
                            x       y       z     vdW  Elec       q    Type
                         _______ _______ _______ _____ _____    ______ ____

>  <TORSDO>
F 22

$$$$
