=
 OpenBabel11052411323D

 59 67  0  0  1  0  0  0  0  0999 V2000
  160.4100  209.7660  154.9890 C   0  0  0  0  0  2  0  0  0  0  0  0
  161.0780  211.6630  148.8230 C   0  0  0  0  0  0  0  0  0  0  0  0
  162.9610  204.4550  146.3370 C   0  0  0  0  0  0  0  0  0  0  0  0
  158.6490  212.5790  150.0070 N   0  0  0  0  0  0  0  0  0  0  0  0
  161.9340  203.6180  147.0150 C   0  0  0  0  0  0  0  0  0  0  0  0
  160.6590  206.0980  149.5430 C   0  0  0  0  0  2  0  0  0  0  0  0
  160.8450  208.4000  148.4840 C   0  0  0  0  0  2  0  0  0  0  0  0
  160.0140  202.0710  148.3090 C   0  0  0  0  0  0  0  0  0  0  0  0
  160.3240  203.3510  148.7840 C   0  0  0  0  0  3  0  0  0  0  0  0
  161.2890  204.1440  148.1440 C   0  0  0  0  0  0  0  0  0  0  0  0
  160.3240  212.7550  148.1680 C   0  0  0  0  0  0  0  0  0  0  0  0
  160.0050  210.5960  152.6810 C   0  0  1  0  0  3  0  0  0  0  0  0
  158.2740  214.0080  148.1650 N   0  0  0  0  0  2  0  0  0  0  0  0
  159.0190  211.2010  151.8460 O   0  0  0  0  0  0  0  0  0  0  0  0
  162.3890  211.2490  148.2280 C   0  0  0  0  0  1  0  0  0  0  0  0
  161.6000  206.2870  153.6990 C   0  0  1  0  0  3  0  0  0  0  0  0
  162.7530  206.6050  152.9370 O   0  0  0  0  0  0  0  0  0  0  0  0
  162.6840  206.2940  148.0150 C   0  0  1  0  0  3  0  0  0  0  0  0
  162.8370  208.1120  149.9370 C   0  0  0  0  0  0  0  0  0  0  0  0
  161.6940  208.7880  149.6600 C   0  0  0  0  0  0  0  0  0  0  0  0
  160.5700  211.0790  149.9390 C   0  0  0  0  0  0  0  0  0  0  0  0
  160.7620  207.5780  153.6670 C   0  0  1  0  0  3  0  0  0  0  0  0
  163.5120  207.1030  149.0260 C   0  0  0  0  0  2  0  0  0  0  0  0
  159.9120  207.2420  148.8510 C   0  0  0  0  0  2  0  0  0  0  0  0
  160.8380  205.1640  153.0220 C   0  0  0  0  0  1  0  0  0  0  0  0
  159.0310  213.1380  148.7470 C   0  0  0  0  0  0  0  0  0  0  0  0
  159.3650  211.6580  150.5820 C   0  0  0  0  0  0  0  0  0  0  0  0
  159.3420  210.0760  153.9620 C   0  0  2  0  0  3  0  0  0  0  0  0
  160.8560  209.5820  151.8990 C   0  0  2  0  0  3  0  0  0  0  0  0
  158.4090  211.1150  154.5580 C   0  0  0  0  0  1  0  0  0  0  0  0
  160.6950  208.2720  155.0570 C   0  0  1  0  0  3  0  0  0  0  0  0
  162.5880  207.8150  152.2920 C   0  0  0  0  0  0  0  0  0  0  0  0
  160.7010  201.5920  147.1870 C   0  0  0  0  0  3  0  0  0  0  0  0
  162.5940  204.9140  144.9460 C   0  0  0  0  0  2  0  0  0  0  0  0
  161.4490  208.4020  152.6150 C   0  0  0  0  0  0  0  0  0  0  0  0
  163.6790  205.4830  147.1800 C   0  0  0  0  0  2  0  0  0  0  0  0
  161.6310  202.3680  146.5670 N   0  0  0  0  0  0  0  0  0  0  0  0
  163.5140  208.3160  151.2440 C   0  0  0  0  0  2  0  0  0  0  0  0
  161.1240  209.8340  150.5740 C   0  0  1  0  0  3  0  0  0  0  0  0
  163.7080  203.8870  145.1520 C   0  0  0  0  0  2  0  0  0  0  0  0
  161.6220  205.4640  148.6410 N   0  0  0  0  0  0  0  0  0  0  0  0
  160.7670  213.3230  147.1330 O   0  0  0  0  0  0  0  0  0  0  0  0
  159.1510  201.2440  150.3870 O   0  0  0  0  0  1  0  0  0  0  0  0
  158.9970  201.2030  148.9990 C   0  0  1  0  0  3  0  0  0  0  0  0
  157.5820  201.6280  148.6370 C   0  0  0  0  0  1  0  0  0  0  0  0
  161.9130  208.0580  155.9530 C   0  0  0  0  0  2  0  0  0  0  0  0
  161.8690  208.9900  157.0780 N   0  0  0  0  0  2  0  0  0  0  0  0
  162.4170  210.4130  155.2860 O   0  0  0  0  0  1  0  0  0  0  0  0
  162.3380  210.3180  156.6820 C   0  0  2  0  0  0  0  0  0  0  0  0
  163.7300  210.4990  157.2600 C   0  0  0  0  0  1  0  0  0  0  0  0
  161.3990  211.3910  157.2530 C   0  0  0  0  0  2  0  0  0  0  0  0
  161.3270  212.6700  156.4200 C   0  0  0  0  0  2  0  0  0  0  0  0
  160.7350  213.7530  157.1930 N   0  0  0  0  0  2  0  0  0  0  0  0
  159.2940  213.5290  157.2600 C   0  0  0  0  0  2  0  0  0  0  0  0
  158.6940  213.6590  155.9360 N   0  0  0  0  0  2  0  0  0  0  0  0
  157.3870  213.0140  155.9730 C   0  0  0  0  0  2  0  0  0  0  0  0
  156.3870  213.9130  156.6820 C   0  0  0  0  0  2  0  0  0  0  0  0
  155.0090  213.7620  156.0660 C   0  0  0  0  0  2  0  0  0  0  0  0
  154.9810  214.4510  154.7170 C   0  0  0  0  0  1  0  0  0  0  0  0
  1 31  1  0  0  0  0
  2 21  2  0  0  0  0
  3  5  1  0  0  0  0
  3 36  1  0  0  0  0
  4 27  2  0  0  0  0
  5 10  1  0  0  0  0
  7 24  1  0  0  0  0
  7 20  1  0  0  0  0
  8  9  1  0  0  0  0
  8 44  1  0  0  0  0
 10 41  1  0  0  0  0
 10  9  2  0  0  0  0
 11 26  1  0  0  0  0
 11  2  1  0  0  0  0
 12 14  1  6  0  0  0
 12 28  1  0  0  0  0
 13 26  2  0  0  0  0
 15  2  1  0  0  0  0
 16 25  1  6  0  0  0
 17 16  1  0  0  0  0
 18 36  1  1  0  0  0
 18 41  1  0  0  0  0
 18 23  1  0  0  0  0
 19 38  1  0  0  0  0
 20 19  2  0  0  0  0
 21 39  1  0  0  0  0
 21 27  1  0  0  0  0
 22 35  1  6  0  0  0
 22 16  1  0  0  0  0
 22 31  1  0  0  0  0
 23 19  1  0  0  0  0
 24  6  1  0  0  0  0
 26  4  1  0  0  0  0
 27 14  1  0  0  0  0
 28 30  1  1  0  0  0
 28  1  1  0  0  0  0
 29 35  1  1  0  0  0
 29 12  1  0  0  0  0
 31 46  1  6  0  0  0
 32 35  2  0  0  0  0
 32 17  1  0  0  0  0
 33  8  2  0  0  0  0
 34 40  1  0  0  0  0
 34  3  1  0  0  0  0
 37  5  2  0  0  0  0
 37 33  1  0  0  0  0
 38 32  1  0  0  0  0
 39 20  1  6  0  0  0
 39 29  1  0  0  0  0
 40  3  1  0  0  0  0
 41  6  1  0  0  0  0
 42 11  2  0  0  0  0
 44 45  1  1  0  0  0
 44 43  1  0  0  0  0
 46 47  1  0  0  0  0
 48 49  1  0  0  0  0
 49 47  1  0  0  0  0
 49 51  1  0  0  0  0
 49 50  1  1  0  0  0
 52 53  1  0  0  0  0
 52 51  1  0  0  0  0
 53 54  1  0  0  0  0
 55 56  1  0  0  0  0
 55 54  1  0  0  0  0
 56 57  1  0  0  0  0
 58 57  1  0  0  0  0
 59 58  1  0  0  0  0
M  END
>  <MODEL>
1

>  <REMARK>
 VINA RESULT:       8.0      0.000      0.000
  Name = 
  12 active torsions:
  status: ('A' for Active; 'I' for Inactive)
    1  A    between atoms: C_1  and  N_27
    2  A    between atoms: C_1  and  C_43
    3  A    between atoms: C_5  and  C_29
    4  A    between atoms: C_12  and  C_37
    5  A    between atoms: C_24  and  C_40
    6  A    between atoms: C_24  and  N_46
    7  A    between atoms: N_27  and  C_28
    8  A    between atoms: C_28  and  C_40
    9  A    between atoms: C_29  and  C_59
   10  A    between atoms: N_33  and  C_56
   11  A    between atoms: N_33  and  C_59
   12  A    between atoms: N_46  and  C_56
                            x       y       z     vdW  Elec       q    Type
                         _______ _______ _______ _____ _____    ______ ____

>  <TORSDO>
F 12

$$$$
=
 OpenBabel11052411323D

 59 67  0  0  1  0  0  0  0  0999 V2000
  159.9410  212.4400  153.1210 C   0  0  0  0  0  2  0  0  0  0  0  0
  160.8750  212.4320  146.7030 C   0  0  0  0  0  0  0  0  0  0  0  0
  163.2610  204.9490  146.6070 C   0  0  0  0  0  0  0  0  0  0  0  0
  158.3380  213.5000  147.4520 N   0  0  0  0  0  0  0  0  0  0  0  0
  162.2390  204.2900  147.4640 C   0  0  0  0  0  0  0  0  0  0  0  0
  160.6950  207.3270  149.0640 C   0  0  0  0  0  2  0  0  0  0  0  0
  160.8270  209.2100  147.3640 C   0  0  0  0  0  2  0  0  0  0  0  0
  160.3260  203.0820  149.0880 C   0  0  0  0  0  0  0  0  0  0  0  0
  160.5440  204.4630  149.1630 C   0  0  0  0  0  3  0  0  0  0  0  0
  161.5040  205.0880  148.3520 C   0  0  0  0  0  0  0  0  0  0  0  0
  160.1080  213.2230  145.7160 C   0  0  0  0  0  0  0  0  0  0  0  0
  159.6320  212.5080  150.6550 C   0  0  1  0  0  3  0  0  0  0  0  0
  158.0010  214.2800  145.2490 N   0  0  0  0  0  2  0  0  0  0  0  0
  158.6680  212.7670  149.6360 O   0  0  0  0  0  0  0  0  0  0  0  0
  162.2390  211.9440  146.3160 C   0  0  0  0  0  1  0  0  0  0  0  0
  161.3780  208.8200  153.0010 C   0  0  1  0  0  3  0  0  0  0  0  0
  162.5570  208.9690  152.2250 O   0  0  0  0  0  0  0  0  0  0  0  0
  162.7940  207.1860  147.6330 C   0  0  1  0  0  3  0  0  0  0  0  0
  162.7420  209.5050  148.9150 C   0  0  0  0  0  0  0  0  0  0  0  0
  161.5850  209.9890  148.3990 C   0  0  0  0  0  0  0  0  0  0  0  0
  160.3320  212.1790  147.9220 C   0  0  0  0  0  0  0  0  0  0  0  0
  160.4800  209.9830  152.5430 C   0  0  1  0  0  3  0  0  0  0  0  0
  163.5190  208.3150  148.3830 C   0  0  0  0  0  2  0  0  0  0  0  0
  159.9340  208.1580  148.0270 C   0  0  0  0  0  2  0  0  0  0  0  0
  160.7150  207.4980  152.6660 C   0  0  0  0  0  1  0  0  0  0  0  0
  158.7660  213.6780  146.0980 C   0  0  0  0  0  0  0  0  0  0  0  0
  159.0650  212.8440  148.3090 C   0  0  0  0  0  0  0  0  0  0  0  0
  158.9220  212.3560  152.0060 C   0  0  2  0  0  3  0  0  0  0  0  0
  160.5780  211.3640  150.2540 C   0  0  2  0  0  3  0  0  0  0  0  0
  157.9050  213.4620  152.2180 C   0  0  0  0  0  1  0  0  0  0  0  0
  160.2970  211.0580  153.6520 C   0  0  1  0  0  3  0  0  0  0  0  0
  162.3700  209.9150  151.2370 C   0  0  0  0  0  0  0  0  0  0  0  0
  161.1020  202.3340  148.1940 C   0  0  0  0  0  3  0  0  0  0  0  0
  162.9550  204.9420  145.1280 C   0  0  0  0  0  2  0  0  0  0  0  0
  161.1860  210.4950  151.3190 C   0  0  0  0  0  0  0  0  0  0  0  0
  163.8760  206.2280  147.1250 C   0  0  0  0  0  2  0  0  0  0  0  0
  162.0260  202.9460  147.4060 N   0  0  0  0  0  0  0  0  0  0  0  0
  163.3300  210.1370  150.1250 C   0  0  0  0  0  2  0  0  0  0  0  0
  160.9100  211.2220  148.9270 C   0  0  1  0  0  3  0  0  0  0  0  0
  164.1040  204.1010  145.6810 C   0  0  0  0  0  2  0  0  0  0  0  0
  161.7400  206.5150  148.4370 N   0  0  0  0  0  0  0  0  0  0  0  0
  160.5820  213.4820  144.5770 O   0  0  0  0  0  0  0  0  0  0  0  0
  158.6750  201.3560  149.2900 O   0  0  0  0  0  1  0  0  0  0  0  0
  159.3160  202.3970  149.9670 C   0  0  1  0  0  3  0  0  0  0  0  0
  159.9710  201.8500  151.2270 C   0  0  0  0  0  1  0  0  0  0  0  0
  161.4690  211.2040  154.6200 C   0  0  0  0  0  2  0  0  0  0  0  0
  161.7690  209.9100  155.2320 N   0  0  0  0  0  2  0  0  0  0  0  0
  163.1420  210.6490  156.9950 O   0  0  0  0  0  1  0  0  0  0  0  0
  161.9220  210.0350  156.6820 C   0  0  2  0  0  0  0  0  0  0  0  0
  161.9220  208.6320  157.2600 C   0  0  0  0  0  1  0  0  0  0  0  0
  160.7420  210.8320  157.2610 C   0  0  0  0  0  2  0  0  0  0  0  0
  160.3190  212.0300  156.4130 C   0  0  0  0  0  2  0  0  0  0  0  0
  160.0200  213.1770  157.2600 N   0  0  0  0  0  2  0  0  0  0  0  0
  158.7720  213.7740  156.7930 C   0  0  0  0  0  2  0  0  0  0  0  0
  158.1210  212.9030  155.8200 N   0  0  0  0  0  2  0  0  0  0  0  0
  156.6900  212.9100  156.1010 C   0  0  0  0  0  2  0  0  0  0  0  0
  155.9550  212.0770  155.0630 C   0  0  0  0  0  2  0  0  0  0  0  0
  155.9380  210.6170  155.4700 C   0  0  0  0  0  2  0  0  0  0  0  0
  154.5650  210.2550  155.9990 C   0  0  0  0  0  1  0  0  0  0  0  0
  1 31  1  0  0  0  0
  2 21  2  0  0  0  0
  3 36  1  0  0  0  0
  3  5  1  0  0  0  0
  4 27  2  0  0  0  0
  5 10  1  0  0  0  0
  7 24  1  0  0  0  0
  7 20  1  0  0  0  0
  8  9  1  0  0  0  0
  8 44  1  0  0  0  0
 10 41  1  0  0  0  0
 10  9  2  0  0  0  0
 11 26  1  0  0  0  0
 11  2  1  0  0  0  0
 12 14  1  6  0  0  0
 12 28  1  0  0  0  0
 13 26  2  0  0  0  0
 15  2  1  0  0  0  0
 16 25  1  6  0  0  0
 17 16  1  0  0  0  0
 18 36  1  1  0  0  0
 18 23  1  0  0  0  0
 18 41  1  0  0  0  0
 19 38  1  0  0  0  0
 20 19  2  0  0  0  0
 20 39  1  0  0  0  0
 21 27  1  0  0  0  0
 22 35  1  6  0  0  0
 22 16  1  0  0  0  0
 22 31  1  0  0  0  0
 23 19  1  0  0  0  0
 24  6  1  0  0  0  0
 26  4  1  0  0  0  0
 27 14  1  0  0  0  0
 28 30  1  1  0  0  0
 28  1  1  0  0  0  0
 29 12  1  0  0  0  0
 29 35  1  1  0  0  0
 31 46  1  6  0  0  0
 32 35  2  0  0  0  0
 32 17  1  0  0  0  0
 33  8  2  0  0  0  0
 34 40  1  0  0  0  0
 34  3  1  0  0  0  0
 37  5  2  0  0  0  0
 37 33  1  0  0  0  0
 38 32  1  0  0  0  0
 39 21  1  6  0  0  0
 39 29  1  0  0  0  0
 40  3  1  0  0  0  0
 41  6  1  0  0  0  0
 42 11  2  0  0  0  0
 43 44  1  0  0  0  0
 44 45  1  1  0  0  0
 46 47  1  0  0  0  0
 47 49  1  0  0  0  0
 49 48  1  0  0  0  0
 49 50  1  1  0  0  0
 49 51  1  0  0  0  0
 52 53  1  0  0  0  0
 52 51  1  0  0  0  0
 54 53  1  0  0  0  0
 55 56  1  0  0  0  0
 55 54  1  0  0  0  0
 57 58  1  0  0  0  0
 57 56  1  0  0  0  0
 58 59  1  0  0  0  0
M  END
>  <MODEL>
2

>  <REMARK>
 VINA RESULT:       8.3      1.586      2.164
  Name = 
  12 active torsions:
  status: ('A' for Active; 'I' for Inactive)
    1  A    between atoms: C_1  and  N_27
    2  A    between atoms: C_1  and  C_43
    3  A    between atoms: C_5  and  C_29
    4  A    between atoms: C_12  and  C_37
    5  A    between atoms: C_24  and  C_40
    6  A    between atoms: C_24  and  N_46
    7  A    between atoms: N_27  and  C_28
    8  A    between atoms: C_28  and  C_40
    9  A    between atoms: C_29  and  C_59
   10  A    between atoms: N_33  and  C_56
   11  A    between atoms: N_33  and  C_59
   12  A    between atoms: N_46  and  C_56
                            x       y       z     vdW  Elec       q    Type
                         _______ _______ _______ _____ _____    ______ ____

>  <TORSDO>
F 12

$$$$
=
 OpenBabel11052411323D

 59 67  0  0  1  0  0  0  0  0999 V2000
  160.0760  212.4380  153.0940 C   0  0  0  0  0  2  0  0  0  0  0  0
  160.6460  212.2780  146.6360 C   0  0  0  0  0  0  0  0  0  0  0  0
  163.1510  204.8340  146.5920 C   0  0  0  0  0  0  0  0  0  0  0  0
  158.1380  213.3250  147.5010 N   0  0  0  0  0  0  0  0  0  0  0  0
  162.1910  204.1810  147.5220 C   0  0  0  0  0  0  0  0  0  0  0  0
  160.6870  207.2340  149.1300 C   0  0  0  0  0  2  0  0  0  0  0  0
  160.6900  209.0740  147.3790 C   0  0  0  0  0  2  0  0  0  0  0  0
  160.3930  202.9860  149.2820 C   0  0  0  0  0  0  0  0  0  0  0  0
  160.5910  204.3720  149.3100 C   0  0  0  0  0  3  0  0  0  0  0  0
  161.4930  204.9900  148.4300 C   0  0  0  0  0  0  0  0  0  0  0  0
  159.8110  213.0310  145.6750 C   0  0  0  0  0  0  0  0  0  0  0  0
  159.6270  212.4370  150.6490 C   0  0  1  0  0  3  0  0  0  0  0  0
  157.6630  214.0420  145.3020 N   0  0  0  0  0  2  0  0  0  0  0  0
  158.6030  212.6540  149.6810 O   0  0  0  0  0  0  0  0  0  0  0  0
  161.9940  211.8020  146.1850 C   0  0  0  0  0  1  0  0  0  0  0  0
  161.5660  208.8390  152.9830 C   0  0  1  0  0  3  0  0  0  0  0  0
  162.6960  208.9870  152.1390 O   0  0  0  0  0  0  0  0  0  0  0  0
  162.7040  207.0890  147.5870 C   0  0  1  0  0  3  0  0  0  0  0  0
  162.6850  209.4390  148.8110 C   0  0  0  0  0  0  0  0  0  0  0  0
  161.4920  209.8920  148.3490 C   0  0  0  0  0  0  0  0  0  0  0  0
  160.1770  212.0480  147.8900 C   0  0  0  0  0  0  0  0  0  0  0  0
  160.6230  209.9760  152.5490 C   0  0  1  0  0  3  0  0  0  0  0  0
  163.4510  208.2480  148.2650 C   0  0  0  0  0  2  0  0  0  0  0  0
  159.8550  208.0250  148.1180 C   0  0  0  0  0  2  0  0  0  0  0  0
  160.9070  207.4980  152.7200 C   0  0  0  0  0  1  0  0  0  0  0  0
  158.4850  213.4740  146.1210 C   0  0  0  0  0  0  0  0  0  0  0  0
  158.9220  212.7030  148.3310 C   0  0  0  0  0  0  0  0  0  0  0  0
  158.9970  212.3090  152.0410 C   0  0  2  0  0  3  0  0  0  0  0  0
  160.5680  211.2980  150.2240 C   0  0  2  0  0  3  0  0  0  0  0  0
  157.9740  213.4040  152.2840 C   0  0  0  0  0  1  0  0  0  0  0  0
  160.4850  211.0760  153.6390 C   0  0  1  0  0  3  0  0  0  0  0  0
  162.4380  209.9030  151.1400 C   0  0  0  0  0  0  0  0  0  0  0  0
  161.1300  202.2260  148.3640 C   0  0  0  0  0  3  0  0  0  0  0  0
  162.7620  204.7840  145.1330 C   0  0  0  0  0  2  0  0  0  0  0  0
  161.2500  210.4670  151.2740 C   0  0  0  0  0  0  0  0  0  0  0  0
  163.7720  206.1350  147.0420 C   0  0  0  0  0  2  0  0  0  0  0  0
  161.9980  202.8330  147.5100 N   0  0  0  0  0  0  0  0  0  0  0  0
  163.3290  210.1110  149.9700 C   0  0  0  0  0  2  0  0  0  0  0  0
  160.8270  211.1270  148.8840 C   0  0  1  0  0  3  0  0  0  0  0  0
  163.9550  203.9750  145.6420 C   0  0  0  0  0  2  0  0  0  0  0  0
  161.7090  206.4220  148.4660 N   0  0  0  0  0  0  0  0  0  0  0  0
  160.2150  213.2670  144.5040 O   0  0  0  0  0  0  0  0  0  0  0  0
  159.8210  200.9830  150.4660 O   0  0  0  0  0  1  0  0  0  0  0  0
  159.4460  202.3080  150.2340 C   0  0  1  0  0  3  0  0  0  0  0  0
  159.3790  203.0520  151.5590 C   0  0  0  0  0  1  0  0  0  0  0  0
  161.7070  211.2660  154.5340 C   0  0  0  0  0  2  0  0  0  0  0  0
  162.1460  209.9710  155.0520 N   0  0  0  0  0  2  0  0  0  0  0  0
  162.2730  208.5980  156.9600 O   0  0  0  0  0  1  0  0  0  0  0  0
  161.8370  209.8390  156.4760 C   0  0  2  0  0  0  0  0  0  0  0  0
  160.3270  209.9130  156.6210 C   0  0  0  0  0  1  0  0  0  0  0  0
  162.4870  210.9920  157.2560 C   0  0  0  0  0  2  0  0  0  0  0  0
  164.0140  210.9670  157.2550 C   0  0  0  0  0  2  0  0  0  0  0  0
  164.5470  212.2530  156.8260 N   0  0  0  0  0  2  0  0  0  0  0  0
  165.9710  212.0850  156.5500 C   0  0  0  0  0  2  0  0  0  0  0  0
  166.2710  212.4560  155.1700 N   0  0  0  0  0  2  0  0  0  0  0  0
  167.4360  213.3330  155.1860 C   0  0  0  0  0  2  0  0  0  0  0  0
  167.6030  213.9450  156.5690 C   0  0  0  0  0  2  0  0  0  0  0  0
  168.8230  213.3670  157.2600 C   0  0  0  0  0  2  0  0  0  0  0  0
  169.2200  212.0700  156.5840 C   0  0  0  0  0  1  0  0  0  0  0  0
  1 31  1  0  0  0  0
  2 21  2  0  0  0  0
  3 36  1  0  0  0  0
  3  5  1  0  0  0  0
  4 27  2  0  0  0  0
  5 10  1  0  0  0  0
  7 24  1  0  0  0  0
  7 20  1  0  0  0  0
  8  9  1  0  0  0  0
  8 44  1  0  0  0  0
 10 41  1  0  0  0  0
 10  9  2  0  0  0  0
 11 26  1  0  0  0  0
 11  2  1  0  0  0  0
 12 14  1  6  0  0  0
 12 28  1  0  0  0  0
 13 26  2  0  0  0  0
 15  2  1  0  0  0  0
 16 25  1  6  0  0  0
 17 16  1  0  0  0  0
 18 36  1  1  0  0  0
 18 23  1  0  0  0  0
 18 41  1  0  0  0  0
 19 38  1  0  0  0  0
 20 19  2  0  0  0  0
 20 39  1  0  0  0  0
 21 27  1  0  0  0  0
 22 35  1  6  0  0  0
 22 16  1  0  0  0  0
 22 31  1  0  0  0  0
 23 19  1  0  0  0  0
 24  6  1  0  0  0  0
 26  4  1  0  0  0  0
 27 14  1  0  0  0  0
 28 30  1  1  0  0  0
 28  1  1  0  0  0  0
 29 12  1  0  0  0  0
 29 35  1  1  0  0  0
 31 46  1  6  0  0  0
 32 35  2  0  0  0  0
 32 17  1  0  0  0  0
 33  8  2  0  0  0  0
 34 40  1  0  0  0  0
 34  3  1  0  0  0  0
 37  5  2  0  0  0  0
 37 33  1  0  0  0  0
 38 32  1  0  0  0  0
 39 21  1  6  0  0  0
 39 29  1  0  0  0  0
 40  3  1  0  0  0  0
 41  6  1  0  0  0  0
 42 11  2  0  0  0  0
 44 43  1  0  0  0  0
 44 45  1  1  0  0  0
 46 47  1  0  0  0  0
 47 49  1  0  0  0  0
 49 50  1  1  0  0  0
 49 48  1  0  0  0  0
 49 51  1  0  0  0  0
 52 51  1  0  0  0  0
 53 52  1  0  0  0  0
 54 53  1  0  0  0  0
 55 56  1  0  0  0  0
 55 54  1  0  0  0  0
 56 57  1  0  0  0  0
 57 58  1  0  0  0  0
 59 58  1  0  0  0  0
M  END
>  <MODEL>
3

>  <REMARK>
 VINA RESULT:       8.7      2.289      4.139
  Name = 
  12 active torsions:
  status: ('A' for Active; 'I' for Inactive)
    1  A    between atoms: C_1  and  N_27
    2  A    between atoms: C_1  and  C_43
    3  A    between atoms: C_5  and  C_29
    4  A    between atoms: C_12  and  C_37
    5  A    between atoms: C_24  and  C_40
    6  A    between atoms: C_24  and  N_46
    7  A    between atoms: N_27  and  C_28
    8  A    between atoms: C_28  and  C_40
    9  A    between atoms: C_29  and  C_59
   10  A    between atoms: N_33  and  C_56
   11  A    between atoms: N_33  and  C_59
   12  A    between atoms: N_46  and  C_56
                            x       y       z     vdW  Elec       q    Type
                         _______ _______ _______ _____ _____    ______ ____

>  <TORSDO>
F 12

$$$$
