=
 OpenBabel11042422513D

 29 33  0  0  1  0  0  0  0  0999 V2000
  163.0760  209.9760  152.0160 C   0  0  0  0  0  1  0  0  0  0  0  0
  161.4620  207.3960  152.4950 C   0  0  0  0  0  2  0  0  0  0  0  0
  161.1730  208.9480  154.4250 C   0  0  0  0  0  0  0  0  0  0  0  0
  161.0270  208.5400  151.5840 C   0  0  1  0  0  3  0  0  0  0  0  0
  161.5580  209.8890  152.1000 C   0  0  1  0  0  3  0  0  0  0  0  0
  161.0990  210.1660  153.5380 C   0  0  1  0  0  3  0  0  0  0  0  0
  160.8560  207.5840  153.8820 C   0  0  0  0  0  2  0  0  0  0  0  0
  161.4310  209.0780  155.6100 O   0  0  0  0  0  0  0  0  0  0  0  0
  161.2130  207.0540  149.5330 C   0  0  0  0  0  0  0  0  0  0  0  0
  161.2980  203.6140  146.6100 C   0  0  0  0  0  2  0  0  0  0  0  0
  160.4740  205.9790  150.2410 C   0  0  0  0  0  3  0  0  0  0  0  0
  161.4070  204.5920  147.7190 C   0  0  0  0  0  0  0  0  0  0  0  0
  161.5700  206.9690  148.2810 N   0  0  0  0  0  0  0  0  0  0  0  0
  160.6390  204.6740  150.0440 C   0  0  0  0  0  3  0  0  0  0  0  0
  161.4510  208.2920  150.2120 N   0  0  0  0  0  2  0  0  0  0  0  0
  161.3280  206.1320  145.9090 C   0  0  0  0  0  2  0  0  0  0  0  0
  161.4010  205.8720  147.3660 C   0  0  0  0  0  0  0  0  0  0  0  0
  161.6610  204.1270  149.1100 C   0  0  0  0  0  2  0  0  0  0  0  0
  160.9580  204.5510  145.0870 S   0  0  0  0  0  0  0  0  0  0  0  0
  157.7440  211.7050  154.1570 C   0  0  0  0  0  0  0  0  0  0  0  0
  159.0230  211.1210  152.4950 C   0  0  0  0  0  3  0  0  0  0  0  0
  156.7870  212.1330  156.2730 C   0  0  0  0  0  0  0  0  0  0  0  0
  158.0340  211.5830  156.9670 C   0  0  0  0  0  2  0  0  0  0  0  0
  155.7140  212.6080  157.0760 N   0  0  0  0  0  1  0  0  0  0  0  0
  158.9390  211.1780  154.7220 C   0  0  0  0  0  0  0  0  0  0  0  0
  159.7470  210.8120  153.5740 C   0  0  0  0  0  0  0  0  0  0  0  0
  157.7560  211.6900  152.8670 N   0  0  0  0  0  0  0  0  0  0  0  0
  159.1260  211.0980  156.0320 C   0  0  0  0  0  3  0  0  0  0  0  0
  156.6760  212.1790  154.9720 N   0  0  0  0  0  0  0  0  0  0  0  0
  2  7  1  0  0  0  0
  3  8  2  0  0  0  0
  4 15  1  6  0  0  0
  4  5  1  0  0  0  0
  4  2  1  0  0  0  0
  5  1  1  1  0  0  0
  5  6  1  0  0  0  0
  6 26  1  6  0  0  0
  6  3  1  0  0  0  0
  7  3  1  0  0  0  0
  9 15  1  0  0  0  0
  9 11  1  0  0  0  0
 10 12  1  0  0  0  0
 12 18  1  0  0  0  0
 13  9  2  0  0  0  0
 14 11  2  0  0  0  0
 16 17  1  0  0  0  0
 17 12  2  0  0  0  0
 17 13  1  0  0  0  0
 18 14  1  0  0  0  0
 19 16  1  0  0  0  0
 19 10  1  0  0  0  0
 20 25  1  0  0  0  0
 20 29  1  0  0  0  0
 21 27  1  0  0  0  0
 21 26  2  0  0  0  0
 22 23  1  0  0  0  0
 22 24  1  0  0  0  0
 25 28  2  0  0  0  0
 26 25  1  0  0  0  0
 27 20  2  0  0  0  0
 28 23  1  0  0  0  0
 29 22  2  0  0  0  0
M  END
>  <MODEL>
1

>  <REMARK>
 VINA RESULT:      -7.9      0.000      0.000
  Name = 
  2 active torsions:
  status: ('A' for Active; 'I' for Inactive)
    1  A    between atoms: C_14  and  N_23
    2  A    between atoms: C_15  and  C_19
                            x       y       z     vdW  Elec       q    Type
                         _______ _______ _______ _____ _____    ______ ____

>  <TORSDO>
F 2

$$$$
=
 OpenBabel11042422513D

 29 33  0  0  1  0  0  0  0  0999 V2000
  162.9070  209.9450  152.4620 C   0  0  0  0  0  1  0  0  0  0  0  0
  161.3870  207.2900  152.8260 C   0  0  0  0  0  2  0  0  0  0  0  0
  161.1740  208.6780  154.8860 C   0  0  0  0  0  0  0  0  0  0  0  0
  160.8720  208.4880  152.0350 C   0  0  1  0  0  3  0  0  0  0  0  0
  161.4000  209.8080  152.6250 C   0  0  1  0  0  3  0  0  0  0  0  0
  161.0190  209.9590  154.1050 C   0  0  1  0  0  3  0  0  0  0  0  0
  160.8590  207.3520  154.2560 C   0  0  0  0  0  2  0  0  0  0  0  0
  161.4980  208.7240  156.0610 O   0  0  0  0  0  0  0  0  0  0  0  0
  161.0540  207.1440  149.8890 C   0  0  0  0  0  0  0  0  0  0  0  0
  161.2620  203.8960  146.7590 C   0  0  0  0  0  2  0  0  0  0  0  0
  160.4730  205.9640  150.5750 C   0  0  0  0  0  3  0  0  0  0  0  0
  161.3540  204.8180  147.9170 C   0  0  0  0  0  0  0  0  0  0  0  0
  161.3290  207.1650  148.6130 N   0  0  0  0  0  0  0  0  0  0  0  0
  160.7470  204.6940  150.2870 C   0  0  0  0  0  3  0  0  0  0  0  0
  161.2200  208.3600  150.6260 N   0  0  0  0  0  2  0  0  0  0  0  0
  161.0030  206.4400  146.2140 C   0  0  0  0  0  2  0  0  0  0  0  0
  161.2020  206.1090  147.6450 C   0  0  0  0  0  0  0  0  0  0  0  0
  161.7490  204.3040  149.2570 C   0  0  0  0  0  2  0  0  0  0  0  0
  160.7280  204.8780  145.3220 S   0  0  0  0  0  0  0  0  0  0  0  0
  157.7610  211.8010  154.1230 C   0  0  0  0  0  0  0  0  0  0  0  0
  158.7950  210.2440  155.2380 C   0  0  0  0  0  3  0  0  0  0  0  0
  157.1190  213.4930  152.6070 C   0  0  0  0  0  0  0  0  0  0  0  0
  158.4470  213.3520  151.8610 C   0  0  0  0  0  2  0  0  0  0  0  0
  156.1770  214.4530  152.1450 N   0  0  0  0  0  1  0  0  0  0  0  0
  159.0190  211.6060  153.4880 C   0  0  0  0  0  0  0  0  0  0  0  0
  159.6560  210.5620  154.2680 C   0  0  0  0  0  0  0  0  0  0  0  0
  157.5940  211.0270  155.1420 N   0  0  0  0  0  0  0  0  0  0  0  0
  159.3900  212.3050  152.4240 C   0  0  0  0  0  3  0  0  0  0  0  0
  156.8250  212.7650  153.6500 N   0  0  0  0  0  0  0  0  0  0  0  0
  2  7  1  0  0  0  0
  3  8  2  0  0  0  0
  4 15  1  6  0  0  0
  4  5  1  0  0  0  0
  4  2  1  0  0  0  0
  5  1  1  1  0  0  0
  5  6  1  0  0  0  0
  6 26  1  6  0  0  0
  6  3  1  0  0  0  0
  7  3  1  0  0  0  0
  9 11  1  0  0  0  0
  9 15  1  0  0  0  0
 10 12  1  0  0  0  0
 12 18  1  0  0  0  0
 13  9  2  0  0  0  0
 14 11  2  0  0  0  0
 16 17  1  0  0  0  0
 17 12  2  0  0  0  0
 17 13  1  0  0  0  0
 18 14  1  0  0  0  0
 19 16  1  0  0  0  0
 19 10  1  0  0  0  0
 20 27  2  0  0  0  0
 22 29  2  0  0  0  0
 23 28  1  0  0  0  0
 23 22  1  0  0  0  0
 24 22  1  0  0  0  0
 25 20  1  0  0  0  0
 25 26  1  0  0  0  0
 26 21  2  0  0  0  0
 27 21  1  0  0  0  0
 28 25  2  0  0  0  0
 29 20  1  0  0  0  0
M  END
>  <MODEL>
2

>  <REMARK>
 VINA RESULT:      -7.7      1.097      1.942
  Name = 
  2 active torsions:
  status: ('A' for Active; 'I' for Inactive)
    1  A    between atoms: C_14  and  N_23
    2  A    between atoms: C_15  and  C_19
                            x       y       z     vdW  Elec       q    Type
                         _______ _______ _______ _____ _____    ______ ____

>  <TORSDO>
F 2

$$$$
=
 OpenBabel11042422513D

 29 33  0  0  1  0  0  0  0  0999 V2000
  162.3960  210.7140  140.6690 C   0  0  0  0  0  1  0  0  0  0  0  0
  162.2550  213.6770  139.8390 C   0  0  0  0  0  2  0  0  0  0  0  0
  161.0380  212.2720  138.1770 C   0  0  0  0  0  0  0  0  0  0  0  0
  161.3970  213.0340  140.9250 C   0  0  1  0  0  3  0  0  0  0  0  0
  161.1260  211.5520  140.6090 C   0  0  1  0  0  3  0  0  0  0  0  0
  160.4510  211.3790  139.2410 C   0  0  1  0  0  3  0  0  0  0  0  0
  161.5030  213.6610  138.5120 C   0  0  0  0  0  2  0  0  0  0  0  0
  161.0780  211.8880  137.0210 O   0  0  0  0  0  0  0  0  0  0  0  0
  161.2780  213.2040  143.4550 C   0  0  0  0  0  0  0  0  0  0  0  0
  159.9940  213.6890  147.7570 C   0  0  0  0  0  2  0  0  0  0  0  0
  159.8070  213.0150  143.4020 C   0  0  0  0  0  3  0  0  0  0  0  0
  160.2780  213.7370  146.3020 C   0  0  0  0  0  0  0  0  0  0  0  0
  161.9480  213.2760  144.5730 N   0  0  0  0  0  0  0  0  0  0  0  0
  158.9340  213.5280  144.2640 C   0  0  0  0  0  3  0  0  0  0  0  0
  162.0210  213.1930  142.2320 N   0  0  0  0  0  2  0  0  0  0  0  0
  162.3310  212.7770  147.0200 C   0  0  0  0  0  2  0  0  0  0  0  0
  161.4550  213.2540  145.9240 C   0  0  0  0  0  0  0  0  0  0  0  0
  159.3410  214.4310  145.3760 C   0  0  0  0  0  2  0  0  0  0  0  0
  161.3350  212.7400  148.5420 S   0  0  0  0  0  0  0  0  0  0  0  0
  156.7110  211.3200  139.1240 C   0  0  0  0  0  0  0  0  0  0  0  0
  158.3270  212.4890  139.9940 C   0  0  0  0  0  3  0  0  0  0  0  0
  155.3880  209.7470  137.9610 C   0  0  0  0  0  0  0  0  0  0  0  0
  156.6430  209.0150  137.4880 C   0  0  0  0  0  2  0  0  0  0  0  0
  154.1170  209.2490  137.5610 N   0  0  0  0  0  1  0  0  0  0  0  0
  157.9280  210.6980  138.7280 C   0  0  0  0  0  0  0  0  0  0  0  0
  158.9610  211.5150  139.3370 C   0  0  0  0  0  0  0  0  0  0  0  0
  156.9010  212.3610  139.8610 N   0  0  0  0  0  0  0  0  0  0  0  0
  157.9530  209.6160  137.9630 C   0  0  0  0  0  3  0  0  0  0  0  0
  155.4440  210.8110  138.7170 N   0  0  0  0  0  0  0  0  0  0  0  0
  2  4  1  0  0  0  0
  3  7  1  0  0  0  0
  3  6  1  0  0  0  0
  4 15  1  1  0  0  0
  5  1  1  6  0  0  0
  5  4  1  0  0  0  0
  6 26  1  1  0  0  0
  6  5  1  0  0  0  0
  7  2  1  0  0  0  0
  8  3  2  0  0  0  0
  9 13  2  0  0  0  0
 10 19  1  0  0  0  0
 11  9  1  0  0  0  0
 11 14  2  0  0  0  0
 12 10  1  0  0  0  0
 13 17  1  0  0  0  0
 14 18  1  0  0  0  0
 15  9  1  0  0  0  0
 16 19  1  0  0  0  0
 17 12  2  0  0  0  0
 17 16  1  0  0  0  0
 18 12  1  0  0  0  0
 20 27  2  0  0  0  0
 22 29  2  0  0  0  0
 23 22  1  0  0  0  0
 23 28  1  0  0  0  0
 24 22  1  0  0  0  0
 25 20  1  0  0  0  0
 25 26  1  0  0  0  0
 26 21  2  0  0  0  0
 27 21  1  0  0  0  0
 28 25  2  0  0  0  0
 29 20  1  0  0  0  0
M  END
>  <MODEL>
3

>  <REMARK>
 VINA RESULT:      -6.0      9.460     13.614
  Name = 
  2 active torsions:
  status: ('A' for Active; 'I' for Inactive)
    1  A    between atoms: C_14  and  N_23
    2  A    between atoms: C_15  and  C_19
                            x       y       z     vdW  Elec       q    Type
                         _______ _______ _______ _____ _____    ______ ____

>  <TORSDO>
F 2

$$$$
=
 OpenBabel11042422513D

 29 33  0  0  1  0  0  0  0  0999 V2000
  162.5860  210.3340  153.3970 C   0  0  0  0  0  1  0  0  0  0  0  0
  160.3880  211.7530  151.7710 C   0  0  0  0  0  2  0  0  0  0  0  0
  162.0670  210.7450  150.2280 C   0  0  0  0  0  0  0  0  0  0  0  0
  160.2430  210.3800  152.4190 C   0  0  1  0  0  3  0  0  0  0  0  0
  161.5960  209.6470  152.4670 C   0  0  1  0  0  3  0  0  0  0  0  0
  162.2100  209.5000  151.0680 C   0  0  1  0  0  3  0  0  0  0  0  0
  160.8310  211.5940  150.3200 C   0  0  0  0  0  2  0  0  0  0  0  0
  162.9340  211.0300  149.4190 O   0  0  0  0  0  0  0  0  0  0  0  0
  158.6040  211.4190  154.0560 C   0  0  0  0  0  0  0  0  0  0  0  0
  155.6140  214.0460  156.1870 C   0  0  0  0  0  2  0  0  0  0  0  0
  158.0580  212.2720  152.9720 C   0  0  0  0  0  3  0  0  0  0  0  0
  156.7200  213.3990  155.4410 C   0  0  0  0  0  0  0  0  0  0  0  0
  158.1040  211.3880  155.2610 N   0  0  0  0  0  0  0  0  0  0  0  0
  157.5440  213.4880  153.1350 C   0  0  0  0  0  3  0  0  0  0  0  0
  159.6570  210.5000  153.7480 N   0  0  0  0  0  2  0  0  0  0  0  0
  156.2320  211.6210  156.9420 C   0  0  0  0  0  2  0  0  0  0  0  0
  157.0200  212.1590  155.8080 C   0  0  0  0  0  0  0  0  0  0  0  0
  157.5190  214.1770  154.4550 C   0  0  0  0  0  2  0  0  0  0  0  0
  154.8660  212.7810  157.2600 S   0  0  0  0  0  0  0  0  0  0  0  0
  161.0840  206.1830  149.7490 C   0  0  0  0  0  0  0  0  0  0  0  0
  161.3070  208.2450  149.0880 C   0  0  0  0  0  3  0  0  0  0  0  0
  161.0510  204.1540  150.9550 C   0  0  0  0  0  0  0  0  0  0  0  0
  161.5800  204.8650  152.2010 C   0  0  0  0  0  2  0  0  0  0  0  0
  160.7940  202.7570  151.0260 N   0  0  0  0  0  1  0  0  0  0  0  0
  161.5770  206.9210  150.8610 C   0  0  0  0  0  0  0  0  0  0  0  0
  161.7000  208.2780  150.3630 C   0  0  0  0  0  0  0  0  0  0  0  0
  160.9130  206.9170  148.7020 N   0  0  0  0  0  0  0  0  0  0  0  0
  161.8260  206.3530  152.0330 C   0  0  0  0  0  3  0  0  0  0  0  0
  160.8290  204.7840  149.8330 N   0  0  0  0  0  0  0  0  0  0  0  0
  2  4  1  0  0  0  0
  3  7  1  0  0  0  0
  3  6  1  0  0  0  0
  4  5  1  0  0  0  0
  4 15  1  1  0  0  0
  5  1  1  1  0  0  0
  6 26  1  6  0  0  0
  6  5  1  0  0  0  0
  7  2  1  0  0  0  0
  8  3  2  0  0  0  0
  9 13  2  0  0  0  0
 10 19  1  0  0  0  0
 11 14  2  0  0  0  0
 11  9  1  0  0  0  0
 12 17  2  0  0  0  0
 12 10  1  0  0  0  0
 13 17  1  0  0  0  0
 14 18  1  0  0  0  0
 15  9  1  0  0  0  0
 16 19  1  0  0  0  0
 17 16  1  0  0  0  0
 18 12  1  0  0  0  0
 20 29  1  0  0  0  0
 20 25  1  0  0  0  0
 21 26  2  0  0  0  0
 22 24  1  0  0  0  0
 22 23  1  0  0  0  0
 25 28  2  0  0  0  0
 26 25  1  0  0  0  0
 27 21  1  0  0  0  0
 27 20  2  0  0  0  0
 28 23  1  0  0  0  0
 29 22  2  0  0  0  0
M  END
>  <MODEL>
4

>  <REMARK>
 VINA RESULT:      -5.7      3.722      8.745
  Name = 
  2 active torsions:
  status: ('A' for Active; 'I' for Inactive)
    1  A    between atoms: C_14  and  N_23
    2  A    between atoms: C_15  and  C_19
                            x       y       z     vdW  Elec       q    Type
                         _______ _______ _______ _____ _____    ______ ____

>  <TORSDO>
F 2

$$$$
=
 OpenBabel11042422513D

 29 33  0  0  1  0  0  0  0  0999 V2000
  163.5830  206.1640  151.5900 C   0  0  0  0  0  1  0  0  0  0  0  0
  160.7410  205.0090  151.8740 C   0  0  0  0  0  2  0  0  0  0  0  0
  161.2710  206.4510  153.8380 C   0  0  0  0  0  0  0  0  0  0  0  0
  161.1180  206.1870  150.9810 C   0  0  1  0  0  3  0  0  0  0  0  0
  162.2960  206.9780  151.5770 C   0  0  1  0  0  3  0  0  0  0  0  0
  161.9820  207.4790  152.9940 C   0  0  1  0  0  3  0  0  0  0  0  0
  160.2600  205.5230  153.2270 C   0  0  0  0  0  2  0  0  0  0  0  0
  161.4720  206.4140  155.0410 O   0  0  0  0  0  0  0  0  0  0  0  0
  161.0800  204.4220  149.1560 C   0  0  0  0  0  0  0  0  0  0  0  0
  160.8010  200.6050  146.7600 C   0  0  0  0  0  2  0  0  0  0  0  0
  160.3680  203.4920  150.0670 C   0  0  0  0  0  3  0  0  0  0  0  0
  161.0370  201.7240  147.7040 C   0  0  0  0  0  0  0  0  0  0  0  0
  161.3260  204.1470  147.9050 N   0  0  0  0  0  0  0  0  0  0  0  0
  160.4720  202.1650  150.0470 C   0  0  0  0  0  3  0  0  0  0  0  0
  161.4160  205.7310  149.6300 N   0  0  0  0  0  2  0  0  0  0  0  0
  160.8560  202.9970  145.7040 C   0  0  0  0  0  2  0  0  0  0  0  0
  161.0430  202.9410  147.1730 C   0  0  0  0  0  0  0  0  0  0  0  0
  161.3930  201.4480  149.1230 C   0  0  0  0  0  2  0  0  0  0  0  0
  160.3650  201.3340  145.1500 S   0  0  0  0  0  0  0  0  0  0  0  0
  160.2940  210.7870  153.4560 C   0  0  0  0  0  0  0  0  0  0  0  0
  160.5590  209.2560  151.9320 C   0  0  0  0  0  3  0  0  0  0  0  0
  160.3230  212.0920  155.4240 C   0  0  0  0  0  0  0  0  0  0  0  0
  161.2080  211.0570  156.1180 C   0  0  0  0  0  2  0  0  0  0  0  0
  159.9350  213.2530  156.1490 N   0  0  0  0  0  1  0  0  0  0  0  0
  161.1150  209.7760  154.0280 C   0  0  0  0  0  0  0  0  0  0  0  0
  161.2590  208.7920  152.9710 C   0  0  0  0  0  0  0  0  0  0  0  0
  159.9520  210.5220  152.2410 N   0  0  0  0  0  0  0  0  0  0  0  0
  161.5720  209.8530  155.2700 C   0  0  0  0  0  3  0  0  0  0  0  0
  159.9120  211.9460  154.1930 N   0  0  0  0  0  0  0  0  0  0  0  0
  2  7  1  0  0  0  0
  3  8  2  0  0  0  0
  4 15  1  6  0  0  0
  4  5  1  0  0  0  0
  4  2  1  0  0  0  0
  5  1  1  1  0  0  0
  5  6  1  0  0  0  0
  6 26  1  6  0  0  0
  6  3  1  0  0  0  0
  7  3  1  0  0  0  0
  9 15  1  0  0  0  0
  9 11  1  0  0  0  0
 10 12  1  0  0  0  0
 12 18  1  0  0  0  0
 13  9  2  0  0  0  0
 14 11  2  0  0  0  0
 16 17  1  0  0  0  0
 17 12  2  0  0  0  0
 17 13  1  0  0  0  0
 18 14  1  0  0  0  0
 19 16  1  0  0  0  0
 19 10  1  0  0  0  0
 20 25  1  0  0  0  0
 20 29  1  0  0  0  0
 21 27  1  0  0  0  0
 21 26  2  0  0  0  0
 22 23  1  0  0  0  0
 22 24  1  0  0  0  0
 25 28  2  0  0  0  0
 26 25  1  0  0  0  0
 27 20  2  0  0  0  0
 28 23  1  0  0  0  0
 29 22  2  0  0  0  0
M  END
>  <MODEL>
5

>  <REMARK>
 VINA RESULT:      -5.6      2.182      2.939
  Name = 
  2 active torsions:
  status: ('A' for Active; 'I' for Inactive)
    1  A    between atoms: C_14  and  N_23
    2  A    between atoms: C_15  and  C_19
                            x       y       z     vdW  Elec       q    Type
                         _______ _______ _______ _____ _____    ______ ____

>  <TORSDO>
F 2

$$$$
=
 OpenBabel11042422513D

 29 33  0  0  1  0  0  0  0  0999 V2000
  161.9410  210.0460  155.1310 C   0  0  0  0  0  1  0  0  0  0  0  0
  160.1130  211.2390  152.9570 C   0  0  0  0  0  2  0  0  0  0  0  0
  162.0270  210.0450  151.8950 C   0  0  0  0  0  0  0  0  0  0  0  0
  159.8220  209.9600  153.7360 C   0  0  1  0  0  3  0  0  0  0  0  0
  161.1260  209.2420  154.1280 C   0  0  1  0  0  3  0  0  0  0  0  0
  161.9860  208.9180  152.8980 C   0  0  1  0  0  3  0  0  0  0  0  0
  160.8140  210.8950  151.6460 C   0  0  0  0  0  2  0  0  0  0  0  0
  163.0350  210.2260  151.2330 O   0  0  0  0  0  0  0  0  0  0  0  0
  158.0500  211.3160  154.9470 C   0  0  0  0  0  0  0  0  0  0  0  0
  155.0950  214.4530  156.2920 C   0  0  0  0  0  2  0  0  0  0  0  0
  157.8610  212.1540  153.7380 C   0  0  0  0  0  3  0  0  0  0  0  0
  156.2250  213.6160  155.8220 C   0  0  0  0  0  0  0  0  0  0  0  0
  157.3180  211.4350  156.0200 N   0  0  0  0  0  0  0  0  0  0  0  0
  157.5020  213.4360  153.7390 C   0  0  0  0  0  3  0  0  0  0  0  0
  159.0030  210.2480  154.9050 N   0  0  0  0  0  2  0  0  0  0  0  0
  155.1970  212.0270  157.2600 C   0  0  0  0  0  2  0  0  0  0  0  0
  156.2660  212.3770  156.2960 C   0  0  0  0  0  0  0  0  0  0  0  0
  157.3090  214.2130  154.9940 C   0  0  0  0  0  2  0  0  0  0  0  0
  153.9730  213.3740  157.2360 S   0  0  0  0  0  0  0  0  0  0  0  0
  161.0530  205.9170  150.8650 C   0  0  0  0  0  0  0  0  0  0  0  0
  161.1470  206.5510  152.9460 C   0  0  0  0  0  3  0  0  0  0  0  0
  161.1360  205.7610  148.5110 C   0  0  0  0  0  0  0  0  0  0  0  0
  161.6700  207.1900  148.4170 C   0  0  0  0  0  2  0  0  0  0  0  0
  160.9370  205.0280  147.3080 N   0  0  0  0  0  1  0  0  0  0  0  0
  161.5450  207.2520  150.8670 C   0  0  0  0  0  0  0  0  0  0  0  0
  161.5890  207.6150  152.2710 C   0  0  0  0  0  0  0  0  0  0  0  0
  160.8110  205.4750  152.0530 N   0  0  0  0  0  0  0  0  0  0  0  0
  161.8510  207.8950  149.7490 C   0  0  0  0  0  3  0  0  0  0  0  0
  160.8580  205.1930  149.6540 N   0  0  0  0  0  0  0  0  0  0  0  0
  2  4  1  0  0  0  0
  3  6  1  0  0  0  0
  4  5  1  0  0  0  0
  4 15  1  1  0  0  0
  5  1  1  1  0  0  0
  6 26  1  6  0  0  0
  6  5  1  0  0  0  0
  7  3  1  0  0  0  0
  7  2  1  0  0  0  0
  8  3  2  0  0  0  0
  9 13  2  0  0  0  0
 10 19  1  0  0  0  0
 11 14  2  0  0  0  0
 11  9  1  0  0  0  0
 12 10  1  0  0  0  0
 12 17  2  0  0  0  0
 13 17  1  0  0  0  0
 14 18  1  0  0  0  0
 15  9  1  0  0  0  0
 17 16  1  0  0  0  0
 18 12  1  0  0  0  0
 19 16  1  0  0  0  0
 20 25  1  0  0  0  0
 20 27  2  0  0  0  0
 22 29  2  0  0  0  0
 23 22  1  0  0  0  0
 23 28  1  0  0  0  0
 24 22  1  0  0  0  0
 25 26  1  0  0  0  0
 26 21  2  0  0  0  0
 27 21  1  0  0  0  0
 28 25  2  0  0  0  0
 29 20  1  0  0  0  0
M  END
>  <MODEL>
6

>  <REMARK>
 VINA RESULT:      -5.4      3.575      9.054
  Name = 
  2 active torsions:
  status: ('A' for Active; 'I' for Inactive)
    1  A    between atoms: C_14  and  N_23
    2  A    between atoms: C_15  and  C_19
                            x       y       z     vdW  Elec       q    Type
                         _______ _______ _______ _____ _____    ______ ____

>  <TORSDO>
F 2

$$$$
=
 OpenBabel11042422513D

 29 33  0  0  1  0  0  0  0  0999 V2000
  163.6120  206.2340  151.2480 C   0  0  0  0  0  1  0  0  0  0  0  0
  160.8020  205.0380  151.6540 C   0  0  0  0  0  2  0  0  0  0  0  0
  161.3420  206.5890  153.5300 C   0  0  0  0  0  0  0  0  0  0  0  0
  161.1340  206.1750  150.6930 C   0  0  1  0  0  3  0  0  0  0  0  0
  162.3080  207.0200  151.2230 C   0  0  1  0  0  3  0  0  0  0  0  0
  162.0130  207.5870  152.6190 C   0  0  1  0  0  3  0  0  0  0  0  0
  160.3380  205.6100  152.9890 C   0  0  0  0  0  2  0  0  0  0  0  0
  161.5680  206.6180  154.7280 O   0  0  0  0  0  0  0  0  0  0  0  0
  161.0950  204.3180  148.9620 C   0  0  0  0  0  0  0  0  0  0  0  0
  160.8470  200.3790  146.7700 C   0  0  0  0  0  2  0  0  0  0  0  0
  160.4220  203.4220  149.9350 C   0  0  0  0  0  3  0  0  0  0  0  0
  161.0780  201.5490  147.6510 C   0  0  0  0  0  0  0  0  0  0  0  0
  161.3210  203.9840  147.7210 N   0  0  0  0  0  0  0  0  0  0  0  0
  160.5530  202.0990  149.9800 C   0  0  0  0  0  3  0  0  0  0  0  0
  161.4130  205.6560  149.3610 N   0  0  0  0  0  2  0  0  0  0  0  0
  160.8290  202.7140  145.5930 C   0  0  0  0  0  2  0  0  0  0  0  0
  161.0480  202.7370  147.0580 C   0  0  0  0  0  0  0  0  0  0  0  0
  161.4700  201.3530  149.0740 C   0  0  0  0  0  2  0  0  0  0  0  0
  160.3620  201.0160  145.1350 S   0  0  0  0  0  0  0  0  0  0  0  0
  160.4470  210.9320  152.0130 C   0  0  0  0  0  0  0  0  0  0  0  0
  160.3830  209.3050  153.4580 C   0  0  0  0  0  3  0  0  0  0  0  0
  160.9070  212.3650  150.1940 C   0  0  0  0  0  0  0  0  0  0  0  0
  161.8960  211.3500  149.6210 C   0  0  0  0  0  2  0  0  0  0  0  0
  160.7010  213.5860  149.4930 N   0  0  0  0  0  1  0  0  0  0  0  0
  161.3500  209.9340  151.5490 C   0  0  0  0  0  0  0  0  0  0  0  0
  161.2610  208.8810  152.5440 C   0  0  0  0  0  0  0  0  0  0  0  0
  159.8660  210.6020  153.1170 N   0  0  0  0  0  0  0  0  0  0  0  0
  162.0530  210.0790  150.4350 C   0  0  0  0  0  3  0  0  0  0  0  0
  160.2490  212.1500  151.3010 N   0  0  0  0  0  0  0  0  0  0  0  0
  2  7  1  0  0  0  0
  3  8  2  0  0  0  0
  4 15  1  6  0  0  0
  4  5  1  0  0  0  0
  4  2  1  0  0  0  0
  5  1  1  1  0  0  0
  5  6  1  0  0  0  0
  6 26  1  6  0  0  0
  6  3  1  0  0  0  0
  7  3  1  0  0  0  0
  9 15  1  0  0  0  0
  9 11  1  0  0  0  0
 10 12  1  0  0  0  0
 11 14  2  0  0  0  0
 12 18  1  0  0  0  0
 13  9  2  0  0  0  0
 16 17  1  0  0  0  0
 17 12  2  0  0  0  0
 17 13  1  0  0  0  0
 18 14  1  0  0  0  0
 19 16  1  0  0  0  0
 19 10  1  0  0  0  0
 20 27  2  0  0  0  0
 22 29  2  0  0  0  0
 23 22  1  0  0  0  0
 23 28  1  0  0  0  0
 24 22  1  0  0  0  0
 25 20  1  0  0  0  0
 25 26  1  0  0  0  0
 26 21  2  0  0  0  0
 27 21  1  0  0  0  0
 28 25  2  0  0  0  0
 29 20  1  0  0  0  0
M  END
>  <MODEL>
7

>  <REMARK>
 VINA RESULT:      -5.4      2.696      4.098
  Name = 
  2 active torsions:
  status: ('A' for Active; 'I' for Inactive)
    1  A    between atoms: C_14  and  N_23
    2  A    between atoms: C_15  and  C_19
                            x       y       z     vdW  Elec       q    Type
                         _______ _______ _______ _____ _____    ______ ____

>  <TORSDO>
F 2

$$$$
=
 OpenBabel11042422513D

 29 33  0  0  1  0  0  0  0  0999 V2000
  163.1680  206.3820  152.2400 C   0  0  0  0  0  1  0  0  0  0  0  0
  160.5590  205.5590  153.6580 C   0  0  0  0  0  2  0  0  0  0  0  0
  161.4520  207.6530  154.6740 C   0  0  0  0  0  0  0  0  0  0  0  0
  160.6320  206.2530  152.3020 C   0  0  1  0  0  3  0  0  0  0  0  0
  161.8650  207.1710  152.2170 C   0  0  1  0  0  3  0  0  0  0  0  0
  161.8700  208.2190  153.3390 C   0  0  1  0  0  3  0  0  0  0  0  0
  160.3860  206.5990  154.7610 C   0  0  0  0  0  2  0  0  0  0  0  0
  161.9380  208.1030  155.6980 O   0  0  0  0  0  0  0  0  0  0  0  0
  160.9730  205.5970  149.8730 C   0  0  0  0  0  0  0  0  0  0  0  0
  161.5410  205.5220  145.3950 C   0  0  0  0  0  2  0  0  0  0  0  0
  161.3910  206.9840  149.5540 C   0  0  0  0  0  3  0  0  0  0  0  0
  161.1700  205.7110  146.8170 C   0  0  0  0  0  0  0  0  0  0  0  0
  161.0040  204.6240  149.0040 N   0  0  0  0  0  0  0  0  0  0  0  0
  161.2060  207.5940  148.3850 C   0  0  0  0  0  3  0  0  0  0  0  0
  160.6250  205.2730  151.2240 N   0  0  0  0  0  2  0  0  0  0  0  0
  161.8920  203.4500  146.9500 C   0  0  0  0  0  2  0  0  0  0  0  0
  161.3670  204.6670  147.6130 C   0  0  0  0  0  0  0  0  0  0  0  0
  160.4780  206.9550  147.2550 C   0  0  0  0  0  2  0  0  0  0  0  0
  162.3850  203.9150  145.2610 S   0  0  0  0  0  0  0  0  0  0  0  0
  160.2460  211.3170  152.0090 C   0  0  0  0  0  0  0  0  0  0  0  0
  160.0840  209.9490  153.6940 C   0  0  0  0  0  3  0  0  0  0  0  0
  160.8530  212.4580  150.0330 C   0  0  0  0  0  0  0  0  0  0  0  0
  161.9440  211.4240  149.7500 C   0  0  0  0  0  2  0  0  0  0  0  0
  160.6790  213.5310  149.1160 N   0  0  0  0  0  1  0  0  0  0  0  0
  161.2370  210.3140  151.8210 C   0  0  0  0  0  0  0  0  0  0  0  0
  161.0780  209.4350  152.9650 C   0  0  0  0  0  0  0  0  0  0  0  0
  159.5560  211.1390  153.0840 N   0  0  0  0  0  0  0  0  0  0  0  0
  162.0580  210.3160  150.7800 C   0  0  0  0  0  3  0  0  0  0  0  0
  160.0810  212.3880  151.0830 N   0  0  0  0  0  0  0  0  0  0  0  0
  2  7  1  0  0  0  0
  3  7  1  0  0  0  0
  3  8  2  0  0  0  0
  4 15  1  6  0  0  0
  4  2  1  0  0  0  0
  5  1  1  1  0  0  0
  5  4  1  0  0  0  0
  5  6  1  0  0  0  0
  6 26  1  6  0  0  0
  6  3  1  0  0  0  0
  9 15  1  0  0  0  0
 10 12  1  0  0  0  0
 11  9  1  0  0  0  0
 12 18  1  0  0  0  0
 12 17  2  0  0  0  0
 13  9  2  0  0  0  0
 14 11  2  0  0  0  0
 16 17  1  0  0  0  0
 17 13  1  0  0  0  0
 18 14  1  0  0  0  0
 19 10  1  0  0  0  0
 19 16  1  0  0  0  0
 20 27  2  0  0  0  0
 22 29  2  0  0  0  0
 23 22  1  0  0  0  0
 23 28  1  0  0  0  0
 24 22  1  0  0  0  0
 25 20  1  0  0  0  0
 25 26  1  0  0  0  0
 26 21  2  0  0  0  0
 27 21  1  0  0  0  0
 28 25  2  0  0  0  0
 29 20  1  0  0  0  0
M  END
>  <MODEL>
8

>  <REMARK>
 VINA RESULT:      -5.3      2.263      3.805
  Name = 
  2 active torsions:
  status: ('A' for Active; 'I' for Inactive)
    1  A    between atoms: C_14  and  N_23
    2  A    between atoms: C_15  and  C_19
                            x       y       z     vdW  Elec       q    Type
                         _______ _______ _______ _____ _____    ______ ____

>  <TORSDO>
F 2

$$$$
=
 OpenBabel11042422513D

 29 33  0  0  1  0  0  0  0  0999 V2000
  159.1610  204.0290  151.7430 C   0  0  0  0  0  1  0  0  0  0  0  0
  162.0330  202.9460  152.0110 C   0  0  0  0  0  2  0  0  0  0  0  0
  161.1880  202.5460  149.6990 C   0  0  0  0  0  0  0  0  0  0  0  0
  161.6690  204.4160  151.8280 C   0  0  1  0  0  3  0  0  0  0  0  0
  160.3780  204.5670  151.0030 C   0  0  1  0  0  3  0  0  0  0  0  0
  160.4990  203.8860  149.6330 C   0  0  1  0  0  3  0  0  0  0  0  0
  162.3250  202.3150  150.6530 C   0  0  0  0  0  2  0  0  0  0  0  0
  160.8610  201.6600  148.9270 O   0  0  0  0  0  0  0  0  0  0  0  0
  161.2570  206.4730  153.2570 C   0  0  0  0  0  0  0  0  0  0  0  0
  160.7020  210.6630  154.8460 C   0  0  0  0  0  2  0  0  0  0  0  0
  161.0230  207.2800  152.0340 C   0  0  0  0  0  3  0  0  0  0  0  0
  161.0890  209.3800  154.2110 C   0  0  0  0  0  0  0  0  0  0  0  0
  161.1040  206.9460  154.4640 N   0  0  0  0  0  0  0  0  0  0  0  0
  161.2900  208.5770  151.9050 C   0  0  0  0  0  3  0  0  0  0  0  0
  161.5550  205.0800  153.1200 N   0  0  0  0  0  2  0  0  0  0  0  0
  160.0810  208.4990  156.1750 C   0  0  0  0  0  2  0  0  0  0  0  0
  160.7560  208.2800  154.8740 C   0  0  0  0  0  0  0  0  0  0  0  0
  161.9340  209.3740  152.9850 C   0  0  0  0  0  2  0  0  0  0  0  0
  159.6590  210.2660  156.2840 S   0  0  0  0  0  0  0  0  0  0  0  0
  161.9050  205.7870  146.7310 C   0  0  0  0  0  0  0  0  0  0  0  0
  161.8390  205.8820  148.9050 C   0  0  0  0  0  3  0  0  0  0  0  0
  161.6740  205.2070  144.4550 C   0  0  0  0  0  0  0  0  0  0  0  0
  160.8330  203.9870  144.8330 C   0  0  0  0  0  2  0  0  0  0  0  0
  161.9340  205.4540  143.0780 N   0  0  0  0  0  1  0  0  0  0  0  0
  161.1330  204.6740  147.1690 C   0  0  0  0  0  0  0  0  0  0  0  0
  161.1210  204.7940  148.6150 C   0  0  0  0  0  0  0  0  0  0  0  0
  162.3310  206.5120  147.7100 N   0  0  0  0  0  0  0  0  0  0  0  0
  160.6070  203.8010  146.3220 C   0  0  0  0  0  3  0  0  0  0  0  0
  162.1590  206.0240  145.3500 N   0  0  0  0  0  0  0  0  0  0  0  0
  3  7  1  0  0  0  0
  4  2  1  0  0  0  0
  4 15  1  1  0  0  0
  5  1  1  1  0  0  0
  5  4  1  0  0  0  0
  6 26  1  6  0  0  0
  6  3  1  0  0  0  0
  6  5  1  0  0  0  0
  7  2  1  0  0  0  0
  8  3  2  0  0  0  0
  9 13  2  0  0  0  0
 10 19  1  0  0  0  0
 11  9  1  0  0  0  0
 12 10  1  0  0  0  0
 12 17  2  0  0  0  0
 13 17  1  0  0  0  0
 14 11  2  0  0  0  0
 14 18  1  0  0  0  0
 15  9  1  0  0  0  0
 16 19  1  0  0  0  0
 17 16  1  0  0  0  0
 18 12  1  0  0  0  0
 20 25  1  0  0  0  0
 20 27  2  0  0  0  0
 22 23  1  0  0  0  0
 22 29  2  0  0  0  0
 23 28  1  0  0  0  0
 24 22  1  0  0  0  0
 25 26  1  0  0  0  0
 26 21  2  0  0  0  0
 27 21  1  0  0  0  0
 28 25  2  0  0  0  0
 29 20  1  0  0  0  0
M  END
>  <MODEL>
9

>  <REMARK>
 VINA RESULT:      -5.0      4.152      9.195
  Name = 
  2 active torsions:
  status: ('A' for Active; 'I' for Inactive)
    1  A    between atoms: C_14  and  N_23
    2  A    between atoms: C_15  and  C_19
                            x       y       z     vdW  Elec       q    Type
                         _______ _______ _______ _____ _____    ______ ____

>  <TORSDO>
F 2

$$$$
