=
 OpenBabel11042420433D

 27 31  0  0  1  0  0  0  0  0999 V2000
  162.3990  210.3850  156.1260 C   0  0  0  0  0  3  0  0  0  0  0  0
  159.3870  211.5970  154.5010 C   0  0  0  0  0  3  0  0  0  0  0  0
  162.5670  209.5910  157.2610 C   0  0  0  0  0  3  0  0  0  0  0  0
  161.8050  209.8450  154.9810 C   0  0  0  0  0  0  0  0  0  0  0  0
  158.5790  211.8620  151.8600 C   0  0  0  0  0  3  0  0  0  0  0  0
  161.6720  207.7600  152.7140 N   0  0  1  0  0  0  0  0  0  0  0  0
  162.4920  210.3410  152.6940 O   0  0  0  0  0  0  0  0  0  0  0  0
  159.8560  211.3710  152.1420 C   0  0  0  0  0  0  0  0  0  0  0  0
  161.6630  210.7420  153.7830 C   0  0  1  0  0  3  0  0  0  0  0  0
  160.7920  211.0050  151.0380 C   0  0  1  0  0  3  0  0  0  0  0  0
  161.7010  206.4300  150.7250 C   0  0  2  0  0  3  0  0  0  0  0  0
  158.1170  212.0820  154.1790 C   0  0  0  0  0  3  0  0  0  0  0  0
  161.5450  212.2330  150.5540 C   0  0  0  0  0  1  0  0  0  0  0  0
  161.6330  206.3870  152.2360 C   0  0  0  0  0  2  0  0  0  0  0  0
  161.5760  207.7410  156.1550 C   0  0  0  0  0  3  0  0  0  0  0  0
  161.2360  207.8130  150.3400 C   0  0  0  0  0  2  0  0  0  0  0  0
  160.2620  211.2240  153.4730 C   0  0  0  0  0  0  0  0  0  0  0  0
  161.0990  208.5700  151.6470 C   0  0  2  0  0  3  0  0  0  0  0  0
  160.7380  207.8430  153.8240 C   0  0  0  0  0  2  0  0  0  0  0  0
  157.7410  212.2010  152.8760 N   0  0  0  0  0  0  0  0  0  0  0  0
  161.3860  208.4980  154.9970 C   0  0  0  0  0  0  0  0  0  0  0  0
  162.1550  208.2960  157.2520 N   0  0  0  0  0  0  0  0  0  0  0  0
  161.7760  209.9420  151.5320 C   0  0  2  0  0  3  0  0  0  0  0  0
  160.1240  203.0680  150.0830 O   0  0  0  0  0  1  0  0  0  0  0  0
  160.8260  205.3800  150.1200 C   0  0  0  0  0  0  0  0  0  0  0  0
  160.0260  205.6710  149.1890 O   0  0  0  0  0  0  0  0  0  0  0  0
  160.9030  204.0430  150.6070 N   0  0  0  0  0  2  0  0  0  0  0  0
  1  3  1  0  0  0  0
  4 21  1  0  0  0  0
  4  1  2  0  0  0  0
  5  8  2  0  0  0  0
  5 20  1  0  0  0  0
  6 14  1  6  0  0  0
  6 19  1  0  0  0  0
  8 17  1  0  0  0  0
  9  7  1  6  0  0  0
  9  4  1  0  0  0  0
 10 13  1  1  0  0  0
 10 23  1  0  0  0  0
 10  8  1  0  0  0  0
 11 25  1  6  0  0  0
 11 14  1  0  0  0  0
 12  2  1  0  0  0  0
 15 22  1  0  0  0  0
 16 11  1  0  0  0  0
 17  9  1  0  0  0  0
 17  2  2  0  0  0  0
 18 16  1  6  0  0  0
 18  6  1  0  0  0  0
 19 21  1  0  0  0  0
 20 12  2  0  0  0  0
 21 15  2  0  0  0  0
 22  3  2  0  0  0  0
 23 18  1  0  0  0  0
 23  7  1  1  0  0  0
 24 27  1  0  0  0  0
 25 27  1  0  0  0  0
 26 25  2  0  0  0  0
M  END
>  <MODEL>
1

>  <REMARK>
 VINA RESULT:      -5.0      0.000      0.000
  Name = 
  1 active torsions:
  status: ('A' for Active; 'I' for Inactive)
    1  A    between atoms: C_9  and  C_13
                            x       y       z     vdW  Elec       q    Type
                         _______ _______ _______ _____ _____    ______ ____

>  <TORSDO>
F 1

$$$$
=
 OpenBabel11042420433D

 27 31  0  0  1  0  0  0  0  0999 V2000
  160.8280  212.7120  151.0440 C   0  0  0  0  0  3  0  0  0  0  0  0
  160.8050  209.2210  152.0420 C   0  0  0  0  0  3  0  0  0  0  0  0
  160.1970  213.3620  149.9840 C   0  0  0  0  0  3  0  0  0  0  0  0
  160.0640  212.1530  152.0730 C   0  0  0  0  0  0  0  0  0  0  0  0
  160.6510  207.8990  154.4760 C   0  0  0  0  0  3  0  0  0  0  0  0
  157.9780  212.3670  154.3330 N   0  0  1  0  0  0  0  0  0  0  0  0
  160.6780  212.1800  154.4330 O   0  0  0  0  0  0  0  0  0  0  0  0
  160.6650  209.2960  154.4530 C   0  0  0  0  0  0  0  0  0  0  0  0
  160.7980  211.4780  153.1970 C   0  0  1  0  0  3  0  0  0  0  0  0
  160.6160  210.0790  155.7220 C   0  0  1  0  0  3  0  0  0  0  0  0
  156.6660  212.5070  156.3300 C   0  0  2  0  0  3  0  0  0  0  0  0
  160.7860  207.8260  152.1070 C   0  0  0  0  0  3  0  0  0  0  0  0
  162.0110  210.2340  156.3030 C   0  0  0  0  0  1  0  0  0  0  0  0
  156.6650  212.7390  154.8350 C   0  0  0  0  0  2  0  0  0  0  0  0
  158.0700  212.9220  150.9370 C   0  0  0  0  0  3  0  0  0  0  0  0
  157.7720  211.5110  156.5810 C   0  0  0  0  0  2  0  0  0  0  0  0
  160.7300  209.9660  153.2250 C   0  0  0  0  0  0  0  0  0  0  0  0
  158.4820  211.3540  155.2510 C   0  0  2  0  0  3  0  0  0  0  0  0
  157.7660  211.6880  153.0660 C   0  0  0  0  0  2  0  0  0  0  0  0
  160.7070  207.1990  153.3110 N   0  0  0  0  0  0  0  0  0  0  0  0
  158.6580  212.2600  152.0180 C   0  0  0  0  0  0  0  0  0  0  0  0
  158.8410  213.4530  149.9520 N   0  0  0  0  0  0  0  0  0  0  0  0
  160.0000  211.4540  155.4510 C   0  0  2  0  0  3  0  0  0  0  0  0
  153.9050  210.0620  157.1030 O   0  0  0  0  0  1  0  0  0  0  0  0
  155.3470  211.9750  156.7900 C   0  0  0  0  0  0  0  0  0  0  0  0
  154.4710  212.7520  157.2570 O   0  0  0  0  0  0  0  0  0  0  0  0
  155.0880  210.5770  156.6950 N   0  0  0  0  0  2  0  0  0  0  0  0
  1  4  1  0  0  0  0
  2 12  2  0  0  0  0
  2 17  1  0  0  0  0
  3  1  2  0  0  0  0
  6 19  1  6  0  0  0
  6 14  1  0  0  0  0
  6 18  1  0  0  0  0
  8  5  1  0  0  0  0
  8 10  1  0  0  0  0
  9  4  1  6  0  0  0
  9 17  1  0  0  0  0
  9  7  1  0  0  0  0
 10 13  1  6  0  0  0
 11 16  1  0  0  0  0
 11 25  1  6  0  0  0
 12 20  1  0  0  0  0
 14 11  1  0  0  0  0
 15 21  1  0  0  0  0
 17  8  2  0  0  0  0
 18 23  1  0  0  0  0
 18 16  1  1  0  0  0
 20  5  2  0  0  0  0
 21  4  2  0  0  0  0
 21 19  1  0  0  0  0
 22  3  1  0  0  0  0
 22 15  2  0  0  0  0
 23  7  1  6  0  0  0
 23 10  1  0  0  0  0
 25 26  2  0  0  0  0
 27 25  1  0  0  0  0
 27 24  1  0  0  0  0
M  END
>  <MODEL>
2

>  <REMARK>
 VINA RESULT:      -4.7      3.241      7.080
  Name = 
  1 active torsions:
  status: ('A' for Active; 'I' for Inactive)
    1  A    between atoms: C_9  and  C_13
                            x       y       z     vdW  Elec       q    Type
                         _______ _______ _______ _____ _____    ______ ____

>  <TORSDO>
F 1

$$$$
=
 OpenBabel11042420433D

 27 31  0  0  1  0  0  0  0  0999 V2000
  158.1130  212.1760  155.0170 C   0  0  0  0  0  3  0  0  0  0  0  0
  161.3980  211.7030  156.4870 C   0  0  0  0  0  3  0  0  0  0  0  0
  157.6270  213.1720  154.1700 C   0  0  0  0  0  3  0  0  0  0  0  0
  159.1000  211.2980  154.5630 C   0  0  0  0  0  0  0  0  0  0  0  0
  163.0390  209.5050  156.9080 C   0  0  0  0  0  3  0  0  0  0  0  0
  160.1560  209.1840  152.5820 N   0  0  1  0  0  0  0  0  0  0  0  0
  159.2010  208.9210  155.1020 O   0  0  0  0  0  0  0  0  0  0  0  0
  161.7820  209.3230  156.3230 C   0  0  0  0  0  0  0  0  0  0  0  0
  159.5760  210.2340  155.5130 C   0  0  1  0  0  3  0  0  0  0  0  0
  161.3110  207.9600  155.9410 C   0  0  1  0  0  3  0  0  0  0  0  0
  160.9090  207.2870  151.3320 C   0  0  2  0  0  3  0  0  0  0  0  0
  162.6610  211.8440  157.0660 C   0  0  0  0  0  3  0  0  0  0  0  0
  160.6780  207.2650  157.1350 C   0  0  0  0  0  1  0  0  0  0  0  0
  160.4600  208.7280  151.2340 C   0  0  0  0  0  2  0  0  0  0  0  0
  159.0710  212.4480  152.4330 C   0  0  0  0  0  3  0  0  0  0  0  0
  161.3720  207.1060  152.7570 C   0  0  0  0  0  2  0  0  0  0  0  0
  160.9590  210.4320  156.0980 C   0  0  0  0  0  0  0  0  0  0  0  0
  160.9970  208.3910  153.4680 C   0  0  2  0  0  3  0  0  0  0  0  0
  160.6460  210.5490  152.6820 C   0  0  0  0  0  2  0  0  0  0  0  0
  163.4500  210.7520  157.2610 N   0  0  0  0  0  0  0  0  0  0  0  0
  159.5890  211.4360  153.2460 C   0  0  0  0  0  0  0  0  0  0  0  0
  158.1120  213.2870  152.9060 N   0  0  0  0  0  0  0  0  0  0  0  0
  160.3000  208.0710  154.7970 C   0  0  2  0  0  3  0  0  0  0  0  0
  162.6980  206.6770  148.0720 O   0  0  0  0  0  1  0  0  0  0  0  0
  162.0150  207.0050  150.3660 C   0  0  0  0  0  0  0  0  0  0  0  0
  163.1950  206.8340  150.7760 O   0  0  0  0  0  0  0  0  0  0  0  0
  161.7210  206.9300  148.9740 N   0  0  0  0  0  2  0  0  0  0  0  0
  2 12  1  0  0  0  0
  3  1  2  0  0  0  0
  4  1  1  0  0  0  0
  5 20  1  0  0  0  0
  6 14  1  6  0  0  0
  6 19  1  0  0  0  0
  6 18  1  0  0  0  0
  7  9  1  0  0  0  0
  8  5  2  0  0  0  0
  9  4  1  6  0  0  0
  9 17  1  0  0  0  0
 10  8  1  0  0  0  0
 10 13  1  1  0  0  0
 11 25  1  6  0  0  0
 11 16  1  0  0  0  0
 12 20  2  0  0  0  0
 14 11  1  0  0  0  0
 15 22  2  0  0  0  0
 15 21  1  0  0  0  0
 17  8  1  0  0  0  0
 17  2  2  0  0  0  0
 18 16  1  6  0  0  0
 18 23  1  0  0  0  0
 19 21  1  0  0  0  0
 21  4  2  0  0  0  0
 22  3  1  0  0  0  0
 23  7  1  1  0  0  0
 23 10  1  0  0  0  0
 24 27  1  0  0  0  0
 25 26  2  0  0  0  0
 27 25  1  0  0  0  0
M  END
>  <MODEL>
3

>  <REMARK>
 VINA RESULT:      -4.2      1.999      4.724
  Name = 
  1 active torsions:
  status: ('A' for Active; 'I' for Inactive)
    1  A    between atoms: C_9  and  C_13
                            x       y       z     vdW  Elec       q    Type
                         _______ _______ _______ _____ _____    ______ ____

>  <TORSDO>
F 1

$$$$
=
 OpenBabel11042420433D

 27 31  0  0  1  0  0  0  0  0999 V2000
  156.6470  212.2200  155.2350 C   0  0  0  0  0  3  0  0  0  0  0  0
  160.0340  211.9350  156.5100 C   0  0  0  0  0  3  0  0  0  0  0  0
  155.7710  213.3050  155.2070 C   0  0  0  0  0  3  0  0  0  0  0  0
  157.8190  212.2520  154.4750 C   0  0  0  0  0  0  0  0  0  0  0  0
  162.3500  210.7010  155.6100 C   0  0  0  0  0  3  0  0  0  0  0  0
  159.3120  212.5210  151.7910 N   0  0  1  0  0  0  0  0  0  0  0  0
  158.7660  210.3380  153.2980 O   0  0  0  0  0  0  0  0  0  0  0  0
  161.1750  210.5840  154.8640 C   0  0  0  0  0  0  0  0  0  0  0  0
  158.7190  211.0490  154.5330 C   0  0  1  0  0  3  0  0  0  0  0  0
  161.1500  209.7890  153.6020 C   0  0  1  0  0  3  0  0  0  0  0  0
  160.5240  212.3430  149.7350 C   0  0  2  0  0  3  0  0  0  0  0  0
  161.2300  212.0310  157.2270 C   0  0  0  0  0  3  0  0  0  0  0  0
  160.9140  208.3200  153.9060 C   0  0  0  0  0  1  0  0  0  0  0  0
  159.6100  213.2260  150.5550 C   0  0  0  0  0  2  0  0  0  0  0  0
  157.1870  214.4520  153.6890 C   0  0  0  0  0  3  0  0  0  0  0  0
  161.1660  211.4000  150.7240 C   0  0  0  0  0  2  0  0  0  0  0  0
  160.0080  211.2170  155.3090 C   0  0  0  0  0  0  0  0  0  0  0  0
  160.4570  211.6550  152.0400 C   0  0  2  0  0  3  0  0  0  0  0  0
  159.3240  213.5130  152.8530 C   0  0  0  0  0  2  0  0  0  0  0  0
  162.3540  211.4200  156.7650 N   0  0  0  0  0  0  0  0  0  0  0  0
  158.0950  213.3900  153.6880 C   0  0  0  0  0  0  0  0  0  0  0  0
  156.0570  214.3900  154.4410 N   0  0  0  0  0  0  0  0  0  0  0  0
  160.0490  210.3220  152.6830 C   0  0  2  0  0  3  0  0  0  0  0  0
  163.4570  213.2030  147.5300 O   0  0  0  0  0  1  0  0  0  0  0  0
  161.5540  213.1560  149.0200 C   0  0  0  0  0  0  0  0  0  0  0  0
  161.5800  214.4110  149.1430 O   0  0  0  0  0  0  0  0  0  0  0  0
  162.5110  212.4980  148.1930 N   0  0  0  0  0  2  0  0  0  0  0  0
  2 12  1  0  0  0  0
  3  1  1  0  0  0  0
  4  9  1  0  0  0  0
  4  1  2  0  0  0  0
  5 20  1  0  0  0  0
  6 14  1  6  0  0  0
  6 18  1  0  0  0  0
  6 19  1  0  0  0  0
  8 17  1  0  0  0  0
  8  5  2  0  0  0  0
  9  7  1  6  0  0  0
  9 17  1  0  0  0  0
 10 13  1  1  0  0  0
 10  8  1  0  0  0  0
 11 25  1  1  0  0  0
 11 14  1  0  0  0  0
 11 16  1  0  0  0  0
 15 22  1  0  0  0  0
 17  2  2  0  0  0  0
 18 16  1  6  0  0  0
 18 23  1  0  0  0  0
 19 21  1  0  0  0  0
 20 12  2  0  0  0  0
 21 15  2  0  0  0  0
 21  4  1  0  0  0  0
 22  3  2  0  0  0  0
 23  7  1  1  0  0  0
 23 10  1  0  0  0  0
 24 27  1  0  0  0  0
 25 26  2  0  0  0  0
 27 25  1  0  0  0  0
M  END
>  <MODEL>
4

>  <REMARK>
 VINA RESULT:      -3.8      3.473      6.081
  Name = 
  1 active torsions:
  status: ('A' for Active; 'I' for Inactive)
    1  A    between atoms: C_9  and  C_13
                            x       y       z     vdW  Elec       q    Type
                         _______ _______ _______ _____ _____    ______ ____

>  <TORSDO>
F 1

$$$$
=
 OpenBabel11042420433D

 27 31  0  0  1  0  0  0  0  0999 V2000
  160.1260  209.0560  156.8970 C   0  0  0  0  0  3  0  0  0  0  0  0
  157.0600  210.4330  155.5240 C   0  0  0  0  0  3  0  0  0  0  0  0
  160.5450  207.7340  157.0480 C   0  0  0  0  0  3  0  0  0  0  0  0
  159.9640  209.5930  155.6170 C   0  0  0  0  0  0  0  0  0  0  0  0
  156.4650  212.5860  153.8780 C   0  0  0  0  0  3  0  0  0  0  0  0
  161.0380  210.3270  152.8220 N   0  0  1  0  0  0  0  0  0  0  0  0
  160.5390  211.8780  154.9860 O   0  0  0  0  0  0  0  0  0  0  0  0
  157.7920  212.3500  154.2480 C   0  0  0  0  0  0  0  0  0  0  0  0
  159.5240  211.0270  155.5150 C   0  0  1  0  0  3  0  0  0  0  0  0
  158.8850  213.2520  153.7820 C   0  0  1  0  0  3  0  0  0  0  0  0
  161.8710  211.2650  150.7840 C   0  0  2  0  0  3  0  0  0  0  0  0
  155.7470  210.7000  155.1300 C   0  0  0  0  0  3  0  0  0  0  0  0
  159.0090  214.4530  154.7040 C   0  0  0  0  0  1  0  0  0  0  0  0
  161.6950  209.9850  151.5700 C   0  0  0  0  0  2  0  0  0  0  0  0
  160.6510  207.4640  154.6940 C   0  0  0  0  0  3  0  0  0  0  0  0
  160.8450  212.2230  151.3390 C   0  0  0  0  0  2  0  0  0  0  0  0
  158.0960  211.2570  155.0680 C   0  0  0  0  0  0  0  0  0  0  0  0
  160.2500  211.5200  152.5430 C   0  0  2  0  0  3  0  0  0  0  0  0
  160.0790  209.2700  153.0940 C   0  0  0  0  0  2  0  0  0  0  0  0
  155.4790  211.7600  154.3200 N   0  0  0  0  0  0  0  0  0  0  0  0
  160.2320  208.7820  154.4940 C   0  0  0  0  0  0  0  0  0  0  0  0
  160.7970  206.9720  155.9520 N   0  0  0  0  0  0  0  0  0  0  0  0
  160.2040  212.4790  153.7410 C   0  0  2  0  0  3  0  0  0  0  0  0
  160.9380  211.9090  147.1900 O   0  0  0  0  0  1  0  0  0  0  0  0
  161.6550  211.0300  149.3240 C   0  0  0  0  0  0  0  0  0  0  0  0
  161.9200  209.9090  148.8090 O   0  0  0  0  0  0  0  0  0  0  0  0
  161.1450  212.0880  148.5160 N   0  0  0  0  0  2  0  0  0  0  0  0
  1  3  1  0  0  0  0
  4  1  2  0  0  0  0
  5  8  2  0  0  0  0
  5 20  1  0  0  0  0
  6 14  1  6  0  0  0
  6 19  1  0  0  0  0
  8 17  1  0  0  0  0
  9  7  1  6  0  0  0
  9  4  1  0  0  0  0
 10  8  1  0  0  0  0
 10 13  1  1  0  0  0
 11 25  1  6  0  0  0
 11 16  1  0  0  0  0
 11 14  1  0  0  0  0
 12  2  1  0  0  0  0
 15 22  1  0  0  0  0
 17  9  1  0  0  0  0
 17  2  2  0  0  0  0
 18 16  1  6  0  0  0
 18  6  1  0  0  0  0
 18 23  1  0  0  0  0
 19 21  1  0  0  0  0
 20 12  2  0  0  0  0
 21 15  2  0  0  0  0
 21  4  1  0  0  0  0
 22  3  2  0  0  0  0
 23 10  1  0  0  0  0
 23  7  1  1  0  0  0
 24 27  1  0  0  0  0
 26 25  2  0  0  0  0
 27 25  1  0  0  0  0
M  END
>  <MODEL>
5

>  <REMARK>
 VINA RESULT:      -3.4      2.920      4.061
  Name = 
  1 active torsions:
  status: ('A' for Active; 'I' for Inactive)
    1  A    between atoms: C_9  and  C_13
                            x       y       z     vdW  Elec       q    Type
                         _______ _______ _______ _____ _____    ______ ____

>  <TORSDO>
F 1

$$$$
=
 OpenBabel11042420433D

 27 31  0  0  1  0  0  0  0  0999 V2000
  158.7910  214.3210  153.9600 C   0  0  0  0  0  3  0  0  0  0  0  0
  157.1590  213.8510  150.7510 C   0  0  0  0  0  3  0  0  0  0  0  0
  158.4160  213.9200  155.2420 C   0  0  0  0  0  3  0  0  0  0  0  0
  159.1220  213.3610  153.0000 C   0  0  0  0  0  0  0  0  0  0  0  0
  158.0400  213.2070  148.2010 C   0  0  0  0  0  3  0  0  0  0  0  0
  160.8000  210.9710  152.0100 N   0  0  1  0  0  0  0  0  0  0  0  0
  160.9080  213.5970  151.3550 O   0  0  0  0  0  0  0  0  0  0  0  0
  158.9700  213.3410  149.2360 C   0  0  0  0  0  0  0  0  0  0  0  0
  159.5340  213.8510  151.6390 C   0  0  1  0  0  3  0  0  0  0  0  0
  160.4280  213.1590  148.9780 C   0  0  1  0  0  3  0  0  0  0  0  0
  162.2810  209.3780  151.0110 C   0  0  2  0  0  3  0  0  0  0  0  0
  156.2610  213.7070  149.6920 C   0  0  0  0  0  3  0  0  0  0  0  0
  161.0430  214.4530  148.4740 C   0  0  0  0  0  1  0  0  0  0  0  0
  161.3420  209.6310  152.1700 C   0  0  0  0  0  2  0  0  0  0  0  0
  158.6900  211.6400  154.6460 C   0  0  0  0  0  3  0  0  0  0  0  0
  161.8570  210.3440  149.9320 C   0  0  0  0  0  2  0  0  0  0  0  0
  158.5260  213.6530  150.5260 C   0  0  0  0  0  0  0  0  0  0  0  0
  160.8180  211.2390  150.5780 C   0  0  2  0  0  3  0  0  0  0  0  0
  159.3980  210.9050  152.3870 C   0  0  0  0  0  2  0  0  0  0  0  0
  156.7150  213.3880  148.4490 N   0  0  0  0  0  0  0  0  0  0  0  0
  159.0700  211.9950  153.3490 C   0  0  0  0  0  0  0  0  0  0  0  0
  158.3730  212.5990  155.5560 N   0  0  0  0  0  0  0  0  0  0  0  0
  161.1230  212.7100  150.2650 C   0  0  2  0  0  3  0  0  0  0  0  0
  161.5440  206.4290  148.7840 O   0  0  0  0  0  1  0  0  0  0  0  0
  162.1790  207.9640  150.5390 C   0  0  0  0  0  0  0  0  0  0  0  0
  162.5580  207.0130  151.2770 O   0  0  0  0  0  0  0  0  0  0  0  0
  161.6490  207.6980  149.2430 N   0  0  0  0  0  2  0  0  0  0  0  0
  1  3  1  0  0  0  0
  3 22  2  0  0  0  0
  4 21  1  0  0  0  0
  4  1  2  0  0  0  0
  5 20  2  0  0  0  0
  5  8  1  0  0  0  0
  6 14  1  6  0  0  0
  6 19  1  0  0  0  0
  7  9  1  0  0  0  0
  8 17  2  0  0  0  0
  9 17  1  6  0  0  0
  9  4  1  0  0  0  0
 10 13  1  1  0  0  0
 10  8  1  0  0  0  0
 10 23  1  0  0  0  0
 11 25  1  6  0  0  0
 11 14  1  0  0  0  0
 12  2  2  0  0  0  0
 15 22  1  0  0  0  0
 16 11  1  0  0  0  0
 17  2  1  0  0  0  0
 18 16  1  6  0  0  0
 18  6  1  0  0  0  0
 19 21  1  0  0  0  0
 20 12  1  0  0  0  0
 21 15  2  0  0  0  0
 23 18  1  0  0  0  0
 23  7  1  1  0  0  0
 24 27  1  0  0  0  0
 25 26  2  0  0  0  0
 27 25  1  0  0  0  0
M  END
>  <MODEL>
6

>  <REMARK>
 VINA RESULT:      -3.2      2.848      4.176
  Name = 
  1 active torsions:
  status: ('A' for Active; 'I' for Inactive)
    1  A    between atoms: C_9  and  C_13
                            x       y       z     vdW  Elec       q    Type
                         _______ _______ _______ _____ _____    ______ ____

>  <TORSDO>
F 1

$$$$
=
 OpenBabel11042420433D

 27 31  0  0  1  0  0  0  0  0999 V2000
  160.6040  209.0370  155.3940 C   0  0  0  0  0  3  0  0  0  0  0  0
  157.1350  210.1050  155.3930 C   0  0  0  0  0  3  0  0  0  0  0  0
  161.2080  207.8950  154.8670 C   0  0  0  0  0  3  0  0  0  0  0  0
  160.0330  209.9810  154.5370 C   0  0  0  0  0  0  0  0  0  0  0  0
  155.8510  212.5340  155.0050 C   0  0  0  0  0  3  0  0  0  0  0  0
  160.1990  211.9760  152.1920 N   0  0  1  0  0  0  0  0  0  0  0  0
  160.1280  212.3960  154.8670 O   0  0  0  0  0  0  0  0  0  0  0  0
  157.2470  212.4810  154.9670 C   0  0  0  0  0  0  0  0  0  0  0  0
  159.4090  211.1990  155.1600 C   0  0  1  0  0  3  0  0  0  0  0  0
  158.0510  213.7170  154.7370 C   0  0  1  0  0  3  0  0  0  0  0  0
  160.3190  213.8020  150.6490 C   0  0  2  0  0  3  0  0  0  0  0  0
  155.7410  210.1990  155.4230 C   0  0  0  0  0  3  0  0  0  0  0  0
  158.2750  214.4530  156.0460 C   0  0  0  0  0  1  0  0  0  0  0  0
  160.5240  212.3120  150.8150 C   0  0  0  0  0  2  0  0  0  0  0  0
  160.6950  208.6020  152.6610 C   0  0  0  0  0  3  0  0  0  0  0  0
  159.3760  214.2040  151.7570 C   0  0  0  0  0  2  0  0  0  0  0  0
  157.8960  211.2540  155.1490 C   0  0  0  0  0  0  0  0  0  0  0  0
  159.2250  212.9700  152.6240 C   0  0  2  0  0  3  0  0  0  0  0  0
  159.4880  210.7090  152.1580 C   0  0  0  0  0  2  0  0  0  0  0  0
  155.1330  211.4010  155.2270 N   0  0  0  0  0  0  0  0  0  0  0  0
  160.0790  209.7600  153.1440 C   0  0  0  0  0  0  0  0  0  0  0  0
  161.2410  207.7030  153.5220 N   0  0  0  0  0  0  0  0  0  0  0  0
  159.3930  213.3440  154.1030 C   0  0  2  0  0  3  0  0  0  0  0  0
  157.7670  214.4530  147.9540 O   0  0  0  0  0  1  0  0  0  0  0  0
  159.7400  214.1160  149.3070 C   0  0  0  0  0  0  0  0  0  0  0  0
  160.4940  214.3320  148.3190 O   0  0  0  0  0  0  0  0  0  0  0  0
  158.3250  214.1700  149.1540 N   0  0  0  0  0  2  0  0  0  0  0  0
  2 12  1  0  0  0  0
  3  1  1  0  0  0  0
  4  1  2  0  0  0  0
  5 20  1  0  0  0  0
  6 14  1  6  0  0  0
  6 18  1  0  0  0  0
  7  9  1  0  0  0  0
  8  5  2  0  0  0  0
  8 17  1  0  0  0  0
  9  4  1  6  0  0  0
 10  8  1  0  0  0  0
 10 13  1  1  0  0  0
 11 25  1  6  0  0  0
 11 14  1  0  0  0  0
 11 16  1  0  0  0  0
 15 21  2  0  0  0  0
 15 22  1  0  0  0  0
 17  9  1  0  0  0  0
 17  2  2  0  0  0  0
 18 16  1  6  0  0  0
 18 23  1  0  0  0  0
 19  6  1  0  0  0  0
 19 21  1  0  0  0  0
 20 12  2  0  0  0  0
 21  4  1  0  0  0  0
 22  3  2  0  0  0  0
 23 10  1  0  0  0  0
 23  7  1  1  0  0  0
 24 27  1  0  0  0  0
 26 25  2  0  0  0  0
 27 25  1  0  0  0  0
M  END
>  <MODEL>
7

>  <REMARK>
 VINA RESULT:      -3.0      3.453      5.616
  Name = 
  1 active torsions:
  status: ('A' for Active; 'I' for Inactive)
    1  A    between atoms: C_9  and  C_13
                            x       y       z     vdW  Elec       q    Type
                         _______ _______ _______ _____ _____    ______ ____

>  <TORSDO>
F 1

$$$$
=
 OpenBabel11042420433D

 27 31  0  0  1  0  0  0  0  0999 V2000
  161.9590  210.3310  154.3940 C   0  0  0  0  0  3  0  0  0  0  0  0
  159.6570  212.1310  152.2400 C   0  0  0  0  0  3  0  0  0  0  0  0
  161.7220  209.4460  155.4470 C   0  0  0  0  0  3  0  0  0  0  0  0
  161.5990  209.9740  153.0920 C   0  0  0  0  0  0  0  0  0  0  0  0
  159.5820  212.7010  149.5260 C   0  0  0  0  0  3  0  0  0  0  0  0
  161.7370  208.0950  150.6510 N   0  0  1  0  0  0  0  0  0  0  0  0
  162.9000  210.5000  151.0970 O   0  0  0  0  0  0  0  0  0  0  0  0
  160.6630  211.9870  150.0480 C   0  0  0  0  0  0  0  0  0  0  0  0
  161.8920  210.9600  151.9950 C   0  0  1  0  0  3  0  0  0  0  0  0
  161.7820  211.5460  149.1650 C   0  0  1  0  0  3  0  0  0  0  0  0
  162.0690  206.9140  148.5960 C   0  0  2  0  0  3  0  0  0  0  0  0
  158.5920  212.8400  151.6800 C   0  0  0  0  0  3  0  0  0  0  0  0
  162.8010  212.6610  149.0050 C   0  0  0  0  0  1  0  0  0  0  0  0
  161.6200  206.7830  150.0350 C   0  0  0  0  0  2  0  0  0  0  0  0
  160.7820  207.8640  153.9500 C   0  0  0  0  0  3  0  0  0  0  0  0
  161.9200  208.3780  148.2600 C   0  0  0  0  0  2  0  0  0  0  0  0
  160.6970  211.6870  151.4150 C   0  0  0  0  0  0  0  0  0  0  0  0
  161.5720  209.0580  149.5700 C   0  0  2  0  0  3  0  0  0  0  0  0
  160.5770  208.2590  151.5110 C   0  0  0  0  0  2  0  0  0  0  0  0
  158.5750  213.1070  150.3460 N   0  0  0  0  0  0  0  0  0  0  0  0
  160.9990  208.7170  152.8660 C   0  0  0  0  0  0  0  0  0  0  0  0
  161.1430  208.2410  155.2050 N   0  0  0  0  0  0  0  0  0  0  0  0
  162.4470  210.3040  149.7630 C   0  0  2  0  0  3  0  0  0  0  0  0
  160.0810  205.8360  145.5820 O   0  0  0  0  0  1  0  0  0  0  0  0
  161.2300  206.0670  147.6950 C   0  0  0  0  0  0  0  0  0  0  0  0
  160.8710  204.9110  148.0530 O   0  0  0  0  0  0  0  0  0  0  0  0
  160.8390  206.5770  146.4230 N   0  0  0  0  0  2  0  0  0  0  0  0
  1  3  1  0  0  0  0
  4  1  2  0  0  0  0
  5  8  2  0  0  0  0
  5 20  1  0  0  0  0
  6 14  1  6  0  0  0
  6 19  1  0  0  0  0
  8 17  1  0  0  0  0
  9  7  1  6  0  0  0
  9  4  1  0  0  0  0
 10 13  1  1  0  0  0
 10 23  1  0  0  0  0
 10  8  1  0  0  0  0
 11 25  1  6  0  0  0
 11 14  1  0  0  0  0
 12  2  1  0  0  0  0
 15 22  1  0  0  0  0
 16 11  1  0  0  0  0
 17  9  1  0  0  0  0
 17  2  2  0  0  0  0
 18 16  1  6  0  0  0
 18 23  1  0  0  0  0
 18  6  1  0  0  0  0
 19 21  1  0  0  0  0
 20 12  2  0  0  0  0
 21  4  1  0  0  0  0
 21 15  2  0  0  0  0
 22  3  2  0  0  0  0
 23  7  1  1  0  0  0
 24 27  1  0  0  0  0
 25 26  2  0  0  0  0
 27 25  1  0  0  0  0
M  END
>  <MODEL>
8

>  <REMARK>
 VINA RESULT:      -3.0      1.952      2.534
  Name = 
  1 active torsions:
  status: ('A' for Active; 'I' for Inactive)
    1  A    between atoms: C_9  and  C_13
                            x       y       z     vdW  Elec       q    Type
                         _______ _______ _______ _____ _____    ______ ____

>  <TORSDO>
F 1

$$$$
=
 OpenBabel11042420433D

 27 31  0  0  1  0  0  0  0  0999 V2000
  159.9730  211.9450  152.8760 C   0  0  0  0  0  3  0  0  0  0  0  0
  162.3080  211.0900  155.5220 C   0  0  0  0  0  3  0  0  0  0  0  0
  160.1800  212.5520  151.6370 C   0  0  0  0  0  3  0  0  0  0  0  0
  160.5060  210.6780  153.1280 C   0  0  0  0  0  0  0  0  0  0  0  0
  162.6220  208.9050  157.2020 C   0  0  0  0  0  3  0  0  0  0  0  0
  160.8190  207.6810  152.4720 N   0  0  1  0  0  0  0  0  0  0  0  0
  159.3840  208.9260  154.4020 O   0  0  0  0  0  0  0  0  0  0  0  0
  161.5650  208.9230  156.2890 C   0  0  0  0  0  0  0  0  0  0  0  0
  160.2390  210.0660  154.4750 C   0  0  1  0  0  3  0  0  0  0  0  0
  160.5980  207.7890  156.2210 C   0  0  1  0  0  3  0  0  0  0  0  0
  160.8300  205.2960  152.2720 C   0  0  2  0  0  3  0  0  0  0  0  0
  163.3530  211.0340  156.4470 C   0  0  0  0  0  3  0  0  0  0  0  0
  159.4980  207.9700  157.2530 C   0  0  0  0  0  1  0  0  0  0  0  0
  161.1300  206.5950  151.5570 C   0  0  0  0  0  2  0  0  0  0  0  0
  161.4270  210.6780  150.8900 C   0  0  0  0  0  3  0  0  0  0  0  0
  160.8700  205.6300  153.7440 C   0  0  0  0  0  2  0  0  0  0  0  0
  161.4120  210.0180  155.4310 C   0  0  0  0  0  0  0  0  0  0  0  0
  161.0050  207.1380  153.8110 C   0  0  2  0  0  3  0  0  0  0  0  0
  161.8570  208.6840  152.3000 C   0  0  0  0  0  2  0  0  0  0  0  0
  163.4900  209.9510  157.2600 N   0  0  0  0  0  0  0  0  0  0  0  0
  161.2470  210.0320  152.1160 C   0  0  0  0  0  0  0  0  0  0  0  0
  160.8970  211.9110  150.6770 N   0  0  0  0  0  0  0  0  0  0  0  0
  159.9970  207.7110  154.8160 C   0  0  2  0  0  3  0  0  0  0  0  0
  162.3430  201.9050  151.6310 O   0  0  0  0  0  1  0  0  0  0  0  0
  161.8400  204.2500  151.9290 C   0  0  0  0  0  0  0  0  0  0  0  0
  163.0230  204.5740  151.6330 O   0  0  0  0  0  0  0  0  0  0  0  0
  161.4540  202.8790  151.9380 N   0  0  0  0  0  2  0  0  0  0  0  0
  1  4  1  0  0  0  0
  2 12  1  0  0  0  0
  3  1  2  0  0  0  0
  5 20  1  0  0  0  0
  6 14  1  6  0  0  0
  6 18  1  0  0  0  0
  7  9  1  0  0  0  0
  8  5  2  0  0  0  0
  9  4  1  6  0  0  0
  9 17  1  0  0  0  0
 10  8  1  0  0  0  0
 10 13  1  1  0  0  0
 11 25  1  1  0  0  0
 11 16  1  0  0  0  0
 12 20  2  0  0  0  0
 14 11  1  0  0  0  0
 15 21  1  0  0  0  0
 17  2  2  0  0  0  0
 17  8  1  0  0  0  0
 18 16  1  6  0  0  0
 18 23  1  0  0  0  0
 19  6  1  0  0  0  0
 21 19  1  0  0  0  0
 21  4  2  0  0  0  0
 22 15  2  0  0  0  0
 22  3  1  0  0  0  0
 23  7  1  6  0  0  0
 23 10  1  0  0  0  0
 24 27  1  0  0  0  0
 25 27  1  0  0  0  0
 26 25  2  0  0  0  0
M  END
>  <MODEL>
9

>  <REMARK>
 VINA RESULT:      -2.8      1.882      4.599
  Name = 
  1 active torsions:
  status: ('A' for Active; 'I' for Inactive)
    1  A    between atoms: C_9  and  C_13
                            x       y       z     vdW  Elec       q    Type
                         _______ _______ _______ _____ _____    ______ ____

>  <TORSDO>
F 1

$$$$
