=
 OpenBabel11042421103D

 28 31  0  0  0  0  0  0  0  0999 V2000
  161.9820  210.0800  149.9080 N   0  0  0  0  0  0  0  0  0  0  0  0
  161.5890  207.8680  148.9290 N   0  0  0  0  0  0  0  0  0  0  0  0
  160.6720  203.4490  151.9160 C   0  0  0  0  0  2  0  0  0  0  0  0
  161.4830  206.7490  150.8320 C   0  0  0  0  0  0  0  0  0  0  0  0
  161.4090  206.6560  149.4810 C   0  0  0  0  0  0  0  0  0  0  0  0
  161.4290  201.7160  149.5900 C   0  0  0  0  0  3  0  0  0  0  0  0
  161.3070  205.6530  151.6560 C   0  0  0  0  0  3  0  0  0  0  0  0
  161.2420  205.4320  148.8220 C   0  0  0  0  0  0  0  0  0  0  0  0
  161.0760  204.3980  151.0670 C   0  0  0  0  0  0  0  0  0  0  0  0
  161.7550  208.6670  150.0140 C   0  0  0  0  0  0  0  0  0  0  0  0
  161.6950  208.0190  151.2070 N   0  0  0  0  0  2  0  0  0  0  0  0
  160.0460  202.1550  151.5260 C   0  0  0  0  0  2  0  0  0  0  0  0
  161.1440  204.2520  149.6310 C   0  0  0  0  0  0  0  0  0  0  0  0
  160.9380  201.3400  150.7260 N   0  0  0  0  0  0  0  0  0  0  0  0
  161.2750  203.0620  149.0090 C   0  0  0  0  0  2  0  0  0  0  0  0
  163.2580  204.0700  144.5380 O   0  0  0  0  0  1  0  0  0  0  0  0
  161.2620  205.4240  144.5300 C   0  0  0  0  0  3  0  0  0  0  0  0
  162.2530  204.7370  146.6280 C   0  0  0  0  0  3  0  0  0  0  0  0
  161.2460  205.4080  147.3360 C   0  0  0  0  0  0  0  0  0  0  0  0
  162.2600  204.7410  145.2310 C   0  0  0  0  0  0  0  0  0  0  0  0
  160.2600  206.1040  145.2270 C   0  0  0  0  0  3  0  0  0  0  0  0
  160.2530  206.0990  146.6250 C   0  0  0  0  0  3  0  0  0  0  0  0
  162.1750  210.8990  151.0970 C   0  0  0  0  0  2  0  0  0  0  0  0
  160.9330  210.8630  151.9680 C   0  0  0  0  0  1  0  0  0  0  0  0
  162.1630  210.7000  148.6020 C   0  0  0  0  0  2  0  0  0  0  0  0
  162.8790  212.9670  148.4210 O   0  0  0  0  0  0  0  0  0  0  0  0
  160.6930  212.6660  149.0410 O   0  0  0  0  0  1  0  0  0  0  0  0
  161.9430  212.1710  148.6920 C   0  0  0  0  0  0  0  0  0  0  0  0
  1 10  1  0  0  0  0
  1 23  1  0  0  0  0
  2  5  1  0  0  0  0
  2 10  2  0  0  0  0
  4 11  1  0  0  0  0
  4  7  1  0  0  0  0
  5  4  2  0  0  0  0
  6 14  2  0  0  0  0
  8  5  1  0  0  0  0
  8 13  2  0  0  0  0
  9  7  2  0  0  0  0
  9  3  1  0  0  0  0
 10 11  1  0  0  0  0
 12  3  1  0  0  0  0
 13  9  1  0  0  0  0
 14 12  1  0  0  0  0
 15  6  1  0  0  0  0
 15 13  1  0  0  0  0
 16 20  1  0  0  0  0
 17 21  2  0  0  0  0
 17 20  1  0  0  0  0
 18 19  1  0  0  0  0
 19  8  1  0  0  0  0
 20 18  2  0  0  0  0
 21 22  1  0  0  0  0
 22 19  2  0  0  0  0
 23 24  1  0  0  0  0
 25 28  1  0  0  0  0
 25  1  1  0  0  0  0
 26 28  2  0  0  0  0
 28 27  1  0  0  0  0
M  END
>  <MODEL>
1

>  <REMARK>
 VINA RESULT:      -7.4      0.000      0.000
  Name = 
  4 active torsions:
  status: ('A' for Active; 'I' for Inactive)
    1  A    between atoms: C_1  and  N_6
    2  A    between atoms: N_6  and  C_28
    3  A    between atoms: C_15  and  C_20
    4  A    between atoms: C_17  and  C_28
                            x       y       z     vdW  Elec       q    Type
                         _______ _______ _______ _____ _____    ______ ____

>  <TORSDO>
F 4

$$$$
=
 OpenBabel11042421103D

 28 31  0  0  0  0  0  0  0  0999 V2000
  160.9510  205.4940  149.6200 N   0  0  0  0  0  0  0  0  0  0  0  0
  161.0210  207.6540  150.7770 N   0  0  0  0  0  0  0  0  0  0  0  0
  161.5870  208.1020  156.1410 C   0  0  0  0  0  2  0  0  0  0  0  0
  161.1080  206.8520  152.8340 C   0  0  0  0  0  0  0  0  0  0  0  0
  161.0890  207.9780  152.0790 C   0  0  0  0  0  0  0  0  0  0  0  0
  160.4940  210.8910  156.0260 C   0  0  0  0  0  3  0  0  0  0  0  0
  161.2020  206.8910  154.2140 C   0  0  0  0  0  3  0  0  0  0  0  0
  161.0710  209.2590  152.6440 C   0  0  0  0  0  0  0  0  0  0  0  0
  161.2480  208.1440  154.8490 C   0  0  0  0  0  0  0  0  0  0  0  0
  161.0150  206.2960  150.8090 C   0  0  0  0  0  0  0  0  0  0  0  0
  161.0690  205.7600  152.0560 N   0  0  0  0  0  2  0  0  0  0  0  0
  162.0320  209.2690  156.9520 C   0  0  0  0  0  2  0  0  0  0  0  0
  161.0780  209.3520  154.0750 C   0  0  0  0  0  0  0  0  0  0  0  0
  161.0040  210.2860  157.0490 N   0  0  0  0  0  0  0  0  0  0  0  0
  160.7710  210.5480  154.6190 C   0  0  0  0  0  2  0  0  0  0  0  0
  162.5240  211.7800  148.6690 O   0  0  0  0  0  1  0  0  0  0  0  0
  160.8180  212.7070  150.1010 C   0  0  0  0  0  3  0  0  0  0  0  0
  161.7950  210.5530  150.6140 C   0  0  0  0  0  3  0  0  0  0  0  0
  160.9770  210.4400  151.7470 C   0  0  0  0  0  0  0  0  0  0  0  0
  161.7140  211.6790  149.7920 C   0  0  0  0  0  0  0  0  0  0  0  0
  160.0060  212.6080  151.2330 C   0  0  0  0  0  3  0  0  0  0  0  0
  160.0870  211.4810  152.0550 C   0  0  0  0  0  3  0  0  0  0  0  0
  160.9260  204.0390  149.6990 C   0  0  0  0  0  2  0  0  0  0  0  0
  161.1220  203.4350  148.3200 C   0  0  0  0  0  1  0  0  0  0  0  0
  160.7660  206.1210  148.3190 C   0  0  0  0  0  2  0  0  0  0  0  0
  162.6140  205.8230  146.8420 O   0  0  0  0  0  0  0  0  0  0  0  0
  162.7060  207.6820  148.1810 O   0  0  0  0  0  1  0  0  0  0  0  0
  162.0820  206.5200  147.7450 C   0  0  0  0  0  0  0  0  0  0  0  0
  1 23  1  0  0  0  0
  1 10  1  0  0  0  0
  2 10  2  0  0  0  0
  2  5  1  0  0  0  0
  3 12  1  0  0  0  0
  4  7  1  0  0  0  0
  5  8  1  0  0  0  0
  5  4  2  0  0  0  0
  6 14  2  0  0  0  0
  7  9  2  0  0  0  0
  8 13  2  0  0  0  0
  9  3  1  0  0  0  0
 10 11  1  0  0  0  0
 11  4  1  0  0  0  0
 12 14  1  0  0  0  0
 13 15  1  0  0  0  0
 13  9  1  0  0  0  0
 15  6  1  0  0  0  0
 16 20  1  0  0  0  0
 17 21  1  0  0  0  0
 18 19  2  0  0  0  0
 19 22  1  0  0  0  0
 19  8  1  0  0  0  0
 20 17  2  0  0  0  0
 20 18  1  0  0  0  0
 21 22  2  0  0  0  0
 24 23  1  0  0  0  0
 25  1  1  0  0  0  0
 26 28  2  0  0  0  0
 28 27  1  0  0  0  0
 28 25  1  0  0  0  0
M  END
>  <MODEL>
2

>  <REMARK>
 VINA RESULT:      -7.4      2.825      6.924
  Name = 
  4 active torsions:
  status: ('A' for Active; 'I' for Inactive)
    1  A    between atoms: C_1  and  N_6
    2  A    between atoms: N_6  and  C_28
    3  A    between atoms: C_15  and  C_20
    4  A    between atoms: C_17  and  C_28
                            x       y       z     vdW  Elec       q    Type
                         _______ _______ _______ _____ _____    ______ ____

>  <TORSDO>
F 4

$$$$
=
 OpenBabel11042421103D

 28 31  0  0  0  0  0  0  0  0999 V2000
  160.9510  205.4570  149.6200 N   0  0  0  0  0  0  0  0  0  0  0  0
  161.0510  207.6130  150.7830 N   0  0  0  0  0  0  0  0  0  0  0  0
  161.5820  208.0370  156.1530 C   0  0  0  0  0  2  0  0  0  0  0  0
  161.1070  206.8040  152.8390 C   0  0  0  0  0  0  0  0  0  0  0  0
  161.1150  207.9320  152.0870 C   0  0  0  0  0  0  0  0  0  0  0  0
  160.5410  210.8450  156.0370 C   0  0  0  0  0  3  0  0  0  0  0  0
  161.1910  206.8380  154.2190 C   0  0  0  0  0  3  0  0  0  0  0  0
  161.1160  209.2120  152.6560 C   0  0  0  0  0  0  0  0  0  0  0  0
  161.2540  208.0880  154.8580 C   0  0  0  0  0  0  0  0  0  0  0  0
  161.0200  206.2550  150.8120 C   0  0  0  0  0  0  0  0  0  0  0  0
  161.0550  205.7150  152.0580 N   0  0  0  0  0  2  0  0  0  0  0  0
  162.0410  209.1930  156.9710 C   0  0  0  0  0  2  0  0  0  0  0  0
  161.1120  209.3010  154.0860 C   0  0  0  0  0  0  0  0  0  0  0  0
  161.0310  210.2280  157.0620 N   0  0  0  0  0  0  0  0  0  0  0  0
  160.8230  210.5010  154.6310 C   0  0  0  0  0  2  0  0  0  0  0  0
  159.1630  213.5540  151.3910 O   0  0  0  0  0  1  0  0  0  0  0  0
  160.9050  212.5970  150.0250 C   0  0  0  0  0  3  0  0  0  0  0  0
  160.1360  211.4330  152.0030 C   0  0  0  0  0  3  0  0  0  0  0  0
  161.0500  210.3970  151.7610 C   0  0  0  0  0  0  0  0  0  0  0  0
  160.0660  212.5310  151.1410 C   0  0  0  0  0  0  0  0  0  0  0  0
  161.8120  211.5650  149.7710 C   0  0  0  0  0  3  0  0  0  0  0  0
  161.8820  210.4670  150.6330 C   0  0  0  0  0  3  0  0  0  0  0  0
  160.8990  204.0030  149.6950 C   0  0  0  0  0  2  0  0  0  0  0  0
  161.0630  203.4010  148.3110 C   0  0  0  0  0  1  0  0  0  0  0  0
  160.7880  206.0910  148.3190 C   0  0  0  0  0  2  0  0  0  0  0  0
  162.6510  205.7570  146.8690 O   0  0  0  0  0  0  0  0  0  0  0  0
  162.7470  207.6280  148.1890 O   0  0  0  0  0  1  0  0  0  0  0  0
  162.1160  206.4690  147.7580 C   0  0  0  0  0  0  0  0  0  0  0  0
  1 23  1  0  0  0  0
  1 10  1  0  0  0  0
  2 10  2  0  0  0  0
  2  5  1  0  0  0  0
  3 12  1  0  0  0  0
  4  7  1  0  0  0  0
  5  8  1  0  0  0  0
  5  4  2  0  0  0  0
  6 14  2  0  0  0  0
  7  9  2  0  0  0  0
  8 13  2  0  0  0  0
  9  3  1  0  0  0  0
 10 11  1  0  0  0  0
 11  4  1  0  0  0  0
 12 14  1  0  0  0  0
 13 15  1  0  0  0  0
 13  9  1  0  0  0  0
 15  6  1  0  0  0  0
 17 20  1  0  0  0  0
 19 18  1  0  0  0  0
 19  8  1  0  0  0  0
 20 16  1  0  0  0  0
 20 18  2  0  0  0  0
 21 17  2  0  0  0  0
 21 22  1  0  0  0  0
 22 19  2  0  0  0  0
 24 23  1  0  0  0  0
 25  1  1  0  0  0  0
 26 28  2  0  0  0  0
 28 27  1  0  0  0  0
 28 25  1  0  0  0  0
M  END
>  <MODEL>
3

>  <REMARK>
 VINA RESULT:      -7.2      2.872      7.143
  Name = 
  4 active torsions:
  status: ('A' for Active; 'I' for Inactive)
    1  A    between atoms: C_1  and  N_6
    2  A    between atoms: N_6  and  C_28
    3  A    between atoms: C_15  and  C_20
    4  A    between atoms: C_17  and  C_28
                            x       y       z     vdW  Elec       q    Type
                         _______ _______ _______ _____ _____    ______ ____

>  <TORSDO>
F 4

$$$$
=
 OpenBabel11042421103D

 28 31  0  0  0  0  0  0  0  0999 V2000
  161.2950  207.7300  155.1030 N   0  0  0  0  0  0  0  0  0  0  0  0
  161.2710  207.2600  152.6970 N   0  0  0  0  0  0  0  0  0  0  0  0
  160.4710  202.3040  150.6750 C   0  0  0  0  0  2  0  0  0  0  0  0
  161.0480  205.0670  152.8560 C   0  0  0  0  0  0  0  0  0  0  0  0
  161.1560  206.1160  152.0030 C   0  0  0  0  0  0  0  0  0  0  0  0
  161.6980  203.1630  148.0780 C   0  0  0  0  0  3  0  0  0  0  0  0
  160.8900  203.7680  152.4100 C   0  0  0  0  0  3  0  0  0  0  0  0
  161.2060  205.9490  150.6130 C   0  0  0  0  0  0  0  0  0  0  0  0
  160.8730  203.5300  151.0250 C   0  0  0  0  0  0  0  0  0  0  0  0
  161.2120  206.8330  153.9850 C   0  0  0  0  0  0  0  0  0  0  0  0
  161.0730  205.4900  154.1280 N   0  0  0  0  0  2  0  0  0  0  0  0
  160.0430  201.8970  149.3080 C   0  0  0  0  0  2  0  0  0  0  0  0
  161.1360  204.6110  150.1040 C   0  0  0  0  0  0  0  0  0  0  0  0
  161.1110  202.0400  148.3400 N   0  0  0  0  0  0  0  0  0  0  0  0
  161.4720  204.4220  148.8110 C   0  0  0  0  0  2  0  0  0  0  0  0
  162.2620  210.7270  150.0430 O   0  0  0  0  0  1  0  0  0  0  0  0
  161.7010  209.4000  148.1090 C   0  0  0  0  0  3  0  0  0  0  0  0
  161.7530  208.3840  150.3050 C   0  0  0  0  0  3  0  0  0  0  0  0
  161.3990  207.1440  149.7510 C   0  0  0  0  0  0  0  0  0  0  0  0
  161.9070  209.5060  149.4870 C   0  0  0  0  0  0  0  0  0  0  0  0
  161.3390  208.1720  147.5500 C   0  0  0  0  0  3  0  0  0  0  0  0
  161.1850  207.0490  148.3680 C   0  0  0  0  0  3  0  0  0  0  0  0
  161.2480  207.2290  156.4700 C   0  0  0  0  0  2  0  0  0  0  0  0
  159.8080  207.0450  156.9120 C   0  0  0  0  0  1  0  0  0  0  0  0
  161.5710  209.1450  154.8920 C   0  0  0  0  0  2  0  0  0  0  0  0
  159.9900  210.2310  153.4750 O   0  0  0  0  0  0  0  0  0  0  0  0
  159.4470  210.1720  155.7010 O   0  0  0  0  0  1  0  0  0  0  0  0
  160.3030  209.8880  154.6450 C   0  0  0  0  0  0  0  0  0  0  0  0
  1 23  1  0  0  0  0
  2 10  2  0  0  0  0
  3  9  1  0  0  0  0
  4 11  1  0  0  0  0
  5  2  1  0  0  0  0
  5  4  2  0  0  0  0
  6 14  2  0  0  0  0
  6 15  1  0  0  0  0
  7  4  1  0  0  0  0
  8  5  1  0  0  0  0
  9  7  2  0  0  0  0
 10 11  1  0  0  0  0
 10  1  1  0  0  0  0
 12  3  1  0  0  0  0
 13  8  2  0  0  0  0
 13  9  1  0  0  0  0
 14 12  1  0  0  0  0
 15 13  1  0  0  0  0
 17 20  1  0  0  0  0
 19 18  1  0  0  0  0
 19  8  1  0  0  0  0
 20 16  1  0  0  0  0
 20 18  2  0  0  0  0
 21 17  2  0  0  0  0
 21 22  1  0  0  0  0
 22 19  2  0  0  0  0
 23 24  1  0  0  0  0
 25  1  1  0  0  0  0
 26 28  2  0  0  0  0
 28 25  1  0  0  0  0
 28 27  1  0  0  0  0
M  END
>  <MODEL>
4

>  <REMARK>
 VINA RESULT:      -7.1      2.869      4.572
  Name = 
  4 active torsions:
  status: ('A' for Active; 'I' for Inactive)
    1  A    between atoms: C_1  and  N_6
    2  A    between atoms: N_6  and  C_28
    3  A    between atoms: C_15  and  C_20
    4  A    between atoms: C_17  and  C_28
                            x       y       z     vdW  Elec       q    Type
                         _______ _______ _______ _____ _____    ______ ____

>  <TORSDO>
F 4

$$$$
=
 OpenBabel11042421103D

 28 31  0  0  0  0  0  0  0  0999 V2000
  161.9500  211.2590  148.9730 N   0  0  0  0  0  0  0  0  0  0  0  0
  161.6500  209.1650  150.2100 N   0  0  0  0  0  0  0  0  0  0  0  0
  161.5000  204.3200  147.8010 C   0  0  0  0  0  2  0  0  0  0  0  0
  161.5660  207.8270  148.4530 C   0  0  0  0  0  0  0  0  0  0  0  0
  161.5220  207.8890  149.8070 C   0  0  0  0  0  0  0  0  0  0  0  0
  160.1420  203.1620  150.2100 C   0  0  0  0  0  3  0  0  0  0  0  0
  161.4850  206.6280  147.7680 C   0  0  0  0  0  3  0  0  0  0  0  0
  161.3000  206.7580  150.6020 C   0  0  0  0  0  0  0  0  0  0  0  0
  161.3200  205.4430  148.5040 C   0  0  0  0  0  0  0  0  0  0  0  0
  161.7830  209.8350  149.0360 C   0  0  0  0  0  0  0  0  0  0  0  0
  161.7390  209.0490  147.9290 N   0  0  0  0  0  2  0  0  0  0  0  0
  161.7160  202.9660  148.3830 C   0  0  0  0  0  2  0  0  0  0  0  0
  161.1200  205.5030  149.9330 C   0  0  0  0  0  0  0  0  0  0  0  0
  160.5830  202.5280  149.1710 N   0  0  0  0  0  0  0  0  0  0  0  0
  160.6250  204.4800  150.6600 C   0  0  0  0  0  2  0  0  0  0  0  0
  160.3600  209.5200  154.5720 O   0  0  0  0  0  1  0  0  0  0  0  0
  161.0530  207.2280  154.8610 C   0  0  0  0  0  3  0  0  0  0  0  0
  160.8150  208.1520  152.6370 C   0  0  0  0  0  3  0  0  0  0  0  0
  161.1930  206.9240  152.0750 C   0  0  0  0  0  0  0  0  0  0  0  0
  160.7410  208.3030  154.0240 C   0  0  0  0  0  0  0  0  0  0  0  0
  161.4410  206.0040  154.3110 C   0  0  0  0  0  3  0  0  0  0  0  0
  161.5140  205.8530  152.9230 C   0  0  0  0  0  3  0  0  0  0  0  0
  162.0690  211.9430  147.6920 C   0  0  0  0  0  2  0  0  0  0  0  0
  163.1150  213.0400  147.7770 C   0  0  0  0  0  1  0  0  0  0  0  0
  161.8620  212.0650  150.1830 C   0  0  0  0  0  2  0  0  0  0  0  0
  159.8340  212.3180  151.4110 O   0  0  0  0  0  1  0  0  0  0  0  0
  159.9040  213.3860  149.3840 O   0  0  0  0  0  0  0  0  0  0  0  0
  160.4760  212.5820  150.3610 C   0  0  0  0  0  0  0  0  0  0  0  0
  1 10  1  0  0  0  0
  1 25  1  0  0  0  0
  3 12  1  0  0  0  0
  3  9  1  0  0  0  0
  4  5  1  0  0  0  0
  5  2  1  0  0  0  0
  5  8  2  0  0  0  0
  6 15  1  0  0  0  0
  7  4  2  0  0  0  0
  7  9  1  0  0  0  0
  8 19  1  0  0  0  0
  9 13  2  0  0  0  0
 10  2  2  0  0  0  0
 11  4  1  0  0  0  0
 11 10  1  0  0  0  0
 12 14  1  0  0  0  0
 13  8  1  0  0  0  0
 13 15  1  0  0  0  0
 14  6  2  0  0  0  0
 18 20  1  0  0  0  0
 19 18  2  0  0  0  0
 19 22  1  0  0  0  0
 20 16  1  0  0  0  0
 20 17  2  0  0  0  0
 21 17  1  0  0  0  0
 22 21  2  0  0  0  0
 23 24  1  0  0  0  0
 23  1  1  0  0  0  0
 25 28  1  0  0  0  0
 27 28  2  0  0  0  0
 28 26  1  0  0  0  0
M  END
>  <MODEL>
5

>  <REMARK>
 VINA RESULT:      -6.9      2.681      5.049
  Name = 
  4 active torsions:
  status: ('A' for Active; 'I' for Inactive)
    1  A    between atoms: C_1  and  N_6
    2  A    between atoms: N_6  and  C_28
    3  A    between atoms: C_15  and  C_20
    4  A    between atoms: C_17  and  C_28
                            x       y       z     vdW  Elec       q    Type
                         _______ _______ _______ _____ _____    ______ ____

>  <TORSDO>
F 4

$$$$
=
 OpenBabel11042421103D

 28 31  0  0  0  0  0  0  0  0999 V2000
  162.1120  205.7170  147.3510 N   0  0  0  0  0  0  0  0  0  0  0  0
  162.0390  207.9880  148.2700 N   0  0  0  0  0  0  0  0  0  0  0  0
  161.2250  209.0120  153.5220 C   0  0  0  0  0  2  0  0  0  0  0  0
  161.5290  207.4200  150.3440 C   0  0  0  0  0  0  0  0  0  0  0  0
  161.7910  208.4530  149.5060 C   0  0  0  0  0  0  0  0  0  0  0  0
  160.4080  211.8170  152.8520 C   0  0  0  0  0  3  0  0  0  0  0  0
  161.2650  207.6100  151.6890 C   0  0  0  0  0  3  0  0  0  0  0  0
  161.7210  209.7890  149.9200 C   0  0  0  0  0  0  0  0  0  0  0  0
  161.2370  208.9230  152.1890 C   0  0  0  0  0  0  0  0  0  0  0  0
  161.9250  206.6440  148.4310 C   0  0  0  0  0  0  0  0  0  0  0  0
  161.6140  206.2510  149.6930 N   0  0  0  0  0  2  0  0  0  0  0  0
  161.5290  210.2410  154.3050 C   0  0  0  0  0  2  0  0  0  0  0  0
  161.3630  210.0430  151.2840 C   0  0  0  0  0  0  0  0  0  0  0  0
  160.5890  211.3080  154.0270 N   0  0  0  0  0  0  0  0  0  0  0  0
  161.0140  211.3050  151.6090 C   0  0  0  0  0  2  0  0  0  0  0  0
  160.1450  212.6580  146.2380 O   0  0  0  0  0  1  0  0  0  0  0  0
  162.4230  212.8590  147.0030 C   0  0  0  0  0  3  0  0  0  0  0  0
  160.9290  211.2670  148.0470 C   0  0  0  0  0  3  0  0  0  0  0  0
  161.9500  210.8650  148.9200 C   0  0  0  0  0  0  0  0  0  0  0  0
  161.1630  212.2630  147.0950 C   0  0  0  0  0  0  0  0  0  0  0  0
  163.4500  212.4580  147.8610 C   0  0  0  0  0  3  0  0  0  0  0  0
  163.2150  211.4630  148.8150 C   0  0  0  0  0  3  0  0  0  0  0  0
  161.9610  204.2830  147.5610 C   0  0  0  0  0  2  0  0  0  0  0  0
  160.8310  204.0120  148.5370 C   0  0  0  0  0  1  0  0  0  0  0  0
  162.3180  206.2010  145.9930 C   0  0  0  0  0  2  0  0  0  0  0  0
  161.3760  205.0720  144.1160 O   0  0  0  0  0  0  0  0  0  0  0  0
  159.8870  206.2030  145.4410 O   0  0  0  0  0  1  0  0  0  0  0  0
  161.1770  205.8010  145.1220 C   0  0  0  0  0  0  0  0  0  0  0  0
  1 23  1  0  0  0  0
  1 10  1  0  0  0  0
  2 10  2  0  0  0  0
  2  5  1  0  0  0  0
  3 12  1  0  0  0  0
  4  7  1  0  0  0  0
  5  8  1  0  0  0  0
  5  4  2  0  0  0  0
  6 14  2  0  0  0  0
  7  9  2  0  0  0  0
  8 13  2  0  0  0  0
  9  3  1  0  0  0  0
 10 11  1  0  0  0  0
 11  4  1  0  0  0  0
 13 15  1  0  0  0  0
 13  9  1  0  0  0  0
 14 12  1  0  0  0  0
 15  6  1  0  0  0  0
 16 20  1  0  0  0  0
 17 20  2  0  0  0  0
 17 21  1  0  0  0  0
 18 19  2  0  0  0  0
 19  8  1  0  0  0  0
 20 18  1  0  0  0  0
 21 22  2  0  0  0  0
 22 19  1  0  0  0  0
 23 24  1  0  0  0  0
 25  1  1  0  0  0  0
 26 28  2  0  0  0  0
 28 27  1  0  0  0  0
 28 25  1  0  0  0  0
M  END
>  <MODEL>
6

>  <REMARK>
 VINA RESULT:      -6.9      2.127      6.699
  Name = 
  4 active torsions:
  status: ('A' for Active; 'I' for Inactive)
    1  A    between atoms: C_1  and  N_6
    2  A    between atoms: N_6  and  C_28
    3  A    between atoms: C_15  and  C_20
    4  A    between atoms: C_17  and  C_28
                            x       y       z     vdW  Elec       q    Type
                         _______ _______ _______ _____ _____    ______ ____

>  <TORSDO>
F 4

$$$$
=
 OpenBabel11042421103D

 28 31  0  0  0  0  0  0  0  0999 V2000
  161.3220  207.8550  154.2180 N   0  0  0  0  0  0  0  0  0  0  0  0
  161.2090  206.9140  151.9570 N   0  0  0  0  0  0  0  0  0  0  0  0
  160.4790  201.6380  150.9980 C   0  0  0  0  0  2  0  0  0  0  0  0
  161.0630  204.7920  152.5580 C   0  0  0  0  0  0  0  0  0  0  0  0
  161.1000  205.6520  151.5090 C   0  0  0  0  0  0  0  0  0  0  0  0
  161.5650  201.9880  148.2260 C   0  0  0  0  0  3  0  0  0  0  0  0
  160.9260  203.4270  152.3860 C   0  0  0  0  0  3  0  0  0  0  0  0
  161.0970  205.2120  150.1800 C   0  0  0  0  0  0  0  0  0  0  0  0
  160.8570  202.9170  151.0780 C   0  0  0  0  0  0  0  0  0  0  0  0
  161.2190  206.7510  153.3050 C   0  0  0  0  0  0  0  0  0  0  0  0
  161.1280  205.4600  153.7190 N   0  0  0  0  0  2  0  0  0  0  0  0
  160.0050  200.9570  149.7610 C   0  0  0  0  0  2  0  0  0  0  0  0
  161.0460  203.7980  149.9500 C   0  0  0  0  0  0  0  0  0  0  0  0
  161.0260  200.9270  148.7340 N   0  0  0  0  0  0  0  0  0  0  0  0
  161.3320  203.3630  148.7050 C   0  0  0  0  0  2  0  0  0  0  0  0
  160.4550  206.5780  145.4900 O   0  0  0  0  0  1  0  0  0  0  0  0
  161.5010  208.1070  147.0360 C   0  0  0  0  0  3  0  0  0  0  0  0
  160.7670  205.9280  147.7920 C   0  0  0  0  0  3  0  0  0  0  0  0
  161.2150  206.2160  149.0900 C   0  0  0  0  0  0  0  0  0  0  0  0
  160.9060  206.8700  146.7700 C   0  0  0  0  0  0  0  0  0  0  0  0
  161.9590  208.3990  148.3230 C   0  0  0  0  0  3  0  0  0  0  0  0
  161.8190  207.4560  149.3460 C   0  0  0  0  0  3  0  0  0  0  0  0
  161.3490  207.6350  155.6580 C   0  0  0  0  0  2  0  0  0  0  0  0
  159.9540  207.3280  156.1680 C   0  0  0  0  0  1  0  0  0  0  0  0
  161.5450  209.2050  153.7180 C   0  0  0  0  0  2  0  0  0  0  0  0
  159.7070  210.0680  152.4680 O   0  0  0  0  0  0  0  0  0  0  0  0
  159.6220  210.4270  154.7310 O   0  0  0  0  0  1  0  0  0  0  0  0
  160.2490  209.9310  153.5960 C   0  0  0  0  0  0  0  0  0  0  0  0
  1 23  1  0  0  0  0
  2 10  2  0  0  0  0
  3  9  1  0  0  0  0
  4 11  1  0  0  0  0
  5  2  1  0  0  0  0
  5  4  2  0  0  0  0
  6 15  1  0  0  0  0
  6 14  2  0  0  0  0
  7  4  1  0  0  0  0
  8  5  1  0  0  0  0
  9  7  2  0  0  0  0
 10 11  1  0  0  0  0
 10  1  1  0  0  0  0
 12  3  1  0  0  0  0
 13  8  2  0  0  0  0
 13  9  1  0  0  0  0
 14 12  1  0  0  0  0
 15 13  1  0  0  0  0
 16 20  1  0  0  0  0
 17 21  1  0  0  0  0
 18 19  2  0  0  0  0
 19 22  1  0  0  0  0
 19  8  1  0  0  0  0
 20 17  2  0  0  0  0
 20 18  1  0  0  0  0
 21 22  2  0  0  0  0
 23 24  1  0  0  0  0
 25  1  1  0  0  0  0
 26 28  2  0  0  0  0
 28 25  1  0  0  0  0
 28 27  1  0  0  0  0
M  END
>  <MODEL>
7

>  <REMARK>
 VINA RESULT:      -6.9      2.551      3.646
  Name = 
  4 active torsions:
  status: ('A' for Active; 'I' for Inactive)
    1  A    between atoms: C_1  and  N_6
    2  A    between atoms: N_6  and  C_28
    3  A    between atoms: C_15  and  C_20
    4  A    between atoms: C_17  and  C_28
                            x       y       z     vdW  Elec       q    Type
                         _______ _______ _______ _____ _____    ______ ____

>  <TORSDO>
F 4

$$$$
=
 OpenBabel11042421103D

 28 31  0  0  0  0  0  0  0  0999 V2000
  161.2640  208.7920  152.6850 N   0  0  0  0  0  0  0  0  0  0  0  0
  161.3120  206.7120  151.3890 N   0  0  0  0  0  0  0  0  0  0  0  0
  162.2610  206.5860  146.0620 C   0  0  0  0  0  2  0  0  0  0  0  0
  161.5960  207.6420  149.4040 C   0  0  0  0  0  0  0  0  0  0  0  0
  161.4630  206.4710  150.0760 C   0  0  0  0  0  0  0  0  0  0  0  0
  161.0210  203.8620  145.9030 C   0  0  0  0  0  3  0  0  0  0  0  0
  161.7940  207.6880  148.0360 C   0  0  0  0  0  3  0  0  0  0  0  0
  161.4220  205.2330  149.4230 C   0  0  0  0  0  0  0  0  0  0  0  0
  161.8230  206.4790  147.3200 C   0  0  0  0  0  0  0  0  0  0  0  0
  161.3780  208.0670  151.4510 C   0  0  0  0  0  0  0  0  0  0  0  0
  161.5550  208.6800  150.2510 N   0  0  0  0  0  2  0  0  0  0  0  0
  162.7060  205.4520  145.2060 C   0  0  0  0  0  2  0  0  0  0  0  0
  161.5330  205.2340  147.9930 C   0  0  0  0  0  0  0  0  0  0  0  0
  161.6380  204.5030  144.9640 N   0  0  0  0  0  0  0  0  0  0  0  0
  161.2080  204.0950  147.3460 C   0  0  0  0  0  2  0  0  0  0  0  0
  160.7040  200.3700  149.7500 O   0  0  0  0  0  1  0  0  0  0  0  0
  160.7220  201.7020  151.7610 C   0  0  0  0  0  3  0  0  0  0  0  0
  161.0640  202.7520  149.6070 C   0  0  0  0  0  3  0  0  0  0  0  0
  161.1990  204.0030  150.2260 C   0  0  0  0  0  0  0  0  0  0  0  0
  160.8300  201.6050  150.3710 C   0  0  0  0  0  0  0  0  0  0  0  0
  160.8440  202.9460  152.3850 C   0  0  0  0  0  3  0  0  0  0  0  0
  161.0790  204.0920  151.6210 C   0  0  0  0  0  3  0  0  0  0  0  0
  161.3200  210.2480  152.7060 C   0  0  0  0  0  2  0  0  0  0  0  0
  159.9590  210.8310  152.3730 C   0  0  0  0  0  1  0  0  0  0  0  0
  160.9490  208.0920  153.9230 C   0  0  0  0  0  2  0  0  0  0  0  0
  159.7250  209.4580  155.4470 O   0  0  0  0  0  0  0  0  0  0  0  0
  162.0030  209.4920  155.6980 O   0  0  0  0  0  1  0  0  0  0  0  0
  160.8520  209.0590  155.0530 C   0  0  0  0  0  0  0  0  0  0  0  0
  1 23  1  0  0  0  0
  1 25  1  0  0  0  0
  2 10  2  0  0  0  0
  3  9  1  0  0  0  0
  4  5  1  0  0  0  0
  4 11  1  0  0  0  0
  5  2  1  0  0  0  0
  6 15  1  0  0  0  0
  7  4  2  0  0  0  0
  8  5  2  0  0  0  0
  8 19  1  0  0  0  0
  9 13  2  0  0  0  0
  9  7  1  0  0  0  0
 10  1  1  0  0  0  0
 11 10  1  0  0  0  0
 12  3  1  0  0  0  0
 13  8  1  0  0  0  0
 14 12  1  0  0  0  0
 14  6  2  0  0  0  0
 15 13  1  0  0  0  0
 16 20  1  0  0  0  0
 17 21  1  0  0  0  0
 18 19  2  0  0  0  0
 18 20  1  0  0  0  0
 19 22  1  0  0  0  0
 20 17  2  0  0  0  0
 22 21  2  0  0  0  0
 24 23  1  0  0  0  0
 25 28  1  0  0  0  0
 28 26  2  0  0  0  0
 28 27  1  0  0  0  0
M  END
>  <MODEL>
8

>  <REMARK>
 VINA RESULT:      -6.4      3.031      5.085
  Name = 
  4 active torsions:
  status: ('A' for Active; 'I' for Inactive)
    1  A    between atoms: C_1  and  N_6
    2  A    between atoms: N_6  and  C_28
    3  A    between atoms: C_15  and  C_20
    4  A    between atoms: C_17  and  C_28
                            x       y       z     vdW  Elec       q    Type
                         _______ _______ _______ _____ _____    ______ ____

>  <TORSDO>
F 4

$$$$
=
 OpenBabel11042421103D

 28 31  0  0  0  0  0  0  0  0999 V2000
  162.1590  205.1610  145.3240 N   0  0  0  0  0  0  0  0  0  0  0  0
  161.6620  204.8180  147.6990 N   0  0  0  0  0  0  0  0  0  0  0  0
  161.1190  208.8990  151.2120 C   0  0  0  0  0  2  0  0  0  0  0  0
  161.7840  206.9390  148.3060 C   0  0  0  0  0  0  0  0  0  0  0  0
  161.5530  205.6720  148.7300 C   0  0  0  0  0  0  0  0  0  0  0  0
  161.6040  207.0100  153.4870 C   0  0  0  0  0  3  0  0  0  0  0  0
  161.7100  208.0260  149.1580 C   0  0  0  0  0  3  0  0  0  0  0  0
  161.3140  205.3640  150.0760 C   0  0  0  0  0  0  0  0  0  0  0  0
  161.4170  207.7990  150.5140 C   0  0  0  0  0  0  0  0  0  0  0  0
  161.9510  205.6430  146.6600 C   0  0  0  0  0  0  0  0  0  0  0  0
  162.0340  206.9580  146.9890 N   0  0  0  0  0  2  0  0  0  0  0  0
  160.4560  208.9190  152.5450 C   0  0  0  0  0  2  0  0  0  0  0  0
  161.3170  206.4480  151.0140 C   0  0  0  0  0  0  0  0  0  0  0  0
  161.2510  208.2520  153.5560 N   0  0  0  0  0  0  0  0  0  0  0  0
  161.3780  206.1320  152.3240 C   0  0  0  0  0  2  0  0  0  0  0  0
  159.3250  200.9110  149.3860 O   0  0  0  0  0  1  0  0  0  0  0  0
  160.7930  201.2730  151.2640 C   0  0  0  0  0  3  0  0  0  0  0  0
  160.3150  203.0830  149.7310 C   0  0  0  0  0  3  0  0  0  0  0  0
  161.1440  203.9410  150.4690 C   0  0  0  0  0  0  0  0  0  0  0  0
  160.1430  201.7540  150.1250 C   0  0  0  0  0  0  0  0  0  0  0  0
  161.6130  202.1220  152.0110 C   0  0  0  0  0  3  0  0  0  0  0  0
  161.7860  203.4520  151.6170 C   0  0  0  0  0  3  0  0  0  0  0  0
  162.4870  206.0780  144.2400 C   0  0  0  0  0  2  0  0  0  0  0  0
  161.5810  205.8280  143.0480 C   0  0  0  0  0  1  0  0  0  0  0  0
  162.1840  203.7300  145.0530 C   0  0  0  0  0  2  0  0  0  0  0  0
  159.8570  203.5760  144.5560 O   0  0  0  0  0  0  0  0  0  0  0  0
  160.6340  202.0990  146.1280 O   0  0  0  0  0  1  0  0  0  0  0  0
  160.8250  203.1450  145.2350 C   0  0  0  0  0  0  0  0  0  0  0  0
  1 10  1  0  0  0  0
  2  5  1  0  0  0  0
  3 12  1  0  0  0  0
  4  5  2  0  0  0  0
  4  7  1  0  0  0  0
  5  8  1  0  0  0  0
  6 14  2  0  0  0  0
  7  9  2  0  0  0  0
  8 19  1  0  0  0  0
  8 13  2  0  0  0  0
  9 13  1  0  0  0  0
  9  3  1  0  0  0  0
 10 11  1  0  0  0  0
 10  2  2  0  0  0  0
 11  4  1  0  0  0  0
 12 14  1  0  0  0  0
 13 15  1  0  0  0  0
 15  6  1  0  0  0  0
 16 20  1  0  0  0  0
 17 21  1  0  0  0  0
 18 20  1  0  0  0  0
 18 19  2  0  0  0  0
 19 22  1  0  0  0  0
 20 17  2  0  0  0  0
 22 21  2  0  0  0  0
 23  1  1  0  0  0  0
 24 23  1  0  0  0  0
 25 28  1  0  0  0  0
 25  1  1  0  0  0  0
 26 28  2  0  0  0  0
 28 27  1  0  0  0  0
M  END
>  <MODEL>
9

>  <REMARK>
 VINA RESULT:      -6.0      3.464      6.470
  Name = 
  4 active torsions:
  status: ('A' for Active; 'I' for Inactive)
    1  A    between atoms: C_1  and  N_6
    2  A    between atoms: N_6  and  C_28
    3  A    between atoms: C_15  and  C_20
    4  A    between atoms: C_17  and  C_28
                            x       y       z     vdW  Elec       q    Type
                         _______ _______ _______ _____ _____    ______ ____

>  <TORSDO>
F 4

$$$$
