=
 OpenBabel11042420133D

 25 28  0  0  1  0  0  0  0  0999 V2000
  161.0880  205.0160  148.9150 C   0  0  0  0  0  0  0  0  0  0  0  0
  162.3930  203.8150  147.1890 C   0  0  0  0  0  3  0  0  0  0  0  0
  160.4520  207.3040  149.0530 O   0  0  0  0  0  0  0  0  0  0  0  0
  160.6280  206.2950  146.8240 C   0  0  0  0  0  3  0  0  0  0  0  0
  162.4140  204.6590  146.1580 C   0  0  0  0  0  0  0  0  0  0  0  0
  161.1400  204.9300  153.1770 C   0  0  0  0  0  3  0  0  0  0  0  0
  160.7500  206.1650  148.2920 C   0  0  0  0  0  0  0  0  0  0  0  0
  160.9060  207.4910  150.3980 C   0  0  1  0  0  3  0  0  0  0  0  0
  161.3500  205.6490  145.9000 C   0  0  0  0  0  3  0  0  0  0  0  0
  160.9990  206.1530  152.5190 C   0  0  0  0  0  3  0  0  0  0  0  0
  160.9900  206.1810  151.1220 C   0  0  0  0  0  0  0  0  0  0  0  0
  161.1310  204.9890  150.3960 C   0  0  0  0  0  0  0  0  0  0  0  0
  161.2740  203.7850  151.1000 C   0  0  0  0  0  3  0  0  0  0  0  0
  161.2570  203.7360  148.1530 C   0  0  0  0  0  2  0  0  0  0  0  0
  161.2750  203.7820  152.4600 N   0  0  0  0  0  0  0  0  0  0  0  0
  163.4720  204.5830  145.2630 O   0  0  0  0  0  1  0  0  0  0  0  0
  162.2780  208.1590  150.3920 C   0  0  0  0  0  2  0  0  0  0  0  0
  162.4240  209.9090  152.2680 C   0  0  0  0  0  2  0  0  0  0  0  0
  162.1850  209.6220  150.8050 C   0  0  0  0  0  0  0  0  0  0  0  0
  161.0110  209.9470  151.6960 C   0  0  0  0  0  2  0  0  0  0  0  0
  162.5850  210.7310  149.8460 C   0  0  0  0  0  2  0  0  0  0  0  0
  161.8280  210.6180  148.6100 N   0  0  0  0  0  2  0  0  0  0  0  0
  161.0310  212.8680  149.0190 C   0  0  0  0  0  1  0  0  0  0  0  0
  163.1280  212.4880  147.7680 C   0  0  0  0  0  1  0  0  0  0  0  0
  161.7370  211.9520  148.0410 C   0  0  0  0  0  3  0  0  0  0  0  0
  1 12  1  0  0  0  0
  2 14  1  0  0  0  0
  3  8  1  0  0  0  0
  4  7  1  0  0  0  0
  5  2  2  0  0  0  0
  7  1  2  0  0  0  0
  7  3  1  0  0  0  0
  8 17  1  6  0  0  0
  8 11  1  0  0  0  0
  9  5  1  0  0  0  0
  9  4  2  0  0  0  0
 10  6  1  0  0  0  0
 11 10  2  0  0  0  0
 12 13  2  0  0  0  0
 12 11  1  0  0  0  0
 13 15  1  0  0  0  0
 14  1  1  0  0  0  0
 15  6  2  0  0  0  0
 16  5  1  0  0  0  0
 17 19  1  0  0  0  0
 19 20  1  0  0  0  0
 19 18  1  0  0  0  0
 20 18  1  0  0  0  0
 21 19  1  0  0  0  0
 22 21  1  0  0  0  0
 24 25  1  0  0  0  0
 25 22  1  0  0  0  0
 25 23  1  0  0  0  0
M  END
>  <MODEL>
1

>  <REMARK>
 VINA RESULT:      -7.6      0.000      0.000
  Name = 
  5 active torsions:
  status: ('A' for Active; 'I' for Inactive)
    1  A    between atoms: C_10  and  C_19
    2  A    between atoms: N_12  and  C_14
    3  A    between atoms: N_12  and  C_15
    4  A    between atoms: C_13  and  C_15
    5  A    between atoms: C_13  and  C_19
                            x       y       z     vdW  Elec       q    Type
                         _______ _______ _______ _____ _____    ______ ____

>  <TORSDO>
F 5

$$$$
=
 OpenBabel11042420133D

 25 28  0  0  1  0  0  0  0  0999 V2000
  161.0890  206.1050  150.7840 C   0  0  0  0  0  0  0  0  0  0  0  0
  161.9910  204.3440  152.2700 C   0  0  0  0  0  3  0  0  0  0  0  0
  160.2810  205.9730  148.5500 O   0  0  0  0  0  0  0  0  0  0  0  0
  159.9470  204.0280  150.0070 C   0  0  0  0  0  3  0  0  0  0  0  0
  161.6430  203.2070  151.6680 C   0  0  0  0  0  0  0  0  0  0  0  0
  162.3080  210.1030  149.9480 C   0  0  0  0  0  3  0  0  0  0  0  0
  160.4770  205.3950  149.8120 C   0  0  0  0  0  0  0  0  0  0  0  0
  161.0630  207.0670  148.0580 C   0  0  1  0  0  3  0  0  0  0  0  0
  160.4530  203.0790  150.8040 C   0  0  0  0  0  3  0  0  0  0  0  0
  161.8680  209.2890  148.9020 C   0  0  0  0  0  3  0  0  0  0  0  0
  161.4760  207.9760  149.1760 C   0  0  0  0  0  0  0  0  0  0  0  0
  161.5360  207.4860  150.4890 C   0  0  0  0  0  0  0  0  0  0  0  0
  161.9890  208.3390  151.5050 C   0  0  0  0  0  3  0  0  0  0  0  0
  161.1750  205.5900  152.1890 C   0  0  0  0  0  2  0  0  0  0  0  0
  162.3610  209.6140  151.2160 N   0  0  0  0  0  0  0  0  0  0  0  0
  162.4190  202.0770  151.8880 O   0  0  0  0  0  1  0  0  0  0  0  0
  162.3050  206.5370  147.3470 C   0  0  0  0  0  2  0  0  0  0  0  0
  162.3370  205.6790  144.9260 C   0  0  0  0  0  2  0  0  0  0  0  0
  161.9520  205.4290  146.3640 C   0  0  0  0  0  0  0  0  0  0  0  0
  160.8820  205.7980  145.3650 C   0  0  0  0  0  2  0  0  0  0  0  0
  161.9470  203.9730  146.7960 C   0  0  0  0  0  2  0  0  0  0  0  0
  161.5270  203.1260  145.6910 N   0  0  0  0  0  2  0  0  0  0  0  0
  160.0630  201.2890  145.1030 C   0  0  0  0  0  1  0  0  0  0  0  0
  161.0110  201.4590  147.3790 C   0  0  0  0  0  1  0  0  0  0  0  0
  160.4860  202.2490  146.1960 C   0  0  0  0  0  3  0  0  0  0  0  0
  1 14  1  0  0  0  0
  3  7  1  0  0  0  0
  4  9  2  0  0  0  0
  5 16  1  0  0  0  0
  5  2  2  0  0  0  0
  6 15  1  0  0  0  0
  7  4  1  0  0  0  0
  7  1  2  0  0  0  0
  8 17  1  1  0  0  0
  8  3  1  0  0  0  0
  8 11  1  0  0  0  0
  9  5  1  0  0  0  0
 10 11  1  0  0  0  0
 10  6  2  0  0  0  0
 11 12  2  0  0  0  0
 12  1  1  0  0  0  0
 12 13  1  0  0  0  0
 14  2  1  0  0  0  0
 15 13  2  0  0  0  0
 18 20  1  0  0  0  0
 18 19  1  0  0  0  0
 19 21  1  0  0  0  0
 19 17  1  0  0  0  0
 20 19  1  0  0  0  0
 22 25  1  0  0  0  0
 22 21  1  0  0  0  0
 23 25  1  0  0  0  0
 25 24  1  0  0  0  0
M  END
>  <MODEL>
2

>  <REMARK>
 VINA RESULT:      -7.5      2.430      6.328
  Name = 
  5 active torsions:
  status: ('A' for Active; 'I' for Inactive)
    1  A    between atoms: C_10  and  C_19
    2  A    between atoms: N_12  and  C_14
    3  A    between atoms: N_12  and  C_15
    4  A    between atoms: C_13  and  C_15
    5  A    between atoms: C_13  and  C_19
                            x       y       z     vdW  Elec       q    Type
                         _______ _______ _______ _____ _____    ______ ____

>  <TORSDO>
F 5

$$$$
=
 OpenBabel11042420133D

 25 28  0  0  1  0  0  0  0  0999 V2000
  161.4860  207.6480  152.1280 C   0  0  0  0  0  0  0  0  0  0  0  0
  160.0620  209.3810  153.1740 C   0  0  0  0  0  3  0  0  0  0  0  0
  162.5510  207.6050  150.0010 O   0  0  0  0  0  0  0  0  0  0  0  0
  162.2950  209.7780  151.1130 C   0  0  0  0  0  3  0  0  0  0  0  0
  160.2600  210.4590  152.4170 C   0  0  0  0  0  0  0  0  0  0  0  0
  161.1980  203.4010  151.9020 C   0  0  0  0  0  3  0  0  0  0  0  0
  162.0750  208.3150  151.1130 C   0  0  0  0  0  0  0  0  0  0  0  0
  162.0730  206.3060  149.6360 C   0  0  1  0  0  3  0  0  0  0  0  0
  161.5090  210.7060  151.6710 C   0  0  0  0  0  3  0  0  0  0  0  0
  161.6100  204.1200  150.7780 C   0  0  0  0  0  3  0  0  0  0  0  0
  161.6960  205.5120  150.8500 C   0  0  0  0  0  0  0  0  0  0  0  0
  161.3620  206.1740  152.0420 C   0  0  0  0  0  0  0  0  0  0  0  0
  160.9500  205.4110  153.1420 C   0  0  0  0  0  3  0  0  0  0  0  0
  161.1090  208.3430  153.4020 C   0  0  0  0  0  2  0  0  0  0  0  0
  160.8770  204.0560  153.0500 N   0  0  0  0  0  0  0  0  0  0  0  0
  159.2560  211.4150  152.3510 O   0  0  0  0  0  1  0  0  0  0  0  0
  160.8610  206.4390  148.7180 C   0  0  0  0  0  2  0  0  0  0  0  0
  162.0310  206.2180  146.4420 C   0  0  0  0  0  2  0  0  0  0  0  0
  161.0480  205.6440  147.4330 C   0  0  0  0  0  0  0  0  0  0  0  0
  160.5310  206.3310  146.1920 C   0  0  0  0  0  2  0  0  0  0  0  0
  160.9180  204.1300  147.4250 C   0  0  0  0  0  2  0  0  0  0  0  0
  161.4280  203.5930  146.1730 N   0  0  0  0  0  2  0  0  0  0  0  0
  160.7800  201.7410  147.5920 C   0  0  0  0  0  1  0  0  0  0  0  0
  160.1010  201.8000  145.2170 C   0  0  0  0  0  1  0  0  0  0  0  0
  161.1990  202.1590  146.1980 C   0  0  0  0  0  3  0  0  0  0  0  0
  1 14  1  0  0  0  0
  2 14  1  0  0  0  0
  3  7  1  0  0  0  0
  4  9  2  0  0  0  0
  5  2  2  0  0  0  0
  6 15  1  0  0  0  0
  7  4  1  0  0  0  0
  7  1  2  0  0  0  0
  8 17  1  6  0  0  0
  8  3  1  0  0  0  0
  8 11  1  0  0  0  0
  9  5  1  0  0  0  0
 10 11  1  0  0  0  0
 10  6  2  0  0  0  0
 11 12  2  0  0  0  0
 12  1  1  0  0  0  0
 12 13  1  0  0  0  0
 15 13  2  0  0  0  0
 16  5  1  0  0  0  0
 18 19  1  0  0  0  0
 19 17  1  0  0  0  0
 20 18  1  0  0  0  0
 20 19  1  0  0  0  0
 21 19  1  0  0  0  0
 22 25  1  0  0  0  0
 22 21  1  0  0  0  0
 24 25  1  0  0  0  0
 25 23  1  0  0  0  0
M  END
>  <MODEL>
3

>  <REMARK>
 VINA RESULT:      -7.4      2.529      6.514
  Name = 
  5 active torsions:
  status: ('A' for Active; 'I' for Inactive)
    1  A    between atoms: C_10  and  C_19
    2  A    between atoms: N_12  and  C_14
    3  A    between atoms: N_12  and  C_15
    4  A    between atoms: C_13  and  C_15
    5  A    between atoms: C_13  and  C_19
                            x       y       z     vdW  Elec       q    Type
                         _______ _______ _______ _____ _____    ______ ____

>  <TORSDO>
F 5

$$$$
=
 OpenBabel11042420133D

 25 28  0  0  1  0  0  0  0  0999 V2000
  161.3000  209.4940  152.0700 C   0  0  0  0  0  0  0  0  0  0  0  0
  159.7340  211.3750  152.4340 C   0  0  0  0  0  3  0  0  0  0  0  0
  162.3890  208.7550  150.0880 O   0  0  0  0  0  0  0  0  0  0  0  0
  161.9520  211.1570  150.3300 C   0  0  0  0  0  3  0  0  0  0  0  0
  159.8560  212.1120  151.3300 C   0  0  0  0  0  0  0  0  0  0  0  0
  161.3470  205.4520  153.4240 C   0  0  0  0  0  3  0  0  0  0  0  0
  161.8460  209.7850  150.8710 C   0  0  0  0  0  0  0  0  0  0  0  0
  162.0180  207.3800  150.2350 C   0  0  1  0  0  3  0  0  0  0  0  0
  161.0900  212.1630  150.5230 C   0  0  0  0  0  3  0  0  0  0  0  0
  161.7140  205.7370  152.1070 C   0  0  0  0  0  3  0  0  0  0  0  0
  161.6910  207.0610  151.6620 C   0  0  0  0  0  0  0  0  0  0  0  0
  161.2930  208.0870  152.5330 C   0  0  0  0  0  0  0  0  0  0  0  0
  160.9290  207.7520  153.8450 C   0  0  0  0  0  3  0  0  0  0  0  0
  160.8560  210.5770  153.0070 C   0  0  0  0  0  2  0  0  0  0  0  0
  160.9640  206.4560  154.2570 N   0  0  0  0  0  0  0  0  0  0  0  0
  158.7810  212.8960  150.9370 O   0  0  0  0  0  1  0  0  0  0  0  0
  160.8100  207.0740  149.3540 C   0  0  0  0  0  2  0  0  0  0  0  0
  162.1950  206.1570  147.3950 C   0  0  0  0  0  2  0  0  0  0  0  0
  161.0950  205.9210  148.4010 C   0  0  0  0  0  0  0  0  0  0  0  0
  160.7340  206.1960  146.9610 C   0  0  0  0  0  2  0  0  0  0  0  0
  160.9080  204.4780  148.8410 C   0  0  0  0  0  2  0  0  0  0  0  0
  161.6480  203.5890  147.9590 N   0  0  0  0  0  2  0  0  0  0  0  0
  160.8970  202.0550  146.2430 C   0  0  0  0  0  1  0  0  0  0  0  0
  161.2560  201.2690  148.5580 C   0  0  0  0  0  1  0  0  0  0  0  0
  160.8010  202.4370  147.7050 C   0  0  0  0  0  3  0  0  0  0  0  0
  1 12  1  0  0  0  0
  1 14  1  0  0  0  0
  2 14  1  0  0  0  0
  3  8  1  0  0  0  0
  3  7  1  0  0  0  0
  4  9  2  0  0  0  0
  4  7  1  0  0  0  0
  5  2  2  0  0  0  0
  6 15  1  0  0  0  0
  7  1  2  0  0  0  0
  8 17  1  6  0  0  0
  8 11  1  0  0  0  0
  9  5  1  0  0  0  0
 10  6  2  0  0  0  0
 11 10  1  0  0  0  0
 11 12  2  0  0  0  0
 12 13  1  0  0  0  0
 13 15  2  0  0  0  0
 16  5  1  0  0  0  0
 18 19  1  0  0  0  0
 19 21  1  0  0  0  0
 19 17  1  0  0  0  0
 20 18  1  0  0  0  0
 20 19  1  0  0  0  0
 22 21  1  0  0  0  0
 23 25  1  0  0  0  0
 25 22  1  0  0  0  0
 25 24  1  0  0  0  0
M  END
>  <MODEL>
4

>  <REMARK>
 VINA RESULT:      -7.1      2.489      6.707
  Name = 
  5 active torsions:
  status: ('A' for Active; 'I' for Inactive)
    1  A    between atoms: C_10  and  C_19
    2  A    between atoms: N_12  and  C_14
    3  A    between atoms: N_12  and  C_15
    4  A    between atoms: C_13  and  C_15
    5  A    between atoms: C_13  and  C_19
                            x       y       z     vdW  Elec       q    Type
                         _______ _______ _______ _____ _____    ______ ____

>  <TORSDO>
F 5

$$$$
=
 OpenBabel11042420133D

 25 28  0  0  1  0  0  0  0  0999 V2000
  160.9770  204.4190  148.3240 C   0  0  0  0  0  0  0  0  0  0  0  0
  162.4070  203.8570  146.3840 C   0  0  0  0  0  3  0  0  0  0  0  0
  160.1550  206.5200  149.0780 O   0  0  0  0  0  0  0  0  0  0  0  0
  160.4550  206.2040  146.6640 C   0  0  0  0  0  3  0  0  0  0  0  0
  162.3790  204.9600  145.6360 C   0  0  0  0  0  0  0  0  0  0  0  0
  160.9560  203.1240  152.3860 C   0  0  0  0  0  3  0  0  0  0  0  0
  160.5590  205.6700  148.0380 C   0  0  0  0  0  0  0  0  0  0  0  0
  160.5680  206.3470  150.4380 C   0  0  1  0  0  3  0  0  0  0  0  0
  161.2440  205.9030  145.6250 C   0  0  0  0  0  3  0  0  0  0  0  0
  160.7290  204.4700  152.0960 C   0  0  0  0  0  3  0  0  0  0  0  0
  160.7440  204.8950  150.7650 C   0  0  0  0  0  0  0  0  0  0  0  0
  160.9940  203.9730  149.7370 C   0  0  0  0  0  0  0  0  0  0  0  0
  161.2210  202.6320  150.0770 C   0  0  0  0  0  3  0  0  0  0  0  0
  161.2640  203.4250  147.2390 C   0  0  0  0  0  2  0  0  0  0  0  0
  161.1970  202.2410  151.3790 N   0  0  0  0  0  0  0  0  0  0  0  0
  163.4560  205.2190  144.8000 O   0  0  0  0  0  1  0  0  0  0  0  0
  161.8810  207.0870  150.6780 C   0  0  0  0  0  2  0  0  0  0  0  0
  160.8290  209.1840  151.7250 C   0  0  0  0  0  2  0  0  0  0  0  0
  161.7810  208.0220  151.8760 C   0  0  0  0  0  0  0  0  0  0  0  0
  162.3350  209.4050  151.6380 C   0  0  0  0  0  2  0  0  0  0  0  0
  161.9570  207.4990  153.2920 C   0  0  0  0  0  2  0  0  0  0  0  0
  160.7510  207.7450  154.0670 N   0  0  0  0  0  2  0  0  0  0  0  0
  161.5060  209.2180  155.8350 C   0  0  0  0  0  1  0  0  0  0  0  0
  159.9940  207.3290  156.3360 C   0  0  0  0  0  1  0  0  0  0  0  0
  161.1440  207.7950  155.4650 C   0  0  0  0  0  3  0  0  0  0  0  0
  1 12  1  0  0  0  0
  2 14  1  0  0  0  0
  3  8  1  0  0  0  0
  4  7  1  0  0  0  0
  5  2  2  0  0  0  0
  7  1  2  0  0  0  0
  7  3  1  0  0  0  0
  8 17  1  6  0  0  0
  8 11  1  0  0  0  0
  9  5  1  0  0  0  0
  9  4  2  0  0  0  0
 10  6  1  0  0  0  0
 11 10  2  0  0  0  0
 12 13  2  0  0  0  0
 12 11  1  0  0  0  0
 13 15  1  0  0  0  0
 14  1  1  0  0  0  0
 15  6  2  0  0  0  0
 16  5  1  0  0  0  0
 17 19  1  0  0  0  0
 18 19  1  0  0  0  0
 19 21  1  0  0  0  0
 20 18  1  0  0  0  0
 20 19  1  0  0  0  0
 21 22  1  0  0  0  0
 22 25  1  0  0  0  0
 25 23  1  0  0  0  0
 25 24  1  0  0  0  0
M  END
>  <MODEL>
5

>  <REMARK>
 VINA RESULT:      -6.8      2.274      3.674
  Name = 
  5 active torsions:
  status: ('A' for Active; 'I' for Inactive)
    1  A    between atoms: C_10  and  C_19
    2  A    between atoms: N_12  and  C_14
    3  A    between atoms: N_12  and  C_15
    4  A    between atoms: C_13  and  C_15
    5  A    between atoms: C_13  and  C_19
                            x       y       z     vdW  Elec       q    Type
                         _______ _______ _______ _____ _____    ______ ____

>  <TORSDO>
F 5

$$$$
=
 OpenBabel11042420133D

 25 28  0  0  1  0  0  0  0  0999 V2000
  161.0310  204.7370  148.6730 C   0  0  0  0  0  0  0  0  0  0  0  0
  162.4380  203.9200  146.8090 C   0  0  0  0  0  3  0  0  0  0  0  0
  160.1950  206.9170  149.1350 O   0  0  0  0  0  0  0  0  0  0  0  0
  160.4620  206.2640  146.7850 C   0  0  0  0  0  3  0  0  0  0  0  0
  162.3850  204.9050  145.9120 C   0  0  0  0  0  0  0  0  0  0  0  0
  161.0860  204.0320  152.8770 C   0  0  0  0  0  3  0  0  0  0  0  0
  160.5930  205.9310  148.2200 C   0  0  0  0  0  0  0  0  0  0  0  0
  160.6300  206.9430  150.4990 C   0  0  1  0  0  3  0  0  0  0  0  0
  161.2390  205.8260  145.7870 C   0  0  0  0  0  3  0  0  0  0  0  0
  160.8380  205.3220  152.4030 C   0  0  0  0  0  3  0  0  0  0  0  0
  160.8280  205.5540  151.0260 C   0  0  0  0  0  0  0  0  0  0  0  0
  161.0740  204.4970  150.1350 C   0  0  0  0  0  0  0  0  0  0  0  0
  161.3210  203.2210  150.6580 C   0  0  0  0  0  3  0  0  0  0  0  0
  161.3120  203.6030  147.7350 C   0  0  0  0  0  2  0  0  0  0  0  0
  161.3220  203.0180  152.0020 N   0  0  0  0  0  0  0  0  0  0  0  0
  163.4460  205.0530  145.0310 O   0  0  0  0  0  1  0  0  0  0  0  0
  161.9380  207.7210  150.6100 C   0  0  0  0  0  2  0  0  0  0  0  0
  161.9610  210.2810  150.3930 C   0  0  0  0  0  2  0  0  0  0  0  0
  161.7230  209.0760  151.2710 C   0  0  0  0  0  0  0  0  0  0  0  0
  162.9820  209.8880  151.4550 C   0  0  0  0  0  2  0  0  0  0  0  0
  160.6810  209.2570  152.3620 C   0  0  0  0  0  2  0  0  0  0  0  0
  161.2040  208.7810  153.6330 N   0  0  0  0  0  2  0  0  0  0  0  0
  161.9560  210.6720  154.9450 C   0  0  0  0  0  1  0  0  0  0  0  0
  159.6200  210.5480  154.1460 C   0  0  0  0  0  1  0  0  0  0  0  0
  160.8010  209.7390  154.6470 C   0  0  0  0  0  3  0  0  0  0  0  0
  1 12  1  0  0  0  0
  2 14  1  0  0  0  0
  3  8  1  0  0  0  0
  4  7  1  0  0  0  0
  5  2  2  0  0  0  0
  7  1  2  0  0  0  0
  7  3  1  0  0  0  0
  8 17  1  6  0  0  0
  8 11  1  0  0  0  0
  9  5  1  0  0  0  0
  9  4  2  0  0  0  0
 10  6  1  0  0  0  0
 11 10  2  0  0  0  0
 12 13  2  0  0  0  0
 12 11  1  0  0  0  0
 13 15  1  0  0  0  0
 14  1  1  0  0  0  0
 15  6  2  0  0  0  0
 16  5  1  0  0  0  0
 17 19  1  0  0  0  0
 18 19  1  0  0  0  0
 18 20  1  0  0  0  0
 19 20  1  0  0  0  0
 19 21  1  0  0  0  0
 21 22  1  0  0  0  0
 22 25  1  0  0  0  0
 24 25  1  0  0  0  0
 25 23  1  0  0  0  0
M  END
>  <MODEL>
6

>  <REMARK>
 VINA RESULT:      -6.6      1.663      2.845
  Name = 
  5 active torsions:
  status: ('A' for Active; 'I' for Inactive)
    1  A    between atoms: C_10  and  C_19
    2  A    between atoms: N_12  and  C_14
    3  A    between atoms: N_12  and  C_15
    4  A    between atoms: C_13  and  C_15
    5  A    between atoms: C_13  and  C_19
                            x       y       z     vdW  Elec       q    Type
                         _______ _______ _______ _____ _____    ______ ____

>  <TORSDO>
F 5

$$$$
=
 OpenBabel11042420133D

 25 28  0  0  1  0  0  0  0  0999 V2000
  160.8910  204.1050  147.9610 C   0  0  0  0  0  0  0  0  0  0  0  0
  162.1650  204.0780  145.8400 C   0  0  0  0  0  3  0  0  0  0  0  0
  160.1220  205.9330  149.2760 O   0  0  0  0  0  0  0  0  0  0  0  0
  160.2310  206.2340  146.8440 C   0  0  0  0  0  3  0  0  0  0  0  0
  162.0730  205.3310  145.3950 C   0  0  0  0  0  0  0  0  0  0  0  0
  161.1960  201.8400  151.5600 C   0  0  0  0  0  3  0  0  0  0  0  0
  160.4460  205.3770  148.0300 C   0  0  0  0  0  0  0  0  0  0  0  0
  160.6420  205.4370  150.5150 C   0  0  1  0  0  3  0  0  0  0  0  0
  160.9360  206.2200  145.7060 C   0  0  0  0  0  3  0  0  0  0  0  0
  160.9410  203.2110  151.6340 C   0  0  0  0  0  3  0  0  0  0  0  0
  160.8490  203.9540  150.4540 C   0  0  0  0  0  0  0  0  0  0  0  0
  161.0210  203.3220  149.2130 C   0  0  0  0  0  0  0  0  0  0  0  0
  161.2790  201.9450  149.1890 C   0  0  0  0  0  3  0  0  0  0  0  0
  161.0940  203.4200  146.6440 C   0  0  0  0  0  2  0  0  0  0  0  0
  161.3600  201.2420  150.3500 N   0  0  0  0  0  0  0  0  0  0  0  0
  163.0790  205.8150  144.5720 O   0  0  0  0  0  1  0  0  0  0  0  0
  161.9670  206.1240  150.8320 C   0  0  0  0  0  2  0  0  0  0  0  0
  162.3280  206.5590  153.3380 C   0  0  0  0  0  2  0  0  0  0  0  0
  161.8290  207.0780  152.0110 C   0  0  0  0  0  0  0  0  0  0  0  0
  160.8320  206.6410  153.0560 C   0  0  0  0  0  2  0  0  0  0  0  0
  161.9310  208.5820  151.8160 C   0  0  0  0  0  2  0  0  0  0  0  0
  160.7680  209.2390  152.3920 N   0  0  0  0  0  2  0  0  0  0  0  0
  160.0790  211.5240  152.7980 C   0  0  0  0  0  1  0  0  0  0  0  0
  161.6260  210.3850  154.3520 C   0  0  0  0  0  1  0  0  0  0  0  0
  161.2120  210.5250  152.9000 C   0  0  0  0  0  3  0  0  0  0  0  0
  1  7  2  0  0  0  0
  1 12  1  0  0  0  0
  2 14  1  0  0  0  0
  3  8  1  0  0  0  0
  4  7  1  0  0  0  0
  5  9  1  0  0  0  0
  5  2  2  0  0  0  0
  6 10  1  0  0  0  0
  7  3  1  0  0  0  0
  8 17  1  6  0  0  0
  9  4  2  0  0  0  0
 11  8  1  0  0  0  0
 11 10  2  0  0  0  0
 12 11  1  0  0  0  0
 13 12  2  0  0  0  0
 13 15  1  0  0  0  0
 14  1  1  0  0  0  0
 15  6  2  0  0  0  0
 16  5  1  0  0  0  0
 17 19  1  0  0  0  0
 19 20  1  0  0  0  0
 19 18  1  0  0  0  0
 20 18  1  0  0  0  0
 21 19  1  0  0  0  0
 21 22  1  0  0  0  0
 22 25  1  0  0  0  0
 23 25  1  0  0  0  0
 25 24  1  0  0  0  0
M  END
>  <MODEL>
7

>  <REMARK>
 VINA RESULT:      -6.5      2.366      2.989
  Name = 
  5 active torsions:
  status: ('A' for Active; 'I' for Inactive)
    1  A    between atoms: C_10  and  C_19
    2  A    between atoms: N_12  and  C_14
    3  A    between atoms: N_12  and  C_15
    4  A    between atoms: C_13  and  C_15
    5  A    between atoms: C_13  and  C_19
                            x       y       z     vdW  Elec       q    Type
                         _______ _______ _______ _____ _____    ______ ____

>  <TORSDO>
F 5

$$$$
=
 OpenBabel11042420133D

 25 28  0  0  1  0  0  0  0  0999 V2000
  160.1010  210.9330  153.5920 C   0  0  0  0  0  0  0  0  0  0  0  0
  158.2080  212.4700  153.1720 C   0  0  0  0  0  3  0  0  0  0  0  0
  161.6600  209.9580  152.0830 O   0  0  0  0  0  0  0  0  0  0  0  0
  160.7980  212.1940  151.5570 C   0  0  0  0  0  3  0  0  0  0  0  0
  158.4200  212.9090  151.9320 C   0  0  0  0  0  0  0  0  0  0  0  0
  160.5420  207.4740  156.0450 C   0  0  0  0  0  3  0  0  0  0  0  0
  160.8150  211.0150  152.4500 C   0  0  0  0  0  0  0  0  0  0  0  0
  161.4970  208.6190  152.5650 C   0  0  1  0  0  3  0  0  0  0  0  0
  159.7630  213.0110  151.3280 C   0  0  0  0  0  3  0  0  0  0  0  0
  161.1070  207.4840  154.7680 C   0  0  0  0  0  3  0  0  0  0  0  0
  160.9550  208.6150  153.9620 C   0  0  0  0  0  0  0  0  0  0  0  0
  160.2330  209.7210  154.4350 C   0  0  0  0  0  0  0  0  0  0  0  0
  159.6810  209.6640  155.7220 C   0  0  0  0  0  3  0  0  0  0  0  0
  159.3120  212.1000  154.1040 C   0  0  0  0  0  2  0  0  0  0  0  0
  159.8450  208.5540  156.4900 N   0  0  0  0  0  0  0  0  0  0  0  0
  157.3290  213.3230  151.1810 O   0  0  0  0  0  1  0  0  0  0  0  0
  160.5490  207.8510  151.6480 C   0  0  0  0  0  2  0  0  0  0  0  0
  161.2650  205.3940  151.4190 C   0  0  0  0  0  2  0  0  0  0  0  0
  161.2910  206.7900  150.8460 C   0  0  0  0  0  0  0  0  0  0  0  0
  162.5260  206.2450  151.5210 C   0  0  0  0  0  2  0  0  0  0  0  0
  161.3770  206.8740  149.3310 C   0  0  0  0  0  2  0  0  0  0  0  0
  160.4560  205.9240  148.7260 N   0  0  0  0  0  2  0  0  0  0  0  0
  162.3320  206.2050  147.2210 C   0  0  0  0  0  1  0  0  0  0  0  0
  161.5770  203.9450  147.8770 C   0  0  0  0  0  1  0  0  0  0  0  0
  161.1250  205.3590  147.5680 C   0  0  0  0  0  3  0  0  0  0  0  0
  1 14  1  0  0  0  0
  1 12  1  0  0  0  0
  2 14  1  0  0  0  0
  3  7  1  0  0  0  0
  3  8  1  0  0  0  0
  4  7  1  0  0  0  0
  5  2  2  0  0  0  0
  6 15  1  0  0  0  0
  7  1  2  0  0  0  0
  8 17  1  6  0  0  0
  8 11  1  0  0  0  0
  9  4  2  0  0  0  0
  9  5  1  0  0  0  0
 10  6  2  0  0  0  0
 11 12  2  0  0  0  0
 11 10  1  0  0  0  0
 12 13  1  0  0  0  0
 13 15  2  0  0  0  0
 16  5  1  0  0  0  0
 18 20  1  0  0  0  0
 19 18  1  0  0  0  0
 19 20  1  0  0  0  0
 19 17  1  0  0  0  0
 21 19  1  0  0  0  0
 22 21  1  0  0  0  0
 23 25  1  0  0  0  0
 25 24  1  0  0  0  0
 25 22  1  0  0  0  0
M  END
>  <MODEL>
8

>  <REMARK>
 VINA RESULT:      -6.4      3.234      6.946
  Name = 
  5 active torsions:
  status: ('A' for Active; 'I' for Inactive)
    1  A    between atoms: C_10  and  C_19
    2  A    between atoms: N_12  and  C_14
    3  A    between atoms: N_12  and  C_15
    4  A    between atoms: C_13  and  C_15
    5  A    between atoms: C_13  and  C_19
                            x       y       z     vdW  Elec       q    Type
                         _______ _______ _______ _____ _____    ______ ____

>  <TORSDO>
F 5

$$$$
=
 OpenBabel11042420133D

 25 28  0  0  1  0  0  0  0  0999 V2000
  161.2870  209.7470  152.1170 C   0  0  0  0  0  0  0  0  0  0  0  0
  159.8140  211.7250  152.3220 C   0  0  0  0  0  3  0  0  0  0  0  0
  162.2880  208.7620  150.1960 O   0  0  0  0  0  0  0  0  0  0  0  0
  161.9620  211.1940  150.2010 C   0  0  0  0  0  3  0  0  0  0  0  0
  159.9380  212.3410  151.1460 C   0  0  0  0  0  0  0  0  0  0  0  0
  161.1950  205.8650  153.8750 C   0  0  0  0  0  3  0  0  0  0  0  0
  161.8120  209.8900  150.8810 C   0  0  0  0  0  0  0  0  0  0  0  0
  161.8610  207.4270  150.4910 C   0  0  1  0  0  3  0  0  0  0  0  0
  161.1500  212.2520  150.3090 C   0  0  0  0  0  3  0  0  0  0  0  0
  161.5380  205.9980  152.5280 C   0  0  0  0  0  3  0  0  0  0  0  0
  161.5600  207.2700  151.9510 C   0  0  0  0  0  0  0  0  0  0  0  0
  161.2310  208.3960  152.7210 C   0  0  0  0  0  0  0  0  0  0  0  0
  160.8890  208.2120  154.0680 C   0  0  0  0  0  3  0  0  0  0  0  0
  160.9160  210.9380  152.9480 C   0  0  0  0  0  2  0  0  0  0  0  0
  160.8790  206.9650  154.6100 N   0  0  0  0  0  0  0  0  0  0  0  0
  158.8870  213.1300  150.6990 O   0  0  0  0  0  1  0  0  0  0  0  0
  160.6170  207.0890  149.6750 C   0  0  0  0  0  2  0  0  0  0  0  0
  160.4780  204.5640  149.2250 C   0  0  0  0  0  2  0  0  0  0  0  0
  160.8760  205.9300  148.7220 C   0  0  0  0  0  0  0  0  0  0  0  0
  161.9460  204.9700  149.1810 C   0  0  0  0  0  2  0  0  0  0  0  0
  160.7940  206.1230  147.2160 C   0  0  0  0  0  2  0  0  0  0  0  0
  162.1300  206.1160  146.6410 N   0  0  0  0  0  2  0  0  0  0  0  0
  161.9170  203.8880  145.7160 C   0  0  0  0  0  1  0  0  0  0  0  0
  160.8560  205.8180  144.5950 C   0  0  0  0  0  1  0  0  0  0  0  0
  162.0570  205.3630  145.4010 C   0  0  0  0  0  3  0  0  0  0  0  0
  1 12  1  0  0  0  0
  1 14  1  0  0  0  0
  2 14  1  0  0  0  0
  3  8  1  0  0  0  0
  3  7  1  0  0  0  0
  4  9  2  0  0  0  0
  4  7  1  0  0  0  0
  5  2  2  0  0  0  0
  6 15  1  0  0  0  0
  7  1  2  0  0  0  0
  8 17  1  6  0  0  0
  8 11  1  0  0  0  0
  9  5  1  0  0  0  0
 10  6  2  0  0  0  0
 11 10  1  0  0  0  0
 11 12  2  0  0  0  0
 12 13  1  0  0  0  0
 13 15  2  0  0  0  0
 16  5  1  0  0  0  0
 19 20  1  0  0  0  0
 19 18  1  0  0  0  0
 19 17  1  0  0  0  0
 20 18  1  0  0  0  0
 21 19  1  0  0  0  0
 22 21  1  0  0  0  0
 24 25  1  0  0  0  0
 25 23  1  0  0  0  0
 25 22  1  0  0  0  0
M  END
>  <MODEL>
9

>  <REMARK>
 VINA RESULT:      -6.4      2.263      6.218
  Name = 
  5 active torsions:
  status: ('A' for Active; 'I' for Inactive)
    1  A    between atoms: C_10  and  C_19
    2  A    between atoms: N_12  and  C_14
    3  A    between atoms: N_12  and  C_15
    4  A    between atoms: C_13  and  C_15
    5  A    between atoms: C_13  and  C_19
                            x       y       z     vdW  Elec       q    Type
                         _______ _______ _______ _____ _____    ______ ____

>  <TORSDO>
F 5

$$$$
