=
 OpenBabel11052409463D

 31 34  0  0  1  0  0  0  0  0999 V2000
  161.2630  206.4670  152.4440 C   0  0  0  0  0  0  0  0  0  0  0  0
  160.6220  208.2050  154.4910 C   0  0  0  0  0  2  0  0  0  0  0  0
  160.9760  209.2490  153.8210 C   0  0  2  0  0  3  0  0  0  0  0  0
  161.4660  203.3990  147.6960 N   0  0  0  0  0  1  0  0  0  0  0  0
  161.3750  204.1680  148.8910 C   0  0  0  0  0  0  0  0  0  0  0  0
  161.2470  206.0520  153.9140 C   0  0  0  0  0  2  0  0  0  0  0  0
  161.5710  208.9890  152.5160 N   0  0  1  0  0  0  0  0  0  0  0  0
  161.2400  203.5440  150.0350 N   0  0  0  0  0  0  0  0  0  0  0  0
  161.4670  207.6850  151.8610 C   0  0  2  0  0  3  0  0  0  0  0  0
  161.2530  205.5300  151.3430 C   0  0  0  0  0  0  0  0  0  0  0  0
  161.1660  204.2080  151.3110 C   0  0  0  0  0  3  0  0  0  0  0  0
  161.5660  207.5630  150.4310 N   0  0  0  0  0  0  0  0  0  0  0  0
  160.4480  206.9670  154.7890 C   0  0  0  0  0  2  0  0  0  0  0  0
  161.4330  206.3080  150.1570 C   0  0  0  0  0  0  0  0  0  0  0  0
  161.4480  205.6880  148.7910 C   0  0  0  0  0  0  0  0  0  0  0  0
  161.3670  210.9530  149.9500 C   0  0  1  0  0  3  0  0  0  0  0  0
  162.2160  209.7130  150.2220 C   0  0  0  0  0  2  0  0  0  0  0  0
  162.2090  210.0360  151.7030 C   0  0  1  0  0  3  0  0  0  0  0  0
  161.3120  211.2320  151.4490 C   0  0  0  0  0  2  0  0  0  0  0  0
  161.3100  213.1420  149.0750 C   0  0  0  0  0  1  0  0  0  0  0  0
  162.4500  211.4850  147.9250 C   0  0  0  0  0  1  0  0  0  0  0  0
  162.1570  211.9750  149.2630 N   0  0  0  0  0  0  0  0  0  0  0  0
  159.9390  211.3830  154.5500 C   0  0  0  0  0  0  0  0  0  0  0  0
  160.9530  210.5730  154.3920 N   0  0  0  0  0  0  0  0  0  0  0  0
  158.5640  211.0560  154.0640 C   0  0  0  0  0  2  0  0  0  0  0  0
  158.1970  211.9510  153.0610 O   0  0  0  0  0  1  0  0  0  0  0  0
  160.2080  212.7880  156.5650 C   0  0  0  0  0  1  0  0  0  0  0  0
  160.1240  212.6290  155.1560 O   0  0  0  0  0  0  0  0  0  0  0  0
  160.2750  206.1990  147.9660 C   0  0  0  0  0  2  0  0  0  0  0  0
  160.7390  206.9210  146.8660 O   0  0  0  0  0  0  0  0  0  0  0  0
  160.3700  206.1520  145.7620 C   0  0  0  0  0  1  0  0  0  0  0  0
  1  6  1  0  0  0  0
  2 13  1  0  0  0  0
  3 24  1  1  0  0  0
  3  2  1  0  0  0  0
  4  5  1  0  0  0  0
  5  8  1  0  0  0  0
  6 13  1  0  0  0  0
  7 18  1  6  0  0  0
  7  3  1  0  0  0  0
  8 11  2  0  0  0  0
  9 12  1  6  0  0  0
  9  1  1  0  0  0  0
  9  7  1  0  0  0  0
 10  1  2  0  0  0  0
 11 10  1  0  0  0  0
 14 12  2  0  0  0  0
 14 10  1  0  0  0  0
 15  5  2  0  0  0  0
 15 14  1  0  0  0  0
 16 22  1  6  0  0  0
 16 17  1  0  0  0  0
 16 19  1  0  0  0  0
 18 17  1  6  0  0  0
 19 18  1  0  0  0  0
 20 22  1  0  0  0  0
 21 22  1  0  0  0  0
 23 28  1  0  0  0  0
 24 23  2  0  0  0  0
 25 23  1  0  0  0  0
 26 25  1  0  0  0  0
 28 27  1  0  0  0  0
 29 15  1  0  0  0  0
 30 29  1  0  0  0  0
 31 30  1  0  0  0  0
M  END
>  <MODEL>
1

>  <REMARK>
 VINA RESULT:      -6.9      0.000      0.000
  Name = 
  7 active torsions:
  status: ('A' for Active; 'I' for Inactive)
    1  A    between atoms: C_1  and  O_12
    2  A    between atoms: C_1  and  C_31
    3  A    between atoms: C_3  and  C_5
    4  A    between atoms: C_3  and  O_27
    5  A    between atoms: N_6  and  C_9
    6  A    between atoms: N_16  and  C_23
    7  A    between atoms: N_19  and  C_20
                            x       y       z     vdW  Elec       q    Type
                         _______ _______ _______ _____ _____    ______ ____

>  <TORSDO>
F 7

$$$$
=
 OpenBabel11052409463D

 31 34  0  0  1  0  0  0  0  0999 V2000
  161.2500  206.2680  152.3750 C   0  0  0  0  0  0  0  0  0  0  0  0
  160.5480  207.8850  154.4990 C   0  0  0  0  0  2  0  0  0  0  0  0
  160.8780  208.9700  153.8830 C   0  0  2  0  0  3  0  0  0  0  0  0
  161.5670  203.4450  147.4830 N   0  0  0  0  0  1  0  0  0  0  0  0
  161.4470  204.1510  148.7130 C   0  0  0  0  0  0  0  0  0  0  0  0
  161.2360  205.7810  153.8220 C   0  0  0  0  0  2  0  0  0  0  0  0
  161.4870  208.7910  152.5720 N   0  0  1  0  0  0  0  0  0  0  0  0
  161.3220  203.4680  149.8240 N   0  0  0  0  0  0  0  0  0  0  0  0
  161.4230  207.5180  151.8530 C   0  0  2  0  0  3  0  0  0  0  0  0
  161.2730  205.3860  151.2280 C   0  0  0  0  0  0  0  0  0  0  0  0
  161.2220  204.0660  151.1310 C   0  0  0  0  0  3  0  0  0  0  0  0
  161.5340  207.4690  150.4200 N   0  0  0  0  0  0  0  0  0  0  0  0
  160.4070  206.6290  154.7350 C   0  0  0  0  0  2  0  0  0  0  0  0
  161.4380  206.2260  150.0840 C   0  0  0  0  0  0  0  0  0  0  0  0
  161.4780  205.6750  148.6890 C   0  0  0  0  0  0  0  0  0  0  0  0
  161.2230  210.9030  150.1320 C   0  0  1  0  0  3  0  0  0  0  0  0
  162.0920  209.6620  150.3180 C   0  0  0  0  0  2  0  0  0  0  0  0
  162.1000  209.8940  151.8160 C   0  0  1  0  0  3  0  0  0  0  0  0
  161.1850  211.0910  151.6470 C   0  0  0  0  0  2  0  0  0  0  0  0
  161.0800  213.0790  149.2320 C   0  0  0  0  0  1  0  0  0  0  0  0
  162.4240  211.5010  148.1940 C   0  0  0  0  0  1  0  0  0  0  0  0
  161.9900  211.9760  149.4990 N   0  0  0  0  0  0  0  0  0  0  0  0
  161.4480  210.6920  155.5790 C   0  0  0  0  0  0  0  0  0  0  0  0
  160.8140  210.2640  154.5190 N   0  0  0  0  0  0  0  0  0  0  0  0
  162.3480  209.8140  156.3870 C   0  0  0  0  0  2  0  0  0  0  0  0
  163.4180  210.5640  156.8740 O   0  0  0  0  0  1  0  0  0  0  0  0
  160.0060  212.6620  155.9630 C   0  0  0  0  0  1  0  0  0  0  0  0
  161.2640  212.0040  156.0240 O   0  0  0  0  0  0  0  0  0  0  0  0
  160.2960  206.1940  147.8820 C   0  0  0  0  0  2  0  0  0  0  0  0
  160.7480  206.9290  146.7850 O   0  0  0  0  0  0  0  0  0  0  0  0
  160.3800  206.1660  145.6770 C   0  0  0  0  0  1  0  0  0  0  0  0
  1  6  1  0  0  0  0
  2 13  1  0  0  0  0
  3  2  1  0  0  0  0
  3 24  1  1  0  0  0
  4  5  1  0  0  0  0
  5  8  1  0  0  0  0
  6 13  1  0  0  0  0
  7 18  1  6  0  0  0
  7  3  1  0  0  0  0
  8 11  2  0  0  0  0
  9 12  1  6  0  0  0
  9  1  1  0  0  0  0
  9  7  1  0  0  0  0
 10  1  2  0  0  0  0
 11 10  1  0  0  0  0
 14 12  2  0  0  0  0
 14 10  1  0  0  0  0
 15  5  2  0  0  0  0
 15 14  1  0  0  0  0
 16 22  1  6  0  0  0
 16 17  1  0  0  0  0
 16 19  1  0  0  0  0
 18 17  1  6  0  0  0
 19 18  1  0  0  0  0
 20 22  1  0  0  0  0
 21 22  1  0  0  0  0
 23 28  1  0  0  0  0
 23 25  1  0  0  0  0
 24 23  2  0  0  0  0
 25 26  1  0  0  0  0
 27 28  1  0  0  0  0
 29 15  1  0  0  0  0
 30 29  1  0  0  0  0
 31 30  1  0  0  0  0
M  END
>  <MODEL>
2

>  <REMARK>
 VINA RESULT:      -6.9      1.061      1.535
  Name = 
  7 active torsions:
  status: ('A' for Active; 'I' for Inactive)
    1  A    between atoms: C_1  and  O_12
    2  A    between atoms: C_1  and  C_31
    3  A    between atoms: C_3  and  C_5
    4  A    between atoms: C_3  and  O_27
    5  A    between atoms: N_6  and  C_9
    6  A    between atoms: N_16  and  C_23
    7  A    between atoms: N_19  and  C_20
                            x       y       z     vdW  Elec       q    Type
                         _______ _______ _______ _____ _____    ______ ____

>  <TORSDO>
F 7

$$$$
=
 OpenBabel11052409463D

 31 34  0  0  1  0  0  0  0  0999 V2000
  160.9390  205.7850  152.0010 C   0  0  0  0  0  0  0  0  0  0  0  0
  161.4970  203.3190  150.8920 C   0  0  0  0  0  2  0  0  0  0  0  0
  161.4290  203.7610  149.6820 C   0  0  2  0  0  3  0  0  0  0  0  0
  161.0490  211.1140  153.8970 N   0  0  0  0  0  1  0  0  0  0  0  0
  161.0600  209.7680  153.4310 C   0  0  0  0  0  0  0  0  0  0  0  0
  160.6440  204.4670  152.7130 C   0  0  0  0  0  2  0  0  0  0  0  0
  161.0280  205.1540  149.5400 N   0  0  0  0  0  0  0  0  0  0  0  0
  160.9020  208.7980  154.2970 N   0  0  0  0  0  0  0  0  0  0  0  0
  161.0310  206.0820  150.6720 C   0  0  0  0  0  0  0  0  0  0  0  0
  160.9840  207.0680  152.6680 C   0  0  0  0  0  0  0  0  0  0  0  0
  160.8660  207.4020  153.9450 C   0  0  0  0  0  3  0  0  0  0  0  0
  161.1550  207.5010  150.4670 N   0  0  0  0  0  0  0  0  0  0  0  0
  161.4190  203.3050  152.1750 C   0  0  0  0  0  2  0  0  0  0  0  0
  161.1310  208.0470  151.6370 C   0  0  0  0  0  0  0  0  0  0  0  0
  161.2470  209.5120  151.9390 C   0  0  2  0  0  3  0  0  0  0  0  0
  161.7560  205.4230  146.3970 C   0  0  1  0  0  3  0  0  0  0  0  0
  161.9160  206.3890  147.5680 C   0  0  0  0  0  2  0  0  0  0  0  0
  160.7080  205.7690  148.2420 C   0  0  1  0  0  3  0  0  0  0  0  0
  160.5810  204.7640  147.1150 C   0  0  0  0  0  2  0  0  0  0  0  0
  159.8470  206.0490  145.1620 C   0  0  0  0  0  1  0  0  0  0  0  0
  161.7670  205.3960  144.0400 C   0  0  0  0  0  1  0  0  0  0  0  0
  161.2980  206.1340  145.2040 N   0  0  0  0  0  0  0  0  0  0  0  0
  161.0750  201.6960  148.3500 C   0  0  0  0  0  0  0  0  0  0  0  0
  161.5660  202.8930  148.5380 N   0  0  0  0  0  0  0  0  0  0  0  0
  160.2970  200.9710  149.4000 C   0  0  0  0  0  2  0  0  0  0  0  0
  158.9460  201.2970  149.2910 O   0  0  0  0  0  1  0  0  0  0  0  0
  160.6570  201.3840  145.9350 C   0  0  0  0  0  1  0  0  0  0  0  0
  161.3060  201.0240  147.1460 O   0  0  0  0  0  0  0  0  0  0  0  0
  162.6070  210.0360  151.5010 C   0  0  0  0  0  2  0  0  0  0  0  0
  162.5730  210.3930  150.1520 O   0  0  0  0  0  0  0  0  0  0  0  0
  161.6180  211.4070  150.0830 C   0  0  0  0  0  1  0  0  0  0  0  0
  1 10  1  0  0  0  0
  1  6  1  0  0  0  0
  2 13  1  0  0  0  0
  3 24  1  6  0  0  0
  3  2  1  0  0  0  0
  5  4  1  0  0  0  0
  5  8  2  0  0  0  0
  7  3  1  0  0  0  0
  7  9  1  0  0  0  0
  9  1  2  0  0  0  0
 10 11  2  0  0  0  0
 11  8  1  0  0  0  0
 12  9  1  0  0  0  0
 12 14  2  0  0  0  0
 13  6  1  0  0  0  0
 14 15  1  0  0  0  0
 14 10  1  0  0  0  0
 15 29  1  1  0  0  0
 15  5  1  0  0  0  0
 16 22  1  6  0  0  0
 16 19  1  0  0  0  0
 16 17  1  0  0  0  0
 17 18  1  0  0  0  0
 18 19  1  6  0  0  0
 18  7  1  0  0  0  0
 20 22  1  0  0  0  0
 21 22  1  0  0  0  0
 23 24  2  0  0  0  0
 23 25  1  0  0  0  0
 26 25  1  0  0  0  0
 27 28  1  0  0  0  0
 28 23  1  0  0  0  0
 30 29  1  0  0  0  0
 31 30  1  0  0  0  0
M  END
>  <MODEL>
3

>  <REMARK>
 VINA RESULT:      -6.3      2.437      7.505
  Name = 
  7 active torsions:
  status: ('A' for Active; 'I' for Inactive)
    1  A    between atoms: C_1  and  O_12
    2  A    between atoms: C_1  and  C_31
    3  A    between atoms: C_3  and  C_5
    4  A    between atoms: C_3  and  O_27
    5  A    between atoms: N_6  and  C_9
    6  A    between atoms: N_16  and  C_23
    7  A    between atoms: N_19  and  C_20
                            x       y       z     vdW  Elec       q    Type
                         _______ _______ _______ _____ _____    ______ ____

>  <TORSDO>
F 7

$$$$
=
 OpenBabel11052409463D

 31 34  0  0  1  0  0  0  0  0999 V2000
  161.7820  208.7280  151.6560 C   0  0  0  0  0  0  0  0  0  0  0  0
  161.2540  207.9910  149.0490 C   0  0  0  0  0  2  0  0  0  0  0  0
  160.8840  206.7990  149.3780 C   0  0  2  0  0  3  0  0  0  0  0  0
  161.5300  210.2650  157.0950 N   0  0  0  0  0  1  0  0  0  0  0  0
  161.5610  209.9000  155.7190 C   0  0  0  0  0  0  0  0  0  0  0  0
  162.4600  209.3800  150.4540 C   0  0  0  0  0  2  0  0  0  0  0  0
  161.0270  206.4610  150.7880 N   0  0  0  0  0  0  0  0  0  0  0  0
  162.1100  210.7230  154.8600 N   0  0  0  0  0  0  0  0  0  0  0  0
  161.2450  207.4820  151.8130 C   0  0  0  0  0  0  0  0  0  0  0  0
  161.7690  209.3030  152.9840 C   0  0  2  0  0  3  0  0  0  0  0  0
  162.2280  210.4550  153.4490 C   0  0  0  0  0  3  0  0  0  0  0  0
  160.8700  207.2500  153.1830 N   0  0  0  0  0  0  0  0  0  0  0  0
  161.7240  209.1810  149.1660 C   0  0  0  0  0  2  0  0  0  0  0  0
  161.1780  208.3200  153.8370 C   0  0  0  0  0  0  0  0  0  0  0  0
  160.9610  208.5620  155.3020 C   0  0  0  0  0  0  0  0  0  0  0  0
  161.3320  203.2800  150.2690 C   0  0  1  0  0  3  0  0  0  0  0  0
  160.1080  204.1890  150.3420 C   0  0  0  0  0  2  0  0  0  0  0  0
  160.8430  205.0970  151.3090 C   0  0  1  0  0  3  0  0  0  0  0  0
  162.0850  204.2360  151.1920 C   0  0  0  0  0  2  0  0  0  0  0  0
  162.2520  201.6610  151.7170 C   0  0  0  0  0  1  0  0  0  0  0  0
  160.9490  200.9800  149.9250 C   0  0  0  0  0  1  0  0  0  0  0  0
  161.0700  202.0100  150.9460 N   0  0  0  0  0  0  0  0  0  0  0  0
  161.1990  205.3930  147.3560 C   0  0  0  0  0  0  0  0  0  0  0  0
  160.5220  205.8080  148.3950 N   0  0  0  0  0  0  0  0  0  0  0  0
  162.5180  205.9800  146.9690 C   0  0  0  0  0  2  0  0  0  0  0  0
  162.6000  206.0710  145.5810 O   0  0  0  0  0  1  0  0  0  0  0  0
  161.2510  203.0980  146.4430 C   0  0  0  0  0  1  0  0  0  0  0  0
  160.6760  204.3940  146.5310 O   0  0  0  0  0  0  0  0  0  0  0  0
  159.4730  208.5510  155.6240 C   0  0  0  0  0  2  0  0  0  0  0  0
  159.0940  207.2960  156.1010 O   0  0  0  0  0  0  0  0  0  0  0  0
  160.0640  206.9740  157.0500 C   0  0  0  0  0  1  0  0  0  0  0  0
  1  9  2  0  0  0  0
  1 10  1  0  0  0  0
  2 13  1  0  0  0  0
  2  3  1  0  0  0  0
  3 24  1  6  0  0  0
  3  7  1  0  0  0  0
  5  4  1  0  0  0  0
  6  1  1  0  0  0  0
  7 18  1  0  0  0  0
  7  9  1  0  0  0  0
  8  5  1  0  0  0  0
  9 12  1  0  0  0  0
 10 11  1  1  0  0  0
 10 14  1  0  0  0  0
 11  8  2  0  0  0  0
 12 14  2  0  0  0  0
 13  6  1  0  0  0  0
 14 15  1  0  0  0  0
 15 29  1  0  0  0  0
 15  5  2  0  0  0  0
 16 17  1  0  0  0  0
 16 22  1  1  0  0  0
 16 19  1  0  0  0  0
 18 17  1  6  0  0  0
 19 18  1  0  0  0  0
 21 22  1  0  0  0  0
 22 20  1  0  0  0  0
 23 24  2  0  0  0  0
 25 23  1  0  0  0  0
 26 25  1  0  0  0  0
 27 28  1  0  0  0  0
 28 23  1  0  0  0  0
 29 30  1  0  0  0  0
 30 31  1  0  0  0  0
M  END
>  <MODEL>
4

>  <REMARK>
 VINA RESULT:      -5.9      2.564      8.159
  Name = 
  7 active torsions:
  status: ('A' for Active; 'I' for Inactive)
    1  A    between atoms: C_1  and  O_12
    2  A    between atoms: C_1  and  C_31
    3  A    between atoms: C_3  and  C_5
    4  A    between atoms: C_3  and  O_27
    5  A    between atoms: N_6  and  C_9
    6  A    between atoms: N_16  and  C_23
    7  A    between atoms: N_19  and  C_20
                            x       y       z     vdW  Elec       q    Type
                         _______ _______ _______ _____ _____    ______ ____

>  <TORSDO>
F 7

$$$$
=
 OpenBabel11052409463D

 31 34  0  0  1  0  0  0  0  0999 V2000
  160.9660  206.9570  152.8960 C   0  0  0  0  0  0  0  0  0  0  0  0
  162.1330  205.5870  150.8040 C   0  0  0  0  0  2  0  0  0  0  0  0
  162.0880  206.6030  150.0090 C   0  0  2  0  0  3  0  0  0  0  0  0
  159.7690  210.3600  157.2540 N   0  0  0  0  0  1  0  0  0  0  0  0
  160.1080  209.4990  156.1710 C   0  0  0  0  0  0  0  0  0  0  0  0
  160.8900  205.4390  152.7500 C   0  0  0  0  0  2  0  0  0  0  0  0
  161.4170  207.7840  150.5350 N   0  0  0  0  0  0  0  0  0  0  0  0
  160.0770  208.2030  156.3610 N   0  0  0  0  0  0  0  0  0  0  0  0
  161.1180  207.9390  151.9590 C   0  0  0  0  0  0  0  0  0  0  0  0
  160.6760  207.6640  154.1240 C   0  0  2  0  0  3  0  0  0  0  0  0
  160.3700  207.2320  155.3380 C   0  0  0  0  0  3  0  0  0  0  0  0
  160.9570  209.2430  152.5460 N   0  0  0  0  0  0  0  0  0  0  0  0
  161.9410  204.8670  151.8510 C   0  0  0  0  0  2  0  0  0  0  0  0
  160.7090  209.0550  153.7990 C   0  0  0  0  0  0  0  0  0  0  0  0
  160.4830  210.1210  154.8310 C   0  0  0  0  0  0  0  0  0  0  0  0
  162.4640  210.5350  149.1860 C   0  0  1  0  0  3  0  0  0  0  0  0
  161.5160  210.2660  150.3520 C   0  0  0  0  0  2  0  0  0  0  0  0
  161.0980  208.9590  149.7090 C   0  0  1  0  0  3  0  0  0  0  0  0
  162.0840  209.1870  148.5800 C   0  0  0  0  0  2  0  0  0  0  0  0
  163.1100  212.3530  147.8300 C   0  0  0  0  0  1  0  0  0  0  0  0
  161.2810  212.5720  149.2360 C   0  0  0  0  0  1  0  0  0  0  0  0
  161.9630  211.6320  148.3600 N   0  0  0  0  0  0  0  0  0  0  0  0
  162.0030  205.8210  147.6540 C   0  0  0  0  0  0  0  0  0  0  0  0
  162.5120  206.5220  148.6330 N   0  0  0  0  0  0  0  0  0  0  0  0
  160.8600  204.8780  147.8510 C   0  0  0  0  0  2  0  0  0  0  0  0
  161.3460  203.6230  148.2120 O   0  0  0  0  0  1  0  0  0  0  0  0
  161.8310  205.5280  145.2070 C   0  0  0  0  0  1  0  0  0  0  0  0
  162.5520  205.9030  146.3720 O   0  0  0  0  0  0  0  0  0  0  0  0
  161.7380  210.9680  154.9980 C   0  0  0  0  0  2  0  0  0  0  0  0
  162.7330  210.2310  155.6420 O   0  0  0  0  0  0  0  0  0  0  0  0
  163.2540  211.1050  156.5960 C   0  0  0  0  0  1  0  0  0  0  0  0
  1 10  1  0  0  0  0
  2 13  1  0  0  0  0
  3 24  1  6  0  0  0
  3  7  1  0  0  0  0
  3  2  1  0  0  0  0
  5  8  1  0  0  0  0
  5  4  1  0  0  0  0
  6  1  1  0  0  0  0
  7  9  1  0  0  0  0
  9 12  1  0  0  0  0
  9  1  2  0  0  0  0
 10 11  1  6  0  0  0
 11  8  2  0  0  0  0
 12 14  2  0  0  0  0
 13  6  1  0  0  0  0
 14 10  1  0  0  0  0
 14 15  1  0  0  0  0
 15 29  1  0  0  0  0
 15  5  2  0  0  0  0
 16 22  1  6  0  0  0
 16 17  1  0  0  0  0
 18 19  1  6  0  0  0
 18 17  1  0  0  0  0
 18  7  1  0  0  0  0
 19 16  1  0  0  0  0
 20 22  1  0  0  0  0
 22 21  1  0  0  0  0
 23 25  1  0  0  0  0
 23 24  2  0  0  0  0
 25 26  1  0  0  0  0
 27 28  1  0  0  0  0
 28 23  1  0  0  0  0
 29 30  1  0  0  0  0
 30 31  1  0  0  0  0
M  END
>  <MODEL>
5

>  <REMARK>
 VINA RESULT:      -5.6      1.935      6.872
  Name = 
  7 active torsions:
  status: ('A' for Active; 'I' for Inactive)
    1  A    between atoms: C_1  and  O_12
    2  A    between atoms: C_1  and  C_31
    3  A    between atoms: C_3  and  C_5
    4  A    between atoms: C_3  and  O_27
    5  A    between atoms: N_6  and  C_9
    6  A    between atoms: N_16  and  C_23
    7  A    between atoms: N_19  and  C_20
                            x       y       z     vdW  Elec       q    Type
                         _______ _______ _______ _____ _____    ______ ____

>  <TORSDO>
F 7

$$$$
=
 OpenBabel11052409463D

 31 34  0  0  1  0  0  0  0  0999 V2000
  161.2490  208.8300  151.3730 C   0  0  0  0  0  0  0  0  0  0  0  0
  162.2610  210.0040  149.0890 C   0  0  0  0  0  2  0  0  0  0  0  0
  161.9540  211.1980  149.4720 C   0  0  2  0  0  3  0  0  0  0  0  0
  160.2730  206.9410  156.6160 N   0  0  0  0  0  1  0  0  0  0  0  0
  160.5580  207.4110  155.3020 C   0  0  0  0  0  0  0  0  0  0  0  0
  161.3630  208.0950  150.0400 C   0  0  0  0  0  2  0  0  0  0  0  0
  161.2140  211.2880  150.7230 N   0  0  0  0  0  0  0  0  0  0  0  0
  160.7370  206.5360  154.3430 N   0  0  0  0  0  0  0  0  0  0  0  0
  161.1180  210.1610  151.6520 C   0  0  0  0  0  0  0  0  0  0  0  0
  161.0560  208.1690  152.6450 C   0  0  2  0  0  3  0  0  0  0  0  0
  161.0020  206.8860  152.9710 C   0  0  0  0  0  3  0  0  0  0  0  0
  160.8700  210.3730  153.0530 N   0  0  0  0  0  0  0  0  0  0  0  0
  162.3320  208.7210  149.0870 C   0  0  0  0  0  2  0  0  0  0  0  0
  160.8450  209.2060  153.6050 C   0  0  0  0  0  0  0  0  0  0  0  0
  160.6350  208.9140  155.0620 C   0  0  0  0  0  0  0  0  0  0  0  0
  158.5290  212.8500  151.6350 C   0  0  1  0  0  3  0  0  0  0  0  0
  159.4120  212.9760  150.3970 C   0  0  0  0  0  2  0  0  0  0  0  0
  160.6130  212.5390  151.2110 C   0  0  1  0  0  3  0  0  0  0  0  0
  159.7320  212.3490  152.4300 C   0  0  0  0  0  2  0  0  0  0  0  0
  157.9070  214.0890  153.5440 C   0  0  0  0  0  1  0  0  0  0  0  0
  156.8040  214.4530  151.5390 C   0  0  0  0  0  1  0  0  0  0  0  0
  158.1130  214.1710  152.1060 N   0  0  0  0  0  0  0  0  0  0  0  0
  161.5370  212.7120  147.5490 C   0  0  0  0  0  0  0  0  0  0  0  0
  162.1700  212.3530  148.6350 N   0  0  0  0  0  0  0  0  0  0  0  0
  160.4600  211.8790  146.9330 C   0  0  0  0  0  2  0  0  0  0  0  0
  159.2740  212.6110  146.8820 O   0  0  0  0  0  1  0  0  0  0  0  0
  162.3290  213.9150  145.5410 C   0  0  0  0  0  1  0  0  0  0  0  0
  161.8870  213.8940  146.8910 O   0  0  0  0  0  0  0  0  0  0  0  0
  161.7700  209.5030  155.8870 C   0  0  0  0  0  2  0  0  0  0  0  0
  161.2620  210.1350  157.0230 O   0  0  0  0  0  0  0  0  0  0  0  0
  161.2050  211.4850  156.6760 C   0  0  0  0  0  1  0  0  0  0  0  0
  1  9  2  0  0  0  0
  1 10  1  0  0  0  0
  2  3  1  0  0  0  0
  3 24  1  6  0  0  0
  3  7  1  0  0  0  0
  5  4  1  0  0  0  0
  6  1  1  0  0  0  0
  7 18  1  0  0  0  0
  7  9  1  0  0  0  0
  8  5  1  0  0  0  0
  9 12  1  0  0  0  0
 10 11  1  6  0  0  0
 10 14  1  0  0  0  0
 11  8  2  0  0  0  0
 12 14  2  0  0  0  0
 13  2  1  0  0  0  0
 13  6  1  0  0  0  0
 14 15  1  0  0  0  0
 15  5  2  0  0  0  0
 15 29  1  0  0  0  0
 16 22  1  1  0  0  0
 16 19  1  0  0  0  0
 17 16  1  0  0  0  0
 18 17  1  6  0  0  0
 18 19  1  0  0  0  0
 21 22  1  0  0  0  0
 22 20  1  0  0  0  0
 23 24  2  0  0  0  0
 25 23  1  0  0  0  0
 26 25  1  0  0  0  0
 27 28  1  0  0  0  0
 28 23  1  0  0  0  0
 29 30  1  0  0  0  0
 31 30  1  0  0  0  0
M  END
>  <MODEL>
6

>  <REMARK>
 VINA RESULT:      -5.6      2.982      6.485
  Name = 
  7 active torsions:
  status: ('A' for Active; 'I' for Inactive)
    1  A    between atoms: C_1  and  O_12
    2  A    between atoms: C_1  and  C_31
    3  A    between atoms: C_3  and  C_5
    4  A    between atoms: C_3  and  O_27
    5  A    between atoms: N_6  and  C_9
    6  A    between atoms: N_16  and  C_23
    7  A    between atoms: N_19  and  C_20
                            x       y       z     vdW  Elec       q    Type
                         _______ _______ _______ _____ _____    ______ ____

>  <TORSDO>
F 7

$$$$
=
 OpenBabel11052409463D

 31 34  0  0  1  0  0  0  0  0999 V2000
  158.8290  212.8700  152.1730 C   0  0  0  0  0  0  0  0  0  0  0  0
  159.4680  212.4800  154.8300 C   0  0  0  0  0  2  0  0  0  0  0  0
  160.4750  211.7200  154.5570 C   0  0  2  0  0  3  0  0  0  0  0  0
  158.6040  214.4480  146.7450 N   0  0  0  0  0  1  0  0  0  0  0  0
  158.6730  214.0880  148.1210 C   0  0  0  0  0  0  0  0  0  0  0  0
  157.8050  212.9830  153.3000 C   0  0  0  0  0  2  0  0  0  0  0  0
  160.6650  211.4060  153.1480 N   0  0  1  0  0  0  0  0  0  0  0  0
  157.6870  214.4260  148.9130 N   0  0  0  0  0  0  0  0  0  0  0  0
  159.9900  212.1550  152.0870 C   0  0  2  0  0  3  0  0  0  0  0  0
  158.6210  213.3920  150.8400 C   0  0  0  0  0  0  0  0  0  0  0  0
  157.6280  214.0940  150.3140 C   0  0  0  0  0  3  0  0  0  0  0  0
  160.5390  212.2200  150.7590 N   0  0  0  0  0  0  0  0  0  0  0  0
  158.4160  213.1960  154.6490 C   0  0  0  0  0  2  0  0  0  0  0  0
  159.7320  212.9460  150.0600 C   0  0  0  0  0  0  0  0  0  0  0  0
  159.8910  213.3140  148.6140 C   0  0  0  0  0  0  0  0  0  0  0  0
  161.1850  208.7290  151.4020 C   0  0  1  0  0  3  0  0  0  0  0  0
  161.1740  208.9800  152.9080 C   0  0  0  0  0  2  0  0  0  0  0  0
  161.6330  210.4050  152.6720 C   0  0  1  0  0  3  0  0  0  0  0  0
  161.5850  210.1850  151.1730 C   0  0  0  0  0  2  0  0  0  0  0  0
  162.2580  207.6570  149.5960 C   0  0  0  0  0  1  0  0  0  0  0  0
  161.9830  206.5200  151.5960 C   0  0  0  0  0  1  0  0  0  0  0  0
  162.2810  207.8310  151.0390 N   0  0  0  0  0  0  0  0  0  0  0  0
  160.9630  210.0270  156.3070 C   0  0  0  0  0  0  0  0  0  0  0  0
  161.2550  211.0800  155.5880 N   0  0  0  0  0  0  0  0  0  0  0  0
  159.6490  209.3220  156.2030 C   0  0  0  0  0  2  0  0  0  0  0  0
  159.8630  207.9520  156.0640 O   0  0  0  0  0  1  0  0  0  0  0  0
  163.2440  209.9310  157.2510 C   0  0  0  0  0  1  0  0  0  0  0  0
  161.8770  209.5440  157.2470 O   0  0  0  0  0  0  0  0  0  0  0  0
  161.1420  214.1600  148.4200 C   0  0  0  0  0  2  0  0  0  0  0  0
  162.2520  213.3380  148.2190 O   0  0  0  0  0  0  0  0  0  0  0  0
  162.1170  212.8830  146.9070 C   0  0  0  0  0  1  0  0  0  0  0  0
  1  6  1  0  0  0  0
  3  2  1  0  0  0  0
  3 24  1  1  0  0  0
  4  5  1  0  0  0  0
  5 15  2  0  0  0  0
  5  8  1  0  0  0  0
  6 13  1  0  0  0  0
  7 18  1  6  0  0  0
  7  3  1  0  0  0  0
  8 11  2  0  0  0  0
  9 12  1  1  0  0  0
  9  1  1  0  0  0  0
  9  7  1  0  0  0  0
 10  1  2  0  0  0  0
 11 10  1  0  0  0  0
 13  2  1  0  0  0  0
 14 12  2  0  0  0  0
 14 10  1  0  0  0  0
 15 14  1  0  0  0  0
 16 22  1  1  0  0  0
 16 17  1  0  0  0  0
 18 19  1  6  0  0  0
 18 17  1  0  0  0  0
 19 16  1  0  0  0  0
 20 22  1  0  0  0  0
 22 21  1  0  0  0  0
 23 28  1  0  0  0  0
 24 23  2  0  0  0  0
 25 23  1  0  0  0  0
 26 25  1  0  0  0  0
 28 27  1  0  0  0  0
 29 15  1  0  0  0  0
 30 29  1  0  0  0  0
 31 30  1  0  0  0  0
M  END
>  <MODEL>
7

>  <REMARK>
 VINA RESULT:      -5.4      2.842      6.308
  Name = 
  7 active torsions:
  status: ('A' for Active; 'I' for Inactive)
    1  A    between atoms: C_1  and  O_12
    2  A    between atoms: C_1  and  C_31
    3  A    between atoms: C_3  and  C_5
    4  A    between atoms: C_3  and  O_27
    5  A    between atoms: N_6  and  C_9
    6  A    between atoms: N_16  and  C_23
    7  A    between atoms: N_19  and  C_20
                            x       y       z     vdW  Elec       q    Type
                         _______ _______ _______ _____ _____    ______ ____

>  <TORSDO>
F 7

$$$$
=
 OpenBabel11052409463D

 31 34  0  0  1  0  0  0  0  0999 V2000
  161.4170  206.9780  149.2460 C   0  0  0  0  0  0  0  0  0  0  0  0
  162.2560  209.2680  150.5390 C   0  0  0  0  0  2  0  0  0  0  0  0
  161.8750  208.8460  151.6990 C   0  0  2  0  0  3  0  0  0  0  0  0
  160.7740  201.7520  147.1780 N   0  0  0  0  0  1  0  0  0  0  0  0
  160.9750  203.0630  147.6950 C   0  0  0  0  0  0  0  0  0  0  0  0
  161.5360  208.3310  148.5490 C   0  0  0  0  0  2  0  0  0  0  0  0
  161.1760  207.5680  151.7060 N   0  0  1  0  0  0  0  0  0  0  0  0
  161.1830  204.0480  146.8560 N   0  0  0  0  0  0  0  0  0  0  0  0
  161.1980  206.6640  150.5560 C   0  0  2  0  0  3  0  0  0  0  0  0
  161.3190  205.7170  148.5440 C   0  0  0  0  0  0  0  0  0  0  0  0
  161.3720  205.4190  147.2550 C   0  0  0  0  0  3  0  0  0  0  0  0
  160.9860  205.2500  150.7200 N   0  0  0  0  0  0  0  0  0  0  0  0
  162.4220  209.3020  149.2660 C   0  0  0  0  0  2  0  0  0  0  0  0
  161.0670  204.7260  149.5430 C   0  0  0  0  0  0  0  0  0  0  0  0
  160.9310  203.2700  149.2050 C   0  0  0  0  0  0  0  0  0  0  0  0
  161.0920  207.3750  154.9370 C   0  0  1  0  0  3  0  0  0  0  0  0
  161.4560  206.3540  153.8630 C   0  0  0  0  0  2  0  0  0  0  0  0
  160.5020  207.0300  152.8990 C   0  0  1  0  0  3  0  0  0  0  0  0
  160.1830  208.0870  153.9380 C   0  0  0  0  0  2  0  0  0  0  0  0
  159.0350  207.4550  156.0890 C   0  0  0  0  0  1  0  0  0  0  0  0
  160.9800  206.9910  157.2600 C   0  0  0  0  0  1  0  0  0  0  0  0
  160.3020  206.7470  155.9960 N   0  0  0  0  0  0  0  0  0  0  0  0
  161.2850  210.7230  153.2130 C   0  0  0  0  0  0  0  0  0  0  0  0
  161.9750  209.6630  152.8840 N   0  0  0  0  0  0  0  0  0  0  0  0
  160.2610  211.3290  152.3080 C   0  0  0  0  0  2  0  0  0  0  0  0
  158.9930  211.1750  152.8670 O   0  0  0  0  0  1  0  0  0  0  0  0
  162.2260  210.7410  155.4970 C   0  0  0  0  0  1  0  0  0  0  0  0
  161.5210  211.3630  154.4320 O   0  0  0  0  0  0  0  0  0  0  0  0
  162.0490  202.4700  149.8600 C   0  0  0  0  0  2  0  0  0  0  0  0
  161.5680  201.8050  150.9870 O   0  0  0  0  0  0  0  0  0  0  0  0
  160.5670  200.9660  150.4980 C   0  0  0  0  0  1  0  0  0  0  0  0
  2  3  1  0  0  0  0
  3  7  1  0  0  0  0
  3 24  1  6  0  0  0
  4  5  1  0  0  0  0
  5 15  2  0  0  0  0
  6  1  1  0  0  0  0
  6 13  1  0  0  0  0
  7 18  1  1  0  0  0
  8 11  2  0  0  0  0
  8  5  1  0  0  0  0
  9  1  1  1  0  0  0
  9 12  1  0  0  0  0
  9  7  1  0  0  0  0
 10  1  2  0  0  0  0
 10 14  1  0  0  0  0
 11 10  1  0  0  0  0
 13  2  1  0  0  0  0
 14 12  2  0  0  0  0
 15 14  1  0  0  0  0
 15 29  1  0  0  0  0
 16 22  1  1  0  0  0
 17 16  1  0  0  0  0
 18 17  1  1  0  0  0
 18 19  1  0  0  0  0
 19 16  1  0  0  0  0
 22 20  1  0  0  0  0
 22 21  1  0  0  0  0
 23 28  1  0  0  0  0
 24 23  2  0  0  0  0
 25 26  1  0  0  0  0
 25 23  1  0  0  0  0
 28 27  1  0  0  0  0
 29 30  1  0  0  0  0
 31 30  1  0  0  0  0
M  END
>  <MODEL>
8

>  <REMARK>
 VINA RESULT:      -4.9      2.166      4.688
  Name = 
  7 active torsions:
  status: ('A' for Active; 'I' for Inactive)
    1  A    between atoms: C_1  and  O_12
    2  A    between atoms: C_1  and  C_31
    3  A    between atoms: C_3  and  C_5
    4  A    between atoms: C_3  and  O_27
    5  A    between atoms: N_6  and  C_9
    6  A    between atoms: N_16  and  C_23
    7  A    between atoms: N_19  and  C_20
                            x       y       z     vdW  Elec       q    Type
                         _______ _______ _______ _____ _____    ______ ____

>  <TORSDO>
F 7

$$$$
=
 OpenBabel11052409463D

 31 34  0  0  1  0  0  0  0  0999 V2000
  161.2070  206.8670  152.6120 C   0  0  0  0  0  0  0  0  0  0  0  0
  160.4710  209.3840  153.4730 C   0  0  0  0  0  2  0  0  0  0  0  0
  160.8670  209.9570  152.3870 C   0  0  2  0  0  3  0  0  0  0  0  0
  161.6390  201.8330  150.0670 N   0  0  0  0  0  1  0  0  0  0  0  0
  161.4910  203.0960  150.7070 C   0  0  0  0  0  0  0  0  0  0  0  0
  161.1120  207.2460  154.0880 C   0  0  0  0  0  2  0  0  0  0  0  0
  161.5270  209.0890  151.4200 N   0  0  0  0  0  0  0  0  0  0  0  0
  161.2920  203.1290  152.0020 N   0  0  0  0  0  0  0  0  0  0  0  0
  161.4490  207.6300  151.5060 C   0  0  0  0  0  0  0  0  0  0  0  0
  161.2490  205.5030  152.1330 C   0  0  0  0  0  0  0  0  0  0  0  0
  161.1550  204.3430  152.7650 C   0  0  0  0  0  3  0  0  0  0  0  0
  161.6220  206.8080  150.3380 N   0  0  0  0  0  0  0  0  0  0  0  0
  160.2740  208.4600  154.3450 C   0  0  0  0  0  2  0  0  0  0  0  0
  161.4960  205.5830  150.7270 C   0  0  0  0  0  0  0  0  0  0  0  0
  161.5780  204.3610  149.8610 C   0  0  2  0  0  3  0  0  0  0  0  0
  161.6030  211.2950  149.0510 C   0  0  1  0  0  3  0  0  0  0  0  0
  161.2790  209.8030  149.0470 C   0  0  0  0  0  2  0  0  0  0  0  0
  162.2140  209.5980  150.2230 C   0  0  1  0  0  3  0  0  0  0  0  0
  162.4910  211.0880  150.2760 C   0  0  0  0  0  2  0  0  0  0  0  0
  163.2860  212.7460  148.2610 C   0  0  0  0  0  1  0  0  0  0  0  0
  161.5140  212.1920  146.8740 C   0  0  0  0  0  1  0  0  0  0  0  0
  162.4100  211.6480  147.8830 N   0  0  0  0  0  0  0  0  0  0  0  0
  159.8110  212.2040  152.3580 C   0  0  0  0  0  0  0  0  0  0  0  0
  160.8220  211.3880  152.2120 N   0  0  0  0  0  0  0  0  0  0  0  0
  158.4330  211.7260  152.6860 C   0  0  0  0  0  2  0  0  0  0  0  0
  158.1670  211.9560  154.0350 O   0  0  0  0  0  1  0  0  0  0  0  0
  160.0750  214.1600  150.8720 C   0  0  0  0  0  1  0  0  0  0  0  0
  159.9830  213.5770  152.1640 O   0  0  0  0  0  0  0  0  0  0  0  0
  160.4530  204.3640  148.8350 C   0  0  0  0  0  2  0  0  0  0  0  0
  160.8600  205.0260  147.6760 O   0  0  0  0  0  0  0  0  0  0  0  0
  161.8610  204.2140  147.1430 C   0  0  0  0  0  1  0  0  0  0  0  0
  1  6  1  0  0  0  0
  2 13  1  0  0  0  0
  3 24  1  1  0  0  0
  3  2  1  0  0  0  0
  4  5  1  0  0  0  0
  5  8  2  0  0  0  0
  6 13  1  0  0  0  0
  7  9  1  0  0  0  0
  7  3  1  0  0  0  0
  8 11  1  0  0  0  0
  9  1  2  0  0  0  0
 10  1  1  0  0  0  0
 10 11  2  0  0  0  0
 12 14  2  0  0  0  0
 12  9  1  0  0  0  0
 14 10  1  0  0  0  0
 15 29  1  6  0  0  0
 15  5  1  0  0  0  0
 15 14  1  0  0  0  0
 16 22  1  6  0  0  0
 16 19  1  0  0  0  0
 17 16  1  0  0  0  0
 18 17  1  6  0  0  0
 18 19  1  0  0  0  0
 18  7  1  0  0  0  0
 21 22  1  0  0  0  0
 22 20  1  0  0  0  0
 23 25  1  0  0  0  0
 24 23  2  0  0  0  0
 25 26  1  0  0  0  0
 27 28  1  0  0  0  0
 28 23  1  0  0  0  0
 30 29  1  0  0  0  0
 31 30  1  0  0  0  0
M  END
>  <MODEL>
9

>  <REMARK>
 VINA RESULT:      -4.8      1.712      2.021
  Name = 
  7 active torsions:
  status: ('A' for Active; 'I' for Inactive)
    1  A    between atoms: C_1  and  O_12
    2  A    between atoms: C_1  and  C_31
    3  A    between atoms: C_3  and  C_5
    4  A    between atoms: C_3  and  O_27
    5  A    between atoms: N_6  and  C_9
    6  A    between atoms: N_16  and  C_23
    7  A    between atoms: N_19  and  C_20
                            x       y       z     vdW  Elec       q    Type
                         _______ _______ _______ _____ _____    ______ ____

>  <TORSDO>
F 7

$$$$
