=
 OpenBabel11052411033D

 67 76  0  0  1  0  0  0  0  0999 V2000
  161.9280  211.0480  155.0670 C   0  0  0  0  0  0  0  0  0  0  0  0
  159.5600  210.5750  146.5760 C   0  0  2  0  0  3  0  0  0  0  0  0
  161.1190  208.0680  156.0190 C   0  0  1  0  0  3  0  0  0  0  0  0
  161.7000  209.5900  151.8650 C   0  0  0  0  0  3  0  0  0  0  0  0
  161.0870  206.9900  153.7160 C   0  0  0  0  0  2  0  0  0  0  0  0
  161.3900  209.8540  154.3180 C   0  0  1  0  0  3  0  0  0  0  0  0
  159.0780  212.7150  149.5480 C   0  0  0  0  0  2  0  0  0  0  0  0
  162.7160  205.9270  149.7150 C   0  0  1  0  0  3  0  0  0  0  0  0
  160.3470  212.5630  153.8520 C   0  0  0  0  0  2  0  0  0  0  0  0
  160.3070  207.6850  157.2430 C   0  0  0  0  0  2  0  0  0  0  0  0
  161.3750  208.8670  147.2750 C   0  0  1  0  0  3  0  0  0  0  0  0
  161.4360  204.6440  153.7770 C   0  0  0  0  0  2  0  0  0  0  0  0
  160.2840  207.6040  154.8580 C   0  0  2  0  0  0  0  0  0  0  0  0
  158.0120  212.4180  145.8700 C   0  0  1  0  0  3  0  0  0  0  0  0
  163.3130  209.8000  148.3230 O   0  0  0  0  0  1  0  0  0  0  0  0
  163.2080  205.9800  151.1600 C   0  0  0  0  0  2  0  0  0  0  0  0
  161.4410  212.3620  154.7880 N   0  0  0  0  0  2  0  0  0  0  0  0
  159.2560  211.6270  145.4990 C   0  0  0  0  0  2  0  0  0  0  0  0
  161.5810  206.9300  149.4770 C   0  0  2  0  0  3  0  0  0  0  0  0
  161.9750  205.9360  154.1950 N   0  0  0  0  0  2  0  0  0  0  0  0
  163.0450  204.6160  151.8110 C   0  0  0  0  0  2  0  0  0  0  0  0
  162.0070  209.3760  148.5670 C   0  0  2  0  0  3  0  0  0  0  0  0
  161.1460  208.9540  150.8330 C   0  0  0  0  0  3  0  0  0  0  0  0
  160.5370  211.6590  152.6820 C   0  0  0  0  0  0  0  0  0  0  0  0
  160.2540  207.8740  147.5350 C   0  0  0  0  0  2  0  0  0  0  0  0
  159.3200  210.9580  147.9290 O   0  0  0  0  0  0  0  0  0  0  0  0
  159.3100  206.6960  156.8540 N   0  0  0  0  0  2  0  0  0  0  0  0
  160.3720  209.0950  155.1730 C   0  0  1  0  0  3  0  0  0  0  0  0
  160.3750  212.6570  150.2720 C   0  0  0  0  0  3  0  0  0  0  0  0
  160.8730  206.6370  148.1510 C   0  0  0  0  0  2  0  0  0  0  0  0
  161.9990  208.3930  149.7490 C   0  0  1  0  0  3  0  0  0  0  0  0
  161.5970  204.4220  152.2680 C   0  0  1  0  0  3  0  0  0  0  0  0
  162.8040  210.8880  155.9580 O   0  0  0  0  0  0  0  0  0  0  0  0
  159.2660  212.3630  148.0800 C   0  0  1  0  0  3  0  0  0  0  0  0
  159.1000  206.8570  155.4220 C   0  0  0  0  0  2  0  0  0  0  0  0
  158.0880  212.9550  147.3030 C   0  0  0  0  0  2  0  0  0  0  0  0
  160.8180  210.1860  152.9210 C   0  0  1  0  0  3  0  0  0  0  0  0
  160.4360  212.1540  151.4740 C   0  0  0  0  0  0  0  0  0  0  0  0
  160.9720  210.0280  146.3650 C   0  0  0  0  0  2  0  0  0  0  0  0
  160.4770  214.2200  145.1510 O   0  0  0  0  0  0  0  0  0  0  0  0
  158.7420  213.4920  143.7540 N   0  0  0  0  0  0  0  0  0  0  0  0
  156.3190  213.5180  144.3110 C   0  0  0  0  0  2  0  0  0  0  0  0
  160.0990  213.9150  143.9830 C   0  0  0  0  0  0  0  0  0  0  0  0
  157.1110  213.9730  141.9580 C   0  0  0  0  0  2  0  0  0  0  0  0
  156.2280  214.4530  143.1140 C   0  0  0  0  0  2  0  0  0  0  0  0
  157.7570  213.5280  144.8460 C   0  0  1  0  0  3  0  0  0  0  0  0
  158.3060  213.1200  142.4060 C   0  0  0  0  0  2  0  0  0  0  0  0
  161.5280  212.6380  142.4020 C   0  0  1  0  0  3  0  0  0  0  0  0
  162.3040  213.4400  143.2590 O   0  0  0  0  0  0  0  0  0  0  0  0
  161.0700  213.9820  142.8430 C   0  0  2  0  0  3  0  0  0  0  0  0
  163.3710  211.9010  140.9370 C   0  0  0  0  0  2  0  0  0  0  0  0
  163.4470  213.4090  141.0520 C   0  0  0  0  0  2  0  0  0  0  0  0
  162.0990  212.7200  141.0040 C   0  0  0  0  0  3  0  0  0  0  0  0
  161.0160  203.0630  151.8570 C   0  0  1  0  0  3  0  0  0  0  0  0
  159.6210  203.2510  151.2860 C   0  0  0  0  0  1  0  0  0  0  0  0
  161.8820  202.2990  150.8550 C   0  0  0  0  0  2  0  0  0  0  0  0
  161.5300  202.6710  149.4260 C   0  0  0  0  0  2  0  0  0  0  0  0
  160.4990  201.5410  147.4900 C   0  0  0  0  0  1  0  0  0  0  0  0
  161.5670  201.4330  148.5580 C   0  0  0  0  0  2  0  0  0  0  0  0
  163.8670  206.1150  148.7280 C   0  0  0  0  0  2  0  0  0  0  0  0
  163.3890  205.9080  147.3060 C   0  0  0  0  0  2  0  0  0  0  0  0
  163.6230  204.5880  146.9160 O   0  0  0  0  0  0  0  0  0  0  0  0
  162.7820  204.3880  145.8180 C   0  0  0  0  0  2  0  0  0  0  0  0
  161.3380  204.6740  146.1990 C   0  0  0  0  0  2  0  0  0  0  0  0
  160.7720  205.5530  145.2740 O   0  0  0  0  0  0  0  0  0  0  0  0
  160.1230  203.6190  144.0560 C   0  0  0  0  0  1  0  0  0  0  0  0
  160.9120  204.9140  144.0430 C   0  0  0  0  0  2  0  0  0  0  0  0
  1 33  2  0  0  0  0
  2 18  1  6  0  0  0
  2 26  1  0  0  0  0
  3 10  1  1  0  0  0
  4 37  1  0  0  0  0
  5 20  1  0  0  0  0
  6  1  1  1  0  0  0
  6 28  1  0  0  0  0
  7 29  1  0  0  0  0
  8 60  1  6  0  0  0
  8 16  1  0  0  0  0
  9 17  1  0  0  0  0
 11 39  1  1  0  0  0
 11 25  1  0  0  0  0
 11 22  1  0  0  0  0
 12 20  1  0  0  0  0
 13  5  1  6  0  0  0
 13 28  1  0  0  0  0
 13 35  1  0  0  0  0
 13  3  1  0  0  0  0
 14 18  1  6  0  0  0
 14 36  1  0  0  0  0
 16 21  1  0  0  0  0
 17  1  1  0  0  0  0
 19 30  1  6  0  0  0
 19  8  1  0  0  0  0
 19 31  1  0  0  0  0
 21 32  1  0  0  0  0
 22 15  1  6  0  0  0
 22 31  1  0  0  0  0
 23  4  2  0  0  0  0
 24 37  1  0  0  0  0
 24  9  1  0  0  0  0
 25 30  1  0  0  0  0
 26 34  1  0  0  0  0
 27 10  1  0  0  0  0
 28  3  1  0  0  0  0
 29 38  2  0  0  0  0
 31 23  1  0  0  0  0
 32 12  1  0  0  0  0
 34  7  1  0  0  0  0
 35 27  1  0  0  0  0
 36 34  1  0  0  0  0
 37  6  1  0  0  0  0
 38 24  2  0  0  0  0
 39  2  1  0  0  0  0
 41 43  1  0  0  0  0
 41 46  1  0  0  0  0
 42 46  1  0  0  0  0
 43 40  2  0  0  0  0
 44 47  1  0  0  0  0
 44 45  1  0  0  0  0
 45 42  1  0  0  0  0
 46 14  1  0  0  0  0
 47 41  1  0  0  0  0
 48 50  1  0  0  0  0
 48 49  1  0  0  0  0
 50 49  1  0  0  0  0
 50 43  1  0  0  0  0
 51 53  1  0  0  0  0
 51 52  1  0  0  0  0
 53 52  1  0  0  0  0
 53 48  1  0  0  0  0
 54 32  1  0  0  0  0
 55 54  1  0  0  0  0
 56 54  1  0  0  0  0
 57 56  1  0  0  0  0
 58 59  1  0  0  0  0
 59 57  1  0  0  0  0
 61 60  1  0  0  0  0
 62 61  1  0  0  0  0
 63 64  1  0  0  0  0
 63 62  1  0  0  0  0
 65 64  1  0  0  0  0
 67 66  1  0  0  0  0
 67 65  1  0  0  0  0
M  END
>  <MODEL>
1

>  <REMARK>
 VINA RESULT:      19.1      0.000      0.000
  Name = 
  14 active torsions:
  status: ('A' for Active; 'I' for Inactive)
    1  A    between atoms: C_1  and  C_49
    2  A    between atoms: C_1  and  C_54
    3  A    between atoms: C_4  and  O_19
    4  A    between atoms: C_4  and  C_51
    5  A    between atoms: C_13  and  C_28
    6  A    between atoms: O_18  and  C_38
    7  A    between atoms: O_18  and  C_51
    8  A    between atoms: O_19  and  C_20
    9  A    between atoms: C_20  and  C_28
   10  A    between atoms: C_23  and  C_46
   11  A    between atoms: C_25  and  C_64
   12  A    between atoms: C_37  and  C_59
   13  A    between atoms: C_49  and  C_53
   14  A    between atoms: C_53  and  C_65
                            x       y       z     vdW  Elec       q    Type
                         _______ _______ _______ _____ _____    ______ ____

>  <TORSDO>
F 14

$$$$
=
 OpenBabel11052411033D

 67 76  0  0  1  0  0  0  0  0999 V2000
  162.2730  211.5240  148.6150 C   0  0  0  0  0  0  0  0  0  0  0  0
  160.4130  203.8140  152.4900 C   0  0  2  0  0  3  0  0  0  0  0  0
  160.2240  213.4420  150.2190 C   0  0  1  0  0  3  0  0  0  0  0  0
  161.6310  209.3510  151.3150 C   0  0  0  0  0  3  0  0  0  0  0  0
  159.8700  211.9250  152.2290 C   0  0  0  0  0  2  0  0  0  0  0  0
  161.3220  211.2650  149.7580 C   0  0  1  0  0  3  0  0  0  0  0  0
  160.7150  205.3050  149.1240 C   0  0  0  0  0  2  0  0  0  0  0  0
  161.1190  209.3740  155.6520 C   0  0  1  0  0  3  0  0  0  0  0  0
  161.5540  209.4030  147.4930 C   0  0  0  0  0  2  0  0  0  0  0  0
  159.2590  214.4510  149.6260 C   0  0  0  0  0  2  0  0  0  0  0  0
  161.2920  205.6360  154.1050 C   0  0  1  0  0  3  0  0  0  0  0  0
  159.1890  213.0980  154.1760 C   0  0  0  0  0  2  0  0  0  0  0  0
  159.3390  212.4290  150.8910 C   0  0  2  0  0  0  0  0  0  0  0  0
  159.8350  201.9950  150.8620 C   0  0  1  0  0  3  0  0  0  0  0  0
  163.3790  206.6310  153.4920 O   0  0  0  0  0  1  0  0  0  0  0  0
  161.5050  210.7210  155.0460 C   0  0  0  0  0  2  0  0  0  0  0  0
  162.4040  210.5810  147.5500 N   0  0  0  0  0  2  0  0  0  0  0  0
  160.6450  202.3470  152.0990 C   0  0  0  0  0  2  0  0  0  0  0  0
  160.5320  208.4340  154.5940 C   0  0  2  0  0  3  0  0  0  0  0  0
  160.1990  213.0310  153.1230 N   0  0  0  0  0  2  0  0  0  0  0  0
  160.7430  211.8380  155.7410 C   0  0  0  0  0  2  0  0  0  0  0  0
  162.0040  206.6880  153.2610 C   0  0  2  0  0  3  0  0  0  0  0  0
  160.9190  208.5990  152.1540 C   0  0  0  0  0  3  0  0  0  0  0  0
  161.4090  208.8430  148.8670 C   0  0  0  0  0  0  0  0  0  0  0  0
  159.8430  206.0040  154.3790 C   0  0  0  0  0  2  0  0  0  0  0  0
  160.2820  204.7470  151.4190 O   0  0  0  0  0  0  0  0  0  0  0  0
  157.9610  214.2920  150.2680 N   0  0  0  0  0  2  0  0  0  0  0  0
  160.0320  212.0690  149.5800 C   0  0  1  0  0  3  0  0  0  0  0  0
  161.8220  206.2900  149.2430 C   0  0  0  0  0  3  0  0  0  0  0  0
  159.8430  207.2380  155.2570 C   0  0  0  0  0  2  0  0  0  0  0  0
  161.5140  208.1340  153.4380 C   0  0  1  0  0  3  0  0  0  0  0  0
  159.3250  211.9400  155.1710 C   0  0  1  0  0  3  0  0  0  0  0  0
  162.9460  212.5880  148.5870 O   0  0  0  0  0  0  0  0  0  0  0  0
  160.8190  204.2460  150.2110 C   0  0  1  0  0  3  0  0  0  0  0  0
  157.9200  212.9350  150.7960 C   0  0  0  0  0  2  0  0  0  0  0  0
  160.0490  203.0120  149.7360 C   0  0  0  0  0  2  0  0  0  0  0  0
  161.0260  209.7690  150.0090 C   0  0  1  0  0  3  0  0  0  0  0  0
  161.5960  207.5600  149.0530 C   0  0  0  0  0  0  0  0  0  0  0  0
  161.4700  204.2390  153.5090 C   0  0  0  0  0  2  0  0  0  0  0  0
  158.1010  200.9070  148.4850 O   0  0  0  0  0  0  0  0  0  0  0  0
  160.3560  200.4840  148.9620 N   0  0  0  0  0  0  0  0  0  0  0  0
  161.2870  199.9260  151.1990 C   0  0  0  0  0  2  0  0  0  0  0  0
  159.2510  200.6180  148.0480 C   0  0  0  0  0  0  0  0  0  0  0  0
  162.2380  198.8860  149.1040 C   0  0  0  0  0  2  0  0  0  0  0  0
  161.6980  198.6310  150.5150 C   0  0  0  0  0  2  0  0  0  0  0  0
  160.1320  200.5610  150.4150 C   0  0  1  0  0  3  0  0  0  0  0  0
  161.6930  200.1670  148.4580 C   0  0  0  0  0  2  0  0  0  0  0  0
  159.9410  201.6660  145.9040 C   0  0  1  0  0  3  0  0  0  0  0  0
  158.5890  201.2800  145.8710 O   0  0  0  0  0  0  0  0  0  0  0  0
  159.4650  200.4290  146.5760 C   0  0  2  0  0  3  0  0  0  0  0  0
  159.5450  200.6780  143.6780 C   0  0  0  0  0  2  0  0  0  0  0  0
  160.5670  199.8180  144.3910 C   0  0  0  0  0  2  0  0  0  0  0  0
  160.5800  201.3200  144.5770 C   0  0  0  0  0  3  0  0  0  0  0  0
  158.2480  212.0320  156.2600 C   0  0  1  0  0  3  0  0  0  0  0  0
  158.6070  213.1280  157.2480 C   0  0  0  0  0  1  0  0  0  0  0  0
  156.8390  212.2710  155.7160 C   0  0  0  0  0  2  0  0  0  0  0  0
  156.7340  211.8540  154.2600 C   0  0  0  0  0  2  0  0  0  0  0  0
  155.2280  210.3420  155.4980 C   0  0  0  0  0  1  0  0  0  0  0  0
  155.6990  210.7610  154.1210 C   0  0  0  0  0  2  0  0  0  0  0  0
  162.2970  208.7410  156.3950 C   0  0  0  0  0  2  0  0  0  0  0  0
  162.9950  209.7690  157.2600 C   0  0  0  0  0  2  0  0  0  0  0  0
  163.8180  210.5720  156.4700 O   0  0  0  0  0  0  0  0  0  0  0  0
  164.0790  211.6960  157.2570 C   0  0  0  0  0  2  0  0  0  0  0  0
  165.5210  212.1450  157.0770 C   0  0  0  0  0  2  0  0  0  0  0  0
  165.9520  211.8380  155.7850 O   0  0  0  0  0  0  0  0  0  0  0  0
  168.3200  211.9430  155.6250 C   0  0  0  0  0  1  0  0  0  0  0  0
  167.0130  212.7090  155.5460 C   0  0  0  0  0  2  0  0  0  0  0  0
  2 18  1  6  0  0  0
  2 39  1  0  0  0  0
  3 10  1  6  0  0  0
  3 13  1  0  0  0  0
  4 23  2  0  0  0  0
  5 20  1  0  0  0  0
  6  1  1  6  0  0  0
  6 37  1  0  0  0  0
  7 29  1  0  0  0  0
  7 34  1  0  0  0  0
  8 60  1  6  0  0  0
  9 17  1  0  0  0  0
  9 24  1  0  0  0  0
 10 27  1  0  0  0  0
 11 39  1  6  0  0  0
 11 25  1  0  0  0  0
 12 32  1  0  0  0  0
 13 35  1  6  0  0  0
 13  5  1  0  0  0  0
 14 36  1  6  0  0  0
 14 18  1  0  0  0  0
 16  8  1  0  0  0  0
 16 21  1  0  0  0  0
 17  1  1  0  0  0  0
 19 30  1  1  0  0  0
 19  8  1  0  0  0  0
 20 12  1  0  0  0  0
 22 31  1  0  0  0  0
 22 15  1  1  0  0  0
 22 11  1  0  0  0  0
 23 31  1  0  0  0  0
 24 38  2  0  0  0  0
 24 37  1  0  0  0  0
 25 30  1  0  0  0  0
 26  2  1  0  0  0  0
 27 35  1  0  0  0  0
 28  6  1  0  0  0  0
 28  3  1  0  0  0  0
 28 13  1  0  0  0  0
 31 19  1  0  0  0  0
 32 21  1  0  0  0  0
 32 54  1  0  0  0  0
 33  1  2  0  0  0  0
 34 26  1  0  0  0  0
 36 34  1  0  0  0  0
 37  4  1  0  0  0  0
 38 29  2  0  0  0  0
 41 46  1  0  0  0  0
 43 40  2  0  0  0  0
 43 41  1  0  0  0  0
 44 45  1  0  0  0  0
 45 42  1  0  0  0  0
 46 14  1  0  0  0  0
 46 42  1  0  0  0  0
 47 41  1  0  0  0  0
 47 44  1  0  0  0  0
 48 50  1  0  0  0  0
 49 48  1  0  0  0  0
 49 50  1  0  0  0  0
 50 43  1  0  0  0  0
 51 52  1  0  0  0  0
 51 53  1  0  0  0  0
 52 53  1  0  0  0  0
 53 48  1  0  0  0  0
 54 55  1  0  0  0  0
 56 54  1  0  0  0  0
 57 56  1  0  0  0  0
 59 57  1  0  0  0  0
 59 58  1  0  0  0  0
 60 61  1  0  0  0  0
 62 63  1  0  0  0  0
 62 61  1  0  0  0  0
 64 63  1  0  0  0  0
 65 64  1  0  0  0  0
 67 66  1  0  0  0  0
 67 65  1  0  0  0  0
M  END
>  <MODEL>
2

>  <REMARK>
 VINA RESULT:      21.9      3.765     10.401
  Name = 
  14 active torsions:
  status: ('A' for Active; 'I' for Inactive)
    1  A    between atoms: C_1  and  C_49
    2  A    between atoms: C_1  and  C_54
    3  A    between atoms: C_4  and  O_19
    4  A    between atoms: C_4  and  C_51
    5  A    between atoms: C_13  and  C_28
    6  A    between atoms: O_18  and  C_38
    7  A    between atoms: O_18  and  C_51
    8  A    between atoms: O_19  and  C_20
    9  A    between atoms: C_20  and  C_28
   10  A    between atoms: C_23  and  C_46
   11  A    between atoms: C_25  and  C_64
   12  A    between atoms: C_37  and  C_59
   13  A    between atoms: C_49  and  C_53
   14  A    between atoms: C_53  and  C_65
                            x       y       z     vdW  Elec       q    Type
                         _______ _______ _______ _____ _____    ______ ____

>  <TORSDO>
F 14

$$$$
