=
 OpenBabel11042421323D

 27 32  0  0  1  0  0  0  0  0999 V2000
  162.7270  205.8350  152.0120 O   0  0  0  0  0  0  0  0  0  0  0  0
  160.7150  207.0300  151.8300 N   0  0  0  0  0  2  0  0  0  0  0  0
  161.5370  205.8790  151.6020 C   0  0  0  0  0  0  0  0  0  0  0  0
  161.9030  209.3050  151.9650 C   0  0  0  0  0  2  0  0  0  0  0  0
  160.5280  207.1560  156.2340 C   0  0  0  0  0  2  0  0  0  0  0  0
  161.6660  210.5180  154.1230 N   0  0  0  0  0  0  0  0  0  0  0  0
  161.2660  209.4220  154.6940 C   0  0  0  0  0  0  0  0  0  0  0  0
  160.2870  207.0290  154.6850 C   0  0  0  0  0  2  0  0  0  0  0  0
  161.6760  210.6540  152.6640 C   0  0  0  0  0  2  0  0  0  0  0  0
  161.8940  209.2580  157.2610 N   0  0  0  0  0  2  0  0  0  0  0  0
  160.9540  209.3260  156.1470 C   0  0  2  0  0  3  0  0  0  0  0  0
  161.0750  208.1990  152.5830 C   0  0  0  0  0  0  0  0  0  0  0  0
  161.7310  208.0780  156.4070 C   0  0  2  0  0  3  0  0  0  0  0  0
  160.8300  208.2370  153.8990 C   0  0  0  0  0  0  0  0  0  0  0  0
  160.8410  203.7380  148.8160 C   0  0  2  0  0  3  0  0  0  0  0  0
  160.2730  201.6780  149.8890 O   0  0  0  0  0  1  0  0  0  0  0  0
  160.5390  204.9250  149.5100 O   0  0  0  0  0  0  0  0  0  0  0  0
  160.1570  203.8810  151.5700 O   0  0  0  0  0  0  0  0  0  0  0  0
  161.4050  203.3640  151.1350 C   0  0  1  0  0  3  0  0  0  0  0  0
  161.2590  202.6630  149.8100 C   0  0  2  0  0  3  0  0  0  0  0  0
  160.9870  204.7330  150.8260 C   0  0  2  0  0  0  0  0  0  0  0  0
  161.9540  204.0050  147.8110 C   0  0  0  0  0  2  0  0  0  0  0  0
  160.8960  205.7740  146.4470 O   0  0  0  0  0  0  0  0  0  0  0  0
  161.3970  204.5690  146.5480 C   0  0  0  0  0  0  0  0  0  0  0  0
  161.3790  203.9010  145.3810 N   0  0  0  0  0  0  0  0  0  0  0  0
  160.5220  205.9430  145.2020 C   0  0  0  0  0  3  0  0  0  0  0  0
  160.8200  204.7760  144.5220 C   0  0  0  0  0  3  0  0  0  0  0  0
  2 12  1  0  0  0  0
  3  2  1  0  0  0  0
  3  1  2  0  0  0  0
  4 12  1  0  0  0  0
  4  9  1  0  0  0  0
  6  7  2  0  0  0  0
  8  5  1  0  0  0  0
  9  6  1  0  0  0  0
 11  7  1  6  0  0  0
 11 13  1  0  0  0  0
 11 10  1  0  0  0  0
 12 14  2  0  0  0  0
 13  5  1  1  0  0  0
 13 10  1  0  0  0  0
 14  8  1  0  0  0  0
 14  7  1  0  0  0  0
 15 22  1  6  0  0  0
 15 17  1  0  0  0  0
 15 20  1  0  0  0  0
 17 21  1  0  0  0  0
 19 18  1  1  0  0  0
 20 16  1  1  0  0  0
 20 19  1  0  0  0  0
 21 19  1  0  0  0  0
 21 18  1  0  0  0  0
 21  3  1  1  0  0  0
 23 24  1  0  0  0  0
 24 22  1  0  0  0  0
 25 24  2  0  0  0  0
 26 23  1  0  0  0  0
 27 26  2  0  0  0  0
 27 25  1  0  0  0  0
M  END
>  <MODEL>
1

>  <REMARK>
 VINA RESULT:      -8.3      0.000      0.000
  Name = 
  4 active torsions:
  status: ('A' for Active; 'I' for Inactive)
    1  A    between atoms: C_1  and  C_3
    2  A    between atoms: C_1  and  C_6
    3  A    between atoms: C_19  and  N_21
    4  A    between atoms: C_22  and  C_27
                            x       y       z     vdW  Elec       q    Type
                         _______ _______ _______ _____ _____    ______ ____

>  <TORSDO>
F 4

$$$$
=
 OpenBabel11042421323D

 27 32  0  0  1  0  0  0  0  0999 V2000
  159.8060  206.2420  148.5900 O   0  0  0  0  0  0  0  0  0  0  0  0
  161.8100  205.4810  149.5470 N   0  0  0  0  0  2  0  0  0  0  0  0
  160.9490  205.7370  148.4310 C   0  0  0  0  0  0  0  0  0  0  0  0
  160.8710  204.8350  151.8500 C   0  0  0  0  0  2  0  0  0  0  0  0
  161.8400  209.6400  151.0120 C   0  0  0  0  0  2  0  0  0  0  0  0
  161.1550  206.5330  153.6440 N   0  0  0  0  0  0  0  0  0  0  0  0
  161.4110  207.4360  152.7470 C   0  0  0  0  0  0  0  0  0  0  0  0
  162.1260  208.2240  150.3900 C   0  0  0  0  0  2  0  0  0  0  0  0
  161.2150  205.1050  153.3220 C   0  0  0  0  0  2  0  0  0  0  0  0
  160.6720  209.8820  153.4440 N   0  0  0  0  0  2  0  0  0  0  0  0
  161.6560  208.8690  153.0770 C   0  0  2  0  0  3  0  0  0  0  0  0
  161.5500  205.8160  150.9180 C   0  0  0  0  0  0  0  0  0  0  0  0
  160.7390  209.4400  152.0470 C   0  0  2  0  0  3  0  0  0  0  0  0
  161.7470  207.0720  151.3400 C   0  0  0  0  0  0  0  0  0  0  0  0
  161.6320  203.6890  145.5720 C   0  0  2  0  0  3  0  0  0  0  0  0
  161.7070  205.2960  143.8040 O   0  0  0  0  0  1  0  0  0  0  0  0
  162.0350  204.1240  146.8480 O   0  0  0  0  0  0  0  0  0  0  0  0
  161.9700  206.4060  146.3320 O   0  0  0  0  0  0  0  0  0  0  0  0
  160.7200  205.9040  145.8850 C   0  0  1  0  0  3  0  0  0  0  0  0
  160.9160  204.8250  144.8530 C   0  0  2  0  0  3  0  0  0  0  0  0
  161.3960  205.3550  147.0620 C   0  0  2  0  0  0  0  0  0  0  0  0
  160.7180  202.4790  145.7120 C   0  0  0  0  0  2  0  0  0  0  0  0
  160.2280  202.3690  148.1320 O   0  0  0  0  0  0  0  0  0  0  0  0
  160.8340  201.8880  147.0760 C   0  0  0  0  0  0  0  0  0  0  0  0
  161.5530  200.7850  147.3490 N   0  0  0  0  0  0  0  0  0  0  0  0
  160.5320  201.5980  149.1480 C   0  0  0  0  0  3  0  0  0  0  0  0
  161.3630  200.6010  148.6700 C   0  0  0  0  0  3  0  0  0  0  0  0
  2 12  1  0  0  0  0
  3  1  2  0  0  0  0
  3  2  1  0  0  0  0
  4  9  1  0  0  0  0
  7  6  2  0  0  0  0
  8  5  1  0  0  0  0
  8 14  1  0  0  0  0
  9  6  1  0  0  0  0
 11  7  1  1  0  0  0
 11 10  1  0  0  0  0
 12 14  2  0  0  0  0
 12  4  1  0  0  0  0
 13  5  1  6  0  0  0
 13 11  1  0  0  0  0
 13 10  1  0  0  0  0
 14  7  1  0  0  0  0
 15 22  1  1  0  0  0
 15 17  1  0  0  0  0
 17 21  1  0  0  0  0
 18 21  1  0  0  0  0
 19 18  1  6  0  0  0
 19 21  1  0  0  0  0
 20 16  1  6  0  0  0
 20 15  1  0  0  0  0
 20 19  1  0  0  0  0
 21  3  1  1  0  0  0
 22 24  1  0  0  0  0
 23 26  1  0  0  0  0
 24 25  2  0  0  0  0
 24 23  1  0  0  0  0
 25 27  1  0  0  0  0
 27 26  2  0  0  0  0
M  END
>  <MODEL>
2

>  <REMARK>
 VINA RESULT:      -8.3      2.299      4.486
  Name = 
  4 active torsions:
  status: ('A' for Active; 'I' for Inactive)
    1  A    between atoms: C_1  and  C_3
    2  A    between atoms: C_1  and  C_6
    3  A    between atoms: C_19  and  N_21
    4  A    between atoms: C_22  and  C_27
                            x       y       z     vdW  Elec       q    Type
                         _______ _______ _______ _____ _____    ______ ____

>  <TORSDO>
F 4

$$$$
=
 OpenBabel11042421323D

 27 32  0  0  1  0  0  0  0  0999 V2000
  162.6840  206.2810  152.0780 O   0  0  0  0  0  0  0  0  0  0  0  0
  160.5400  206.5240  153.0030 N   0  0  0  0  0  2  0  0  0  0  0  0
  161.4700  205.9460  152.0780 C   0  0  0  0  0  0  0  0  0  0  0  0
  160.9160  207.0040  155.4990 C   0  0  0  0  0  2  0  0  0  0  0  0
  160.2200  210.8900  152.4760 C   0  0  0  0  0  2  0  0  0  0  0  0
  161.5540  209.3400  156.0630 N   0  0  0  0  0  0  0  0  0  0  0  0
  161.1560  209.7310  154.8910 C   0  0  0  0  0  0  0  0  0  0  0  0
  160.5290  209.3500  152.4110 C   0  0  0  0  0  2  0  0  0  0  0  0
  161.8060  207.9250  156.3470 C   0  0  0  0  0  2  0  0  0  0  0  0
  160.2410  212.2150  154.8390 N   0  0  0  0  0  2  0  0  0  0  0  0
  161.1690  211.1560  154.4560 C   0  0  2  0  0  3  0  0  0  0  0  0
  160.8490  207.4510  154.0550 C   0  0  0  0  0  0  0  0  0  0  0  0
  159.7820  211.1800  153.9070 C   0  0  2  0  0  3  0  0  0  0  0  0
  160.9040  208.7620  153.7850 C   0  0  0  0  0  0  0  0  0  0  0  0
  160.8870  204.4180  148.8910 C   0  0  2  0  0  3  0  0  0  0  0  0
  160.4290  202.1500  149.4930 O   0  0  0  0  0  1  0  0  0  0  0  0
  160.5230  205.4120  149.8200 O   0  0  0  0  0  0  0  0  0  0  0  0
  160.1980  203.9330  151.6050 O   0  0  0  0  0  0  0  0  0  0  0  0
  161.4710  203.5860  151.0830 C   0  0  1  0  0  3  0  0  0  0  0  0
  161.3620  203.1780  149.6370 C   0  0  2  0  0  3  0  0  0  0  0  0
  160.9810  204.9660  151.0690 C   0  0  2  0  0  0  0  0  0  0  0  0
  161.9830  204.9510  147.9790 C   0  0  0  0  0  2  0  0  0  0  0  0
  160.6190  206.1310  146.2890 O   0  0  0  0  0  0  0  0  0  0  0  0
  161.4580  205.1760  146.6020 C   0  0  0  0  0  0  0  0  0  0  0  0
  161.8160  204.4330  145.5400 N   0  0  0  0  0  0  0  0  0  0  0  0
  160.3880  206.0490  145.0010 C   0  0  0  0  0  3  0  0  0  0  0  0
  161.1320  204.9870  144.5190 C   0  0  0  0  0  3  0  0  0  0  0  0
  2 12  1  0  0  0  0
  3  1  2  0  0  0  0
  3  2  1  0  0  0  0
  4  9  1  0  0  0  0
  6  9  1  0  0  0  0
  7  6  2  0  0  0  0
  8  5  1  0  0  0  0
  8 14  1  0  0  0  0
 11 10  1  1  0  0  0
 11  7  1  0  0  0  0
 12  4  1  0  0  0  0
 13  5  1  6  0  0  0
 13 11  1  0  0  0  0
 13 10  1  0  0  0  0
 14 12  2  0  0  0  0
 14  7  1  0  0  0  0
 15 22  1  6  0  0  0
 15 20  1  0  0  0  0
 15 17  1  0  0  0  0
 17 21  1  0  0  0  0
 19 18  1  1  0  0  0
 20 16  1  1  0  0  0
 20 19  1  0  0  0  0
 21 19  1  0  0  0  0
 21 18  1  0  0  0  0
 21  3  1  1  0  0  0
 23 24  1  0  0  0  0
 24 22  1  0  0  0  0
 25 24  2  0  0  0  0
 26 23  1  0  0  0  0
 27 26  2  0  0  0  0
 27 25  1  0  0  0  0
M  END
>  <MODEL>
3

>  <REMARK>
 VINA RESULT:      -8.1      1.003      2.246
  Name = 
  4 active torsions:
  status: ('A' for Active; 'I' for Inactive)
    1  A    between atoms: C_1  and  C_3
    2  A    between atoms: C_1  and  C_6
    3  A    between atoms: C_19  and  N_21
    4  A    between atoms: C_22  and  C_27
                            x       y       z     vdW  Elec       q    Type
                         _______ _______ _______ _____ _____    ______ ____

>  <TORSDO>
F 4

$$$$
=
 OpenBabel11042421323D

 27 32  0  0  1  0  0  0  0  0999 V2000
  162.6580  208.0730  148.8740 O   0  0  0  0  0  0  0  0  0  0  0  0
  161.0200  206.4900  149.4410 N   0  0  0  0  0  2  0  0  0  0  0  0
  161.7390  207.7100  149.6560 C   0  0  0  0  0  0  0  0  0  0  0  0
  161.0100  206.0820  146.9040 C   0  0  0  0  0  2  0  0  0  0  0  0
  160.8320  202.1070  149.8870 C   0  0  0  0  0  2  0  0  0  0  0  0
  161.5780  203.7710  146.1810 N   0  0  0  0  0  0  0  0  0  0  0  0
  161.3710  203.3440  147.3900 C   0  0  0  0  0  0  0  0  0  0  0  0
  161.1310  203.6490  149.9470 C   0  0  0  0  0  2  0  0  0  0  0  0
  161.7670  205.1970  145.9030 C   0  0  0  0  0  2  0  0  0  0  0  0
  160.5020  200.8450  147.5120 N   0  0  0  0  0  2  0  0  0  0  0  0
  161.4670  201.9080  147.7760 C   0  0  2  0  0  3  0  0  0  0  0  0
  161.1720  205.5950  148.3280 C   0  0  0  0  0  0  0  0  0  0  0  0
  160.1810  201.8480  148.5320 C   0  0  2  0  0  3  0  0  0  0  0  0
  161.2830  204.2790  148.5490 C   0  0  0  0  0  0  0  0  0  0  0  0
  160.8470  208.5410  153.0240 C   0  0  2  0  0  3  0  0  0  0  0  0
  161.6810  210.7720  153.2330 O   0  0  0  0  0  1  0  0  0  0  0  0
  160.4210  208.1360  151.7450 O   0  0  0  0  0  0  0  0  0  0  0  0
  161.4180  209.9210  150.6070 O   0  0  0  0  0  0  0  0  0  0  0  0
  162.4490  209.4080  151.4370 C   0  0  1  0  0  3  0  0  0  0  0  0
  162.0460  209.4700  152.8870 C   0  0  2  0  0  3  0  0  0  0  0  0
  161.4250  208.5400  150.8520 C   0  0  2  0  0  0  0  0  0  0  0  0
  161.2060  207.3160  153.8530 C   0  0  0  0  0  2  0  0  0  0  0  0
  161.6190  208.4240  156.0240 O   0  0  0  0  0  0  0  0  0  0  0  0
  160.9450  207.5660  155.3000 C   0  0  0  0  0  0  0  0  0  0  0  0
  159.9720  206.9530  155.9960 N   0  0  0  0  0  0  0  0  0  0  0  0
  161.1150  208.4020  157.2340 C   0  0  0  0  0  3  0  0  0  0  0  0
  160.0810  207.4840  157.2300 C   0  0  0  0  0  3  0  0  0  0  0  0
  1  3  2  0  0  0  0
  2  3  1  0  0  0  0
  4 12  1  0  0  0  0
  5  8  1  0  0  0  0
  6  7  2  0  0  0  0
  7 14  1  0  0  0  0
  9  6  1  0  0  0  0
  9  4  1  0  0  0  0
 10 11  1  0  0  0  0
 10 13  1  0  0  0  0
 11  7  1  6  0  0  0
 11 13  1  0  0  0  0
 12 14  2  0  0  0  0
 12  2  1  0  0  0  0
 13  5  1  1  0  0  0
 14  8  1  0  0  0  0
 15 22  1  1  0  0  0
 17 15  1  0  0  0  0
 18 21  1  0  0  0  0
 19 18  1  6  0  0  0
 19 20  1  0  0  0  0
 20 15  1  0  0  0  0
 20 16  1  6  0  0  0
 21  3  1  6  0  0  0
 21 19  1  0  0  0  0
 21 17  1  0  0  0  0
 22 24  1  0  0  0  0
 23 26  1  0  0  0  0
 24 25  2  0  0  0  0
 24 23  1  0  0  0  0
 25 27  1  0  0  0  0
 27 26  2  0  0  0  0
M  END
>  <MODEL>
4

>  <REMARK>
 VINA RESULT:      -8.0      2.521      8.351
  Name = 
  4 active torsions:
  status: ('A' for Active; 'I' for Inactive)
    1  A    between atoms: C_1  and  C_3
    2  A    between atoms: C_1  and  C_6
    3  A    between atoms: C_19  and  N_21
    4  A    between atoms: C_22  and  C_27
                            x       y       z     vdW  Elec       q    Type
                         _______ _______ _______ _____ _____    ______ ____

>  <TORSDO>
F 4

$$$$
=
 OpenBabel11042421323D

 27 32  0  0  1  0  0  0  0  0999 V2000
  159.9080  206.2210  148.7600 O   0  0  0  0  0  0  0  0  0  0  0  0
  162.0570  207.0540  149.2020 N   0  0  0  0  0  2  0  0  0  0  0  0
  161.1210  206.2930  148.4300 C   0  0  0  0  0  0  0  0  0  0  0  0
  162.0950  209.3400  150.3760 C   0  0  0  0  0  2  0  0  0  0  0  0
  161.2070  205.3210  153.1670 C   0  0  0  0  0  2  0  0  0  0  0  0
  161.0450  209.4130  152.6290 N   0  0  0  0  0  0  0  0  0  0  0  0
  161.0890  208.1160  152.6890 C   0  0  0  0  0  0  0  0  0  0  0  0
  161.2690  205.7520  151.6560 C   0  0  0  0  0  2  0  0  0  0  0  0
  161.2040  210.1180  151.3540 C   0  0  0  0  0  2  0  0  0  0  0  0
  161.3510  207.1650  155.1470 N   0  0  0  0  0  2  0  0  0  0  0  0
  160.6460  207.3390  153.8810 C   0  0  2  0  0  3  0  0  0  0  0  0
  161.7570  207.8650  150.3490 C   0  0  0  0  0  0  0  0  0  0  0  0
  161.8450  206.4540  153.9640 C   0  0  2  0  0  3  0  0  0  0  0  0
  161.3350  207.2820  151.4780 C   0  0  0  0  0  0  0  0  0  0  0  0
  161.7370  203.5300  146.2350 C   0  0  2  0  0  3  0  0  0  0  0  0
  162.0950  204.6190  144.1370 O   0  0  0  0  0  1  0  0  0  0  0  0
  162.1120  204.2360  147.3940 O   0  0  0  0  0  0  0  0  0  0  0  0
  162.3310  206.3070  146.3250 O   0  0  0  0  0  0  0  0  0  0  0  0
  161.0620  205.8270  145.9120 C   0  0  1  0  0  3  0  0  0  0  0  0
  161.1960  204.5070  145.2000 C   0  0  2  0  0  3  0  0  0  0  0  0
  161.6020  205.5350  147.2410 C   0  0  2  0  0  0  0  0  0  0  0  0
  160.6880  202.4860  146.5920 C   0  0  0  0  0  2  0  0  0  0  0  0
  160.4320  202.8400  149.0250 O   0  0  0  0  0  0  0  0  0  0  0  0
  160.8100  202.0860  148.0230 C   0  0  0  0  0  0  0  0  0  0  0  0
  161.2970  200.8990  148.4240 N   0  0  0  0  0  0  0  0  0  0  0  0
  160.6640  202.1740  150.1300 C   0  0  0  0  0  3  0  0  0  0  0  0
  161.2060  200.9540  149.7670 C   0  0  0  0  0  3  0  0  0  0  0  0
  2 12  1  0  0  0  0
  3  1  2  0  0  0  0
  3  2  1  0  0  0  0
  4  9  1  0  0  0  0
  6  7  2  0  0  0  0
  8  5  1  0  0  0  0
  9  6  1  0  0  0  0
 11  7  1  6  0  0  0
 11 13  1  0  0  0  0
 11 10  1  0  0  0  0
 12  4  1  0  0  0  0
 12 14  2  0  0  0  0
 13  5  1  1  0  0  0
 13 10  1  0  0  0  0
 14  8  1  0  0  0  0
 14  7  1  0  0  0  0
 15 22  1  1  0  0  0
 15 17  1  0  0  0  0
 18 21  1  0  0  0  0
 19 18  1  6  0  0  0
 19 21  1  0  0  0  0
 20 16  1  6  0  0  0
 20 19  1  0  0  0  0
 20 15  1  0  0  0  0
 21 17  1  0  0  0  0
 21  3  1  1  0  0  0
 22 24  1  0  0  0  0
 23 26  1  0  0  0  0
 24 25  2  0  0  0  0
 24 23  1  0  0  0  0
 25 27  1  0  0  0  0
 27 26  2  0  0  0  0
M  END
>  <MODEL>
5

>  <REMARK>
 VINA RESULT:      -7.9      2.102      3.923
  Name = 
  4 active torsions:
  status: ('A' for Active; 'I' for Inactive)
    1  A    between atoms: C_1  and  C_3
    2  A    between atoms: C_1  and  C_6
    3  A    between atoms: C_19  and  N_21
    4  A    between atoms: C_22  and  C_27
                            x       y       z     vdW  Elec       q    Type
                         _______ _______ _______ _____ _____    ______ ____

>  <TORSDO>
F 4

$$$$
=
 OpenBabel11042421323D

 27 32  0  0  1  0  0  0  0  0999 V2000
  162.3900  207.9500  148.3100 O   0  0  0  0  0  0  0  0  0  0  0  0
  161.3770  205.8780  148.7480 N   0  0  0  0  0  2  0  0  0  0  0  0
  161.9080  207.1460  149.1520 C   0  0  0  0  0  0  0  0  0  0  0  0
  160.8310  206.3210  146.2760 C   0  0  0  0  0  2  0  0  0  0  0  0
  161.0210  201.5880  147.7900 C   0  0  0  0  0  2  0  0  0  0  0  0
  161.1030  204.3790  144.7470 N   0  0  0  0  0  0  0  0  0  0  0  0
  161.1180  203.5780  145.7690 C   0  0  0  0  0  0  0  0  0  0  0  0
  161.4180  203.0290  148.2780 C   0  0  0  0  0  2  0  0  0  0  0  0
  161.3170  205.8200  144.9080 C   0  0  0  0  0  2  0  0  0  0  0  0
  160.1440  201.1690  145.2610 N   0  0  0  0  0  2  0  0  0  0  0  0
  161.2040  202.0960  145.6440 C   0  0  2  0  0  3  0  0  0  0  0  0
  161.2480  205.3980  147.4010 C   0  0  0  0  0  0  0  0  0  0  0  0
  160.0960  201.7800  146.5930 C   0  0  2  0  0  3  0  0  0  0  0  0
  161.3220  204.0830  147.1580 C   0  0  0  0  0  0  0  0  0  0  0  0
  161.8620  209.1530  152.1180 C   0  0  2  0  0  3  0  0  0  0  0  0
  161.1840  207.5790  153.7850 O   0  0  0  0  0  1  0  0  0  0  0  0
  162.6030  208.6530  151.0300 O   0  0  0  0  0  0  0  0  0  0  0  0
  162.1190  206.4030  151.4530 O   0  0  0  0  0  0  0  0  0  0  0  0
  160.8560  207.0500  151.4850 C   0  0  1  0  0  3  0  0  0  0  0  0
  160.8300  208.1180  152.5470 C   0  0  2  0  0  3  0  0  0  0  0  0
  161.9320  207.4980  150.5990 C   0  0  2  0  0  0  0  0  0  0  0  0
  161.1830  210.4560  151.7160 C   0  0  0  0  0  2  0  0  0  0  0  0
  160.9000  211.3000  154.0220 O   0  0  0  0  0  0  0  0  0  0  0  0
  160.3900  211.0070  152.8520 C   0  0  0  0  0  0  0  0  0  0  0  0
  159.0760  211.2820  152.7770 N   0  0  0  0  0  0  0  0  0  0  0  0
  159.9320  211.7770  154.7670 C   0  0  0  0  0  3  0  0  0  0  0  0
  158.7820  211.7710  153.9980 C   0  0  0  0  0  3  0  0  0  0  0  0
  1  3  2  0  0  0  0
  2  3  1  0  0  0  0
  4 12  1  0  0  0  0
  5  8  1  0  0  0  0
  6  9  1  0  0  0  0
  6  7  2  0  0  0  0
  7 14  1  0  0  0  0
  9  4  1  0  0  0  0
 10 13  1  0  0  0  0
 11 10  1  6  0  0  0
 11  7  1  0  0  0  0
 11 13  1  0  0  0  0
 12  2  1  0  0  0  0
 13  5  1  1  0  0  0
 14 12  2  0  0  0  0
 14  8  1  0  0  0  0
 15 22  1  6  0  0  0
 15 20  1  0  0  0  0
 17 15  1  0  0  0  0
 19 18  1  1  0  0  0
 19 20  1  0  0  0  0
 20 16  1  1  0  0  0
 21  3  1  6  0  0  0
 21 17  1  0  0  0  0
 21 18  1  0  0  0  0
 21 19  1  0  0  0  0
 22 24  1  0  0  0  0
 23 26  1  0  0  0  0
 24 23  1  0  0  0  0
 25 24  2  0  0  0  0
 25 27  1  0  0  0  0
 27 26  2  0  0  0  0
M  END
>  <MODEL>
6

>  <REMARK>
 VINA RESULT:      -7.9      2.651      8.540
  Name = 
  4 active torsions:
  status: ('A' for Active; 'I' for Inactive)
    1  A    between atoms: C_1  and  C_3
    2  A    between atoms: C_1  and  C_6
    3  A    between atoms: C_19  and  N_21
    4  A    between atoms: C_22  and  C_27
                            x       y       z     vdW  Elec       q    Type
                         _______ _______ _______ _____ _____    ______ ____

>  <TORSDO>
F 4

$$$$
=
 OpenBabel11042421323D

 27 32  0  0  1  0  0  0  0  0999 V2000
  160.4580  208.5440  151.6920 O   0  0  0  0  0  0  0  0  0  0  0  0
  161.2720  206.3600  151.9700 N   0  0  0  0  0  2  0  0  0  0  0  0
  160.8640  207.6390  152.4690 C   0  0  0  0  0  0  0  0  0  0  0  0
  160.8320  206.8660  149.4890 C   0  0  0  0  0  2  0  0  0  0  0  0
  160.9880  202.0950  150.8830 C   0  0  0  0  0  2  0  0  0  0  0  0
  161.1830  204.9680  147.9220 N   0  0  0  0  0  0  0  0  0  0  0  0
  161.1600  204.1400  148.9230 C   0  0  0  0  0  0  0  0  0  0  0  0
  161.3530  203.5250  151.4270 C   0  0  0  0  0  2  0  0  0  0  0  0
  161.3800  206.4050  148.1310 C   0  0  0  0  0  2  0  0  0  0  0  0
  160.2260  201.7400  148.3080 N   0  0  0  0  0  2  0  0  0  0  0  0
  161.2610  202.6620  148.7620 C   0  0  2  0  0  3  0  0  0  0  0  0
  161.2050  205.9150  150.6060 C   0  0  0  0  0  0  0  0  0  0  0  0
  160.1150  202.3140  149.6520 C   0  0  2  0  0  3  0  0  0  0  0  0
  161.2990  204.6080  150.3320 C   0  0  0  0  0  0  0  0  0  0  0  0
  160.3730  209.2820  155.6140 C   0  0  2  0  0  3  0  0  0  0  0  0
  160.8460  207.5360  157.1770 O   0  0  0  0  0  1  0  0  0  0  0  0
  161.0600  209.2430  154.3860 O   0  0  0  0  0  0  0  0  0  0  0  0
  161.8080  207.0390  154.6240 O   0  0  0  0  0  0  0  0  0  0  0  0
  160.4180  206.9740  154.9020 C   0  0  1  0  0  3  0  0  0  0  0  0
  160.0650  207.8610  156.0670 C   0  0  2  0  0  3  0  0  0  0  0  0
  160.9670  207.9200  153.9280 C   0  0  2  0  0  0  0  0  0  0  0  0
  159.0910  210.0870  155.4550 C   0  0  0  0  0  2  0  0  0  0  0  0
  158.6180  210.8390  153.1490 O   0  0  0  0  0  0  0  0  0  0  0  0
  159.2010  211.0300  154.3050 C   0  0  0  0  0  0  0  0  0  0  0  0
  159.8900  212.1840  154.3540 N   0  0  0  0  0  0  0  0  0  0  0  0
  158.9090  211.8650  152.3850 C   0  0  0  0  0  3  0  0  0  0  0  0
  159.7060  212.7160  153.1290 C   0  0  0  0  0  3  0  0  0  0  0  0
  1  3  2  0  0  0  0
  2  3  1  0  0  0  0
  4 12  1  0  0  0  0
  5  8  1  0  0  0  0
  6  9  1  0  0  0  0
  6  7  2  0  0  0  0
  7 14  1  0  0  0  0
  9  4  1  0  0  0  0
 10 13  1  0  0  0  0
 11 10  1  6  0  0  0
 11  7  1  0  0  0  0
 11 13  1  0  0  0  0
 12  2  1  0  0  0  0
 13  5  1  1  0  0  0
 14 12  2  0  0  0  0
 14  8  1  0  0  0  0
 15 22  1  6  0  0  0
 15 20  1  0  0  0  0
 17 15  1  0  0  0  0
 19 18  1  1  0  0  0
 19 20  1  0  0  0  0
 20 16  1  1  0  0  0
 21  3  1  6  0  0  0
 21 17  1  0  0  0  0
 21 18  1  0  0  0  0
 21 19  1  0  0  0  0
 23 24  1  0  0  0  0
 24 25  2  0  0  0  0
 24 22  1  0  0  0  0
 26 27  2  0  0  0  0
 26 23  1  0  0  0  0
 27 25  1  0  0  0  0
M  END
>  <MODEL>
7

>  <REMARK>
 VINA RESULT:      -7.7      2.888      7.804
  Name = 
  4 active torsions:
  status: ('A' for Active; 'I' for Inactive)
    1  A    between atoms: C_1  and  C_3
    2  A    between atoms: C_1  and  C_6
    3  A    between atoms: C_19  and  N_21
    4  A    between atoms: C_22  and  C_27
                            x       y       z     vdW  Elec       q    Type
                         _______ _______ _______ _____ _____    ______ ____

>  <TORSDO>
F 4

$$$$
=
 OpenBabel11042421323D

 27 32  0  0  1  0  0  0  0  0999 V2000
  161.1870  205.5030  153.9270 O   0  0  0  0  0  0  0  0  0  0  0  0
  161.1310  206.6010  151.8540 N   0  0  0  0  0  2  0  0  0  0  0  0
  161.1870  206.5860  153.2850 C   0  0  0  0  0  0  0  0  0  0  0  0
  161.4290  204.0700  151.5270 C   0  0  0  0  0  2  0  0  0  0  0  0
  161.5320  206.9520  147.4770 C   0  0  0  0  0  2  0  0  0  0  0  0
  161.0780  203.2330  149.2120 N   0  0  0  0  0  0  0  0  0  0  0  0
  161.1830  204.4450  148.7590 C   0  0  0  0  0  0  0  0  0  0  0  0
  161.1370  207.0200  148.9970 C   0  0  0  0  0  2  0  0  0  0  0  0
  160.8340  202.9720  150.6330 C   0  0  0  0  0  2  0  0  0  0  0  0
  162.1820  204.5950  146.3120 N   0  0  0  0  0  2  0  0  0  0  0  0
  161.1340  204.7830  147.3090 C   0  0  2  0  0  3  0  0  0  0  0  0
  161.1500  205.4560  150.9880 C   0  0  0  0  0  0  0  0  0  0  0  0
  162.3350  205.6680  147.2980 C   0  0  2  0  0  3  0  0  0  0  0  0
  161.0950  205.6300  149.6610 C   0  0  0  0  0  0  0  0  0  0  0  0
  160.7950  210.0870  153.9370 C   0  0  2  0  0  3  0  0  0  0  0  0
  160.6230  210.1420  156.3210 O   0  0  0  0  0  1  0  0  0  0  0  0
  161.5790  209.0610  153.3760 O   0  0  0  0  0  0  0  0  0  0  0  0
  161.6990  207.7840  155.3340 O   0  0  0  0  0  0  0  0  0  0  0  0
  160.3180  208.0720  155.1820 C   0  0  1  0  0  3  0  0  0  0  0  0
  160.0810  209.5590  155.1740 C   0  0  2  0  0  3  0  0  0  0  0  0
  161.1980  207.8770  154.0280 C   0  0  2  0  0  0  0  0  0  0  0  0
  159.7910  210.5820  152.9050 C   0  0  0  0  0  2  0  0  0  0  0  0
  157.6590  211.4390  153.8140 O   0  0  0  0  0  0  0  0  0  0  0  0
  158.9120  211.6340  153.4900 C   0  0  0  0  0  0  0  0  0  0  0  0
  159.3300  212.8820  153.7680 N   0  0  0  0  0  0  0  0  0  0  0  0
  157.2000  212.5600  154.3150 C   0  0  0  0  0  3  0  0  0  0  0  0
  158.2390  213.4740  154.2920 C   0  0  0  0  0  3  0  0  0  0  0  0
  2  3  1  0  0  0  0
  3  1  2  0  0  0  0
  5  8  1  0  0  0  0
  6  9  1  0  0  0  0
  7  6  2  0  0  0  0
  7 14  1  0  0  0  0
  8 14  1  0  0  0  0
  9  4  1  0  0  0  0
 10 13  1  0  0  0  0
 11 10  1  6  0  0  0
 11  7  1  0  0  0  0
 12  4  1  0  0  0  0
 12  2  1  0  0  0  0
 13 11  1  0  0  0  0
 13  5  1  6  0  0  0
 14 12  2  0  0  0  0
 15 22  1  6  0  0  0
 15 20  1  0  0  0  0
 17 15  1  0  0  0  0
 17 21  1  0  0  0  0
 19 18  1  1  0  0  0
 20 19  1  0  0  0  0
 20 16  1  1  0  0  0
 21  3  1  6  0  0  0
 21 19  1  0  0  0  0
 21 18  1  0  0  0  0
 22 24  1  0  0  0  0
 23 26  1  0  0  0  0
 24 25  2  0  0  0  0
 24 23  1  0  0  0  0
 25 27  1  0  0  0  0
 27 26  2  0  0  0  0
M  END
>  <MODEL>
8

>  <REMARK>
 VINA RESULT:      -7.6      3.093      8.261
  Name = 
  4 active torsions:
  status: ('A' for Active; 'I' for Inactive)
    1  A    between atoms: C_1  and  C_3
    2  A    between atoms: C_1  and  C_6
    3  A    between atoms: C_19  and  N_21
    4  A    between atoms: C_22  and  C_27
                            x       y       z     vdW  Elec       q    Type
                         _______ _______ _______ _____ _____    ______ ____

>  <TORSDO>
F 4

$$$$
=
 OpenBabel11042421323D

 27 32  0  0  1  0  0  0  0  0999 V2000
  162.5290  207.8770  151.2320 O   0  0  0  0  0  0  0  0  0  0  0  0
  160.9150  206.1780  151.3730 N   0  0  0  0  0  2  0  0  0  0  0  0
  161.6580  207.2760  151.9150 C   0  0  0  0  0  0  0  0  0  0  0  0
  160.6410  206.5630  148.8470 C   0  0  0  0  0  2  0  0  0  0  0  0
  161.0120  201.8680  150.4440 C   0  0  0  0  0  2  0  0  0  0  0  0
  161.2460  204.6390  147.3910 N   0  0  0  0  0  0  0  0  0  0  0  0
  161.1990  203.8480  148.4200 C   0  0  0  0  0  0  0  0  0  0  0  0
  161.2340  203.3380  150.9550 C   0  0  0  0  0  2  0  0  0  0  0  0
  161.3260  206.0930  147.5550 C   0  0  0  0  0  2  0  0  0  0  0  0
  160.4830  201.3670  147.8340 N   0  0  0  0  0  2  0  0  0  0  0  0
  161.4140  202.3760  148.3280 C   0  0  2  0  0  3  0  0  0  0  0  0
  160.9880  205.6810  150.0270 C   0  0  0  0  0  0  0  0  0  0  0  0
  160.2270  201.9800  149.1410 C   0  0  2  0  0  3  0  0  0  0  0  0
  161.1930  204.3750  149.8150 C   0  0  0  0  0  0  0  0  0  0  0  0
  160.7010  209.2990  154.7120 C   0  0  2  0  0  3  0  0  0  0  0  0
  160.3820  207.6690  156.4310 O   0  0  0  0  0  1  0  0  0  0  0  0
  161.6640  209.0090  153.7270 O   0  0  0  0  0  0  0  0  0  0  0  0
  161.8600  206.7420  154.2750 O   0  0  0  0  0  0  0  0  0  0  0  0
  160.4630  206.9600  154.1580 C   0  0  1  0  0  3  0  0  0  0  0  0
  160.0030  208.0120  155.1320 C   0  0  2  0  0  3  0  0  0  0  0  0
  161.4290  207.6830  153.3300 C   0  0  2  0  0  0  0  0  0  0  0  0
  159.6960  210.3020  154.1620 C   0  0  0  0  0  2  0  0  0  0  0  0
  159.4580  211.3190  156.4030 O   0  0  0  0  0  0  0  0  0  0  0  0
  158.9240  210.9340  155.2710 C   0  0  0  0  0  0  0  0  0  0  0  0
  157.6070  211.1950  155.2050 N   0  0  0  0  0  0  0  0  0  0  0  0
  158.5040  211.8460  157.1310 C   0  0  0  0  0  3  0  0  0  0  0  0
  157.3370  211.7740  156.3910 C   0  0  0  0  0  3  0  0  0  0  0  0
  1  3  2  0  0  0  0
  2  3  1  0  0  0  0
  4 12  1  0  0  0  0
  5  8  1  0  0  0  0
  6  9  1  0  0  0  0
  6  7  2  0  0  0  0
  7 14  1  0  0  0  0
  9  4  1  0  0  0  0
 10 13  1  0  0  0  0
 11 10  1  6  0  0  0
 11  7  1  0  0  0  0
 11 13  1  0  0  0  0
 12  2  1  0  0  0  0
 13  5  1  1  0  0  0
 14 12  2  0  0  0  0
 14  8  1  0  0  0  0
 15 22  1  6  0  0  0
 15 20  1  0  0  0  0
 17 15  1  0  0  0  0
 19 18  1  1  0  0  0
 19 20  1  0  0  0  0
 20 16  1  1  0  0  0
 21  3  1  6  0  0  0
 21 17  1  0  0  0  0
 21 19  1  0  0  0  0
 21 18  1  0  0  0  0
 22 24  1  0  0  0  0
 23 26  1  0  0  0  0
 24 23  1  0  0  0  0
 25 24  2  0  0  0  0
 25 27  1  0  0  0  0
 27 26  2  0  0  0  0
M  END
>  <MODEL>
9

>  <REMARK>
 VINA RESULT:      -7.5      2.842      8.380
  Name = 
  4 active torsions:
  status: ('A' for Active; 'I' for Inactive)
    1  A    between atoms: C_1  and  C_3
    2  A    between atoms: C_1  and  C_6
    3  A    between atoms: C_19  and  N_21
    4  A    between atoms: C_22  and  C_27
                            x       y       z     vdW  Elec       q    Type
                         _______ _______ _______ _____ _____    ______ ____

>  <TORSDO>
F 4

$$$$
