=
 OpenBabel11042421563D

 39 42  0  0  1  0  0  0  0  0999 V2000
  155.5800  210.2390  155.4380 N   0  0  0  0  0  2  0  0  0  0  0  0
  155.8720  211.4940  155.4930 C   0  0  0  0  0  0  0  0  0  0  0  0
  158.7570  211.7740  156.1940 O   0  0  0  0  0  0  0  0  0  0  0  0
  158.2880  212.6760  153.5080 C   0  0  0  0  0  0  0  0  0  0  0  0
  159.5170  212.3310  153.2120 C   0  0  0  0  0  0  0  0  0  0  0  0
  155.4860  212.9580  155.7580 N   0  0  0  0  0  2  0  0  0  0  0  0
  160.4010  211.7520  154.2950 C   0  0  1  0  0  3  0  0  0  0  0  0
  156.7550  212.5510  155.3610 C   0  0  1  0  0  0  0  0  0  0  0  0
  157.7430  212.6820  156.4360 N   0  0  0  0  0  2  0  0  0  0  0  0
  160.6750  213.0460  156.2950 O   0  0  0  0  0  0  0  0  0  0  0  0
  159.9830  212.1980  155.6730 C   0  0  0  0  0  0  0  0  0  0  0  0
  157.1130  212.9920  153.9760 C   0  0  0  0  0  3  0  0  0  0  0  0
  160.2730  209.5610  155.2460 O   0  0  0  0  0  0  0  0  0  0  0  0
  160.8090  209.6460  152.9670 N   0  0  0  0  0  2  0  0  0  0  0  0
  160.8890  208.2350  152.7390 C   0  0  0  0  0  0  0  0  0  0  0  0
  160.4950  207.4200  153.6170 O   0  0  0  0  0  0  0  0  0  0  0  0
  160.4640  210.2590  154.2140 C   0  0  0  0  0  0  0  0  0  0  0  0
  161.4310  207.7510  151.4280 C   0  0  0  0  0  2  0  0  0  0  0  0
  162.1000  206.3860  151.5390 C   0  0  0  0  0  2  0  0  0  0  0  0
  160.7860  203.9800  149.4470 C   0  0  1  0  0  3  0  0  0  0  0  0
  161.1260  205.2800  151.1700 C   0  0  1  0  0  3  0  0  0  0  0  0
  161.2760  203.1530  150.4730 O   0  0  0  0  0  0  0  0  0  0  0  0
  160.8650  205.3300  149.8110 O   0  0  0  0  0  0  0  0  0  0  0  0
  161.6990  203.9850  151.4560 N   0  0  0  0  0  2  0  0  0  0  0  0
  161.5380  203.7070  148.1450 C   0  0  1  0  0  3  0  0  0  0  0  0
  161.1560  202.3460  147.5920 C   0  0  0  0  0  1  0  0  0  0  0  0
  161.2780  204.7960  147.1110 C   0  0  0  0  0  2  0  0  0  0  0  0
  162.0130  204.4980  145.8140 C   0  0  0  0  0  2  0  0  0  0  0  0
  161.2160  204.8590  144.7270 O   0  0  0  0  0  0  0  0  0  0  0  0
  160.5180  205.9870  145.1570 C   0  0  0  0  0  1  0  0  0  0  0  0
  160.0290  212.4650  151.8820 N   0  0  0  0  0  2  0  0  0  0  0  0
  159.7550  213.6130  151.0220 C   0  0  0  0  0  2  0  0  0  0  0  0
  160.5550  214.0400  147.3790 N   0  0  0  0  0  0  0  0  0  0  0  0
  161.3380  212.4260  149.4760 C   0  0  0  0  0  3  0  0  0  0  0  0
  161.9160  212.2660  148.2160 C   0  0  0  0  0  0  0  0  0  0  0  0
  161.5080  213.0920  147.1670 C   0  0  0  0  0  3  0  0  0  0  0  0
  160.3570  213.3990  149.6730 C   0  0  0  0  0  0  0  0  0  0  0  0
  159.9800  214.2120  148.6010 C   0  0  0  0  0  3  0  0  0  0  0  0
  162.8790  211.3330  148.0180 F   0  0  0  0  0  0  0  0  0  0  0  0
  1  2  2  0  0  0  0
  2  6  1  0  0  0  0
  3  9  1  0  0  0  0
  4 12  2  0  0  0  0
  5  4  2  0  0  0  0
  5  7  1  0  0  0  0
  7 17  1  1  0  0  0
  7 11  1  0  0  0  0
  8 12  1  6  0  0  0
  8  2  1  0  0  0  0
  8  6  1  0  0  0  0
  8  9  1  0  0  0  0
 11  3  1  0  0  0  0
 11 10  2  0  0  0  0
 14 17  1  0  0  0  0
 15 14  1  0  0  0  0
 15 16  2  0  0  0  0
 17 13  2  0  0  0  0
 18 19  1  0  0  0  0
 18 15  1  0  0  0  0
 20 25  1  6  0  0  0
 20 23  1  0  0  0  0
 20 22  1  0  0  0  0
 21 24  1  0  0  0  0
 21 19  1  6  0  0  0
 22 24  1  0  0  0  0
 23 21  1  0  0  0  0
 25 26  1  6  0  0  0
 27 25  1  0  0  0  0
 28 27  1  0  0  0  0
 29 30  1  0  0  0  0
 29 28  1  0  0  0  0
 31  5  1  0  0  0  0
 32 31  1  0  0  0  0
 33 38  1  0  0  0  0
 34 37  1  0  0  0  0
 35 34  2  0  0  0  0
 36 33  2  0  0  0  0
 36 35  1  0  0  0  0
 37 32  1  0  0  0  0
 38 37  2  0  0  0  0
 39 35  1  0  0  0  0
M  END
>  <MODEL>
1

>  <REMARK>
 VINA RESULT:      -7.7      0.000      0.000
  Name = 
  11 active torsions:
  status: ('A' for Active; 'I' for Inactive)
    1  A    between atoms: C_3  and  C_25
    2  A    between atoms: C_4  and  C_23
    3  A    between atoms: C_8  and  C_27
    4  A    between atoms: C_8  and  N_34
    5  A    between atoms: C_13  and  C_25
    6  A    between atoms: C_13  and  C_31
    7  A    between atoms: O_14  and  C_31
    8  A    between atoms: C_15  and  N_34
    9  A    between atoms: C_20  and  C_32
   10  A    between atoms: C_21  and  C_38
   11  A    between atoms: C_23  and  C_38
                            x       y       z     vdW  Elec       q    Type
                         _______ _______ _______ _____ _____    ______ ____

>  <TORSDO>
F 11

$$$$
=
 OpenBabel11042421563D

 39 42  0  0  1  0  0  0  0  0999 V2000
  155.5770  210.1060  155.3650 N   0  0  0  0  0  2  0  0  0  0  0  0
  155.7730  211.3810  155.4010 C   0  0  0  0  0  0  0  0  0  0  0  0
  158.5650  211.8920  156.3170 O   0  0  0  0  0  0  0  0  0  0  0  0
  158.2510  212.6840  153.5750 C   0  0  0  0  0  0  0  0  0  0  0  0
  159.5220  212.4220  153.3880 C   0  0  0  0  0  0  0  0  0  0  0  0
  155.2630  212.8180  155.5860 N   0  0  0  0  0  2  0  0  0  0  0  0
  160.3540  211.9410  154.5550 C   0  0  1  0  0  3  0  0  0  0  0  0
  156.5860  212.4960  155.3050 C   0  0  1  0  0  0  0  0  0  0  0  0
  157.4710  212.7290  156.4490 N   0  0  0  0  0  2  0  0  0  0  0  0
  160.3730  213.3050  156.5270 O   0  0  0  0  0  0  0  0  0  0  0  0
  159.7950  212.3920  155.8810 C   0  0  0  0  0  0  0  0  0  0  0  0
  157.0230  212.9240  153.9380 C   0  0  0  0  0  3  0  0  0  0  0  0
  160.6620  209.8140  155.6070 O   0  0  0  0  0  0  0  0  0  0  0  0
  160.6140  209.7870  153.2650 N   0  0  0  0  0  2  0  0  0  0  0  0
  160.7640  208.3750  153.0890 C   0  0  0  0  0  0  0  0  0  0  0  0
  160.6710  207.5920  154.0740 O   0  0  0  0  0  0  0  0  0  0  0  0
  160.5310  210.4540  154.5290 C   0  0  0  0  0  0  0  0  0  0  0  0
  161.0100  207.8470  151.7080 C   0  0  0  0  0  2  0  0  0  0  0  0
  161.7250  208.8540  150.8150 C   0  0  0  0  0  2  0  0  0  0  0  0
  161.9920  206.2620  148.5550 C   0  0  1  0  0  3  0  0  0  0  0  0
  162.2840  208.1720  149.5780 C   0  0  1  0  0  3  0  0  0  0  0  0
  161.4410  207.2470  147.7170 O   0  0  0  0  0  0  0  0  0  0  0  0
  162.3500  206.8050  149.7960 O   0  0  0  0  0  0  0  0  0  0  0  0
  161.4160  208.3910  148.4440 N   0  0  0  0  0  2  0  0  0  0  0  0
  161.0140  205.0990  148.7160 C   0  0  1  0  0  3  0  0  0  0  0  0
  161.3400  203.9970  147.7240 C   0  0  0  0  0  1  0  0  0  0  0  0
  161.0210  204.5550  150.1400 C   0  0  0  0  0  2  0  0  0  0  0  0
  160.9040  203.0410  150.1410 C   0  0  0  0  0  2  0  0  0  0  0  0
  160.9290  202.5670  151.4540 O   0  0  0  0  0  0  0  0  0  0  0  0
  160.9550  203.7150  152.2450 C   0  0  0  0  0  1  0  0  0  0  0  0
  160.1280  212.5570  152.0980 N   0  0  0  0  0  2  0  0  0  0  0  0
  159.7890  213.6160  151.1520 C   0  0  0  0  0  2  0  0  0  0  0  0
  159.8480  213.3420  147.4080 N   0  0  0  0  0  0  0  0  0  0  0  0
  161.3220  212.4300  149.5560 C   0  0  0  0  0  3  0  0  0  0  0  0
  161.7020  212.0990  148.2550 C   0  0  0  0  0  0  0  0  0  0  0  0
  160.9450  212.5700  147.1800 C   0  0  0  0  0  3  0  0  0  0  0  0
  160.1900  213.2170  149.7700 C   0  0  0  0  0  0  0  0  0  0  0  0
  159.4620  213.6770  148.6700 C   0  0  0  0  0  3  0  0  0  0  0  0
  162.8070  211.3460  148.0350 F   0  0  0  0  0  0  0  0  0  0  0  0
  1  2  2  0  0  0  0
  2  6  1  0  0  0  0
  3  9  1  0  0  0  0
  4 12  2  0  0  0  0
  5  4  2  0  0  0  0
  5  7  1  0  0  0  0
  7 17  1  1  0  0  0
  7 11  1  0  0  0  0
  8 12  1  6  0  0  0
  8  2  1  0  0  0  0
  8  6  1  0  0  0  0
  8  9  1  0  0  0  0
 11  3  1  0  0  0  0
 11 10  2  0  0  0  0
 14 17  1  0  0  0  0
 15 14  1  0  0  0  0
 15 16  2  0  0  0  0
 17 13  2  0  0  0  0
 18 15  1  0  0  0  0
 19 18  1  0  0  0  0
 20 25  1  1  0  0  0
 20 23  1  0  0  0  0
 21 23  1  0  0  0  0
 21 19  1  1  0  0  0
 22 24  1  0  0  0  0
 22 20  1  0  0  0  0
 24 21  1  0  0  0  0
 25 26  1  6  0  0  0
 25 27  1  0  0  0  0
 27 28  1  0  0  0  0
 28 29  1  0  0  0  0
 29 30  1  0  0  0  0
 31  5  1  0  0  0  0
 32 31  1  0  0  0  0
 33 38  1  0  0  0  0
 34 37  1  0  0  0  0
 35 34  2  0  0  0  0
 36 33  2  0  0  0  0
 36 35  1  0  0  0  0
 37 32  1  0  0  0  0
 38 37  2  0  0  0  0
 39 35  1  0  0  0  0
M  END
>  <MODEL>
2

>  <REMARK>
 VINA RESULT:      -7.7      1.424      2.435
  Name = 
  11 active torsions:
  status: ('A' for Active; 'I' for Inactive)
    1  A    between atoms: C_3  and  C_25
    2  A    between atoms: C_4  and  C_23
    3  A    between atoms: C_8  and  C_27
    4  A    between atoms: C_8  and  N_34
    5  A    between atoms: C_13  and  C_25
    6  A    between atoms: C_13  and  C_31
    7  A    between atoms: O_14  and  C_31
    8  A    between atoms: C_15  and  N_34
    9  A    between atoms: C_20  and  C_32
   10  A    between atoms: C_21  and  C_38
   11  A    between atoms: C_23  and  C_38
                            x       y       z     vdW  Elec       q    Type
                         _______ _______ _______ _____ _____    ______ ____

>  <TORSDO>
F 11

$$$$
=
 OpenBabel11042421563D

 39 42  0  0  1  0  0  0  0  0999 V2000
  161.0800  206.3280  154.1800 N   0  0  0  0  0  2  0  0  0  0  0  0
  160.8870  206.8410  155.3480 C   0  0  0  0  0  0  0  0  0  0  0  0
  162.0020  209.6070  155.3730 O   0  0  0  0  0  0  0  0  0  0  0  0
  159.1400  209.6800  155.5940 C   0  0  0  0  0  0  0  0  0  0  0  0
  159.1570  210.8500  155.0060 C   0  0  0  0  0  0  0  0  0  0  0  0
  160.7250  206.7040  156.8700 N   0  0  0  0  0  2  0  0  0  0  0  0
  160.4850  211.4560  154.6090 C   0  0  1  0  0  3  0  0  0  0  0  0
  160.6680  207.9160  156.1900 C   0  0  1  0  0  0  0  0  0  0  0  0
  161.8390  208.7570  156.4520 N   0  0  0  0  0  2  0  0  0  0  0  0
  162.1370  211.6990  156.3290 O   0  0  0  0  0  0  0  0  0  0  0  0
  161.6220  210.9490  155.4590 C   0  0  0  0  0  0  0  0  0  0  0  0
  159.3040  208.5330  156.1920 C   0  0  0  0  0  3  0  0  0  0  0  0
  160.4120  212.1110  152.3090 O   0  0  0  0  0  0  0  0  0  0  0  0
  161.4000  210.0310  152.7390 N   0  0  0  0  0  2  0  0  0  0  0  0
  161.7490  209.7050  151.3890 C   0  0  0  0  0  0  0  0  0  0  0  0
  161.6610  210.5720  150.4770 O   0  0  0  0  0  0  0  0  0  0  0  0
  160.7730  211.2480  153.1540 C   0  0  0  0  0  0  0  0  0  0  0  0
  162.2420  208.3220  151.0910 C   0  0  0  0  0  2  0  0  0  0  0  0
  162.1450  207.9720  149.6110 C   0  0  0  0  0  2  0  0  0  0  0  0
  160.7920  205.0040  148.4880 C   0  0  1  0  0  3  0  0  0  0  0  0
  161.0070  206.9950  149.3650 C   0  0  1  0  0  3  0  0  0  0  0  0
  160.5720  204.8530  149.8680 O   0  0  0  0  0  0  0  0  0  0  0  0
  161.2450  206.2960  148.1930 O   0  0  0  0  0  0  0  0  0  0  0  0
  160.9280  206.0310  150.4380 N   0  0  0  0  0  2  0  0  0  0  0  0
  161.7700  203.9410  147.9900 C   0  0  1  0  0  3  0  0  0  0  0  0
  161.1450  202.5620  148.0930 C   0  0  0  0  0  1  0  0  0  0  0  0
  162.2160  204.2190  146.5590 C   0  0  0  0  0  2  0  0  0  0  0  0
  161.2700  203.5720  145.5610 C   0  0  0  0  0  2  0  0  0  0  0  0
  160.9420  204.4870  144.5600 O   0  0  0  0  0  0  0  0  0  0  0  0
  161.7430  205.5980  144.8190 C   0  0  0  0  0  1  0  0  0  0  0  0
  157.9450  211.5520  154.7070 N   0  0  0  0  0  2  0  0  0  0  0  0
  157.8150  213.0050  154.7700 C   0  0  0  0  0  2  0  0  0  0  0  0
  154.6940  214.2180  153.0720 N   0  0  0  0  0  0  0  0  0  0  0  0
  157.3280  213.7220  152.4140 C   0  0  0  0  0  3  0  0  0  0  0  0
  156.4450  214.2050  151.4480 C   0  0  0  0  0  0  0  0  0  0  0  0
  155.1160  214.4510  151.7990 C   0  0  0  0  0  3  0  0  0  0  0  0
  156.8770  213.4830  153.7120 C   0  0  0  0  0  0  0  0  0  0  0  0
  155.5420  213.7480  154.0280 C   0  0  0  0  0  3  0  0  0  0  0  0
  156.8770  214.4530  150.1870 F   0  0  0  0  0  0  0  0  0  0  0  0
  1  2  2  0  0  0  0
  2  8  1  0  0  0  0
  2  6  1  0  0  0  0
  3 11  1  0  0  0  0
  3  9  1  0  0  0  0
  4 12  2  0  0  0  0
  5  4  2  0  0  0  0
  7 17  1  6  0  0  0
  7  5  1  0  0  0  0
  7 11  1  0  0  0  0
  8 12  1  6  0  0  0
  8  9  1  0  0  0  0
  8  6  1  0  0  0  0
 11 10  2  0  0  0  0
 13 17  2  0  0  0  0
 14 17  1  0  0  0  0
 15 14  1  0  0  0  0
 16 15  2  0  0  0  0
 18 15  1  0  0  0  0
 19 18  1  0  0  0  0
 20 25  1  1  0  0  0
 20 22  1  0  0  0  0
 21 19  1  1  0  0  0
 21 24  1  0  0  0  0
 22 24  1  0  0  0  0
 23 20  1  0  0  0  0
 23 21  1  0  0  0  0
 25 26  1  6  0  0  0
 27 25  1  0  0  0  0
 28 27  1  0  0  0  0
 29 30  1  0  0  0  0
 29 28  1  0  0  0  0
 31 32  1  0  0  0  0
 31  5  1  0  0  0  0
 33 38  1  0  0  0  0
 34 37  1  0  0  0  0
 35 36  1  0  0  0  0
 35 34  2  0  0  0  0
 36 33  2  0  0  0  0
 37 38  2  0  0  0  0
 37 32  1  0  0  0  0
 39 35  1  0  0  0  0
M  END
>  <MODEL>
3

>  <REMARK>
 VINA RESULT:      -7.3      2.804      4.368
  Name = 
  11 active torsions:
  status: ('A' for Active; 'I' for Inactive)
    1  A    between atoms: C_3  and  C_25
    2  A    between atoms: C_4  and  C_23
    3  A    between atoms: C_8  and  C_27
    4  A    between atoms: C_8  and  N_34
    5  A    between atoms: C_13  and  C_25
    6  A    between atoms: C_13  and  C_31
    7  A    between atoms: O_14  and  C_31
    8  A    between atoms: C_15  and  N_34
    9  A    between atoms: C_20  and  C_32
   10  A    between atoms: C_21  and  C_38
   11  A    between atoms: C_23  and  C_38
                            x       y       z     vdW  Elec       q    Type
                         _______ _______ _______ _____ _____    ______ ____

>  <TORSDO>
F 11

$$$$
=
 OpenBabel11042421563D

 39 42  0  0  1  0  0  0  0  0999 V2000
  159.2810  207.4840  155.9150 N   0  0  0  0  0  2  0  0  0  0  0  0
  159.7550  208.6420  156.2320 C   0  0  0  0  0  0  0  0  0  0  0  0
  162.0590  209.2520  154.4380 O   0  0  0  0  0  0  0  0  0  0  0  0
  159.8700  211.0300  153.8960 C   0  0  0  0  0  0  0  0  0  0  0  0
  160.2910  211.1170  152.6580 C   0  0  0  0  0  0  0  0  0  0  0  0
  160.0380  209.7480  157.2600 N   0  0  0  0  0  2  0  0  0  0  0  0
  161.5380  210.3650  152.2480 C   0  0  1  0  0  3  0  0  0  0  0  0
  160.3910  209.8300  155.9180 C   0  0  1  0  0  0  0  0  0  0  0  0
  161.8390  209.7330  155.7160 N   0  0  0  0  0  2  0  0  0  0  0  0
  163.5300  210.7690  153.5200 O   0  0  0  0  0  0  0  0  0  0  0  0
  162.4610  210.1120  153.4130 C   0  0  0  0  0  0  0  0  0  0  0  0
  159.6100  210.8590  155.1610 C   0  0  0  0  0  3  0  0  0  0  0  0
  160.4170  208.2580  152.0790 O   0  0  0  0  0  0  0  0  0  0  0  0
  161.8390  208.7930  150.2970 N   0  0  0  0  0  2  0  0  0  0  0  0
  161.6030  207.6220  149.5080 C   0  0  0  0  0  0  0  0  0  0  0  0
  160.6700  206.8270  149.8050 O   0  0  0  0  0  0  0  0  0  0  0  0
  161.2030  209.0860  151.5450 C   0  0  0  0  0  0  0  0  0  0  0  0
  162.4730  207.3760  148.3130 C   0  0  0  0  0  2  0  0  0  0  0  0
  161.6740  206.9620  147.0830 C   0  0  0  0  0  2  0  0  0  0  0  0
  161.8200  203.5160  147.1270 C   0  0  1  0  0  3  0  0  0  0  0  0
  162.1370  205.6070  146.5750 C   0  0  1  0  0  3  0  0  0  0  0  0
  161.1560  203.7050  145.9020 O   0  0  0  0  0  0  0  0  0  0  0  0
  162.2740  204.7360  147.6430 O   0  0  0  0  0  0  0  0  0  0  0  0
  161.1570  205.0420  145.6760 N   0  0  0  0  0  2  0  0  0  0  0  0
  160.9060  202.7960  148.1170 C   0  0  1  0  0  3  0  0  0  0  0  0
  161.3670  201.3630  148.3120 C   0  0  0  0  0  1  0  0  0  0  0  0
  160.8480  203.5240  149.4550 C   0  0  0  0  0  2  0  0  0  0  0  0
  160.6430  202.5430  150.5970 C   0  0  0  0  0  2  0  0  0  0  0  0
  161.5300  202.8360  151.6340 O   0  0  0  0  0  0  0  0  0  0  0  0
  160.9750  203.9430  152.2730 C   0  0  0  0  0  1  0  0  0  0  0  0
  159.5800  211.8870  151.6820 N   0  0  0  0  0  2  0  0  0  0  0  0
  160.0180  213.1970  151.2090 C   0  0  0  0  0  2  0  0  0  0  0  0
  159.4020  213.5580  147.5230 N   0  0  0  0  0  0  0  0  0  0  0  0
  161.4650  212.8070  149.1950 C   0  0  0  0  0  3  0  0  0  0  0  0
  161.6540  212.8210  147.8130 C   0  0  0  0  0  0  0  0  0  0  0  0
  160.5990  213.2040  146.9820 C   0  0  0  0  0  3  0  0  0  0  0  0
  160.2280  213.1660  149.7320 C   0  0  0  0  0  0  0  0  0  0  0  0
  159.1990  213.5520  148.8700 C   0  0  0  0  0  3  0  0  0  0  0  0
  162.8550  212.4850  147.2820 F   0  0  0  0  0  0  0  0  0  0  0  0
  1  2  2  0  0  0  0
  2  6  1  0  0  0  0
  3  9  1  0  0  0  0
  4 12  2  0  0  0  0
  5  4  2  0  0  0  0
  7 17  1  1  0  0  0
  7  5  1  0  0  0  0
  7 11  1  0  0  0  0
  8 12  1  6  0  0  0
  8  2  1  0  0  0  0
  8  6  1  0  0  0  0
  9  8  1  0  0  0  0
 11 10  2  0  0  0  0
 11  3  1  0  0  0  0
 14 17  1  0  0  0  0
 15 16  2  0  0  0  0
 15 14  1  0  0  0  0
 17 13  2  0  0  0  0
 18 15  1  0  0  0  0
 19 18  1  0  0  0  0
 20 23  1  0  0  0  0
 20 25  1  1  0  0  0
 21 19  1  1  0  0  0
 21 23  1  0  0  0  0
 22 20  1  0  0  0  0
 24 22  1  0  0  0  0
 24 21  1  0  0  0  0
 25 26  1  1  0  0  0
 25 27  1  0  0  0  0
 27 28  1  0  0  0  0
 28 29  1  0  0  0  0
 29 30  1  0  0  0  0
 31  5  1  0  0  0  0
 32 31  1  0  0  0  0
 33 38  1  0  0  0  0
 34 37  1  0  0  0  0
 35 34  2  0  0  0  0
 36 33  2  0  0  0  0
 36 35  1  0  0  0  0
 37 32  1  0  0  0  0
 38 37  2  0  0  0  0
 39 35  1  0  0  0  0
M  END
>  <MODEL>
4

>  <REMARK>
 VINA RESULT:      -7.1      2.452      3.727
  Name = 
  11 active torsions:
  status: ('A' for Active; 'I' for Inactive)
    1  A    between atoms: C_3  and  C_25
    2  A    between atoms: C_4  and  C_23
    3  A    between atoms: C_8  and  C_27
    4  A    between atoms: C_8  and  N_34
    5  A    between atoms: C_13  and  C_25
    6  A    between atoms: C_13  and  C_31
    7  A    between atoms: O_14  and  C_31
    8  A    between atoms: C_15  and  N_34
    9  A    between atoms: C_20  and  C_32
   10  A    between atoms: C_21  and  C_38
   11  A    between atoms: C_23  and  C_38
                            x       y       z     vdW  Elec       q    Type
                         _______ _______ _______ _____ _____    ______ ____

>  <TORSDO>
F 11

$$$$
=
 OpenBabel11042421563D

 39 42  0  0  1  0  0  0  0  0999 V2000
  160.5540  205.8380  154.8850 N   0  0  0  0  0  2  0  0  0  0  0  0
  160.4100  206.7210  155.8140 C   0  0  0  0  0  0  0  0  0  0  0  0
  162.2870  208.9780  155.2860 O   0  0  0  0  0  0  0  0  0  0  0  0
  159.5670  209.8400  154.9580 C   0  0  0  0  0  0  0  0  0  0  0  0
  159.9870  210.7240  154.0850 C   0  0  0  0  0  0  0  0  0  0  0  0
  160.0690  207.1130  157.2600 N   0  0  0  0  0  2  0  0  0  0  0  0
  161.4670  210.8180  153.7860 C   0  0  1  0  0  3  0  0  0  0  0  0
  160.4390  208.0240  156.2770 C   0  0  1  0  0  0  0  0  0  0  0  0
  161.7760  208.5790  156.5080 N   0  0  0  0  0  2  0  0  0  0  0  0
  162.9430  211.1580  155.6440 O   0  0  0  0  0  0  0  0  0  0  0  0
  162.3150  210.3300  154.9330 C   0  0  0  0  0  0  0  0  0  0  0  0
  159.3260  208.9360  155.8640 C   0  0  0  0  0  3  0  0  0  0  0  0
  162.5120  210.6750  151.6390 O   0  0  0  0  0  0  0  0  0  0  0  0
  161.3010  208.7830  152.3020 N   0  0  0  0  0  2  0  0  0  0  0  0
  161.5680  207.9750  151.1520 C   0  0  0  0  0  0  0  0  0  0  0  0
  162.4330  208.3300  150.3050 O   0  0  0  0  0  0  0  0  0  0  0  0
  161.8190  210.1000  152.5200 C   0  0  0  0  0  0  0  0  0  0  0  0
  160.8150  206.6890  150.9890 C   0  0  0  0  0  2  0  0  0  0  0  0
  161.5360  205.5040  151.6200 C   0  0  0  0  0  2  0  0  0  0  0  0
  160.6120  202.7970  149.6930 C   0  0  1  0  0  3  0  0  0  0  0  0
  160.7830  204.2130  151.3490 C   0  0  1  0  0  3  0  0  0  0  0  0
  161.3140  202.1290  150.7110 O   0  0  0  0  0  0  0  0  0  0  0  0
  160.4410  204.1500  150.0080 O   0  0  0  0  0  0  0  0  0  0  0  0
  161.6180  203.0700  151.6390 N   0  0  0  0  0  2  0  0  0  0  0  0
  161.3300  202.6210  148.3560 C   0  0  1  0  0  3  0  0  0  0  0  0
  160.5310  201.7040  147.4470 C   0  0  0  0  0  1  0  0  0  0  0  0
  161.5790  203.9620  147.6750 C   0  0  0  0  0  2  0  0  0  0  0  0
  161.6520  203.7980  146.1660 C   0  0  0  0  0  2  0  0  0  0  0  0
  161.3830  205.0190  145.5460 O   0  0  0  0  0  0  0  0  0  0  0  0
  160.9530  205.8540  146.5760 C   0  0  0  0  0  1  0  0  0  0  0  0
  159.0720  211.5800  153.3930 N   0  0  0  0  0  2  0  0  0  0  0  0
  159.3470  212.9820  153.0900 C   0  0  0  0  0  2  0  0  0  0  0  0
  159.8160  213.6730  149.4290 N   0  0  0  0  0  0  0  0  0  0  0  0
  157.7290  213.2970  151.1960 C   0  0  0  0  0  3  0  0  0  0  0  0
  157.4700  213.5270  149.8440 C   0  0  0  0  0  0  0  0  0  0  0  0
  158.5380  213.7140  148.9650 C   0  0  0  0  0  3  0  0  0  0  0  0
  159.0470  213.2660  151.6550 C   0  0  0  0  0  0  0  0  0  0  0  0
  160.0900  213.4500  150.7450 C   0  0  0  0  0  3  0  0  0  0  0  0
  156.1940  213.5470  149.3860 F   0  0  0  0  0  0  0  0  0  0  0  0
  1  2  2  0  0  0  0
  2  8  1  0  0  0  0
  2  6  1  0  0  0  0
  3  9  1  0  0  0  0
  4 12  2  0  0  0  0
  5  4  2  0  0  0  0
  7 17  1  6  0  0  0
  7  5  1  0  0  0  0
  7 11  1  0  0  0  0
  8 12  1  6  0  0  0
  8  9  1  0  0  0  0
  8  6  1  0  0  0  0
 11  3  1  0  0  0  0
 11 10  2  0  0  0  0
 13 17  2  0  0  0  0
 14 17  1  0  0  0  0
 15 14  1  0  0  0  0
 16 15  2  0  0  0  0
 18 15  1  0  0  0  0
 18 19  1  0  0  0  0
 20 25  1  6  0  0  0
 20 23  1  0  0  0  0
 20 22  1  0  0  0  0
 21 19  1  6  0  0  0
 21 24  1  0  0  0  0
 22 24  1  0  0  0  0
 23 21  1  0  0  0  0
 25 26  1  6  0  0  0
 27 25  1  0  0  0  0
 28 27  1  0  0  0  0
 29 28  1  0  0  0  0
 29 30  1  0  0  0  0
 31  5  1  0  0  0  0
 32 31  1  0  0  0  0
 33 38  1  0  0  0  0
 34 37  1  0  0  0  0
 35 34  2  0  0  0  0
 36 33  2  0  0  0  0
 36 35  1  0  0  0  0
 37 32  1  0  0  0  0
 38 37  2  0  0  0  0
 39 35  1  0  0  0  0
M  END
>  <MODEL>
5

>  <REMARK>
 VINA RESULT:      -6.7      2.495      3.526
  Name = 
  11 active torsions:
  status: ('A' for Active; 'I' for Inactive)
    1  A    between atoms: C_3  and  C_25
    2  A    between atoms: C_4  and  C_23
    3  A    between atoms: C_8  and  C_27
    4  A    between atoms: C_8  and  N_34
    5  A    between atoms: C_13  and  C_25
    6  A    between atoms: C_13  and  C_31
    7  A    between atoms: O_14  and  C_31
    8  A    between atoms: C_15  and  N_34
    9  A    between atoms: C_20  and  C_32
   10  A    between atoms: C_21  and  C_38
   11  A    between atoms: C_23  and  C_38
                            x       y       z     vdW  Elec       q    Type
                         _______ _______ _______ _____ _____    ______ ____

>  <TORSDO>
F 11

$$$$
=
 OpenBabel11042421563D

 39 42  0  0  1  0  0  0  0  0999 V2000
  160.1540  206.0560  155.0180 N   0  0  0  0  0  2  0  0  0  0  0  0
  160.0770  207.0260  155.8650 C   0  0  0  0  0  0  0  0  0  0  0  0
  162.2370  208.9920  155.2640 O   0  0  0  0  0  0  0  0  0  0  0  0
  159.6610  210.1380  154.7190 C   0  0  0  0  0  0  0  0  0  0  0  0
  160.2250  210.8880  153.8040 C   0  0  0  0  0  0  0  0  0  0  0  0
  159.7220  207.5770  157.2550 N   0  0  0  0  0  2  0  0  0  0  0  0
  161.7170  210.7810  153.5800 C   0  0  1  0  0  3  0  0  0  0  0  0
  160.2440  208.3510  156.2250 C   0  0  1  0  0  0  0  0  0  0  0  0
  161.6270  208.7620  156.4840 N   0  0  0  0  0  2  0  0  0  0  0  0
  163.1380  211.1010  155.4840 O   0  0  0  0  0  0  0  0  0  0  0  0
  162.4460  210.2960  154.8070 C   0  0  0  0  0  0  0  0  0  0  0  0
  159.2700  209.3490  155.6800 C   0  0  0  0  0  3  0  0  0  0  0  0
  162.8220  210.3400  151.5050 O   0  0  0  0  0  0  0  0  0  0  0  0
  161.3840  208.6540  152.2640 N   0  0  0  0  0  2  0  0  0  0  0  0
  161.6030  207.7230  151.1990 C   0  0  0  0  0  0  0  0  0  0  0  0
  162.5340  207.9080  150.3670 O   0  0  0  0  0  0  0  0  0  0  0  0
  162.0350  209.9210  152.3960 C   0  0  0  0  0  0  0  0  0  0  0  0
  160.7190  206.5170  151.1080 C   0  0  0  0  0  2  0  0  0  0  0  0
  161.3740  205.2660  151.6800 C   0  0  0  0  0  2  0  0  0  0  0  0
  160.6070  202.7010  149.5060 C   0  0  1  0  0  3  0  0  0  0  0  0
  160.6190  204.0200  151.2480 C   0  0  1  0  0  3  0  0  0  0  0  0
  161.1590  201.9540  150.5600 O   0  0  0  0  0  0  0  0  0  0  0  0
  160.4410  204.0420  149.8750 O   0  0  0  0  0  0  0  0  0  0  0  0
  161.3770  202.8330  151.5700 N   0  0  0  0  0  2  0  0  0  0  0  0
  161.4750  202.5690  148.2550 C   0  0  1  0  0  3  0  0  0  0  0  0
  160.7770  201.7070  147.2190 C   0  0  0  0  0  1  0  0  0  0  0  0
  161.8210  203.9330  147.6690 C   0  0  0  0  0  2  0  0  0  0  0  0
  161.2880  204.0650  146.2530 C   0  0  0  0  0  2  0  0  0  0  0  0
  161.8890  205.1550  145.6220 O   0  0  0  0  0  0  0  0  0  0  0  0
  161.1730  205.3190  144.4370 C   0  0  0  0  0  1  0  0  0  0  0  0
  159.4540  211.7850  152.9970 N   0  0  0  0  0  2  0  0  0  0  0  0
  159.2420  213.1910  153.3260 C   0  0  0  0  0  2  0  0  0  0  0  0
  155.6930  214.2580  152.7230 N   0  0  0  0  0  0  0  0  0  0  0  0
  157.1640  213.0620  154.7290 C   0  0  0  0  0  3  0  0  0  0  0  0
  155.7960  213.2820  154.9000 C   0  0  0  0  0  0  0  0  0  0  0  0
  155.0680  213.8880  153.8740 C   0  0  0  0  0  3  0  0  0  0  0  0
  157.7890  213.4540  153.5450 C   0  0  0  0  0  0  0  0  0  0  0  0
  157.0260  214.0510  152.5380 C   0  0  0  0  0  3  0  0  0  0  0  0
  155.1780  212.8930  156.0410 F   0  0  0  0  0  0  0  0  0  0  0  0
  1  2  2  0  0  0  0
  2  8  1  0  0  0  0
  2  6  1  0  0  0  0
  3  9  1  0  0  0  0
  4 12  2  0  0  0  0
  5  4  2  0  0  0  0
  7 17  1  6  0  0  0
  7  5  1  0  0  0  0
  7 11  1  0  0  0  0
  8 12  1  6  0  0  0
  8  9  1  0  0  0  0
  8  6  1  0  0  0  0
 11  3  1  0  0  0  0
 11 10  2  0  0  0  0
 13 17  2  0  0  0  0
 14 17  1  0  0  0  0
 15 14  1  0  0  0  0
 16 15  2  0  0  0  0
 18 15  1  0  0  0  0
 18 19  1  0  0  0  0
 20 25  1  6  0  0  0
 20 23  1  0  0  0  0
 20 22  1  0  0  0  0
 21 24  1  0  0  0  0
 21 19  1  6  0  0  0
 22 24  1  0  0  0  0
 23 21  1  0  0  0  0
 25 26  1  6  0  0  0
 27 25  1  0  0  0  0
 28 27  1  0  0  0  0
 29 28  1  0  0  0  0
 30 29  1  0  0  0  0
 31 32  1  0  0  0  0
 31  5  1  0  0  0  0
 32 37  1  0  0  0  0
 33 36  1  0  0  0  0
 34 35  1  0  0  0  0
 35 39  1  0  0  0  0
 36 35  2  0  0  0  0
 37 34  2  0  0  0  0
 38 33  2  0  0  0  0
 38 37  1  0  0  0  0
M  END
>  <MODEL>
6

>  <REMARK>
 VINA RESULT:      -6.7      3.251      4.468
  Name = 
  11 active torsions:
  status: ('A' for Active; 'I' for Inactive)
    1  A    between atoms: C_3  and  C_25
    2  A    between atoms: C_4  and  C_23
    3  A    between atoms: C_8  and  C_27
    4  A    between atoms: C_8  and  N_34
    5  A    between atoms: C_13  and  C_25
    6  A    between atoms: C_13  and  C_31
    7  A    between atoms: O_14  and  C_31
    8  A    between atoms: C_15  and  N_34
    9  A    between atoms: C_20  and  C_32
   10  A    between atoms: C_21  and  C_38
   11  A    between atoms: C_23  and  C_38
                            x       y       z     vdW  Elec       q    Type
                         _______ _______ _______ _____ _____    ______ ____

>  <TORSDO>
F 11

$$$$
=
 OpenBabel11042421563D

 39 42  0  0  1  0  0  0  0  0999 V2000
  157.4570  210.4770  156.4720 N   0  0  0  0  0  2  0  0  0  0  0  0
  158.2490  211.4680  156.2340 C   0  0  0  0  0  0  0  0  0  0  0  0
  161.0500  210.4480  156.1380 O   0  0  0  0  0  0  0  0  0  0  0  0
  160.2210  211.3430  153.5380 C   0  0  0  0  0  0  0  0  0  0  0  0
  161.0420  210.4680  153.0110 C   0  0  0  0  0  0  0  0  0  0  0  0
  158.6100  212.9580  156.3280 N   0  0  0  0  0  2  0  0  0  0  0  0
  161.8820  209.6020  153.9240 C   0  0  1  0  0  3  0  0  0  0  0  0
  159.4090  212.0060  155.7060 C   0  0  1  0  0  0  0  0  0  0  0  0
  160.6330  211.7260  156.4630 N   0  0  0  0  0  2  0  0  0  0  0  0
  163.2580  210.7230  155.5370 O   0  0  0  0  0  0  0  0  0  0  0  0
  162.1230  210.2500  155.2640 C   0  0  0  0  0  0  0  0  0  0  0  0
  159.4860  212.1750  154.2210 C   0  0  0  0  0  3  0  0  0  0  0  0
  160.4160  208.0330  154.9770 O   0  0  0  0  0  0  0  0  0  0  0  0
  161.7720  207.1660  153.2750 N   0  0  0  0  0  2  0  0  0  0  0  0
  161.2860  205.8210  153.3130 C   0  0  0  0  0  0  0  0  0  0  0  0
  160.2580  205.5280  153.9830 O   0  0  0  0  0  0  0  0  0  0  0  0
  161.2870  208.2380  154.0900 C   0  0  0  0  0  0  0  0  0  0  0  0
  162.0110  204.7740  152.5220 C   0  0  0  0  0  2  0  0  0  0  0  0
  161.5800  204.7400  151.0610 C   0  0  0  0  0  2  0  0  0  0  0  0
  160.4600  202.0470  149.2220 C   0  0  1  0  0  3  0  0  0  0  0  0
  160.6780  203.5470  150.7950 C   0  0  1  0  0  3  0  0  0  0  0  0
  160.9620  201.3680  150.3450 O   0  0  0  0  0  0  0  0  0  0  0  0
  160.4560  203.4310  149.4330 O   0  0  0  0  0  0  0  0  0  0  0  0
  161.3110  202.3260  151.2390 N   0  0  0  0  0  2  0  0  0  0  0  0
  161.2650  201.6740  147.9770 C   0  0  1  0  0  3  0  0  0  0  0  0
  161.5780  200.1890  147.9790 C   0  0  0  0  0  1  0  0  0  0  0  0
  160.5300  202.0630  146.6990 C   0  0  0  0  0  2  0  0  0  0  0  0
  161.2330  203.2130  145.9990 C   0  0  0  0  0  2  0  0  0  0  0  0
  162.3520  203.6010  146.7370 O   0  0  0  0  0  0  0  0  0  0  0  0
  163.0330  204.4910  145.9070 C   0  0  0  0  0  1  0  0  0  0  0  0
  161.1380  210.2970  151.5930 N   0  0  0  0  0  2  0  0  0  0  0  0
  162.3260  209.7780  150.9200 C   0  0  0  0  0  2  0  0  0  0  0  0
  162.3320  207.7720  147.7460 N   0  0  0  0  0  0  0  0  0  0  0  0
  160.8620  207.9200  150.0770 C   0  0  0  0  0  3  0  0  0  0  0  0
  160.5320  206.9800  149.1000 C   0  0  0  0  0  0  0  0  0  0  0  0
  161.2880  206.9190  147.9280 C   0  0  0  0  0  3  0  0  0  0  0  0
  161.9320  208.7920  149.8700 C   0  0  0  0  0  0  0  0  0  0  0  0
  162.6690  208.6960  148.6880 C   0  0  0  0  0  3  0  0  0  0  0  0
  159.5030  206.1210  149.2970 F   0  0  0  0  0  0  0  0  0  0  0  0
  2  6  1  0  0  0  0
  2  1  2  0  0  0  0
  3  9  1  0  0  0  0
  4 12  2  0  0  0  0
  5  4  2  0  0  0  0
  5  7  1  0  0  0  0
  7 17  1  1  0  0  0
  7 11  1  0  0  0  0
  8 12  1  6  0  0  0
  8  2  1  0  0  0  0
  8  6  1  0  0  0  0
  8  9  1  0  0  0  0
 11 10  2  0  0  0  0
 11  3  1  0  0  0  0
 14 15  1  0  0  0  0
 14 17  1  0  0  0  0
 15 16  2  0  0  0  0
 17 13  2  0  0  0  0
 18 15  1  0  0  0  0
 19 18  1  0  0  0  0
 20 25  1  6  0  0  0
 20 23  1  0  0  0  0
 20 22  1  0  0  0  0
 21 19  1  6  0  0  0
 21 24  1  0  0  0  0
 22 24  1  0  0  0  0
 23 21  1  0  0  0  0
 25 26  1  6  0  0  0
 27 25  1  0  0  0  0
 28 27  1  0  0  0  0
 28 29  1  0  0  0  0
 30 29  1  0  0  0  0
 31  5  1  0  0  0  0
 32 31  1  0  0  0  0
 33 36  2  0  0  0  0
 33 38  1  0  0  0  0
 35 39  1  0  0  0  0
 35 34  2  0  0  0  0
 36 35  1  0  0  0  0
 37 34  1  0  0  0  0
 37 32  1  0  0  0  0
 38 37  2  0  0  0  0
M  END
>  <MODEL>
7

>  <REMARK>
 VINA RESULT:      -6.0      2.722      3.372
  Name = 
  11 active torsions:
  status: ('A' for Active; 'I' for Inactive)
    1  A    between atoms: C_3  and  C_25
    2  A    between atoms: C_4  and  C_23
    3  A    between atoms: C_8  and  C_27
    4  A    between atoms: C_8  and  N_34
    5  A    between atoms: C_13  and  C_25
    6  A    between atoms: C_13  and  C_31
    7  A    between atoms: O_14  and  C_31
    8  A    between atoms: C_15  and  N_34
    9  A    between atoms: C_20  and  C_32
   10  A    between atoms: C_21  and  C_38
   11  A    between atoms: C_23  and  C_38
                            x       y       z     vdW  Elec       q    Type
                         _______ _______ _______ _____ _____    ______ ____

>  <TORSDO>
F 11

$$$$
=
 OpenBabel11042421563D

 39 42  0  0  1  0  0  0  0  0999 V2000
  159.8290  206.7680  149.7150 N   0  0  0  0  0  2  0  0  0  0  0  0
  160.8450  206.5260  150.4730 C   0  0  0  0  0  0  0  0  0  0  0  0
  162.1010  209.1190  151.2420 O   0  0  0  0  0  0  0  0  0  0  0  0
  160.9230  207.8590  153.5380 C   0  0  0  0  0  0  0  0  0  0  0  0
  160.7320  209.0490  154.0520 C   0  0  0  0  0  0  0  0  0  0  0  0
  162.0080  205.6290  150.9220 N   0  0  0  0  0  2  0  0  0  0  0  0
  161.1940  210.2670  153.2830 C   0  0  1  0  0  3  0  0  0  0  0  0
  161.7160  206.8620  151.4940 C   0  0  1  0  0  0  0  0  0  0  0  0
  162.7130  207.8820  151.1580 N   0  0  0  0  0  2  0  0  0  0  0  0
  163.4950  210.3350  152.6150 O   0  0  0  0  0  0  0  0  0  0  0  0
  162.3280  209.9530  152.3410 C   0  0  0  0  0  0  0  0  0  0  0  0
  161.2140  206.7600  152.9010 C   0  0  0  0  0  3  0  0  0  0  0  0
  158.9510  210.3300  152.4510 O   0  0  0  0  0  0  0  0  0  0  0  0
  160.2780  212.1870  151.9260 N   0  0  0  0  0  2  0  0  0  0  0  0
  159.2860  212.9330  151.2130 C   0  0  0  0  0  0  0  0  0  0  0  0
  158.0770  212.5740  151.2330 O   0  0  0  0  0  0  0  0  0  0  0  0
  160.0600  210.9200  152.5550 C   0  0  0  0  0  0  0  0  0  0  0  0
  159.7120  214.1590  150.4630 C   0  0  0  0  0  2  0  0  0  0  0  0
  159.6570  213.9700  148.9520 C   0  0  0  0  0  2  0  0  0  0  0  0
  161.8460  212.7900  146.5620 C   0  0  1  0  0  3  0  0  0  0  0  0
  160.8460  213.1550  148.4710 C   0  0  1  0  0  3  0  0  0  0  0  0
  162.7350  213.5610  147.3310 O   0  0  0  0  0  0  0  0  0  0  0  0
  160.5980  212.6910  147.1890 O   0  0  0  0  0  0  0  0  0  0  0  0
  162.0330  213.9780  148.4140 N   0  0  0  0  0  2  0  0  0  0  0  0
  161.7190  213.3770  145.1560 C   0  0  1  0  0  3  0  0  0  0  0  0
  163.0570  213.3240  144.4420 C   0  0  0  0  0  1  0  0  0  0  0  0
  160.6510  212.6540  144.3430 C   0  0  0  0  0  2  0  0  0  0  0  0
  161.0160  212.6310  142.8690 C   0  0  0  0  0  2  0  0  0  0  0  0
  160.4950  211.4830  142.2720 O   0  0  0  0  0  0  0  0  0  0  0  0
  161.2490  211.3120  141.1120 C   0  0  0  0  0  1  0  0  0  0  0  0
  160.0730  209.2190  155.3120 N   0  0  0  0  0  2  0  0  0  0  0  0
  160.2780  210.3730  156.1830 C   0  0  0  0  0  2  0  0  0  0  0  0
  158.7640  213.7170  155.3910 N   0  0  0  0  0  0  0  0  0  0  0  0
  157.9240  211.1070  155.7080 C   0  0  0  0  0  3  0  0  0  0  0  0
  157.0030  212.1040  155.3850 C   0  0  0  0  0  0  0  0  0  0  0  0
  157.4460  213.4190  155.2280 C   0  0  0  0  0  3  0  0  0  0  0  0
  159.2700  211.4320  155.8770 C   0  0  0  0  0  0  0  0  0  0  0  0
  159.6770  212.7570  155.7050 C   0  0  0  0  0  3  0  0  0  0  0  0
  155.6950  211.7970  155.2060 F   0  0  0  0  0  0  0  0  0  0  0  0
  1  2  2  0  0  0  0
  2  6  1  0  0  0  0
  2  8  1  0  0  0  0
  3 11  1  0  0  0  0
  4  5  2  0  0  0  0
  5 31  1  0  0  0  0
  6  8  1  0  0  0  0
  7 17  1  6  0  0  0
  7  5  1  0  0  0  0
  8 12  1  1  0  0  0
  9  3  1  0  0  0  0
  9  8  1  0  0  0  0
 11 10  2  0  0  0  0
 11  7  1  0  0  0  0
 12  4  2  0  0  0  0
 13 17  2  0  0  0  0
 14 17  1  0  0  0  0
 15 16  2  0  0  0  0
 15 14  1  0  0  0  0
 18 15  1  0  0  0  0
 19 18  1  0  0  0  0
 20 25  1  6  0  0  0
 20 23  1  0  0  0  0
 20 22  1  0  0  0  0
 21 19  1  6  0  0  0
 22 24  1  0  0  0  0
 23 21  1  0  0  0  0
 24 21  1  0  0  0  0
 25 26  1  6  0  0  0
 27 25  1  0  0  0  0
 28 27  1  0  0  0  0
 29 28  1  0  0  0  0
 30 29  1  0  0  0  0
 31 32  1  0  0  0  0
 33 38  1  0  0  0  0
 34 37  1  0  0  0  0
 35 34  2  0  0  0  0
 36 35  1  0  0  0  0
 36 33  2  0  0  0  0
 37 32  1  0  0  0  0
 38 37  2  0  0  0  0
 39 35  1  0  0  0  0
M  END
>  <MODEL>
8

>  <REMARK>
 VINA RESULT:      -5.2      3.616      7.620
  Name = 
  11 active torsions:
  status: ('A' for Active; 'I' for Inactive)
    1  A    between atoms: C_3  and  C_25
    2  A    between atoms: C_4  and  C_23
    3  A    between atoms: C_8  and  C_27
    4  A    between atoms: C_8  and  N_34
    5  A    between atoms: C_13  and  C_25
    6  A    between atoms: C_13  and  C_31
    7  A    between atoms: O_14  and  C_31
    8  A    between atoms: C_15  and  N_34
    9  A    between atoms: C_20  and  C_32
   10  A    between atoms: C_21  and  C_38
   11  A    between atoms: C_23  and  C_38
                            x       y       z     vdW  Elec       q    Type
                         _______ _______ _______ _____ _____    ______ ____

>  <TORSDO>
F 11

$$$$
=
 OpenBabel11042421563D

 39 42  0  0  1  0  0  0  0  0999 V2000
  157.7050  210.1990  156.4950 N   0  0  0  0  0  2  0  0  0  0  0  0
  158.4460  211.2550  156.4750 C   0  0  0  0  0  0  0  0  0  0  0  0
  161.2360  210.4510  155.7960 O   0  0  0  0  0  0  0  0  0  0  0  0
  160.0990  212.0130  153.6710 C   0  0  0  0  0  0  0  0  0  0  0  0
  160.8710  211.3700  152.8300 C   0  0  0  0  0  0  0  0  0  0  0  0
  158.7860  212.6720  156.9620 N   0  0  0  0  0  2  0  0  0  0  0  0
  161.8260  210.3230  153.3580 C   0  0  1  0  0  3  0  0  0  0  0  0
  159.5270  211.9810  156.0100 C   0  0  1  0  0  0  0  0  0  0  0  0
  160.8340  211.5580  156.5210 N   0  0  0  0  0  2  0  0  0  0  0  0
  163.3550  211.0000  155.0760 O   0  0  0  0  0  0  0  0  0  0  0  0
  162.2060  210.5690  154.7960 C   0  0  0  0  0  0  0  0  0  0  0  0
  159.4310  212.5740  154.6390 C   0  0  0  0  0  3  0  0  0  0  0  0
  160.3870  208.5080  153.9570 O   0  0  0  0  0  0  0  0  0  0  0  0
  161.8340  208.1010  152.1610 N   0  0  0  0  0  2  0  0  0  0  0  0
  161.4010  206.7690  151.8670 C   0  0  0  0  0  0  0  0  0  0  0  0
  160.3620  206.2980  152.4070 O   0  0  0  0  0  0  0  0  0  0  0  0
  161.2800  208.9400  153.1800 C   0  0  0  0  0  0  0  0  0  0  0  0
  162.1940  205.9570  150.8880 C   0  0  0  0  0  2  0  0  0  0  0  0
  161.4940  205.8130  149.5430 C   0  0  0  0  0  2  0  0  0  0  0  0
  160.5570  202.6680  148.4800 C   0  0  1  0  0  3  0  0  0  0  0  0
  160.6010  204.5830  149.5320 C   0  0  1  0  0  3  0  0  0  0  0  0
  160.8780  202.3760  149.8170 O   0  0  0  0  0  0  0  0  0  0  0  0
  160.5670  204.0500  148.2540 O   0  0  0  0  0  0  0  0  0  0  0  0
  161.1290  203.5680  150.4140 N   0  0  0  0  0  2  0  0  0  0  0  0
  161.5150  201.9410  147.5370 C   0  0  1  0  0  3  0  0  0  0  0  0
  161.5230  200.4540  147.8390 C   0  0  0  0  0  1  0  0  0  0  0  0
  161.1540  202.1870  146.0760 C   0  0  0  0  0  2  0  0  0  0  0  0
  161.7150  203.5140  145.5960 C   0  0  0  0  0  2  0  0  0  0  0  0
  160.8310  204.0980  144.6870 O   0  0  0  0  0  0  0  0  0  0  0  0
  161.1670  205.4510  144.6840 C   0  0  0  0  0  1  0  0  0  0  0  0
  160.8080  211.6190  151.4210 N   0  0  0  0  0  2  0  0  0  0  0  0
  161.8560  211.2270  150.4830 C   0  0  0  0  0  2  0  0  0  0  0  0
  160.6720  213.7510  147.9680 N   0  0  0  0  0  0  0  0  0  0  0  0
  162.7630  211.9740  148.2640 C   0  0  0  0  0  3  0  0  0  0  0  0
  162.6890  212.7850  147.1310 C   0  0  0  0  0  0  0  0  0  0  0  0
  161.6240  213.6790  146.9980 C   0  0  0  0  0  3  0  0  0  0  0  0
  161.7740  212.0570  149.2450 C   0  0  0  0  0  0  0  0  0  0  0  0
  160.7280  212.9680  149.0810 C   0  0  0  0  0  3  0  0  0  0  0  0
  163.6510  212.7210  146.1790 F   0  0  0  0  0  0  0  0  0  0  0  0
  2  1  2  0  0  0  0
  2  6  1  0  0  0  0
  3  9  1  0  0  0  0
  4 12  2  0  0  0  0
  5  7  1  0  0  0  0
  5  4  2  0  0  0  0
  7 17  1  1  0  0  0
  7 11  1  0  0  0  0
  8 12  1  6  0  0  0
  8  2  1  0  0  0  0
  8  9  1  0  0  0  0
  8  6  1  0  0  0  0
 11 10  2  0  0  0  0
 11  3  1  0  0  0  0
 14 17  1  0  0  0  0
 15 14  1  0  0  0  0
 15 16  2  0  0  0  0
 17 13  2  0  0  0  0
 18 15  1  0  0  0  0
 19 18  1  0  0  0  0
 20 25  1  6  0  0  0
 20 22  1  0  0  0  0
 21 19  1  6  0  0  0
 21 24  1  0  0  0  0
 22 24  1  0  0  0  0
 23 20  1  0  0  0  0
 23 21  1  0  0  0  0
 25 26  1  1  0  0  0
 27 25  1  0  0  0  0
 28 27  1  0  0  0  0
 29 28  1  0  0  0  0
 30 29  1  0  0  0  0
 31  5  1  0  0  0  0
 32 31  1  0  0  0  0
 33 38  1  0  0  0  0
 34 37  1  0  0  0  0
 35 34  2  0  0  0  0
 36 35  1  0  0  0  0
 36 33  2  0  0  0  0
 37 32  1  0  0  0  0
 38 37  2  0  0  0  0
 39 35  1  0  0  0  0
M  END
>  <MODEL>
9

>  <REMARK>
 VINA RESULT:      -5.1      1.656      2.140
  Name = 
  11 active torsions:
  status: ('A' for Active; 'I' for Inactive)
    1  A    between atoms: C_3  and  C_25
    2  A    between atoms: C_4  and  C_23
    3  A    between atoms: C_8  and  C_27
    4  A    between atoms: C_8  and  N_34
    5  A    between atoms: C_13  and  C_25
    6  A    between atoms: C_13  and  C_31
    7  A    between atoms: O_14  and  C_31
    8  A    between atoms: C_15  and  N_34
    9  A    between atoms: C_20  and  C_32
   10  A    between atoms: C_21  and  C_38
   11  A    between atoms: C_23  and  C_38
                            x       y       z     vdW  Elec       q    Type
                         _______ _______ _______ _____ _____    ______ ____

>  <TORSDO>
F 11

$$$$
