=
 OpenBabel11042422403D

 33 36  0  0  1  0  0  0  0  0999 V2000
  158.5720  210.3680  155.7380 C   0  0  0  0  0  1  0  0  0  0  0  0
  159.7640  211.2780  153.7480 C   0  0  1  0  0  3  0  0  0  0  0  0
  159.3430  213.3380  154.7590 N   0  0  0  0  0  0  0  0  0  0  0  0
  159.8350  212.5030  155.8330 C   0  0  0  0  0  2  0  0  0  0  0  0
  159.8210  211.0900  155.2680 C   0  0  1  0  0  3  0  0  0  0  0  0
  157.8830  212.9970  150.3490 O   0  0  0  0  0  0  0  0  0  0  0  0
  158.6490  213.2640  152.5150 N   0  0  0  0  0  2  0  0  0  0  0  0
  158.8600  212.9350  151.1420 C   0  0  0  0  0  0  0  0  0  0  0  0
  159.3490  212.7130  153.6350 C   0  0  0  0  0  0  0  0  0  0  0  0
  160.8840  207.3340  152.8600 C   0  0  2  0  0  3  0  0  0  0  0  0
  161.1070  211.0860  153.1960 N   0  0  1  0  0  0  0  0  0  0  0  0
  161.5830  209.6990  153.4520 C   0  0  2  0  0  3  0  0  0  0  0  0
  161.0410  210.0600  152.1500 C   0  0  2  0  0  3  0  0  0  0  0  0
  162.2640  208.3330  150.8770 C   0  0  2  0  0  3  0  0  0  0  0  0
  160.7690  206.1410  153.5730 O   0  0  0  0  0  1  0  0  0  0  0  0
  162.2230  207.3440  152.0750 C   0  0  0  0  0  2  0  0  0  0  0  0
  160.6700  208.5330  153.8250 C   0  0  0  0  0  2  0  0  0  0  0  0
  162.2560  209.8220  151.2850 C   0  0  0  0  0  2  0  0  0  0  0  0
  161.2030  208.0670  149.9660 O   0  0  0  0  0  0  0  0  0  0  0  0
  162.3240  207.4710  147.9940 C   0  0  0  0  0  2  0  0  0  0  0  0
  161.3470  207.2310  148.8560 C   0  0  0  0  0  0  0  0  0  0  0  0
  160.4360  206.0650  148.6220 C   0  0  0  0  0  2  0  0  0  0  0  0
  161.1940  204.5860  150.3300 O   0  0  0  0  0  1  0  0  0  0  0  0
  161.0590  204.7970  149.0970 C   0  0  0  0  0  0  0  0  0  0  0  0
  161.4800  203.8400  148.1820 O   0  0  0  0  0  0  0  0  0  0  0  0
  160.1530  212.6820  150.6690 O   0  0  0  0  0  0  0  0  0  0  0  0
  162.1590  212.6110  147.5620 C   0  0  0  0  0  3  0  0  0  0  0  0
  161.6200  213.6880  146.8540 C   0  0  0  0  0  0  0  0  0  0  0  0
  160.6420  213.0540  149.4060 C   0  0  0  0  0  0  0  0  0  0  0  0
  162.2210  214.0710  145.2560 Cl  0  0  0  0  0  0  0  0  0  0  0  0
  161.6700  212.2970  148.8350 C   0  0  0  0  0  3  0  0  0  0  0  0
  160.5960  214.4530  147.4180 C   0  0  0  0  0  3  0  0  0  0  0  0
  160.1080  214.1370  148.6880 C   0  0  0  0  0  3  0  0  0  0  0  0
  2  9  1  1  0  0  0
  2  5  1  0  0  0  0
  3  4  1  0  0  0  0
  5  1  1  1  0  0  0
  5  4  1  0  0  0  0
  6  8  2  0  0  0  0
  7  9  1  0  0  0  0
  8  7  1  0  0  0  0
  9  3  2  0  0  0  0
 10 15  1  1  0  0  0
 10 17  1  0  0  0  0
 11 12  1  0  0  0  0
 11  2  1  1  0  0  0
 12 17  1  1  0  0  0
 13 18  1  6  0  0  0
 13 11  1  0  0  0  0
 13 12  1  0  0  0  0
 14 19  1  6  0  0  0
 14 18  1  0  0  0  0
 14 16  1  0  0  0  0
 16 10  1  0  0  0  0
 20 21  2  0  0  0  0
 21 19  1  0  0  0  0
 22 21  1  0  0  0  0
 22 24  1  0  0  0  0
 24 23  1  0  0  0  0
 25 24  2  0  0  0  0
 26  8  1  0  0  0  0
 27 31  1  0  0  0  0
 28 32  1  0  0  0  0
 28 27  2  0  0  0  0
 29 26  1  0  0  0  0
 30 28  1  0  0  0  0
 31 29  2  0  0  0  0
 32 33  2  0  0  0  0
 33 29  1  0  0  0  0
M  END
>  <MODEL>
1

>  <REMARK>
 VINA RESULT:      -7.3      0.000      0.000
  Name = 
  7 active torsions:
  status: ('A' for Active; 'I' for Inactive)
    1  A    between atoms: O_2  and  C_12
    2  A    between atoms: O_2  and  C_31
    3  A    between atoms: N_6  and  C_9
    4  A    between atoms: O_8  and  C_13
    5  A    between atoms: O_8  and  C_19
    6  A    between atoms: C_17  and  C_19
    7  A    between atoms: C_17  and  C_24
                            x       y       z     vdW  Elec       q    Type
                         _______ _______ _______ _____ _____    ______ ____

>  <TORSDO>
F 7

$$$$
=
 OpenBabel11042422403D

 33 36  0  0  1  0  0  0  0  0999 V2000
  158.7950  209.9820  155.4170 C   0  0  0  0  0  1  0  0  0  0  0  0
  159.9970  211.0280  153.5030 C   0  0  1  0  0  3  0  0  0  0  0  0
  159.7400  212.9860  154.7440 N   0  0  0  0  0  0  0  0  0  0  0  0
  160.1990  212.0070  155.7060 C   0  0  0  0  0  2  0  0  0  0  0  0
  160.0780  210.6700  154.9900 C   0  0  1  0  0  3  0  0  0  0  0  0
  158.1570  213.2290  150.3690 O   0  0  0  0  0  0  0  0  0  0  0  0
  158.9900  213.2040  152.5270 N   0  0  0  0  0  2  0  0  0  0  0  0
  159.1460  213.0170  151.1210 C   0  0  0  0  0  0  0  0  0  0  0  0
  159.6770  212.4900  153.5590 C   0  0  0  0  0  0  0  0  0  0  0  0
  161.0020  207.0660  152.5540 C   0  0  2  0  0  3  0  0  0  0  0  0
  161.3120  210.8120  152.8920 N   0  0  1  0  0  0  0  0  0  0  0  0
  161.7710  209.4150  153.1220 C   0  0  2  0  0  3  0  0  0  0  0  0
  161.1810  209.7920  151.8460 C   0  0  2  0  0  3  0  0  0  0  0  0
  162.3130  208.0470  150.5160 C   0  0  2  0  0  3  0  0  0  0  0  0
  160.8940  205.8730  153.2670 O   0  0  0  0  0  1  0  0  0  0  0  0
  162.3050  207.0540  151.7120 C   0  0  0  0  0  2  0  0  0  0  0  0
  160.8530  208.2660  153.5300 C   0  0  0  0  0  2  0  0  0  0  0  0
  162.3520  209.5340  150.9290 C   0  0  0  0  0  2  0  0  0  0  0  0
  161.2090  207.8050  149.6510 O   0  0  0  0  0  0  0  0  0  0  0  0
  160.2510  206.1750  148.2630 C   0  0  0  0  0  2  0  0  0  0  0  0
  161.2830  206.9570  148.5430 C   0  0  0  0  0  0  0  0  0  0  0  0
  162.4920  206.9170  147.6600 C   0  0  0  0  0  2  0  0  0  0  0  0
  162.8930  204.8980  146.4580 O   0  0  0  0  0  1  0  0  0  0  0  0
  162.2810  205.9970  146.5060 C   0  0  0  0  0  0  0  0  0  0  0  0
  161.4000  206.3420  145.4890 O   0  0  0  0  0  0  0  0  0  0  0  0
  160.4080  212.7350  150.5840 O   0  0  0  0  0  0  0  0  0  0  0  0
  161.1500  212.0900  147.0180 C   0  0  0  0  0  3  0  0  0  0  0  0
  161.4790  213.3700  146.5630 C   0  0  0  0  0  0  0  0  0  0  0  0
  160.7940  212.9700  149.2540 C   0  0  0  0  0  0  0  0  0  0  0  0
  161.8910  213.6190  144.8800 Cl  0  0  0  0  0  0  0  0  0  0  0  0
  160.8090  211.8930  148.3610 C   0  0  0  0  0  3  0  0  0  0  0  0
  161.4710  214.4500  147.4480 C   0  0  0  0  0  3  0  0  0  0  0  0
  161.1290  214.2520  148.7880 C   0  0  0  0  0  3  0  0  0  0  0  0
  2  9  1  1  0  0  0
  2  5  1  0  0  0  0
  3  4  1  0  0  0  0
  5  1  1  1  0  0  0
  5  4  1  0  0  0  0
  6  8  2  0  0  0  0
  7  9  1  0  0  0  0
  8  7  1  0  0  0  0
  9  3  2  0  0  0  0
 10 15  1  1  0  0  0
 10 17  1  0  0  0  0
 11 12  1  0  0  0  0
 11  2  1  1  0  0  0
 12 17  1  1  0  0  0
 13 18  1  6  0  0  0
 13 11  1  0  0  0  0
 13 12  1  0  0  0  0
 14 19  1  1  0  0  0
 14 18  1  0  0  0  0
 14 16  1  0  0  0  0
 16 10  1  0  0  0  0
 20 21  2  0  0  0  0
 21 19  1  0  0  0  0
 22 21  1  0  0  0  0
 23 24  1  0  0  0  0
 24 22  1  0  0  0  0
 25 24  2  0  0  0  0
 26  8  1  0  0  0  0
 27 31  1  0  0  0  0
 28 27  2  0  0  0  0
 28 32  1  0  0  0  0
 29 26  1  0  0  0  0
 30 28  1  0  0  0  0
 31 29  2  0  0  0  0
 32 33  2  0  0  0  0
 33 29  1  0  0  0  0
M  END
>  <MODEL>
2

>  <REMARK>
 VINA RESULT:      -6.3      1.017      1.377
  Name = 
  7 active torsions:
  status: ('A' for Active; 'I' for Inactive)
    1  A    between atoms: O_2  and  C_12
    2  A    between atoms: O_2  and  C_31
    3  A    between atoms: N_6  and  C_9
    4  A    between atoms: O_8  and  C_13
    5  A    between atoms: O_8  and  C_19
    6  A    between atoms: C_17  and  C_19
    7  A    between atoms: C_17  and  C_24
                            x       y       z     vdW  Elec       q    Type
                         _______ _______ _______ _____ _____    ______ ____

>  <TORSDO>
F 7

$$$$
=
 OpenBabel11042422403D

 33 36  0  0  1  0  0  0  0  0999 V2000
  159.3740  207.2180  155.8630 C   0  0  0  0  0  1  0  0  0  0  0  0
  160.4750  208.6820  154.1750 C   0  0  1  0  0  3  0  0  0  0  0  0
  160.5480  210.2160  155.9320 N   0  0  0  0  0  0  0  0  0  0  0  0
  161.0000  208.9730  156.5190 C   0  0  0  0  0  2  0  0  0  0  0  0
  160.6710  207.9090  155.4830 C   0  0  1  0  0  3  0  0  0  0  0  0
  158.5590  211.8110  152.0320 O   0  0  0  0  0  0  0  0  0  0  0  0
  159.6020  211.1120  153.9760 N   0  0  0  0  0  2  0  0  0  0  0  0
  159.5930  211.3240  152.5640 C   0  0  0  0  0  0  0  0  0  0  0  0
  160.3140  210.0850  154.6740 C   0  0  0  0  0  0  0  0  0  0  0  0
  161.0500  205.0340  152.1840 C   0  0  2  0  0  3  0  0  0  0  0  0
  161.6920  208.5600  153.3670 N   0  0  1  0  0  0  0  0  0  0  0  0
  162.0620  207.1290  153.1950 C   0  0  2  0  0  3  0  0  0  0  0  0
  161.3630  207.8380  152.1330 C   0  0  2  0  0  3  0  0  0  0  0  0
  162.1970  206.4240  150.2890 C   0  0  2  0  0  3  0  0  0  0  0  0
  160.9300  203.7090  152.5980 O   0  0  0  0  0  1  0  0  0  0  0  0
  162.2450  205.1670  151.2030 C   0  0  0  0  0  2  0  0  0  0  0  0
  161.1080  205.9610  153.4300 C   0  0  0  0  0  2  0  0  0  0  0  0
  162.3990  207.7590  151.0380 C   0  0  0  0  0  2  0  0  0  0  0  0
  160.9860  206.4580  149.5410 O   0  0  0  0  0  0  0  0  0  0  0  0
  160.3800  206.6040  147.2800 C   0  0  0  0  0  2  0  0  0  0  0  0
  160.8580  205.8750  148.2780 C   0  0  0  0  0  0  0  0  0  0  0  0
  161.2580  204.4550  148.0190 C   0  0  0  0  0  2  0  0  0  0  0  0
  163.1620  204.7770  146.6210 O   0  0  0  0  0  1  0  0  0  0  0  0
  161.9890  204.3330  146.7260 C   0  0  0  0  0  0  0  0  0  0  0  0
  161.3830  203.7180  145.6370 O   0  0  0  0  0  0  0  0  0  0  0  0
  160.7580  211.1220  151.8140 O   0  0  0  0  0  0  0  0  0  0  0  0
  162.1260  211.5880  148.4100 C   0  0  0  0  0  3  0  0  0  0  0  0
  161.5930  212.8320  148.0610 C   0  0  0  0  0  0  0  0  0  0  0  0
  161.0420  211.7260  150.5790 C   0  0  0  0  0  0  0  0  0  0  0  0
  161.9270  213.5130  146.4830 Cl  0  0  0  0  0  0  0  0  0  0  0  0
  161.8500  211.0390  149.6660 C   0  0  0  0  0  3  0  0  0  0  0  0
  160.7910  213.5290  148.9670 C   0  0  0  0  0  3  0  0  0  0  0  0
  160.5140  212.9780  150.2210 C   0  0  0  0  0  3  0  0  0  0  0  0
  2  9  1  1  0  0  0
  2  5  1  0  0  0  0
  3  4  1  0  0  0  0
  5  1  1  1  0  0  0
  5  4  1  0  0  0  0
  6  8  2  0  0  0  0
  7  9  1  0  0  0  0
  8  7  1  0  0  0  0
  9  3  2  0  0  0  0
 10 15  1  1  0  0  0
 10 17  1  0  0  0  0
 11  2  1  1  0  0  0
 12 11  1  0  0  0  0
 12 17  1  1  0  0  0
 13 18  1  6  0  0  0
 13 12  1  0  0  0  0
 13 11  1  0  0  0  0
 14 19  1  1  0  0  0
 14 18  1  0  0  0  0
 14 16  1  0  0  0  0
 16 10  1  0  0  0  0
 20 21  2  0  0  0  0
 21 19  1  0  0  0  0
 22 21  1  0  0  0  0
 23 24  1  0  0  0  0
 24 22  1  0  0  0  0
 25 24  2  0  0  0  0
 26  8  1  0  0  0  0
 27 31  1  0  0  0  0
 28 27  2  0  0  0  0
 28 32  1  0  0  0  0
 29 26  1  0  0  0  0
 30 28  1  0  0  0  0
 31 29  2  0  0  0  0
 32 33  2  0  0  0  0
 33 29  1  0  0  0  0
M  END
>  <MODEL>
3

>  <REMARK>
 VINA RESULT:      -6.2      1.826      2.473
  Name = 
  7 active torsions:
  status: ('A' for Active; 'I' for Inactive)
    1  A    between atoms: O_2  and  C_12
    2  A    between atoms: O_2  and  C_31
    3  A    between atoms: N_6  and  C_9
    4  A    between atoms: O_8  and  C_13
    5  A    between atoms: O_8  and  C_19
    6  A    between atoms: C_17  and  C_19
    7  A    between atoms: C_17  and  C_24
                            x       y       z     vdW  Elec       q    Type
                         _______ _______ _______ _____ _____    ______ ____

>  <TORSDO>
F 7

$$$$
=
 OpenBabel11042422403D

 33 36  0  0  1  0  0  0  0  0999 V2000
  159.9950  212.8470  146.7850 C   0  0  0  0  0  1  0  0  0  0  0  0
  160.8250  212.3180  149.0740 C   0  0  1  0  0  3  0  0  0  0  0  0
  162.8380  211.9030  147.9690 N   0  0  0  0  0  0  0  0  0  0  0  0
  162.3750  213.1580  147.4170 C   0  0  0  0  0  2  0  0  0  0  0  0
  160.9350  213.2870  147.8920 C   0  0  1  0  0  3  0  0  0  0  0  0
  161.3280  208.4030  150.6470 O   0  0  0  0  0  0  0  0  0  0  0  0
  162.1760  210.1270  149.3590 N   0  0  0  0  0  2  0  0  0  0  0  0
  161.6780  209.6120  150.5930 C   0  0  0  0  0  0  0  0  0  0  0  0
  162.0480  211.4720  148.8880 C   0  0  0  0  0  0  0  0  0  0  0  0
  157.2030  213.6540  150.7160 C   0  0  2  0  0  3  0  0  0  0  0  0
  160.9120  213.0810  150.3210 N   0  0  1  0  0  0  0  0  0  0  0  0
  159.7130  213.9450  150.4890 C   0  0  2  0  0  3  0  0  0  0  0  0
  159.8060  212.6770  151.1960 C   0  0  2  0  0  3  0  0  0  0  0  0
  158.3140  213.3100  153.0580 C   0  0  2  0  0  3  0  0  0  0  0  0
  156.0920  214.2810  150.1550 O   0  0  0  0  0  1  0  0  0  0  0  0
  157.4630  214.2270  152.1350 C   0  0  0  0  0  2  0  0  0  0  0  0
  158.4020  213.7510  149.7320 C   0  0  0  0  0  2  0  0  0  0  0  0
  159.7890  213.1680  152.6240 C   0  0  0  0  0  2  0  0  0  0  0  0
  157.7130  212.0260  153.1870 O   0  0  0  0  0  0  0  0  0  0  0  0
  158.2700  210.8820  155.1570 C   0  0  0  0  0  2  0  0  0  0  0  0
  157.3460  211.4800  154.4200 C   0  0  0  0  0  0  0  0  0  0  0  0
  155.9420  211.5630  154.9330 C   0  0  0  0  0  2  0  0  0  0  0  0
  155.9680  213.0390  156.8050 O   0  0  0  0  0  1  0  0  0  0  0  0
  155.6900  212.8780  155.5880 C   0  0  0  0  0  0  0  0  0  0  0  0
  155.1580  213.9320  154.8560 O   0  0  0  0  0  0  0  0  0  0  0  0
  161.7080  210.4020  151.7490 O   0  0  0  0  0  0  0  0  0  0  0  0
  160.8970  208.1270  154.5500 C   0  0  0  0  0  3  0  0  0  0  0  0
  161.3480  208.8620  155.6490 C   0  0  0  0  0  0  0  0  0  0  0  0
  161.5760  209.9230  153.0620 C   0  0  0  0  0  0  0  0  0  0  0  0
  161.2180  208.1910  157.2610 Cl  0  0  0  0  0  0  0  0  0  0  0  0
  161.0120  208.6580  153.2610 C   0  0  0  0  0  3  0  0  0  0  0  0
  161.9080  210.1280  155.4620 C   0  0  0  0  0  3  0  0  0  0  0  0
  162.0240  210.6560  154.1740 C   0  0  0  0  0  3  0  0  0  0  0  0
  2  9  1  6  0  0  0
  3  9  2  0  0  0  0
  4  5  1  0  0  0  0
  4  3  1  0  0  0  0
  5  1  1  6  0  0  0
  5  2  1  0  0  0  0
  7  8  1  0  0  0  0
  8  6  2  0  0  0  0
  8 26  1  0  0  0  0
  9  7  1  0  0  0  0
 10 15  1  6  0  0  0
 10 16  1  0  0  0  0
 11  2  1  6  0  0  0
 11 12  1  0  0  0  0
 11 13  1  0  0  0  0
 12 17  1  6  0  0  0
 12 13  1  0  0  0  0
 13 18  1  1  0  0  0
 14 19  1  6  0  0  0
 16 14  1  0  0  0  0
 17 10  1  0  0  0  0
 18 14  1  0  0  0  0
 19 21  1  0  0  0  0
 21 22  1  0  0  0  0
 21 20  2  0  0  0  0
 22 24  1  0  0  0  0
 24 23  1  0  0  0  0
 25 24  2  0  0  0  0
 26 29  1  0  0  0  0
 27 28  1  0  0  0  0
 28 30  1  0  0  0  0
 29 31  1  0  0  0  0
 29 33  2  0  0  0  0
 31 27  2  0  0  0  0
 32 28  2  0  0  0  0
 33 32  1  0  0  0  0
M  END
>  <MODEL>
4

>  <REMARK>
 VINA RESULT:      -5.2      3.481      7.985
  Name = 
  7 active torsions:
  status: ('A' for Active; 'I' for Inactive)
    1  A    between atoms: O_2  and  C_12
    2  A    between atoms: O_2  and  C_31
    3  A    between atoms: N_6  and  C_9
    4  A    between atoms: O_8  and  C_13
    5  A    between atoms: O_8  and  C_19
    6  A    between atoms: C_17  and  C_19
    7  A    between atoms: C_17  and  C_24
                            x       y       z     vdW  Elec       q    Type
                         _______ _______ _______ _____ _____    ______ ____

>  <TORSDO>
F 7

$$$$
