=
 OpenBabel11042421023D

 28 31  0  0  1  0  0  0  0  0999 V2000
  162.8480  207.4120  148.0500 O   0  0  0  0  0  0  0  0  0  0  0  0
  161.8010  203.2810  151.6610 N   0  0  0  0  0  1  0  0  0  0  0  0
  161.5900  204.9210  148.0210 C   0  0  0  0  0  2  0  0  0  0  0  0
  161.0920  207.6800  151.1970 C   0  0  2  0  0  3  0  0  0  0  0  0
  160.9080  206.2020  151.4770 C   0  0  0  0  0  0  0  0  0  0  0  0
  160.5110  205.7290  152.8580 C   0  0  0  0  0  2  0  0  0  0  0  0
  161.1420  207.8030  153.7680 C   0  0  1  0  0  0  0  0  0  0  0  0
  162.2730  207.0620  149.1180 C   0  0  0  0  0  0  0  0  0  0  0  0
  160.8670  203.8310  150.6940 C   0  0  1  0  0  3  0  0  0  0  0  0
  161.1370  205.3130  150.4860 C   0  0  0  0  0  0  0  0  0  0  0  0
  160.1690  206.7700  153.7550 O   0  0  0  0  0  0  0  0  0  0  0  0
  160.5700  203.8070  148.1830 C   0  0  0  0  0  2  0  0  0  0  0  0
  162.3280  207.9530  150.3270 C   0  0  1  0  0  3  0  0  0  0  0  0
  159.8670  209.3320  152.3910 O   0  0  0  0  0  1  0  0  0  0  0  0
  161.6240  205.7810  149.2060 N   0  0  0  0  0  0  0  0  0  0  0  0
  162.5720  207.2620  153.9560 C   0  0  0  0  0  1  0  0  0  0  0  0
  161.0430  208.5780  152.4400 C   0  0  2  0  0  3  0  0  0  0  0  0
  160.9460  203.0000  149.4120 C   0  0  0  0  0  2  0  0  0  0  0  0
  161.9680  208.8230  157.1170 N   0  0  0  0  0  0  0  0  0  0  0  0
  161.0410  208.1480  156.2890 C   0  0  0  0  0  0  0  0  0  0  0  0
  160.8130  208.7570  154.9430 C   0  0  1  0  0  3  0  0  0  0  0  0
  163.4360  210.7400  157.2610 C   0  0  0  0  0  1  0  0  0  0  0  0
  160.4330  207.1190  156.6840 O   0  0  0  0  0  0  0  0  0  0  0  0
  161.8300  210.2880  154.9260 S   0  0  0  0  0  0  0  0  0  0  0  0
  162.4380  209.8870  156.5650 C   0  0  0  0  0  0  0  0  0  0  0  0
  162.3600  209.3490  149.9100 N   0  0  0  0  0  0  0  0  0  0  0  0
  161.9350  211.0720  148.3670 N   0  0  0  0  0  1  0  0  0  0  0  0
  161.8950  209.7060  148.7580 C   0  0  0  0  0  3  0  0  0  0  0  0
  1  8  2  0  0  0  0
  3 12  1  0  0  0  0
  3 15  1  0  0  0  0
  4  5  1  1  0  0  0
  4 17  1  0  0  0  0
  5  6  1  0  0  0  0
  6 11  1  0  0  0  0
  7 16  1  1  0  0  0
  7 21  1  0  0  0  0
  8 15  1  0  0  0  0
  8 13  1  0  0  0  0
  9  2  1  1  0  0  0
 10  9  1  0  0  0  0
 10  5  2  0  0  0  0
 11  7  1  0  0  0  0
 12 18  1  0  0  0  0
 13 26  1  6  0  0  0
 13  4  1  0  0  0  0
 15 10  1  0  0  0  0
 17 14  1  1  0  0  0
 17  7  1  0  0  0  0
 18  9  1  0  0  0  0
 20 23  2  0  0  0  0
 20 19  1  0  0  0  0
 21 24  1  6  0  0  0
 21 20  1  0  0  0  0
 24 25  1  0  0  0  0
 25 19  2  0  0  0  0
 25 22  1  0  0  0  0
 27 28  1  0  0  0  0
 28 26  2  0  0  0  0
M  END
>  <MODEL>
1

>  <REMARK>
 VINA RESULT:      -5.7      0.000      0.000
  Name = 
  2 active torsions:
  status: ('A' for Active; 'I' for Inactive)
    1  A    between atoms: C_8  and  C_14
    2  A    between atoms: N_16  and  C_19
                            x       y       z     vdW  Elec       q    Type
                         _______ _______ _______ _____ _____    ______ ____

>  <TORSDO>
F 2

$$$$
=
 OpenBabel11042421023D

 28 31  0  0  1  0  0  0  0  0999 V2000
  161.0550  205.1230  153.4640 O   0  0  0  0  0  0  0  0  0  0  0  0
  162.9370  210.0170  151.5370 N   0  0  0  0  0  1  0  0  0  0  0  0
  160.6410  207.8350  153.9780 C   0  0  0  0  0  2  0  0  0  0  0  0
  160.9500  206.2900  150.0460 C   0  0  2  0  0  3  0  0  0  0  0  0
  161.3180  207.7390  150.2920 C   0  0  0  0  0  0  0  0  0  0  0  0
  161.7450  208.6250  149.1430 C   0  0  0  0  0  2  0  0  0  0  0  0
  162.1460  206.7310  147.8090 C   0  0  1  0  0  0  0  0  0  0  0  0
  161.1550  205.9030  152.4760 C   0  0  0  0  0  0  0  0  0  0  0  0
  161.5530  209.6880  151.8360 C   0  0  1  0  0  3  0  0  0  0  0  0
  161.2910  208.2170  151.5550 C   0  0  0  0  0  0  0  0  0  0  0  0
  161.5920  208.0370  147.8650 O   0  0  0  0  0  0  0  0  0  0  0  0
  160.1500  209.2700  153.8970 C   0  0  0  0  0  2  0  0  0  0  0  0
  161.5220  205.3580  151.1250 C   0  0  1  0  0  3  0  0  0  0  0  0
  160.0240  205.5780  147.9740 O   0  0  0  0  0  1  0  0  0  0  0  0
  160.9880  207.3200  152.6510 N   0  0  0  0  0  0  0  0  0  0  0  0
  163.5870  206.6810  148.3520 C   0  0  0  0  0  1  0  0  0  0  0  0
  161.2420  205.7880  148.6260 C   0  0  2  0  0  3  0  0  0  0  0  0
  161.2500  210.1100  153.2740 C   0  0  0  0  0  2  0  0  0  0  0  0
  161.8940  203.9630  145.5250 N   0  0  0  0  0  0  0  0  0  0  0  0
  162.7470  204.9200  146.1230 C   0  0  0  0  0  0  0  0  0  0  0  0
  162.1550  206.2770  146.3280 C   0  0  1  0  0  3  0  0  0  0  0  0
  159.6880  203.6130  144.5960 C   0  0  0  0  0  1  0  0  0  0  0  0
  163.9360  204.6410  146.4300 O   0  0  0  0  0  0  0  0  0  0  0  0
  160.4700  206.1850  145.5990 S   0  0  0  0  0  0  0  0  0  0  0  0
  160.7410  204.4530  145.2250 C   0  0  0  0  0  0  0  0  0  0  0  0
  160.9840  204.0110  150.9730 N   0  0  0  0  0  0  0  0  0  0  0  0
  161.2080  201.6710  150.9350 N   0  0  0  0  0  1  0  0  0  0  0  0
  161.7490  202.9770  151.0870 C   0  0  0  0  0  3  0  0  0  0  0  0
  4  5  1  6  0  0  0
  4 13  1  0  0  0  0
  5 10  2  0  0  0  0
  6  5  1  0  0  0  0
  7 11  1  0  0  0  0
  7 16  1  1  0  0  0
  7 17  1  0  0  0  0
  8 15  1  0  0  0  0
  8  1  2  0  0  0  0
  9  2  1  1  0  0  0
  9 18  1  0  0  0  0
 10  9  1  0  0  0  0
 10 15  1  0  0  0  0
 11  6  1  0  0  0  0
 12  3  1  0  0  0  0
 13 26  1  6  0  0  0
 13  8  1  0  0  0  0
 15  3  1  0  0  0  0
 17 14  1  6  0  0  0
 17  4  1  0  0  0  0
 18 12  1  0  0  0  0
 19 20  1  0  0  0  0
 20 21  1  0  0  0  0
 20 23  2  0  0  0  0
 21 24  1  1  0  0  0
 21  7  1  0  0  0  0
 22 25  1  0  0  0  0
 25 19  2  0  0  0  0
 25 24  1  0  0  0  0
 26 28  2  0  0  0  0
 27 28  1  0  0  0  0
M  END
>  <MODEL>
2

>  <REMARK>
 VINA RESULT:      -5.2      3.032      7.759
  Name = 
  2 active torsions:
  status: ('A' for Active; 'I' for Inactive)
    1  A    between atoms: C_8  and  C_14
    2  A    between atoms: N_16  and  C_19
                            x       y       z     vdW  Elec       q    Type
                         _______ _______ _______ _____ _____    ______ ____

>  <TORSDO>
F 2

$$$$
=
 OpenBabel11042421023D

 28 31  0  0  1  0  0  0  0  0999 V2000
  157.9100  213.8860  152.8350 O   0  0  0  0  0  0  0  0  0  0  0  0
  159.9640  210.4500  156.7310 N   0  0  0  0  0  1  0  0  0  0  0  0
  158.9640  214.0890  155.4110 C   0  0  0  0  0  2  0  0  0  0  0  0
  160.6640  211.5790  152.4530 C   0  0  2  0  0  3  0  0  0  0  0  0
  160.8670  211.2290  153.9130 C   0  0  0  0  0  0  0  0  0  0  0  0
  161.7000  210.0280  154.3030 C   0  0  0  0  0  2  0  0  0  0  0  0
  161.5220  209.1750  152.1190 C   0  0  1  0  0  0  0  0  0  0  0  0
  158.8050  213.0500  153.1420 C   0  0  0  0  0  0  0  0  0  0  0  0
  160.5250  211.7310  156.3350 C   0  0  1  0  0  3  0  0  0  0  0  0
  160.2670  211.9840  154.8590 C   0  0  0  0  0  0  0  0  0  0  0  0
  162.3810  209.4150  153.2230 O   0  0  0  0  0  0  0  0  0  0  0  0
  159.9240  214.1740  156.5850 C   0  0  0  0  0  2  0  0  0  0  0  0
  159.2160  211.9950  152.1550 C   0  0  1  0  0  3  0  0  0  0  0  0
  162.3030  211.0560  150.8110 O   0  0  0  0  0  1  0  0  0  0  0  0
  159.3850  213.0590  154.4580 N   0  0  0  0  0  0  0  0  0  0  0  0
  160.2240  208.4530  152.5300 C   0  0  0  0  0  1  0  0  0  0  0  0
  161.1860  210.5290  151.4640 C   0  0  2  0  0  3  0  0  0  0  0  0
  159.9660  212.8140  157.2590 C   0  0  0  0  0  2  0  0  0  0  0  0
  161.6100  206.0400  150.3560 N   0  0  0  0  0  0  0  0  0  0  0  0
  162.1770  206.8260  151.3860 C   0  0  0  0  0  0  0  0  0  0  0  0
  162.2840  208.2890  151.1020 C   0  0  1  0  0  3  0  0  0  0  0  0
  160.6920  206.1090  148.1190 C   0  0  0  0  0  1  0  0  0  0  0  0
  162.5880  206.3070  152.4580 O   0  0  0  0  0  0  0  0  0  0  0  0
  161.6730  208.4920  149.3800 S   0  0  0  0  0  0  0  0  0  0  0  0
  161.3100  206.7380  149.3160 C   0  0  0  0  0  0  0  0  0  0  0  0
  159.1040  212.5170  150.7980 N   0  0  0  0  0  0  0  0  0  0  0  0
  159.7200  213.9980  149.0800 N   0  0  0  0  0  1  0  0  0  0  0  0
  159.8450  213.5000  150.4050 C   0  0  0  0  0  3  0  0  0  0  0  0
  1  8  2  0  0  0  0
  3 12  1  0  0  0  0
  4  5  1  1  0  0  0
  5  6  1  0  0  0  0
  5 10  2  0  0  0  0
  7 16  1  1  0  0  0
  7 11  1  0  0  0  0
  8 15  1  0  0  0  0
  9  2  1  1  0  0  0
  9 18  1  0  0  0  0
 10  9  1  0  0  0  0
 11  6  1  0  0  0  0
 12 18  1  0  0  0  0
 13 26  1  6  0  0  0
 13  4  1  0  0  0  0
 13  8  1  0  0  0  0
 15 10  1  0  0  0  0
 15  3  1  0  0  0  0
 17 14  1  1  0  0  0
 17  7  1  0  0  0  0
 17  4  1  0  0  0  0
 19 20  1  0  0  0  0
 20 23  2  0  0  0  0
 21 24  1  6  0  0  0
 21 20  1  0  0  0  0
 21  7  1  0  0  0  0
 22 25  1  0  0  0  0
 25 24  1  0  0  0  0
 25 19  2  0  0  0  0
 27 28  1  0  0  0  0
 28 26  2  0  0  0  0
M  END
>  <MODEL>
3

>  <REMARK>
 VINA RESULT:      -5.0      3.467      7.296
  Name = 
  2 active torsions:
  status: ('A' for Active; 'I' for Inactive)
    1  A    between atoms: C_8  and  C_14
    2  A    between atoms: N_16  and  C_19
                            x       y       z     vdW  Elec       q    Type
                         _______ _______ _______ _____ _____    ______ ____

>  <TORSDO>
F 2

$$$$
=
 OpenBabel11042421023D

 28 31  0  0  1  0  0  0  0  0999 V2000
  160.3950  201.9480  148.8460 O   0  0  0  0  0  0  0  0  0  0  0  0
  160.4560  206.8470  146.1620 N   0  0  0  0  0  1  0  0  0  0  0  0
  161.1980  202.9220  146.3570 C   0  0  0  0  0  2  0  0  0  0  0  0
  161.9520  205.0110  149.9640 C   0  0  2  0  0  3  0  0  0  0  0  0
  161.8560  205.7960  148.6720 C   0  0  0  0  0  0  0  0  0  0  0  0
  162.0700  207.2940  148.6690 C   0  0  0  0  0  2  0  0  0  0  0  0
  161.7500  207.3600  150.9980 C   0  0  1  0  0  0  0  0  0  0  0  0
  160.8260  203.1350  148.8210 C   0  0  0  0  0  0  0  0  0  0  0  0
  161.5360  205.8740  146.1960 C   0  0  1  0  0  3  0  0  0  0  0  0
  161.5440  205.1450  147.5300 C   0  0  0  0  0  0  0  0  0  0  0  0
  162.5260  207.8200  149.9020 O   0  0  0  0  0  0  0  0  0  0  0  0
  161.9940  203.5780  145.2420 C   0  0  0  0  0  2  0  0  0  0  0  0
  160.8460  203.9530  150.0810 C   0  0  1  0  0  3  0  0  0  0  0  0
  163.3640  205.7170  151.7440 O   0  0  0  0  0  1  0  0  0  0  0  0
  161.2340  203.7320  147.5770 N   0  0  0  0  0  0  0  0  0  0  0  0
  160.2380  207.5400  150.7630 C   0  0  0  0  0  1  0  0  0  0  0  0
  162.0740  205.8720  151.2280 C   0  0  2  0  0  3  0  0  0  0  0  0
  161.4010  204.9510  144.9840 C   0  0  0  0  0  2  0  0  0  0  0  0
  161.0880  210.2450  153.0420 N   0  0  0  0  0  0  0  0  0  0  0  0
  161.9560  209.6460  152.0990 C   0  0  0  0  0  0  0  0  0  0  0  0
  162.1600  208.1740  152.2500 C   0  0  1  0  0  3  0  0  0  0  0  0
  159.7050  209.8180  154.9800 C   0  0  0  0  0  1  0  0  0  0  0  0
  162.5360  210.3290  151.2130 O   0  0  0  0  0  0  0  0  0  0  0  0
  161.2060  207.7050  153.7500 S   0  0  0  0  0  0  0  0  0  0  0  0
  160.6420  209.3990  153.9050 C   0  0  0  0  0  0  0  0  0  0  0  0
  161.0870  203.0860  151.2280 N   0  0  0  0  0  0  0  0  0  0  0  0
  162.3310  201.4620  152.3860 N   0  0  0  0  0  1  0  0  0  0  0  0
  162.1120  202.3010  151.2600 C   0  0  0  0  0  3  0  0  0  0  0  0
  3 15  1  0  0  0  0
  4  5  1  6  0  0  0
  4 13  1  0  0  0  0
  4 17  1  0  0  0  0
  6  5  1  0  0  0  0
  6 11  1  0  0  0  0
  7 16  1  6  0  0  0
  7 17  1  0  0  0  0
  7 21  1  0  0  0  0
  8  1  2  0  0  0  0
  8 13  1  0  0  0  0
  9  2  1  1  0  0  0
  9 10  1  0  0  0  0
 10 15  1  0  0  0  0
 10  5  2  0  0  0  0
 11  7  1  0  0  0  0
 12  3  1  0  0  0  0
 13 26  1  1  0  0  0
 15  8  1  0  0  0  0
 17 14  1  6  0  0  0
 18 12  1  0  0  0  0
 18  9  1  0  0  0  0
 19 25  2  0  0  0  0
 20 19  1  0  0  0  0
 21 20  1  6  0  0  0
 21 24  1  0  0  0  0
 23 20  2  0  0  0  0
 24 25  1  0  0  0  0
 25 22  1  0  0  0  0
 26 28  2  0  0  0  0
 28 27  1  0  0  0  0
M  END
>  <MODEL>
4

>  <REMARK>
 VINA RESULT:      -4.7      2.660      4.878
  Name = 
  2 active torsions:
  status: ('A' for Active; 'I' for Inactive)
    1  A    between atoms: C_8  and  C_14
    2  A    between atoms: N_16  and  C_19
                            x       y       z     vdW  Elec       q    Type
                         _______ _______ _______ _____ _____    ______ ____

>  <TORSDO>
F 2

$$$$
=
 OpenBabel11042421023D

 28 31  0  0  1  0  0  0  0  0999 V2000
  160.8690  211.0480  152.4440 O   0  0  0  0  0  0  0  0  0  0  0  0
  159.0580  206.9190  155.7430 N   0  0  0  0  0  1  0  0  0  0  0  0
  160.7370  210.5040  155.1780 C   0  0  0  0  0  2  0  0  0  0  0  0
  161.8890  207.5830  152.3350 C   0  0  2  0  0  3  0  0  0  0  0  0
  161.2740  207.1270  153.6430 C   0  0  0  0  0  0  0  0  0  0  0  0
  161.1160  205.6520  153.9410 C   0  0  0  0  0  2  0  0  0  0  0  0
  161.4110  205.1440  151.6640 C   0  0  1  0  0  0  0  0  0  0  0  0
  160.9830  209.8360  152.7810 C   0  0  0  0  0  0  0  0  0  0  0  0
  160.3090  207.6460  155.8870 C   0  0  1  0  0  3  0  0  0  0  0  0
  160.8380  208.0550  154.5220 C   0  0  0  0  0  0  0  0  0  0  0  0
  161.7400  204.7980  153.0000 O   0  0  0  0  0  0  0  0  0  0  0  0
  161.0340  209.9700  156.5690 C   0  0  0  0  0  2  0  0  0  0  0  0
  161.1360  208.7760  151.7280 C   0  0  1  0  0  3  0  0  0  0  0  0
  163.5060  206.2620  151.1970 O   0  0  0  0  0  1  0  0  0  0  0  0
  160.8970  209.4570  154.1660 N   0  0  0  0  0  0  0  0  0  0  0  0
  159.8920  205.3000  151.4550 C   0  0  0  0  0  1  0  0  0  0  0  0
  162.1280  206.4620  151.3150 C   0  0  2  0  0  3  0  0  0  0  0  0
  160.0850  208.8180  156.8440 C   0  0  0  0  0  2  0  0  0  0  0  0
  160.7940  201.8760  150.2920 N   0  0  0  0  0  0  0  0  0  0  0  0
  161.5610  202.6450  151.1980 C   0  0  0  0  0  0  0  0  0  0  0  0
  161.9280  204.0170  150.7350 C   0  0  1  0  0  3  0  0  0  0  0  0
  159.7760  201.8740  148.0980 C   0  0  0  0  0  1  0  0  0  0  0  0
  161.9280  202.1790  152.3090 O   0  0  0  0  0  0  0  0  0  0  0  0
  161.2670  204.1430  149.0240 S   0  0  0  0  0  0  0  0  0  0  0  0
  160.5720  202.4990  149.1860 C   0  0  0  0  0  0  0  0  0  0  0  0
  161.8680  209.3140  150.5880 N   0  0  0  0  0  0  0  0  0  0  0  0
  162.3660  209.4150  148.2930 N   0  0  0  0  0  1  0  0  0  0  0  0
  161.6420  208.8800  149.3920 C   0  0  0  0  0  3  0  0  0  0  0  0
  1  8  2  0  0  0  0
  3 12  1  0  0  0  0
  4  5  1  1  0  0  0
  5  6  1  0  0  0  0
  5 10  2  0  0  0  0
  7 16  1  6  0  0  0
  7 11  1  0  0  0  0
  8 15  1  0  0  0  0
  9  2  1  6  0  0  0
  9 18  1  0  0  0  0
 10  9  1  0  0  0  0
 11  6  1  0  0  0  0
 12 18  1  0  0  0  0
 13 26  1  6  0  0  0
 13  4  1  0  0  0  0
 13  8  1  0  0  0  0
 15 10  1  0  0  0  0
 15  3  1  0  0  0  0
 17 14  1  1  0  0  0
 17  7  1  0  0  0  0
 17  4  1  0  0  0  0
 19 20  1  0  0  0  0
 20 23  2  0  0  0  0
 21 24  1  6  0  0  0
 21 20  1  0  0  0  0
 21  7  1  0  0  0  0
 22 25  1  0  0  0  0
 24 25  1  0  0  0  0
 25 19  2  0  0  0  0
 27 28  1  0  0  0  0
 28 26  2  0  0  0  0
M  END
>  <MODEL>
5

>  <REMARK>
 VINA RESULT:      -4.5      2.593      6.460
  Name = 
  2 active torsions:
  status: ('A' for Active; 'I' for Inactive)
    1  A    between atoms: C_8  and  C_14
    2  A    between atoms: N_16  and  C_19
                            x       y       z     vdW  Elec       q    Type
                         _______ _______ _______ _____ _____    ______ ____

>  <TORSDO>
F 2

$$$$
=
 OpenBabel11042421023D

 28 31  0  0  1  0  0  0  0  0999 V2000
  161.0630  211.3770  153.0190 O   0  0  0  0  0  0  0  0  0  0  0  0
  159.5130  206.2890  154.7260 N   0  0  0  0  0  1  0  0  0  0  0  0
  161.1150  209.8930  155.3820 C   0  0  0  0  0  2  0  0  0  0  0  0
  162.1080  208.2120  151.6230 C   0  0  2  0  0  3  0  0  0  0  0  0
  161.5840  207.3010  152.7140 C   0  0  0  0  0  0  0  0  0  0  0  0
  161.4610  205.8130  152.4750 C   0  0  0  0  0  2  0  0  0  0  0  0
  161.6120  206.1570  150.1540 C   0  0  1  0  0  0  0  0  0  0  0  0
  161.2100  210.1290  152.8940 C   0  0  0  0  0  0  0  0  0  0  0  0
  160.7620  206.9570  155.0480 C   0  0  1  0  0  3  0  0  0  0  0  0
  161.1970  207.8420  153.8910 C   0  0  0  0  0  0  0  0  0  0  0  0
  162.0320  205.3690  151.2580 O   0  0  0  0  0  0  0  0  0  0  0  0
  161.5080  208.9090  156.4710 C   0  0  0  0  0  2  0  0  0  0  0  0
  161.3050  209.5180  151.5250 C   0  0  1  0  0  3  0  0  0  0  0  0
  163.6610  207.4360  149.9970 O   0  0  0  0  0  1  0  0  0  0  0  0
  161.2190  209.2800  154.0550 N   0  0  0  0  0  0  0  0  0  0  0  0
  160.0810  206.3270  150.1020 C   0  0  0  0  0  1  0  0  0  0  0  0
  162.2910  207.5360  150.2580 C   0  0  2  0  0  3  0  0  0  0  0  0
  160.5900  207.7040  156.3710 C   0  0  0  0  0  2  0  0  0  0  0  0
  160.6140  204.4160  147.1680 N   0  0  0  0  0  0  0  0  0  0  0  0
  161.2050  204.3100  148.4490 C   0  0  0  0  0  0  0  0  0  0  0  0
  162.0790  205.4520  148.8560 C   0  0  1  0  0  3  0  0  0  0  0  0
  160.4560  205.8020  145.1920 C   0  0  0  0  0  1  0  0  0  0  0  0
  161.0200  203.2980  149.1770 O   0  0  0  0  0  0  0  0  0  0  0  0
  162.1100  206.5780  147.4040 S   0  0  0  0  0  0  0  0  0  0  0  0
  160.9700  205.4890  146.5510 C   0  0  0  0  0  0  0  0  0  0  0  0
  161.9560  210.4500  150.6120 N   0  0  0  0  0  0  0  0  0  0  0  0
  162.2280  211.4500  148.5030 N   0  0  0  0  0  1  0  0  0  0  0  0
  161.5810  210.5370  149.3790 C   0  0  0  0  0  3  0  0  0  0  0  0
  3 12  1  0  0  0  0
  4  5  1  1  0  0  0
  5 10  2  0  0  0  0
  6  5  1  0  0  0  0
  7 16  1  1  0  0  0
  7 17  1  0  0  0  0
  7 11  1  0  0  0  0
  8  1  2  0  0  0  0
  8 15  1  0  0  0  0
  9  2  1  6  0  0  0
  9 18  1  0  0  0  0
 10 15  1  0  0  0  0
 10  9  1  0  0  0  0
 11  6  1  0  0  0  0
 13 26  1  6  0  0  0
 13  4  1  0  0  0  0
 13  8  1  0  0  0  0
 15  3  1  0  0  0  0
 17 14  1  1  0  0  0
 17  4  1  0  0  0  0
 18 12  1  0  0  0  0
 19 20  1  0  0  0  0
 20 21  1  0  0  0  0
 20 23  2  0  0  0  0
 21 24  1  6  0  0  0
 21  7  1  0  0  0  0
 22 25  1  0  0  0  0
 25 19  2  0  0  0  0
 25 24  1  0  0  0  0
 27 28  1  0  0  0  0
 28 26  2  0  0  0  0
M  END
>  <MODEL>
6

>  <REMARK>
 VINA RESULT:      -4.5      2.671      6.555
  Name = 
  2 active torsions:
  status: ('A' for Active; 'I' for Inactive)
    1  A    between atoms: C_8  and  C_14
    2  A    between atoms: N_16  and  C_19
                            x       y       z     vdW  Elec       q    Type
                         _______ _______ _______ _____ _____    ______ ____

>  <TORSDO>
F 2

$$$$
=
 OpenBabel11042421023D

 28 31  0  0  1  0  0  0  0  0999 V2000
  162.0960  210.0370  149.7530 O   0  0  0  0  0  0  0  0  0  0  0  0
  162.2840  205.6440  153.1990 N   0  0  0  0  0  1  0  0  0  0  0  0
  161.5140  207.3100  149.6460 C   0  0  0  0  0  2  0  0  0  0  0  0
  160.4600  209.7290  152.9600 C   0  0  2  0  0  3  0  0  0  0  0  0
  160.6700  208.2440  153.1770 C   0  0  0  0  0  0  0  0  0  0  0  0
  160.4630  207.6340  154.5460 C   0  0  0  0  0  2  0  0  0  0  0  0
  160.5820  209.7650  155.5320 C   0  0  1  0  0  0  0  0  0  0  0  0
  161.6740  209.5120  150.8210 C   0  0  0  0  0  0  0  0  0  0  0  0
  161.2020  205.9720  152.2860 C   0  0  1  0  0  3  0  0  0  0  0  0
  161.0770  207.4800  152.1400 C   0  0  0  0  0  0  0  0  0  0  0  0
  159.9040  208.5190  155.4990 O   0  0  0  0  0  0  0  0  0  0  0  0
  160.8190  205.9660  149.7870 C   0  0  0  0  0  2  0  0  0  0  0  0
  161.5490  210.3410  152.0670 C   0  0  1  0  0  3  0  0  0  0  0  0
  158.9040  210.9660  154.2650 O   0  0  0  0  0  1  0  0  0  0  0  0
  161.3760  208.1060  150.8690 N   0  0  0  0  0  0  0  0  0  0  0  0
  162.1090  209.6010  155.6510 C   0  0  0  0  0  1  0  0  0  0  0  0
  160.2340  210.5370  154.2440 C   0  0  2  0  0  3  0  0  0  0  0  0
  161.4370  205.2370  150.9650 C   0  0  0  0  0  2  0  0  0  0  0  0
  160.0600  213.0100  156.9940 N   0  0  0  0  0  0  0  0  0  0  0  0
  160.8260  211.8210  157.0130 C   0  0  0  0  0  0  0  0  0  0  0  0
  160.0690  210.5590  156.7590 C   0  0  1  0  0  3  0  0  0  0  0  0
  157.8270  213.8980  156.7200 C   0  0  0  0  0  1  0  0  0  0  0  0
  162.0610  211.8390  157.2600 O   0  0  0  0  0  0  0  0  0  0  0  0
  158.3120  211.0730  156.5930 S   0  0  0  0  0  0  0  0  0  0  0  0
  158.8080  212.7850  156.7880 C   0  0  0  0  0  0  0  0  0  0  0  0
  161.2070  211.7140  151.7140 N   0  0  0  0  0  0  0  0  0  0  0  0
  159.6920  213.3670  151.0070 N   0  0  0  0  0  1  0  0  0  0  0  0
  160.0070  212.0230  151.3500 C   0  0  0  0  0  3  0  0  0  0  0  0
  1  8  2  0  0  0  0
  3 12  1  0  0  0  0
  3 15  1  0  0  0  0
  4  5  1  1  0  0  0
  4 17  1  0  0  0  0
  5  6  1  0  0  0  0
  6 11  1  0  0  0  0
  7 16  1  1  0  0  0
  7 21  1  0  0  0  0
  8 15  1  0  0  0  0
  8 13  1  0  0  0  0
  9  2  1  1  0  0  0
 10  9  1  0  0  0  0
 10  5  2  0  0  0  0
 11  7  1  0  0  0  0
 12 18  1  0  0  0  0
 13 26  1  6  0  0  0
 13  4  1  0  0  0  0
 15 10  1  0  0  0  0
 17 14  1  1  0  0  0
 17  7  1  0  0  0  0
 18  9  1  0  0  0  0
 19 20  1  0  0  0  0
 20 23  2  0  0  0  0
 21 24  1  6  0  0  0
 21 20  1  0  0  0  0
 22 25  1  0  0  0  0
 24 25  1  0  0  0  0
 25 19  2  0  0  0  0
 27 28  1  0  0  0  0
 28 26  2  0  0  0  0
M  END
>  <MODEL>
7

>  <REMARK>
 VINA RESULT:      -4.3      2.860      3.440
  Name = 
  2 active torsions:
  status: ('A' for Active; 'I' for Inactive)
    1  A    between atoms: C_8  and  C_14
    2  A    between atoms: N_16  and  C_19
                            x       y       z     vdW  Elec       q    Type
                         _______ _______ _______ _____ _____    ______ ____

>  <TORSDO>
F 2

$$$$
=
 OpenBabel11042421023D

 28 31  0  0  1  0  0  0  0  0999 V2000
  161.8560  210.3940  150.7000 O   0  0  0  0  0  0  0  0  0  0  0  0
  161.9490  207.1780  155.2660 N   0  0  0  0  0  1  0  0  0  0  0  0
  161.6450  207.6790  151.3110 C   0  0  0  0  0  2  0  0  0  0  0  0
  159.7090  210.6780  153.5920 C   0  0  2  0  0  3  0  0  0  0  0  0
  160.0580  209.3630  154.2600 C   0  0  0  0  0  0  0  0  0  0  0  0
  159.6790  209.1140  155.7030 C   0  0  0  0  0  2  0  0  0  0  0  0
  159.3500  211.4190  156.0310 C   0  0  1  0  0  0  0  0  0  0  0  0
  161.3130  210.1080  151.8030 C   0  0  0  0  0  0  0  0  0  0  0  0
  161.0210  207.0610  154.1540 C   0  0  1  0  0  3  0  0  0  0  0  0
  160.7400  208.4310  153.5590 C   0  0  0  0  0  0  0  0  0  0  0  0
  158.8500  210.1120  156.2680 O   0  0  0  0  0  0  0  0  0  0  0  0
  161.1080  206.3230  151.7370 C   0  0  0  0  0  2  0  0  0  0  0  0
  160.8590  211.2060  152.7230 C   0  0  1  0  0  3  0  0  0  0  0  0
  157.7990  211.9340  154.2460 O   0  0  0  0  0  1  0  0  0  0  0  0
  161.1880  208.7360  152.2160 N   0  0  0  0  0  0  0  0  0  0  0  0
  160.8380  211.5560  156.4080 C   0  0  0  0  0  1  0  0  0  0  0  0
  159.1530  211.7480  154.5390 C   0  0  2  0  0  3  0  0  0  0  0  0
  161.5840  206.0520  153.1530 C   0  0  0  0  0  2  0  0  0  0  0  0
  157.4140  214.4510  156.0690 N   0  0  0  0  0  0  0  0  0  0  0  0
  158.6330  213.8290  156.4300 C   0  0  0  0  0  0  0  0  0  0  0  0
  158.5260  212.4120  156.8890 C   0  0  1  0  0  3  0  0  0  0  0  0
  155.0230  214.1290  155.9090 C   0  0  0  0  0  1  0  0  0  0  0  0
  159.7260  214.4530  156.3890 O   0  0  0  0  0  0  0  0  0  0  0  0
  156.7260  212.0360  156.8830 S   0  0  0  0  0  0  0  0  0  0  0  0
  156.3990  213.6760  156.2370 C   0  0  0  0  0  0  0  0  0  0  0  0
  160.4210  212.3560  151.9400 N   0  0  0  0  0  0  0  0  0  0  0  0
  158.8400  213.5050  150.6340 N   0  0  0  0  0  1  0  0  0  0  0  0
  159.2500  212.3760  151.3950 C   0  0  0  0  0  3  0  0  0  0  0  0
  1  8  2  0  0  0  0
  3 12  1  0  0  0  0
  3 15  1  0  0  0  0
  4  5  1  1  0  0  0
  4 17  1  0  0  0  0
  5  6  1  0  0  0  0
  6 11  1  0  0  0  0
  7 11  1  0  0  0  0
  7 16  1  1  0  0  0
  7 21  1  0  0  0  0
  8 15  1  0  0  0  0
  8 13  1  0  0  0  0
  9  2  1  1  0  0  0
 10  9  1  0  0  0  0
 10  5  2  0  0  0  0
 12 18  1  0  0  0  0
 13 26  1  6  0  0  0
 13  4  1  0  0  0  0
 15 10  1  0  0  0  0
 17 14  1  1  0  0  0
 17  7  1  0  0  0  0
 18  9  1  0  0  0  0
 19 25  2  0  0  0  0
 19 20  1  0  0  0  0
 21 20  1  6  0  0  0
 22 25  1  0  0  0  0
 23 20  2  0  0  0  0
 24 21  1  0  0  0  0
 25 24  1  0  0  0  0
 27 28  1  0  0  0  0
 28 26  2  0  0  0  0
M  END
>  <MODEL>
8

>  <REMARK>
 VINA RESULT:      -4.1      3.979      5.186
  Name = 
  2 active torsions:
  status: ('A' for Active; 'I' for Inactive)
    1  A    between atoms: C_8  and  C_14
    2  A    between atoms: N_16  and  C_19
                            x       y       z     vdW  Elec       q    Type
                         _______ _______ _______ _____ _____    ______ ____

>  <TORSDO>
F 2

$$$$
=
 OpenBabel11042421023D

 28 31  0  0  1  0  0  0  0  0999 V2000
  161.4230  205.2390  147.1280 O   0  0  0  0  0  0  0  0  0  0  0  0
  162.1490  201.9190  151.5610 N   0  0  0  0  0  1  0  0  0  0  0  0
  160.4710  202.7770  148.0350 C   0  0  0  0  0  2  0  0  0  0  0  0
  160.9270  206.1200  150.5970 C   0  0  2  0  0  3  0  0  0  0  0  0
  160.9920  204.7280  151.1930 C   0  0  0  0  0  0  0  0  0  0  0  0
  161.1730  204.5420  152.6830 C   0  0  0  0  0  2  0  0  0  0  0  0
  161.9040  206.7670  152.8890 C   0  0  1  0  0  0  0  0  0  0  0  0
  161.3140  205.1070  148.3790 C   0  0  0  0  0  0  0  0  0  0  0  0
  160.8790  202.2470  150.9340 C   0  0  1  0  0  3  0  0  0  0  0  0
  160.9200  203.6580  150.3710 C   0  0  0  0  0  0  0  0  0  0  0  0
  161.0920  205.7400  153.4340 O   0  0  0  0  0  0  0  0  0  0  0  0
  159.6860  201.7060  148.7720 C   0  0  0  0  0  2  0  0  0  0  0  0
  161.7270  206.2270  149.2910 C   0  0  1  0  0  3  0  0  0  0  0  0
  160.0810  207.9640  151.8380 O   0  0  0  0  0  1  0  0  0  0  0  0
  160.8600  203.8620  148.9390 N   0  0  0  0  0  0  0  0  0  0  0  0
  163.3460  206.2960  152.6190 C   0  0  0  0  0  1  0  0  0  0  0  0
  161.2560  207.2520  151.5780 C   0  0  2  0  0  3  0  0  0  0  0  0
  160.5570  201.1720  149.8940 C   0  0  0  0  0  2  0  0  0  0  0  0
  160.6090  210.0020  153.7820 N   0  0  0  0  0  0  0  0  0  0  0  0
  161.7150  209.2760  153.2820 C   0  0  0  0  0  0  0  0  0  0  0  0
  161.9450  207.9370  153.9040 C   0  0  1  0  0  3  0  0  0  0  0  0
  158.8030  209.9620  155.3910 C   0  0  0  0  0  1  0  0  0  0  0  0
  162.4660  209.7530  152.3910 O   0  0  0  0  0  0  0  0  0  0  0  0
  160.6660  207.7870  155.2160 S   0  0  0  0  0  0  0  0  0  0  0  0
  160.0010  209.3790  154.7310 C   0  0  0  0  0  0  0  0  0  0  0  0
  161.4780  207.5090  148.6430 N   0  0  0  0  0  0  0  0  0  0  0  0
  161.9570  209.7790  148.2650 N   0  0  0  0  0  1  0  0  0  0  0  0
  162.2150  208.5360  148.9050 C   0  0  0  0  0  3  0  0  0  0  0  0
  1  8  2  0  0  0  0
  3 12  1  0  0  0  0
  3 15  1  0  0  0  0
  4  5  1  1  0  0  0
  4 17  1  0  0  0  0
  5  6  1  0  0  0  0
  6 11  1  0  0  0  0
  7 16  1  6  0  0  0
  7 11  1  0  0  0  0
  7 21  1  0  0  0  0
  8 15  1  0  0  0  0
  8 13  1  0  0  0  0
  9  2  1  6  0  0  0
 10  9  1  0  0  0  0
 10  5  2  0  0  0  0
 12 18  1  0  0  0  0
 13 26  1  6  0  0  0
 13  4  1  0  0  0  0
 15 10  1  0  0  0  0
 17 14  1  1  0  0  0
 17  7  1  0  0  0  0
 18  9  1  0  0  0  0
 19 25  2  0  0  0  0
 20 19  1  0  0  0  0
 21 20  1  6  0  0  0
 21 24  1  0  0  0  0
 23 20  2  0  0  0  0
 25 24  1  0  0  0  0
 25 22  1  0  0  0  0
 26 28  2  0  0  0  0
 27 28  1  0  0  0  0
M  END
>  <MODEL>
9

>  <REMARK>
 VINA RESULT:      -4.0      1.957      2.486
  Name = 
  2 active torsions:
  status: ('A' for Active; 'I' for Inactive)
    1  A    between atoms: C_8  and  C_14
    2  A    between atoms: N_16  and  C_19
                            x       y       z     vdW  Elec       q    Type
                         _______ _______ _______ _____ _____    ______ ____

>  <TORSDO>
F 2

$$$$
