=
 OpenBabel11052411483D

 40 41  0  0  1  0  0  0  0  0999 V2000
  161.1140  207.9650  153.8150 N   0  0  0  0  0  2  0  0  0  0  0  0
  161.6760  208.0630  151.3910 N   0  0  0  0  0  0  0  0  0  0  0  0
  160.9800  208.6000  152.5340 C   0  0  0  0  0  0  0  0  0  0  0  0
  160.2380  209.6130  152.4120 O   0  0  0  0  0  0  0  0  0  0  0  0
  160.4870  208.4370  155.0480 C   0  0  1  0  0  3  0  0  0  0  0  0
  159.9680  207.2620  155.8620 C   0  0  0  0  0  1  0  0  0  0  0  0
  161.4610  209.2770  155.8600 C   0  0  0  0  0  2  0  0  0  0  0  0
  160.7500  210.3490  156.5360 N   0  0  0  0  0  2  0  0  0  0  0  0
  159.7330  210.8200  155.6110 C   0  0  0  0  0  2  0  0  0  0  0  0
  159.0570  212.0890  156.1290 C   0  0  1  0  0  3  0  0  0  0  0  0
  160.0850  213.1420  156.5020 C   0  0  0  0  0  1  0  0  0  0  0  0
  158.4000  214.0270  154.3770 O   0  0  0  0  0  0  0  0  0  0  0  0
  156.3310  213.0780  155.7830 C   0  0  0  0  0  1  0  0  0  0  0  0
  157.6340  211.7590  153.8480 O   0  0  0  0  0  0  0  0  0  0  0  0
  157.8700  212.7450  154.9580 S   0  0  0  0  0  0  0  0  0  0  0  0
  161.8760  208.8300  150.1780 C   0  0  0  0  0  0  0  0  0  0  0  0
  161.7340  208.0860  148.7160 S   0  0  0  0  0  0  0  0  0  0  0  0
  162.3380  210.2420  150.2850 C   0  0  0  0  0  3  0  0  0  0  0  0
  162.1280  211.2780  149.4630 C   0  0  0  0  0  3  0  0  0  0  0  0
  161.3220  211.2650  148.2030 C   0  0  0  0  0  2  0  0  0  0  0  0
  162.4230  213.4380  144.1170 C   0  0  0  0  0  3  0  0  0  0  0  0
  158.8060  212.4120  146.9580 O   0  0  0  0  0  0  0  0  0  0  0  0
  161.7700  213.2160  145.2600 C   0  0  0  0  0  0  0  0  0  0  0  0
  161.0930  212.6800  147.6780 C   0  0  2  0  0  3  0  0  0  0  0  0
  160.3870  212.9130  145.3200 N   0  0  0  0  0  2  0  0  0  0  0  0
  160.0040  212.6550  146.6570 C   0  0  0  0  0  0  0  0  0  0  0  0
  162.6080  213.2970  146.8380 S   0  0  0  0  0  0  0  0  0  0  0  0
  160.9230  214.2720  142.3950 O   0  0  0  0  0  1  0  0  0  0  0  0
  161.8190  213.3430  142.8190 N   0  0  0  0  0  0  0  0  0  0  0  0
  161.9830  212.1010  142.0740 C   0  0  1  0  0  3  0  0  0  0  0  0
  161.3030  212.2600  139.8090 O   0  0  0  0  0  0  0  0  0  0  0  0
  160.6570  211.4120  141.9190 C   0  0  0  0  0  2  0  0  0  0  0  0
  160.4940  211.2900  140.4210 C   0  0  0  0  0  2  0  0  0  0  0  0
  162.4200  212.3840  140.6490 C   0  0  0  0  0  2  0  0  0  0  0  0
  162.1910  206.6980  151.4790 C   0  0  0  0  0  2  0  0  0  0  0  0
  161.0420  205.7200  151.6600 C   0  0  0  0  0  2  0  0  0  0  0  0
  161.2640  204.5140  150.8190 C   0  0  0  0  0  0  0  0  0  0  0  0
  161.2220  203.4300  148.5440 C   0  0  0  0  0  1  0  0  0  0  0  0
  161.0230  204.5790  149.4120 N   0  0  0  0  0  2  0  0  0  0  0  0
  161.6730  203.4480  151.3520 O   0  0  0  0  0  0  0  0  0  0  0  0
  1  5  1  0  0  0  0
  2 35  1  0  0  0  0
  2  3  1  0  0  0  0
  3  1  1  0  0  0  0
  4  3  2  0  0  0  0
  5  7  1  0  0  0  0
  5  6  1  1  0  0  0
  7  8  1  0  0  0  0
  9 10  1  0  0  0  0
  9  8  1  0  0  0  0
 10 11  1  6  0  0  0
 12 15  2  0  0  0  0
 14 15  2  0  0  0  0
 15 13  1  0  0  0  0
 15 10  1  0  0  0  0
 16 18  1  0  0  0  0
 16  2  1  0  0  0  0
 17 16  2  0  0  0  0
 19 18  2  0  0  0  0
 20 19  1  0  0  0  0
 21 23  2  0  0  0  0
 23 25  1  0  0  0  0
 23 27  1  0  0  0  0
 24 20  1  6  0  0  0
 25 26  1  0  0  0  0
 26 22  2  0  0  0  0
 26 24  1  0  0  0  0
 27 24  1  0  0  0  0
 28 29  1  0  0  0  0
 29 21  1  0  0  0  0
 30 29  1  1  0  0  0
 31 33  1  0  0  0  0
 31 34  1  0  0  0  0
 32 30  1  0  0  0  0
 33 32  1  0  0  0  0
 34 30  1  0  0  0  0
 35 36  1  0  0  0  0
 37 40  2  0  0  0  0
 37 36  1  0  0  0  0
 38 39  1  0  0  0  0
 39 37  1  0  0  0  0
M  END
>  <MODEL>
1

>  <REMARK>
 VINA RESULT:      -6.3      0.000      0.000
  Name = 
  15 active torsions:
  status: ('A' for Active; 'I' for Inactive)
    1  A    between atoms: C_1  and  C_2
    2  A    between atoms: C_1  and  C_23
    3  A    between atoms: N_3  and  C_6
    4  A    between atoms: C_4  and  C_6
    5  A    between atoms: C_4  and  N_7
    6  A    between atoms: C_5  and  N_31
    7  A    between atoms: N_7  and  C_37
    8  A    between atoms: C_9  and  C_20
    9  A    between atoms: C_9  and  N_21
   10  A    between atoms: C_12  and  N_31
   11  A    between atoms: C_13  and  C_37
   12  A    between atoms: C_13  and  S_39
   13  A    between atoms: N_21  and  C_23
   14  A    between atoms: C_22  and  C_33
   15  A    between atoms: C_25  and  C_33
                            x       y       z     vdW  Elec       q    Type
                         _______ _______ _______ _____ _____    ______ ____

>  <TORSDO>
F 15

$$$$
=
 OpenBabel11052411483D

 40 41  0  0  1  0  0  0  0  0999 V2000
  161.5270  206.5870  147.2840 N   0  0  0  0  0  2  0  0  0  0  0  0
  161.7410  207.7150  149.4940 N   0  0  0  0  0  0  0  0  0  0  0  0
  161.1030  206.7360  148.6490 C   0  0  0  0  0  0  0  0  0  0  0  0
  160.1620  206.0240  149.0930 O   0  0  0  0  0  0  0  0  0  0  0  0
  160.9820  205.6090  146.3460 C   0  0  1  0  0  3  0  0  0  0  0  0
  160.2850  206.3130  145.1920 C   0  0  0  0  0  1  0  0  0  0  0  0
  162.0750  204.6800  145.8390 C   0  0  0  0  0  2  0  0  0  0  0  0
  161.6680  203.2950  146.0030 N   0  0  0  0  0  2  0  0  0  0  0  0
  161.5090  203.0760  147.4320 C   0  0  0  0  0  2  0  0  0  0  0  0
  160.7250  201.7940  147.7120 C   0  0  1  0  0  3  0  0  0  0  0  0
  161.4520  200.5790  147.1640 C   0  0  0  0  0  1  0  0  0  0  0  0
  158.9300  201.1910  149.6270 O   0  0  0  0  0  0  0  0  0  0  0  0
  160.6480  203.1250  150.3110 C   0  0  0  0  0  1  0  0  0  0  0  0
  161.2520  200.5260  150.0460 O   0  0  0  0  0  0  0  0  0  0  0  0
  160.3700  201.5910  149.4560 S   0  0  0  0  0  0  0  0  0  0  0  0
  161.6230  207.6820  150.9380 C   0  0  0  0  0  0  0  0  0  0  0  0
  162.1480  206.3560  151.7620 S   0  0  0  0  0  0  0  0  0  0  0  0
  160.9070  208.7890  151.6290 C   0  0  0  0  0  3  0  0  0  0  0  0
  160.6370  208.9560  152.9310 C   0  0  0  0  0  3  0  0  0  0  0  0
  161.0340  208.0410  154.0450 C   0  0  0  0  0  2  0  0  0  0  0  0
  159.9310  212.4080  155.5760 C   0  0  0  0  0  3  0  0  0  0  0  0
  159.7500  207.8580  156.7870 O   0  0  0  0  0  0  0  0  0  0  0  0
  160.3130  211.1320  155.6570 C   0  0  0  0  0  0  0  0  0  0  0  0
  161.3890  208.8260  155.3050 C   0  0  2  0  0  3  0  0  0  0  0  0
  159.5850  210.1440  156.3660 N   0  0  0  0  0  2  0  0  0  0  0  0
  160.1980  208.8800  156.2040 C   0  0  0  0  0  0  0  0  0  0  0  0
  161.8160  210.5620  154.8710 S   0  0  0  0  0  0  0  0  0  0  0  0
  158.1700  212.3470  157.2520 O   0  0  0  0  0  1  0  0  0  0  0  0
  158.7160  212.9160  156.1460 N   0  0  0  0  0  0  0  0  0  0  0  0
  157.9450  213.8820  155.3710 C   0  0  1  0  0  3  0  0  0  0  0  0
  156.1590  212.9070  154.1560 O   0  0  0  0  0  0  0  0  0  0  0  0
  158.3320  213.8070  153.9220 C   0  0  0  0  0  2  0  0  0  0  0  0
  157.0300  213.4920  153.2230 C   0  0  0  0  0  2  0  0  0  0  0  0
  156.4720  213.5210  155.3780 C   0  0  0  0  0  2  0  0  0  0  0  0
  162.5280  208.7680  148.8550 C   0  0  0  0  0  2  0  0  0  0  0  0
  161.6050  209.7980  148.2250 C   0  0  0  0  0  2  0  0  0  0  0  0
  162.0150  211.1660  148.6360 C   0  0  0  0  0  0  0  0  0  0  0  0
  162.4030  213.5800  148.0250 C   0  0  0  0  0  1  0  0  0  0  0  0
  162.0100  212.2250  147.6770 N   0  0  0  0  0  2  0  0  0  0  0  0
  162.3530  211.3840  149.8310 O   0  0  0  0  0  0  0  0  0  0  0  0
  1  3  1  0  0  0  0
  2 16  1  0  0  0  0
  3  4  2  0  0  0  0
  3  2  1  0  0  0  0
  5  6  1  6  0  0  0
  5  1  1  0  0  0  0
  7  8  1  0  0  0  0
  7  5  1  0  0  0  0
  8  9  1  0  0  0  0
  9 10  1  0  0  0  0
 10 11  1  1  0  0  0
 10 15  1  0  0  0  0
 15 12  2  0  0  0  0
 15 14  2  0  0  0  0
 15 13  1  0  0  0  0
 16 18  1  0  0  0  0
 16 17  2  0  0  0  0
 18 19  2  0  0  0  0
 19 20  1  0  0  0  0
 21 23  2  0  0  0  0
 21 29  1  0  0  0  0
 23 25  1  0  0  0  0
 24 20  1  6  0  0  0
 24 26  1  0  0  0  0
 26 25  1  0  0  0  0
 26 22  2  0  0  0  0
 27 24  1  0  0  0  0
 27 23  1  0  0  0  0
 29 28  1  0  0  0  0
 30 34  1  0  0  0  0
 30 29  1  1  0  0  0
 31 34  1  0  0  0  0
 32 30  1  0  0  0  0
 33 32  1  0  0  0  0
 33 31  1  0  0  0  0
 35  2  1  0  0  0  0
 36 37  1  0  0  0  0
 36 35  1  0  0  0  0
 37 40  2  0  0  0  0
 39 38  1  0  0  0  0
 39 37  1  0  0  0  0
M  END
>  <MODEL>
2

>  <REMARK>
 VINA RESULT:      -6.2      3.966     10.461
  Name = 
  15 active torsions:
  status: ('A' for Active; 'I' for Inactive)
    1  A    between atoms: C_1  and  C_2
    2  A    between atoms: C_1  and  C_23
    3  A    between atoms: N_3  and  C_6
    4  A    between atoms: C_4  and  C_6
    5  A    between atoms: C_4  and  N_7
    6  A    between atoms: C_5  and  N_31
    7  A    between atoms: N_7  and  C_37
    8  A    between atoms: C_9  and  C_20
    9  A    between atoms: C_9  and  N_21
   10  A    between atoms: C_12  and  N_31
   11  A    between atoms: C_13  and  C_37
   12  A    between atoms: C_13  and  S_39
   13  A    between atoms: N_21  and  C_23
   14  A    between atoms: C_22  and  C_33
   15  A    between atoms: C_25  and  C_33
                            x       y       z     vdW  Elec       q    Type
                         _______ _______ _______ _____ _____    ______ ____

>  <TORSDO>
F 15

$$$$
=
 OpenBabel11052411483D

 40 41  0  0  1  0  0  0  0  0999 V2000
  161.5810  211.0710  150.3280 N   0  0  0  0  0  2  0  0  0  0  0  0
  161.0110  213.0130  148.8770 N   0  0  0  0  0  0  0  0  0  0  0  0
  161.7550  211.7990  149.1020 C   0  0  0  0  0  0  0  0  0  0  0  0
  162.5730  211.3810  148.2370 O   0  0  0  0  0  0  0  0  0  0  0  0
  162.2520  209.8140  150.6520 C   0  0  1  0  0  3  0  0  0  0  0  0
  162.3700  209.6490  152.1600 C   0  0  0  0  0  1  0  0  0  0  0  0
  161.5190  208.6360  150.0290 C   0  0  0  0  0  2  0  0  0  0  0  0
  162.2270  208.1770  148.8470 N   0  0  0  0  0  2  0  0  0  0  0  0
  161.2670  207.4250  148.0550 C   0  0  0  0  0  2  0  0  0  0  0  0
  161.7570  206.0000  147.7970 C   0  0  1  0  0  3  0  0  0  0  0  0
  161.0940  205.0150  148.7450 C   0  0  0  0  0  1  0  0  0  0  0  0
  160.2960  206.1880  145.5430 O   0  0  0  0  0  0  0  0  0  0  0  0
  161.2810  203.7440  146.0050 C   0  0  0  0  0  1  0  0  0  0  0  0
  162.7130  205.8860  145.2660 O   0  0  0  0  0  0  0  0  0  0  0  0
  161.5170  205.5040  146.0930 S   0  0  0  0  0  0  0  0  0  0  0  0
  160.8630  213.5950  147.5580 C   0  0  0  0  0  0  0  0  0  0  0  0
  162.1160  214.4390  146.9010 S   0  0  0  0  0  0  0  0  0  0  0  0
  159.5370  213.5310  146.8860 C   0  0  0  0  0  3  0  0  0  0  0  0
  159.1940  212.9830  145.7130 C   0  0  0  0  0  3  0  0  0  0  0  0
  160.1000  212.2510  144.7750 C   0  0  0  0  0  2  0  0  0  0  0  0
  162.4940  211.4470  140.7440 C   0  0  0  0  0  3  0  0  0  0  0  0
  158.5140  213.3280  142.4250 O   0  0  0  0  0  0  0  0  0  0  0  0
  161.6900  212.0880  141.5950 C   0  0  0  0  0  0  0  0  0  0  0  0
  160.5860  213.1610  143.6510 C   0  0  2  0  0  3  0  0  0  0  0  0
  160.3200  212.3390  141.3330 N   0  0  0  0  0  2  0  0  0  0  0  0
  159.7190  212.9650  142.4510 C   0  0  0  0  0  0  0  0  0  0  0  0
  162.2990  212.7040  143.1600 S   0  0  0  0  0  0  0  0  0  0  0  0
  162.3470  211.5010  138.3180 O   0  0  0  0  0  1  0  0  0  0  0  0
  162.0570  210.8910  139.4960 N   0  0  0  0  0  0  0  0  0  0  0  0
  161.0800  209.8090  139.5310 C   0  0  1  0  0  3  0  0  0  0  0  0
  161.8650  207.7950  138.5580 O   0  0  0  0  0  0  0  0  0  0  0  0
  160.4430  209.6450  138.1800 C   0  0  0  0  0  2  0  0  0  0  0  0
  160.7490  208.2110  137.8160 C   0  0  0  0  0  2  0  0  0  0  0  0
  161.7630  208.4780  139.7800 C   0  0  0  0  0  2  0  0  0  0  0  0
  160.3920  213.6640  150.0300 C   0  0  0  0  0  2  0  0  0  0  0  0
  158.8990  213.3800  150.0480 C   0  0  0  0  0  2  0  0  0  0  0  0
  158.4370  213.1760  151.4460 C   0  0  0  0  0  0  0  0  0  0  0  0
  158.4310  211.7660  153.5350 C   0  0  0  0  0  1  0  0  0  0  0  0
  158.8550  212.0160  152.1670 N   0  0  0  0  0  2  0  0  0  0  0  0
  157.6890  214.0340  151.9870 O   0  0  0  0  0  0  0  0  0  0  0  0
  1  5  1  0  0  0  0
  2  3  1  0  0  0  0
  2 35  1  0  0  0  0
  3  1  1  0  0  0  0
  4  3  2  0  0  0  0
  5  6  1  1  0  0  0
  7  5  1  0  0  0  0
  8  7  1  0  0  0  0
  9  8  1  0  0  0  0
 10  9  1  0  0  0  0
 10 11  1  1  0  0  0
 12 15  2  0  0  0  0
 13 15  1  0  0  0  0
 14 15  2  0  0  0  0
 15 10  1  0  0  0  0
 16  2  1  0  0  0  0
 17 16  2  0  0  0  0
 18 16  1  0  0  0  0
 19 18  2  0  0  0  0
 20 19  1  0  0  0  0
 21 23  2  0  0  0  0
 22 26  2  0  0  0  0
 23 27  1  0  0  0  0
 24 20  1  1  0  0  0
 25 23  1  0  0  0  0
 25 26  1  0  0  0  0
 26 24  1  0  0  0  0
 27 24  1  0  0  0  0
 28 29  1  0  0  0  0
 29 21  1  0  0  0  0
 30 29  1  6  0  0  0
 30 34  1  0  0  0  0
 31 34  1  0  0  0  0
 32 30  1  0  0  0  0
 33 32  1  0  0  0  0
 33 31  1  0  0  0  0
 35 36  1  0  0  0  0
 36 37  1  0  0  0  0
 37 40  2  0  0  0  0
 37 39  1  0  0  0  0
 39 38  1  0  0  0  0
M  END
>  <MODEL>
3

>  <REMARK>
 VINA RESULT:      -6.2      3.300      7.215
  Name = 
  15 active torsions:
  status: ('A' for Active; 'I' for Inactive)
    1  A    between atoms: C_1  and  C_2
    2  A    between atoms: C_1  and  C_23
    3  A    between atoms: N_3  and  C_6
    4  A    between atoms: C_4  and  C_6
    5  A    between atoms: C_4  and  N_7
    6  A    between atoms: C_5  and  N_31
    7  A    between atoms: N_7  and  C_37
    8  A    between atoms: C_9  and  C_20
    9  A    between atoms: C_9  and  N_21
   10  A    between atoms: C_12  and  N_31
   11  A    between atoms: C_13  and  C_37
   12  A    between atoms: C_13  and  S_39
   13  A    between atoms: N_21  and  C_23
   14  A    between atoms: C_22  and  C_33
   15  A    between atoms: C_25  and  C_33
                            x       y       z     vdW  Elec       q    Type
                         _______ _______ _______ _____ _____    ______ ____

>  <TORSDO>
F 15

$$$$
=
 OpenBabel11052411483D

 40 41  0  0  1  0  0  0  0  0999 V2000
  160.9880  207.7960  152.0580 N   0  0  0  0  0  2  0  0  0  0  0  0
  160.9090  210.2610  151.7130 N   0  0  0  0  0  0  0  0  0  0  0  0
  161.4920  208.9770  151.4140 C   0  0  0  0  0  0  0  0  0  0  0  0
  162.4560  208.8850  150.6060 O   0  0  0  0  0  0  0  0  0  0  0  0
  161.4740  206.4410  151.8100 C   0  0  1  0  0  3  0  0  0  0  0  0
  161.2930  205.5770  153.0490 C   0  0  0  0  0  1  0  0  0  0  0  0
  160.7720  205.8270  150.6080 C   0  0  0  0  0  2  0  0  0  0  0  0
  161.6160  204.8130  150.0010 N   0  0  0  0  0  2  0  0  0  0  0  0
  160.7670  204.0560  149.0950 C   0  0  0  0  0  2  0  0  0  0  0  0
  161.5920  203.3770  148.0020 C   0  0  1  0  0  3  0  0  0  0  0  0
  160.9740  202.0490  147.5970 C   0  0  0  0  0  1  0  0  0  0  0  0
  163.2770  204.7690  146.4280 O   0  0  0  0  0  0  0  0  0  0  0  0
  160.9000  205.9420  146.7890 C   0  0  0  0  0  1  0  0  0  0  0  0
  161.3440  203.7380  145.3290 O   0  0  0  0  0  0  0  0  0  0  0  0
  161.8180  204.4350  146.5740 S   0  0  0  0  0  0  0  0  0  0  0  0
  161.1120  211.4170  150.8640 C   0  0  0  0  0  0  0  0  0  0  0  0
  160.2000  212.7680  151.1050 S   0  0  0  0  0  0  0  0  0  0  0  0
  162.0440  211.3100  149.7090 C   0  0  0  0  0  3  0  0  0  0  0  0
  161.8700  211.6660  148.4290 C   0  0  0  0  0  3  0  0  0  0  0  0
  160.6540  212.3090  147.8430 C   0  0  0  0  0  2  0  0  0  0  0  0
  162.6230  213.0940  143.5840 C   0  0  0  0  0  3  0  0  0  0  0  0
  158.8260  214.0810  146.1950 O   0  0  0  0  0  0  0  0  0  0  0  0
  161.9070  213.3560  144.6800 C   0  0  0  0  0  0  0  0  0  0  0  0
  161.0150  213.5790  147.0780 C   0  0  2  0  0  3  0  0  0  0  0  0
  160.5160  213.6240  144.6560 N   0  0  0  0  0  2  0  0  0  0  0  0
  160.0300  213.7850  145.9750 C   0  0  0  0  0  0  0  0  0  0  0  0
  162.6710  213.4000  146.2970 S   0  0  0  0  0  0  0  0  0  0  0  0
  161.8230  214.1130  141.5260 O   0  0  0  0  0  1  0  0  0  0  0  0
  162.0620  213.0000  142.2670 N   0  0  0  0  0  0  0  0  0  0  0  0
  161.5140  211.7160  141.8440 C   0  0  1  0  0  3  0  0  0  0  0  0
  161.2950  211.5110  139.4920 O   0  0  0  0  0  0  0  0  0  0  0  0
  160.0650  211.8690  141.4790 C   0  0  0  0  0  2  0  0  0  0  0  0
  160.0090  211.3990  140.0440 C   0  0  0  0  0  2  0  0  0  0  0  0
  162.1700  211.2510  140.5580 C   0  0  0  0  0  2  0  0  0  0  0  0
  160.0880  210.3800  152.9170 C   0  0  0  0  0  2  0  0  0  0  0  0
  160.9750  210.5950  154.1320 C   0  0  0  0  0  2  0  0  0  0  0  0
  160.4490  209.8220  155.2880 C   0  0  0  0  0  0  0  0  0  0  0  0
  160.0770  207.5950  156.4080 C   0  0  0  0  0  1  0  0  0  0  0  0
  160.5750  208.3990  155.3040 N   0  0  0  0  0  2  0  0  0  0  0  0
  159.9070  210.4300  156.2500 O   0  0  0  0  0  0  0  0  0  0  0  0
  2 35  1  0  0  0  0
  3  2  1  0  0  0  0
  3  1  1  0  0  0  0
  4  3  2  0  0  0  0
  5  1  1  0  0  0  0
  5  6  1  1  0  0  0
  7  5  1  0  0  0  0
  8  7  1  0  0  0  0
  9  8  1  0  0  0  0
 10 11  1  6  0  0  0
 10  9  1  0  0  0  0
 12 15  2  0  0  0  0
 14 15  2  0  0  0  0
 15 13  1  0  0  0  0
 15 10  1  0  0  0  0
 16 17  2  0  0  0  0
 16  2  1  0  0  0  0
 18 16  1  0  0  0  0
 19 18  2  0  0  0  0
 20 19  1  0  0  0  0
 21 23  2  0  0  0  0
 23 27  1  0  0  0  0
 24 20  1  6  0  0  0
 25 23  1  0  0  0  0
 25 26  1  0  0  0  0
 26 22  2  0  0  0  0
 26 24  1  0  0  0  0
 27 24  1  0  0  0  0
 28 29  1  0  0  0  0
 29 21  1  0  0  0  0
 30 29  1  6  0  0  0
 31 33  1  0  0  0  0
 31 34  1  0  0  0  0
 32 30  1  0  0  0  0
 33 32  1  0  0  0  0
 34 30  1  0  0  0  0
 35 36  1  0  0  0  0
 36 37  1  0  0  0  0
 37 39  1  0  0  0  0
 37 40  2  0  0  0  0
 39 38  1  0  0  0  0
M  END
>  <MODEL>
4

>  <REMARK>
 VINA RESULT:      -6.1      2.197      6.312
  Name = 
  15 active torsions:
  status: ('A' for Active; 'I' for Inactive)
    1  A    between atoms: C_1  and  C_2
    2  A    between atoms: C_1  and  C_23
    3  A    between atoms: N_3  and  C_6
    4  A    between atoms: C_4  and  C_6
    5  A    between atoms: C_4  and  N_7
    6  A    between atoms: C_5  and  N_31
    7  A    between atoms: N_7  and  C_37
    8  A    between atoms: C_9  and  C_20
    9  A    between atoms: C_9  and  N_21
   10  A    between atoms: C_12  and  N_31
   11  A    between atoms: C_13  and  C_37
   12  A    between atoms: C_13  and  S_39
   13  A    between atoms: N_21  and  C_23
   14  A    between atoms: C_22  and  C_33
   15  A    between atoms: C_25  and  C_33
                            x       y       z     vdW  Elec       q    Type
                         _______ _______ _______ _____ _____    ______ ____

>  <TORSDO>
F 15

$$$$
=
 OpenBabel11052411483D

 40 41  0  0  1  0  0  0  0  0999 V2000
  160.8060  203.0130  149.3250 N   0  0  0  0  0  2  0  0  0  0  0  0
  161.2600  204.9930  150.7660 N   0  0  0  0  0  0  0  0  0  0  0  0
  161.0420  203.5750  150.6260 C   0  0  0  0  0  0  0  0  0  0  0  0
  161.0380  202.8260  151.6410 O   0  0  0  0  0  0  0  0  0  0  0  0
  160.6080  201.5910  149.0560 C   0  0  1  0  0  3  0  0  0  0  0  0
  159.1270  201.2450  149.0970 C   0  0  0  0  0  1  0  0  0  0  0  0
  161.2220  201.2040  147.7190 C   0  0  0  0  0  2  0  0  0  0  0  0
  160.4580  201.7890  146.6310 N   0  0  0  0  0  2  0  0  0  0  0  0
  161.4220  202.3980  145.7290 C   0  0  0  0  0  2  0  0  0  0  0  0
  161.6070  203.8840  146.0370 C   0  0  1  0  0  3  0  0  0  0  0  0
  163.0800  204.2430  146.1300 C   0  0  0  0  0  1  0  0  0  0  0  0
  161.7480  205.3480  143.7810 O   0  0  0  0  0  0  0  0  0  0  0  0
  160.1370  206.3780  145.6530 C   0  0  0  0  0  1  0  0  0  0  0  0
  159.6350  204.1790  144.2040 O   0  0  0  0  0  0  0  0  0  0  0  0
  160.7710  204.9270  144.8440 S   0  0  0  0  0  0  0  0  0  0  0  0
  161.8450  205.5700  151.9590 C   0  0  0  0  0  0  0  0  0  0  0  0
  163.4100  206.0830  151.9270 S   0  0  0  0  0  0  0  0  0  0  0  0
  161.0600  205.5630  153.2240 C   0  0  0  0  0  3  0  0  0  0  0  0
  160.7380  206.5740  154.0410 C   0  0  0  0  0  3  0  0  0  0  0  0
  161.0830  208.0160  153.8490 C   0  0  0  0  0  2  0  0  0  0  0  0
  160.1200  212.3960  155.4360 C   0  0  0  0  0  3  0  0  0  0  0  0
  159.3910  207.8330  156.3590 O   0  0  0  0  0  0  0  0  0  0  0  0
  160.3810  211.0890  155.5040 C   0  0  0  0  0  0  0  0  0  0  0  0
  161.3070  208.7140  155.1880 C   0  0  2  0  0  3  0  0  0  0  0  0
  159.4770  210.1410  156.0430 N   0  0  0  0  0  2  0  0  0  0  0  0
  160.0020  208.8350  155.9040 C   0  0  0  0  0  0  0  0  0  0  0  0
  161.9340  210.4220  154.9150 S   0  0  0  0  0  0  0  0  0  0  0  0
  158.4690  212.9220  157.1430 O   0  0  0  0  0  1  0  0  0  0  0  0
  158.8790  212.9850  155.8490 N   0  0  0  0  0  0  0  0  0  0  0  0
  157.9480  213.4220  154.8150 C   0  0  1  0  0  3  0  0  0  0  0  0
  155.7550  213.8200  155.6230 O   0  0  0  0  0  0  0  0  0  0  0  0
  157.0650  212.2790  154.4000 C   0  0  0  0  0  2  0  0  0  0  0  0
  155.6700  212.7920  154.6720 C   0  0  0  0  0  2  0  0  0  0  0  0
  156.9810  214.4530  155.3640 C   0  0  0  0  0  2  0  0  0  0  0  0
  160.8720  205.8610  149.6560 C   0  0  0  0  0  2  0  0  0  0  0  0
  160.8290  207.3090  150.1180 C   0  0  0  0  0  2  0  0  0  0  0  0
  161.6420  208.1570  149.2080 C   0  0  0  0  0  0  0  0  0  0  0  0
  162.4370  210.4500  148.5260 C   0  0  0  0  0  1  0  0  0  0  0  0
  161.6610  209.5740  149.3890 N   0  0  0  0  0  2  0  0  0  0  0  0
  162.3180  207.6180  148.2900 O   0  0  0  0  0  0  0  0  0  0  0  0
  1  3  1  0  0  0  0
  2 16  1  0  0  0  0
  3  2  1  0  0  0  0
  3  4  2  0  0  0  0
  5  6  1  6  0  0  0
  5  1  1  0  0  0  0
  7  5  1  0  0  0  0
  8  7  1  0  0  0  0
  9 10  1  0  0  0  0
  9  8  1  0  0  0  0
 10 11  1  6  0  0  0
 12 15  2  0  0  0  0
 14 15  2  0  0  0  0
 15 13  1  0  0  0  0
 15 10  1  0  0  0  0
 16 18  1  0  0  0  0
 17 16  2  0  0  0  0
 18 19  2  0  0  0  0
 20 19  1  0  0  0  0
 21 23  2  0  0  0  0
 21 29  1  0  0  0  0
 23 25  1  0  0  0  0
 24 20  1  6  0  0  0
 24 26  1  0  0  0  0
 26 25  1  0  0  0  0
 26 22  2  0  0  0  0
 27 24  1  0  0  0  0
 27 23  1  0  0  0  0
 29 28  1  0  0  0  0
 30 34  1  0  0  0  0
 30 29  1  1  0  0  0
 32 33  1  0  0  0  0
 32 30  1  0  0  0  0
 33 31  1  0  0  0  0
 34 31  1  0  0  0  0
 35 36  1  0  0  0  0
 35  2  1  0  0  0  0
 37 39  1  0  0  0  0
 37 36  1  0  0  0  0
 38 39  1  0  0  0  0
 40 37  2  0  0  0  0
M  END
>  <MODEL>
5

>  <REMARK>
 VINA RESULT:      -5.8      4.307     10.430
  Name = 
  15 active torsions:
  status: ('A' for Active; 'I' for Inactive)
    1  A    between atoms: C_1  and  C_2
    2  A    between atoms: C_1  and  C_23
    3  A    between atoms: N_3  and  C_6
    4  A    between atoms: C_4  and  C_6
    5  A    between atoms: C_4  and  N_7
    6  A    between atoms: C_5  and  N_31
    7  A    between atoms: N_7  and  C_37
    8  A    between atoms: C_9  and  C_20
    9  A    between atoms: C_9  and  N_21
   10  A    between atoms: C_12  and  N_31
   11  A    between atoms: C_13  and  C_37
   12  A    between atoms: C_13  and  S_39
   13  A    between atoms: N_21  and  C_23
   14  A    between atoms: C_22  and  C_33
   15  A    between atoms: C_25  and  C_33
                            x       y       z     vdW  Elec       q    Type
                         _______ _______ _______ _____ _____    ______ ____

>  <TORSDO>
F 15

$$$$
=
 OpenBabel11052411483D

 40 41  0  0  1  0  0  0  0  0999 V2000
  161.8320  207.7650  150.8690 N   0  0  0  0  0  2  0  0  0  0  0  0
  161.8100  210.2530  150.7580 N   0  0  0  0  0  0  0  0  0  0  0  0
  161.9560  208.9750  150.1050 C   0  0  0  0  0  0  0  0  0  0  0  0
  162.2100  208.9130  148.8710 O   0  0  0  0  0  0  0  0  0  0  0  0
  161.9240  206.4170  150.3140 C   0  0  1  0  0  3  0  0  0  0  0  0
  161.2240  205.4190  151.2230 C   0  0  0  0  0  1  0  0  0  0  0  0
  161.3470  206.3730  148.9070 C   0  0  0  0  0  2  0  0  0  0  0  0
  160.6150  205.1340  148.7070 N   0  0  0  0  0  2  0  0  0  0  0  0
  161.3940  204.3400  147.7710 C   0  0  0  0  0  2  0  0  0  0  0  0
  162.0290  205.2170  146.6930 C   0  0  1  0  0  3  0  0  0  0  0  0
  163.4560  204.7840  146.4060 C   0  0  0  0  0  1  0  0  0  0  0  0
  159.9180  206.2120  145.3480 O   0  0  0  0  0  0  0  0  0  0  0  0
  160.3970  203.6230  144.8690 C   0  0  0  0  0  1  0  0  0  0  0  0
  161.9090  205.6700  144.0250 O   0  0  0  0  0  0  0  0  0  0  0  0
  161.0570  205.2430  145.1880 S   0  0  0  0  0  0  0  0  0  0  0  0
  161.5700  211.4750  150.0170 C   0  0  0  0  0  0  0  0  0  0  0  0
  160.3020  212.4390  150.4370 S   0  0  0  0  0  0  0  0  0  0  0  0
  162.3920  211.7610  148.8100 C   0  0  0  0  0  3  0  0  0  0  0  0
  162.0090  212.0510  147.5600 C   0  0  0  0  0  3  0  0  0  0  0  0
  160.6030  212.1890  147.0690 C   0  0  0  0  0  2  0  0  0  0  0  0
  162.1300  212.3430  142.5670 C   0  0  0  0  0  3  0  0  0  0  0  0
  158.2600  212.7460  145.2260 O   0  0  0  0  0  0  0  0  0  0  0  0
  161.3830  212.6560  143.6280 C   0  0  0  0  0  0  0  0  0  0  0  0
  160.5020  213.2410  145.9680 C   0  0  2  0  0  3  0  0  0  0  0  0
  159.9830  212.4460  143.6850 N   0  0  0  0  0  2  0  0  0  0  0  0
  159.4900  212.8030  144.9620 C   0  0  0  0  0  0  0  0  0  0  0  0
  162.1100  213.3930  145.0870 S   0  0  0  0  0  0  0  0  0  0  0  0
  160.3700  211.1670  141.3690 O   0  0  0  0  0  1  0  0  0  0  0  0
  161.6150  211.7100  141.3860 N   0  0  0  0  0  0  0  0  0  0  0  0
  162.5430  211.4300  140.2970 C   0  0  1  0  0  3  0  0  0  0  0  0
  161.5470  211.5620  138.1500 O   0  0  0  0  0  0  0  0  0  0  0  0
  162.3250  210.0360  139.7790 C   0  0  0  0  0  2  0  0  0  0  0  0
  162.0090  210.2480  138.3160 C   0  0  0  0  0  2  0  0  0  0  0  0
  162.2500  212.3170  139.1020 C   0  0  0  0  0  2  0  0  0  0  0  0
  161.9120  210.2960  152.2150 C   0  0  0  0  0  2  0  0  0  0  0  0
  160.5480  210.0450  152.8390 C   0  0  0  0  0  2  0  0  0  0  0  0
  160.5610  210.4520  154.2680 C   0  0  0  0  0  0  0  0  0  0  0  0
  160.1050  212.2070  156.0190 C   0  0  0  0  0  1  0  0  0  0  0  0
  160.1120  211.7570  154.6370 N   0  0  0  0  0  2  0  0  0  0  0  0
  160.9560  209.6370  155.1450 O   0  0  0  0  0  0  0  0  0  0  0  0
  2 35  1  0  0  0  0
  3  2  1  0  0  0  0
  3  1  1  0  0  0  0
  4  3  2  0  0  0  0
  5  1  1  0  0  0  0
  5  6  1  1  0  0  0
  7  5  1  0  0  0  0
  8  7  1  0  0  0  0
  9  8  1  0  0  0  0
 10 11  1  6  0  0  0
 10  9  1  0  0  0  0
 13 15  1  0  0  0  0
 14 15  2  0  0  0  0
 15 12  2  0  0  0  0
 15 10  1  0  0  0  0
 16 17  2  0  0  0  0
 16  2  1  0  0  0  0
 18 16  1  0  0  0  0
 19 18  2  0  0  0  0
 20 19  1  0  0  0  0
 21 23  2  0  0  0  0
 23 25  1  0  0  0  0
 23 27  1  0  0  0  0
 24 20  1  1  0  0  0
 25 26  1  0  0  0  0
 26 22  2  0  0  0  0
 26 24  1  0  0  0  0
 27 24  1  0  0  0  0
 28 29  1  0  0  0  0
 29 21  1  0  0  0  0
 30 29  1  1  0  0  0
 31 33  1  0  0  0  0
 31 34  1  0  0  0  0
 32 30  1  0  0  0  0
 33 32  1  0  0  0  0
 34 30  1  0  0  0  0
 35 36  1  0  0  0  0
 36 37  1  0  0  0  0
 37 39  1  0  0  0  0
 37 40  2  0  0  0  0
 39 38  1  0  0  0  0
M  END
>  <MODEL>
6

>  <REMARK>
 VINA RESULT:      -5.4      2.648      6.734
  Name = 
  15 active torsions:
  status: ('A' for Active; 'I' for Inactive)
    1  A    between atoms: C_1  and  C_2
    2  A    between atoms: C_1  and  C_23
    3  A    between atoms: N_3  and  C_6
    4  A    between atoms: C_4  and  C_6
    5  A    between atoms: C_4  and  N_7
    6  A    between atoms: C_5  and  N_31
    7  A    between atoms: N_7  and  C_37
    8  A    between atoms: C_9  and  C_20
    9  A    between atoms: C_9  and  N_21
   10  A    between atoms: C_12  and  N_31
   11  A    between atoms: C_13  and  C_37
   12  A    between atoms: C_13  and  S_39
   13  A    between atoms: N_21  and  C_23
   14  A    between atoms: C_22  and  C_33
   15  A    between atoms: C_25  and  C_33
                            x       y       z     vdW  Elec       q    Type
                         _______ _______ _______ _____ _____    ______ ____

>  <TORSDO>
F 15

$$$$
=
 OpenBabel11052411483D

 40 41  0  0  1  0  0  0  0  0999 V2000
  160.4560  208.6930  154.1890 N   0  0  0  0  0  2  0  0  0  0  0  0
  161.1810  207.7530  151.9990 N   0  0  0  0  0  0  0  0  0  0  0  0
  161.1000  207.6530  153.4360 C   0  0  0  0  0  0  0  0  0  0  0  0
  161.6080  206.6670  154.0370 O   0  0  0  0  0  0  0  0  0  0  0  0
  160.2820  208.6840  155.6390 C   0  0  1  0  0  3  0  0  0  0  0  0
  159.7800  207.3260  156.1050 C   0  0  0  0  0  1  0  0  0  0  0  0
  161.5800  209.0570  156.3400 C   0  0  0  0  0  2  0  0  0  0  0  0
  161.4050  210.2870  157.0920 N   0  0  0  0  0  2  0  0  0  0  0  0
  161.2960  211.3580  156.1150 C   0  0  0  0  0  2  0  0  0  0  0  0
  159.9830  212.1240  156.2760 C   0  0  1  0  0  3  0  0  0  0  0  0
  160.2100  213.4590  156.9650 C   0  0  0  0  0  1  0  0  0  0  0  0
  160.1290  212.1970  153.5870 O   0  0  0  0  0  0  0  0  0  0  0  0
  158.4330  213.9800  154.6380 C   0  0  0  0  0  1  0  0  0  0  0  0
  158.0510  211.3270  154.5540 O   0  0  0  0  0  0  0  0  0  0  0  0
  159.1410  212.3500  154.7110 S   0  0  0  0  0  0  0  0  0  0  0  0
  161.4850  206.6110  151.1620 C   0  0  0  0  0  0  0  0  0  0  0  0
  162.9660  205.8980  151.2700 S   0  0  0  0  0  0  0  0  0  0  0  0
  160.5000  206.1920  150.1280 C   0  0  0  0  0  3  0  0  0  0  0  0
  160.4540  206.4770  148.8200 C   0  0  0  0  0  3  0  0  0  0  0  0
  161.4420  207.2980  148.0540 C   0  0  0  0  0  2  0  0  0  0  0  0
  162.0290  202.6740  147.1050 C   0  0  0  0  0  2  0  0  0  0  0  0
  159.9480  206.5900  145.5110 O   0  0  0  0  0  0  0  0  0  0  0  0
  161.8640  203.9740  146.8530 C   0  0  0  0  0  0  0  0  0  0  0  0
  161.9640  206.5400  146.8360 C   0  0  2  0  0  3  0  0  0  0  0  0
  160.7430  204.4980  146.1630 N   0  0  0  0  0  0  0  0  0  0  0  0
  160.8160  205.9100  146.1200 C   0  0  0  0  0  0  0  0  0  0  0  0
  163.0820  205.1790  147.3680 S   0  0  0  0  0  0  0  0  0  0  0  0
  160.5030  201.6320  145.5240 O   0  0  0  0  0  1  0  0  0  0  0  0
  161.0690  201.6650  146.7580 N   0  0  0  0  0  0  0  0  0  0  0  0
  160.5220  200.8400  147.8290 C   0  0  1  0  0  3  0  0  0  0  0  0
  159.9570  202.0700  149.7750 O   0  0  0  0  0  0  0  0  0  0  0  0
  161.5700  200.5940  148.8770 C   0  0  0  0  0  2  0  0  0  0  0  0
  160.9450  201.1420  150.1390 C   0  0  0  0  0  2  0  0  0  0  0  0
  159.4270  201.5810  148.5710 C   0  0  0  0  0  2  0  0  0  0  0  0
  160.9450  209.0590  151.3870 C   0  0  0  0  0  2  0  0  0  0  0  0
  162.2410  209.6050  150.8090 C   0  0  0  0  0  2  0  0  0  0  0  0
  161.9470  210.6870  149.8340 C   0  0  0  0  0  0  0  0  0  0  0  0
  160.9100  212.9310  149.3460 C   0  0  0  0  0  1  0  0  0  0  0  0
  161.2260  211.8450  150.2580 N   0  0  0  0  0  2  0  0  0  0  0  0
  162.3470  210.5790  148.6430 O   0  0  0  0  0  0  0  0  0  0  0  0
  1  5  1  0  0  0  0
  2  3  1  0  0  0  0
  3  4  2  0  0  0  0
  3  1  1  0  0  0  0
  5  6  1  1  0  0  0
  5  7  1  0  0  0  0
  7  8  1  0  0  0  0
  9 10  1  0  0  0  0
  9  8  1  0  0  0  0
 10 11  1  6  0  0  0
 12 15  2  0  0  0  0
 13 15  1  0  0  0  0
 14 15  2  0  0  0  0
 15 10  1  0  0  0  0
 16 17  2  0  0  0  0
 16  2  1  0  0  0  0
 18 16  1  0  0  0  0
 19 18  2  0  0  0  0
 20 19  1  0  0  0  0
 22 26  2  0  0  0  0
 23 21  1  0  0  0  0
 23 27  1  0  0  0  0
 24 27  1  0  0  0  0
 24 20  1  1  0  0  0
 25 23  2  0  0  0  0
 26 25  1  0  0  0  0
 26 24  1  0  0  0  0
 28 29  1  0  0  0  0
 29 21  1  0  0  0  0
 30 29  1  6  0  0  0
 30 34  1  0  0  0  0
 30 32  1  0  0  0  0
 31 33  1  0  0  0  0
 32 33  1  0  0  0  0
 34 31  1  0  0  0  0
 35  2  1  0  0  0  0
 36 35  1  0  0  0  0
 37 39  1  0  0  0  0
 37 36  1  0  0  0  0
 38 39  1  0  0  0  0
 40 37  2  0  0  0  0
M  END
>  <MODEL>
7

>  <REMARK>
 VINA RESULT:      -5.1      4.068      7.249
  Name = 
  15 active torsions:
  status: ('A' for Active; 'I' for Inactive)
    1  A    between atoms: C_1  and  C_2
    2  A    between atoms: C_1  and  C_23
    3  A    between atoms: N_3  and  C_6
    4  A    between atoms: C_4  and  C_6
    5  A    between atoms: C_4  and  N_7
    6  A    between atoms: C_5  and  N_31
    7  A    between atoms: N_7  and  C_37
    8  A    between atoms: C_9  and  C_20
    9  A    between atoms: C_9  and  N_21
   10  A    between atoms: C_12  and  N_31
   11  A    between atoms: C_13  and  C_37
   12  A    between atoms: C_13  and  S_39
   13  A    between atoms: N_21  and  C_23
   14  A    between atoms: C_22  and  C_33
   15  A    between atoms: C_25  and  C_33
                            x       y       z     vdW  Elec       q    Type
                         _______ _______ _______ _____ _____    ______ ____

>  <TORSDO>
F 15

$$$$
=
 OpenBabel11052411483D

 40 41  0  0  1  0  0  0  0  0999 V2000
  160.5090  210.3390  152.2760 N   0  0  0  0  0  2  0  0  0  0  0  0
  161.6920  208.5820  150.9660 N   0  0  0  0  0  0  0  0  0  0  0  0
  160.8880  208.9640  152.1000 C   0  0  0  0  0  0  0  0  0  0  0  0
  160.5330  208.1030  152.9510 O   0  0  0  0  0  0  0  0  0  0  0  0
  159.6720  210.8380  153.3640 C   0  0  1  0  0  3  0  0  0  0  0  0
  160.5360  211.3530  154.5060 C   0  0  0  0  0  1  0  0  0  0  0  0
  158.7260  211.9200  152.8640 C   0  0  0  0  0  2  0  0  0  0  0  0
  159.1700  213.2230  153.3270 N   0  0  0  0  0  2  0  0  0  0  0  0
  157.9900  213.9100  153.8260 C   0  0  0  0  0  2  0  0  0  0  0  0
  157.5930  213.3970  155.2100 C   0  0  1  0  0  3  0  0  0  0  0  0
  157.9880  214.3860  156.2930 C   0  0  0  0  0  1  0  0  0  0  0  0
  155.1960  213.3030  153.9850 O   0  0  0  0  0  0  0  0  0  0  0  0
  155.0780  214.0050  156.5640 C   0  0  0  0  0  1  0  0  0  0  0  0
  155.6550  211.5550  155.6410 O   0  0  0  0  0  0  0  0  0  0  0  0
  155.8470  213.0090  155.3080 S   0  0  0  0  0  0  0  0  0  0  0  0
  161.8100  207.2040  150.5330 C   0  0  0  0  0  0  0  0  0  0  0  0
  163.0760  206.2950  151.0650 S   0  0  0  0  0  0  0  0  0  0  0  0
  160.8600  206.6840  149.5120 C   0  0  0  0  0  3  0  0  0  0  0  0
  160.9850  206.6130  148.1810 C   0  0  0  0  0  3  0  0  0  0  0  0
  162.1720  207.0330  147.3750 C   0  0  0  0  0  2  0  0  0  0  0  0
  161.9490  202.3590  146.5180 C   0  0  0  0  0  2  0  0  0  0  0  0
  160.0580  206.4910  145.2690 O   0  0  0  0  0  0  0  0  0  0  0  0
  161.8920  203.6660  146.2540 C   0  0  0  0  0  0  0  0  0  0  0  0
  162.3020  206.1970  146.1040 C   0  0  2  0  0  3  0  0  0  0  0  0
  160.7160  204.3220  145.8130 N   0  0  0  0  0  0  0  0  0  0  0  0
  160.9510  205.7120  145.6950 C   0  0  0  0  0  0  0  0  0  0  0  0
  163.3350  204.7100  146.4270 S   0  0  0  0  0  0  0  0  0  0  0  0
  160.0230  201.4550  145.3400 O   0  0  0  0  0  1  0  0  0  0  0  0
  160.8180  201.4790  146.4410 N   0  0  0  0  0  0  0  0  0  0  0  0
  160.3870  200.8060  147.6610 C   0  0  1  0  0  3  0  0  0  0  0  0
  160.2000  202.2570  149.5260 O   0  0  0  0  0  0  0  0  0  0  0  0
  161.5630  200.5800  148.5680 C   0  0  0  0  0  2  0  0  0  0  0  0
  161.1710  201.2930  149.8410 C   0  0  0  0  0  2  0  0  0  0  0  0
  159.4650  201.6980  148.4690 C   0  0  0  0  0  2  0  0  0  0  0  0
  162.4010  209.6340  150.2390 C   0  0  0  0  0  2  0  0  0  0  0  0
  161.5740  210.0930  149.0490 C   0  0  0  0  0  2  0  0  0  0  0  0
  162.0040  211.4500  148.6250 C   0  0  0  0  0  0  0  0  0  0  0  0
  161.5880  213.9360  148.5880 C   0  0  0  0  0  1  0  0  0  0  0  0
  161.2140  212.5860  148.9790 N   0  0  0  0  0  2  0  0  0  0  0  0
  163.0700  211.5890  147.9650 O   0  0  0  0  0  0  0  0  0  0  0  0
  1  5  1  0  0  0  0
  2  3  1  0  0  0  0
  3  1  1  0  0  0  0
  3  4  2  0  0  0  0
  5  6  1  1  0  0  0
  7  8  1  0  0  0  0
  7  5  1  0  0  0  0
  8  9  1  0  0  0  0
  9 10  1  0  0  0  0
 10 15  1  0  0  0  0
 10 11  1  1  0  0  0
 12 15  2  0  0  0  0
 15 14  2  0  0  0  0
 15 13  1  0  0  0  0
 16  2  1  0  0  0  0
 16 17  2  0  0  0  0
 18 16  1  0  0  0  0
 19 18  2  0  0  0  0
 20 19  1  0  0  0  0
 22 26  2  0  0  0  0
 23 27  1  0  0  0  0
 23 21  1  0  0  0  0
 24 27  1  0  0  0  0
 24 20  1  1  0  0  0
 25 23  2  0  0  0  0
 26 25  1  0  0  0  0
 26 24  1  0  0  0  0
 28 29  1  0  0  0  0
 29 21  1  0  0  0  0
 30 29  1  6  0  0  0
 30 34  1  0  0  0  0
 30 32  1  0  0  0  0
 31 33  1  0  0  0  0
 32 33  1  0  0  0  0
 34 31  1  0  0  0  0
 35  2  1  0  0  0  0
 36 35  1  0  0  0  0
 37 39  1  0  0  0  0
 37 36  1  0  0  0  0
 38 39  1  0  0  0  0
 40 37  2  0  0  0  0
M  END
>  <MODEL>
8

>  <REMARK>
 VINA RESULT:      -5.1      4.051      7.549
  Name = 
  15 active torsions:
  status: ('A' for Active; 'I' for Inactive)
    1  A    between atoms: C_1  and  C_2
    2  A    between atoms: C_1  and  C_23
    3  A    between atoms: N_3  and  C_6
    4  A    between atoms: C_4  and  C_6
    5  A    between atoms: C_4  and  N_7
    6  A    between atoms: C_5  and  N_31
    7  A    between atoms: N_7  and  C_37
    8  A    between atoms: C_9  and  C_20
    9  A    between atoms: C_9  and  N_21
   10  A    between atoms: C_12  and  N_31
   11  A    between atoms: C_13  and  C_37
   12  A    between atoms: C_13  and  S_39
   13  A    between atoms: N_21  and  C_23
   14  A    between atoms: C_22  and  C_33
   15  A    between atoms: C_25  and  C_33
                            x       y       z     vdW  Elec       q    Type
                         _______ _______ _______ _____ _____    ______ ____

>  <TORSDO>
F 15

$$$$
=
 OpenBabel11052411483D

 40 41  0  0  1  0  0  0  0  0999 V2000
  161.4430  210.9050  150.9870 N   0  0  0  0  0  2  0  0  0  0  0  0
  159.8580  212.3840  152.2130 N   0  0  0  0  0  0  0  0  0  0  0  0
  160.3540  211.0640  151.9100 C   0  0  0  0  0  0  0  0  0  0  0  0
  159.8240  210.0460  152.4350 O   0  0  0  0  0  0  0  0  0  0  0  0
  162.0510  209.6250  150.6310 C   0  0  1  0  0  3  0  0  0  0  0  0
  161.1810  208.4730  151.1080 C   0  0  0  0  0  1  0  0  0  0  0  0
  162.2940  209.5420  149.1310 C   0  0  0  0  0  2  0  0  0  0  0  0
  161.4400  208.5250  148.5440 N   0  0  0  0  0  2  0  0  0  0  0  0
  162.3220  207.5650  147.9000 C   0  0  0  0  0  2  0  0  0  0  0  0
  161.6940  206.1710  147.8670 C   0  0  1  0  0  3  0  0  0  0  0  0
  160.2800  206.1960  148.4200 C   0  0  0  0  0  1  0  0  0  0  0  0
  163.0540  205.7410  145.5820 O   0  0  0  0  0  0  0  0  0  0  0  0
  160.4390  206.1860  145.2300 C   0  0  0  0  0  1  0  0  0  0  0  0
  161.5130  203.9730  146.2960 O   0  0  0  0  0  0  0  0  0  0  0  0
  161.7230  205.4600  146.2230 S   0  0  0  0  0  0  0  0  0  0  0  0
  159.0280  212.6500  153.3700 C   0  0  0  0  0  0  0  0  0  0  0  0
  157.4190  212.9380  153.1630 S   0  0  0  0  0  0  0  0  0  0  0  0
  159.6730  212.7900  154.7040 C   0  0  0  0  0  3  0  0  0  0  0  0
  159.8360  211.8850  155.6770 C   0  0  0  0  0  3  0  0  0  0  0  0
  159.4150  210.4500  155.6380 C   0  0  0  0  0  2  0  0  0  0  0  0
  160.7680  206.0750  154.3540 C   0  0  0  0  0  2  0  0  0  0  0  0
  162.3280  210.4990  154.7950 O   0  0  0  0  0  0  0  0  0  0  0  0
  160.8850  207.3020  154.8660 C   0  0  0  0  0  0  0  0  0  0  0  0
  160.5430  209.5300  156.0970 C   0  0  2  0  0  3  0  0  0  0  0  0
  161.7680  208.2810  154.3490 N   0  0  0  0  0  0  0  0  0  0  0  0
  161.6080  209.4990  155.0510 C   0  0  0  0  0  0  0  0  0  0  0  0
  159.9190  207.8090  156.2840 S   0  0  0  0  0  0  0  0  0  0  0  0
  162.7460  206.0440  152.9400 O   0  0  0  0  0  1  0  0  0  0  0  0
  161.4800  205.6230  153.1920 N   0  0  0  0  0  0  0  0  0  0  0  0
  160.7310  204.9160  152.1600 C   0  0  1  0  0  3  0  0  0  0  0  0
  161.2780  202.6140  152.0040 O   0  0  0  0  0  0  0  0  0  0  0  0
  161.5950  204.7060  150.9490 C   0  0  0  0  0  2  0  0  0  0  0  0
  161.5990  203.2050  150.7720 C   0  0  0  0  0  2  0  0  0  0  0  0
  160.3870  203.5100  152.6150 C   0  0  0  0  0  2  0  0  0  0  0  0
  160.2160  213.4770  151.3100 C   0  0  0  0  0  2  0  0  0  0  0  0
  159.2670  213.5030  150.1230 C   0  0  0  0  0  2  0  0  0  0  0  0
  160.0410  213.5310  148.8550 C   0  0  0  0  0  0  0  0  0  0  0  0
  162.2730  213.6100  147.6870 C   0  0  0  0  0  1  0  0  0  0  0  0
  161.4690  213.5800  148.8970 N   0  0  0  0  0  2  0  0  0  0  0  0
  159.4320  213.5000  147.7510 O   0  0  0  0  0  0  0  0  0  0  0  0
  1  3  1  0  0  0  0
  2 16  1  0  0  0  0
  3  2  1  0  0  0  0
  3  4  2  0  0  0  0
  5  1  1  0  0  0  0
  5  6  1  6  0  0  0
  7  5  1  0  0  0  0
  8  7  1  0  0  0  0
  9  8  1  0  0  0  0
 10  9  1  0  0  0  0
 10 11  1  6  0  0  0
 12 15  2  0  0  0  0
 13 15  1  0  0  0  0
 15 14  2  0  0  0  0
 15 10  1  0  0  0  0
 16 18  1  0  0  0  0
 17 16  2  0  0  0  0
 18 19  2  0  0  0  0
 20 19  1  0  0  0  0
 21 23  1  0  0  0  0
 22 26  2  0  0  0  0
 23 27  1  0  0  0  0
 24 20  1  6  0  0  0
 24 27  1  0  0  0  0
 25 23  2  0  0  0  0
 25 26  1  0  0  0  0
 26 24  1  0  0  0  0
 28 29  1  0  0  0  0
 29 21  1  0  0  0  0
 30 34  1  0  0  0  0
 30 29  1  1  0  0  0
 31 34  1  0  0  0  0
 32 30  1  0  0  0  0
 33 32  1  0  0  0  0
 33 31  1  0  0  0  0
 35  2  1  0  0  0  0
 36 35  1  0  0  0  0
 37 39  1  0  0  0  0
 37 36  1  0  0  0  0
 38 39  1  0  0  0  0
 40 37  2  0  0  0  0
M  END
>  <MODEL>
9

>  <REMARK>
 VINA RESULT:      -5.0      3.680      9.883
  Name = 
  15 active torsions:
  status: ('A' for Active; 'I' for Inactive)
    1  A    between atoms: C_1  and  C_2
    2  A    between atoms: C_1  and  C_23
    3  A    between atoms: N_3  and  C_6
    4  A    between atoms: C_4  and  C_6
    5  A    between atoms: C_4  and  N_7
    6  A    between atoms: C_5  and  N_31
    7  A    between atoms: N_7  and  C_37
    8  A    between atoms: C_9  and  C_20
    9  A    between atoms: C_9  and  N_21
   10  A    between atoms: C_12  and  N_31
   11  A    between atoms: C_13  and  C_37
   12  A    between atoms: C_13  and  S_39
   13  A    between atoms: N_21  and  C_23
   14  A    between atoms: C_22  and  C_33
   15  A    between atoms: C_25  and  C_33
                            x       y       z     vdW  Elec       q    Type
                         _______ _______ _______ _____ _____    ______ ____

>  <TORSDO>
F 15

$$$$
