=
 OpenBabel11052410063D

 33 35  0  0  1  0  0  0  0  0999 V2000
  161.1600  205.5590  152.1160 C   0  0  1  0  0  3  0  0  0  0  0  0
  161.1220  206.2700  150.7990 C   0  0  0  0  0  0  0  0  0  0  0  0
  162.3920  207.4210  148.3010 C   0  0  0  0  0  3  0  0  0  0  0  0
  162.3770  208.0410  149.6400 C   0  0  0  0  0  3  0  0  0  0  0  0
  161.4270  206.6380  147.8090 C   0  0  0  0  0  0  0  0  0  0  0  0
  160.1480  206.4590  148.5670 C   0  0  0  0  0  2  0  0  0  0  0  0
  160.3840  205.7940  149.8360 N   0  0  0  0  0  0  0  0  0  0  0  0
  161.8170  207.5260  150.6960 N   0  0  0  0  0  0  0  0  0  0  0  0
  161.1730  205.4370  144.4190 C   0  0  0  0  0  3  0  0  0  0  0  0
  161.5710  206.0650  146.4980 N   0  0  0  0  0  0  0  0  0  0  0  0
  160.6500  206.0990  145.5160 C   0  0  0  0  0  3  0  0  0  0  0  0
  162.6490  205.4210  146.0850 N   0  0  0  0  0  0  0  0  0  0  0  0
  162.4360  205.0230  144.8180 C   0  0  0  0  0  3  0  0  0  0  0  0
  161.9210  204.2520  151.9660 C   0  0  0  0  0  2  0  0  0  0  0  0
  160.9850  203.1410  151.9080 N   0  0  0  0  0  2  0  0  0  0  0  0
  161.4730  202.2260  150.8920 C   0  0  0  0  0  2  0  0  0  0  0  0
  160.3100  201.6020  150.1280 C   0  0  0  0  0  2  0  0  0  0  0  0
  161.2650  202.8410  148.1830 C   0  0  0  0  0  1  0  0  0  0  0  0
  161.4020  200.4780  148.3380 O   0  0  0  0  0  1  0  0  0  0  0  0
  160.5820  201.5640  148.6330 C   0  0  1  0  0  3  0  0  0  0  0  0
  161.7910  206.3860  153.1380 N   0  0  0  0  0  2  0  0  0  0  0  0
  160.8440  206.5610  154.2290 C   0  0  0  0  0  2  0  0  0  0  0  0
  161.1690  208.9620  154.3670 O   0  0  0  0  0  0  0  0  0  0  0  0
  160.4380  209.1390  157.0010 C   0  0  0  0  0  2  0  0  0  0  0  0
  159.7670  210.0760  155.9870 C   0  0  2  0  0  3  0  0  0  0  0  0
  161.2780  207.7380  155.0840 C   0  0  1  0  0  3  0  0  0  0  0  0
  160.5710  207.7200  156.4550 C   0  0  0  0  0  2  0  0  0  0  0  0
  159.6240  210.4750  153.6120 F   0  0  0  0  0  0  0  0  0  0  0  0
  159.8850  209.5070  154.5640 C   0  0  1  0  0  3  0  0  0  0  0  0
  160.2570  213.6900  156.3430 O   0  0  0  0  0  1  0  0  0  0  0  0
  160.3960  211.3890  156.0550 N   0  0  0  0  0  2  0  0  0  0  0  0
  159.6510  212.5930  156.2380 C   0  0  0  0  0  0  0  0  0  0  0  0
  158.2640  212.5640  156.2990 O   0  0  0  0  0  0  0  0  0  0  0  0
  1 14  1  6  0  0  0
  1 21  1  0  0  0  0
  2  1  1  0  0  0  0
  3  4  1  0  0  0  0
  4  8  2  0  0  0  0
  5  3  2  0  0  0  0
  5  6  1  0  0  0  0
  6  7  1  0  0  0  0
  7  2  2  0  0  0  0
  8  2  1  0  0  0  0
  9 13  1  0  0  0  0
  9 11  2  0  0  0  0
 10  5  1  0  0  0  0
 11 10  1  0  0  0  0
 12 10  1  0  0  0  0
 13 12  2  0  0  0  0
 15 14  1  0  0  0  0
 16 15  1  0  0  0  0
 17 16  1  0  0  0  0
 19 20  1  0  0  0  0
 20 18  1  1  0  0  0
 20 17  1  0  0  0  0
 21 22  1  0  0  0  0
 23 29  1  0  0  0  0
 23 26  1  0  0  0  0
 25 31  1  6  0  0  0
 25 24  1  0  0  0  0
 26 22  1  6  0  0  0
 26 27  1  0  0  0  0
 27 24  1  0  0  0  0
 29 28  1  6  0  0  0
 29 25  1  0  0  0  0
 31 32  1  0  0  0  0
 32 33  2  0  0  0  0
 32 30  1  0  0  0  0
M  END
>  <MODEL>
1

>  <REMARK>
 VINA RESULT:      -7.2      0.000      0.000
  Name = 
  11 active torsions:
  status: ('A' for Active; 'I' for Inactive)
    1  A    between atoms: C_2  and  C_3
    2  A    between atoms: C_2  and  C_8
    3  A    between atoms: C_2  and  N_23
    4  A    between atoms: C_8  and  N_25
    5  A    between atoms: C_10  and  N_12
    6  A    between atoms: C_11  and  C_26
    7  A    between atoms: C_13  and  N_16
    8  A    between atoms: C_21  and  C_33
    9  A    between atoms: C_22  and  N_25
   10  A    between atoms: C_22  and  C_33
   11  A    between atoms: N_23  and  C_26
                            x       y       z     vdW  Elec       q    Type
                         _______ _______ _______ _____ _____    ______ ____

>  <TORSDO>
F 11

$$$$
=
 OpenBabel11052410063D

 33 35  0  0  1  0  0  0  0  0999 V2000
  162.3650  209.8380  149.1760 C   0  0  1  0  0  3  0  0  0  0  0  0
  162.0080  211.0830  148.4240 C   0  0  0  0  0  0  0  0  0  0  0  0
  162.4930  213.2180  146.3310 C   0  0  0  0  0  3  0  0  0  0  0  0
  163.1200  213.1420  147.6650 C   0  0  0  0  0  3  0  0  0  0  0  0
  161.2600  212.7920  146.0400 C   0  0  0  0  0  0  0  0  0  0  0  0
  160.3500  212.3280  147.1340 C   0  0  0  0  0  2  0  0  0  0  0  0
  160.8770  211.1390  147.7800 N   0  0  0  0  0  0  0  0  0  0  0  0
  162.8880  212.2150  148.5480 N   0  0  0  0  0  0  0  0  0  0  0  0
  159.4290  212.9830  142.9390 C   0  0  0  0  0  3  0  0  0  0  0  0
  160.7690  212.8930  144.6920 N   0  0  0  0  0  0  0  0  0  0  0  0
  159.4770  212.8570  144.3170 C   0  0  0  0  0  3  0  0  0  0  0  0
  161.5450  213.0370  143.6300 N   0  0  0  0  0  0  0  0  0  0  0  0
  160.7540  213.0940  142.5430 C   0  0  0  0  0  3  0  0  0  0  0  0
  162.2960  210.1100  150.6700 C   0  0  0  0  0  2  0  0  0  0  0  0
  161.1230  209.4630  151.2350 N   0  0  0  0  0  2  0  0  0  0  0  0
  161.5200  208.9010  152.5130 C   0  0  0  0  0  2  0  0  0  0  0  0
  160.9010  207.5210  152.7080 C   0  0  0  0  0  2  0  0  0  0  0  0
  161.3080  205.0620  152.5670 C   0  0  0  0  0  1  0  0  0  0  0  0
  162.8020  206.6250  151.5910 O   0  0  0  0  0  1  0  0  0  0  0  0
  161.9580  206.4280  152.6810 C   0  0  1  0  0  3  0  0  0  0  0  0
  161.4670  208.7420  148.8290 N   0  0  0  0  0  2  0  0  0  0  0  0
  162.2630  207.6690  148.2540 C   0  0  0  0  0  2  0  0  0  0  0  0
  161.7170  206.1110  146.4750 O   0  0  0  0  0  0  0  0  0  0  0  0
  160.8850  204.1210  148.1630 C   0  0  0  0  0  2  0  0  0  0  0  0
  161.9180  203.7820  147.0780 C   0  0  2  0  0  3  0  0  0  0  0  0
  161.3390  206.5660  147.7680 C   0  0  1  0  0  3  0  0  0  0  0  0
  161.1880  205.4580  148.8320 C   0  0  0  0  0  2  0  0  0  0  0  0
  163.2920  204.8410  145.4020 F   0  0  0  0  0  0  0  0  0  0  0  0
  162.6380  205.0530  146.6020 C   0  0  1  0  0  3  0  0  0  0  0  0
  160.1830  201.2950  145.0200 O   0  0  0  0  0  0  0  0  0  0  0  0
  161.2450  203.1370  145.9580 N   0  0  0  0  0  2  0  0  0  0  0  0
  160.8050  201.7780  146.0010 C   0  0  0  0  0  0  0  0  0  0  0  0
  161.0610  200.9870  147.1130 O   0  0  0  0  0  1  0  0  0  0  0  0
  1 14  1  1  0  0  0
  2  8  1  0  0  0  0
  2  1  1  0  0  0  0
  3  4  1  0  0  0  0
  4  8  2  0  0  0  0
  5  3  2  0  0  0  0
  5  6  1  0  0  0  0
  6  7  1  0  0  0  0
  7  2  2  0  0  0  0
  9 11  2  0  0  0  0
 10  5  1  0  0  0  0
 11 10  1  0  0  0  0
 12 10  1  0  0  0  0
 13  9  1  0  0  0  0
 13 12  2  0  0  0  0
 14 15  1  0  0  0  0
 15 16  1  0  0  0  0
 16 17  1  0  0  0  0
 19 20  1  0  0  0  0
 20 18  1  6  0  0  0
 20 17  1  0  0  0  0
 21  1  1  0  0  0  0
 22 21  1  0  0  0  0
 23 29  1  0  0  0  0
 23 26  1  0  0  0  0
 24 27  1  0  0  0  0
 25 31  1  6  0  0  0
 25 24  1  0  0  0  0
 26 22  1  1  0  0  0
 26 27  1  0  0  0  0
 29 28  1  6  0  0  0
 29 25  1  0  0  0  0
 30 32  2  0  0  0  0
 31 32  1  0  0  0  0
 32 33  1  0  0  0  0
M  END
>  <MODEL>
2

>  <REMARK>
 VINA RESULT:      -7.1      4.589      8.583
  Name = 
  11 active torsions:
  status: ('A' for Active; 'I' for Inactive)
    1  A    between atoms: C_2  and  C_3
    2  A    between atoms: C_2  and  C_8
    3  A    between atoms: C_2  and  N_23
    4  A    between atoms: C_8  and  N_25
    5  A    between atoms: C_10  and  N_12
    6  A    between atoms: C_11  and  C_26
    7  A    between atoms: C_13  and  N_16
    8  A    between atoms: C_21  and  C_33
    9  A    between atoms: C_22  and  N_25
   10  A    between atoms: C_22  and  C_33
   11  A    between atoms: N_23  and  C_26
                            x       y       z     vdW  Elec       q    Type
                         _______ _______ _______ _____ _____    ______ ____

>  <TORSDO>
F 11

$$$$
=
 OpenBabel11052410063D

 33 35  0  0  1  0  0  0  0  0999 V2000
  161.5940  206.7200  150.5330 C   0  0  1  0  0  3  0  0  0  0  0  0
  161.6000  207.8820  151.4780 C   0  0  0  0  0  0  0  0  0  0  0  0
  161.0520  210.7630  152.2350 C   0  0  0  0  0  3  0  0  0  0  0  0
  162.1890  210.2710  151.4340 C   0  0  0  0  0  3  0  0  0  0  0  0
  160.4530  210.0800  153.2150 C   0  0  0  0  0  0  0  0  0  0  0  0
  161.0230  208.7750  153.6770 C   0  0  0  0  0  2  0  0  0  0  0  0
  160.9760  207.7830  152.6170 N   0  0  0  0  0  0  0  0  0  0  0  0
  162.4030  209.0230  151.1290 N   0  0  0  0  0  0  0  0  0  0  0  0
  157.4990  211.8050  154.3570 C   0  0  0  0  0  3  0  0  0  0  0  0
  159.3300  210.6570  153.9050 N   0  0  0  0  0  0  0  0  0  0  0  0
  158.4050  211.4720  153.3640 C   0  0  0  0  0  3  0  0  0  0  0  0
  159.0620  210.4530  155.1840 N   0  0  0  0  0  0  0  0  0  0  0  0
  157.9490  211.1430  155.4900 C   0  0  0  0  0  3  0  0  0  0  0  0
  160.8270  205.5640  151.1540 C   0  0  0  0  0  2  0  0  0  0  0  0
  161.7590  204.6050  151.7250 N   0  0  0  0  0  2  0  0  0  0  0  0
  161.3100  203.2850  151.3230 C   0  0  0  0  0  2  0  0  0  0  0  0
  160.5150  203.3600  150.0240 C   0  0  0  0  0  2  0  0  0  0  0  0
  161.2500  200.9760  150.1020 C   0  0  0  0  0  1  0  0  0  0  0  0
  159.1380  201.5950  149.2170 O   0  0  0  0  0  1  0  0  0  0  0  0
  160.4630  202.0120  149.3230 C   0  0  1  0  0  3  0  0  0  0  0  0
  160.9900  207.0870  149.2570 N   0  0  0  0  0  2  0  0  0  0  0  0
  161.9980  206.9370  148.2180 C   0  0  0  0  0  2  0  0  0  0  0  0
  160.5380  205.4490  146.9740 O   0  0  0  0  0  0  0  0  0  0  0  0
  162.5530  204.3570  145.4740 C   0  0  0  0  0  2  0  0  0  0  0  0
  161.3120  204.9040  144.7530 C   0  0  2  0  0  3  0  0  0  0  0  0
  161.8310  205.5830  147.5520 C   0  0  1  0  0  3  0  0  0  0  0  0
  163.0070  205.2840  146.5980 C   0  0  0  0  0  2  0  0  0  0  0  0
  159.2860  206.1390  145.1860 F   0  0  0  0  0  0  0  0  0  0  0  0
  160.5700  205.9120  145.6450 C   0  0  1  0  0  3  0  0  0  0  0  0
  159.6040  201.6620  144.8080 O   0  0  0  0  0  0  0  0  0  0  0  0
  160.4300  203.7970  144.4070 N   0  0  0  0  0  2  0  0  0  0  0  0
  160.4270  202.5600  145.1220 C   0  0  0  0  0  0  0  0  0  0  0  0
  161.3240  202.3410  146.1590 O   0  0  0  0  0  1  0  0  0  0  0  0
  1 14  1  1  0  0  0
  1  2  1  0  0  0  0
  2  7  2  0  0  0  0
  3  5  2  0  0  0  0
  4  3  1  0  0  0  0
  5  6  1  0  0  0  0
  5 10  1  0  0  0  0
  7  6  1  0  0  0  0
  8  4  2  0  0  0  0
  8  2  1  0  0  0  0
  9 13  1  0  0  0  0
 10 12  1  0  0  0  0
 11 10  1  0  0  0  0
 11  9  2  0  0  0  0
 12 13  2  0  0  0  0
 14 15  1  0  0  0  0
 16 15  1  0  0  0  0
 17 16  1  0  0  0  0
 19 20  1  0  0  0  0
 20 17  1  0  0  0  0
 20 18  1  1  0  0  0
 21  1  1  0  0  0  0
 22 21  1  0  0  0  0
 23 26  1  0  0  0  0
 24 27  1  0  0  0  0
 25 31  1  1  0  0  0
 25 24  1  0  0  0  0
 25 29  1  0  0  0  0
 26 22  1  6  0  0  0
 27 26  1  0  0  0  0
 29 28  1  6  0  0  0
 29 23  1  0  0  0  0
 30 32  2  0  0  0  0
 31 32  1  0  0  0  0
 32 33  1  0  0  0  0
M  END
>  <MODEL>
3

>  <REMARK>
 VINA RESULT:      -7.0      4.106      8.676
  Name = 
  11 active torsions:
  status: ('A' for Active; 'I' for Inactive)
    1  A    between atoms: C_2  and  C_3
    2  A    between atoms: C_2  and  C_8
    3  A    between atoms: C_2  and  N_23
    4  A    between atoms: C_8  and  N_25
    5  A    between atoms: C_10  and  N_12
    6  A    between atoms: C_11  and  C_26
    7  A    between atoms: C_13  and  N_16
    8  A    between atoms: C_21  and  C_33
    9  A    between atoms: C_22  and  N_25
   10  A    between atoms: C_22  and  C_33
   11  A    between atoms: N_23  and  C_26
                            x       y       z     vdW  Elec       q    Type
                         _______ _______ _______ _____ _____    ______ ____

>  <TORSDO>
F 11

$$$$
=
 OpenBabel11052410063D

 33 35  0  0  1  0  0  0  0  0999 V2000
  161.5920  208.7890  150.1480 C   0  0  1  0  0  3  0  0  0  0  0  0
  161.0700  208.7530  151.5510 C   0  0  0  0  0  0  0  0  0  0  0  0
  161.2490  208.0580  154.4940 C   0  0  0  0  0  3  0  0  0  0  0  0
  160.8990  207.1350  153.3970 C   0  0  0  0  0  3  0  0  0  0  0  0
  160.9660  209.3650  154.5140 C   0  0  0  0  0  0  0  0  0  0  0  0
  160.1090  209.9630  153.4430 C   0  0  0  0  0  2  0  0  0  0  0  0
  160.7560  209.8690  152.1460 N   0  0  0  0  0  0  0  0  0  0  0  0
  160.8230  207.4630  152.1400 N   0  0  0  0  0  0  0  0  0  0  0  0
  161.4210  211.6610  157.2570 C   0  0  0  0  0  3  0  0  0  0  0  0
  161.3880  210.1690  155.6290 N   0  0  0  0  0  0  0  0  0  0  0  0
  160.6570  211.1250  156.2340 C   0  0  0  0  0  3  0  0  0  0  0  0
  162.5710  210.0670  156.2110 N   0  0  0  0  0  0  0  0  0  0  0  0
  162.6210  210.9670  157.2100 C   0  0  0  0  0  3  0  0  0  0  0  0
  162.3350  210.0940  149.9160 C   0  0  0  0  0  2  0  0  0  0  0  0
  161.9620  210.6510  148.6260 N   0  0  0  0  0  2  0  0  0  0  0  0
  162.2800  212.0670  148.6660 C   0  0  0  0  0  2  0  0  0  0  0  0
  161.0040  212.9020  148.7130 C   0  0  0  0  0  2  0  0  0  0  0  0
  161.8820  213.8250  146.5660 C   0  0  0  0  0  1  0  0  0  0  0  0
  159.9470  212.4540  146.6290 O   0  0  0  0  0  1  0  0  0  0  0  0
  160.6360  213.4350  147.3370 C   0  0  1  0  0  3  0  0  0  0  0  0
  162.4810  207.6600  149.8920 N   0  0  0  0  0  2  0  0  0  0  0  0
  162.5920  207.4880  148.4520 C   0  0  0  0  0  2  0  0  0  0  0  0
  161.8450  206.0220  146.6670 O   0  0  0  0  0  0  0  0  0  0  0  0
  160.9560  204.0520  148.3500 C   0  0  0  0  0  2  0  0  0  0  0  0
  161.9060  203.6690  147.2050 C   0  0  2  0  0  3  0  0  0  0  0  0
  161.5660  206.4680  147.9890 C   0  0  1  0  0  3  0  0  0  0  0  0
  161.3890  205.3460  149.0330 C   0  0  0  0  0  2  0  0  0  0  0  0
  163.2670  204.6730  145.4840 F   0  0  0  0  0  0  0  0  0  0  0  0
  162.6920  204.8980  146.7210 C   0  0  1  0  0  3  0  0  0  0  0  0
  160.0490  201.3100  145.1030 O   0  0  0  0  0  0  0  0  0  0  0  0
  161.1320  203.1050  146.1060 N   0  0  0  0  0  2  0  0  0  0  0  0
  160.7630  201.7260  146.0520 C   0  0  0  0  0  0  0  0  0  0  0  0
  161.1870  200.8410  147.0340 O   0  0  0  0  0  1  0  0  0  0  0  0
  1 14  1  1  0  0  0
  1  2  1  0  0  0  0
  2  8  1  0  0  0  0
  2  7  2  0  0  0  0
  3  5  2  0  0  0  0
  4  3  1  0  0  0  0
  5 10  1  0  0  0  0
  6  5  1  0  0  0  0
  7  6  1  0  0  0  0
  8  4  2  0  0  0  0
 10 12  1  0  0  0  0
 10 11  1  0  0  0  0
 11  9  2  0  0  0  0
 12 13  2  0  0  0  0
 13  9  1  0  0  0  0
 15 16  1  0  0  0  0
 15 14  1  0  0  0  0
 16 17  1  0  0  0  0
 19 20  1  0  0  0  0
 20 18  1  6  0  0  0
 20 17  1  0  0  0  0
 21  1  1  0  0  0  0
 22 21  1  0  0  0  0
 23 29  1  0  0  0  0
 23 26  1  0  0  0  0
 24 27  1  0  0  0  0
 25 31  1  6  0  0  0
 25 24  1  0  0  0  0
 26 22  1  1  0  0  0
 26 27  1  0  0  0  0
 29 28  1  6  0  0  0
 29 25  1  0  0  0  0
 30 32  2  0  0  0  0
 32 31  1  0  0  0  0
 32 33  1  0  0  0  0
M  END
>  <MODEL>
4

>  <REMARK>
 VINA RESULT:      -6.9      3.936      9.947
  Name = 
  11 active torsions:
  status: ('A' for Active; 'I' for Inactive)
    1  A    between atoms: C_2  and  C_3
    2  A    between atoms: C_2  and  C_8
    3  A    between atoms: C_2  and  N_23
    4  A    between atoms: C_8  and  N_25
    5  A    between atoms: C_10  and  N_12
    6  A    between atoms: C_11  and  C_26
    7  A    between atoms: C_13  and  N_16
    8  A    between atoms: C_21  and  C_33
    9  A    between atoms: C_22  and  N_25
   10  A    between atoms: C_22  and  C_33
   11  A    between atoms: N_23  and  C_26
                            x       y       z     vdW  Elec       q    Type
                         _______ _______ _______ _____ _____    ______ ____

>  <TORSDO>
F 11

$$$$
=
 OpenBabel11052410063D

 33 35  0  0  1  0  0  0  0  0999 V2000
  161.7620  208.5670  150.9260 C   0  0  1  0  0  3  0  0  0  0  0  0
  161.4070  209.9430  151.3980 C   0  0  0  0  0  0  0  0  0  0  0  0
  159.9070  212.5680  151.2170 C   0  0  0  0  0  3  0  0  0  0  0  0
  161.0960  212.1840  150.4310 C   0  0  0  0  0  3  0  0  0  0  0  0
  159.6530  212.1670  152.4670 C   0  0  0  0  0  0  0  0  0  0  0  0
  160.6810  211.3890  153.2280 C   0  0  0  0  0  2  0  0  0  0  0  0
  160.9300  210.1030  152.6000 N   0  0  0  0  0  0  0  0  0  0  0  0
  161.7250  211.0490  150.5350 N   0  0  0  0  0  0  0  0  0  0  0  0
  156.6620  212.6370  154.4250 C   0  0  0  0  0  3  0  0  0  0  0  0
  158.4420  212.5860  153.1200 N   0  0  0  0  0  0  0  0  0  0  0  0
  157.7690  211.8910  154.0560 C   0  0  0  0  0  3  0  0  0  0  0  0
  157.8270  213.7300  152.8740 N   0  0  0  0  0  0  0  0  0  0  0  0
  156.7340  213.7900  153.6570 C   0  0  0  0  0  3  0  0  0  0  0  0
  160.9040  207.5430  151.6500 C   0  0  0  0  0  2  0  0  0  0  0  0
  161.7270  206.7660  152.5610 N   0  0  0  0  0  2  0  0  0  0  0  0
  160.9030  206.4460  153.7130 C   0  0  0  0  0  2  0  0  0  0  0  0
  161.2410  207.3610  154.8850 C   0  0  0  0  0  2  0  0  0  0  0  0
  160.4820  207.2500  157.2610 C   0  0  0  0  0  1  0  0  0  0  0  0
  159.5580  208.8140  155.7340 O   0  0  0  0  0  1  0  0  0  0  0  0
  160.0590  207.5180  155.8290 C   0  0  1  0  0  3  0  0  0  0  0  0
  161.5720  208.4440  149.4840 N   0  0  0  0  0  2  0  0  0  0  0  0
  162.3370  207.2950  149.0230 C   0  0  0  0  0  2  0  0  0  0  0  0
  161.6570  206.0700  147.0410 O   0  0  0  0  0  0  0  0  0  0  0  0
  161.0070  203.7830  148.4000 C   0  0  0  0  0  2  0  0  0  0  0  0
  161.9440  203.6770  147.1880 C   0  0  2  0  0  3  0  0  0  0  0  0
  161.3890  206.2720  148.4230 C   0  0  1  0  0  3  0  0  0  0  0  0
  161.3490  204.9850  149.2750 C   0  0  0  0  0  2  0  0  0  0  0  0
  163.1480  205.0640  145.6240 F   0  0  0  0  0  0  0  0  0  0  0  0
  162.6010  205.0350  146.8930 C   0  0  1  0  0  3  0  0  0  0  0  0
  160.0870  201.5480  144.8540 O   0  0  0  0  0  0  0  0  0  0  0  0
  161.1830  203.2260  146.0290 N   0  0  0  0  0  2  0  0  0  0  0  0
  160.7890  201.8650  145.8490 C   0  0  0  0  0  0  0  0  0  0  0  0
  161.1750  200.8900  146.7590 O   0  0  0  0  0  1  0  0  0  0  0  0
  1  2  1  0  0  0  0
  1 14  1  1  0  0  0
  2  7  2  0  0  0  0
  3  5  2  0  0  0  0
  4  8  2  0  0  0  0
  4  3  1  0  0  0  0
  5 10  1  0  0  0  0
  5  6  1  0  0  0  0
  7  6  1  0  0  0  0
  8  2  1  0  0  0  0
 10 11  1  0  0  0  0
 11  9  2  0  0  0  0
 12 10  1  0  0  0  0
 12 13  2  0  0  0  0
 13  9  1  0  0  0  0
 14 15  1  0  0  0  0
 15 16  1  0  0  0  0
 16 17  1  0  0  0  0
 17 20  1  0  0  0  0
 19 20  1  0  0  0  0
 20 18  1  1  0  0  0
 21  1  1  0  0  0  0
 22 21  1  0  0  0  0
 23 26  1  0  0  0  0
 24 27  1  0  0  0  0
 25 31  1  6  0  0  0
 25 24  1  0  0  0  0
 26 22  1  1  0  0  0
 26 27  1  0  0  0  0
 29 28  1  6  0  0  0
 29 23  1  0  0  0  0
 29 25  1  0  0  0  0
 30 32  2  0  0  0  0
 32 31  1  0  0  0  0
 32 33  1  0  0  0  0
M  END
>  <MODEL>
5

>  <REMARK>
 VINA RESULT:      -6.4      3.297      9.379
  Name = 
  11 active torsions:
  status: ('A' for Active; 'I' for Inactive)
    1  A    between atoms: C_2  and  C_3
    2  A    between atoms: C_2  and  C_8
    3  A    between atoms: C_2  and  N_23
    4  A    between atoms: C_8  and  N_25
    5  A    between atoms: C_10  and  N_12
    6  A    between atoms: C_11  and  C_26
    7  A    between atoms: C_13  and  N_16
    8  A    between atoms: C_21  and  C_33
    9  A    between atoms: C_22  and  N_25
   10  A    between atoms: C_22  and  C_33
   11  A    between atoms: N_23  and  C_26
                            x       y       z     vdW  Elec       q    Type
                         _______ _______ _______ _____ _____    ______ ____

>  <TORSDO>
F 11

$$$$
=
 OpenBabel11052410063D

 33 35  0  0  1  0  0  0  0  0999 V2000
  161.5450  207.4120  152.6220 C   0  0  1  0  0  3  0  0  0  0  0  0
  161.2070  208.6850  153.3350 C   0  0  0  0  0  0  0  0  0  0  0  0
  159.8540  211.3850  153.5660 C   0  0  0  0  0  3  0  0  0  0  0  0
  161.0980  211.0900  152.8280 C   0  0  0  0  0  3  0  0  0  0  0  0
  159.4570  210.7580  154.6780 C   0  0  0  0  0  0  0  0  0  0  0  0
  160.3660  209.7770  155.3510 C   0  0  0  0  0  2  0  0  0  0  0  0
  160.6190  208.6310  154.4960 N   0  0  0  0  0  0  0  0  0  0  0  0
  161.6610  209.9190  152.7510 N   0  0  0  0  0  0  0  0  0  0  0  0
  156.6900  211.7670  156.7580 C   0  0  0  0  0  3  0  0  0  0  0  0
  158.2060  211.1160  155.2920 N   0  0  0  0  0  0  0  0  0  0  0  0
  158.0390  211.5260  156.5630 C   0  0  0  0  0  3  0  0  0  0  0  0
  157.0400  211.0840  154.6680 N   0  0  0  0  0  0  0  0  0  0  0  0
  156.0930  211.4770  155.5400 C   0  0  0  0  0  3  0  0  0  0  0  0
  160.9590  206.2330  153.3810 C   0  0  0  0  0  2  0  0  0  0  0  0
  161.6740  205.0170  153.0320 N   0  0  0  0  0  2  0  0  0  0  0  0
  160.7720  204.2080  152.2320 C   0  0  0  0  0  2  0  0  0  0  0  0
  161.4910  203.6570  151.0050 C   0  0  0  0  0  2  0  0  0  0  0  0
  160.6110  202.5790  148.9320 C   0  0  0  0  0  1  0  0  0  0  0  0
  161.5060  201.2960  150.7150 O   0  0  0  0  0  1  0  0  0  0  0  0
  160.7720  202.4450  150.4340 C   0  0  1  0  0  3  0  0  0  0  0  0
  161.0340  207.4260  151.2560 N   0  0  0  0  0  2  0  0  0  0  0  0
  162.1660  207.3260  150.3470 C   0  0  0  0  0  2  0  0  0  0  0  0
  162.7070  207.1460  147.9880 O   0  0  0  0  0  0  0  0  0  0  0  0
  160.2440  206.1900  147.2630 C   0  0  0  0  0  2  0  0  0  0  0  0
  161.4950  205.4240  146.8060 C   0  0  2  0  0  3  0  0  0  0  0  0
  161.6710  207.4440  148.9170 C   0  0  1  0  0  3  0  0  0  0  0  0
  160.3640  206.6500  148.7140 C   0  0  0  0  0  2  0  0  0  0  0  0
  163.8880  205.3910  147.1100 F   0  0  0  0  0  0  0  0  0  0  0  0
  162.6960  205.7670  147.7010 C   0  0  1  0  0  3  0  0  0  0  0  0
  161.4700  205.4450  143.1410 O   0  0  0  0  0  0  0  0  0  0  0  0
  161.7890  205.7680  145.4200 N   0  0  0  0  0  2  0  0  0  0  0  0
  161.2190  205.0660  144.3140 C   0  0  0  0  0  0  0  0  0  0  0  0
  160.3930  203.9690  144.5220 O   0  0  0  0  0  1  0  0  0  0  0  0
  1  2  1  0  0  0  0
  1 14  1  1  0  0  0
  2  7  2  0  0  0  0
  3  5  2  0  0  0  0
  4  3  1  0  0  0  0
  5 10  1  0  0  0  0
  5  6  1  0  0  0  0
  7  6  1  0  0  0  0
  8  4  2  0  0  0  0
  8  2  1  0  0  0  0
 10 11  1  0  0  0  0
 11  9  2  0  0  0  0
 12 10  1  0  0  0  0
 12 13  2  0  0  0  0
 13  9  1  0  0  0  0
 15 14  1  0  0  0  0
 16 15  1  0  0  0  0
 17 16  1  0  0  0  0
 20 18  1  6  0  0  0
 20 19  1  0  0  0  0
 20 17  1  0  0  0  0
 21  1  1  0  0  0  0
 22 21  1  0  0  0  0
 23 26  1  0  0  0  0
 24 27  1  0  0  0  0
 25 31  1  6  0  0  0
 25 24  1  0  0  0  0
 25 29  1  0  0  0  0
 26 22  1  1  0  0  0
 27 26  1  0  0  0  0
 29 28  1  6  0  0  0
 29 23  1  0  0  0  0
 30 32  2  0  0  0  0
 32 33  1  0  0  0  0
 32 31  1  0  0  0  0
M  END
>  <MODEL>
6

>  <REMARK>
 VINA RESULT:      -6.3      3.629      8.620
  Name = 
  11 active torsions:
  status: ('A' for Active; 'I' for Inactive)
    1  A    between atoms: C_2  and  C_3
    2  A    between atoms: C_2  and  C_8
    3  A    between atoms: C_2  and  N_23
    4  A    between atoms: C_8  and  N_25
    5  A    between atoms: C_10  and  N_12
    6  A    between atoms: C_11  and  C_26
    7  A    between atoms: C_13  and  N_16
    8  A    between atoms: C_21  and  C_33
    9  A    between atoms: C_22  and  N_25
   10  A    between atoms: C_22  and  C_33
   11  A    between atoms: N_23  and  C_26
                            x       y       z     vdW  Elec       q    Type
                         _______ _______ _______ _____ _____    ______ ____

>  <TORSDO>
F 11

$$$$
=
 OpenBabel11052410063D

 33 35  0  0  1  0  0  0  0  0999 V2000
  162.1550  208.7860  149.6470 C   0  0  1  0  0  3  0  0  0  0  0  0
  161.6340  207.5590  148.9640 C   0  0  0  0  0  0  0  0  0  0  0  0
  161.9580  204.9000  147.5490 C   0  0  0  0  0  3  0  0  0  0  0  0
  162.1330  206.2370  146.9500 C   0  0  0  0  0  3  0  0  0  0  0  0
  161.1030  204.6090  148.5350 C   0  0  0  0  0  0  0  0  0  0  0  0
  160.1250  205.6390  149.0070 C   0  0  0  0  0  2  0  0  0  0  0  0
  160.8100  206.7750  149.5990 N   0  0  0  0  0  0  0  0  0  0  0  0
  161.9810  207.3650  147.5810 N   0  0  0  0  0  0  0  0  0  0  0  0
  161.0590  201.0680  149.2160 C   0  0  0  0  0  3  0  0  0  0  0  0
  161.0450  203.2710  149.0590 N   0  0  0  0  0  0  0  0  0  0  0  0
  161.1790  202.1370  148.3440 C   0  0  0  0  0  3  0  0  0  0  0  0
  160.8500  202.9820  150.3340 N   0  0  0  0  0  0  0  0  0  0  0  0
  160.8520  201.6430  150.4620 C   0  0  0  0  0  3  0  0  0  0  0  0
  162.2690  209.9180  148.6400 C   0  0  0  0  0  2  0  0  0  0  0  0
  161.9690  211.1850  149.2860 N   0  0  0  0  0  2  0  0  0  0  0  0
  162.4300  212.2360  148.3980 C   0  0  0  0  0  2  0  0  0  0  0  0
  161.3290  213.2650  148.1670 C   0  0  0  0  0  2  0  0  0  0  0  0
  162.1040  213.3360  145.7950 C   0  0  0  0  0  1  0  0  0  0  0  0
  160.1380  212.1670  146.4240 O   0  0  0  0  0  1  0  0  0  0  0  0
  160.8950  213.3000  146.7100 C   0  0  1  0  0  3  0  0  0  0  0  0
  161.2790  209.1840  150.7440 N   0  0  0  0  0  2  0  0  0  0  0  0
  161.9960  208.9780  151.9930 C   0  0  0  0  0  2  0  0  0  0  0  0
  160.8280  211.0680  152.3890 O   0  0  0  0  0  0  0  0  0  0  0  0
  161.0420  210.9350  155.1170 C   0  0  0  0  0  2  0  0  0  0  0  0
  159.6580  211.1850  154.4990 C   0  0  2  0  0  3  0  0  0  0  0  0
  161.8780  210.2260  152.8500 C   0  0  1  0  0  3  0  0  0  0  0  0
  161.8180  209.8680  154.3500 C   0  0  0  0  0  2  0  0  0  0  0  0
  158.5450  211.2470  152.3600 F   0  0  0  0  0  0  0  0  0  0  0  0
  159.6270  210.7150  153.0360 C   0  0  1  0  0  3  0  0  0  0  0  0
  157.8970  214.3370  155.1250 O   0  0  0  0  0  0  0  0  0  0  0  0
  159.3480  212.6070  154.5750 N   0  0  0  0  0  2  0  0  0  0  0  0
  158.0860  213.0970  155.0310 C   0  0  0  0  0  0  0  0  0  0  0  0
  157.0650  212.2170  155.3690 O   0  0  0  0  0  1  0  0  0  0  0  0
  1 14  1  6  0  0  0
  1 21  1  0  0  0  0
  2  7  2  0  0  0  0
  2  1  1  0  0  0  0
  3  5  2  0  0  0  0
  4  3  1  0  0  0  0
  4  8  2  0  0  0  0
  5  6  1  0  0  0  0
  5 10  1  0  0  0  0
  6  7  1  0  0  0  0
  8  2  1  0  0  0  0
  9 13  1  0  0  0  0
 10 12  1  0  0  0  0
 11 10  1  0  0  0  0
 11  9  2  0  0  0  0
 12 13  2  0  0  0  0
 14 15  1  0  0  0  0
 16 15  1  0  0  0  0
 17 16  1  0  0  0  0
 19 20  1  0  0  0  0
 20 18  1  6  0  0  0
 20 17  1  0  0  0  0
 21 22  1  0  0  0  0
 23 26  1  0  0  0  0
 23 29  1  0  0  0  0
 25 31  1  6  0  0  0
 25 24  1  0  0  0  0
 26 22  1  6  0  0  0
 26 27  1  0  0  0  0
 27 24  1  0  0  0  0
 29 28  1  6  0  0  0
 29 25  1  0  0  0  0
 31 32  1  0  0  0  0
 32 30  2  0  0  0  0
 32 33  1  0  0  0  0
M  END
>  <MODEL>
7

>  <REMARK>
 VINA RESULT:      -6.3      3.060      5.689
  Name = 
  11 active torsions:
  status: ('A' for Active; 'I' for Inactive)
    1  A    between atoms: C_2  and  C_3
    2  A    between atoms: C_2  and  C_8
    3  A    between atoms: C_2  and  N_23
    4  A    between atoms: C_8  and  N_25
    5  A    between atoms: C_10  and  N_12
    6  A    between atoms: C_11  and  C_26
    7  A    between atoms: C_13  and  N_16
    8  A    between atoms: C_21  and  C_33
    9  A    between atoms: C_22  and  N_25
   10  A    between atoms: C_22  and  C_33
   11  A    between atoms: N_23  and  C_26
                            x       y       z     vdW  Elec       q    Type
                         _______ _______ _______ _____ _____    ______ ____

>  <TORSDO>
F 11

$$$$
=
 OpenBabel11052410063D

 33 35  0  0  1  0  0  0  0  0999 V2000
  161.6970  209.7850  150.4110 C   0  0  1  0  0  3  0  0  0  0  0  0
  161.8880  208.4020  149.8700 C   0  0  0  0  0  0  0  0  0  0  0  0
  160.9160  205.6520  149.0520 C   0  0  0  0  0  3  0  0  0  0  0  0
  161.1930  206.1080  150.4280 C   0  0  0  0  0  3  0  0  0  0  0  0
  161.5620  206.0750  147.9610 C   0  0  0  0  0  0  0  0  0  0  0  0
  162.7570  206.9660  148.0960 C   0  0  0  0  0  2  0  0  0  0  0  0
  162.3900  208.2450  148.6780 N   0  0  0  0  0  0  0  0  0  0  0  0
  161.6170  207.2960  150.7500 N   0  0  0  0  0  0  0  0  0  0  0  0
  160.9370  204.2800  144.8970 C   0  0  0  0  0  3  0  0  0  0  0  0
  161.1800  205.5770  146.6670 N   0  0  0  0  0  0  0  0  0  0  0  0
  161.4890  204.3670  146.1630 C   0  0  0  0  0  3  0  0  0  0  0  0
  160.4620  206.2620  145.7920 N   0  0  0  0  0  0  0  0  0  0  0  0
  160.2980  205.4950  144.6990 C   0  0  0  0  0  3  0  0  0  0  0  0
  162.2340  209.8540  151.8310 C   0  0  0  0  0  2  0  0  0  0  0  0
  161.2890  210.5610  152.6800 N   0  0  0  0  0  2  0  0  0  0  0  0
  161.1930  209.8160  153.9230 C   0  0  0  0  0  2  0  0  0  0  0  0
  160.5370  208.4600  153.6850 C   0  0  0  0  0  2  0  0  0  0  0  0
  160.2110  207.3170  155.8810 C   0  0  0  0  0  1  0  0  0  0  0  0
  161.0900  206.1670  154.0010 O   0  0  0  0  0  1  0  0  0  0  0  0
  161.0770  207.4060  154.6390 C   0  0  1  0  0  3  0  0  0  0  0  0
  162.3750  210.7710  149.5760 N   0  0  0  0  0  2  0  0  0  0  0  0
  161.4040  211.7850  149.1930 C   0  0  0  0  0  2  0  0  0  0  0  0
  160.6430  211.7770  146.8880 O   0  0  0  0  0  0  0  0  0  0  0  0
  161.5810  214.2890  146.3310 C   0  0  0  0  0  2  0  0  0  0  0  0
  160.1200  213.9570  145.9920 C   0  0  2  0  0  3  0  0  0  0  0  0
  161.6730  212.2200  147.7640 C   0  0  1  0  0  3  0  0  0  0  0  0
  161.9860  213.7300  147.6920 C   0  0  0  0  0  2  0  0  0  0  0  0
  158.4780  212.2160  146.2880 F   0  0  0  0  0  0  0  0  0  0  0  0
  159.6340  212.7570  146.8190 C   0  0  1  0  0  3  0  0  0  0  0  0
  158.8190  213.7110  142.5750 O   0  0  0  0  0  0  0  0  0  0  0  0
  160.0120  213.6630  144.5690 N   0  0  0  0  0  2  0  0  0  0  0  0
  158.8320  213.9390  143.8130 C   0  0  0  0  0  0  0  0  0  0  0  0
  157.6990  214.4530  144.4310 O   0  0  0  0  0  1  0  0  0  0  0  0
  1 14  1  1  0  0  0
  2  1  1  0  0  0  0
  2  8  1  0  0  0  0
  3  4  1  0  0  0  0
  4  8  2  0  0  0  0
  5  6  1  0  0  0  0
  5  3  2  0  0  0  0
  6  7  1  0  0  0  0
  7  2  2  0  0  0  0
  9 11  2  0  0  0  0
 10  5  1  0  0  0  0
 11 10  1  0  0  0  0
 12 10  1  0  0  0  0
 13  9  1  0  0  0  0
 13 12  2  0  0  0  0
 14 15  1  0  0  0  0
 15 16  1  0  0  0  0
 17 16  1  0  0  0  0
 17 20  1  0  0  0  0
 19 20  1  0  0  0  0
 20 18  1  1  0  0  0
 21  1  1  0  0  0  0
 22 21  1  0  0  0  0
 23 26  1  0  0  0  0
 24 27  1  0  0  0  0
 25 31  1  6  0  0  0
 25 24  1  0  0  0  0
 25 29  1  0  0  0  0
 26 22  1  1  0  0  0
 27 26  1  0  0  0  0
 29 28  1  6  0  0  0
 29 23  1  0  0  0  0
 30 32  2  0  0  0  0
 32 33  1  0  0  0  0
 32 31  1  0  0  0  0
M  END
>  <MODEL>
8

>  <REMARK>
 VINA RESULT:      -6.2      5.053      7.503
  Name = 
  11 active torsions:
  status: ('A' for Active; 'I' for Inactive)
    1  A    between atoms: C_2  and  C_3
    2  A    between atoms: C_2  and  C_8
    3  A    between atoms: C_2  and  N_23
    4  A    between atoms: C_8  and  N_25
    5  A    between atoms: C_10  and  N_12
    6  A    between atoms: C_11  and  C_26
    7  A    between atoms: C_13  and  N_16
    8  A    between atoms: C_21  and  C_33
    9  A    between atoms: C_22  and  N_25
   10  A    between atoms: C_22  and  C_33
   11  A    between atoms: N_23  and  C_26
                            x       y       z     vdW  Elec       q    Type
                         _______ _______ _______ _____ _____    ______ ____

>  <TORSDO>
F 11

$$$$
=
 OpenBabel11052410063D

 33 35  0  0  1  0  0  0  0  0999 V2000
  161.3140  209.3400  151.6450 C   0  0  1  0  0  3  0  0  0  0  0  0
  160.7230  210.4130  152.5070 C   0  0  0  0  0  0  0  0  0  0  0  0
  158.6070  212.4590  153.2210 C   0  0  0  0  0  3  0  0  0  0  0  0
  159.6790  212.6220  152.2200 C   0  0  0  0  0  3  0  0  0  0  0  0
  158.7080  211.7350  154.3390 C   0  0  0  0  0  0  0  0  0  0  0  0
  160.0250  211.1410  154.7310 C   0  0  0  0  0  2  0  0  0  0  0  0
  160.4620  210.1560  153.7580 N   0  0  0  0  0  0  0  0  0  0  0  0
  160.5810  211.7260  151.9380 N   0  0  0  0  0  0  0  0  0  0  0  0
  155.5900  211.1450  156.0520 C   0  0  0  0  0  3  0  0  0  0  0  0
  157.5790  211.6270  155.2250 N   0  0  0  0  0  0  0  0  0  0  0  0
  156.4060  211.0320  154.9390 C   0  0  0  0  0  3  0  0  0  0  0  0
  157.5550  212.1100  156.4550 N   0  0  0  0  0  0  0  0  0  0  0  0
  156.3500  211.8320  156.9870 C   0  0  0  0  0  3  0  0  0  0  0  0
  162.3250  209.9550  150.6910 C   0  0  0  0  0  2  0  0  0  0  0  0
  162.1010  209.4530  149.3450 N   0  0  0  0  0  2  0  0  0  0  0  0
  161.5840  210.5580  148.5590 C   0  0  0  0  0  2  0  0  0  0  0  0
  162.5230  211.7570  148.6360 C   0  0  0  0  0  2  0  0  0  0  0  0
  160.9390  212.6320  146.9160 C   0  0  0  0  0  1  0  0  0  0  0  0
  162.6930  213.9720  147.7840 O   0  0  0  0  0  1  0  0  0  0  0  0
  162.3670  212.6660  147.4270 C   0  0  1  0  0  3  0  0  0  0  0  0
  161.9580  208.3130  152.4560 N   0  0  0  0  0  2  0  0  0  0  0  0
  161.1570  207.1010  152.3730 C   0  0  0  0  0  2  0  0  0  0  0  0
  161.8880  204.9000  151.6580 O   0  0  0  0  0  0  0  0  0  0  0  0
  160.8330  205.1170  149.1400 C   0  0  0  0  0  2  0  0  0  0  0  0
  160.4950  203.8730  149.9750 C   0  0  2  0  0  3  0  0  0  0  0  0
  161.6700  206.2400  151.2330 C   0  0  1  0  0  3  0  0  0  0  0  0
  160.7830  206.3910  149.9790 C   0  0  0  0  0  2  0  0  0  0  0  0
  160.7680  202.9780  152.1980 F   0  0  0  0  0  0  0  0  0  0  0  0
  160.7100  204.1520  151.4710 C   0  0  1  0  0  3  0  0  0  0  0  0
  161.5780  200.6330  148.6490 O   0  0  0  0  0  0  0  0  0  0  0  0
  161.3360  202.7630  149.5460 N   0  0  0  0  0  2  0  0  0  0  0  0
  160.7990  201.5340  149.0540 C   0  0  0  0  0  0  0  0  0  0  0  0
  159.4260  201.3240  149.0220 O   0  0  0  0  0  1  0  0  0  0  0  0
  1 14  1  6  0  0  0
  1 21  1  0  0  0  0
  1  2  1  0  0  0  0
  2  7  2  0  0  0  0
  3  5  2  0  0  0  0
  4  3  1  0  0  0  0
  5  6  1  0  0  0  0
  5 10  1  0  0  0  0
  7  6  1  0  0  0  0
  8  4  2  0  0  0  0
  8  2  1  0  0  0  0
  9 13  1  0  0  0  0
 10 12  1  0  0  0  0
 11 10  1  0  0  0  0
 11  9  2  0  0  0  0
 12 13  2  0  0  0  0
 15 14  1  0  0  0  0
 16 17  1  0  0  0  0
 16 15  1  0  0  0  0
 20 18  1  1  0  0  0
 20 19  1  0  0  0  0
 20 17  1  0  0  0  0
 22 21  1  0  0  0  0
 24 25  1  0  0  0  0
 24 27  1  0  0  0  0
 25 31  1  6  0  0  0
 25 29  1  0  0  0  0
 26 23  1  0  0  0  0
 26 22  1  1  0  0  0
 27 26  1  0  0  0  0
 29 23  1  0  0  0  0
 29 28  1  1  0  0  0
 30 32  2  0  0  0  0
 32 31  1  0  0  0  0
 33 32  1  0  0  0  0
M  END
>  <MODEL>
9

>  <REMARK>
 VINA RESULT:      -6.2      3.743      9.398
  Name = 
  11 active torsions:
  status: ('A' for Active; 'I' for Inactive)
    1  A    between atoms: C_2  and  C_3
    2  A    between atoms: C_2  and  C_8
    3  A    between atoms: C_2  and  N_23
    4  A    between atoms: C_8  and  N_25
    5  A    between atoms: C_10  and  N_12
    6  A    between atoms: C_11  and  C_26
    7  A    between atoms: C_13  and  N_16
    8  A    between atoms: C_21  and  C_33
    9  A    between atoms: C_22  and  N_25
   10  A    between atoms: C_22  and  C_33
   11  A    between atoms: N_23  and  C_26
                            x       y       z     vdW  Elec       q    Type
                         _______ _______ _______ _____ _____    ______ ____

>  <TORSDO>
F 11

$$$$
