=
 OpenBabel11052409573D

 29 32  0  0  1  0  0  0  0  0999 V2000
  160.9980  205.5320  151.0530 N   0  0  0  0  0  0  0  0  0  0  0  0
  161.1820  205.7320  148.6350 C   0  0  0  0  0  3  0  0  0  0  0  0
  160.4390  205.7050  149.7360 C   0  0  0  0  0  2  0  0  0  0  0  0
  160.5640  205.9080  147.3650 N   0  0  0  0  0  0  0  0  0  0  0  0
  160.5480  206.2800  145.0630 O   0  0  0  0  0  1  0  0  0  0  0  0
  161.3680  206.0180  146.1600 C   0  0  2  0  0  3  0  0  0  0  0  0
  162.1220  204.7500  145.9390 C   0  0  0  0  0  0  0  0  0  0  0  0
  163.4940  204.7210  146.1440 O   0  0  0  0  0  1  0  0  0  0  0  0
  161.5190  203.7030  145.5820 O   0  0  0  0  0  0  0  0  0  0  0  0
  160.4240  204.6000  151.9910 C   0  0  0  0  0  3  0  0  0  0  0  0
  160.6940  203.2920  152.0730 C   0  0  0  0  0  3  0  0  0  0  0  0
  161.6780  202.5590  151.2270 C   0  0  0  0  0  2  0  0  0  0  0  0
  160.2190  201.6130  148.3360 C   0  0  2  0  0  3  0  0  0  0  0  0
  159.9300  201.4150  149.6860 N   0  0  0  0  0  2  0  0  0  0  0  0
  161.0260  202.1260  149.9610 C   0  0  1  0  0  0  0  0  0  0  0  0
  161.3270  202.3460  148.5670 O   0  0  0  0  0  0  0  0  0  0  0  0
  162.0640  206.3680  151.5430 C   0  0  0  0  0  0  0  0  0  0  0  0
  163.2620  205.8310  151.7760 C   0  0  0  0  0  2  0  0  0  0  0  0
  160.4990  210.1770  154.3530 C   0  0  0  0  0  0  0  0  0  0  0  0
  161.3650  210.5160  152.1410 N   0  0  0  0  0  0  0  0  0  0  0  0
  160.4230  207.9310  155.2260 C   0  0  0  0  0  3  0  0  0  0  0  0
  160.1900  209.2970  155.3900 C   0  0  0  0  0  3  0  0  0  0  0  0
  162.1110  208.7040  150.8380 N   0  0  0  0  0  0  0  0  0  0  0  0
  161.8990  210.0370  150.9900 C   0  0  0  0  0  3  0  0  0  0  0  0
  160.2700  211.5720  154.5220 N   0  0  0  0  0  1  0  0  0  0  0  0
  160.9440  207.4610  154.0610 N   0  0  0  0  0  0  0  0  0  0  0  0
  161.2510  208.2910  153.0240 C   0  0  0  0  0  0  0  0  0  0  0  0
  161.0390  209.6790  153.1590 C   0  0  0  0  0  0  0  0  0  0  0  0
  161.8000  207.8080  151.8140 C   0  0  0  0  0  0  0  0  0  0  0  0
  1 17  1  0  0  0  0
  1 10  1  0  0  0  0
  2  3  1  0  0  0  0
  3  1  1  0  0  0  0
  4  2  2  0  0  0  0
  6  5  1  6  0  0  0
  6  4  1  0  0  0  0
  7  8  1  0  0  0  0
  7  6  1  0  0  0  0
  9  7  2  0  0  0  0
 10 11  2  0  0  0  0
 12 11  1  0  0  0  0
 13 16  1  1  0  0  0
 13 14  1  0  0  0  0
 13 15  1  0  0  0  0
 14 15  1  0  0  0  0
 15 12  1  1  0  0  0
 16 15  1  0  0  0  0
 17 18  2  0  0  0  0
 17 29  1  0  0  0  0
 19 25  1  0  0  0  0
 19 22  1  0  0  0  0
 20 28  1  0  0  0  0
 21 22  2  0  0  0  0
 23 24  1  0  0  0  0
 23 29  2  0  0  0  0
 24 20  2  0  0  0  0
 26 21  1  0  0  0  0
 27 28  1  0  0  0  0
 27 26  2  0  0  0  0
 28 19  2  0  0  0  0
 29 27  1  0  0  0  0
M  END
>  <MODEL>
1

>  <REMARK>
 VINA RESULT:      -6.7      0.000      0.000
  Name = 
  9 active torsions:
  status: ('A' for Active; 'I' for Inactive)
    1  A    between atoms: C_1  and  N_17
    2  A    between atoms: N_2  and  C_9
    3  A    between atoms: N_2  and  C_24
    4  A    between atoms: N_2  and  C_28
    5  A    between atoms: C_4  and  C_25
    6  A    between atoms: C_10  and  C_12
    7  A    between atoms: C_10  and  C_23
    8  A    between atoms: N_17  and  C_25
    9  A    between atoms: C_24  and  C_26
                            x       y       z     vdW  Elec       q    Type
                         _______ _______ _______ _____ _____    ______ ____

>  <TORSDO>
F 9

$$$$
=
 OpenBabel11052409573D

 29 31  0  0  1  0  0  0  0  0999 V2000
  160.9970  206.1760  150.5240 N   0  0  0  0  0  0  0  0  0  0  0  0
  161.2470  203.8590  149.8260 C   0  0  0  0  0  3  0  0  0  0  0  0
  160.6440  204.7800  150.5690 C   0  0  0  0  0  3  0  0  0  0  0  0
  160.8460  202.4960  149.9200 N   0  0  0  0  0  2  0  0  0  0  0  0
  159.1270  200.9860  149.4660 O   0  0  0  0  0  1  0  0  0  0  0  0
  160.0140  201.8970  148.8900 C   0  0  2  0  0  3  0  0  0  0  0  0
  160.8730  201.2040  147.8870 C   0  0  0  0  0  0  0  0  0  0  0  0
  160.8270  201.5940  146.5560 O   0  0  0  0  0  0  0  0  0  0  0  0
  161.6500  200.2780  148.2430 O   0  0  0  0  0  1  0  0  0  0  0  0
  160.5420  207.0270  149.4530 C   0  0  0  0  0  3  0  0  0  0  0  0
  161.1990  207.2900  148.3170 C   0  0  0  0  0  3  0  0  0  0  0  0
  162.5190  206.7130  147.9310 C   0  0  0  0  0  2  0  0  0  0  0  0
  162.1530  204.5660  145.3540 C   0  0  0  0  0  2  0  0  0  0  0  0
  161.3060  205.4600  146.0080 N   0  0  0  0  0  0  0  0  0  0  0  0
  162.3380  205.7650  146.7980 C   0  0  0  0  0  0  0  0  0  0  0  0
  163.2260  204.8520  146.1200 O   0  0  0  0  0  0  0  0  0  0  0  0
  161.9240  206.7570  151.4620 C   0  0  0  0  0  0  0  0  0  0  0  0
  163.0650  206.1220  151.7310 C   0  0  0  0  0  2  0  0  0  0  0  0
  160.1690  209.4730  155.2560 C   0  0  0  0  0  0  0  0  0  0  0  0
  160.9760  210.4970  153.2420 N   0  0  0  0  0  0  0  0  0  0  0  0
  160.2480  207.0700  155.4360 C   0  0  0  0  0  3  0  0  0  0  0  0
  159.9320  208.3110  155.9910 C   0  0  0  0  0  3  0  0  0  0  0  0
  161.8120  209.1950  151.4690 N   0  0  0  0  0  0  0  0  0  0  0  0
  161.5200  210.4090  152.0030 C   0  0  0  0  0  3  0  0  0  0  0  0
  159.8550  210.7410  155.8240 N   0  0  0  0  0  1  0  0  0  0  0  0
  160.7780  206.9950  154.1860 N   0  0  0  0  0  0  0  0  0  0  0  0
  161.0160  208.1080  153.4370 C   0  0  0  0  0  0  0  0  0  0  0  0
  160.7190  209.3800  153.9700 C   0  0  0  0  0  0  0  0  0  0  0  0
  161.5740  208.0350  152.1410 C   0  0  0  0  0  0  0  0  0  0  0  0
  1  3  1  0  0  0  0
  1 17  1  0  0  0  0
  2  4  1  0  0  0  0
  2  3  2  0  0  0  0
  6  5  1  1  0  0  0
  6  4  1  0  0  0  0
  7  9  1  0  0  0  0
  7  6  1  0  0  0  0
  8  7  2  0  0  0  0
 10  1  1  0  0  0  0
 11 10  2  0  0  0  0
 12 11  1  0  0  0  0
 13 14  1  0  0  0  0
 13 16  1  0  0  0  0
 14 15  2  0  0  0  0
 15 12  1  0  0  0  0
 16 15  1  0  0  0  0
 17 18  2  0  0  0  0
 17 29  1  0  0  0  0
 19 25  1  0  0  0  0
 19 22  1  0  0  0  0
 20 28  1  0  0  0  0
 21 22  2  0  0  0  0
 23 24  1  0  0  0  0
 23 29  2  0  0  0  0
 24 20  2  0  0  0  0
 26 21  1  0  0  0  0
 27 28  1  0  0  0  0
 27 26  2  0  0  0  0
 28 19  2  0  0  0  0
 29 27  1  0  0  0  0
M  END
>  <MODEL>
2

>  <REMARK>
 VINA RESULT:      -6.6      1.356      3.383
  Name = 
  9 active torsions:
  status: ('A' for Active; 'I' for Inactive)
    1  A    between atoms: C_1  and  N_17
    2  A    between atoms: N_2  and  C_9
    3  A    between atoms: N_2  and  C_24
    4  A    between atoms: N_2  and  C_28
    5  A    between atoms: C_4  and  C_25
    6  A    between atoms: C_10  and  C_12
    7  A    between atoms: C_10  and  C_23
    8  A    between atoms: N_17  and  C_25
    9  A    between atoms: C_24  and  C_26
                            x       y       z     vdW  Elec       q    Type
                         _______ _______ _______ _____ _____    ______ ____

>  <TORSDO>
F 9

$$$$
=
 OpenBabel11052409573D

 29 31  0  0  1  0  0  0  0  0999 V2000
  161.1050  206.1450  150.3840 N   0  0  0  0  0  0  0  0  0  0  0  0
  161.2490  203.7550  150.8120 C   0  0  0  0  0  3  0  0  0  0  0  0
  160.7070  204.7780  150.1610 C   0  0  0  0  0  3  0  0  0  0  0  0
  160.8090  202.4280  150.5420 N   0  0  0  0  0  2  0  0  0  0  0  0
  159.1100  201.1280  149.6120 O   0  0  0  0  0  1  0  0  0  0  0  0
  160.0410  202.1320  149.3450 C   0  0  2  0  0  3  0  0  0  0  0  0
  160.9580  201.6970  148.2530 C   0  0  0  0  0  0  0  0  0  0  0  0
  161.2440  202.5650  147.2080 O   0  0  0  0  0  0  0  0  0  0  0  0
  161.4840  200.5530  148.2790 O   0  0  0  0  0  1  0  0  0  0  0  0
  160.7630  207.1840  149.4460 C   0  0  0  0  0  3  0  0  0  0  0  0
  161.2750  207.3430  148.2190 C   0  0  0  0  0  3  0  0  0  0  0  0
  162.2730  206.4400  147.5780 C   0  0  0  0  0  2  0  0  0  0  0  0
  161.1150  205.3310  144.6090 C   0  0  0  0  0  2  0  0  0  0  0  0
  160.5980  206.1440  145.6170 N   0  0  0  0  0  0  0  0  0  0  0  0
  161.7430  205.9530  146.2750 C   0  0  0  0  0  0  0  0  0  0  0  0
  162.2920  205.1210  145.2330 O   0  0  0  0  0  0  0  0  0  0  0  0
  161.9700  206.5180  151.4750 C   0  0  0  0  0  0  0  0  0  0  0  0
  163.2790  206.2840  151.3790 C   0  0  0  0  0  2  0  0  0  0  0  0
  160.3330  210.3250  154.2450 C   0  0  0  0  0  0  0  0  0  0  0  0
  160.2950  208.0690  155.0580 N   0  0  0  0  0  0  0  0  0  0  0  0
  161.1600  210.7310  152.0170 C   0  0  0  0  0  3  0  0  0  0  0  0
  160.6220  211.2150  153.2100 C   0  0  0  0  0  3  0  0  0  0  0  0
  161.0610  206.2850  153.7280 N   0  0  0  0  0  0  0  0  0  0  0  0
  160.5270  206.7430  154.8900 C   0  0  0  0  0  3  0  0  0  0  0  0
  159.7770  210.8170  155.4600 N   0  0  0  0  0  1  0  0  0  0  0  0
  161.4020  209.4010  151.8660 N   0  0  0  0  0  0  0  0  0  0  0  0
  161.1390  208.5050  152.8570 C   0  0  0  0  0  0  0  0  0  0  0  0
  160.5850  208.9570  154.0740 C   0  0  0  0  0  0  0  0  0  0  0  0
  161.3820  207.1210  152.7020 C   0  0  0  0  0  0  0  0  0  0  0  0
  1 17  1  0  0  0  0
  3  1  1  0  0  0  0
  3  2  2  0  0  0  0
  4  2  1  0  0  0  0
  6  5  1  1  0  0  0
  6  4  1  0  0  0  0
  7  9  1  0  0  0  0
  7  6  1  0  0  0  0
  8  7  2  0  0  0  0
 10  1  1  0  0  0  0
 11 10  2  0  0  0  0
 12 11  1  0  0  0  0
 13 16  1  0  0  0  0
 13 14  1  0  0  0  0
 14 15  2  0  0  0  0
 15 12  1  0  0  0  0
 16 15  1  0  0  0  0
 17 29  1  0  0  0  0
 18 17  2  0  0  0  0
 19 25  1  0  0  0  0
 21 22  1  0  0  0  0
 22 19  2  0  0  0  0
 23 24  2  0  0  0  0
 24 20  1  0  0  0  0
 26 21  2  0  0  0  0
 26 27  1  0  0  0  0
 27 28  1  0  0  0  0
 28 19  1  0  0  0  0
 28 20  2  0  0  0  0
 29 27  2  0  0  0  0
 29 23  1  0  0  0  0
M  END
>  <MODEL>
3

>  <REMARK>
 VINA RESULT:      -6.5      1.356      3.910
  Name = 
  9 active torsions:
  status: ('A' for Active; 'I' for Inactive)
    1  A    between atoms: C_1  and  N_17
    2  A    between atoms: N_2  and  C_9
    3  A    between atoms: N_2  and  C_24
    4  A    between atoms: N_2  and  C_28
    5  A    between atoms: C_4  and  C_25
    6  A    between atoms: C_10  and  C_12
    7  A    between atoms: C_10  and  C_23
    8  A    between atoms: N_17  and  C_25
    9  A    between atoms: C_24  and  C_26
                            x       y       z     vdW  Elec       q    Type
                         _______ _______ _______ _____ _____    ______ ____

>  <TORSDO>
F 9

$$$$
=
 OpenBabel11052409573D

 29 32  0  0  1  0  0  0  0  0999 V2000
  161.5960  206.6350  150.8670 N   0  0  0  0  0  0  0  0  0  0  0  0
  161.3900  206.3160  148.4640 C   0  0  0  0  0  3  0  0  0  0  0  0
  160.8300  206.4350  149.6630 C   0  0  0  0  0  2  0  0  0  0  0  0
  160.5730  206.1200  147.3140 N   0  0  0  0  0  0  0  0  0  0  0  0
  160.1610  206.1360  145.0190 O   0  0  0  0  0  1  0  0  0  0  0  0
  161.1630  206.0700  145.9880 C   0  0  2  0  0  3  0  0  0  0  0  0
  161.9400  204.8070  145.8290 C   0  0  0  0  0  0  0  0  0  0  0  0
  161.2790  203.6250  145.5250 O   0  0  0  0  0  0  0  0  0  0  0  0
  163.1930  204.8100  145.9550 O   0  0  0  0  0  1  0  0  0  0  0  0
  162.1960  205.5260  151.5630 C   0  0  0  0  0  3  0  0  0  0  0  0
  161.6870  204.2930  151.6760 C   0  0  0  0  0  3  0  0  0  0  0  0
  160.4120  203.8270  151.0600 C   0  0  0  0  0  2  0  0  0  0  0  0
  161.0720  201.3460  148.8720 C   0  0  2  0  0  3  0  0  0  0  0  0
  160.9340  202.7300  148.7660 N   0  0  0  0  0  2  0  0  0  0  0  0
  160.6960  202.7440  150.0800 C   0  0  1  0  0  0  0  0  0  0  0  0
  160.8490  201.3150  150.2010 O   0  0  0  0  0  0  0  0  0  0  0  0
  161.6880  207.9250  151.5040 C   0  0  0  0  0  0  0  0  0  0  0  0
  162.2820  208.9300  150.8620 C   0  0  0  0  0  2  0  0  0  0  0  0
  159.8360  210.6080  155.2750 C   0  0  0  0  0  0  0  0  0  0  0  0
  160.1900  208.2430  155.4670 N   0  0  0  0  0  0  0  0  0  0  0  0
  160.3690  211.6850  153.1850 C   0  0  0  0  0  3  0  0  0  0  0  0
  159.8950  211.7630  154.4950 C   0  0  0  0  0  3  0  0  0  0  0  0
  161.0530  206.9940  153.6690 N   0  0  0  0  0  0  0  0  0  0  0  0
  160.5830  207.0560  154.9420 C   0  0  0  0  0  3  0  0  0  0  0  0
  159.3450  210.6850  156.6100 N   0  0  0  0  0  1  0  0  0  0  0  0
  160.7740  210.4910  152.6750 N   0  0  0  0  0  0  0  0  0  0  0  0
  160.7380  209.3450  153.4100 C   0  0  0  0  0  0  0  0  0  0  0  0
  160.2540  209.3840  154.7350 C   0  0  0  0  0  0  0  0  0  0  0  0
  161.1510  208.1010  152.8810 C   0  0  0  0  0  0  0  0  0  0  0  0
  1 17  1  0  0  0  0
  1 10  1  0  0  0  0
  2  3  1  0  0  0  0
  3  1  1  0  0  0  0
  4  2  2  0  0  0  0
  6  5  1  6  0  0  0
  6  4  1  0  0  0  0
  7  9  1  0  0  0  0
  7  6  1  0  0  0  0
  8  7  2  0  0  0  0
 10 11  2  0  0  0  0
 12 11  1  0  0  0  0
 13 14  1  1  0  0  0
 13 15  1  0  0  0  0
 13 16  1  0  0  0  0
 14 15  1  0  0  0  0
 15 16  1  0  0  0  0
 15 12  1  6  0  0  0
 17 29  1  0  0  0  0
 18 17  2  0  0  0  0
 19 25  1  0  0  0  0
 21 22  1  0  0  0  0
 22 19  2  0  0  0  0
 23 24  2  0  0  0  0
 24 20  1  0  0  0  0
 26 21  2  0  0  0  0
 26 27  1  0  0  0  0
 27 28  1  0  0  0  0
 28 19  1  0  0  0  0
 28 20  2  0  0  0  0
 29 27  2  0  0  0  0
 29 23  1  0  0  0  0
M  END
>  <MODEL>
4

>  <REMARK>
 VINA RESULT:      -6.3      1.140      2.293
  Name = 
  9 active torsions:
  status: ('A' for Active; 'I' for Inactive)
    1  A    between atoms: C_1  and  N_17
    2  A    between atoms: N_2  and  C_9
    3  A    between atoms: N_2  and  C_24
    4  A    between atoms: N_2  and  C_28
    5  A    between atoms: C_4  and  C_25
    6  A    between atoms: C_10  and  C_12
    7  A    between atoms: C_10  and  C_23
    8  A    between atoms: N_17  and  C_25
    9  A    between atoms: C_24  and  C_26
                            x       y       z     vdW  Elec       q    Type
                         _______ _______ _______ _____ _____    ______ ____

>  <TORSDO>
F 9

$$$$
=
 OpenBabel11052409573D

 29 32  0  0  1  0  0  0  0  0999 V2000
  161.6820  207.6340  151.0020 N   0  0  0  0  0  0  0  0  0  0  0  0
  161.6620  209.8620  151.9800 C   0  0  0  0  0  3  0  0  0  0  0  0
  161.0120  208.7880  151.5460 C   0  0  0  0  0  3  0  0  0  0  0  0
  160.9370  210.9680  152.5060 N   0  0  0  0  0  2  0  0  0  0  0  0
  158.6940  211.5960  152.3840 O   0  0  0  0  0  1  0  0  0  0  0  0
  159.6060  210.7840  153.0590 C   0  0  2  0  0  3  0  0  0  0  0  0
  159.6120  211.1240  154.5110 C   0  0  0  0  0  0  0  0  0  0  0  0
  158.4570  210.9520  155.2620 O   0  0  0  0  0  1  0  0  0  0  0  0
  160.6610  211.5520  155.0620 O   0  0  0  0  0  0  0  0  0  0  0  0
  162.5590  206.8290  151.8140 C   0  0  0  0  0  3  0  0  0  0  0  0
  162.2260  206.1820  152.9380 C   0  0  0  0  0  3  0  0  0  0  0  0
  160.8620  206.1440  153.5390 C   0  0  0  0  0  2  0  0  0  0  0  0
  160.7420  208.0600  156.3130 C   0  0  2  0  0  3  0  0  0  0  0  0
  161.4820  208.0980  155.1310 N   0  0  0  0  0  2  0  0  0  0  0  0
  160.8280  206.9950  154.7590 C   0  0  1  0  0  0  0  0  0  0  0  0
  160.0490  206.9540  155.9730 O   0  0  0  0  0  0  0  0  0  0  0  0
  161.6170  207.3070  149.6000 C   0  0  0  0  0  0  0  0  0  0  0  0
  161.7590  208.2760  148.6960 C   0  0  0  0  0  2  0  0  0  0  0  0
  161.4950  203.5560  146.3190 C   0  0  0  0  0  0  0  0  0  0  0  0
  160.8040  203.2590  148.5970 N   0  0  0  0  0  0  0  0  0  0  0  0
  162.2930  205.7250  145.6320 C   0  0  0  0  0  3  0  0  0  0  0  0
  162.0030  204.3950  145.3270 C   0  0  0  0  0  3  0  0  0  0  0  0
  160.8830  205.0410  150.1320 N   0  0  0  0  0  0  0  0  0  0  0  0
  160.6080  203.7410  149.8490 C   0  0  0  0  0  3  0  0  0  0  0  0
  161.2060  202.1960  146.0100 N   0  0  0  0  0  1  0  0  0  0  0  0
  162.0770  206.2010  146.8880 N   0  0  0  0  0  0  0  0  0  0  0  0
  161.5750  205.4120  147.8800 C   0  0  0  0  0  0  0  0  0  0  0  0
  161.2810  204.0590  147.6090 C   0  0  0  0  0  0  0  0  0  0  0  0
  161.3560  205.9000  149.1880 C   0  0  0  0  0  0  0  0  0  0  0  0
  1  3  1  0  0  0  0
  1 10  1  0  0  0  0
  2  4  1  0  0  0  0
  3  2  2  0  0  0  0
  4  6  1  0  0  0  0
  6  5  1  6  0  0  0
  6  7  1  0  0  0  0
  7  9  2  0  0  0  0
  7  8  1  0  0  0  0
 10 11  2  0  0  0  0
 11 12  1  0  0  0  0
 13 14  1  6  0  0  0
 15 12  1  1  0  0  0
 15 14  1  0  0  0  0
 15 16  1  0  0  0  0
 15 13  1  0  0  0  0
 16 13  1  0  0  0  0
 17  1  1  0  0  0  0
 18 17  2  0  0  0  0
 19 28  1  0  0  0  0
 20 24  1  0  0  0  0
 21 26  2  0  0  0  0
 22 21  1  0  0  0  0
 22 19  2  0  0  0  0
 24 23  2  0  0  0  0
 25 19  1  0  0  0  0
 26 27  1  0  0  0  0
 27 29  2  0  0  0  0
 28 27  1  0  0  0  0
 28 20  2  0  0  0  0
 29 17  1  0  0  0  0
 29 23  1  0  0  0  0
M  END
>  <MODEL>
5

>  <REMARK>
 VINA RESULT:      -6.1      4.090      7.948
  Name = 
  9 active torsions:
  status: ('A' for Active; 'I' for Inactive)
    1  A    between atoms: C_1  and  N_17
    2  A    between atoms: N_2  and  C_9
    3  A    between atoms: N_2  and  C_24
    4  A    between atoms: N_2  and  C_28
    5  A    between atoms: C_4  and  C_25
    6  A    between atoms: C_10  and  C_12
    7  A    between atoms: C_10  and  C_23
    8  A    between atoms: N_17  and  C_25
    9  A    between atoms: C_24  and  C_26
                            x       y       z     vdW  Elec       q    Type
                         _______ _______ _______ _____ _____    ______ ____

>  <TORSDO>
F 9

$$$$
=
 OpenBabel11052409573D

 29 32  0  0  1  0  0  0  0  0999 V2000
  161.6150  208.4400  151.4690 N   0  0  0  0  0  0  0  0  0  0  0  0
  161.3670  207.4110  149.2780 C   0  0  0  0  0  3  0  0  0  0  0  0
  162.1340  207.7740  150.3010 C   0  0  0  0  0  3  0  0  0  0  0  0
  161.9460  206.7540  148.1550 N   0  0  0  0  0  2  0  0  0  0  0  0
  161.7270  204.4630  147.7770 O   0  0  0  0  0  1  0  0  0  0  0  0
  161.2140  205.7180  147.4470 C   0  0  2  0  0  3  0  0  0  0  0  0
  161.3220  205.9390  145.9760 C   0  0  0  0  0  0  0  0  0  0  0  0
  160.2010  206.3270  145.2550 O   0  0  0  0  0  0  0  0  0  0  0  0
  162.4250  205.7910  145.3880 O   0  0  0  0  0  1  0  0  0  0  0  0
  160.7700  207.7490  152.4090 C   0  0  0  0  0  3  0  0  0  0  0  0
  160.9290  206.4920  152.8420 C   0  0  0  0  0  3  0  0  0  0  0  0
  162.0460  205.5830  152.4570 C   0  0  0  0  0  2  0  0  0  0  0  0
  160.8530  202.8650  150.8550 C   0  0  2  0  0  3  0  0  0  0  0  0
  160.5260  204.2210  150.8530 N   0  0  0  0  0  2  0  0  0  0  0  0
  161.5020  204.3930  151.7480 C   0  0  1  0  0  0  0  0  0  0  0  0
  161.8540  202.9940  151.7480 O   0  0  0  0  0  0  0  0  0  0  0  0
  161.8020  209.8530  151.6850 C   0  0  0  0  0  0  0  0  0  0  0  0
  162.2560  210.6110  150.6870 C   0  0  0  0  0  2  0  0  0  0  0  0
  159.1080  212.4920  154.9440 C   0  0  0  0  0  0  0  0  0  0  0  0
  161.1680  211.4370  155.5750 N   0  0  0  0  0  0  0  0  0  0  0  0
  158.3280  212.2290  152.6780 C   0  0  0  0  0  3  0  0  0  0  0  0
  158.1520  212.7490  153.9600 C   0  0  0  0  0  3  0  0  0  0  0  0
  162.4170  210.1850  154.0230 N   0  0  0  0  0  0  0  0  0  0  0  0
  162.2500  210.6770  155.2790 C   0  0  0  0  0  3  0  0  0  0  0  0
  158.9250  213.0160  156.2550 N   0  0  0  0  0  1  0  0  0  0  0  0
  159.4260  211.4800  152.3880 N   0  0  0  0  0  0  0  0  0  0  0  0
  160.3830  211.2160  153.3220 C   0  0  0  0  0  0  0  0  0  0  0  0
  160.2320  211.7170  154.6320 C   0  0  0  0  0  0  0  0  0  0  0  0
  161.5220  210.4320  153.0270 C   0  0  0  0  0  0  0  0  0  0  0  0
  1 17  1  0  0  0  0
  1 10  1  0  0  0  0
  2  3  2  0  0  0  0
  3  1  1  0  0  0  0
  4  2  1  0  0  0  0
  6  5  1  6  0  0  0
  6  4  1  0  0  0  0
  7  6  1  0  0  0  0
  8  7  2  0  0  0  0
  9  7  1  0  0  0  0
 10 11  2  0  0  0  0
 12 11  1  0  0  0  0
 13 14  1  6  0  0  0
 13 15  1  0  0  0  0
 13 16  1  0  0  0  0
 14 15  1  0  0  0  0
 15 16  1  0  0  0  0
 15 12  1  1  0  0  0
 17 29  1  0  0  0  0
 18 17  2  0  0  0  0
 19 25  1  0  0  0  0
 21 22  1  0  0  0  0
 22 19  2  0  0  0  0
 23 24  2  0  0  0  0
 24 20  1  0  0  0  0
 26 21  2  0  0  0  0
 26 27  1  0  0  0  0
 27 28  1  0  0  0  0
 28 19  1  0  0  0  0
 28 20  2  0  0  0  0
 29 27  2  0  0  0  0
 29 23  1  0  0  0  0
M  END
>  <MODEL>
6

>  <REMARK>
 VINA RESULT:      -6.0      1.861      3.306
  Name = 
  9 active torsions:
  status: ('A' for Active; 'I' for Inactive)
    1  A    between atoms: C_1  and  N_17
    2  A    between atoms: N_2  and  C_9
    3  A    between atoms: N_2  and  C_24
    4  A    between atoms: N_2  and  C_28
    5  A    between atoms: C_4  and  C_25
    6  A    between atoms: C_10  and  C_12
    7  A    between atoms: C_10  and  C_23
    8  A    between atoms: N_17  and  C_25
    9  A    between atoms: C_24  and  C_26
                            x       y       z     vdW  Elec       q    Type
                         _______ _______ _______ _____ _____    ______ ____

>  <TORSDO>
F 9

$$$$
=
 OpenBabel11052409573D

 29 32  0  0  1  0  0  0  0  0999 V2000
  161.0160  210.1480  152.9140 N   0  0  0  0  0  0  0  0  0  0  0  0
  159.5370  212.0370  152.5110 C   0  0  0  0  0  3  0  0  0  0  0  0
  159.7150  210.7380  152.7230 C   0  0  0  0  0  3  0  0  0  0  0  0
  158.2220  212.5540  152.3310 N   0  0  0  0  0  2  0  0  0  0  0  0
  158.6610  213.9600  154.1400 O   0  0  0  0  0  1  0  0  0  0  0  0
  157.6610  213.4950  153.2850 C   0  0  2  0  0  3  0  0  0  0  0  0
  156.5860  212.8300  154.0760 C   0  0  0  0  0  0  0  0  0  0  0  0
  155.3690  213.4720  154.2600 O   0  0  0  0  0  0  0  0  0  0  0  0
  156.7710  211.6840  154.5670 O   0  0  0  0  0  1  0  0  0  0  0  0
  161.8400  210.5060  154.0400 C   0  0  0  0  0  3  0  0  0  0  0  0
  161.4670  210.5080  155.3260 C   0  0  0  0  0  3  0  0  0  0  0  0
  160.1280  210.0960  155.8350 C   0  0  0  0  0  2  0  0  0  0  0  0
  160.2340  206.9260  156.9830 C   0  0  2  0  0  3  0  0  0  0  0  0
  160.9510  208.0890  157.2610 N   0  0  0  0  0  2  0  0  0  0  0  0
  160.1940  208.7000  156.3470 C   0  0  1  0  0  0  0  0  0  0  0  0
  159.4380  207.5050  156.0610 O   0  0  0  0  0  0  0  0  0  0  0  0
  161.6100  209.2810  151.9280 C   0  0  0  0  0  0  0  0  0  0  0  0
  162.2620  209.8150  150.8960 C   0  0  0  0  0  2  0  0  0  0  0  0
  160.8510  204.6850  150.1510 C   0  0  0  0  0  0  0  0  0  0  0  0
  161.1730  205.0920  152.4930 N   0  0  0  0  0  0  0  0  0  0  0  0
  160.9320  206.5590  148.6360 C   0  0  0  0  0  3  0  0  0  0  0  0
  160.7780  205.1890  148.8520 C   0  0  0  0  0  3  0  0  0  0  0  0
  161.5420  207.2690  153.3080 N   0  0  0  0  0  0  0  0  0  0  0  0
  161.4050  205.9360  153.5300 C   0  0  0  0  0  3  0  0  0  0  0  0
  160.7020  203.2870  150.3720 N   0  0  0  0  0  1  0  0  0  0  0  0
  161.1490  207.3970  149.6860 N   0  0  0  0  0  0  0  0  0  0  0  0
  161.2200  206.9400  150.9680 C   0  0  0  0  0  0  0  0  0  0  0  0
  161.0790  205.5600  151.2220 C   0  0  0  0  0  0  0  0  0  0  0  0
  161.4520  207.8060  152.0600 C   0  0  0  0  0  0  0  0  0  0  0  0
  1 10  1  0  0  0  0
  2  3  2  0  0  0  0
  3  1  1  0  0  0  0
  4  2  1  0  0  0  0
  4  6  1  0  0  0  0
  6  7  1  0  0  0  0
  6  5  1  1  0  0  0
  7  8  2  0  0  0  0
  7  9  1  0  0  0  0
 10 11  2  0  0  0  0
 11 12  1  0  0  0  0
 13 16  1  1  0  0  0
 13 14  1  0  0  0  0
 15 12  1  6  0  0  0
 15 13  1  0  0  0  0
 15 14  1  0  0  0  0
 16 15  1  0  0  0  0
 17 29  1  0  0  0  0
 17  1  1  0  0  0  0
 18 17  2  0  0  0  0
 19 25  1  0  0  0  0
 19 28  1  0  0  0  0
 20 24  1  0  0  0  0
 21 22  1  0  0  0  0
 21 26  2  0  0  0  0
 22 19  2  0  0  0  0
 23 24  2  0  0  0  0
 26 27  1  0  0  0  0
 27 28  1  0  0  0  0
 27 29  2  0  0  0  0
 28 20  2  0  0  0  0
 29 23  1  0  0  0  0
M  END
>  <MODEL>
7

>  <REMARK>
 VINA RESULT:      -5.8      4.688      8.157
  Name = 
  9 active torsions:
  status: ('A' for Active; 'I' for Inactive)
    1  A    between atoms: C_1  and  N_17
    2  A    between atoms: N_2  and  C_9
    3  A    between atoms: N_2  and  C_24
    4  A    between atoms: N_2  and  C_28
    5  A    between atoms: C_4  and  C_25
    6  A    between atoms: C_10  and  C_12
    7  A    between atoms: C_10  and  C_23
    8  A    between atoms: N_17  and  C_25
    9  A    between atoms: C_24  and  C_26
                            x       y       z     vdW  Elec       q    Type
                         _______ _______ _______ _____ _____    ______ ____

>  <TORSDO>
F 9

$$$$
=
 OpenBabel11052409573D

 29 32  0  0  1  0  0  0  0  0999 V2000
  161.3060  208.6160  151.4780 N   0  0  0  0  0  0  0  0  0  0  0  0
  161.5790  210.4050  149.8520 C   0  0  0  0  0  3  0  0  0  0  0  0
  162.1010  209.4450  150.6080 C   0  0  0  0  0  3  0  0  0  0  0  0
  162.4240  211.1870  149.0140 N   0  0  0  0  0  2  0  0  0  0  0  0
  160.9450  212.9510  149.3890 O   0  0  0  0  0  1  0  0  0  0  0  0
  162.0440  212.5370  148.6360 C   0  0  2  0  0  3  0  0  0  0  0  0
  161.7080  212.5790  147.1830 C   0  0  0  0  0  0  0  0  0  0  0  0
  160.4660  212.1340  146.7510 O   0  0  0  0  0  1  0  0  0  0  0  0
  162.5380  213.0280  146.3490 O   0  0  0  0  0  0  0  0  0  0  0  0
  160.3530  209.1910  152.3930 C   0  0  0  0  0  3  0  0  0  0  0  0
  160.6380  209.9300  153.4720 C   0  0  0  0  0  3  0  0  0  0  0  0
  162.0070  210.3320  153.9050 C   0  0  0  0  0  2  0  0  0  0  0  0
  162.3400  209.6940  157.2010 C   0  0  2  0  0  3  0  0  0  0  0  0
  162.8370  210.6730  156.3410 N   0  0  0  0  0  2  0  0  0  0  0  0
  162.1720  210.0600  155.3590 C   0  0  1  0  0  0  0  0  0  0  0  0
  161.6430  209.0500  156.2430 O   0  0  0  0  0  0  0  0  0  0  0  0
  161.5160  207.1930  151.5740 C   0  0  0  0  0  0  0  0  0  0  0  0
  161.9560  206.6730  152.7190 C   0  0  0  0  0  2  0  0  0  0  0  0
  160.8720  202.8240  149.2610 C   0  0  0  0  0  0  0  0  0  0  0  0
  160.8330  204.9010  148.0620 N   0  0  0  0  0  0  0  0  0  0  0  0
  161.2030  202.8800  151.6490 C   0  0  0  0  0  3  0  0  0  0  0  0
  160.9920  202.1510  150.4780 C   0  0  0  0  0  3  0  0  0  0  0  0
  161.1260  206.9530  149.1760 N   0  0  0  0  0  0  0  0  0  0  0  0
  160.9090  206.2550  148.0310 C   0  0  0  0  0  3  0  0  0  0  0  0
  160.6490  202.0820  148.0670 N   0  0  0  0  0  1  0  0  0  0  0  0
  161.2940  204.2370  151.6030 N   0  0  0  0  0  0  0  0  0  0  0  0
  161.1880  204.9250  150.4320 C   0  0  0  0  0  0  0  0  0  0  0  0
  160.9650  204.2220  149.2300 C   0  0  0  0  0  0  0  0  0  0  0  0
  161.2750  206.3350  150.3810 C   0  0  0  0  0  0  0  0  0  0  0  0
  1 17  1  0  0  0  0
  1 10  1  0  0  0  0
  2  3  2  0  0  0  0
  3  1  1  0  0  0  0
  4  2  1  0  0  0  0
  6  4  1  0  0  0  0
  6  5  1  1  0  0  0
  7  6  1  0  0  0  0
  8  7  1  0  0  0  0
  9  7  2  0  0  0  0
 10 11  2  0  0  0  0
 11 12  1  0  0  0  0
 13 16  1  1  0  0  0
 14 13  1  0  0  0  0
 15 12  1  6  0  0  0
 15 16  1  0  0  0  0
 15 14  1  0  0  0  0
 15 13  1  0  0  0  0
 17 18  2  0  0  0  0
 19 22  1  0  0  0  0
 20 28  1  0  0  0  0
 22 21  2  0  0  0  0
 23 29  2  0  0  0  0
 24 20  2  0  0  0  0
 24 23  1  0  0  0  0
 25 19  1  0  0  0  0
 26 21  1  0  0  0  0
 27 26  2  0  0  0  0
 28 19  2  0  0  0  0
 28 27  1  0  0  0  0
 29 27  1  0  0  0  0
 29 17  1  0  0  0  0
M  END
>  <MODEL>
8

>  <REMARK>
 VINA RESULT:      -5.7      3.472      7.257
  Name = 
  9 active torsions:
  status: ('A' for Active; 'I' for Inactive)
    1  A    between atoms: C_1  and  N_17
    2  A    between atoms: N_2  and  C_9
    3  A    between atoms: N_2  and  C_24
    4  A    between atoms: N_2  and  C_28
    5  A    between atoms: C_4  and  C_25
    6  A    between atoms: C_10  and  C_12
    7  A    between atoms: C_10  and  C_23
    8  A    between atoms: N_17  and  C_25
    9  A    between atoms: C_24  and  C_26
                            x       y       z     vdW  Elec       q    Type
                         _______ _______ _______ _____ _____    ______ ____

>  <TORSDO>
F 9

$$$$
=
 OpenBabel11052409573D

 29 32  0  0  1  0  0  0  0  0999 V2000
  161.9320  207.0430  149.4270 N   0  0  0  0  0  0  0  0  0  0  0  0
  161.9570  209.4440  149.0360 C   0  0  0  0  0  3  0  0  0  0  0  0
  162.3270  208.2160  148.6890 C   0  0  0  0  0  2  0  0  0  0  0  0
  162.3820  210.5610  148.2610 N   0  0  0  0  0  0  0  0  0  0  0  0
  161.2070  211.8890  149.7750 O   0  0  0  0  0  1  0  0  0  0  0  0
  162.0860  211.9160  148.6920 C   0  0  2  0  0  3  0  0  0  0  0  0
  161.4820  212.6830  147.5660 C   0  0  0  0  0  0  0  0  0  0  0  0
  162.2850  213.1190  146.5210 O   0  0  0  0  0  0  0  0  0  0  0  0
  160.2450  212.9250  147.5500 O   0  0  0  0  0  1  0  0  0  0  0  0
  162.7150  206.5610  150.5360 C   0  0  0  0  0  3  0  0  0  0  0  0
  162.3730  206.6170  151.8290 C   0  0  0  0  0  3  0  0  0  0  0  0
  161.0890  207.1570  152.3590 C   0  0  0  0  0  2  0  0  0  0  0  0
  161.5130  210.4100  153.1450 C   0  0  2  0  0  3  0  0  0  0  0  0
  160.5760  209.4360  153.4910 N   0  0  0  0  0  2  0  0  0  0  0  0
  161.2560  208.5940  152.7100 C   0  0  1  0  0  0  0  0  0  0  0  0
  162.2360  209.5910  152.3550 O   0  0  0  0  0  0  0  0  0  0  0  0
  160.8220  206.2230  149.0130 C   0  0  0  0  0  0  0  0  0  0  0  0
  159.5890  206.5480  149.4010 C   0  0  0  0  0  2  0  0  0  0  0  0
  161.3160  201.3090  148.3310 C   0  0  0  0  0  0  0  0  0  0  0  0
  161.5810  202.8640  146.5240 N   0  0  0  0  0  0  0  0  0  0  0  0
  160.7670  202.1680  150.5160 C   0  0  0  0  0  3  0  0  0  0  0  0
  161.0340  201.0840  149.6790 C   0  0  0  0  0  3  0  0  0  0  0  0
  161.3310  205.1790  146.8660 N   0  0  0  0  0  0  0  0  0  0  0  0
  161.5810  204.1310  146.0390 C   0  0  0  0  0  3  0  0  0  0  0  0
  161.5810  200.2030  147.4740 N   0  0  0  0  0  1  0  0  0  0  0  0
  160.7850  203.4340  150.0210 N   0  0  0  0  0  0  0  0  0  0  0  0
  161.0630  203.6920  148.7130 C   0  0  0  0  0  0  0  0  0  0  0  0
  161.3280  202.6200  147.8350 C   0  0  0  0  0  0  0  0  0  0  0  0
  161.0760  205.0060  148.1930 C   0  0  0  0  0  0  0  0  0  0  0  0
  1 10  1  0  0  0  0
  3  2  1  0  0  0  0
  3  1  1  0  0  0  0
  4  6  1  0  0  0  0
  4  2  2  0  0  0  0
  6  5  1  1  0  0  0
  7  6  1  0  0  0  0
  8  7  2  0  0  0  0
  9  7  1  0  0  0  0
 10 11  2  0  0  0  0
 11 12  1  0  0  0  0
 13 16  1  1  0  0  0
 13 14  1  0  0  0  0
 15 12  1  6  0  0  0
 15 13  1  0  0  0  0
 15 14  1  0  0  0  0
 16 15  1  0  0  0  0
 17 18  2  0  0  0  0
 17  1  1  0  0  0  0
 19 22  1  0  0  0  0
 20 28  1  0  0  0  0
 22 21  2  0  0  0  0
 23 29  2  0  0  0  0
 24 20  2  0  0  0  0
 24 23  1  0  0  0  0
 25 19  1  0  0  0  0
 26 21  1  0  0  0  0
 27 26  2  0  0  0  0
 28 19  2  0  0  0  0
 28 27  1  0  0  0  0
 29 27  1  0  0  0  0
 29 17  1  0  0  0  0
M  END
>  <MODEL>
9

>  <REMARK>
 VINA RESULT:      -5.7      3.419      7.331
  Name = 
  9 active torsions:
  status: ('A' for Active; 'I' for Inactive)
    1  A    between atoms: C_1  and  N_17
    2  A    between atoms: N_2  and  C_9
    3  A    between atoms: N_2  and  C_24
    4  A    between atoms: N_2  and  C_28
    5  A    between atoms: C_4  and  C_25
    6  A    between atoms: C_10  and  C_12
    7  A    between atoms: C_10  and  C_23
    8  A    between atoms: N_17  and  C_25
    9  A    between atoms: C_24  and  C_26
                            x       y       z     vdW  Elec       q    Type
                         _______ _______ _______ _____ _____    ______ ____

>  <TORSDO>
F 9

$$$$
