=
 OpenBabel11052411313D

 59 63  0  0  1  0  0  0  0  0999 V2000
  160.4310  212.2290  149.5630 N   0  0  0  0  0  2  0  0  0  0  0  0
  158.3130  213.3050  149.6050 N   0  0  0  0  0  0  0  0  0  0  0  0
  158.7810  214.4490  153.5640 N   0  0  0  0  0  1  0  0  0  0  0  0
  159.2970  212.7460  151.7610 C   0  0  2  0  0  3  0  0  0  0  0  0
  157.1260  213.8060  150.2980 C   0  0  0  0  0  2  0  0  0  0  0  0
  158.4700  213.8860  152.2960 C   0  0  0  0  0  0  0  0  0  0  0  0
  159.3160  212.7940  150.2590 C   0  0  0  0  0  0  0  0  0  0  0  0
  157.4920  214.3770  151.5950 N   0  0  0  0  0  0  0  0  0  0  0  0
  158.7330  211.4740  152.1900 N   0  0  0  0  0  2  0  0  0  0  0  0
  160.9540  208.2390  153.7930 C   0  0  0  0  0  0  0  0  0  0  0  0
  160.4340  209.7050  151.9250 C   0  0  0  0  0  3  0  0  0  0  0  0
  159.3080  210.0090  154.0450 C   0  0  0  0  0  3  0  0  0  0  0  0
  161.1550  208.6330  152.4620 C   0  0  0  0  0  3  0  0  0  0  0  0
  159.5070  210.3970  152.7180 C   0  0  0  0  0  0  0  0  0  0  0  0
  160.0280  208.9370  154.5790 C   0  0  0  0  0  3  0  0  0  0  0  0
  161.7730  206.9600  155.6140 O   0  0  0  0  0  0  0  0  0  0  0  0
  161.6940  207.0970  154.3640 C   0  0  0  0  0  0  0  0  0  0  0  0
  162.3890  206.1000  153.4870 C   0  0  0  0  0  2  0  0  0  0  0  0
  160.4240  204.7670  153.5360 O   0  0  0  0  0  0  0  0  0  0  0  0
  161.4460  205.0710  152.9360 C   0  0  0  0  0  0  0  0  0  0  0  0
  160.3170  201.5730  148.0250 C   0  0  0  0  0  2  0  0  0  0  0  0
  160.4420  202.9920  149.9690 C   0  0  2  0  0  3  0  0  0  0  0  0
  161.8040  202.0960  151.7520 O   0  0  0  0  0  1  0  0  0  0  0  0
  161.6750  204.9800  149.0530 C   0  0  2  0  0  3  0  0  0  0  0  0
  161.7250  204.4810  151.5900 C   0  0  1  0  0  3  0  0  0  0  0  0
  161.0840  202.8450  147.6660 C   0  0  0  0  0  2  0  0  0  0  0  0
  161.4900  203.4500  148.9940 C   0  0  2  0  0  3  0  0  0  0  0  0
  160.9590  203.1530  151.4070 C   0  0  1  0  0  3  0  0  0  0  0  0
  161.4410  205.5180  150.4850 C   0  0  0  0  0  2  0  0  0  0  0  0
  160.1110  201.5800  149.5370 C   0  0  0  0  0  2  0  0  0  0  0  0
  161.4520  205.9810  146.8330 C   0  0  1  0  0  0  0  0  0  0  0  0
  161.3590  207.0080  147.8520 C   0  0  0  0  0  2  0  0  0  0  0  0
  160.7790  205.6670  148.1180 N   0  0  2  0  0  0  0  0  0  0  0  0
  160.5080  206.0660  145.6510 C   0  0  0  0  0  1  0  0  0  0  0  0
  162.7150  205.4100  146.6530 O   0  0  0  0  0  1  0  0  0  0  0  0
  160.4530  212.0150  148.1220 C   0  0  2  0  0  3  0  0  0  0  0  0
  161.8260  211.8320  147.6690 N   0  0  0  0  0  2  0  0  0  0  0  0
  162.3550  213.1350  147.2980 C   0  0  0  0  0  2  0  0  0  0  0  0
  164.2560  211.9570  148.0570 F   0  0  0  0  0  0  0  0  0  0  0  0
  163.8400  213.1840  147.5740 C   0  0  0  0  0  3  0  0  0  0  0  0
  164.1120  214.1620  148.5120 F   0  0  0  0  0  0  0  0  0  0  0  0
  159.8050  213.2020  147.4080 C   0  0  0  0  0  2  0  0  0  0  0  0
  158.0630  212.8700  146.9910 S   0  0  0  0  0  0  0  0  0  0  0  0
  158.2070  213.7480  145.4110 C   0  0  0  0  0  2  0  0  0  0  0  0
  159.3540  213.1620  144.6130 C   0  0  0  0  0  2  0  0  0  0  0  0
  159.6750  214.0540  143.4270 C   0  0  0  0  0  2  0  0  0  0  0  0
  161.1170  213.8400  142.9530 C   0  0  1  0  0  3  0  0  0  0  0  0
  163.3200  213.6380  143.6120 C   0  0  0  0  0  1  0  0  0  0  0  0
  161.9870  213.3640  143.9640 O   0  0  0  0  0  0  0  0  0  0  0  0
  161.2160  213.0860  141.6100 C   0  0  2  0  0  3  0  0  0  0  0  0
  161.8450  213.8460  140.6210 O   0  0  0  0  0  1  0  0  0  0  0  0
  159.0210  213.5210  140.7010 O   0  0  0  0  0  1  0  0  0  0  0  0
  159.8930  212.5050  141.1000 C   0  0  1  0  0  3  0  0  0  0  0  0
  160.0590  211.4790  140.0160 C   0  0  0  0  0  3  0  0  0  0  0  0
  160.9340  210.5440  140.1140 N   0  0  0  0  0  0  0  0  0  0  0  0
  161.8660  209.9260  137.7010 O   0  0  0  0  0  0  0  0  0  0  0  0
  161.8850  207.9970  139.4670 O   0  0  0  0  0  1  0  0  0  0  0  0
  159.5390  208.9010  138.3280 O   0  0  0  0  0  1  0  0  0  0  0  0
  161.0810  209.3530  138.8590 P   0  0  0  0  0  0  0  0  0  0  0  0
  1  7  1  0  0  0  0
  2  7  2  0  0  0  0
  2  5  1  0  0  0  0
  4  9  1  6  0  0  0
  4  6  1  0  0  0  0
  5  8  1  0  0  0  0
  6  3  1  0  0  0  0
  7  4  1  0  0  0  0
  8  6  2  0  0  0  0
  9 14  1  0  0  0  0
 10 17  1  0  0  0  0
 10 15  1  0  0  0  0
 11 13  1  0  0  0  0
 11 14  2  0  0  0  0
 12 15  2  0  0  0  0
 13 10  2  0  0  0  0
 14 12  1  0  0  0  0
 17 16  2  0  0  0  0
 18 17  1  0  0  0  0
 20 18  1  0  0  0  0
 20 19  2  0  0  0  0
 21 30  1  0  0  0  0
 22 30  1  6  0  0  0
 22 28  1  0  0  0  0
 24 29  1  1  0  0  0
 25 20  1  1  0  0  0
 26 21  1  0  0  0  0
 27 26  1  6  0  0  0
 27 24  1  0  0  0  0
 27 22  1  0  0  0  0
 28 25  1  0  0  0  0
 28 23  1  6  0  0  0
 29 25  1  0  0  0  0
 31 34  1  6  0  0  0
 31 32  1  0  0  0  0
 31 33  1  0  0  0  0
 33 32  1  1  0  0  0
 33 24  1  0  0  0  0
 35 31  1  0  0  0  0
 36 42  1  6  0  0  0
 36  1  1  0  0  0  0
 37 36  1  0  0  0  0
 38 40  1  0  0  0  0
 38 37  1  0  0  0  0
 40 39  1  0  0  0  0
 40 41  1  0  0  0  0
 43 42  1  0  0  0  0
 44 43  1  0  0  0  0
 45 44  1  0  0  0  0
 46 45  1  0  0  0  0
 47 46  1  1  0  0  0
 47 49  1  0  0  0  0
 48 49  1  0  0  0  0
 50 51  1  6  0  0  0
 50 47  1  0  0  0  0
 53 52  1  6  0  0  0
 53 50  1  0  0  0  0
 54 55  2  0  0  0  0
 54 53  1  0  0  0  0
 56 59  2  0  0  0  0
 58 59  1  0  0  0  0
 59 57  1  0  0  0  0
 59 55  1  0  0  0  0
M  END
>  <MODEL>
1

>  <REMARK>
 VINA RESULT:      -5.1      0.000      0.000
  Name = 
  22 active torsions:
  status: ('A' for Active; 'I' for Inactive)
    1  A    between atoms: C_1  and  C_34
    2  A    between atoms: C_3  and  C_33
    3  A    between atoms: C_3  and  C_41
    4  A    between atoms: C_3  and  O_54
    5  A    between atoms: C_4  and  C_8
    6  A    between atoms: C_4  and  N_47
    7  A    between atoms: N_9  and  C_16
    8  A    between atoms: C_12  and  C_16
    9  A    between atoms: C_12  and  S_59
   10  A    between atoms: C_14  and  C_33
   11  A    between atoms: C_14  and  C_49
   12  A    between atoms: C_16  and  N_47
   13  A    between atoms: N_19  and  C_35
   14  A    between atoms: N_19  and  C_48
   15  A    between atoms: C_23  and  N_26
   16  A    between atoms: C_27  and  C_29
   17  A    between atoms: C_29  and  C_56
   18  A    between atoms: C_31  and  C_40
   19  A    between atoms: C_31  and  C_41
   20  A    between atoms: C_34  and  C_56
   21  A    between atoms: N_44  and  P_45
   22  A    between atoms: C_49  and  S_59
                            x       y       z     vdW  Elec       q    Type
                         _______ _______ _______ _____ _____    ______ ____

>  <TORSDO>
F 22

$$$$
=
 OpenBabel11052411313D

 59 63  0  0  1  0  0  0  0  0999 V2000
  161.0960  204.3840  147.5590 N   0  0  0  0  0  2  0  0  0  0  0  0
  161.7610  202.1030  147.5670 N   0  0  0  0  0  0  0  0  0  0  0  0
  158.7750  201.0630  150.2520 N   0  0  0  0  0  1  0  0  0  0  0  0
  160.3790  202.8440  149.4300 C   0  0  2  0  0  3  0  0  0  0  0  0
  161.8540  200.7810  148.1880 C   0  0  0  0  0  2  0  0  0  0  0  0
  159.9490  201.4030  149.5250 C   0  0  0  0  0  0  0  0  0  0  0  0
  161.1040  203.0740  148.1340 C   0  0  0  0  0  0  0  0  0  0  0  0
  160.6270  200.4720  148.9230 N   0  0  0  0  0  0  0  0  0  0  0  0
  161.2650  203.1740  150.5370 N   0  0  0  0  0  2  0  0  0  0  0  0
  161.1070  206.7520  152.8050 C   0  0  0  0  0  0  0  0  0  0  0  0
  161.0590  205.6320  150.6490 C   0  0  0  0  0  3  0  0  0  0  0  0
  161.2730  204.3310  152.6770 C   0  0  0  0  0  3  0  0  0  0  0  0
  161.0170  206.8070  151.4070 C   0  0  0  0  0  3  0  0  0  0  0  0
  161.1870  204.3890  151.2850 C   0  0  0  0  0  0  0  0  0  0  0  0
  161.2330  205.5060  153.4330 C   0  0  0  0  0  3  0  0  0  0  0  0
  162.1000  208.7320  153.6520 O   0  0  0  0  0  0  0  0  0  0  0  0
  161.0850  207.9860  153.6140 C   0  0  0  0  0  0  0  0  0  0  0  0
  159.8850  208.3650  154.4280 C   0  0  0  0  0  2  0  0  0  0  0  0
  160.8250  209.2420  156.4260 O   0  0  0  0  0  0  0  0  0  0  0  0
  160.1860  209.4640  155.4060 C   0  0  0  0  0  0  0  0  0  0  0  0
  157.7720  213.8950  151.9190 C   0  0  0  0  0  2  0  0  0  0  0  0
  158.4990  211.9600  153.1590 C   0  0  2  0  0  3  0  0  0  0  0  0
  160.8840  211.5880  153.0880 O   0  0  0  0  0  1  0  0  0  0  0  0
  157.9490  212.6450  155.5130 C   0  0  2  0  0  3  0  0  0  0  0  0
  159.7690  210.8610  155.0750 C   0  0  1  0  0  3  0  0  0  0  0  0
  157.5480  214.1450  153.4090 C   0  0  0  0  0  2  0  0  0  0  0  0
  158.4060  213.1150  154.1160 C   0  0  2  0  0  3  0  0  0  0  0  0
  159.6780  211.0540  153.5450 C   0  0  1  0  0  3  0  0  0  0  0  0
  158.4700  211.2220  155.8230 C   0  0  0  0  0  2  0  0  0  0  0  0
  158.5770  212.6050  151.7920 C   0  0  0  0  0  2  0  0  0  0  0  0
  156.0400  213.5960  156.7080 C   0  0  1  0  0  0  0  0  0  0  0  0
  156.1520  212.1810  157.0000 C   0  0  0  0  0  2  0  0  0  0  0  0
  156.4880  212.6710  155.6390 N   0  0  2  0  0  0  0  0  0  0  0  0
  154.6550  214.1680  156.4840 C   0  0  0  0  0  1  0  0  0  0  0  0
  157.0310  214.4150  157.2590 O   0  0  0  0  0  1  0  0  0  0  0  0
  161.9420  204.7740  146.4400 C   0  0  2  0  0  3  0  0  0  0  0  0
  162.3420  206.1680  146.5840 N   0  0  0  0  0  2  0  0  0  0  0  0
  162.6590  206.4030  147.9830 C   0  0  0  0  0  2  0  0  0  0  0  0
  160.9230  207.9990  147.8500 F   0  0  0  0  0  0  0  0  0  0  0  0
  162.1720  207.7730  148.3980 C   0  0  0  0  0  3  0  0  0  0  0  0
  163.0510  208.7400  147.9490 F   0  0  0  0  0  0  0  0  0  0  0  0
  161.1970  204.5620  145.1220 C   0  0  0  0  0  2  0  0  0  0  0  0
  161.0080  206.1190  144.1950 S   0  0  0  0  0  0  0  0  0  0  0  0
  162.1130  205.5440  142.8780 C   0  0  0  0  0  2  0  0  0  0  0  0
  161.6590  206.1230  141.5530 C   0  0  0  0  0  2  0  0  0  0  0  0
  162.7430  207.0170  140.9750 C   0  0  0  0  0  2  0  0  0  0  0  0
  162.2200  207.8040  139.7680 C   0  0  1  0  0  3  0  0  0  0  0  0
  162.3350  206.6970  137.7460 C   0  0  0  0  0  1  0  0  0  0  0  0
  161.5060  207.0130  138.8350 O   0  0  0  0  0  0  0  0  0  0  0  0
  161.5290  209.1290  140.1520 C   0  0  2  0  0  3  0  0  0  0  0  0
  160.3650  209.3530  139.4140 O   0  0  0  0  0  1  0  0  0  0  0  0
  162.7560  210.7270  138.8190 O   0  0  0  0  0  1  0  0  0  0  0  0
  162.4410  210.3600  140.1310 C   0  0  1  0  0  3  0  0  0  0  0  0
  161.9020  211.5290  140.9050 C   0  0  0  0  0  3  0  0  0  0  0  0
  160.7680  211.4630  141.5030 N   0  0  0  0  0  0  0  0  0  0  0  0
  160.0470  212.4350  143.8710 O   0  0  0  0  0  1  0  0  0  0  0  0
  161.2770  214.1020  142.2730 O   0  0  0  0  0  1  0  0  0  0  0  0
  158.6770  213.2980  141.8130 O   0  0  0  0  0  0  0  0  0  0  0  0
  160.1840  212.8210  142.4160 P   0  0  0  0  0  0  0  0  0  0  0  0
  1  7  1  0  0  0  0
  2  7  2  0  0  0  0
  2  5  1  0  0  0  0
  4  6  1  0  0  0  0
  4  9  1  1  0  0  0
  5  8  1  0  0  0  0
  6  3  1  0  0  0  0
  7  4  1  0  0  0  0
  8  6  2  0  0  0  0
  9 14  1  0  0  0  0
 10 15  1  0  0  0  0
 10 17  1  0  0  0  0
 11 14  2  0  0  0  0
 11 13  1  0  0  0  0
 12 15  2  0  0  0  0
 13 10  2  0  0  0  0
 14 12  1  0  0  0  0
 17 16  2  0  0  0  0
 17 18  1  0  0  0  0
 18 20  1  0  0  0  0
 20 19  2  0  0  0  0
 21 26  1  0  0  0  0
 22 30  1  6  0  0  0
 22 28  1  0  0  0  0
 22 27  1  0  0  0  0
 24 33  1  0  0  0  0
 24 29  1  6  0  0  0
 25 20  1  6  0  0  0
 25 29  1  0  0  0  0
 27 26  1  6  0  0  0
 27 24  1  0  0  0  0
 28 23  1  1  0  0  0
 28 25  1  0  0  0  0
 30 21  1  0  0  0  0
 31 34  1  6  0  0  0
 31 32  1  0  0  0  0
 31 35  1  0  0  0  0
 33 31  1  0  0  0  0
 33 32  1  1  0  0  0
 36 42  1  6  0  0  0
 36 37  1  0  0  0  0
 36  1  1  0  0  0  0
 37 38  1  0  0  0  0
 38 40  1  0  0  0  0
 39 40  1  0  0  0  0
 41 40  1  0  0  0  0
 43 42  1  0  0  0  0
 44 43  1  0  0  0  0
 45 44  1  0  0  0  0
 46 45  1  0  0  0  0
 47 50  1  0  0  0  0
 47 46  1  1  0  0  0
 48 49  1  0  0  0  0
 49 47  1  0  0  0  0
 50 51  1  6  0  0  0
 53 52  1  6  0  0  0
 53 50  1  0  0  0  0
 53 54  1  0  0  0  0
 54 55  2  0  0  0  0
 55 59  1  0  0  0  0
 57 59  1  0  0  0  0
 58 59  2  0  0  0  0
 59 56  1  0  0  0  0
M  END
>  <MODEL>
2

>  <REMARK>
 VINA RESULT:      -5.0      3.473      8.701
  Name = 
  22 active torsions:
  status: ('A' for Active; 'I' for Inactive)
    1  A    between atoms: C_1  and  C_34
    2  A    between atoms: C_3  and  C_33
    3  A    between atoms: C_3  and  C_41
    4  A    between atoms: C_3  and  O_54
    5  A    between atoms: C_4  and  C_8
    6  A    between atoms: C_4  and  N_47
    7  A    between atoms: N_9  and  C_16
    8  A    between atoms: C_12  and  C_16
    9  A    between atoms: C_12  and  S_59
   10  A    between atoms: C_14  and  C_33
   11  A    between atoms: C_14  and  C_49
   12  A    between atoms: C_16  and  N_47
   13  A    between atoms: N_19  and  C_35
   14  A    between atoms: N_19  and  C_48
   15  A    between atoms: C_23  and  N_26
   16  A    between atoms: C_27  and  C_29
   17  A    between atoms: C_29  and  C_56
   18  A    between atoms: C_31  and  C_40
   19  A    between atoms: C_31  and  C_41
   20  A    between atoms: C_34  and  C_56
   21  A    between atoms: N_44  and  P_45
   22  A    between atoms: C_49  and  S_59
                            x       y       z     vdW  Elec       q    Type
                         _______ _______ _______ _____ _____    ______ ____

>  <TORSDO>
F 22

$$$$
=
 OpenBabel11052411313D

 59 63  0  0  1  0  0  0  0  0999 V2000
  161.0370  207.1270  148.2240 N   0  0  0  0  0  2  0  0  0  0  0  0
  162.7940  206.3150  146.8460 N   0  0  0  0  0  0  0  0  0  0  0  0
  160.3000  203.5720  144.9860 N   0  0  0  0  0  1  0  0  0  0  0  0
  160.8430  204.8780  147.0880 C   0  0  2  0  0  3  0  0  0  0  0  0
  163.4320  205.2790  146.0330 C   0  0  0  0  0  2  0  0  0  0  0  0
  161.2410  204.3180  145.7470 C   0  0  0  0  0  0  0  0  0  0  0  0
  161.6100  206.1420  147.3590 C   0  0  0  0  0  0  0  0  0  0  0  0
  162.4280  204.5380  145.2670 N   0  0  0  0  0  0  0  0  0  0  0  0
  161.1310  203.9110  148.1380 N   0  0  0  0  0  2  0  0  0  0  0  0
  160.9670  204.8780  152.2620 C   0  0  0  0  0  0  0  0  0  0  0  0
  159.9840  203.7950  150.3210 C   0  0  0  0  0  3  0  0  0  0  0  0
  162.0990  204.9510  150.1130 C   0  0  0  0  0  3  0  0  0  0  0  0
  159.9360  204.1280  151.6790 C   0  0  0  0  0  3  0  0  0  0  0  0
  161.0690  204.2080  149.5340 C   0  0  0  0  0  0  0  0  0  0  0  0
  162.0490  205.2850  151.4690 C   0  0  0  0  0  3  0  0  0  0  0  0
  161.5610  204.5820  154.5390 O   0  0  0  0  0  0  0  0  0  0  0  0
  160.9170  205.2540  153.6880 C   0  0  0  0  0  0  0  0  0  0  0  0
  160.0850  206.4050  154.1640 C   0  0  0  0  0  2  0  0  0  0  0  0
  162.0400  207.7380  153.9500 O   0  0  0  0  0  0  0  0  0  0  0  0
  160.9050  207.6410  154.3980 C   0  0  0  0  0  0  0  0  0  0  0  0
  160.8300  213.1210  157.1530 C   0  0  0  0  0  2  0  0  0  0  0  0
  161.0850  211.0920  155.8770 C   0  0  2  0  0  3  0  0  0  0  0  0
  161.3530  209.1090  157.2300 O   0  0  0  0  0  1  0  0  0  0  0  0
  158.8330  210.9110  154.7780 C   0  0  2  0  0  3  0  0  0  0  0  0
  160.2830  208.7970  155.1140 C   0  0  1  0  0  3  0  0  0  0  0  0
  159.5190  212.8190  156.4280 C   0  0  0  0  0  2  0  0  0  0  0  0
  159.6140  211.3600  156.0300 C   0  0  2  0  0  3  0  0  0  0  0  0
  161.3470  209.5780  155.9160 C   0  0  1  0  0  3  0  0  0  0  0  0
  159.4870  209.6710  154.1240 C   0  0  0  0  0  2  0  0  0  0  0  0
  161.7360  211.9060  156.9740 C   0  0  0  0  0  2  0  0  0  0  0  0
  157.4400  212.7130  153.8870 C   0  0  1  0  0  0  0  0  0  0  0  0
  157.5920  211.6680  152.8950 C   0  0  0  0  0  2  0  0  0  0  0  0
  158.7320  211.9900  153.7900 N   0  0  2  0  0  0  0  0  0  0  0  0
  157.5060  214.1520  153.4180 C   0  0  0  0  0  1  0  0  0  0  0  0
  156.6480  212.3960  154.9950 O   0  0  0  0  0  1  0  0  0  0  0  0
  161.7760  208.2740  148.7350 C   0  0  2  0  0  3  0  0  0  0  0  0
  161.3450  208.5750  150.0940 N   0  0  0  0  0  2  0  0  0  0  0  0
  162.4980  209.0660  150.8330 C   0  0  0  0  0  2  0  0  0  0  0  0
  162.5540  210.3690  152.8010 F   0  0  0  0  0  0  0  0  0  0  0  0
  162.1700  210.3960  151.4730 C   0  0  0  0  0  3  0  0  0  0  0  0
  160.8110  210.6340  151.3930 F   0  0  0  0  0  0  0  0  0  0  0  0
  161.5620  209.4810  147.8230 C   0  0  0  0  0  2  0  0  0  0  0  0
  162.4880  210.9390  148.4040 S   0  0  0  0  0  0  0  0  0  0  0  0
  161.1520  212.0630  147.9150 C   0  0  0  0  0  2  0  0  0  0  0  0
  161.5260  213.4820  148.2910 C   0  0  0  0  0  2  0  0  0  0  0  0
  160.3950  214.4320  147.9380 C   0  0  0  0  0  2  0  0  0  0  0  0
  159.0320  213.7530  148.1140 C   0  0  1  0  0  3  0  0  0  0  0  0
  158.9780  213.3520  150.3860 C   0  0  0  0  0  1  0  0  0  0  0  0
  158.3870  214.0710  149.3340 O   0  0  0  0  0  0  0  0  0  0  0  0
  158.1320  213.8510  146.8640 C   0  0  2  0  0  3  0  0  0  0  0  0
  156.7840  214.0070  147.1930 O   0  0  0  0  0  1  0  0  0  0  0  0
  157.1250  212.0420  145.6210 O   0  0  0  0  0  1  0  0  0  0  0  0
  158.3230  212.7240  145.8440 C   0  0  1  0  0  3  0  0  0  0  0  0
  158.9380  213.1760  144.5490 C   0  0  0  0  0  3  0  0  0  0  0  0
  159.3740  212.3280  143.6900 N   0  0  0  0  0  0  0  0  0  0  0  0
  161.5180  213.1950  142.3750 O   0  0  0  0  0  1  0  0  0  0  0  0
  159.8800  211.6690  141.0210 O   0  0  0  0  0  0  0  0  0  0  0  0
  159.2330  214.2700  141.6790 O   0  0  0  0  0  1  0  0  0  0  0  0
  160.0510  212.8790  142.1890 P   0  0  0  0  0  0  0  0  0  0  0  0
  1 36  1  0  0  0  0
  2  7  2  0  0  0  0
  3  6  1  0  0  0  0
  4  7  1  0  0  0  0
  4  9  1  1  0  0  0
  5  2  1  0  0  0  0
  6  4  1  0  0  0  0
  7  1  1  0  0  0  0
  8  6  2  0  0  0  0
  8  5  1  0  0  0  0
  9 14  1  0  0  0  0
 10 17  1  0  0  0  0
 11 13  2  0  0  0  0
 12 15  1  0  0  0  0
 13 10  1  0  0  0  0
 14 12  2  0  0  0  0
 14 11  1  0  0  0  0
 15 10  2  0  0  0  0
 17 18  1  0  0  0  0
 17 16  2  0  0  0  0
 18 20  1  0  0  0  0
 19 20  2  0  0  0  0
 22 28  1  0  0  0  0
 22 27  1  0  0  0  0
 22 30  1  1  0  0  0
 24 29  1  6  0  0  0
 24 27  1  0  0  0  0
 25 20  1  6  0  0  0
 25 28  1  0  0  0  0
 26 21  1  0  0  0  0
 27 26  1  6  0  0  0
 28 23  1  1  0  0  0
 29 25  1  0  0  0  0
 30 21  1  0  0  0  0
 31 34  1  6  0  0  0
 31 35  1  0  0  0  0
 32 31  1  0  0  0  0
 33 32  1  6  0  0  0
 33 31  1  0  0  0  0
 33 24  1  0  0  0  0
 36 42  1  6  0  0  0
 36 37  1  0  0  0  0
 37 38  1  0  0  0  0
 38 40  1  0  0  0  0
 40 39  1  0  0  0  0
 41 40  1  0  0  0  0
 42 43  1  0  0  0  0
 44 45  1  0  0  0  0
 44 43  1  0  0  0  0
 46 45  1  0  0  0  0
 47 46  1  6  0  0  0
 47 49  1  0  0  0  0
 49 48  1  0  0  0  0
 50 51  1  1  0  0  0
 50 47  1  0  0  0  0
 53 52  1  6  0  0  0
 53 50  1  0  0  0  0
 54 53  1  0  0  0  0
 55 54  2  0  0  0  0
 57 59  2  0  0  0  0
 58 59  1  0  0  0  0
 59 56  1  0  0  0  0
 59 55  1  0  0  0  0
M  END
>  <MODEL>
3

>  <REMARK>
 VINA RESULT:      -2.4      2.894      7.704
  Name = 
  22 active torsions:
  status: ('A' for Active; 'I' for Inactive)
    1  A    between atoms: C_1  and  C_34
    2  A    between atoms: C_3  and  C_33
    3  A    between atoms: C_3  and  C_41
    4  A    between atoms: C_3  and  O_54
    5  A    between atoms: C_4  and  C_8
    6  A    between atoms: C_4  and  N_47
    7  A    between atoms: N_9  and  C_16
    8  A    between atoms: C_12  and  C_16
    9  A    between atoms: C_12  and  S_59
   10  A    between atoms: C_14  and  C_33
   11  A    between atoms: C_14  and  C_49
   12  A    between atoms: C_16  and  N_47
   13  A    between atoms: N_19  and  C_35
   14  A    between atoms: N_19  and  C_48
   15  A    between atoms: C_23  and  N_26
   16  A    between atoms: C_27  and  C_29
   17  A    between atoms: C_29  and  C_56
   18  A    between atoms: C_31  and  C_40
   19  A    between atoms: C_31  and  C_41
   20  A    between atoms: C_34  and  C_56
   21  A    between atoms: N_44  and  P_45
   22  A    between atoms: C_49  and  S_59
                            x       y       z     vdW  Elec       q    Type
                         _______ _______ _______ _____ _____    ______ ____

>  <TORSDO>
F 22

$$$$
