=
 OpenBabel11042420273D

 31 33  0  0  1  0  0  0  0  0999 V2000
  161.2850  208.7210  152.8470 C   0  0  2  0  0  3  0  0  0  0  0  0
  161.9170  206.5370  153.8860 C   0  0  0  0  0  2  0  0  0  0  0  0
  161.5610  206.9610  151.0270 C   0  0  0  0  0  2  0  0  0  0  0  0
  160.8760  208.2530  151.4490 C   0  0  0  0  0  2  0  0  0  0  0  0
  160.8440  205.7770  151.6640 C   0  0  2  0  0  3  0  0  0  0  0  0
  161.4220  205.3740  153.0250 C   0  0  0  0  0  2  0  0  0  0  0  0
  160.9230  207.6930  153.9440 C   0  0  1  0  0  3  0  0  0  0  0  0
  158.8680  207.0310  155.7190 C   0  0  0  0  0  1  0  0  0  0  0  0
  161.0420  207.3180  156.3240 O   0  0  0  0  0  0  0  0  0  0  0  0
  160.9220  208.2840  155.3730 C   0  0  2  0  0  0  0  0  0  0  0  0
  159.8220  207.9800  156.2810 N   0  0  0  0  0  0  0  0  0  0  0  0
  161.7930  209.5040  155.7080 C   0  0  0  0  0  2  0  0  0  0  0  0
  162.4520  209.4450  157.0850 C   0  0  0  0  0  2  0  0  0  0  0  0
  163.8200  211.0820  156.0140 O   0  0  0  0  0  1  0  0  0  0  0  0
  163.4540  210.5720  157.2610 C   0  0  0  0  0  2  0  0  0  0  0  0
  159.2790  210.2690  153.0360 N   0  0  0  0  0  2  0  0  0  0  0  0
  160.6980  210.0790  153.0790 C   0  0  0  0  0  0  0  0  0  0  0  0
  161.4680  211.0450  153.3270 O   0  0  0  0  0  0  0  0  0  0  0  0
  157.9930  211.9650  154.3370 C   0  0  0  0  0  0  0  0  0  0  0  0
  158.6860  212.3950  152.0390 C   0  0  0  0  0  3  0  0  0  0  0  0
  157.4080  214.0580  153.2240 C   0  0  0  0  0  3  0  0  0  0  0  0
  158.6320  211.5430  153.1450 C   0  0  0  0  0  0  0  0  0  0  0  0
  157.3600  213.2390  154.3560 C   0  0  0  0  0  0  0  0  0  0  0  0
  158.0760  213.6450  152.0750 C   0  0  0  0  0  3  0  0  0  0  0  0
  158.8640  211.2960  156.5240 N   0  0  0  0  0  2  0  0  0  0  0  0
  158.0700  211.0820  155.5270 C   0  0  0  0  0  3  0  0  0  0  0  0
  156.6070  213.7590  155.5390 C   0  0  0  0  0  2  0  0  0  0  0  0
  155.1960  214.1420  155.1320 C   0  0  0  0  0  1  0  0  0  0  0  0
  160.8440  203.4310  151.1930 O   0  0  0  0  0  1  0  0  0  0  0  0
  160.8370  204.6060  150.7390 C   0  0  0  0  0  0  0  0  0  0  0  0
  160.8240  204.8160  149.3670 O   0  0  0  0  0  0  0  0  0  0  0  0
  1 17  1  1  0  0  0
  1  7  1  0  0  0  0
  3  4  1  0  0  0  0
  3  5  1  0  0  0  0
  4  1  1  0  0  0  0
  5 30  1  6  0  0  0
  5  6  1  0  0  0  0
  6  2  1  0  0  0  0
  7  2  1  1  0  0  0
  7 10  1  0  0  0  0
  8 11  1  0  0  0  0
 10 12  1  1  0  0  0
 10 11  1  0  0  0  0
 10  9  1  0  0  0  0
 11  9  1  0  0  0  0
 12 13  1  0  0  0  0
 13 15  1  0  0  0  0
 14 15  1  0  0  0  0
 16 17  1  0  0  0  0
 16 22  1  0  0  0  0
 17 18  2  0  0  0  0
 19 23  1  0  0  0  0
 19 26  1  0  0  0  0
 20 24  2  0  0  0  0
 20 22  1  0  0  0  0
 21 23  2  0  0  0  0
 22 19  2  0  0  0  0
 23 27  1  0  0  0  0
 24 21  1  0  0  0  0
 26 25  2  0  0  0  0
 28 27  1  0  0  0  0
 30 29  1  0  0  0  0
 31 30  2  0  0  0  0
M  END
>  <MODEL>
1

>  <REMARK>
 VINA RESULT:      -5.5      0.000      0.000
  Name = 
  9 active torsions:
  status: ('A' for Active; 'I' for Inactive)
    1  A    between atoms: C_2  and  C_28
    2  A    between atoms: C_3  and  C_7
    3  A    between atoms: C_3  and  C_9
    4  A    between atoms: C_4  and  C_19
    5  A    between atoms: N_5  and  C_15
    6  A    between atoms: C_9  and  C_18
    7  A    between atoms: C_14  and  C_22
    8  A    between atoms: C_18  and  C_27
    9  A    between atoms: C_21  and  C_25
                            x       y       z     vdW  Elec       q    Type
                         _______ _______ _______ _____ _____    ______ ____

>  <TORSDO>
F 9

$$$$
=
 OpenBabel11042420273D

 31 33  0  0  1  0  0  0  0  0999 V2000
  160.5340  205.0230  150.8340 C   0  0  2  0  0  3  0  0  0  0  0  0
  161.0020  205.3130  148.3950 C   0  0  0  0  0  2  0  0  0  0  0  0
  160.0040  202.8580  149.6020 C   0  0  0  0  0  2  0  0  0  0  0  0
  160.4310  203.4990  150.9140 C   0  0  0  0  0  2  0  0  0  0  0  0
  161.2090  202.7550  148.6750 C   0  0  2  0  0  3  0  0  0  0  0  0
  161.3830  203.9730  147.7620 C   0  0  0  0  0  2  0  0  0  0  0  0
  161.5810  205.4900  149.7960 C   0  0  1  0  0  3  0  0  0  0  0  0
  163.6540  206.1130  151.5650 C   0  0  0  0  0  1  0  0  0  0  0  0
  163.3070  207.1610  149.5760 O   0  0  0  0  0  0  0  0  0  0  0  0
  162.0220  206.9610  149.9750 C   0  0  2  0  0  0  0  0  0  0  0  0
  163.0670  207.2910  150.9370 N   0  0  0  0  0  0  0  0  0  0  0  0
  161.1110  208.1060  149.5070 C   0  0  0  0  0  2  0  0  0  0  0  0
  161.7340  209.0080  148.4430 C   0  0  0  0  0  2  0  0  0  0  0  0
  161.6730  211.3650  148.0710 O   0  0  0  0  0  1  0  0  0  0  0  0
  162.0300  210.3890  149.0020 C   0  0  0  0  0  2  0  0  0  0  0  0
  160.4200  206.8980  152.5430 N   0  0  0  0  0  2  0  0  0  0  0  0
  160.7790  205.5520  152.2130 C   0  0  0  0  0  0  0  0  0  0  0  0
  161.2890  204.7920  153.0780 O   0  0  0  0  0  0  0  0  0  0  0  0
  161.1900  208.8520  153.8900 C   0  0  0  0  0  0  0  0  0  0  0  0
  160.4470  206.7920  154.9630 C   0  0  0  0  0  3  0  0  0  0  0  0
  161.2190  208.6260  156.3210 C   0  0  0  0  0  3  0  0  0  0  0  0
  160.7060  207.5240  153.8010 C   0  0  0  0  0  0  0  0  0  0  0  0
  161.4630  209.3930  155.1770 C   0  0  0  0  0  0  0  0  0  0  0  0
  160.7040  207.3370  156.2170 C   0  0  0  0  0  3  0  0  0  0  0  0
  160.4480  210.4890  152.2280 N   0  0  0  0  0  2  0  0  0  0  0  0
  161.3280  209.6360  152.6380 C   0  0  0  0  0  3  0  0  0  0  0  0
  162.0310  210.7600  155.3860 C   0  0  0  0  0  2  0  0  0  0  0  0
  163.1390  210.7130  156.4220 C   0  0  0  0  0  1  0  0  0  0  0  0
  161.4490  200.3940  148.3650 O   0  0  0  0  0  1  0  0  0  0  0  0
  161.1400  201.5070  147.8600 C   0  0  0  0  0  0  0  0  0  0  0  0
  160.7340  201.5730  146.5350 O   0  0  0  0  0  0  0  0  0  0  0  0
  1  4  1  0  0  0  0
  1 17  1  1  0  0  0
  3  4  1  0  0  0  0
  5 30  1  6  0  0  0
  5  3  1  0  0  0  0
  6  2  1  0  0  0  0
  6  5  1  0  0  0  0
  7  2  1  6  0  0  0
  7 10  1  0  0  0  0
  7  1  1  0  0  0  0
  9 10  1  0  0  0  0
  9 11  1  0  0  0  0
 10 12  1  6  0  0  0
 10 11  1  0  0  0  0
 11  8  1  0  0  0  0
 13 15  1  0  0  0  0
 13 12  1  0  0  0  0
 14 15  1  0  0  0  0
 16 22  1  0  0  0  0
 17 16  1  0  0  0  0
 17 18  2  0  0  0  0
 19 23  1  0  0  0  0
 20 24  2  0  0  0  0
 22 19  2  0  0  0  0
 22 20  1  0  0  0  0
 23 27  1  0  0  0  0
 23 21  2  0  0  0  0
 24 21  1  0  0  0  0
 25 26  2  0  0  0  0
 26 19  1  0  0  0  0
 27 28  1  0  0  0  0
 30 29  1  0  0  0  0
 31 30  2  0  0  0  0
M  END
>  <MODEL>
2

>  <REMARK>
 VINA RESULT:      -4.9      3.689      5.962
  Name = 
  9 active torsions:
  status: ('A' for Active; 'I' for Inactive)
    1  A    between atoms: C_2  and  C_28
    2  A    between atoms: C_3  and  C_7
    3  A    between atoms: C_3  and  C_9
    4  A    between atoms: C_4  and  C_19
    5  A    between atoms: N_5  and  C_15
    6  A    between atoms: C_9  and  C_18
    7  A    between atoms: C_14  and  C_22
    8  A    between atoms: C_18  and  C_27
    9  A    between atoms: C_21  and  C_25
                            x       y       z     vdW  Elec       q    Type
                         _______ _______ _______ _____ _____    ______ ____

>  <TORSDO>
F 9

$$$$
=
 OpenBabel11042420273D

 31 33  0  0  1  0  0  0  0  0999 V2000
  160.9050  205.4100  150.7410 C   0  0  2  0  0  3  0  0  0  0  0  0
  160.5000  204.6190  148.4040 C   0  0  0  0  0  2  0  0  0  0  0  0
  160.4130  202.9100  150.7610 C   0  0  0  0  0  2  0  0  0  0  0  0
  161.1150  204.0710  151.4520 C   0  0  0  0  0  2  0  0  0  0  0  0
  161.2520  202.4460  149.5770 C   0  0  2  0  0  3  0  0  0  0  0  0
  160.8960  203.1480  148.2630 C   0  0  0  0  0  2  0  0  0  0  0  0
  161.4570  205.4050  149.2970 C   0  0  1  0  0  3  0  0  0  0  0  0
  163.0130  205.7400  146.9990 C   0  0  0  0  0  1  0  0  0  0  0  0
  161.1240  206.9240  147.4530 O   0  0  0  0  0  0  0  0  0  0  0  0
  161.6540  206.8180  148.7020 C   0  0  2  0  0  0  0  0  0  0  0  0
  162.5080  206.9990  147.5340 N   0  0  0  0  0  0  0  0  0  0  0  0
  161.3420  208.0640  149.5450 C   0  0  0  0  0  2  0  0  0  0  0  0
  162.2970  209.2340  149.3100 C   0  0  0  0  0  2  0  0  0  0  0  0
  162.1040  211.5930  149.0010 O   0  0  0  0  0  1  0  0  0  0  0  0
  161.6050  210.3640  148.5680 C   0  0  0  0  0  2  0  0  0  0  0  0
  160.6270  207.2710  152.4480 N   0  0  0  0  0  2  0  0  0  0  0  0
  161.4800  206.4930  151.6000 C   0  0  0  0  0  0  0  0  0  0  0  0
  162.7230  206.6980  151.5770 O   0  0  0  0  0  0  0  0  0  0  0  0
  161.0440  208.3800  154.6430 C   0  0  0  0  0  0  0  0  0  0  0  0
  161.5740  209.4980  152.5410 C   0  0  0  0  0  3  0  0  0  0  0  0
  161.9610  210.6430  154.6260 C   0  0  0  0  0  3  0  0  0  0  0  0
  161.0680  208.3900  153.2260 C   0  0  0  0  0  0  0  0  0  0  0  0
  161.4840  209.5390  155.3400 C   0  0  0  0  0  0  0  0  0  0  0  0
  162.0150  210.6210  153.2350 C   0  0  0  0  0  3  0  0  0  0  0  0
  159.4690  206.9920  155.9000 N   0  0  0  0  0  2  0  0  0  0  0  0
  160.6200  207.1360  155.3300 C   0  0  0  0  0  3  0  0  0  0  0  0
  161.4470  209.6600  156.8300 C   0  0  0  0  0  2  0  0  0  0  0  0
  160.2110  210.4290  157.2610 C   0  0  0  0  0  1  0  0  0  0  0  0
  160.7730  200.2380  150.3670 O   0  0  0  0  0  1  0  0  0  0  0  0
  161.1550  200.9660  149.4120 C   0  0  0  0  0  0  0  0  0  0  0  0
  161.4900  200.3870  148.1960 O   0  0  0  0  0  0  0  0  0  0  0  0
  1  4  1  0  0  0  0
  1 17  1  1  0  0  0
  3  4  1  0  0  0  0
  5 30  1  6  0  0  0
  5  3  1  0  0  0  0
  6  2  1  0  0  0  0
  6  5  1  0  0  0  0
  7  2  1  6  0  0  0
  7  1  1  0  0  0  0
  8 11  1  0  0  0  0
  9 11  1  0  0  0  0
  9 10  1  0  0  0  0
 10  7  1  0  0  0  0
 10 12  1  1  0  0  0
 11 10  1  0  0  0  0
 13 12  1  0  0  0  0
 15 14  1  0  0  0  0
 15 13  1  0  0  0  0
 16 22  1  0  0  0  0
 17 16  1  0  0  0  0
 18 17  2  0  0  0  0
 19 26  1  0  0  0  0
 19 23  1  0  0  0  0
 20 22  1  0  0  0  0
 20 24  2  0  0  0  0
 21 23  2  0  0  0  0
 22 19  2  0  0  0  0
 23 27  1  0  0  0  0
 24 21  1  0  0  0  0
 26 25  2  0  0  0  0
 27 28  1  0  0  0  0
 30 29  1  0  0  0  0
 31 30  2  0  0  0  0
M  END
>  <MODEL>
3

>  <REMARK>
 VINA RESULT:      -4.6      3.443      5.866
  Name = 
  9 active torsions:
  status: ('A' for Active; 'I' for Inactive)
    1  A    between atoms: C_2  and  C_28
    2  A    between atoms: C_3  and  C_7
    3  A    between atoms: C_3  and  C_9
    4  A    between atoms: C_4  and  C_19
    5  A    between atoms: N_5  and  C_15
    6  A    between atoms: C_9  and  C_18
    7  A    between atoms: C_14  and  C_22
    8  A    between atoms: C_18  and  C_27
    9  A    between atoms: C_21  and  C_25
                            x       y       z     vdW  Elec       q    Type
                         _______ _______ _______ _____ _____    ______ ____

>  <TORSDO>
F 9

$$$$
=
 OpenBabel11042420273D

 31 33  0  0  1  0  0  0  0  0999 V2000
  160.8060  205.7770  151.3490 C   0  0  2  0  0  3  0  0  0  0  0  0
  160.5290  205.5890  148.8710 C   0  0  0  0  0  2  0  0  0  0  0  0
  160.2880  203.3610  150.7320 C   0  0  0  0  0  2  0  0  0  0  0  0
  160.9600  204.3010  151.7210 C   0  0  0  0  0  2  0  0  0  0  0  0
  161.1890  203.1780  149.5160 C   0  0  2  0  0  3  0  0  0  0  0  0
  160.9170  204.1880  148.3970 C   0  0  0  0  0  2  0  0  0  0  0  0
  161.4400  206.1100  149.9790 C   0  0  1  0  0  3  0  0  0  0  0  0
  163.0870  206.9600  147.8860 C   0  0  0  0  0  1  0  0  0  0  0  0
  161.2040  208.0460  148.5590 O   0  0  0  0  0  0  0  0  0  0  0  0
  161.6850  207.6210  149.7580 C   0  0  2  0  0  0  0  0  0  0  0  0
  162.5860  208.0610  148.6990 N   0  0  0  0  0  0  0  0  0  0  0  0
  161.3650  208.6290  150.8730 C   0  0  0  0  0  2  0  0  0  0  0  0
  162.3310  209.8100  150.9460 C   0  0  0  0  0  2  0  0  0  0  0  0
  162.2990  211.3450  149.1170 O   0  0  0  0  0  1  0  0  0  0  0  0
  161.7100  211.0620  150.3500 C   0  0  0  0  0  2  0  0  0  0  0  0
  160.4430  207.2700  153.3710 N   0  0  0  0  0  2  0  0  0  0  0  0
  161.3400  206.6050  152.4760 C   0  0  0  0  0  0  0  0  0  0  0  0
  162.5870  206.6940  152.6320 O   0  0  0  0  0  0  0  0  0  0  0  0
  160.5670  209.5490  154.3800 C   0  0  0  0  0  0  0  0  0  0  0  0
  161.5280  207.6130  155.5090 C   0  0  0  0  0  3  0  0  0  0  0  0
  161.7220  209.7930  156.5170 C   0  0  0  0  0  3  0  0  0  0  0  0
  160.8570  208.1630  154.4140 C   0  0  0  0  0  0  0  0  0  0  0  0
  161.0290  210.3680  155.4470 C   0  0  0  0  0  0  0  0  0  0  0  0
  161.9630  208.4220  156.5550 C   0  0  0  0  0  3  0  0  0  0  0  0
  158.7170  210.8380  153.4280 N   0  0  0  0  0  2  0  0  0  0  0  0
  159.7410  210.0680  153.2610 C   0  0  0  0  0  3  0  0  0  0  0  0
  160.8310  211.8500  155.4850 C   0  0  0  0  0  2  0  0  0  0  0  0
  159.9340  212.2280  156.6490 C   0  0  0  0  0  1  0  0  0  0  0  0
  161.2060  200.7980  149.7640 O   0  0  0  0  0  1  0  0  0  0  0  0
  161.0880  201.7850  148.9910 C   0  0  0  0  0  0  0  0  0  0  0  0
  160.8600  201.5770  147.6370 O   0  0  0  0  0  0  0  0  0  0  0  0
  1  4  1  0  0  0  0
  1 17  1  1  0  0  0
  3  4  1  0  0  0  0
  5 30  1  6  0  0  0
  5  3  1  0  0  0  0
  6  2  1  0  0  0  0
  6  5  1  0  0  0  0
  7  2  1  6  0  0  0
  7  1  1  0  0  0  0
  8 11  1  0  0  0  0
  9 11  1  0  0  0  0
  9 10  1  0  0  0  0
 10  7  1  0  0  0  0
 10 12  1  1  0  0  0
 11 10  1  0  0  0  0
 12 13  1  0  0  0  0
 14 15  1  0  0  0  0
 15 13  1  0  0  0  0
 16 22  1  0  0  0  0
 17 18  2  0  0  0  0
 17 16  1  0  0  0  0
 19 22  2  0  0  0  0
 19 23  1  0  0  0  0
 20 24  2  0  0  0  0
 21 24  1  0  0  0  0
 22 20  1  0  0  0  0
 23 27  1  0  0  0  0
 23 21  2  0  0  0  0
 26 25  2  0  0  0  0
 26 19  1  0  0  0  0
 27 28  1  0  0  0  0
 30 29  1  0  0  0  0
 31 30  2  0  0  0  0
M  END
>  <MODEL>
4

>  <REMARK>
 VINA RESULT:      -4.6      2.856      5.316
  Name = 
  9 active torsions:
  status: ('A' for Active; 'I' for Inactive)
    1  A    between atoms: C_2  and  C_28
    2  A    between atoms: C_3  and  C_7
    3  A    between atoms: C_3  and  C_9
    4  A    between atoms: C_4  and  C_19
    5  A    between atoms: N_5  and  C_15
    6  A    between atoms: C_9  and  C_18
    7  A    between atoms: C_14  and  C_22
    8  A    between atoms: C_18  and  C_27
    9  A    between atoms: C_21  and  C_25
                            x       y       z     vdW  Elec       q    Type
                         _______ _______ _______ _____ _____    ______ ____

>  <TORSDO>
F 9

$$$$
=
 OpenBabel11042420273D

 31 33  0  0  1  0  0  0  0  0999 V2000
  161.5010  205.4800  150.8970 C   0  0  2  0  0  3  0  0  0  0  0  0
  162.0470  207.8590  151.4390 C   0  0  0  0  0  2  0  0  0  0  0  0
  161.5480  205.7880  153.4250 C   0  0  0  0  0  2  0  0  0  0  0  0
  160.9780  205.0020  152.2530 C   0  0  0  0  0  2  0  0  0  0  0  0
  160.7930  207.1040  153.5650 C   0  0  2  0  0  3  0  0  0  0  0  0
  161.4230  208.2570  152.7780 C   0  0  0  0  0  2  0  0  0  0  0  0
  161.1380  206.9550  150.6100 C   0  0  1  0  0  3  0  0  0  0  0  0
  162.1570  209.4640  149.9140 C   0  0  0  0  0  1  0  0  0  0  0  0
  162.5580  207.5500  148.7520 O   0  0  0  0  0  0  0  0  0  0  0  0
  161.2630  207.3480  149.1190 C   0  0  2  0  0  0  0  0  0  0  0  0
  161.7450  208.6760  148.7580 N   0  0  0  0  0  0  0  0  0  0  0  0
  160.4970  206.5620  148.0440 C   0  0  0  0  0  2  0  0  0  0  0  0
  161.1640  206.5670  146.6700 C   0  0  0  0  0  2  0  0  0  0  0  0
  160.7900  206.1110  144.3560 O   0  0  0  0  0  1  0  0  0  0  0  0
  160.1410  206.3690  145.5640 C   0  0  0  0  0  2  0  0  0  0  0  0
  161.9570  203.8960  148.9630 N   0  0  0  0  0  2  0  0  0  0  0  0
  161.0220  204.5280  149.8450 C   0  0  0  0  0  0  0  0  0  0  0  0
  159.7900  204.2810  149.7590 O   0  0  0  0  0  0  0  0  0  0  0  0
  161.4100  201.6540  148.0150 C   0  0  0  0  0  0  0  0  0  0  0  0
  161.3560  203.6600  146.6290 C   0  0  0  0  0  3  0  0  0  0  0  0
  160.8600  201.5200  145.6400 C   0  0  0  0  0  3  0  0  0  0  0  0
  161.5870  203.0520  147.8660 C   0  0  0  0  0  0  0  0  0  0  0  0
  161.0580  200.8860  146.8710 C   0  0  0  0  0  0  0  0  0  0  0  0
  160.9980  202.9000  145.5200 C   0  0  0  0  0  3  0  0  0  0  0  0
  160.5590  200.9850  150.2100 N   0  0  0  0  0  2  0  0  0  0  0  0
  161.5400  201.0700  149.3730 C   0  0  0  0  0  3  0  0  0  0  0  0
  160.9040  199.3990  146.9010 C   0  0  0  0  0  2  0  0  0  0  0  0
  161.4200  198.7940  145.6080 C   0  0  0  0  0  1  0  0  0  0  0  0
  159.7240  206.9930  155.7040 O   0  0  0  0  0  1  0  0  0  0  0  0
  160.6520  207.4780  155.0030 C   0  0  0  0  0  0  0  0  0  0  0  0
  161.5510  208.3690  155.5710 O   0  0  0  0  0  0  0  0  0  0  0  0
  1 17  1  6  0  0  0
  1  4  1  0  0  0  0
  2  6  1  0  0  0  0
  3  5  1  0  0  0  0
  4  3  1  0  0  0  0
  5 30  1  1  0  0  0
  6  5  1  0  0  0  0
  7  1  1  0  0  0  0
  7  2  1  1  0  0  0
  9 11  1  0  0  0  0
  9 10  1  0  0  0  0
 10 12  1  6  0  0  0
 10  7  1  0  0  0  0
 11 10  1  0  0  0  0
 11  8  1  0  0  0  0
 13 12  1  0  0  0  0
 14 15  1  0  0  0  0
 15 13  1  0  0  0  0
 16 17  1  0  0  0  0
 18 17  2  0  0  0  0
 19 26  1  0  0  0  0
 20 22  2  0  0  0  0
 21 23  1  0  0  0  0
 22 19  1  0  0  0  0
 22 16  1  0  0  0  0
 23 27  1  0  0  0  0
 23 19  2  0  0  0  0
 24 21  2  0  0  0  0
 24 20  1  0  0  0  0
 26 25  2  0  0  0  0
 28 27  1  0  0  0  0
 30 31  2  0  0  0  0
 30 29  1  0  0  0  0
M  END
>  <MODEL>
5

>  <REMARK>
 VINA RESULT:      -4.0      4.414      9.899
  Name = 
  9 active torsions:
  status: ('A' for Active; 'I' for Inactive)
    1  A    between atoms: C_2  and  C_28
    2  A    between atoms: C_3  and  C_7
    3  A    between atoms: C_3  and  C_9
    4  A    between atoms: C_4  and  C_19
    5  A    between atoms: N_5  and  C_15
    6  A    between atoms: C_9  and  C_18
    7  A    between atoms: C_14  and  C_22
    8  A    between atoms: C_18  and  C_27
    9  A    between atoms: C_21  and  C_25
                            x       y       z     vdW  Elec       q    Type
                         _______ _______ _______ _____ _____    ______ ____

>  <TORSDO>
F 9

$$$$
=
 OpenBabel11042420273D

 31 33  0  0  1  0  0  0  0  0999 V2000
  161.3410  209.2430  149.9260 C   0  0  2  0  0  3  0  0  0  0  0  0
  160.9840  211.5730  150.7620 C   0  0  0  0  0  2  0  0  0  0  0  0
  161.5240  210.8820  147.9840 C   0  0  0  0  0  2  0  0  0  0  0  0
  161.9460  209.5340  148.5510 C   0  0  0  0  0  2  0  0  0  0  0  0
  162.3640  211.9830  148.6190 C   0  0  2  0  0  3  0  0  0  0  0  0
  161.7390  212.5740  149.8870 C   0  0  0  0  0  2  0  0  0  0  0  0
  161.7650  210.2820  150.9910 C   0  0  1  0  0  3  0  0  0  0  0  0
  163.7510  210.7030  152.9120 C   0  0  0  0  0  1  0  0  0  0  0  0
  161.5180  210.8490  153.3220 O   0  0  0  0  0  0  0  0  0  0  0  0
  161.5400  209.8080  152.4450 C   0  0  2  0  0  0  0  0  0  0  0  0
  162.5970  209.9810  153.4350 N   0  0  0  0  0  0  0  0  0  0  0  0
  160.4370  208.7880  152.7660 C   0  0  0  0  0  2  0  0  0  0  0  0
  160.8300  207.7500  153.8150 C   0  0  0  0  0  2  0  0  0  0  0  0
  161.3780  208.1530  156.1040 O   0  0  0  0  0  1  0  0  0  0  0  0
  160.3220  208.1440  155.1920 C   0  0  0  0  0  2  0  0  0  0  0  0
  160.7160  206.7870  150.0930 N   0  0  0  0  0  2  0  0  0  0  0  0
  161.6730  207.8320  150.2980 C   0  0  0  0  0  0  0  0  0  0  0  0
  162.8100  207.5760  150.7770 O   0  0  0  0  0  0  0  0  0  0  0  0
  160.9900  204.3610  149.5810 C   0  0  0  0  0  0  0  0  0  0  0  0
  161.0480  205.1820  151.8760 C   0  0  0  0  0  3  0  0  0  0  0  0
  161.2750  202.8210  151.4540 C   0  0  0  0  0  3  0  0  0  0  0  0
  160.9040  205.4280  150.5090 C   0  0  0  0  0  0  0  0  0  0  0  0
  161.1610  203.0390  150.0770 C   0  0  0  0  0  0  0  0  0  0  0  0
  161.2290  203.8850  152.3490 C   0  0  0  0  0  3  0  0  0  0  0  0
  162.0240  204.8500  147.4170 N   0  0  0  0  0  2  0  0  0  0  0  0
  160.9610  204.6840  148.1330 C   0  0  0  0  0  3  0  0  0  0  0  0
  161.2050  201.8330  149.1930 C   0  0  0  0  0  2  0  0  0  0  0  0
  159.8060  201.2790  148.9960 C   0  0  0  0  0  1  0  0  0  0  0  0
  162.7090  212.8080  146.3990 O   0  0  0  0  0  0  0  0  0  0  0  0
  162.6470  213.0650  147.6310 C   0  0  0  0  0  0  0  0  0  0  0  0
  162.8430  214.3650  148.0750 O   0  0  0  0  0  1  0  0  0  0  0  0
  1 17  1  1  0  0  0
  1  7  1  0  0  0  0
  3  4  1  0  0  0  0
  3  5  1  0  0  0  0
  4  1  1  0  0  0  0
  5 30  1  6  0  0  0
  5  6  1  0  0  0  0
  6  2  1  0  0  0  0
  7  2  1  6  0  0  0
  7 10  1  0  0  0  0
  8 11  1  0  0  0  0
  9 11  1  0  0  0  0
 10 12  1  1  0  0  0
 10  9  1  0  0  0  0
 10 11  1  0  0  0  0
 12 13  1  0  0  0  0
 13 15  1  0  0  0  0
 15 14  1  0  0  0  0
 16 17  1  0  0  0  0
 16 22  1  0  0  0  0
 17 18  2  0  0  0  0
 19 23  2  0  0  0  0
 19 22  1  0  0  0  0
 20 24  1  0  0  0  0
 21 24  2  0  0  0  0
 22 20  2  0  0  0  0
 23 21  1  0  0  0  0
 25 26  2  0  0  0  0
 26 19  1  0  0  0  0
 27 23  1  0  0  0  0
 28 27  1  0  0  0  0
 29 30  2  0  0  0  0
 30 31  1  0  0  0  0
M  END
>  <MODEL>
6

>  <REMARK>
 VINA RESULT:      -3.9      3.540      7.973
  Name = 
  9 active torsions:
  status: ('A' for Active; 'I' for Inactive)
    1  A    between atoms: C_2  and  C_28
    2  A    between atoms: C_3  and  C_7
    3  A    between atoms: C_3  and  C_9
    4  A    between atoms: C_4  and  C_19
    5  A    between atoms: N_5  and  C_15
    6  A    between atoms: C_9  and  C_18
    7  A    between atoms: C_14  and  C_22
    8  A    between atoms: C_18  and  C_27
    9  A    between atoms: C_21  and  C_25
                            x       y       z     vdW  Elec       q    Type
                         _______ _______ _______ _____ _____    ______ ____

>  <TORSDO>
F 9

$$$$
=
 OpenBabel11042420273D

 31 33  0  0  1  0  0  0  0  0999 V2000
  161.9940  207.6530  152.0760 C   0  0  2  0  0  3  0  0  0  0  0  0
  161.5420  209.4650  153.7380 C   0  0  0  0  0  2  0  0  0  0  0  0
  161.5670  206.6210  154.3650 C   0  0  0  0  0  2  0  0  0  0  0  0
  161.4980  206.4340  152.8570 C   0  0  0  0  0  2  0  0  0  0  0  0
  160.3690  207.4400  154.8280 C   0  0  2  0  0  3  0  0  0  0  0  0
  160.6340  208.9490  154.8560 C   0  0  0  0  0  2  0  0  0  0  0  0
  161.1560  208.9210  152.3660 C   0  0  1  0  0  3  0  0  0  0  0  0
  159.4230  211.1130  152.3580 C   0  0  0  0  0  1  0  0  0  0  0  0
  161.6450  211.2330  151.8860 O   0  0  0  0  0  0  0  0  0  0  0  0
  161.3360  210.0380  151.3130 C   0  0  2  0  0  0  0  0  0  0  0  0
  160.4000  211.1560  151.2760 N   0  0  0  0  0  0  0  0  0  0  0  0
  162.1840  209.7900  150.0560 C   0  0  0  0  0  2  0  0  0  0  0  0
  161.7180  210.5630  148.8230 C   0  0  0  0  0  2  0  0  0  0  0  0
  161.8040  212.9250  148.4860 O   0  0  0  0  0  1  0  0  0  0  0  0
  162.5950  211.7790  148.5770 C   0  0  0  0  0  2  0  0  0  0  0  0
  160.9950  206.5310  150.0280 N   0  0  0  0  0  2  0  0  0  0  0  0
  162.0520  207.2910  150.6250 C   0  0  0  0  0  0  0  0  0  0  0  0
  163.0330  207.6760  149.9360 O   0  0  0  0  0  0  0  0  0  0  0  0
  161.2150  204.6850  148.3630 C   0  0  0  0  0  0  0  0  0  0  0  0
  160.7640  206.9760  147.6580 C   0  0  0  0  0  3  0  0  0  0  0  0
  161.0090  205.2490  145.9960 C   0  0  0  0  0  3  0  0  0  0  0  0
  161.0090  206.0520  148.6770 C   0  0  0  0  0  0  0  0  0  0  0  0
  161.2300  204.2960  146.9950 C   0  0  0  0  0  0  0  0  0  0  0  0
  160.7670  206.5800  146.3240 C   0  0  0  0  0  3  0  0  0  0  0  0
  160.3550  203.0270  149.9440 N   0  0  0  0  0  2  0  0  0  0  0  0
  161.3430  203.7190  149.4810 C   0  0  0  0  0  3  0  0  0  0  0  0
  161.4980  202.8940  146.5480 C   0  0  0  0  0  2  0  0  0  0  0  0
  160.6990  202.5830  145.2960 C   0  0  0  0  0  1  0  0  0  0  0  0
  158.7300  206.5290  156.3160 O   0  0  0  0  0  0  0  0  0  0  0  0
  159.8990  206.9750  156.1660 C   0  0  0  0  0  0  0  0  0  0  0  0
  160.7580  207.0350  157.2540 O   0  0  0  0  0  1  0  0  0  0  0  0
  1 17  1  6  0  0  0
  1  7  1  0  0  0  0
  1  4  1  0  0  0  0
  2  6  1  0  0  0  0
  3  5  1  0  0  0  0
  4  3  1  0  0  0  0
  5  6  1  0  0  0  0
  5 30  1  1  0  0  0
  7  2  1  1  0  0  0
 10 12  1  6  0  0  0
 10  9  1  0  0  0  0
 10  7  1  0  0  0  0
 11 10  1  0  0  0  0
 11  9  1  0  0  0  0
 11  8  1  0  0  0  0
 13 12  1  0  0  0  0
 14 15  1  0  0  0  0
 15 13  1  0  0  0  0
 16 17  1  0  0  0  0
 18 17  2  0  0  0  0
 19 22  1  0  0  0  0
 19 26  1  0  0  0  0
 20 22  2  0  0  0  0
 21 24  2  0  0  0  0
 21 23  1  0  0  0  0
 22 16  1  0  0  0  0
 23 19  2  0  0  0  0
 24 20  1  0  0  0  0
 26 25  2  0  0  0  0
 27 23  1  0  0  0  0
 28 27  1  0  0  0  0
 30 29  2  0  0  0  0
 30 31  1  0  0  0  0
M  END
>  <MODEL>
7

>  <REMARK>
 VINA RESULT:      -3.8      3.319      7.877
  Name = 
  9 active torsions:
  status: ('A' for Active; 'I' for Inactive)
    1  A    between atoms: C_2  and  C_28
    2  A    between atoms: C_3  and  C_7
    3  A    between atoms: C_3  and  C_9
    4  A    between atoms: C_4  and  C_19
    5  A    between atoms: N_5  and  C_15
    6  A    between atoms: C_9  and  C_18
    7  A    between atoms: C_14  and  C_22
    8  A    between atoms: C_18  and  C_27
    9  A    between atoms: C_21  and  C_25
                            x       y       z     vdW  Elec       q    Type
                         _______ _______ _______ _____ _____    ______ ____

>  <TORSDO>
F 9

$$$$
=
 OpenBabel11042420273D

 31 33  0  0  1  0  0  0  0  0999 V2000
  161.4740  206.5470  151.4420 C   0  0  2  0  0  3  0  0  0  0  0  0
  162.2500  208.9240  151.4290 C   0  0  0  0  0  2  0  0  0  0  0  0
  161.5070  207.4440  153.8250 C   0  0  0  0  0  2  0  0  0  0  0  0
  160.8810  206.4590  152.8490 C   0  0  0  0  0  2  0  0  0  0  0  0
  160.8880  208.8210  153.6200 C   0  0  2  0  0  3  0  0  0  0  0  0
  161.6470  209.6870  152.6090 C   0  0  0  0  0  2  0  0  0  0  0  0
  161.2690  207.9390  150.8000 C   0  0  1  0  0  3  0  0  0  0  0  0
  162.3160  210.2070  149.5470 C   0  0  0  0  0  1  0  0  0  0  0  0
  162.7690  208.0690  148.9150 O   0  0  0  0  0  0  0  0  0  0  0  0
  161.4590  207.9500  149.2660 C   0  0  2  0  0  0  0  0  0  0  0  0
  161.9560  209.1520  148.6060 N   0  0  0  0  0  0  0  0  0  0  0  0
  160.7420  206.9130  148.3880 C   0  0  0  0  0  2  0  0  0  0  0  0
  161.0460  207.0370  146.8960 C   0  0  0  0  0  2  0  0  0  0  0  0
  160.6150  205.9780  144.8000 O   0  0  0  0  0  1  0  0  0  0  0  0
  160.0810  206.2040  146.0700 C   0  0  0  0  0  2  0  0  0  0  0  0
  161.7560  204.3230  150.2480 N   0  0  0  0  0  2  0  0  0  0  0  0
  160.9190  205.4210  150.6250 C   0  0  0  0  0  0  0  0  0  0  0  0
  159.7050  205.4480  150.2910 O   0  0  0  0  0  0  0  0  0  0  0  0
  161.5490  203.2910  147.9850 C   0  0  0  0  0  0  0  0  0  0  0  0
  160.7640  202.1290  149.9800 C   0  0  0  0  0  3  0  0  0  0  0  0
  160.4950  201.0960  147.8210 C   0  0  0  0  0  3  0  0  0  0  0  0
  161.3440  203.2530  149.3870 C   0  0  0  0  0  0  0  0  0  0  0  0
  161.0960  202.1950  147.2000 C   0  0  0  0  0  0  0  0  0  0  0  0
  160.3380  201.0560  149.2030 C   0  0  0  0  0  3  0  0  0  0  0  0
  163.2440  204.3290  146.5560 N   0  0  0  0  0  2  0  0  0  0  0  0
  162.2840  204.4470  147.4130 C   0  0  0  0  0  3  0  0  0  0  0  0
  161.2070  202.1570  145.7090 C   0  0  0  0  0  2  0  0  0  0  0  0
  160.0770  201.3290  145.1230 C   0  0  0  0  0  1  0  0  0  0  0  0
  159.8960  209.1860  155.7670 O   0  0  0  0  0  1  0  0  0  0  0  0
  160.7600  209.5400  154.9210 C   0  0  0  0  0  0  0  0  0  0  0  0
  161.6020  210.6080  155.2010 O   0  0  0  0  0  0  0  0  0  0  0  0
  1 17  1  6  0  0  0
  1  4  1  0  0  0  0
  2  6  1  0  0  0  0
  4  3  1  0  0  0  0
  5  3  1  0  0  0  0
  5 30  1  1  0  0  0
  6  5  1  0  0  0  0
  7  2  1  1  0  0  0
  7  1  1  0  0  0  0
  9 10  1  0  0  0  0
 10 12  1  6  0  0  0
 10  7  1  0  0  0  0
 11  9  1  0  0  0  0
 11 10  1  0  0  0  0
 11  8  1  0  0  0  0
 13 12  1  0  0  0  0
 14 15  1  0  0  0  0
 15 13  1  0  0  0  0
 16 17  1  0  0  0  0
 18 17  2  0  0  0  0
 19 22  1  0  0  0  0
 21 24  2  0  0  0  0
 22 20  2  0  0  0  0
 22 16  1  0  0  0  0
 23 21  1  0  0  0  0
 23 19  2  0  0  0  0
 24 20  1  0  0  0  0
 25 26  2  0  0  0  0
 26 19  1  0  0  0  0
 27 23  1  0  0  0  0
 28 27  1  0  0  0  0
 30 31  2  0  0  0  0
 30 29  1  0  0  0  0
M  END
>  <MODEL>
8

>  <REMARK>
 VINA RESULT:      -3.4      3.827      9.512
  Name = 
  9 active torsions:
  status: ('A' for Active; 'I' for Inactive)
    1  A    between atoms: C_2  and  C_28
    2  A    between atoms: C_3  and  C_7
    3  A    between atoms: C_3  and  C_9
    4  A    between atoms: C_4  and  C_19
    5  A    between atoms: N_5  and  C_15
    6  A    between atoms: C_9  and  C_18
    7  A    between atoms: C_14  and  C_22
    8  A    between atoms: C_18  and  C_27
    9  A    between atoms: C_21  and  C_25
                            x       y       z     vdW  Elec       q    Type
                         _______ _______ _______ _____ _____    ______ ____

>  <TORSDO>
F 9

$$$$
=
 OpenBabel11042420273D

 31 33  0  0  1  0  0  0  0  0999 V2000
  160.7850  211.2130  152.9740 C   0  0  2  0  0  3  0  0  0  0  0  0
  159.7620  213.4920  152.8620 C   0  0  0  0  0  2  0  0  0  0  0  0
  159.6470  211.7450  155.1900 C   0  0  0  0  0  2  0  0  0  0  0  0
  160.0870  210.6600  154.2180 C   0  0  0  0  0  2  0  0  0  0  0  0
  158.3430  212.3630  154.6990 C   0  0  2  0  0  3  0  0  0  0  0  0
  158.5470  213.5770  153.7870 C   0  0  0  0  0  2  0  0  0  0  0  0
  159.8690  212.1470  152.1490 C   0  0  1  0  0  3  0  0  0  0  0  0
  158.0810  213.0600  150.2040 C   0  0  0  0  0  1  0  0  0  0  0  0
  160.2640  213.6890  150.3370 O   0  0  0  0  0  0  0  0  0  0  0  0
  160.3610  212.3820  150.7030 C   0  0  2  0  0  0  0  0  0  0  0  0
  159.4170  212.8080  149.6760 N   0  0  0  0  0  0  0  0  0  0  0  0
  161.6880  211.7700  150.2260 C   0  0  0  0  0  2  0  0  0  0  0  0
  161.7780  211.5680  148.7150 C   0  0  0  0  0  2  0  0  0  0  0  0
  162.4190  213.7180  147.8990 O   0  0  0  0  0  1  0  0  0  0  0  0
  162.8830  212.4190  148.1140 C   0  0  0  0  0  2  0  0  0  0  0  0
  160.4660  209.0010  151.7660 N   0  0  0  0  0  2  0  0  0  0  0  0
  161.3310  210.0610  152.1890 C   0  0  0  0  0  0  0  0  0  0  0  0
  162.5560  210.0470  151.8940 O   0  0  0  0  0  0  0  0  0  0  0  0
  161.0690  206.5800  151.7830 C   0  0  0  0  0  0  0  0  0  0  0  0
  161.1500  207.8890  149.7260 C   0  0  0  0  0  3  0  0  0  0  0  0
  161.7870  205.5660  149.6810 C   0  0  0  0  0  3  0  0  0  0  0  0
  160.9120  207.8130  151.1010 C   0  0  0  0  0  0  0  0  0  0  0  0
  161.5320  205.4520  151.0510 C   0  0  0  0  0  0  0  0  0  0  0  0
  161.5890  206.7740  149.0180 C   0  0  0  0  0  3  0  0  0  0  0  0
  161.4650  206.8630  154.1810 N   0  0  0  0  0  2  0  0  0  0  0  0
  160.6830  206.5140  153.2140 C   0  0  0  0  0  3  0  0  0  0  0  0
  161.7900  204.1200  151.6810 C   0  0  0  0  0  2  0  0  0  0  0  0
  160.8780  203.0690  151.0730 C   0  0  0  0  0  1  0  0  0  0  0  0
  157.5000  212.0550  156.9180 O   0  0  0  0  0  1  0  0  0  0  0  0
  157.4660  212.7250  155.8510 C   0  0  0  0  0  0  0  0  0  0  0  0
  156.6060  213.8090  155.7440 O   0  0  0  0  0  0  0  0  0  0  0  0
  1 17  1  6  0  0  0
  1  4  1  0  0  0  0
  2  6  1  0  0  0  0
  4  3  1  0  0  0  0
  5  3  1  0  0  0  0
  5 30  1  1  0  0  0
  6  5  1  0  0  0  0
  7  2  1  1  0  0  0
  7  1  1  0  0  0  0
  9 10  1  0  0  0  0
 10 12  1  6  0  0  0
 10  7  1  0  0  0  0
 11  8  1  0  0  0  0
 11  9  1  0  0  0  0
 11 10  1  0  0  0  0
 13 12  1  0  0  0  0
 14 15  1  0  0  0  0
 15 13  1  0  0  0  0
 16 17  1  0  0  0  0
 18 17  2  0  0  0  0
 19 26  1  0  0  0  0
 20 22  2  0  0  0  0
 21 23  1  0  0  0  0
 22 16  1  0  0  0  0
 22 19  1  0  0  0  0
 23 27  1  0  0  0  0
 23 19  2  0  0  0  0
 24 21  2  0  0  0  0
 24 20  1  0  0  0  0
 26 25  2  0  0  0  0
 28 27  1  0  0  0  0
 30 29  1  0  0  0  0
 31 30  2  0  0  0  0
M  END
>  <MODEL>
9

>  <REMARK>
 VINA RESULT:      -3.4      2.985      7.838
  Name = 
  9 active torsions:
  status: ('A' for Active; 'I' for Inactive)
    1  A    between atoms: C_2  and  C_28
    2  A    between atoms: C_3  and  C_7
    3  A    between atoms: C_3  and  C_9
    4  A    between atoms: C_4  and  C_19
    5  A    between atoms: N_5  and  C_15
    6  A    between atoms: C_9  and  C_18
    7  A    between atoms: C_14  and  C_22
    8  A    between atoms: C_18  and  C_27
    9  A    between atoms: C_21  and  C_25
                            x       y       z     vdW  Elec       q    Type
                         _______ _______ _______ _____ _____    ______ ____

>  <TORSDO>
F 9

$$$$
