=
 OpenBabel11042422113D

 50 57  0  0  1  0  0  0  0  0999 V2000
  162.6860  214.4130  146.0730 N   0  0  0  0  0  1  0  0  0  0  0  0
  161.4890  209.4250  154.3200 C   0  0  1  0  0  3  0  0  0  0  0  0
  161.2880  208.5780  152.0120 N   0  0  0  0  0  0  0  0  0  0  0  0
  160.5180  208.2560  154.5480 C   0  0  1  0  0  3  0  0  0  0  0  0
  160.9740  207.1150  153.8670 O   0  0  0  0  0  0  0  0  0  0  0  0
  161.4990  210.1010  150.0390 C   0  0  0  0  0  0  0  0  0  0  0  0
  159.5980  211.2310  153.8910 C   0  0  2  0  0  3  0  0  0  0  0  0
  160.7070  207.3120  152.4940 C   0  0  2  0  0  3  0  0  0  0  0  0
  159.6650  211.0460  152.3830 C   0  0  0  0  0  2  0  0  0  0  0  0
  162.1200  209.3640  152.9260 C   0  0  0  0  0  2  0  0  0  0  0  0
  161.8660  209.1760  147.8560 N   0  0  0  0  0  0  0  0  0  0  0  0
  161.3470  208.8180  150.5960 C   0  0  0  0  0  0  0  0  0  0  0  0
  161.6100  213.8370  149.6940 C   0  0  0  0  0  3  0  0  0  0  0  0
  160.8570  210.7670  154.5810 C   0  0  0  0  0  0  0  0  0  0  0  0
  160.7370  211.8470  151.8150 N   0  0  0  0  0  2  0  0  0  0  0  0
  161.8130  210.2320  148.7030 C   0  0  0  0  0  0  0  0  0  0  0  0
  161.0340  206.3360  150.1930 C   0  0  0  0  0  2  0  0  0  0  0  0
  162.3140  213.7360  147.2670 C   0  0  0  0  0  0  0  0  0  0  0  0
  161.3880  211.5130  155.3860 O   0  0  0  0  0  0  0  0  0  0  0  0
  162.0440  214.4530  148.3760 C   0  0  0  0  0  3  0  0  0  0  0  0
  161.4030  211.4670  150.6080 C   0  0  0  0  0  0  0  0  0  0  0  0
  161.6250  207.9220  148.3400 C   0  0  0  0  0  3  0  0  0  0  0  0
  161.9940  211.6360  148.4140 C   0  0  1  0  0  3  0  0  0  0  0  0
  162.2500  212.2560  147.2680 C   0  0  0  0  0  3  0  0  0  0  0  0
  161.7390  212.3440  149.6580 C   0  0  0  0  0  0  0  0  0  0  0  0
  161.2970  206.1510  151.6890 C   0  0  2  0  0  3  0  0  0  0  0  0
  161.3670  207.7170  149.7100 C   0  0  0  0  0  0  0  0  0  0  0  0
  160.3560  207.9540  156.0320 C   0  0  0  0  0  2  0  0  0  0  0  0
  159.4550  206.9050  156.2250 O   0  0  0  0  0  1  0  0  0  0  0  0
  158.4860  210.5450  154.3960 O   0  0  0  0  0  0  0  0  0  0  0  0
  156.4150  211.0200  155.1420 C   0  0  0  0  0  1  0  0  0  0  0  0
  157.7970  211.4650  155.1160 N   0  0  0  0  0  0  0  0  0  0  0  0
  157.8200  212.7050  154.3580 C   0  0  0  0  0  1  0  0  0  0  0  0
  160.7000  204.8260  152.1410 C   0  0  0  0  0  2  0  0  0  0  0  0
  160.8110  203.5120  150.0500 C   0  0  2  0  0  3  0  0  0  0  0  0
  161.1430  201.4940  151.1690 O   0  0  0  0  0  0  0  0  0  0  0  0
  161.0320  202.4500  152.0880 O   0  0  0  0  0  0  0  0  0  0  0  0
  159.2030  201.7680  150.0040 O   0  0  0  0  0  1  0  0  0  0  0  0
  161.3670  203.6480  151.4410 C   0  0  2  0  0  0  0  0  0  0  0  0
  160.5790  202.0110  149.9890 C   0  0  1  0  0  0  0  0  0  0  0  0
  162.7490  203.8000  151.4400 F   0  0  0  0  0  0  0  0  0  0  0  0
  161.1960  201.3240  148.7970 C   0  0  0  0  0  0  0  0  0  0  0  0
  162.2790  200.6920  148.9210 O   0  0  0  0  0  0  0  0  0  0  0  0
  160.5900  201.4290  147.5120 N   0  0  0  0  0  1  0  0  0  0  0  0
  161.7260  204.1260  148.9800 C   0  0  0  0  0  2  0  0  0  0  0  0
  160.9380  204.5000  147.7340 C   0  0  0  0  0  2  0  0  0  0  0  0
  161.8530  204.5370  146.5220 C   0  0  0  0  0  2  0  0  0  0  0  0
  160.3860  205.8650  145.0490 C   0  0  0  0  0  2  0  0  0  0  0  0
  161.0170  204.5040  145.2600 C   0  0  0  0  0  3  0  0  0  0  0  0
  161.6070  205.4660  144.2490 C   0  0  0  0  0  2  0  0  0  0  0  0
  1 18  1  0  0  0  0
  2 10  1  6  0  0  0
  2  4  1  0  0  0  0
  2 14  1  0  0  0  0
  3  8  1  0  0  0  0
  3 10  1  0  0  0  0
  4 28  1  1  0  0  0
  5  4  1  0  0  0  0
  6 12  1  0  0  0  0
  6 21  1  0  0  0  0
  7 30  1  1  0  0  0
  7 14  1  0  0  0  0
  8  5  1  1  0  0  0
  9  7  1  0  0  0  0
 11 22  2  0  0  0  0
 11 16  1  0  0  0  0
 12  3  1  0  0  0  0
 14 19  2  0  0  0  0
 15  9  1  0  0  0  0
 16  6  2  0  0  0  0
 17 26  1  0  0  0  0
 18 24  2  0  0  0  0
 18 20  1  0  0  0  0
 20 13  2  0  0  0  0
 21 15  1  0  0  0  0
 22 27  1  0  0  0  0
 23 24  1  6  0  0  0
 23 16  1  0  0  0  0
 23 25  1  0  0  0  0
 25 13  1  0  0  0  0
 25 21  2  0  0  0  0
 26 34  1  1  0  0  0
 26  8  1  0  0  0  0
 27 17  1  0  0  0  0
 27 12  2  0  0  0  0
 28 29  1  0  0  0  0
 30 32  1  0  0  0  0
 32 31  1  0  0  0  0
 33 32  1  0  0  0  0
 35 45  1  6  0  0  0
 35 39  1  0  0  0  0
 36 37  1  0  0  0  0
 39 41  1  6  0  0  0
 39 37  1  0  0  0  0
 39 34  1  0  0  0  0
 40 38  1  1  0  0  0
 40 35  1  0  0  0  0
 40 36  1  0  0  0  0
 42 43  2  0  0  0  0
 42 40  1  0  0  0  0
 44 42  1  0  0  0  0
 46 45  1  0  0  0  0
 47 46  1  0  0  0  0
 48 49  1  0  0  0  0
 49 47  1  0  0  0  0
 50 48  1  0  0  0  0
 50 49  1  0  0  0  0
M  END
>  <MODEL>
1

>  <REMARK>
 VINA RESULT:      -6.8      0.000      0.000
  Name = 
  10 active torsions:
  status: ('A' for Active; 'I' for Inactive)
    1  A    between atoms: C_4  and  C_19
    2  A    between atoms: O_7  and  C_8
    3  A    between atoms: O_7  and  N_41
    4  A    between atoms: C_9  and  C_14
    5  A    between atoms: C_12  and  C_38
    6  A    between atoms: C_12  and  C_47
    7  A    between atoms: C_13  and  C_27
    8  A    between atoms: C_13  and  C_50
    9  A    between atoms: C_14  and  C_50
   10  A    between atoms: C_15  and  C_43
                            x       y       z     vdW  Elec       q    Type
                         _______ _______ _______ _____ _____    ______ ____

>  <TORSDO>
F 10

$$$$
=
 OpenBabel11042422113D

 50 57  0  0  1  0  0  0  0  0999 V2000
  161.0190  201.0510  149.3150 N   0  0  0  0  0  1  0  0  0  0  0  0
  159.8950  209.7670  153.4480 C   0  0  1  0  0  3  0  0  0  0  0  0
  161.0610  209.2470  151.3380 N   0  0  0  0  0  0  0  0  0  0  0  0
  160.8890  210.9380  153.3970 C   0  0  1  0  0  3  0  0  0  0  0  0
  160.9040  211.4970  152.1080 O   0  0  0  0  0  0  0  0  0  0  0  0
  161.3460  206.8900  150.5500 C   0  0  0  0  0  0  0  0  0  0  0  0
  161.4950  208.1500  154.8060 C   0  0  2  0  0  3  0  0  0  0  0  0
  161.6210  210.6100  151.2740 C   0  0  2  0  0  3  0  0  0  0  0  0
  162.0160  207.4880  153.5410 C   0  0  0  0  0  2  0  0  0  0  0  0
  159.8380  209.0230  152.1110 C   0  0  0  0  0  2  0  0  0  0  0  0
  161.9590  206.4640  148.2700 N   0  0  0  0  0  0  0  0  0  0  0  0
  161.4880  208.2780  150.3650 C   0  0  0  0  0  0  0  0  0  0  0  0
  160.7700  203.5610  152.1850 C   0  0  0  0  0  3  0  0  0  0  0  0
  160.1630  208.8250  154.5920 C   0  0  0  0  0  0  0  0  0  0  0  0
  161.1130  206.4350  153.1040 N   0  0  0  0  0  2  0  0  0  0  0  0
  161.5280  206.0380  149.4820 C   0  0  0  0  0  0  0  0  0  0  0  0
  162.3220  210.1650  148.8950 C   0  0  0  0  0  2  0  0  0  0  0  0
  161.0310  202.2890  150.0150 C   0  0  0  0  0  0  0  0  0  0  0  0
  159.2610  208.5970  155.3810 O   0  0  0  0  0  0  0  0  0  0  0  0
  160.7570  202.3030  151.3340 C   0  0  0  0  0  3  0  0  0  0  0  0
  161.0070  206.0570  151.7280 C   0  0  0  0  0  0  0  0  0  0  0  0
  162.2040  207.7940  148.0800 C   0  0  0  0  0  3  0  0  0  0  0  0
  161.2420  204.6910  149.9200 C   0  0  1  0  0  3  0  0  0  0  0  0
  161.3270  203.5360  149.2720 C   0  0  0  0  0  3  0  0  0  0  0  0
  160.9060  204.7860  151.3310 C   0  0  0  0  0  0  0  0  0  0  0  0
  161.5620  211.1090  149.8280 C   0  0  2  0  0  3  0  0  0  0  0  0
  161.9720  208.7220  149.1140 C   0  0  0  0  0  0  0  0  0  0  0  0
  160.5420  212.0030  154.4280 C   0  0  0  0  0  2  0  0  0  0  0  0
  159.3030  211.7360  155.0140 O   0  0  0  0  0  1  0  0  0  0  0  0
  162.4390  209.0740  155.2720 O   0  0  0  0  0  0  0  0  0  0  0  0
  163.1560  210.1140  157.1360 C   0  0  0  0  0  1  0  0  0  0  0  0
  162.0720  209.3470  156.5480 N   0  0  0  0  0  0  0  0  0  0  0  0
  162.0260  208.0800  157.2590 C   0  0  0  0  0  1  0  0  0  0  0  0
  162.1560  212.5060  149.7180 C   0  0  0  0  0  2  0  0  0  0  0  0
  160.4410  213.0880  148.0350 C   0  0  2  0  0  3  0  0  0  0  0  0
  161.8140  212.5270  146.2360 O   0  0  0  0  0  0  0  0  0  0  0  0
  162.5010  212.2990  147.3530 O   0  0  0  0  0  0  0  0  0  0  0  0
  159.9490  211.2670  146.5960 O   0  0  0  0  0  1  0  0  0  0  0  0
  161.9150  213.1060  148.3380 C   0  0  2  0  0  0  0  0  0  0  0  0
  160.4580  212.5680  146.6070 C   0  0  1  0  0  0  0  0  0  0  0  0
  162.4490  214.3870  148.2630 F   0  0  0  0  0  0  0  0  0  0  0  0
  159.6940  213.4130  145.6190 C   0  0  0  0  0  0  0  0  0  0  0  0
  158.4360  213.3560  145.5760 O   0  0  0  0  0  0  0  0  0  0  0  0
  160.3880  214.2400  144.6900 N   0  0  0  0  0  1  0  0  0  0  0  0
  159.7650  214.4440  148.2820 C   0  0  0  0  0  2  0  0  0  0  0  0
  158.4290  214.2700  148.9860 C   0  0  0  0  0  2  0  0  0  0  0  0
  158.6390  214.0490  150.4730 C   0  0  0  0  0  2  0  0  0  0  0  0
  157.7610  212.7910  152.4060 C   0  0  0  0  0  2  0  0  0  0  0  0
  157.4050  213.4020  151.0660 C   0  0  0  0  0  3  0  0  0  0  0  0
  157.0370  214.1190  152.3480 C   0  0  0  0  0  2  0  0  0  0  0  0
  1 18  1  0  0  0  0
  2 10  1  6  0  0  0
  2 14  1  0  0  0  0
  3 10  1  0  0  0  0
  4  2  1  0  0  0  0
  4 28  1  1  0  0  0
  5  4  1  0  0  0  0
  6 21  1  0  0  0  0
  7 30  1  6  0  0  0
  8  3  1  0  0  0  0
  8  5  1  1  0  0  0
  9  7  1  0  0  0  0
 11 16  1  0  0  0  0
 12  6  1  0  0  0  0
 12  3  1  0  0  0  0
 14  7  1  0  0  0  0
 14 19  2  0  0  0  0
 15  9  1  0  0  0  0
 16 23  1  0  0  0  0
 16  6  2  0  0  0  0
 17 27  1  0  0  0  0
 17 26  1  0  0  0  0
 18 20  1  0  0  0  0
 20 13  2  0  0  0  0
 21 15  1  0  0  0  0
 22 11  2  0  0  0  0
 22 27  1  0  0  0  0
 23 24  1  1  0  0  0
 23 25  1  0  0  0  0
 24 18  2  0  0  0  0
 25 21  2  0  0  0  0
 25 13  1  0  0  0  0
 26 34  1  1  0  0  0
 26  8  1  0  0  0  0
 27 12  2  0  0  0  0
 28 29  1  0  0  0  0
 30 32  1  0  0  0  0
 32 31  1  0  0  0  0
 32 33  1  0  0  0  0
 35 45  1  6  0  0  0
 35 39  1  0  0  0  0
 36 40  1  0  0  0  0
 36 37  1  0  0  0  0
 37 39  1  0  0  0  0
 39 41  1  6  0  0  0
 39 34  1  0  0  0  0
 40 38  1  6  0  0  0
 40 35  1  0  0  0  0
 42 40  1  0  0  0  0
 43 42  2  0  0  0  0
 44 42  1  0  0  0  0
 45 46  1  0  0  0  0
 46 47  1  0  0  0  0
 47 49  1  0  0  0  0
 49 50  1  0  0  0  0
 49 48  1  0  0  0  0
 50 48  1  0  0  0  0
M  END
>  <MODEL>
2

>  <REMARK>
 VINA RESULT:      -6.2      3.523      8.190
  Name = 
  10 active torsions:
  status: ('A' for Active; 'I' for Inactive)
    1  A    between atoms: C_4  and  C_19
    2  A    between atoms: O_7  and  C_8
    3  A    between atoms: O_7  and  N_41
    4  A    between atoms: C_9  and  C_14
    5  A    between atoms: C_12  and  C_38
    6  A    between atoms: C_12  and  C_47
    7  A    between atoms: C_13  and  C_27
    8  A    between atoms: C_13  and  C_50
    9  A    between atoms: C_14  and  C_50
   10  A    between atoms: C_15  and  C_43
                            x       y       z     vdW  Elec       q    Type
                         _______ _______ _______ _____ _____    ______ ____

>  <TORSDO>
F 10

$$$$
