=
 OpenBabel11042421003D

 46 51  0  0  1  0  0  0  0  0999 V2000
  155.9290  214.0660  145.2340 C   0  0  0  0  0  0  0  0  0  0  0  0
  159.6780  213.9080  147.2430 C   0  0  2  0  0  3  0  0  0  0  0  0
  157.1270  214.3740  147.3320 C   0  0  0  0  0  3  0  0  0  0  0  0
  162.7800  213.0480  147.2220 C   0  0  2  0  0  3  0  0  0  0  0  0
  159.3330  213.9630  151.0010 C   0  0  0  0  0  3  0  0  0  0  0  0
  161.9220  213.5950  146.0630 C   0  0  2  0  0  3  0  0  0  0  0  0
  159.9810  212.8040  151.4120 C   0  0  0  0  0  3  0  0  0  0  0  0
  159.6390  213.2790  144.8620 C   0  0  0  0  0  2  0  0  0  0  0  0
  157.1160  213.6700  144.6030 C   0  0  0  0  0  3  0  0  0  0  0  0
  160.4530  213.1440  146.1590 C   0  0  2  0  0  3  0  0  0  0  0  0
  160.4530  212.2270  149.0990 C   0  0  0  0  0  0  0  0  0  0  0  0
  159.2420  214.2620  149.6460 C   0  0  0  0  0  3  0  0  0  0  0  0
  160.5370  211.9250  150.4780 C   0  0  0  0  0  0  0  0  0  0  0  0
  158.2880  213.6160  145.3590 C   0  0  0  0  0  0  0  0  0  0  0  0
  154.7180  214.1240  144.4910 N   0  0  0  0  0  1  0  0  0  0  0  0
  161.1010  211.3420  148.1700 N   0  0  0  0  0  0  0  0  0  0  0  0
  155.9340  214.4220  146.5930 C   0  0  0  0  0  3  0  0  0  0  0  0
  163.2230  210.7150  147.4150 O   0  0  0  0  0  0  0  0  0  0  0  0
  159.7800  213.4090  148.6740 C   0  0  0  0  0  0  0  0  0  0  0  0
  162.4010  211.6460  147.6310 C   0  0  0  0  0  0  0  0  0  0  0  0
  158.2950  213.9440  146.6940 C   0  0  0  0  0  0  0  0  0  0  0  0
  159.5700  210.0490  153.0760 S   0  0  0  0  0  0  0  0  0  0  0  0
  162.5840  206.8200  153.4170 C   0  0  0  0  0  1  0  0  0  0  0  0
  161.2560  210.7520  150.8940 N   0  0  0  0  0  2  0  0  0  0  0  0
  161.2090  208.4780  154.4920 N   0  0  0  0  0  0  0  0  0  0  0  0
  160.5440  209.7740  154.5830 C   0  0  2  0  0  3  0  0  0  0  0  0
  161.8570  208.1160  153.4260 C   0  0  0  0  0  0  0  0  0  0  0  0
  161.9040  208.9600  152.2660 N   0  0  0  0  0  0  0  0  0  0  0  0
  161.0400  209.9020  152.0310 C   0  0  0  0  0  0  0  0  0  0  0  0
  159.6360  209.8100  155.7970 C   0  0  0  0  0  2  0  0  0  0  0  0
  158.2320  210.2170  155.3880 C   0  0  0  0  0  2  0  0  0  0  0  0
  158.1140  211.7270  155.4130 C   0  0  0  0  0  2  0  0  0  0  0  0
  157.5750  212.1700  156.7570 C   0  0  0  0  0  1  0  0  0  0  0  0
  162.9570  214.0000  148.3790 C   0  0  0  0  0  0  0  0  0  0  0  0
  161.9890  214.4520  148.9710 O   0  0  0  0  0  0  0  0  0  0  0  0
  164.3240  214.4440  148.7810 C   0  0  0  0  0  1  0  0  0  0  0  0
  163.8150  213.1220  144.6710 O   0  0  0  0  0  0  0  0  0  0  0  0
  161.7370  213.0520  143.6080 N   0  0  0  0  0  2  0  0  0  0  0  0
  162.5620  213.2350  144.7590 C   0  0  0  0  0  0  0  0  0  0  0  0
  162.2750  212.6770  142.3100 C   0  0  1  0  0  3  0  0  0  0  0  0
  161.1260  212.4950  141.3400 C   0  0  1  0  0  3  0  0  0  0  0  0
  161.9660  213.7570  141.2970 C   0  0  0  0  0  2  0  0  0  0  0  0
  161.9060  210.4580  140.9820 C   0  0  0  0  0  1  0  0  0  0  0  0
  161.5240  211.6290  140.3220 O   0  0  0  0  0  0  0  0  0  0  0  0
  161.5010  209.0430  148.1690 O   0  0  0  0  0  1  0  0  0  0  0  0
  160.5290  210.0200  147.9490 C   0  0  0  0  0  2  0  0  0  0  0  0
  1 17  1  0  0  0  0
  2 21  1  6  0  0  0
  2 19  1  0  0  0  0
  4 20  1  0  0  0  0
  4 34  1  1  0  0  0
  5  7  1  0  0  0  0
  6 39  1  6  0  0  0
  6 10  1  0  0  0  0
  6  4  1  0  0  0  0
  8 14  1  0  0  0  0
  9  1  2  0  0  0  0
  9 14  1  0  0  0  0
 10  8  1  6  0  0  0
 10  2  1  0  0  0  0
 11 13  1  0  0  0  0
 12  5  2  0  0  0  0
 13 24  1  0  0  0  0
 13  7  2  0  0  0  0
 14 21  2  0  0  0  0
 15  1  1  0  0  0  0
 16 11  1  0  0  0  0
 17  3  2  0  0  0  0
 18 20  2  0  0  0  0
 19 11  2  0  0  0  0
 19 12  1  0  0  0  0
 20 16  1  0  0  0  0
 21  3  1  0  0  0  0
 22 26  1  0  0  0  0
 23 27  1  0  0  0  0
 24 29  1  0  0  0  0
 25 26  1  0  0  0  0
 26 30  1  1  0  0  0
 27 25  2  0  0  0  0
 28 27  1  0  0  0  0
 29 28  2  0  0  0  0
 29 22  1  0  0  0  0
 31 32  1  0  0  0  0
 31 30  1  0  0  0  0
 32 33  1  0  0  0  0
 34 36  1  0  0  0  0
 34 35  2  0  0  0  0
 37 39  2  0  0  0  0
 38 39  1  0  0  0  0
 40 38  1  1  0  0  0
 41 44  1  6  0  0  0
 41 40  1  0  0  0  0
 42 41  1  0  0  0  0
 42 40  1  0  0  0  0
 44 43  1  0  0  0  0
 46 45  1  0  0  0  0
 46 16  1  0  0  0  0
M  END
>  <MODEL>
1

>  <REMARK>
 VINA RESULT:       3.2      0.000      0.000
  Name = 
  9 active torsions:
  status: ('A' for Active; 'I' for Inactive)
    1  A    between atoms: N_6  and  C_30
    2  A    between atoms: C_8  and  C_10
    3  A    between atoms: C_12  and  C_37
    4  A    between atoms: C_16  and  N_23
    5  A    between atoms: C_18  and  O_44
    6  A    between atoms: C_19  and  N_36
    7  A    between atoms: C_20  and  C_27
    8  A    between atoms: C_27  and  C_42
    9  A    between atoms: C_34  and  C_42
                            x       y       z     vdW  Elec       q    Type
                         _______ _______ _______ _____ _____    ______ ____

>  <TORSDO>
F 9

$$$$
