=
 OpenBabel11042421483D

 44 48  0  0  1  0  0  0  0  0999 V2000
  161.1390  205.4930  152.1080 N   0  0  0  0  0  0  0  0  0  0  0  0
  161.2450  207.4960  152.8400 C   0  0  0  0  0  0  0  0  0  0  0  0
  161.0450  206.2180  153.2150 N   0  0  0  0  0  0  0  0  0  0  0  0
  161.7450  208.6260  150.6540 N   0  0  0  0  0  2  0  0  0  0  0  0
  161.4030  206.2240  151.0350 N   0  0  0  0  0  0  0  0  0  0  0  0
  161.4700  207.4910  151.4790 C   0  0  0  0  0  0  0  0  0  0  0  0
  161.2320  208.6450  153.7590 C   0  0  0  0  0  0  0  0  0  0  0  0
  161.3540  208.4080  155.1710 N   0  0  0  0  0  2  0  0  0  0  0  0
  161.1090  209.8400  153.2560 N   0  0  0  0  0  0  0  0  0  0  0  0
  161.3670  209.3890  156.1040 O   0  0  0  0  0  1  0  0  0  0  0  0
  161.0720  211.0830  154.0130 C   0  0  0  0  0  2  0  0  0  0  0  0
  157.9790  213.0150  153.0370 C   0  0  0  0  0  0  0  0  0  0  0  0
  155.6550  213.4320  153.8350 S   0  0  0  0  0  0  0  0  0  0  0  0
  157.5030  211.8090  155.0940 C   0  0  0  0  0  3  0  0  0  0  0  0
  159.6880  211.6290  154.0180 C   0  0  0  0  0  0  0  0  0  0  0  0
  156.0950  214.2280  152.4050 C   0  0  0  0  0  3  0  0  0  0  0  0
  157.1230  212.6670  154.0660 C   0  0  0  0  0  0  0  0  0  0  0  0
  159.2760  212.5040  152.9980 C   0  0  0  0  0  3  0  0  0  0  0  0
  157.4180  213.8870  152.1020 C   0  0  0  0  0  3  0  0  0  0  0  0
  158.8060  211.2880  155.0630 C   0  0  0  0  0  3  0  0  0  0  0  0
  162.0110  208.5000  149.2290 C   0  0  0  0  0  2  0  0  0  0  0  0
  161.8470  209.8470  148.5510 C   0  0  0  0  0  2  0  0  0  0  0  0
  161.9660  210.9500  149.5850 C   0  0  0  0  0  2  0  0  0  0  0  0
  160.5590  213.0000  149.6620 C   0  0  0  0  0  1  0  0  0  0  0  0
  161.6970  212.3010  148.9420 C   0  0  2  0  0  3  0  0  0  0  0  0
  161.3370  212.1130  147.5460 N   0  0  0  0  0  2  0  0  0  0  0  0
  162.8520  214.3200  147.5330 O   0  0  0  0  0  1  0  0  0  0  0  0
  160.6340  214.4510  146.1550 O   0  0  0  0  0  1  0  0  0  0  0  0
  162.7950  212.9700  145.2890 O   0  0  0  0  0  0  0  0  0  0  0  0
  161.9390  213.4980  146.6500 P   0  0  0  0  0  0  0  0  0  0  0  0
  161.0430  204.0440  152.0880 C   0  0  0  0  0  2  0  0  0  0  0  0
  160.5530  203.5860  150.7290 C   0  0  0  0  0  2  0  0  0  0  0  0
  160.9340  202.1370  150.5140 C   0  0  0  0  0  2  0  0  0  0  0  0
  160.2320  201.6160  149.2780 C   0  0  0  0  0  2  0  0  0  0  0  0
  161.2610  201.1860  148.2520 C   0  0  0  0  0  2  0  0  0  0  0  0
  161.7600  205.6530  145.6150 C   0  0  0  0  0  3  0  0  0  0  0  0
  161.3340  203.1340  146.6810 C   0  0  0  0  0  0  0  0  0  0  0  0
  160.3700  201.3520  145.9220 C   0  0  0  0  0  3  0  0  0  0  0  0
  160.2780  202.3050  144.9020 C   0  0  0  0  0  3  0  0  0  0  0  0
  160.9000  203.4260  145.4180 C   0  0  0  0  0  0  0  0  0  0  0  0
  161.9950  204.0750  147.4710 C   0  0  0  0  0  3  0  0  0  0  0  0
  161.0940  204.6810  144.8460 C   0  0  0  0  0  3  0  0  0  0  0  0
  161.0190  201.8690  146.9900 N   0  0  0  0  0  0  0  0  0  0  0  0
  162.2060  205.3520  146.9200 C   0  0  0  0  0  3  0  0  0  0  0  0
  1  3  1  0  0  0  0
  2  3  2  0  0  0  0
  2  7  1  0  0  0  0
  4  6  1  0  0  0  0
  5  6  2  0  0  0  0
  5  1  1  0  0  0  0
  6  2  1  0  0  0  0
  7  8  1  0  0  0  0
  8 10  1  0  0  0  0
  9  7  2  0  0  0  0
  9 11  1  0  0  0  0
 11 15  1  0  0  0  0
 12 17  1  0  0  0  0
 13 17  1  0  0  0  0
 15 20  2  0  0  0  0
 16 13  1  0  0  0  0
 17 14  2  0  0  0  0
 18 12  2  0  0  0  0
 18 15  1  0  0  0  0
 19 16  2  0  0  0  0
 19 12  1  0  0  0  0
 20 14  1  0  0  0  0
 21  4  1  0  0  0  0
 22 21  1  0  0  0  0
 22 23  1  0  0  0  0
 25 23  1  0  0  0  0
 25 24  1  1  0  0  0
 26 25  1  0  0  0  0
 28 30  1  0  0  0  0
 29 30  2  0  0  0  0
 30 27  1  0  0  0  0
 30 26  1  0  0  0  0
 31  1  1  0  0  0  0
 32 31  1  0  0  0  0
 33 32  1  0  0  0  0
 34 33  1  0  0  0  0
 35 34  1  0  0  0  0
 36 44  1  0  0  0  0
 37 43  1  0  0  0  0
 37 41  1  0  0  0  0
 38 43  1  0  0  0  0
 39 40  1  0  0  0  0
 39 38  2  0  0  0  0
 40 37  2  0  0  0  0
 42 40  1  0  0  0  0
 42 36  2  0  0  0  0
 43 35  1  0  0  0  0
 44 41  2  0  0  0  0
M  END
>  <MODEL>
1

>  <REMARK>
 VINA RESULT:      -8.5      0.000      0.000
  Name = 
  15 active torsions:
  status: ('A' for Active; 'I' for Inactive)
    1  A    between atoms: C_3  and  C_16
    2  A    between atoms: C_8  and  C_12
    3  A    between atoms: C_8  and  C_24
    4  A    between atoms: N_9  and  C_24
    5  A    between atoms: C_10  and  C_21
    6  A    between atoms: C_10  and  N_23
    7  A    between atoms: C_11  and  C_25
    8  A    between atoms: C_11  and  N_38
    9  A    between atoms: C_12  and  C_22
   10  A    between atoms: N_13  and  P_39
   11  A    between atoms: N_13  and  C_42
   12  A    between atoms: C_21  and  C_33
   13  A    between atoms: C_22  and  C_36
   14  A    between atoms: C_33  and  C_42
   15  A    between atoms: C_36  and  N_40
                            x       y       z     vdW  Elec       q    Type
                         _______ _______ _______ _____ _____    ______ ____

>  <TORSDO>
F 15

$$$$
=
 OpenBabel11042421483D

 44 48  0  0  1  0  0  0  0  0999 V2000
  162.2710  207.4290  148.7090 N   0  0  0  0  0  0  0  0  0  0  0  0
  161.8820  208.4770  150.5280 C   0  0  0  0  0  0  0  0  0  0  0  0
  162.0360  207.2460  150.0020 N   0  0  0  0  0  0  0  0  0  0  0  0
  161.9870  210.8080  149.6010 N   0  0  0  0  0  2  0  0  0  0  0  0
  162.2940  208.7080  148.3650 N   0  0  0  0  0  0  0  0  0  0  0  0
  162.0470  209.3830  149.5010 C   0  0  0  0  0  0  0  0  0  0  0  0
  161.6080  208.7470  151.9490 C   0  0  0  0  0  0  0  0  0  0  0  0
  161.0530  207.6990  152.7610 N   0  0  0  0  0  2  0  0  0  0  0  0
  161.8770  209.9320  152.4180 N   0  0  0  0  0  0  0  0  0  0  0  0
  160.7730  207.8320  154.0790 O   0  0  0  0  0  1  0  0  0  0  0  0
  161.6650  210.3720  153.7890 C   0  0  0  0  0  2  0  0  0  0  0  0
  158.9160  212.8100  152.9220 C   0  0  0  0  0  0  0  0  0  0  0  0
  156.8220  213.7510  153.8900 S   0  0  0  0  0  0  0  0  0  0  0  0
  158.4500  211.8910  155.1250 C   0  0  0  0  0  3  0  0  0  0  0  0
  160.4230  211.1860  153.8700 C   0  0  0  0  0  0  0  0  0  0  0  0
  157.2430  214.3250  152.3530 C   0  0  0  0  0  3  0  0  0  0  0  0
  158.1300  212.7240  154.0570 C   0  0  0  0  0  0  0  0  0  0  0  0
  160.0770  212.0440  152.8110 C   0  0  0  0  0  3  0  0  0  0  0  0
  158.4330  213.7010  151.9620 C   0  0  0  0  0  3  0  0  0  0  0  0
  159.6150  211.1150  155.0230 C   0  0  0  0  0  3  0  0  0  0  0  0
  162.2200  211.6740  148.4560 C   0  0  0  0  0  2  0  0  0  0  0  0
  161.5590  213.0200  148.6810 C   0  0  0  0  0  2  0  0  0  0  0  0
  162.0410  214.0020  147.6300 C   0  0  0  0  0  2  0  0  0  0  0  0
  162.6040  213.7830  145.2180 C   0  0  0  0  0  1  0  0  0  0  0  0
  161.5170  213.6020  146.2610 C   0  0  2  0  0  3  0  0  0  0  0  0
  160.3760  214.4340  145.9140 N   0  0  0  0  0  2  0  0  0  0  0  0
  157.8580  213.7200  145.3500 O   0  0  0  0  0  1  0  0  0  0  0  0
  159.6530  211.8290  145.1510 O   0  0  0  0  0  1  0  0  0  0  0  0
  159.4820  213.8670  143.3000 O   0  0  0  0  0  0  0  0  0  0  0  0
  159.2900  213.4650  144.9320 P   0  0  0  0  0  0  0  0  0  0  0  0
  162.5530  206.3450  147.7850 C   0  0  0  0  0  2  0  0  0  0  0  0
  161.5950  206.4130  146.6140 C   0  0  0  0  0  2  0  0  0  0  0  0
  162.1630  205.6340  145.4460 C   0  0  0  0  0  2  0  0  0  0  0  0
  162.3980  204.2010  145.8700 C   0  0  0  0  0  2  0  0  0  0  0  0
  161.0860  203.4420  145.8430 C   0  0  0  0  0  2  0  0  0  0  0  0
  160.9510  202.4230  150.9520 C   0  0  0  0  0  3  0  0  0  0  0  0
  161.0310  202.5680  148.1890 C   0  0  0  0  0  0  0  0  0  0  0  0
  161.2290  201.0740  146.6360 C   0  0  0  0  0  3  0  0  0  0  0  0
  161.2420  200.3760  147.8480 C   0  0  0  0  0  3  0  0  0  0  0  0
  161.1150  201.3550  148.8140 C   0  0  0  0  0  0  0  0  0  0  0  0
  160.9050  203.7600  148.9030 C   0  0  0  0  0  3  0  0  0  0  0  0
  161.0790  201.2390  150.2010 C   0  0  0  0  0  3  0  0  0  0  0  0
  161.0930  202.4010  146.8610 N   0  0  0  0  0  0  0  0  0  0  0  0
  160.8660  203.6750  150.3060 C   0  0  0  0  0  3  0  0  0  0  0  0
  1  3  1  0  0  0  0
  2  7  1  0  0  0  0
  3  2  2  0  0  0  0
  5  1  1  0  0  0  0
  5  6  2  0  0  0  0
  6  4  1  0  0  0  0
  6  2  1  0  0  0  0
  7  9  2  0  0  0  0
  7  8  1  0  0  0  0
  8 10  1  0  0  0  0
  9 11  1  0  0  0  0
 11 15  1  0  0  0  0
 12 17  1  0  0  0  0
 13 17  1  0  0  0  0
 15 20  2  0  0  0  0
 16 13  1  0  0  0  0
 17 14  2  0  0  0  0
 18 12  2  0  0  0  0
 18 15  1  0  0  0  0
 19 16  2  0  0  0  0
 19 12  1  0  0  0  0
 20 14  1  0  0  0  0
 21 22  1  0  0  0  0
 21  4  1  0  0  0  0
 23 22  1  0  0  0  0
 25 24  1  6  0  0  0
 25 23  1  0  0  0  0
 26 25  1  0  0  0  0
 29 30  2  0  0  0  0
 30 28  1  0  0  0  0
 30 27  1  0  0  0  0
 30 26  1  0  0  0  0
 31  1  1  0  0  0  0
 32 31  1  0  0  0  0
 33 34  1  0  0  0  0
 33 32  1  0  0  0  0
 35 34  1  0  0  0  0
 35 43  1  0  0  0  0
 37 40  2  0  0  0  0
 37 41  1  0  0  0  0
 38 43  1  0  0  0  0
 38 39  2  0  0  0  0
 39 40  1  0  0  0  0
 40 42  1  0  0  0  0
 41 44  2  0  0  0  0
 42 36  2  0  0  0  0
 43 37  1  0  0  0  0
 44 36  1  0  0  0  0
M  END
>  <MODEL>
2

>  <REMARK>
 VINA RESULT:      -8.2      1.760      3.341
  Name = 
  15 active torsions:
  status: ('A' for Active; 'I' for Inactive)
    1  A    between atoms: C_3  and  C_16
    2  A    between atoms: C_8  and  C_12
    3  A    between atoms: C_8  and  C_24
    4  A    between atoms: N_9  and  C_24
    5  A    between atoms: C_10  and  C_21
    6  A    between atoms: C_10  and  N_23
    7  A    between atoms: C_11  and  C_25
    8  A    between atoms: C_11  and  N_38
    9  A    between atoms: C_12  and  C_22
   10  A    between atoms: N_13  and  P_39
   11  A    between atoms: N_13  and  C_42
   12  A    between atoms: C_21  and  C_33
   13  A    between atoms: C_22  and  C_36
   14  A    between atoms: C_33  and  C_42
   15  A    between atoms: C_36  and  N_40
                            x       y       z     vdW  Elec       q    Type
                         _______ _______ _______ _____ _____    ______ ____

>  <TORSDO>
F 15

$$$$
=
 OpenBabel11042421483D

 44 48  0  0  1  0  0  0  0  0999 V2000
  161.9200  209.7450  149.9310 N   0  0  0  0  0  0  0  0  0  0  0  0
  161.6040  208.1190  151.2770 C   0  0  0  0  0  0  0  0  0  0  0  0
  161.8070  208.4240  149.9810 N   0  0  0  0  0  0  0  0  0  0  0  0
  161.4530  209.4600  153.3940 N   0  0  0  0  0  2  0  0  0  0  0  0
  161.8160  210.3170  151.1210 N   0  0  0  0  0  0  0  0  0  0  0  0
  161.6140  209.3050  151.9820 C   0  0  0  0  0  0  0  0  0  0  0  0
  161.4290  206.7510  151.7930 C   0  0  0  0  0  0  0  0  0  0  0  0
  161.3190  206.5520  153.2120 N   0  0  0  0  0  2  0  0  0  0  0  0
  161.3830  205.7680  150.9400 N   0  0  0  0  0  0  0  0  0  0  0  0
  161.1450  205.3430  153.7950 O   0  0  0  0  0  1  0  0  0  0  0  0
  161.2210  204.3600  151.2730 C   0  0  0  0  0  2  0  0  0  0  0  0
  161.1750  203.3990  147.6230 C   0  0  0  0  0  0  0  0  0  0  0  0
  160.7510  201.4160  146.1740 S   0  0  0  0  0  0  0  0  0  0  0  0
  160.6150  201.4290  148.9340 C   0  0  0  0  0  3  0  0  0  0  0  0
  161.1020  203.5590  150.0260 C   0  0  0  0  0  0  0  0  0  0  0  0
  161.1500  202.8480  145.3610 C   0  0  0  0  0  3  0  0  0  0  0  0
  160.8360  202.0610  147.7130 C   0  0  0  0  0  0  0  0  0  0  0  0
  161.3110  204.1700  148.7770 C   0  0  0  0  0  3  0  0  0  0  0  0
  161.3540  203.8520  146.3140 C   0  0  0  0  0  3  0  0  0  0  0  0
  160.7500  202.1960  150.1020 C   0  0  0  0  0  3  0  0  0  0  0  0
  161.5230  210.7610  154.0420 C   0  0  0  0  0  2  0  0  0  0  0  0
  160.3860  210.9090  155.0330 C   0  0  0  0  0  2  0  0  0  0  0  0
  159.2810  211.7420  154.4140 C   0  0  0  0  0  2  0  0  0  0  0  0
  159.7570  213.3970  156.2080 C   0  0  0  0  0  1  0  0  0  0  0  0
  158.6640  212.6560  155.4600 C   0  0  2  0  0  3  0  0  0  0  0  0
  157.8900  211.8650  156.4030 N   0  0  0  0  0  2  0  0  0  0  0  0
  155.3400  211.4790  157.1210 O   0  0  0  0  0  1  0  0  0  0  0  0
  155.8150  211.4730  154.5510 O   0  0  0  0  0  0  0  0  0  0  0  0
  155.8730  213.8000  156.0310 O   0  0  0  0  0  1  0  0  0  0  0  0
  156.1910  212.1390  156.0580 P   0  0  0  0  0  0  0  0  0  0  0  0
  162.2070  210.4790  148.7110 C   0  0  0  0  0  2  0  0  0  0  0  0
  161.9050  211.9490  148.9190 C   0  0  0  0  0  2  0  0  0  0  0  0
  162.6040  212.7670  147.8540 C   0  0  0  0  0  2  0  0  0  0  0  0
  161.7640  212.7660  146.5950 C   0  0  0  0  0  2  0  0  0  0  0  0
  160.8370  213.9660  146.6010 C   0  0  0  0  0  2  0  0  0  0  0  0
  157.1140  213.8160  150.2450 C   0  0  0  0  0  3  0  0  0  0  0  0
  158.8260  213.7160  148.0720 C   0  0  0  0  0  0  0  0  0  0  0  0
  158.6620  212.8400  146.1000 C   0  0  0  0  0  3  0  0  0  0  0  0
  157.4520  212.5670  146.7470 C   0  0  0  0  0  3  0  0  0  0  0  0
  157.5900  213.1370  147.9980 C   0  0  0  0  0  0  0  0  0  0  0  0
  159.2690  214.3670  149.2240 C   0  0  0  0  0  3  0  0  0  0  0  0
  156.7000  213.1640  149.0680 C   0  0  0  0  0  3  0  0  0  0  0  0
  159.4800  213.5440  146.9150 N   0  0  0  0  0  0  0  0  0  0  0  0
  158.3910  214.4120  150.3220 C   0  0  0  0  0  3  0  0  0  0  0  0
  1  3  1  0  0  0  0
  1  5  1  0  0  0  0
  2  7  1  0  0  0  0
  2  6  1  0  0  0  0
  3  2  2  0  0  0  0
  4 21  1  0  0  0  0
  5  6  2  0  0  0  0
  6  4  1  0  0  0  0
  7  8  1  0  0  0  0
  8 10  1  0  0  0  0
  9 11  1  0  0  0  0
  9  7  2  0  0  0  0
 12 17  2  0  0  0  0
 12 18  1  0  0  0  0
 13 17  1  0  0  0  0
 14 20  2  0  0  0  0
 15 20  1  0  0  0  0
 15 11  1  0  0  0  0
 16 13  1  0  0  0  0
 16 19  2  0  0  0  0
 17 14  1  0  0  0  0
 18 15  2  0  0  0  0
 19 12  1  0  0  0  0
 21 22  1  0  0  0  0
 23 22  1  0  0  0  0
 23 25  1  0  0  0  0
 25 24  1  1  0  0  0
 25 26  1  0  0  0  0
 28 30  2  0  0  0  0
 29 30  1  0  0  0  0
 30 26  1  0  0  0  0
 30 27  1  0  0  0  0
 31 32  1  0  0  0  0
 31  1  1  0  0  0  0
 33 32  1  0  0  0  0
 34 35  1  0  0  0  0
 34 33  1  0  0  0  0
 35 43  1  0  0  0  0
 36 44  1  0  0  0  0
 37 41  1  0  0  0  0
 38 39  2  0  0  0  0
 38 43  1  0  0  0  0
 39 40  1  0  0  0  0
 40 37  2  0  0  0  0
 40 42  1  0  0  0  0
 41 44  2  0  0  0  0
 42 36  2  0  0  0  0
 43 37  1  0  0  0  0
M  END
>  <MODEL>
3

>  <REMARK>
 VINA RESULT:      -7.9      4.320      9.487
  Name = 
  15 active torsions:
  status: ('A' for Active; 'I' for Inactive)
    1  A    between atoms: C_3  and  C_16
    2  A    between atoms: C_8  and  C_12
    3  A    between atoms: C_8  and  C_24
    4  A    between atoms: N_9  and  C_24
    5  A    between atoms: C_10  and  C_21
    6  A    between atoms: C_10  and  N_23
    7  A    between atoms: C_11  and  C_25
    8  A    between atoms: C_11  and  N_38
    9  A    between atoms: C_12  and  C_22
   10  A    between atoms: N_13  and  P_39
   11  A    between atoms: N_13  and  C_42
   12  A    between atoms: C_21  and  C_33
   13  A    between atoms: C_22  and  C_36
   14  A    between atoms: C_33  and  C_42
   15  A    between atoms: C_36  and  N_40
                            x       y       z     vdW  Elec       q    Type
                         _______ _______ _______ _____ _____    ______ ____

>  <TORSDO>
F 15

$$$$
=
 OpenBabel11042421483D

 44 48  0  0  1  0  0  0  0  0999 V2000
  161.9570  209.7710  149.8720 N   0  0  0  0  0  0  0  0  0  0  0  0
  161.6350  208.1790  151.2580 C   0  0  0  0  0  0  0  0  0  0  0  0
  161.8590  208.4510  149.9580 N   0  0  0  0  0  0  0  0  0  0  0  0
  161.4260  209.5770  153.3320 N   0  0  0  0  0  2  0  0  0  0  0  0
  161.8230  210.3740  151.0430 N   0  0  0  0  0  0  0  0  0  0  0  0
  161.6160  209.3840  151.9290 C   0  0  0  0  0  0  0  0  0  0  0  0
  161.4660  206.8250  151.8090 C   0  0  0  0  0  0  0  0  0  0  0  0
  161.4940  206.6450  153.2340 N   0  0  0  0  0  2  0  0  0  0  0  0
  161.3000  205.8340  150.9790 N   0  0  0  0  0  0  0  0  0  0  0  0
  161.3380  205.4500  153.8490 O   0  0  0  0  0  1  0  0  0  0  0  0
  161.1260  204.4370  151.3470 C   0  0  0  0  0  2  0  0  0  0  0  0
  161.1610  203.3760  147.7240 C   0  0  0  0  0  0  0  0  0  0  0  0
  160.7840  201.3500  146.3220 S   0  0  0  0  0  0  0  0  0  0  0  0
  160.5920  201.4370  149.0780 C   0  0  0  0  0  3  0  0  0  0  0  0
  161.0390  203.6000  150.1200 C   0  0  0  0  0  0  0  0  0  0  0  0
  161.1870  202.7630  145.4780 C   0  0  0  0  0  3  0  0  0  0  0  0
  160.8320  202.0370  147.8450 C   0  0  0  0  0  0  0  0  0  0  0  0
  161.2670  204.1790  148.8590 C   0  0  0  0  0  3  0  0  0  0  0  0
  161.3620  203.7940  146.4070 C   0  0  0  0  0  3  0  0  0  0  0  0
  160.6980  202.2370  150.2260 C   0  0  0  0  0  3  0  0  0  0  0  0
  161.4670  210.8970  153.9440 C   0  0  0  0  0  2  0  0  0  0  0  0
  161.5450  210.7660  155.4530 C   0  0  0  0  0  2  0  0  0  0  0  0
  160.6420  211.8010  156.0970 C   0  0  0  0  0  2  0  0  0  0  0  0
  159.7030  209.7530  157.1510 C   0  0  0  0  0  1  0  0  0  0  0  0
  159.3790  211.1390  156.6230 C   0  0  2  0  0  3  0  0  0  0  0  0
  158.4050  211.0270  155.5500 N   0  0  0  0  0  2  0  0  0  0  0  0
  156.1740  212.2400  154.7020 O   0  0  0  0  0  0  0  0  0  0  0  0
  157.7690  213.6900  156.1800 O   0  0  0  0  0  1  0  0  0  0  0  0
  156.2470  211.6550  157.2540 O   0  0  0  0  0  1  0  0  0  0  0  0
  157.1090  212.1610  155.8890 P   0  0  0  0  0  0  0  0  0  0  0  0
  162.2580  210.4740  148.6380 C   0  0  0  0  0  2  0  0  0  0  0  0
  161.8910  211.9370  148.7830 C   0  0  0  0  0  2  0  0  0  0  0  0
  162.8630  212.7860  147.9920 C   0  0  0  0  0  2  0  0  0  0  0  0
  162.1630  214.0460  147.5310 C   0  0  0  0  0  2  0  0  0  0  0  0
  162.3380  214.2050  146.0340 C   0  0  0  0  0  2  0  0  0  0  0  0
  161.1860  211.5790  141.6820 C   0  0  0  0  0  3  0  0  0  0  0  0
  161.4330  212.8700  144.1180 C   0  0  0  0  0  0  0  0  0  0  0  0
  160.0650  213.1990  145.7620 C   0  0  0  0  0  3  0  0  0  0  0  0
  159.3540  212.4620  144.8090 C   0  0  0  0  0  3  0  0  0  0  0  0
  160.2530  212.2700  143.7780 C   0  0  0  0  0  0  0  0  0  0  0  0
  162.5400  212.8580  143.2690 C   0  0  0  0  0  3  0  0  0  0  0  0
  160.0870  211.6110  142.5620 C   0  0  0  0  0  3  0  0  0  0  0  0
  161.3260  213.4320  145.3300 N   0  0  0  0  0  0  0  0  0  0  0  0
  162.4030  212.2000  142.0340 C   0  0  0  0  0  3  0  0  0  0  0  0
  1  3  1  0  0  0  0
  1  5  1  0  0  0  0
  2  7  1  0  0  0  0
  2  6  1  0  0  0  0
  3  2  2  0  0  0  0
  4 21  1  0  0  0  0
  5  6  2  0  0  0  0
  6  4  1  0  0  0  0
  7  8  1  0  0  0  0
  8 10  1  0  0  0  0
  9 11  1  0  0  0  0
  9  7  2  0  0  0  0
 12 17  2  0  0  0  0
 12 18  1  0  0  0  0
 13 17  1  0  0  0  0
 14 20  2  0  0  0  0
 15 20  1  0  0  0  0
 15 11  1  0  0  0  0
 16 13  1  0  0  0  0
 16 19  2  0  0  0  0
 17 14  1  0  0  0  0
 18 15  2  0  0  0  0
 19 12  1  0  0  0  0
 21 22  1  0  0  0  0
 22 23  1  0  0  0  0
 23 25  1  0  0  0  0
 25 24  1  6  0  0  0
 26 30  1  0  0  0  0
 26 25  1  0  0  0  0
 27 30  2  0  0  0  0
 30 28  1  0  0  0  0
 30 29  1  0  0  0  0
 31 32  1  0  0  0  0
 31  1  1  0  0  0  0
 33 32  1  0  0  0  0
 34 33  1  0  0  0  0
 35 34  1  0  0  0  0
 36 44  2  0  0  0  0
 36 42  1  0  0  0  0
 37 43  1  0  0  0  0
 39 38  2  0  0  0  0
 40 37  1  0  0  0  0
 40 39  1  0  0  0  0
 41 37  2  0  0  0  0
 42 40  2  0  0  0  0
 43 38  1  0  0  0  0
 43 35  1  0  0  0  0
 44 41  1  0  0  0  0
M  END
>  <MODEL>
4

>  <REMARK>
 VINA RESULT:      -7.9      4.502      9.240
  Name = 
  15 active torsions:
  status: ('A' for Active; 'I' for Inactive)
    1  A    between atoms: C_3  and  C_16
    2  A    between atoms: C_8  and  C_12
    3  A    between atoms: C_8  and  C_24
    4  A    between atoms: N_9  and  C_24
    5  A    between atoms: C_10  and  C_21
    6  A    between atoms: C_10  and  N_23
    7  A    between atoms: C_11  and  C_25
    8  A    between atoms: C_11  and  N_38
    9  A    between atoms: C_12  and  C_22
   10  A    between atoms: N_13  and  P_39
   11  A    between atoms: N_13  and  C_42
   12  A    between atoms: C_21  and  C_33
   13  A    between atoms: C_22  and  C_36
   14  A    between atoms: C_33  and  C_42
   15  A    between atoms: C_36  and  N_40
                            x       y       z     vdW  Elec       q    Type
                         _______ _______ _______ _____ _____    ______ ____

>  <TORSDO>
F 15

$$$$
=
 OpenBabel11042421483D

 44 48  0  0  1  0  0  0  0  0999 V2000
  162.1310  210.9010  149.1580 N   0  0  0  0  0  0  0  0  0  0  0  0
  161.7850  209.4870  150.7190 C   0  0  0  0  0  0  0  0  0  0  0  0
  161.8610  210.8050  150.4530 N   0  0  0  0  0  0  0  0  0  0  0  0
  162.0060  207.4010  149.3390 N   0  0  0  0  0  2  0  0  0  0  0  0
  162.2220  209.7210  148.5620 N   0  0  0  0  0  0  0  0  0  0  0  0
  162.0090  208.8180  149.5340 C   0  0  0  0  0  0  0  0  0  0  0  0
  161.4950  208.9200  152.0460 C   0  0  0  0  0  0  0  0  0  0  0  0
  161.1530  207.5280  152.1490 N   0  0  0  0  0  2  0  0  0  0  0  0
  161.5570  209.7070  153.0830 N   0  0  0  0  0  0  0  0  0  0  0  0
  160.8800  206.9010  153.3170 O   0  0  0  0  0  1  0  0  0  0  0  0
  161.2960  209.3190  154.4620 C   0  0  0  0  0  2  0  0  0  0  0  0
  158.3850  211.7080  154.7270 C   0  0  0  0  0  0  0  0  0  0  0  0
  156.9660  212.8060  156.4550 S   0  0  0  0  0  0  0  0  0  0  0  0
  159.0430  211.0600  156.9760 C   0  0  0  0  0  3  0  0  0  0  0  0
  160.2130  210.1680  155.0270 C   0  0  0  0  0  0  0  0  0  0  0  0
  156.5930  213.1890  154.8480 C   0  0  0  0  0  3  0  0  0  0  0  0
  158.2300  211.7730  156.1000 C   0  0  0  0  0  0  0  0  0  0  0  0
  159.3810  210.9070  154.1680 C   0  0  0  0  0  3  0  0  0  0  0  0
  157.4780  212.4950  154.0150 C   0  0  0  0  0  3  0  0  0  0  0  0
  160.0480  210.2500  156.4250 C   0  0  0  0  0  3  0  0  0  0  0  0
  162.2130  206.8000  148.0300 C   0  0  0  0  0  2  0  0  0  0  0  0
  161.3120  205.5920  147.8660 C   0  0  0  0  0  2  0  0  0  0  0  0
  160.5540  205.3480  149.1570 C   0  0  0  0  0  2  0  0  0  0  0  0
  161.3670  203.8760  150.9890 C   0  0  0  0  0  1  0  0  0  0  0  0
  160.7380  203.9090  149.6080 C   0  0  2  0  0  3  0  0  0  0  0  0
  161.6030  203.2110  148.6710 N   0  0  0  0  0  2  0  0  0  0  0  0
  161.7450  200.5370  148.6710 O   0  0  0  0  0  1  0  0  0  0  0  0
  160.5460  201.6160  146.6140 O   0  0  0  0  0  0  0  0  0  0  0  0
  159.3680  201.5470  149.1080 O   0  0  0  0  0  1  0  0  0  0  0  0
  160.8360  201.6810  148.2780 P   0  0  0  0  0  0  0  0  0  0  0  0
  162.2370  212.1660  148.4520 C   0  0  0  0  0  2  0  0  0  0  0  0
  161.2240  213.1450  149.0100 C   0  0  0  0  0  2  0  0  0  0  0  0
  159.9910  213.1570  148.1320 C   0  0  0  0  0  2  0  0  0  0  0  0
  160.2730  213.9740  146.8900 C   0  0  0  0  0  2  0  0  0  0  0  0
  159.9240  213.1620  145.6580 C   0  0  0  0  0  2  0  0  0  0  0  0
  161.6650  211.5930  141.0030 C   0  0  0  0  0  3  0  0  0  0  0  0
  161.1060  212.5760  143.5300 C   0  0  0  0  0  0  0  0  0  0  0  0
  162.3170  213.5440  145.0400 C   0  0  0  0  0  3  0  0  0  0  0  0
  163.1720  213.2910  143.9620 C   0  0  0  0  0  3  0  0  0  0  0  0
  162.3710  212.6750  143.0200 C   0  0  0  0  0  0  0  0  0  0  0  0
  160.0650  211.9860  142.8130 C   0  0  0  0  0  3  0  0  0  0  0  0
  162.6930  212.1930  141.7540 C   0  0  0  0  0  3  0  0  0  0  0  0
  161.0670  213.1100  144.7580 N   0  0  0  0  0  0  0  0  0  0  0  0
  160.3600  211.4890  141.5310 C   0  0  0  0  0  3  0  0  0  0  0  0
  1  3  1  0  0  0  0
  2  7  1  0  0  0  0
  3  2  2  0  0  0  0
  4  6  1  0  0  0  0
  5  1  1  0  0  0  0
  5  6  2  0  0  0  0
  6  2  1  0  0  0  0
  7  8  1  0  0  0  0
  7  9  2  0  0  0  0
  8 10  1  0  0  0  0
  9 11  1  0  0  0  0
 11 15  1  0  0  0  0
 12 17  1  0  0  0  0
 15 20  2  0  0  0  0
 16 13  1  0  0  0  0
 17 13  1  0  0  0  0
 17 14  2  0  0  0  0
 18 12  2  0  0  0  0
 18 15  1  0  0  0  0
 19 12  1  0  0  0  0
 19 16  2  0  0  0  0
 20 14  1  0  0  0  0
 21  4  1  0  0  0  0
 22 21  1  0  0  0  0
 22 23  1  0  0  0  0
 23 25  1  0  0  0  0
 25 24  1  1  0  0  0
 26 25  1  0  0  0  0
 28 30  2  0  0  0  0
 30 27  1  0  0  0  0
 30 26  1  0  0  0  0
 30 29  1  0  0  0  0
 31 32  1  0  0  0  0
 31  1  1  0  0  0  0
 33 32  1  0  0  0  0
 34 33  1  0  0  0  0
 35 34  1  0  0  0  0
 36 44  2  0  0  0  0
 36 42  1  0  0  0  0
 37 43  1  0  0  0  0
 39 38  2  0  0  0  0
 40 37  1  0  0  0  0
 40 39  1  0  0  0  0
 41 37  2  0  0  0  0
 42 40  2  0  0  0  0
 43 38  1  0  0  0  0
 43 35  1  0  0  0  0
 44 41  1  0  0  0  0
M  END
>  <MODEL>
5

>  <REMARK>
 VINA RESULT:      -7.7      4.672      7.752
  Name = 
  15 active torsions:
  status: ('A' for Active; 'I' for Inactive)
    1  A    between atoms: C_3  and  C_16
    2  A    between atoms: C_8  and  C_12
    3  A    between atoms: C_8  and  C_24
    4  A    between atoms: N_9  and  C_24
    5  A    between atoms: C_10  and  C_21
    6  A    between atoms: C_10  and  N_23
    7  A    between atoms: C_11  and  C_25
    8  A    between atoms: C_11  and  N_38
    9  A    between atoms: C_12  and  C_22
   10  A    between atoms: N_13  and  P_39
   11  A    between atoms: N_13  and  C_42
   12  A    between atoms: C_21  and  C_33
   13  A    between atoms: C_22  and  C_36
   14  A    between atoms: C_33  and  C_42
   15  A    between atoms: C_36  and  N_40
                            x       y       z     vdW  Elec       q    Type
                         _______ _______ _______ _____ _____    ______ ____

>  <TORSDO>
F 15

$$$$
=
 OpenBabel11042421483D

 44 48  0  0  1  0  0  0  0  0999 V2000
  161.9480  210.0850  149.8660 N   0  0  0  0  0  0  0  0  0  0  0  0
  161.5920  208.4610  151.2040 C   0  0  0  0  0  0  0  0  0  0  0  0
  161.9830  208.7620  149.9510 N   0  0  0  0  0  0  0  0  0  0  0  0
  160.9150  209.8170  153.2050 N   0  0  0  0  0  2  0  0  0  0  0  0
  161.5710  210.6640  150.9950 N   0  0  0  0  0  0  0  0  0  0  0  0
  161.3390  209.6530  151.8500 C   0  0  0  0  0  0  0  0  0  0  0  0
  161.4890  207.0930  151.7380 C   0  0  0  0  0  0  0  0  0  0  0  0
  161.5250  206.8980  153.1620 N   0  0  0  0  0  2  0  0  0  0  0  0
  161.3710  206.1060  150.8970 N   0  0  0  0  0  0  0  0  0  0  0  0
  161.4270  205.6890  153.7620 O   0  0  0  0  0  1  0  0  0  0  0  0
  161.2640  204.6970  151.2470 C   0  0  0  0  0  2  0  0  0  0  0  0
  161.2530  203.6860  147.6100 C   0  0  0  0  0  0  0  0  0  0  0  0
  160.8870  201.6740  146.1870 S   0  0  0  0  0  0  0  0  0  0  0  0
  160.7440  201.7200  148.9460 C   0  0  0  0  0  3  0  0  0  0  0  0
  161.1700  203.8760  150.0100 C   0  0  0  0  0  0  0  0  0  0  0  0
  161.2490  203.1050  145.3560 C   0  0  0  0  0  3  0  0  0  0  0  0
  160.9510  202.3410  147.7180 C   0  0  0  0  0  0  0  0  0  0  0  0
  161.3650  204.4760  148.7540 C   0  0  0  0  0  3  0  0  0  0  0  0
  161.4220  204.1270  146.2960 C   0  0  0  0  0  3  0  0  0  0  0  0
  160.8560  202.5050  150.1040 C   0  0  0  0  0  3  0  0  0  0  0  0
  160.7180  211.1300  153.8000 C   0  0  0  0  0  2  0  0  0  0  0  0
  160.2110  210.9830  155.2220 C   0  0  0  0  0  2  0  0  0  0  0  0
  160.3040  212.3200  155.9320 C   0  0  0  0  0  2  0  0  0  0  0  0
  159.0550  214.3710  156.5790 C   0  0  0  0  0  1  0  0  0  0  0  0
  159.0120  213.1000  155.7520 C   0  0  2  0  0  3  0  0  0  0  0  0
  157.8870  212.2850  156.1830 N   0  0  0  0  0  2  0  0  0  0  0  0
  157.2130  212.9040  153.6680 O   0  0  0  0  0  0  0  0  0  0  0  0
  155.5010  213.6070  155.5140 O   0  0  0  0  0  1  0  0  0  0  0  0
  155.8310  210.9720  154.7690 O   0  0  0  0  0  1  0  0  0  0  0  0
  156.6170  212.4540  154.9830 P   0  0  0  0  0  0  0  0  0  0  0  0
  162.3580  210.8230  148.6840 C   0  0  0  0  0  2  0  0  0  0  0  0
  161.6050  212.1370  148.6180 C   0  0  0  0  0  2  0  0  0  0  0  0
  160.8240  212.2110  147.3240 C   0  0  0  0  0  2  0  0  0  0  0  0
  161.3230  213.3820  146.5070 C   0  0  0  0  0  2  0  0  0  0  0  0
  162.6470  213.0240  145.8600 C   0  0  0  0  0  2  0  0  0  0  0  0
  160.3870  212.4710  141.1970 C   0  0  0  0  0  3  0  0  0  0  0  0
  161.8210  213.0350  143.4960 C   0  0  0  0  0  0  0  0  0  0  0  0
  163.5400  214.2880  143.8960 C   0  0  0  0  0  3  0  0  0  0  0  0
  163.2680  214.4280  142.5310 C   0  0  0  0  0  3  0  0  0  0  0  0
  162.1710  213.6180  142.3100 C   0  0  0  0  0  0  0  0  0  0  0  0
  160.7490  212.1470  143.5950 C   0  0  0  0  0  3  0  0  0  0  0  0
  161.4760  213.3610  141.1310 C   0  0  0  0  0  3  0  0  0  0  0  0
  162.6490  213.4450  144.4670 N   0  0  0  0  0  0  0  0  0  0  0  0
  160.0270  211.8680  142.4210 C   0  0  0  0  0  3  0  0  0  0  0  0
  1  3  1  0  0  0  0
  1  5  1  0  0  0  0
  2  7  1  0  0  0  0
  2  6  1  0  0  0  0
  3  2  2  0  0  0  0
  4 21  1  0  0  0  0
  5  6  2  0  0  0  0
  6  4  1  0  0  0  0
  7  8  1  0  0  0  0
  8 10  1  0  0  0  0
  9 11  1  0  0  0  0
  9  7  2  0  0  0  0
 12 17  2  0  0  0  0
 12 18  1  0  0  0  0
 13 17  1  0  0  0  0
 14 20  2  0  0  0  0
 15 20  1  0  0  0  0
 15 11  1  0  0  0  0
 16 13  1  0  0  0  0
 16 19  2  0  0  0  0
 17 14  1  0  0  0  0
 18 15  2  0  0  0  0
 19 12  1  0  0  0  0
 21 22  1  0  0  0  0
 22 23  1  0  0  0  0
 25 23  1  0  0  0  0
 25 26  1  0  0  0  0
 25 24  1  1  0  0  0
 27 30  2  0  0  0  0
 29 30  1  0  0  0  0
 30 28  1  0  0  0  0
 30 26  1  0  0  0  0
 31  1  1  0  0  0  0
 32 31  1  0  0  0  0
 33 32  1  0  0  0  0
 34 33  1  0  0  0  0
 35 34  1  0  0  0  0
 36 44  1  0  0  0  0
 37 41  1  0  0  0  0
 37 43  1  0  0  0  0
 38 43  1  0  0  0  0
 39 38  2  0  0  0  0
 40 39  1  0  0  0  0
 40 37  2  0  0  0  0
 42 36  2  0  0  0  0
 42 40  1  0  0  0  0
 43 35  1  0  0  0  0
 44 41  2  0  0  0  0
M  END
>  <MODEL>
6

>  <REMARK>
 VINA RESULT:      -7.2      4.587      9.250
  Name = 
  15 active torsions:
  status: ('A' for Active; 'I' for Inactive)
    1  A    between atoms: C_3  and  C_16
    2  A    between atoms: C_8  and  C_12
    3  A    between atoms: C_8  and  C_24
    4  A    between atoms: N_9  and  C_24
    5  A    between atoms: C_10  and  C_21
    6  A    between atoms: C_10  and  N_23
    7  A    between atoms: C_11  and  C_25
    8  A    between atoms: C_11  and  N_38
    9  A    between atoms: C_12  and  C_22
   10  A    between atoms: N_13  and  P_39
   11  A    between atoms: N_13  and  C_42
   12  A    between atoms: C_21  and  C_33
   13  A    between atoms: C_22  and  C_36
   14  A    between atoms: C_33  and  C_42
   15  A    between atoms: C_36  and  N_40
                            x       y       z     vdW  Elec       q    Type
                         _______ _______ _______ _____ _____    ______ ____

>  <TORSDO>
F 15

$$$$
=
 OpenBabel11042421483D

 44 48  0  0  1  0  0  0  0  0999 V2000
  161.4050  209.3050  151.9970 N   0  0  0  0  0  0  0  0  0  0  0  0
  161.5800  210.7040  150.3940 C   0  0  0  0  0  0  0  0  0  0  0  0
  161.2980  210.5940  151.7070 N   0  0  0  0  0  0  0  0  0  0  0  0
  162.2350  209.0770  148.5980 N   0  0  0  0  0  2  0  0  0  0  0  0
  161.7540  208.5690  150.9520 N   0  0  0  0  0  0  0  0  0  0  0  0
  161.8650  209.4360  149.9310 C   0  0  0  0  0  0  0  0  0  0  0  0
  161.5840  211.9720  149.6470 C   0  0  0  0  0  0  0  0  0  0  0  0
  160.6900  213.0210  150.0510 N   0  0  0  0  0  2  0  0  0  0  0  0
  162.4020  212.0950  148.6400 N   0  0  0  0  0  0  0  0  0  0  0  0
  160.6180  214.2290  149.4450 O   0  0  0  0  0  1  0  0  0  0  0  0
  162.5350  213.2690  147.7900 C   0  0  0  0  0  2  0  0  0  0  0  0
  162.0900  212.9530  144.0550 C   0  0  0  0  0  0  0  0  0  0  0  0
  160.3510  212.3260  142.3840 S   0  0  0  0  0  0  0  0  0  0  0  0
  159.9960  212.3340  145.1250 C   0  0  0  0  0  3  0  0  0  0  0  0
  161.9300  212.9990  146.4590 C   0  0  0  0  0  0  0  0  0  0  0  0
  161.8540  212.7780  141.7460 C   0  0  0  0  0  3  0  0  0  0  0  0
  160.7740  212.5310  143.9880 C   0  0  0  0  0  0  0  0  0  0  0  0
  162.6880  213.1970  145.2920 C   0  0  0  0  0  3  0  0  0  0  0  0
  162.7050  213.0960  142.8100 C   0  0  0  0  0  3  0  0  0  0  0  0
  160.5880  212.5750  146.3740 C   0  0  0  0  0  3  0  0  0  0  0  0
  162.5580  207.7080  148.2270 C   0  0  0  0  0  2  0  0  0  0  0  0
  161.2880  206.8870  148.1190 C   0  0  0  0  0  2  0  0  0  0  0  0
  161.5820  205.4490  148.5000 C   0  0  0  0  0  2  0  0  0  0  0  0
  161.5530  203.0860  147.7240 C   0  0  0  0  0  1  0  0  0  0  0  0
  161.2220  204.5190  147.3520 C   0  0  2  0  0  3  0  0  0  0  0  0
  161.9780  204.8930  146.1680 N   0  0  0  0  0  2  0  0  0  0  0  0
  159.7800  206.1230  145.2600 O   0  0  0  0  0  1  0  0  0  0  0  0
  160.0880  203.6380  144.5110 O   0  0  0  0  0  1  0  0  0  0  0  0
  161.6430  205.6680  143.4770 O   0  0  0  0  0  0  0  0  0  0  0  0
  160.8330  205.1150  144.8550 P   0  0  0  0  0  0  0  0  0  0  0  0
  161.2360  208.7670  153.3360 C   0  0  0  0  0  2  0  0  0  0  0  0
  161.1490  207.2560  153.2690 C   0  0  0  0  0  2  0  0  0  0  0  0
  161.1660  206.6840  154.6710 C   0  0  0  0  0  2  0  0  0  0  0  0
  160.0410  207.2990  155.4740 C   0  0  0  0  0  2  0  0  0  0  0  0
  160.5520  207.6930  156.8460 C   0  0  0  0  0  2  0  0  0  0  0  0
  159.1020  212.6090  155.9020 C   0  0  0  0  0  3  0  0  0  0  0  0
  160.2250  210.1520  156.5100 C   0  0  0  0  0  0  0  0  0  0  0  0
  162.2130  209.5440  157.1100 C   0  0  0  0  0  3  0  0  0  0  0  0
  162.2620  210.9340  156.9610 C   0  0  0  0  0  3  0  0  0  0  0  0
  160.9830  211.2880  156.5780 C   0  0  0  0  0  0  0  0  0  0  0  0
  158.8810  210.1830  156.1360 C   0  0  0  0  0  3  0  0  0  0  0  0
  160.4560  212.5420  156.2800 C   0  0  0  0  0  3  0  0  0  0  0  0
  160.9680  209.0870  156.8400 N   0  0  0  0  0  0  0  0  0  0  0  0
  158.3200  211.4360  155.8290 C   0  0  0  0  0  3  0  0  0  0  0  0
  1 31  1  0  0  0  0
  2  3  2  0  0  0  0
  3  1  1  0  0  0  0
  4  6  1  0  0  0  0
  5  1  1  0  0  0  0
  6  2  1  0  0  0  0
  6  5  2  0  0  0  0
  7  8  1  0  0  0  0
  7  2  1  0  0  0  0
  9  7  2  0  0  0  0
 10  8  1  0  0  0  0
 11  9  1  0  0  0  0
 12 18  1  0  0  0  0
 13 17  1  0  0  0  0
 14 20  2  0  0  0  0
 15 11  1  0  0  0  0
 16 13  1  0  0  0  0
 16 19  2  0  0  0  0
 17 12  2  0  0  0  0
 17 14  1  0  0  0  0
 18 15  2  0  0  0  0
 19 12  1  0  0  0  0
 20 15  1  0  0  0  0
 21  4  1  0  0  0  0
 22 21  1  0  0  0  0
 22 23  1  0  0  0  0
 25 24  1  1  0  0  0
 25 23  1  0  0  0  0
 26 25  1  0  0  0  0
 28 30  1  0  0  0  0
 29 30  2  0  0  0  0
 30 27  1  0  0  0  0
 30 26  1  0  0  0  0
 32 31  1  0  0  0  0
 32 33  1  0  0  0  0
 33 34  1  0  0  0  0
 34 35  1  0  0  0  0
 36 42  1  0  0  0  0
 37 40  1  0  0  0  0
 37 43  1  0  0  0  0
 39 38  2  0  0  0  0
 40 39  1  0  0  0  0
 41 37  2  0  0  0  0
 42 40  2  0  0  0  0
 43 35  1  0  0  0  0
 43 38  1  0  0  0  0
 44 36  2  0  0  0  0
 44 41  1  0  0  0  0
M  END
>  <MODEL>
7

>  <REMARK>
 VINA RESULT:      -6.8      4.139      9.067
  Name = 
  15 active torsions:
  status: ('A' for Active; 'I' for Inactive)
    1  A    between atoms: C_3  and  C_16
    2  A    between atoms: C_8  and  C_12
    3  A    between atoms: C_8  and  C_24
    4  A    between atoms: N_9  and  C_24
    5  A    between atoms: C_10  and  C_21
    6  A    between atoms: C_10  and  N_23
    7  A    between atoms: C_11  and  C_25
    8  A    between atoms: C_11  and  N_38
    9  A    between atoms: C_12  and  C_22
   10  A    between atoms: N_13  and  P_39
   11  A    between atoms: N_13  and  C_42
   12  A    between atoms: C_21  and  C_33
   13  A    between atoms: C_22  and  C_36
   14  A    between atoms: C_33  and  C_42
   15  A    between atoms: C_36  and  N_40
                            x       y       z     vdW  Elec       q    Type
                         _______ _______ _______ _____ _____    ______ ____

>  <TORSDO>
F 15

$$$$
=
 OpenBabel11042421483D

 44 48  0  0  1  0  0  0  0  0999 V2000
  162.1970  210.9460  149.2180 N   0  0  0  0  0  0  0  0  0  0  0  0
  161.7870  209.5560  150.7860 C   0  0  0  0  0  0  0  0  0  0  0  0
  161.8760  210.8700  150.5030 N   0  0  0  0  0  0  0  0  0  0  0  0
  162.0580  207.4500  149.4460 N   0  0  0  0  0  2  0  0  0  0  0  0
  162.3090  209.7580  148.6440 N   0  0  0  0  0  0  0  0  0  0  0  0
  162.0560  208.8690  149.6200 C   0  0  0  0  0  0  0  0  0  0  0  0
  161.4430  209.0100  152.1090 C   0  0  0  0  0  0  0  0  0  0  0  0
  161.0480  207.6320  152.2110 N   0  0  0  0  0  2  0  0  0  0  0  0
  161.5080  209.8010  153.1410 N   0  0  0  0  0  0  0  0  0  0  0  0
  160.7220  207.0240  153.3760 O   0  0  0  0  0  1  0  0  0  0  0  0
  161.2000  209.4330  154.5160 C   0  0  0  0  0  2  0  0  0  0  0  0
  158.2720  211.7020  155.2440 C   0  0  0  0  0  0  0  0  0  0  0  0
  157.6310  213.5640  156.7700 S   0  0  0  0  0  0  0  0  0  0  0  0
  160.0730  212.2700  156.7760 C   0  0  0  0  0  3  0  0  0  0  0  0
  160.3460  210.4800  155.1380 C   0  0  0  0  0  0  0  0  0  0  0  0
  156.4460  213.0860  155.6570 C   0  0  0  0  0  3  0  0  0  0  0  0
  158.7860  212.4600  156.2800 C   0  0  0  0  0  0  0  0  0  0  0  0
  159.0440  210.7010  154.6540 C   0  0  0  0  0  3  0  0  0  0  0  0
  156.9660  212.0410  154.8850 C   0  0  0  0  0  3  0  0  0  0  0  0
  160.8580  211.2660  156.1900 C   0  0  0  0  0  3  0  0  0  0  0  0
  162.3160  206.8300  148.1560 C   0  0  0  0  0  2  0  0  0  0  0  0
  161.3090  205.7250  147.9020 C   0  0  0  0  0  2  0  0  0  0  0  0
  160.4410  205.5400  149.1310 C   0  0  0  0  0  2  0  0  0  0  0  0
  161.6000  204.2390  150.9060 C   0  0  0  0  0  1  0  0  0  0  0  0
  160.6550  204.1560  149.7210 C   0  0  2  0  0  3  0  0  0  0  0  0
  161.2270  203.2800  148.7120 N   0  0  0  0  0  2  0  0  0  0  0  0
  161.4890  201.2540  150.4430 O   0  0  0  0  0  1  0  0  0  0  0  0
  161.3360  200.5860  147.9210 O   0  0  0  0  0  0  0  0  0  0  0  0
  159.1350  201.4890  149.3190 O   0  0  0  0  0  1  0  0  0  0  0  0
  160.8120  201.6290  149.1430 P   0  0  0  0  0  0  0  0  0  0  0  0
  162.3340  212.2010  148.4990 C   0  0  0  0  0  2  0  0  0  0  0  0
  161.4310  212.1890  147.2820 C   0  0  0  0  0  2  0  0  0  0  0  0
  161.7440  213.3850  146.4070 C   0  0  0  0  0  2  0  0  0  0  0  0
  160.4590  213.9120  145.8070 C   0  0  0  0  0  2  0  0  0  0  0  0
  159.3740  212.8580  145.9220 C   0  0  0  0  0  2  0  0  0  0  0  0
  156.8060  214.1620  150.2650 C   0  0  0  0  0  3  0  0  0  0  0  0
  157.8600  213.6270  147.7620 C   0  0  0  0  0  0  0  0  0  0  0  0
  157.0950  213.8720  145.7530 C   0  0  0  0  0  3  0  0  0  0  0  0
  156.0920  214.3390  146.6090 C   0  0  0  0  0  3  0  0  0  0  0  0
  156.6110  214.1690  147.8780 C   0  0  0  0  0  0  0  0  0  0  0  0
  158.6410  213.3250  148.8780 C   0  0  0  0  0  3  0  0  0  0  0  0
  156.0440  214.4520  149.1180 C   0  0  0  0  0  3  0  0  0  0  0  0
  158.1630  213.4510  146.4690 N   0  0  0  0  0  0  0  0  0  0  0  0
  158.0960  213.6010  150.1450 C   0  0  0  0  0  3  0  0  0  0  0  0
  1  3  1  0  0  0  0
  2  7  1  0  0  0  0
  3  2  2  0  0  0  0
  4  6  1  0  0  0  0
  5  1  1  0  0  0  0
  5  6  2  0  0  0  0
  6  2  1  0  0  0  0
  7  8  1  0  0  0  0
  7  9  2  0  0  0  0
  8 10  1  0  0  0  0
  9 11  1  0  0  0  0
 11 15  1  0  0  0  0
 12 17  1  0  0  0  0
 15 20  2  0  0  0  0
 16 13  1  0  0  0  0
 17 13  1  0  0  0  0
 17 14  2  0  0  0  0
 18 15  1  0  0  0  0
 18 12  2  0  0  0  0
 19 12  1  0  0  0  0
 19 16  2  0  0  0  0
 20 14  1  0  0  0  0
 21  4  1  0  0  0  0
 22 21  1  0  0  0  0
 22 23  1  0  0  0  0
 23 25  1  0  0  0  0
 25 24  1  1  0  0  0
 26 30  1  0  0  0  0
 26 25  1  0  0  0  0
 28 30  2  0  0  0  0
 30 29  1  0  0  0  0
 30 27  1  0  0  0  0
 31  1  1  0  0  0  0
 32 31  1  0  0  0  0
 33 32  1  0  0  0  0
 34 35  1  0  0  0  0
 34 33  1  0  0  0  0
 35 43  1  0  0  0  0
 37 40  2  0  0  0  0
 37 41  1  0  0  0  0
 38 43  1  0  0  0  0
 38 39  2  0  0  0  0
 39 40  1  0  0  0  0
 40 42  1  0  0  0  0
 41 44  2  0  0  0  0
 42 36  2  0  0  0  0
 43 37  1  0  0  0  0
 44 36  1  0  0  0  0
M  END
>  <MODEL>
8

>  <REMARK>
 VINA RESULT:      -6.7      4.169      8.239
  Name = 
  15 active torsions:
  status: ('A' for Active; 'I' for Inactive)
    1  A    between atoms: C_3  and  C_16
    2  A    between atoms: C_8  and  C_12
    3  A    between atoms: C_8  and  C_24
    4  A    between atoms: N_9  and  C_24
    5  A    between atoms: C_10  and  C_21
    6  A    between atoms: C_10  and  N_23
    7  A    between atoms: C_11  and  C_25
    8  A    between atoms: C_11  and  N_38
    9  A    between atoms: C_12  and  C_22
   10  A    between atoms: N_13  and  P_39
   11  A    between atoms: N_13  and  C_42
   12  A    between atoms: C_21  and  C_33
   13  A    between atoms: C_22  and  C_36
   14  A    between atoms: C_33  and  C_42
   15  A    between atoms: C_36  and  N_40
                            x       y       z     vdW  Elec       q    Type
                         _______ _______ _______ _____ _____    ______ ____

>  <TORSDO>
F 15

$$$$
=
 OpenBabel11042421483D

 44 48  0  0  1  0  0  0  0  0999 V2000
  161.2290  207.7290  152.8100 N   0  0  0  0  0  0  0  0  0  0  0  0
  161.0400  209.5650  151.7370 C   0  0  0  0  0  0  0  0  0  0  0  0
  160.9060  209.0080  152.9560 N   0  0  0  0  0  0  0  0  0  0  0  0
  161.7520  208.7120  149.4860 N   0  0  0  0  0  2  0  0  0  0  0  0
  161.5790  207.4240  151.5700 N   0  0  0  0  0  0  0  0  0  0  0  0
  161.4630  208.5710  150.8790 C   0  0  0  0  0  0  0  0  0  0  0  0
  160.7870  210.9840  151.4380 C   0  0  0  0  0  0  0  0  0  0  0  0
  160.0770  211.7820  152.4000 N   0  0  0  0  0  2  0  0  0  0  0  0
  161.2150  211.4650  150.3060 N   0  0  0  0  0  0  0  0  0  0  0  0
  159.8000  213.0960  152.2340 O   0  0  0  0  0  1  0  0  0  0  0  0
  161.0480  212.8360  149.8460 C   0  0  0  0  0  2  0  0  0  0  0  0
  160.3970  212.6210  146.1340 C   0  0  0  0  0  0  0  0  0  0  0  0
  161.5770  212.9530  143.9640 S   0  0  0  0  0  0  0  0  0  0  0  0
  162.7060  213.3100  146.4610 C   0  0  0  0  0  3  0  0  0  0  0  0
  161.2430  212.9000  148.3730 C   0  0  0  0  0  0  0  0  0  0  0  0
  159.9570  212.4700  143.8530 C   0  0  0  0  0  3  0  0  0  0  0  0
  161.6350  212.9850  145.6340 C   0  0  0  0  0  0  0  0  0  0  0  0
  160.1820  212.5700  147.5110 C   0  0  0  0  0  3  0  0  0  0  0  0
  159.4510  212.3300  145.1490 C   0  0  0  0  0  3  0  0  0  0  0  0
  162.5000  213.2630  147.8490 C   0  0  0  0  0  3  0  0  0  0  0  0
  162.2350  207.6010  148.6800 C   0  0  0  0  0  2  0  0  0  0  0  0
  161.0870  206.6700  148.3400 C   0  0  0  0  0  2  0  0  0  0  0  0
  161.6390  205.3720  147.7810 C   0  0  0  0  0  2  0  0  0  0  0  0
  160.8310  204.4980  149.9650 C   0  0  0  0  0  1  0  0  0  0  0  0
  161.0060  204.1860  148.4900 C   0  0  2  0  0  3  0  0  0  0  0  0
  161.8610  203.0190  148.3450 N   0  0  0  0  0  2  0  0  0  0  0  0
  160.4150  201.7050  146.5150 O   0  0  0  0  0  0  0  0  0  0  0  0
  159.4530  201.7030  148.9460 O   0  0  0  0  0  1  0  0  0  0  0  0
  161.6670  200.2070  148.2610 O   0  0  0  0  0  1  0  0  0  0  0  0
  160.8310  201.6490  147.9690 P   0  0  0  0  0  0  0  0  0  0  0  0
  161.2700  206.7830  153.9110 C   0  0  0  0  0  2  0  0  0  0  0  0
  160.5190  207.3500  155.0980 C   0  0  0  0  0  2  0  0  0  0  0  0
  161.5030  207.9260  156.0940 C   0  0  0  0  0  2  0  0  0  0  0  0
  160.8910  209.1450  156.7500 C   0  0  0  0  0  2  0  0  0  0  0  0
  159.5390  209.4320  156.1280 C   0  0  0  0  0  2  0  0  0  0  0  0
  156.2030  213.2410  154.8910 C   0  0  0  0  0  3  0  0  0  0  0  0
  158.2390  211.5100  155.6130 C   0  0  0  0  0  0  0  0  0  0  0  0
  160.3260  211.8050  156.1030 C   0  0  0  0  0  3  0  0  0  0  0  0
  159.8080  213.0770  155.8340 C   0  0  0  0  0  3  0  0  0  0  0  0
  158.4800  212.8520  155.5250 C   0  0  0  0  0  0  0  0  0  0  0  0
  156.9820  210.9660  155.3460 C   0  0  0  0  0  3  0  0  0  0  0  0
  157.4840  213.7560  155.1650 C   0  0  0  0  0  3  0  0  0  0  0  0
  159.3600  210.8680  155.9720 N   0  0  0  0  0  0  0  0  0  0  0  0
  155.9550  211.8540  154.9800 C   0  0  0  0  0  3  0  0  0  0  0  0
  1  3  1  0  0  0  0
  1 31  1  0  0  0  0
  2  3  2  0  0  0  0
  4  6  1  0  0  0  0
  5  1  1  0  0  0  0
  6  5  2  0  0  0  0
  6  2  1  0  0  0  0
  7  2  1  0  0  0  0
  7  8  1  0  0  0  0
  9  7  2  0  0  0  0
 10  8  1  0  0  0  0
 11  9  1  0  0  0  0
 12 18  1  0  0  0  0
 13 17  1  0  0  0  0
 14 20  2  0  0  0  0
 15 11  1  0  0  0  0
 16 13  1  0  0  0  0
 16 19  2  0  0  0  0
 17 12  2  0  0  0  0
 17 14  1  0  0  0  0
 18 15  2  0  0  0  0
 19 12  1  0  0  0  0
 20 15  1  0  0  0  0
 21  4  1  0  0  0  0
 22 21  1  0  0  0  0
 23 22  1  0  0  0  0
 23 25  1  0  0  0  0
 25 24  1  1  0  0  0
 26 25  1  0  0  0  0
 27 30  2  0  0  0  0
 30 29  1  0  0  0  0
 30 26  1  0  0  0  0
 30 28  1  0  0  0  0
 31 32  1  0  0  0  0
 32 33  1  0  0  0  0
 33 34  1  0  0  0  0
 35 34  1  0  0  0  0
 36 44  2  0  0  0  0
 36 42  1  0  0  0  0
 37 43  1  0  0  0  0
 39 38  2  0  0  0  0
 40 37  1  0  0  0  0
 40 39  1  0  0  0  0
 41 37  2  0  0  0  0
 42 40  2  0  0  0  0
 43 38  1  0  0  0  0
 43 35  1  0  0  0  0
 44 41  1  0  0  0  0
M  END
>  <MODEL>
9

>  <REMARK>
 VINA RESULT:      -6.7      4.494      9.155
  Name = 
  15 active torsions:
  status: ('A' for Active; 'I' for Inactive)
    1  A    between atoms: C_3  and  C_16
    2  A    between atoms: C_8  and  C_12
    3  A    between atoms: C_8  and  C_24
    4  A    between atoms: N_9  and  C_24
    5  A    between atoms: C_10  and  C_21
    6  A    between atoms: C_10  and  N_23
    7  A    between atoms: C_11  and  C_25
    8  A    between atoms: C_11  and  N_38
    9  A    between atoms: C_12  and  C_22
   10  A    between atoms: N_13  and  P_39
   11  A    between atoms: N_13  and  C_42
   12  A    between atoms: C_21  and  C_33
   13  A    between atoms: C_22  and  C_36
   14  A    between atoms: C_33  and  C_42
   15  A    between atoms: C_36  and  N_40
                            x       y       z     vdW  Elec       q    Type
                         _______ _______ _______ _____ _____    ______ ____

>  <TORSDO>
F 15

$$$$
