=
 OpenBabel11042420203D

 51 58  0  0  1  0  0  0  0  0999 V2000
  161.5820  209.3940  152.5960 C   0  0  0  0  0  3  0  0  0  0  0  0
  160.8460  209.4570  153.7900 C   0  0  0  0  0  0  0  0  0  0  0  0
  160.3340  210.7900  154.2460 C   0  0  0  0  0  0  0  0  0  0  0  0
  161.6360  206.9850  152.6790 C   0  0  0  0  0  0  0  0  0  0  0  0
  160.5550  208.2410  154.4600 C   0  0  0  0  0  0  0  0  0  0  0  0
  159.5270  211.6840  153.2830 C   0  0  1  0  0  3  0  0  0  0  0  0
  159.1540  207.2690  156.0950 O   0  0  0  0  0  0  0  0  0  0  0  0
  160.9360  207.0210  153.8830 C   0  0  0  0  0  3  0  0  0  0  0  0
  160.9060  210.3490  156.5850 N   0  0  0  0  0  2  0  0  0  0  0  0
  159.4870  213.0340  153.6870 O   0  0  0  0  0  0  0  0  0  0  0  0
  160.3790  211.1740  155.5460 C   0  0  0  0  0  0  0  0  0  0  0  0
  158.8940  213.0660  154.9530 C   0  0  0  0  0  2  0  0  0  0  0  0
  159.8960  212.5340  155.9630 C   0  0  0  0  0  2  0  0  0  0  0  0
  159.9600  208.1910  155.8000 C   0  0  0  0  0  0  0  0  0  0  0  0
  161.9770  208.1760  152.0440 C   0  0  0  0  0  3  0  0  0  0  0  0
  160.4390  209.0500  156.8280 N   0  0  0  0  0  2  0  0  0  0  0  0
  159.9010  211.6040  151.8000 C   0  0  0  0  0  2  0  0  0  0  0  0
  160.7230  212.8040  151.3310 C   0  0  0  0  0  2  0  0  0  0  0  0
  160.9830  212.6850  148.8120 C   0  0  0  0  0  0  0  0  0  0  0  0
  160.3900  213.1630  149.9190 C   0  0  0  0  0  3  0  0  0  0  0  0
  157.2740  214.4530  145.9360 C   0  0  0  0  0  2  0  0  0  0  0  0
  156.5630  214.3050  147.2170 N   0  0  0  0  0  2  0  0  0  0  0  0
  159.5990  214.2920  145.0590 N   0  0  0  0  0  2  0  0  0  0  0  0
  161.8980  213.7380  144.2790 C   0  0  2  0  0  3  0  0  0  0  0  0
  156.7880  213.0500  147.7120 O   0  0  0  0  0  0  0  0  0  0  0  0
  158.6180  213.7280  145.9890 C   0  0  1  0  0  3  0  0  0  0  0  0
  161.8070  213.0230  143.0850 O   0  0  0  0  0  1  0  0  0  0  0  0
  159.1340  213.7240  147.4420 C   0  0  1  0  0  3  0  0  0  0  0  0
  162.6100  212.9090  146.4190 O   0  0  0  0  0  0  0  0  0  0  0  0
  158.0630  213.0610  148.3320 C   0  0  0  0  0  2  0  0  0  0  0  0
  163.0670  213.2100  145.1130 C   0  0  0  0  0  2  0  0  0  0  0  0
  160.4660  213.0950  147.5330 N   0  0  0  0  0  0  0  0  0  0  0  0
  161.3840  213.5750  146.4940 C   0  0  2  0  0  3  0  0  0  0  0  0
  160.7470  213.4000  145.1570 C   0  0  1  0  0  3  0  0  0  0  0  0
  162.0820  211.8070  148.8320 O   0  0  0  0  0  0  0  0  0  0  0  0
  162.0060  210.3930  148.7030 C   0  0  0  0  0  1  0  0  0  0  0  0
  162.0100  205.6750  152.0710 C   0  0  0  0  0  2  0  0  0  0  0  0
  160.5300  204.5590  150.3860 C   0  0  1  0  0  3  0  0  0  0  0  0
  162.4900  203.0550  150.2940 F   0  0  0  0  0  0  0  0  0  0  0  0
  161.1130  203.1750  150.1430 C   0  0  2  0  0  0  0  0  0  0  0  0
  162.6730  206.8180  147.2710 O   0  0  0  0  0  0  0  0  0  0  0  0
  160.4490  207.0260  148.7740 C   0  0  0  0  0  2  0  0  0  0  0  0
  161.6070  205.6300  150.6050 C   0  0  1  0  0  3  0  0  0  0  0  0
  161.6640  204.4530  148.0470 C   0  0  0  0  0  2  0  0  0  0  0  0
  161.1550  207.0190  150.1330 C   0  0  0  0  0  2  0  0  0  0  0  0
  161.3600  206.1320  147.5220 S   0  0  0  0  0  0  0  0  0  0  0  0
  160.5420  203.9480  148.9630 C   0  0  2  0  0  3  0  0  0  0  0  0
  160.5590  206.1150  146.2520 O   0  0  0  0  0  0  0  0  0  0  0  0
  160.3030  202.1540  150.6570 O   0  0  0  0  0  0  0  0  0  0  0  0
  161.0560  200.6580  149.1080 O   0  0  0  0  0  1  0  0  0  0  0  0
  159.9400  201.3580  149.5660 C   0  0  0  0  0  2  0  0  0  0  0  0
  1  2  1  0  0  0  0
  2  3  1  0  0  0  0
  2  5  2  0  0  0  0
  3 11  2  0  0  0  0
  4  8  2  0  0  0  0
  5 14  1  0  0  0  0
  6 17  1  6  0  0  0
  6 10  1  0  0  0  0
  6  3  1  0  0  0  0
  8  5  1  0  0  0  0
  9 16  1  0  0  0  0
 10 12  1  0  0  0  0
 11 13  1  0  0  0  0
 11  9  1  0  0  0  0
 12 13  1  0  0  0  0
 14  7  2  0  0  0  0
 14 16  1  0  0  0  0
 15  1  2  0  0  0  0
 15  4  1  0  0  0  0
 18 17  1  0  0  0  0
 19 35  1  0  0  0  0
 19 20  2  0  0  0  0
 20 18  1  0  0  0  0
 21 22  1  0  0  0  0
 22 25  1  0  0  0  0
 23 26  1  0  0  0  0
 24 27  1  6  0  0  0
 24 31  1  0  0  0  0
 24 34  1  0  0  0  0
 25 30  1  0  0  0  0
 26 21  1  1  0  0  0
 26 28  1  0  0  0  0
 28 32  1  0  0  0  0
 28 30  1  1  0  0  0
 31 29  1  0  0  0  0
 32 19  1  0  0  0  0
 33 29  1  6  0  0  0
 33 32  1  0  0  0  0
 34 23  1  1  0  0  0
 34 33  1  0  0  0  0
 36 35  1  0  0  0  0
 37  4  1  0  0  0  0
 38 43  1  0  0  0  0
 40 39  1  0  0  0  0
 40 38  1  0  0  0  0
 40 49  1  0  0  0  0
 41 46  2  0  0  0  0
 42 45  1  0  0  0  0
 43 37  1  0  0  0  0
 44 47  1  0  0  0  0
 45 43  1  0  0  0  0
 46 44  1  0  0  0  0
 46 42  1  0  0  0  0
 47 40  1  0  0  0  0
 47 38  1  0  0  0  0
 48 46  2  0  0  0  0
 50 51  1  0  0  0  0
 51 49  1  0  0  0  0
M  END
>  <MODEL>
1

>  <REMARK>
 VINA RESULT:      -8.4      0.000      0.000
  Name = 
  9 active torsions:
  status: ('A' for Active; 'I' for Inactive)
    1  A    between atoms: O_1  and  C_18
    2  A    between atoms: C_2  and  C_15
    3  A    between atoms: C_2  and  C_35
    4  A    between atoms: O_8  and  C_12
    5  A    between atoms: O_8  and  C_41
    6  A    between atoms: C_14  and  C_25
    7  A    between atoms: C_15  and  C_17
    8  A    between atoms: C_18  and  N_44
    9  A    between atoms: C_25  and  C_34
                            x       y       z     vdW  Elec       q    Type
                         _______ _______ _______ _____ _____    ______ ____

>  <TORSDO>
F 9

$$$$
=
 OpenBabel11042420203D

 51 58  0  0  1  0  0  0  0  0999 V2000
  161.6030  209.5140  152.4860 C   0  0  0  0  0  3  0  0  0  0  0  0
  160.8650  209.5870  153.6780 C   0  0  0  0  0  0  0  0  0  0  0  0
  160.3200  210.9170  154.1020 C   0  0  0  0  0  0  0  0  0  0  0  0
  161.7160  207.1100  152.6240 C   0  0  0  0  0  0  0  0  0  0  0  0
  160.6030  208.3810  154.3750 C   0  0  0  0  0  0  0  0  0  0  0  0
  159.4920  211.7690  153.1190 C   0  0  1  0  0  3  0  0  0  0  0  0
  159.2240  207.4120  156.0320 O   0  0  0  0  0  0  0  0  0  0  0  0
  161.0140  207.1570  153.8270 C   0  0  0  0  0  3  0  0  0  0  0  0
  160.8990  210.5440  156.4510 N   0  0  0  0  0  2  0  0  0  0  0  0
  159.4180  213.1270  153.4910 O   0  0  0  0  0  0  0  0  0  0  0  0
  160.3530  211.3320  155.3930 C   0  0  0  0  0  0  0  0  0  0  0  0
  158.8230  213.1730  154.7560 C   0  0  0  0  0  2  0  0  0  0  0  0
  159.8370  212.6890  155.7780 C   0  0  0  0  0  2  0  0  0  0  0  0
  160.0080  208.3460  155.7150 C   0  0  0  0  0  0  0  0  0  0  0  0
  162.0280  208.2940  151.9620 C   0  0  0  0  0  3  0  0  0  0  0  0
  160.4640  209.2410  156.7240 N   0  0  0  0  0  2  0  0  0  0  0  0
  159.8690  211.6640  151.6380 C   0  0  0  0  0  2  0  0  0  0  0  0
  160.5860  212.9100  151.1200 C   0  0  0  0  0  2  0  0  0  0  0  0
  160.8810  212.6590  148.6140 C   0  0  0  0  0  0  0  0  0  0  0  0
  160.2480  213.1650  149.6860 C   0  0  0  0  0  3  0  0  0  0  0  0
  161.4900  213.3090  143.6790 C   0  0  0  0  0  2  0  0  0  0  0  0
  162.8910  213.1190  144.0920 N   0  0  0  0  0  2  0  0  0  0  0  0
  159.2110  213.1560  144.6720 N   0  0  0  0  0  2  0  0  0  0  0  0
  157.0490  213.3140  145.8970 C   0  0  2  0  0  3  0  0  0  0  0  0
  163.1640  213.9510  145.1420 O   0  0  0  0  0  0  0  0  0  0  0  0
  160.6050  213.5460  144.9010 C   0  0  1  0  0  3  0  0  0  0  0  0
  156.3630  214.4440  145.4540 O   0  0  0  0  0  1  0  0  0  0  0  0
  161.2150  212.8200  146.1170 C   0  0  1  0  0  3  0  0  0  0  0  0
  158.0510  212.9750  148.0550 O   0  0  0  0  0  0  0  0  0  0  0  0
  162.6540  213.3370  146.3140 C   0  0  0  0  0  2  0  0  0  0  0  0
  156.8060  213.1120  147.3940 C   0  0  0  0  0  2  0  0  0  0  0  0
  160.3560  212.9610  147.3090 N   0  0  0  0  0  0  0  0  0  0  0  0
  158.9410  212.7060  147.0140 C   0  0  2  0  0  3  0  0  0  0  0  0
  158.5130  213.5740  145.8790 C   0  0  1  0  0  3  0  0  0  0  0  0
  162.0290  211.8490  148.6950 O   0  0  0  0  0  0  0  0  0  0  0  0
  162.0320  210.4270  148.7040 C   0  0  0  0  0  1  0  0  0  0  0  0
  162.1230  205.7970  152.0470 C   0  0  0  0  0  2  0  0  0  0  0  0
  160.5740  204.6440  150.4510 C   0  0  1  0  0  3  0  0  0  0  0  0
  162.4880  203.0790  150.3930 F   0  0  0  0  0  0  0  0  0  0  0  0
  161.1110  203.2330  150.2640 C   0  0  2  0  0  0  0  0  0  0  0  0
  162.7100  206.6810  147.1830 O   0  0  0  0  0  0  0  0  0  0  0  0
  160.5280  207.0300  148.7200 C   0  0  0  0  0  2  0  0  0  0  0  0
  161.6860  205.6920  150.5930 C   0  0  1  0  0  3  0  0  0  0  0  0
  161.6510  204.3890  148.0960 C   0  0  0  0  0  2  0  0  0  0  0  0
  161.2630  207.0680  150.0630 C   0  0  0  0  0  2  0  0  0  0  0  0
  161.3840  206.0490  147.4950 S   0  0  0  0  0  0  0  0  0  0  0  0
  160.5360  203.9630  149.0590 C   0  0  2  0  0  3  0  0  0  0  0  0
  160.5550  205.9930  146.2440 O   0  0  0  0  0  0  0  0  0  0  0  0
  160.2840  202.2630  150.8460 O   0  0  0  0  0  0  0  0  0  0  0  0
  158.9540  201.2080  149.3210 O   0  0  0  0  0  1  0  0  0  0  0  0
  160.2100  201.2110  149.9260 C   0  0  0  0  0  2  0  0  0  0  0  0
  1  2  1  0  0  0  0
  2  3  1  0  0  0  0
  2  5  2  0  0  0  0
  3 11  2  0  0  0  0
  4  8  2  0  0  0  0
  5 14  1  0  0  0  0
  6 17  1  6  0  0  0
  6 10  1  0  0  0  0
  6  3  1  0  0  0  0
  8  5  1  0  0  0  0
  9 16  1  0  0  0  0
 10 12  1  0  0  0  0
 11 13  1  0  0  0  0
 11  9  1  0  0  0  0
 12 13  1  0  0  0  0
 14  7  2  0  0  0  0
 14 16  1  0  0  0  0
 15  1  2  0  0  0  0
 15  4  1  0  0  0  0
 18 17  1  0  0  0  0
 19 35  1  0  0  0  0
 19 20  2  0  0  0  0
 20 18  1  0  0  0  0
 21 22  1  0  0  0  0
 22 25  1  0  0  0  0
 23 26  1  0  0  0  0
 24 27  1  1  0  0  0
 24 31  1  0  0  0  0
 25 30  1  0  0  0  0
 26 21  1  6  0  0  0
 26 28  1  0  0  0  0
 28 30  1  1  0  0  0
 28 32  1  0  0  0  0
 31 29  1  0  0  0  0
 32 19  1  0  0  0  0
 33 32  1  0  0  0  0
 33 29  1  1  0  0  0
 34 23  1  6  0  0  0
 34 24  1  0  0  0  0
 34 33  1  0  0  0  0
 35 36  1  0  0  0  0
 37  4  1  0  0  0  0
 38 43  1  0  0  0  0
 40 39  1  0  0  0  0
 40 38  1  0  0  0  0
 40 49  1  0  0  0  0
 41 46  2  0  0  0  0
 42 45  1  0  0  0  0
 43 37  1  0  0  0  0
 44 47  1  0  0  0  0
 45 43  1  0  0  0  0
 46 44  1  0  0  0  0
 46 42  1  0  0  0  0
 47 40  1  0  0  0  0
 47 38  1  0  0  0  0
 48 46  2  0  0  0  0
 50 51  1  0  0  0  0
 51 49  1  0  0  0  0
M  END
>  <MODEL>
2

>  <REMARK>
 VINA RESULT:      -8.3      0.913      2.475
  Name = 
  9 active torsions:
  status: ('A' for Active; 'I' for Inactive)
    1  A    between atoms: O_1  and  C_18
    2  A    between atoms: C_2  and  C_15
    3  A    between atoms: C_2  and  C_35
    4  A    between atoms: O_8  and  C_12
    5  A    between atoms: O_8  and  C_41
    6  A    between atoms: C_14  and  C_25
    7  A    between atoms: C_15  and  C_17
    8  A    between atoms: C_18  and  N_44
    9  A    between atoms: C_25  and  C_34
                            x       y       z     vdW  Elec       q    Type
                         _______ _______ _______ _____ _____    ______ ____

>  <TORSDO>
F 9

$$$$
=
 OpenBabel11042420203D

 51 58  0  0  1  0  0  0  0  0999 V2000
  158.8680  210.6540  152.5840 C   0  0  0  0  0  3  0  0  0  0  0  0
  159.2780  210.9770  153.8880 C   0  0  0  0  0  0  0  0  0  0  0  0
  159.7520  209.8720  154.7830 C   0  0  0  0  0  0  0  0  0  0  0  0
  158.6200  212.9830  152.0140 C   0  0  0  0  0  0  0  0  0  0  0  0
  159.3000  212.3440  154.2610 C   0  0  0  0  0  0  0  0  0  0  0  0
  160.8410  208.8920  154.3000 C   0  0  1  0  0  3  0  0  0  0  0  0
  160.1650  213.8580  155.8560 O   0  0  0  0  0  0  0  0  0  0  0  0
  158.9910  213.3290  153.3120 C   0  0  0  0  0  3  0  0  0  0  0  0
  158.5740  210.7760  156.7290 N   0  0  0  0  0  2  0  0  0  0  0  0
  160.8750  207.6950  155.0440 O   0  0  0  0  0  0  0  0  0  0  0  0
  159.4060  209.8060  156.0930 C   0  0  0  0  0  0  0  0  0  0  0  0
  161.1260  208.0450  156.3740 C   0  0  0  0  0  2  0  0  0  0  0  0
  159.8650  208.6630  156.9520 C   0  0  0  0  0  2  0  0  0  0  0  0
  159.5290  212.7920  155.6390 C   0  0  0  0  0  0  0  0  0  0  0  0
  158.5400  211.6410  151.6550 C   0  0  0  0  0  3  0  0  0  0  0  0
  158.8680  212.1460  156.7210 N   0  0  0  0  0  2  0  0  0  0  0  0
  160.8520  208.5660  152.8040 C   0  0  0  0  0  2  0  0  0  0  0  0
  162.1790  207.9680  152.3380 C   0  0  0  0  0  2  0  0  0  0  0  0
  161.5610  206.7780  150.1860 C   0  0  0  0  0  0  0  0  0  0  0  0
  161.9520  206.7710  151.4710 C   0  0  0  0  0  3  0  0  0  0  0  0
  160.7470  201.8290  150.1620 C   0  0  0  0  0  2  0  0  0  0  0  0
  160.6820  202.0980  151.6090 N   0  0  0  0  0  2  0  0  0  0  0  0
  160.8960  203.1060  148.0280 N   0  0  0  0  0  2  0  0  0  0  0  0
  161.4100  204.4980  146.0300 C   0  0  2  0  0  3  0  0  0  0  0  0
  161.7820  202.8190  151.9800 O   0  0  0  0  0  0  0  0  0  0  0  0
  161.3320  203.0340  149.4260 C   0  0  1  0  0  3  0  0  0  0  0  0
  162.3640  203.8390  145.2560 O   0  0  0  0  0  1  0  0  0  0  0  0
  160.9880  204.3200  150.2050 C   0  0  1  0  0  3  0  0  0  0  0  0
  161.7100  206.5160  147.2990 O   0  0  0  0  0  0  0  0  0  0  0  0
  161.5360  204.1740  151.6390 C   0  0  0  0  0  2  0  0  0  0  0  0
  161.6530  206.0080  145.9790 C   0  0  0  0  0  2  0  0  0  0  0  0
  161.4730  205.5190  149.4950 N   0  0  0  0  0  0  0  0  0  0  0  0
  161.1470  205.4920  148.0640 C   0  0  2  0  0  3  0  0  0  0  0  0
  161.6500  204.2200  147.4700 C   0  0  1  0  0  3  0  0  0  0  0  0
  161.2330  207.9480  149.4760 O   0  0  0  0  0  0  0  0  0  0  0  0
  162.1490  208.9710  149.1110 C   0  0  0  0  0  1  0  0  0  0  0  0
  158.3200  214.0480  151.0140 C   0  0  0  0  0  2  0  0  0  0  0  0
  158.3830  214.4530  148.5430 C   0  0  1  0  0  3  0  0  0  0  0  0
  157.1150  212.3310  148.5940 F   0  0  0  0  0  0  0  0  0  0  0  0
  157.3480  213.5260  147.9220 C   0  0  2  0  0  0  0  0  0  0  0  0
  161.9150  211.8280  148.3800 O   0  0  0  0  0  0  0  0  0  0  0  0
  161.3300  214.4480  148.5830 C   0  0  0  0  0  2  0  0  0  0  0  0
  159.1120  213.8210  149.7350 C   0  0  1  0  0  3  0  0  0  0  0  0
  159.5550  212.4990  147.2870 C   0  0  0  0  0  2  0  0  0  0  0  0
  160.5430  214.3520  149.8930 C   0  0  0  0  0  2  0  0  0  0  0  0
  161.2520  212.9430  147.6220 S   0  0  0  0  0  0  0  0  0  0  0  0
  158.6660  213.7460  147.1940 C   0  0  2  0  0  3  0  0  0  0  0  0
  161.9730  213.1530  146.3210 O   0  0  0  0  0  0  0  0  0  0  0  0
  156.2430  214.2200  147.4130 O   0  0  0  0  0  0  0  0  0  0  0  0
  155.1440  214.3700  145.4190 O   0  0  0  0  0  1  0  0  0  0  0  0
  156.3920  214.2230  146.0210 C   0  0  0  0  0  2  0  0  0  0  0  0
  1  2  1  0  0  0  0
  2  5  2  0  0  0  0
  2  3  1  0  0  0  0
  3 11  2  0  0  0  0
  4  8  2  0  0  0  0
  5 14  1  0  0  0  0
  6 17  1  6  0  0  0
  6  3  1  0  0  0  0
  6 10  1  0  0  0  0
  8  5  1  0  0  0  0
 10 12  1  0  0  0  0
 11  9  1  0  0  0  0
 11 13  1  0  0  0  0
 12 13  1  0  0  0  0
 14  7  2  0  0  0  0
 14 16  1  0  0  0  0
 15  4  1  0  0  0  0
 15  1  2  0  0  0  0
 16  9  1  0  0  0  0
 18 17  1  0  0  0  0
 19 20  2  0  0  0  0
 20 18  1  0  0  0  0
 21 22  1  0  0  0  0
 22 25  1  0  0  0  0
 23 26  1  0  0  0  0
 24 27  1  6  0  0  0
 24 34  1  0  0  0  0
 26 21  1  1  0  0  0
 26 28  1  0  0  0  0
 28 30  1  1  0  0  0
 30 25  1  0  0  0  0
 31 24  1  0  0  0  0
 31 29  1  0  0  0  0
 32 19  1  0  0  0  0
 32 28  1  0  0  0  0
 33 29  1  6  0  0  0
 33 32  1  0  0  0  0
 34 23  1  1  0  0  0
 34 33  1  0  0  0  0
 35 19  1  0  0  0  0
 36 35  1  0  0  0  0
 37  4  1  0  0  0  0
 38 43  1  0  0  0  0
 40 38  1  0  0  0  0
 40 39  1  0  0  0  0
 42 45  1  0  0  0  0
 43 45  1  0  0  0  0
 43 37  1  0  0  0  0
 44 46  1  0  0  0  0
 46 41  2  0  0  0  0
 46 42  1  0  0  0  0
 47 44  1  0  0  0  0
 47 40  1  0  0  0  0
 47 38  1  0  0  0  0
 48 46  2  0  0  0  0
 49 40  1  0  0  0  0
 50 51  1  0  0  0  0
 51 49  1  0  0  0  0
M  END
>  <MODEL>
3

>  <REMARK>
 VINA RESULT:      -8.1      3.345      8.247
  Name = 
  9 active torsions:
  status: ('A' for Active; 'I' for Inactive)
    1  A    between atoms: O_1  and  C_18
    2  A    between atoms: C_2  and  C_15
    3  A    between atoms: C_2  and  C_35
    4  A    between atoms: O_8  and  C_12
    5  A    between atoms: O_8  and  C_41
    6  A    between atoms: C_14  and  C_25
    7  A    between atoms: C_15  and  C_17
    8  A    between atoms: C_18  and  N_44
    9  A    between atoms: C_25  and  C_34
                            x       y       z     vdW  Elec       q    Type
                         _______ _______ _______ _____ _____    ______ ____

>  <TORSDO>
F 9

$$$$
=
 OpenBabel11042420203D

 51 58  0  0  1  0  0  0  0  0999 V2000
  158.8550  210.6500  152.5820 C   0  0  0  0  0  3  0  0  0  0  0  0
  159.2700  210.9680  153.8850 C   0  0  0  0  0  0  0  0  0  0  0  0
  159.7380  209.8590  154.7780 C   0  0  0  0  0  0  0  0  0  0  0  0
  158.6240  212.9820  152.0150 C   0  0  0  0  0  0  0  0  0  0  0  0
  159.3040  212.3350  154.2600 C   0  0  0  0  0  0  0  0  0  0  0  0
  160.8180  208.8710  154.2920 C   0  0  1  0  0  3  0  0  0  0  0  0
  160.1830  213.8400  155.8550 O   0  0  0  0  0  0  0  0  0  0  0  0
  159.0000  213.3240  153.3130 C   0  0  0  0  0  3  0  0  0  0  0  0
  158.5700  210.7690  156.7280 N   0  0  0  0  0  2  0  0  0  0  0  0
  160.8450  207.6730  155.0340 O   0  0  0  0  0  0  0  0  0  0  0  0
  159.3940  209.7940  156.0880 C   0  0  0  0  0  0  0  0  0  0  0  0
  161.1010  208.0200  156.3640 C   0  0  0  0  0  2  0  0  0  0  0  0
  159.8460  208.6460  156.9450 C   0  0  0  0  0  2  0  0  0  0  0  0
  159.5390  212.7800  155.6380 C   0  0  0  0  0  0  0  0  0  0  0  0
  158.5330  211.6410  151.6550 C   0  0  0  0  0  3  0  0  0  0  0  0
  158.8750  212.1360  156.7210 N   0  0  0  0  0  2  0  0  0  0  0  0
  160.8240  208.5470  152.7950 C   0  0  0  0  0  2  0  0  0  0  0  0
  162.1390  207.9230  152.3290 C   0  0  0  0  0  2  0  0  0  0  0  0
  161.4900  206.7200  150.1940 C   0  0  0  0  0  0  0  0  0  0  0  0
  161.8890  206.7210  151.4770 C   0  0  0  0  0  3  0  0  0  0  0  0
  161.6580  203.9420  146.0210 C   0  0  0  0  0  2  0  0  0  0  0  0
  161.8340  205.2870  145.4470 N   0  0  0  0  0  2  0  0  0  0  0  0
  161.5610  202.8660  148.2650 N   0  0  0  0  0  2  0  0  0  0  0  0
  161.1250  202.0050  150.5600 C   0  0  2  0  0  3  0  0  0  0  0  0
  160.8570  206.1120  145.9310 O   0  0  0  0  0  0  0  0  0  0  0  0
  161.1950  204.0440  147.4740 C   0  0  1  0  0  3  0  0  0  0  0  0
  160.0530  201.1140  150.5100 O   0  0  0  0  0  1  0  0  0  0  0  0
  161.7420  205.3470  148.0900 C   0  0  1  0  0  3  0  0  0  0  0  0
  161.1550  204.1870  151.5690 O   0  0  0  0  0  0  0  0  0  0  0  0
  161.2570  206.5280  147.2270 C   0  0  0  0  0  2  0  0  0  0  0  0
  161.0760  202.8040  151.8650 C   0  0  0  0  0  2  0  0  0  0  0  0
  161.3790  205.4550  149.5170 N   0  0  0  0  0  0  0  0  0  0  0  0
  161.6210  204.2090  150.2530 C   0  0  2  0  0  3  0  0  0  0  0  0
  160.9280  203.0860  149.5580 C   0  0  1  0  0  3  0  0  0  0  0  0
  161.1740  207.8870  149.4730 O   0  0  0  0  0  0  0  0  0  0  0  0
  162.1030  208.8930  149.0920 C   0  0  0  0  0  1  0  0  0  0  0  0
  158.3290  214.0500  151.0170 C   0  0  0  0  0  2  0  0  0  0  0  0
  158.3880  214.4500  148.5450 C   0  0  1  0  0  3  0  0  0  0  0  0
  157.1220  212.3270  148.6030 F   0  0  0  0  0  0  0  0  0  0  0  0
  157.3530  213.5210  147.9280 C   0  0  2  0  0  0  0  0  0  0  0  0
  161.9210  211.8270  148.3830 O   0  0  0  0  0  0  0  0  0  0  0  0
  161.3360  214.4470  148.5810 C   0  0  0  0  0  2  0  0  0  0  0  0
  159.1200  213.8210  149.7370 C   0  0  1  0  0  3  0  0  0  0  0  0
  159.5600  212.4940  147.2920 C   0  0  0  0  0  2  0  0  0  0  0  0
  160.5510  214.3530  149.8920 C   0  0  0  0  0  2  0  0  0  0  0  0
  161.2570  212.9400  147.6230 S   0  0  0  0  0  0  0  0  0  0  0  0
  158.6700  213.7400  147.1980 C   0  0  2  0  0  3  0  0  0  0  0  0
  161.9750  213.1470  146.3210 O   0  0  0  0  0  0  0  0  0  0  0  0
  156.2470  214.2140  147.4190 O   0  0  0  0  0  0  0  0  0  0  0  0
  155.1390  214.3500  145.4290 O   0  0  0  0  0  1  0  0  0  0  0  0
  156.3900  214.2070  146.0270 C   0  0  0  0  0  2  0  0  0  0  0  0
  1  2  1  0  0  0  0
  2  5  2  0  0  0  0
  2  3  1  0  0  0  0
  3 11  2  0  0  0  0
  4  8  2  0  0  0  0
  5 14  1  0  0  0  0
  6 17  1  6  0  0  0
  6  3  1  0  0  0  0
  6 10  1  0  0  0  0
  8  5  1  0  0  0  0
 10 12  1  0  0  0  0
 11  9  1  0  0  0  0
 11 13  1  0  0  0  0
 12 13  1  0  0  0  0
 14  7  2  0  0  0  0
 14 16  1  0  0  0  0
 15  4  1  0  0  0  0
 15  1  2  0  0  0  0
 16  9  1  0  0  0  0
 18 17  1  0  0  0  0
 19 20  2  0  0  0  0
 20 18  1  0  0  0  0
 22 25  1  0  0  0  0
 22 21  1  0  0  0  0
 24 27  1  1  0  0  0
 24 31  1  0  0  0  0
 25 30  1  0  0  0  0
 26 21  1  6  0  0  0
 26 28  1  0  0  0  0
 26 23  1  0  0  0  0
 28 30  1  6  0  0  0
 28 32  1  0  0  0  0
 29 31  1  0  0  0  0
 32 19  1  0  0  0  0
 32 33  1  0  0  0  0
 33 29  1  1  0  0  0
 34 23  1  6  0  0  0
 34 33  1  0  0  0  0
 34 24  1  0  0  0  0
 35 19  1  0  0  0  0
 36 35  1  0  0  0  0
 37  4  1  0  0  0  0
 38 43  1  0  0  0  0
 40 38  1  0  0  0  0
 40 39  1  0  0  0  0
 42 45  1  0  0  0  0
 43 45  1  0  0  0  0
 43 37  1  0  0  0  0
 44 46  1  0  0  0  0
 46 41  2  0  0  0  0
 46 42  1  0  0  0  0
 47 44  1  0  0  0  0
 47 40  1  0  0  0  0
 47 38  1  0  0  0  0
 48 46  2  0  0  0  0
 49 40  1  0  0  0  0
 50 51  1  0  0  0  0
 51 49  1  0  0  0  0
M  END
>  <MODEL>
4

>  <REMARK>
 VINA RESULT:      -8.0      3.279      8.401
  Name = 
  9 active torsions:
  status: ('A' for Active; 'I' for Inactive)
    1  A    between atoms: O_1  and  C_18
    2  A    between atoms: C_2  and  C_15
    3  A    between atoms: C_2  and  C_35
    4  A    between atoms: O_8  and  C_12
    5  A    between atoms: O_8  and  C_41
    6  A    between atoms: C_14  and  C_25
    7  A    between atoms: C_15  and  C_17
    8  A    between atoms: C_18  and  N_44
    9  A    between atoms: C_25  and  C_34
                            x       y       z     vdW  Elec       q    Type
                         _______ _______ _______ _____ _____    ______ ____

>  <TORSDO>
F 9

$$$$
=
 OpenBabel11042420203D

 51 58  0  0  1  0  0  0  0  0999 V2000
  160.1090  209.8720  151.8680 C   0  0  0  0  0  3  0  0  0  0  0  0
  160.7830  208.6400  151.8450 C   0  0  0  0  0  0  0  0  0  0  0  0
  161.3390  208.1530  150.5420 C   0  0  0  0  0  0  0  0  0  0  0  0
  159.9240  209.8020  154.2710 C   0  0  0  0  0  0  0  0  0  0  0  0
  160.9740  207.9620  153.0750 C   0  0  0  0  0  0  0  0  0  0  0  0
  162.2420  209.0680  149.6900 C   0  0  1  0  0  3  0  0  0  0  0  0
  162.2340  206.2580  154.1220 O   0  0  0  0  0  0  0  0  0  0  0  0
  160.5600  208.5620  154.2730 C   0  0  0  0  0  3  0  0  0  0  0  0
  160.6220  205.8490  150.9550 N   0  0  0  0  0  2  0  0  0  0  0  0
  162.3320  208.6580  148.3440 O   0  0  0  0  0  0  0  0  0  0  0  0
  161.2460  206.8560  150.1570 C   0  0  0  0  0  0  0  0  0  0  0  0
  162.8580  207.3620  148.3450 C   0  0  0  0  0  2  0  0  0  0  0  0
  161.7780  206.4080  148.8250 C   0  0  0  0  0  2  0  0  0  0  0  0
  161.4930  206.5920  153.1590 C   0  0  0  0  0  0  0  0  0  0  0  0
  159.6810  210.4490  153.0630 C   0  0  0  0  0  3  0  0  0  0  0  0
  161.0070  205.5870  152.2760 N   0  0  0  0  0  2  0  0  0  0  0  0
  161.9430  210.5690  149.7490 C   0  0  0  0  0  2  0  0  0  0  0  0
  162.5040  211.3320  148.5490 C   0  0  0  0  0  2  0  0  0  0  0  0
  161.0670  213.0450  147.3530 C   0  0  0  0  0  0  0  0  0  0  0  0
  161.4070  211.7760  147.6360 C   0  0  0  0  0  3  0  0  0  0  0  0
  156.3850  214.3990  146.1720 C   0  0  0  0  0  2  0  0  0  0  0  0
  156.3040  214.4360  147.6420 N   0  0  0  0  0  2  0  0  0  0  0  0
  158.1120  214.1090  144.4010 N   0  0  0  0  0  2  0  0  0  0  0  0
  159.8790  213.4430  142.7790 C   0  0  2  0  0  3  0  0  0  0  0  0
  156.7930  213.2630  148.1470 O   0  0  0  0  0  0  0  0  0  0  0  0
  157.6610  213.6850  145.7290 C   0  0  1  0  0  3  0  0  0  0  0  0
  159.3270  212.5670  141.8460 O   0  0  0  0  0  1  0  0  0  0  0  0
  158.7520  213.8850  146.8010 C   0  0  1  0  0  3  0  0  0  0  0  0
  161.4900  212.9230  144.4850 O   0  0  0  0  0  0  0  0  0  0  0  0
  158.2090  213.3580  148.1440 C   0  0  0  0  0  2  0  0  0  0  0  0
  161.3230  213.0350  143.0840 C   0  0  0  0  0  2  0  0  0  0  0  0
  160.0270  213.2710  146.3850 N   0  0  0  0  0  0  0  0  0  0  0  0
  160.3790  213.5960  144.9980 C   0  0  2  0  0  3  0  0  0  0  0  0
  159.2400  213.2370  144.1050 C   0  0  1  0  0  3  0  0  0  0  0  0
  161.6700  214.1660  147.9520 O   0  0  0  0  0  0  0  0  0  0  0  0
  163.0630  214.4480  147.9520 C   0  0  0  0  0  1  0  0  0  0  0  0
  159.5140  210.4330  155.5580 C   0  0  0  0  0  2  0  0  0  0  0  0
  158.4670  212.0240  153.9310 C   0  0  1  0  0  3  0  0  0  0  0  0
  160.0670  213.5450  155.0430 F   0  0  0  0  0  0  0  0  0  0  0  0
  159.3660  213.2500  153.8790 C   0  0  2  0  0  0  0  0  0  0  0  0
  155.7340  213.2500  157.1590 O   0  0  0  0  0  0  0  0  0  0  0  0
  155.8070  211.5190  155.0990 C   0  0  0  0  0  2  0  0  0  0  0  0
  158.3710  211.4120  155.3350 C   0  0  1  0  0  3  0  0  0  0  0  0
  157.3380  214.0260  155.1490 C   0  0  0  0  0  2  0  0  0  0  0  0
  157.0230  210.7230  155.5810 C   0  0  0  0  0  2  0  0  0  0  0  0
  155.8300  213.2170  155.6600 S   0  0  0  0  0  0  0  0  0  0  0  0
  157.8570  213.4440  153.8290 C   0  0  2  0  0  3  0  0  0  0  0  0
  154.6560  213.9440  155.0720 O   0  0  0  0  0  0  0  0  0  0  0  0
  160.0410  213.3690  152.6570 O   0  0  0  0  0  0  0  0  0  0  0  0
  159.8710  214.4410  150.6500 O   0  0  0  0  0  1  0  0  0  0  0  0
  159.1820  214.0710  151.8040 C   0  0  0  0  0  2  0  0  0  0  0  0
  1 15  1  0  0  0  0
  2  1  2  0  0  0  0
  2  5  1  0  0  0  0
  3  2  1  0  0  0  0
  4  8  1  0  0  0  0
  4 37  1  0  0  0  0
  5 14  1  0  0  0  0
  5  8  2  0  0  0  0
  6 17  1  6  0  0  0
  6  3  1  0  0  0  0
  9 16  1  0  0  0  0
 10 12  1  0  0  0  0
 10  6  1  0  0  0  0
 11  3  2  0  0  0  0
 11  9  1  0  0  0  0
 12 13  1  0  0  0  0
 13 11  1  0  0  0  0
 14  7  2  0  0  0  0
 15  4  2  0  0  0  0
 16 14  1  0  0  0  0
 18 17  1  0  0  0  0
 19 20  2  0  0  0  0
 19 35  1  0  0  0  0
 20 18  1  0  0  0  0
 21 22  1  0  0  0  0
 22 25  1  0  0  0  0
 23 26  1  0  0  0  0
 24 27  1  6  0  0  0
 24 31  1  0  0  0  0
 24 34  1  0  0  0  0
 26 21  1  1  0  0  0
 26 28  1  0  0  0  0
 28 30  1  1  0  0  0
 30 25  1  0  0  0  0
 31 29  1  0  0  0  0
 32 28  1  0  0  0  0
 32 19  1  0  0  0  0
 33 29  1  6  0  0  0
 33 32  1  0  0  0  0
 34 23  1  1  0  0  0
 34 33  1  0  0  0  0
 35 36  1  0  0  0  0
 38 43  1  0  0  0  0
 40 38  1  0  0  0  0
 40 39  1  0  0  0  0
 42 45  1  0  0  0  0
 42 46  1  0  0  0  0
 43 37  1  0  0  0  0
 43 45  1  0  0  0  0
 44 46  1  0  0  0  0
 46 41  2  0  0  0  0
 47 40  1  0  0  0  0
 47 38  1  0  0  0  0
 47 44  1  0  0  0  0
 48 46  2  0  0  0  0
 49 40  1  0  0  0  0
 50 51  1  0  0  0  0
 51 49  1  0  0  0  0
M  END
>  <MODEL>
5

>  <REMARK>
 VINA RESULT:      -6.3      3.478      6.922
  Name = 
  9 active torsions:
  status: ('A' for Active; 'I' for Inactive)
    1  A    between atoms: O_1  and  C_18
    2  A    between atoms: C_2  and  C_15
    3  A    between atoms: C_2  and  C_35
    4  A    between atoms: O_8  and  C_12
    5  A    between atoms: O_8  and  C_41
    6  A    between atoms: C_14  and  C_25
    7  A    between atoms: C_15  and  C_17
    8  A    between atoms: C_18  and  N_44
    9  A    between atoms: C_25  and  C_34
                            x       y       z     vdW  Elec       q    Type
                         _______ _______ _______ _____ _____    ______ ____

>  <TORSDO>
F 9

$$$$
=
 OpenBabel11042420203D

 51 58  0  0  1  0  0  0  0  0999 V2000
  160.2320  210.1210  152.1970 C   0  0  0  0  0  3  0  0  0  0  0  0
  160.2210  210.2000  153.5990 C   0  0  0  0  0  0  0  0  0  0  0  0
  160.3100  208.9290  154.3880 C   0  0  0  0  0  0  0  0  0  0  0  0
  160.3330  212.5210  151.9960 C   0  0  0  0  0  0  0  0  0  0  0  0
  160.2100  211.4860  154.1940 C   0  0  0  0  0  0  0  0  0  0  0  0
  161.4300  207.9090  154.0990 C   0  0  1  0  0  3  0  0  0  0  0  0
  160.6110  212.6390  156.2170 O   0  0  0  0  0  0  0  0  0  0  0  0
  160.2880  212.6280  153.3850 C   0  0  0  0  0  3  0  0  0  0  0  0
  158.6280  209.6700  156.0050 N   0  0  0  0  0  2  0  0  0  0  0  0
  161.1450  206.6200  154.5950 O   0  0  0  0  0  0  0  0  0  0  0  0
  159.5570  208.7130  155.4950 C   0  0  0  0  0  0  0  0  0  0  0  0
  160.9760  206.7420  155.9780 C   0  0  0  0  0  2  0  0  0  0  0  0
  159.6390  207.4110  156.2390 C   0  0  0  0  0  2  0  0  0  0  0  0
  160.0120  211.6990  155.6320 C   0  0  0  0  0  0  0  0  0  0  0  0
  160.2860  211.2640  151.4000 C   0  0  0  0  0  3  0  0  0  0  0  0
  158.9970  210.9830  156.3280 N   0  0  0  0  0  2  0  0  0  0  0  0
  161.9010  207.8050  152.6450 C   0  0  0  0  0  2  0  0  0  0  0  0
  160.7470  207.8460  151.6440 C   0  0  0  0  0  2  0  0  0  0  0  0
  161.1320  206.5810  149.4810 C   0  0  0  0  0  0  0  0  0  0  0  0
  160.7530  206.6340  150.7690 C   0  0  0  0  0  3  0  0  0  0  0  0
  161.8290  203.7310  145.4130 C   0  0  0  0  0  2  0  0  0  0  0  0
  162.0050  205.0700  144.8270 N   0  0  0  0  0  2  0  0  0  0  0  0
  161.5540  202.6960  147.6620 N   0  0  0  0  0  2  0  0  0  0  0  0
  160.9290  201.8630  149.9230 C   0  0  2  0  0  3  0  0  0  0  0  0
  160.9510  205.8610  145.1920 O   0  0  0  0  0  0  0  0  0  0  0  0
  161.2200  203.8410  146.8110 C   0  0  1  0  0  3  0  0  0  0  0  0
  159.9060  200.9250  149.7900 O   0  0  0  0  0  1  0  0  0  0  0  0
  161.6480  205.1790  147.4470 C   0  0  1  0  0  3  0  0  0  0  0  0
  160.7680  204.0630  150.8770 O   0  0  0  0  0  0  0  0  0  0  0  0
  161.2030  206.3200  146.5110 C   0  0  0  0  0  2  0  0  0  0  0  0
  160.7180  202.6850  151.1970 C   0  0  0  0  0  2  0  0  0  0  0  0
  161.1410  205.2990  148.8270 N   0  0  0  0  0  0  0  0  0  0  0  0
  161.3610  204.0800  149.6130 C   0  0  2  0  0  3  0  0  0  0  0  0
  160.7880  202.9140  148.8810 C   0  0  1  0  0  3  0  0  0  0  0  0
  161.5200  207.7080  148.7340 O   0  0  0  0  0  0  0  0  0  0  0  0
  162.3910  208.7350  149.1890 C   0  0  0  0  0  1  0  0  0  0  0  0
  160.4400  213.7480  151.1550 C   0  0  0  0  0  2  0  0  0  0  0  0
  158.1970  214.4510  150.2890 C   0  0  1  0  0  3  0  0  0  0  0  0
  157.5730  212.3460  151.4270 F   0  0  0  0  0  0  0  0  0  0  0  0
  157.1630  213.6130  151.0260 C   0  0  2  0  0  0  0  0  0  0  0  0
  158.9170  211.8440  146.8140 O   0  0  0  0  0  0  0  0  0  0  0  0
  159.2180  214.4230  147.5240 C   0  0  0  0  0  2  0  0  0  0  0  0
  159.4820  213.6740  149.9750 C   0  0  1  0  0  3  0  0  0  0  0  0
  157.1850  212.6580  148.6990 C   0  0  0  0  0  2  0  0  0  0  0  0
  160.1690  214.1720  148.6970 C   0  0  0  0  0  2  0  0  0  0  0  0
  158.1170  213.0470  147.2250 S   0  0  0  0  0  0  0  0  0  0  0  0
  156.9480  213.9120  149.5490 C   0  0  2  0  0  3  0  0  0  0  0  0
  157.1650  213.4100  146.1220 O   0  0  0  0  0  0  0  0  0  0  0  0
  156.3980  214.3710  151.9220 O   0  0  0  0  0  0  0  0  0  0  0  0
  155.8620  214.3500  154.1400 O   0  0  0  0  0  1  0  0  0  0  0  0
  156.8420  214.0240  153.2030 C   0  0  0  0  0  2  0  0  0  0  0  0
  1  2  1  0  0  0  0
  2  5  2  0  0  0  0
  2  3  1  0  0  0  0
  3 11  2  0  0  0  0
  4  8  2  0  0  0  0
  5 14  1  0  0  0  0
  6 17  1  6  0  0  0
  6  3  1  0  0  0  0
  6 10  1  0  0  0  0
  8  5  1  0  0  0  0
  9 16  1  0  0  0  0
 10 12  1  0  0  0  0
 11  9  1  0  0  0  0
 11 13  1  0  0  0  0
 12 13  1  0  0  0  0
 14  7  2  0  0  0  0
 14 16  1  0  0  0  0
 15  4  1  0  0  0  0
 15  1  2  0  0  0  0
 18 17  1  0  0  0  0
 19 20  2  0  0  0  0
 20 18  1  0  0  0  0
 22 25  1  0  0  0  0
 22 21  1  0  0  0  0
 24 27  1  6  0  0  0
 24 31  1  0  0  0  0
 25 30  1  0  0  0  0
 26 21  1  6  0  0  0
 26 28  1  0  0  0  0
 26 23  1  0  0  0  0
 28 30  1  6  0  0  0
 28 32  1  0  0  0  0
 29 31  1  0  0  0  0
 32 19  1  0  0  0  0
 32 33  1  0  0  0  0
 33 29  1  1  0  0  0
 34 23  1  6  0  0  0
 34 33  1  0  0  0  0
 34 24  1  0  0  0  0
 35 36  1  0  0  0  0
 35 19  1  0  0  0  0
 37  4  1  0  0  0  0
 38 40  1  0  0  0  0
 40 39  1  0  0  0  0
 40 49  1  0  0  0  0
 41 46  2  0  0  0  0
 42 45  1  0  0  0  0
 43 38  1  0  0  0  0
 43 37  1  0  0  0  0
 44 47  1  0  0  0  0
 45 43  1  0  0  0  0
 46 42  1  0  0  0  0
 46 44  1  0  0  0  0
 47 38  1  0  0  0  0
 47 40  1  0  0  0  0
 48 46  2  0  0  0  0
 49 51  1  0  0  0  0
 51 50  1  0  0  0  0
M  END
>  <MODEL>
6

>  <REMARK>
 VINA RESULT:      -5.8      3.471      8.415
  Name = 
  9 active torsions:
  status: ('A' for Active; 'I' for Inactive)
    1  A    between atoms: O_1  and  C_18
    2  A    between atoms: C_2  and  C_15
    3  A    between atoms: C_2  and  C_35
    4  A    between atoms: O_8  and  C_12
    5  A    between atoms: O_8  and  C_41
    6  A    between atoms: C_14  and  C_25
    7  A    between atoms: C_15  and  C_17
    8  A    between atoms: C_18  and  N_44
    9  A    between atoms: C_25  and  C_34
                            x       y       z     vdW  Elec       q    Type
                         _______ _______ _______ _____ _____    ______ ____

>  <TORSDO>
F 9

$$$$
=
 OpenBabel11042420203D

 51 58  0  0  1  0  0  0  0  0999 V2000
  160.2170  210.1700  152.2120 C   0  0  0  0  0  3  0  0  0  0  0  0
  160.0930  210.3460  153.5990 C   0  0  0  0  0  0  0  0  0  0  0  0
  160.1280  209.1340  154.4800 C   0  0  0  0  0  0  0  0  0  0  0  0
  160.3140  212.5520  151.8520 C   0  0  0  0  0  0  0  0  0  0  0  0
  160.0250  211.6700  154.1000 C   0  0  0  0  0  0  0  0  0  0  0  0
  161.2750  208.1110  154.3530 C   0  0  1  0  0  3  0  0  0  0  0  0
  160.2530  212.9660  156.0630 O   0  0  0  0  0  0  0  0  0  0  0  0
  160.1580  212.7540  153.2210 C   0  0  0  0  0  3  0  0  0  0  0  0
  158.3160  209.9630  155.9030 N   0  0  0  0  0  2  0  0  0  0  0  0
  160.9620  206.8560  154.9140 O   0  0  0  0  0  0  0  0  0  0  0  0
  159.2900  208.9850  155.5370 C   0  0  0  0  0  0  0  0  0  0  0  0
  160.6830  207.0710  156.2670 C   0  0  0  0  0  2  0  0  0  0  0  0
  159.3230  207.7390  156.3750 C   0  0  0  0  0  2  0  0  0  0  0  0
  159.7100  211.9790  155.5000 C   0  0  0  0  0  0  0  0  0  0  0  0
  160.3250  211.2560  151.3440 C   0  0  0  0  0  3  0  0  0  0  0  0
  158.6490  211.3000  156.1610 N   0  0  0  0  0  2  0  0  0  0  0  0
  161.8620  207.9140  152.9520 C   0  0  0  0  0  2  0  0  0  0  0  0
  160.8080  208.0120  151.8490 C   0  0  0  0  0  2  0  0  0  0  0  0
  161.6110  206.6960  149.8360 C   0  0  0  0  0  0  0  0  0  0  0  0
  160.8650  206.8220  150.9460 C   0  0  0  0  0  3  0  0  0  0  0  0
  160.8970  201.7330  149.7600 C   0  0  0  0  0  2  0  0  0  0  0  0
  160.7420  201.9970  151.2010 N   0  0  0  0  0  2  0  0  0  0  0  0
  161.1450  203.0170  147.6400 N   0  0  0  0  0  2  0  0  0  0  0  0
  161.7470  204.4230  145.6760 C   0  0  2  0  0  3  0  0  0  0  0  0
  161.8050  202.7390  151.6370 O   0  0  0  0  0  0  0  0  0  0  0  0
  161.5000  202.9500  149.0600 C   0  0  1  0  0  3  0  0  0  0  0  0
  162.7580  203.7850  144.9580 O   0  0  0  0  0  1  0  0  0  0  0  0
  161.0870  204.2270  149.8200 C   0  0  1  0  0  3  0  0  0  0  0  0
  161.9330  206.4440  146.9630 O   0  0  0  0  0  0  0  0  0  0  0  0
  161.5520  204.0890  151.2830 C   0  0  0  0  0  2  0  0  0  0  0  0
  161.9630  205.9380  145.6410 C   0  0  0  0  0  2  0  0  0  0  0  0
  161.5880  205.4380  149.1400 N   0  0  0  0  0  0  0  0  0  0  0  0
  161.3470  205.4080  147.6930 C   0  0  2  0  0  3  0  0  0  0  0  0
  161.9080  204.1470  147.1280 C   0  0  1  0  0  3  0  0  0  0  0  0
  162.4150  207.7270  149.3150 O   0  0  0  0  0  0  0  0  0  0  0  0
  161.9460  208.8230  148.5400 C   0  0  0  0  0  1  0  0  0  0  0  0
  160.4780  213.7190  150.9370 C   0  0  0  0  0  2  0  0  0  0  0  0
  158.2380  214.4390  150.0790 C   0  0  1  0  0  3  0  0  0  0  0  0
  157.5900  212.3820  151.2870 F   0  0  0  0  0  0  0  0  0  0  0  0
  157.1980  213.6440  150.8530 C   0  0  2  0  0  0  0  0  0  0  0  0
  158.8630  211.7160  146.6760 O   0  0  0  0  0  0  0  0  0  0  0  0
  159.2230  214.3080  147.3030 C   0  0  0  0  0  2  0  0  0  0  0  0
  159.5040  213.6280  149.7720 C   0  0  1  0  0  3  0  0  0  0  0  0
  157.1720  212.6190  148.5560 C   0  0  0  0  0  2  0  0  0  0  0  0
  160.1840  214.0750  148.4720 C   0  0  0  0  0  2  0  0  0  0  0  0
  158.0910  212.9460  147.0600 S   0  0  0  0  0  0  0  0  0  0  0  0
  156.9690  213.9020  149.3710 C   0  0  2  0  0  3  0  0  0  0  0  0
  157.1330  213.2940  145.9580 O   0  0  0  0  0  0  0  0  0  0  0  0
  156.4600  214.4430  151.7360 O   0  0  0  0  0  0  0  0  0  0  0  0
  155.7060  213.4340  153.6380 O   0  0  0  0  0  1  0  0  0  0  0  0
  156.8100  214.0260  153.0250 C   0  0  0  0  0  2  0  0  0  0  0  0
  1  2  1  0  0  0  0
  2  5  2  0  0  0  0
  2  3  1  0  0  0  0
  3 11  2  0  0  0  0
  4  8  2  0  0  0  0
  5 14  1  0  0  0  0
  6 17  1  6  0  0  0
  6  3  1  0  0  0  0
  6 10  1  0  0  0  0
  8  5  1  0  0  0  0
  9 16  1  0  0  0  0
 10 12  1  0  0  0  0
 11  9  1  0  0  0  0
 11 13  1  0  0  0  0
 12 13  1  0  0  0  0
 14  7  2  0  0  0  0
 14 16  1  0  0  0  0
 15  4  1  0  0  0  0
 15  1  2  0  0  0  0
 18 17  1  0  0  0  0
 19 20  2  0  0  0  0
 20 18  1  0  0  0  0
 21 22  1  0  0  0  0
 22 25  1  0  0  0  0
 23 26  1  0  0  0  0
 24 27  1  6  0  0  0
 24 34  1  0  0  0  0
 26 21  1  1  0  0  0
 26 28  1  0  0  0  0
 28 30  1  1  0  0  0
 30 25  1  0  0  0  0
 31 24  1  0  0  0  0
 31 29  1  0  0  0  0
 32 28  1  0  0  0  0
 32 19  1  0  0  0  0
 33 29  1  6  0  0  0
 33 32  1  0  0  0  0
 34 23  1  1  0  0  0
 34 33  1  0  0  0  0
 35 19  1  0  0  0  0
 36 35  1  0  0  0  0
 37  4  1  0  0  0  0
 38 40  1  0  0  0  0
 40 39  1  0  0  0  0
 40 49  1  0  0  0  0
 41 46  2  0  0  0  0
 42 45  1  0  0  0  0
 43 38  1  0  0  0  0
 43 37  1  0  0  0  0
 44 47  1  0  0  0  0
 45 43  1  0  0  0  0
 46 42  1  0  0  0  0
 46 44  1  0  0  0  0
 47 38  1  0  0  0  0
 47 40  1  0  0  0  0
 48 46  2  0  0  0  0
 49 51  1  0  0  0  0
 51 50  1  0  0  0  0
M  END
>  <MODEL>
7

>  <REMARK>
 VINA RESULT:      -5.6      3.478      8.201
  Name = 
  9 active torsions:
  status: ('A' for Active; 'I' for Inactive)
    1  A    between atoms: O_1  and  C_18
    2  A    between atoms: C_2  and  C_15
    3  A    between atoms: C_2  and  C_35
    4  A    between atoms: O_8  and  C_12
    5  A    between atoms: O_8  and  C_41
    6  A    between atoms: C_14  and  C_25
    7  A    between atoms: C_15  and  C_17
    8  A    between atoms: C_18  and  N_44
    9  A    between atoms: C_25  and  C_34
                            x       y       z     vdW  Elec       q    Type
                         _______ _______ _______ _____ _____    ______ ____

>  <TORSDO>
F 9

$$$$
=
 OpenBabel11042420203D

 51 58  0  0  1  0  0  0  0  0999 V2000
  161.3290  209.5010  150.7500 C   0  0  0  0  0  3  0  0  0  0  0  0
  161.5260  208.1120  150.8070 C   0  0  0  0  0  0  0  0  0  0  0  0
  161.5910  207.3450  149.5210 C   0  0  0  0  0  0  0  0  0  0  0  0
  161.6530  209.7120  153.1290 C   0  0  0  0  0  0  0  0  0  0  0  0
  161.7370  207.5200  152.0770 C   0  0  0  0  0  0  0  0  0  0  0  0
  162.5440  207.7940  148.3940 C   0  0  1  0  0  3  0  0  0  0  0  0
  162.5420  205.5740  153.1500 O   0  0  0  0  0  0  0  0  0  0  0  0
  161.8180  208.3320  153.2180 C   0  0  0  0  0  3  0  0  0  0  0  0
  160.2460  205.5020  150.4080 N   0  0  0  0  0  2  0  0  0  0  0  0
  162.1990  207.2630  147.1340 O   0  0  0  0  0  0  0  0  0  0  0  0
  160.9860  206.1410  149.3670 C   0  0  0  0  0  0  0  0  0  0  0  0
  162.2430  205.8700  147.2500 C   0  0  0  0  0  2  0  0  0  0  0  0
  161.0350  205.4180  148.0520 C   0  0  0  0  0  2  0  0  0  0  0  0
  161.7690  206.0680  152.2860 C   0  0  0  0  0  0  0  0  0  0  0  0
  161.3880  210.2960  151.8940 C   0  0  0  0  0  3  0  0  0  0  0  0
  160.7940  205.2350  151.6690 N   0  0  0  0  0  2  0  0  0  0  0  0
  162.7890  209.3000  148.2650 C   0  0  0  0  0  2  0  0  0  0  0  0
  161.5640  210.1330  148.6400 C   0  0  0  0  0  2  0  0  0  0  0  0
  161.0930  212.2860  147.3870 C   0  0  0  0  0  0  0  0  0  0  0  0
  161.0930  210.9460  147.4780 C   0  0  0  0  0  3  0  0  0  0  0  0
  157.5740  214.4120  144.5150 C   0  0  0  0  0  2  0  0  0  0  0  0
  156.7660  214.0450  145.6890 N   0  0  0  0  0  2  0  0  0  0  0  0
  159.9690  214.4450  143.8290 N   0  0  0  0  0  2  0  0  0  0  0  0
  162.3420  214.0740  143.1750 C   0  0  2  0  0  3  0  0  0  0  0  0
  156.9930  212.7320  145.9970 O   0  0  0  0  0  0  0  0  0  0  0  0
  158.9340  213.7170  144.5700 C   0  0  1  0  0  3  0  0  0  0  0  0
  162.3760  213.5570  141.8800 O   0  0  0  0  0  1  0  0  0  0  0  0
  159.3290  213.4910  146.0430 C   0  0  1  0  0  3  0  0  0  0  0  0
  162.9040  212.9270  145.2110 O   0  0  0  0  0  0  0  0  0  0  0  0
  158.2120  212.6710  146.7200 C   0  0  0  0  0  2  0  0  0  0  0  0
  163.4560  213.4440  144.0140 C   0  0  0  0  0  2  0  0  0  0  0  0
  160.6700  212.8850  146.1490 N   0  0  0  0  0  0  0  0  0  0  0  0
  161.6530  213.5450  145.2830 C   0  0  2  0  0  3  0  0  0  0  0  0
  161.1350  213.5740  143.8850 C   0  0  1  0  0  3  0  0  0  0  0  0
  161.4850  213.1400  148.4350 O   0  0  0  0  0  0  0  0  0  0  0  0
  160.7340  213.3880  149.6160 C   0  0  0  0  0  1  0  0  0  0  0  0
  161.7670  210.5590  154.3520 C   0  0  0  0  0  2  0  0  0  0  0  0
  160.0460  210.5540  156.1710 C   0  0  1  0  0  3  0  0  0  0  0  0
  159.3250  208.5610  154.8960 F   0  0  0  0  0  0  0  0  0  0  0  0
  159.3800  209.1860  156.1380 C   0  0  2  0  0  0  0  0  0  0  0  0
  157.3860  212.7310  153.4180 O   0  0  0  0  0  0  0  0  0  0  0  0
  159.1540  213.2500  155.3810 C   0  0  0  0  0  2  0  0  0  0  0  0
  160.4010  211.0790  154.7740 C   0  0  1  0  0  3  0  0  0  0  0  0
  157.6380  210.7410  155.2030 C   0  0  0  0  0  2  0  0  0  0  0  0
  160.3670  212.6110  154.6990 C   0  0  0  0  0  2  0  0  0  0  0  0
  157.6100  212.4980  154.8850 S   0  0  0  0  0  0  0  0  0  0  0  0
  158.5220  210.4120  156.4120 C   0  0  2  0  0  3  0  0  0  0  0  0
  156.4870  213.1220  155.6630 O   0  0  0  0  0  0  0  0  0  0  0  0
  159.7070  208.4040  157.2530 O   0  0  0  0  0  0  0  0  0  0  0  0
  161.7560  207.6550  156.5850 O   0  0  0  0  0  1  0  0  0  0  0  0
  160.4190  207.3030  156.7630 C   0  0  0  0  0  2  0  0  0  0  0  0
  1  2  2  0  0  0  0
  1 15  1  0  0  0  0
  2  5  1  0  0  0  0
  3  2  1  0  0  0  0
  4  8  1  0  0  0  0
  4 37  1  0  0  0  0
  5 14  1  0  0  0  0
  5  8  2  0  0  0  0
  6 17  1  6  0  0  0
  6  3  1  0  0  0  0
  9 16  1  0  0  0  0
 10 12  1  0  0  0  0
 10  6  1  0  0  0  0
 11  3  2  0  0  0  0
 11  9  1  0  0  0  0
 12 13  1  0  0  0  0
 13 11  1  0  0  0  0
 14  7  2  0  0  0  0
 15  4  2  0  0  0  0
 16 14  1  0  0  0  0
 17 18  1  0  0  0  0
 19 20  2  0  0  0  0
 19 35  1  0  0  0  0
 20 18  1  0  0  0  0
 21 22  1  0  0  0  0
 22 25  1  0  0  0  0
 23 26  1  0  0  0  0
 24 27  1  6  0  0  0
 24 34  1  0  0  0  0
 24 31  1  0  0  0  0
 25 30  1  0  0  0  0
 26 21  1  1  0  0  0
 26 28  1  0  0  0  0
 28 32  1  0  0  0  0
 28 30  1  6  0  0  0
 31 29  1  0  0  0  0
 32 19  1  0  0  0  0
 33 29  1  6  0  0  0
 33 32  1  0  0  0  0
 34 23  1  1  0  0  0
 34 33  1  0  0  0  0
 35 36  1  0  0  0  0
 37 43  1  0  0  0  0
 38 47  1  0  0  0  0
 39 40  1  0  0  0  0
 40 38  1  0  0  0  0
 40 47  1  0  0  0  0
 40 49  1  0  0  0  0
 41 46  2  0  0  0  0
 43 38  1  0  0  0  0
 44 47  1  0  0  0  0
 45 43  1  0  0  0  0
 45 42  1  0  0  0  0
 46 44  1  0  0  0  0
 46 42  1  0  0  0  0
 46 48  2  0  0  0  0
 50 51  1  0  0  0  0
 51 49  1  0  0  0  0
M  END
>  <MODEL>
8

>  <REMARK>
 VINA RESULT:      -5.4      2.920      6.289
  Name = 
  9 active torsions:
  status: ('A' for Active; 'I' for Inactive)
    1  A    between atoms: O_1  and  C_18
    2  A    between atoms: C_2  and  C_15
    3  A    between atoms: C_2  and  C_35
    4  A    between atoms: O_8  and  C_12
    5  A    between atoms: O_8  and  C_41
    6  A    between atoms: C_14  and  C_25
    7  A    between atoms: C_15  and  C_17
    8  A    between atoms: C_18  and  N_44
    9  A    between atoms: C_25  and  C_34
                            x       y       z     vdW  Elec       q    Type
                         _______ _______ _______ _____ _____    ______ ____

>  <TORSDO>
F 9

$$$$
