=
 OpenBabel11042420163D

 25 27  0  0  1  0  0  0  0  0999 V2000
  161.1180  207.6490  151.7820 C   0  0  0  0  0  0  0  0  0  0  0  0
  161.1530  208.9380  151.7850 N   0  0  0  0  0  2  0  0  0  0  0  0
  161.2710  209.3700  153.1780 C   0  0  2  0  0  3  0  0  0  0  0  0
  161.2050  207.1170  153.0580 C   0  0  0  0  0  0  0  0  0  0  0  0
  161.0070  206.8190  150.6410 C   0  0  0  0  0  0  0  0  0  0  0  0
  161.1960  205.7350  153.2980 C   0  0  0  0  0  3  0  0  0  0  0  0
  161.0960  204.9240  152.1640 C   0  0  0  0  0  0  0  0  0  0  0  0
  161.0070  205.4400  150.8930 C   0  0  0  0  0  0  0  0  0  0  0  0
  161.2930  208.0810  153.9550 C   0  0  0  0  0  2  0  0  0  0  0  0
  161.0620  203.5520  152.0600 C   0  0  0  0  0  3  0  0  0  0  0  0
  160.9220  204.4690  150.0250 O   0  0  0  0  0  0  0  0  0  0  0  0
  160.9520  203.3240  150.6850 C   0  0  0  0  0  3  0  0  0  0  0  0
  159.3850  210.7260  152.6630 O   0  0  0  0  0  0  0  0  0  0  0  0
  160.0900  210.2020  153.5660 C   0  0  0  0  0  0  0  0  0  0  0  0
  158.6100  210.7920  155.3460 C   0  0  0  0  0  2  0  0  0  0  0  0
  159.7810  210.4100  154.9500 N   0  0  0  0  0  0  0  0  0  0  0  0
  160.9040  207.2840  149.3220 O   0  0  0  0  0  0  0  0  0  0  0  0
  161.9350  207.1690  148.3450 C   0  0  0  0  0  2  0  0  0  0  0  0
  161.4030  206.5100  147.0780 C   0  0  0  0  0  2  0  0  0  0  0  0
  162.4020  205.5120  146.5140 C   0  0  0  0  0  2  0  0  0  0  0  0
  161.9740  204.0890  146.8330 C   0  0  0  0  0  2  0  0  0  0  0  0
  161.2890  203.4590  145.6300 C   0  0  0  0  0  2  0  0  0  0  0  0
  161.0260  201.9790  145.8590 C   0  0  1  0  0  3  0  0  0  0  0  0
  160.7340  201.7080  147.3230 C   0  0  0  0  0  1  0  0  0  0  0  0
  159.8850  201.5660  145.0630 N   0  0  0  0  0  1  0  0  0  0  0  0
  1  2  1  0  0  0  0
  1  4  1  0  0  0  0
  2  3  1  0  0  0  0
  3 14  1  1  0  0  0
  3  9  1  0  0  0  0
  4  6  2  0  0  0  0
  4  9  1  0  0  0  0
  5  8  1  0  0  0  0
  5  1  2  0  0  0  0
  7  6  1  0  0  0  0
  8  7  2  0  0  0  0
 10  7  1  0  0  0  0
 11 12  1  0  0  0  0
 11  8  1  0  0  0  0
 12 10  2  0  0  0  0
 13 14  2  0  0  0  0
 14 16  1  0  0  0  0
 16 15  2  0  0  0  0
 17  5  1  0  0  0  0
 18 17  1  0  0  0  0
 19 18  1  0  0  0  0
 20 21  1  0  0  0  0
 20 19  1  0  0  0  0
 22 23  1  0  0  0  0
 22 21  1  0  0  0  0
 23 24  1  1  0  0  0
 25 23  1  0  0  0  0
M  END
>  <MODEL>
1

>  <REMARK>
 VINA RESULT:      -7.7      0.000      0.000
  Name = 
  9 active torsions:
  status: ('A' for Active; 'I' for Inactive)
    1  A    between atoms: C_2  and  C_5
    2  A    between atoms: C_4  and  C_13
    3  A    between atoms: C_4  and  C_23
    4  A    between atoms: C_5  and  C_10
    5  A    between atoms: C_7  and  C_8
    6  A    between atoms: C_8  and  N_12
    7  A    between atoms: C_10  and  C_23
    8  A    between atoms: C_13  and  O_16
    9  A    between atoms: C_14  and  O_16
                            x       y       z     vdW  Elec       q    Type
                         _______ _______ _______ _____ _____    ______ ____

>  <TORSDO>
F 9

$$$$
=
 OpenBabel11042420163D

 25 27  0  0  1  0  0  0  0  0999 V2000
  160.9010  204.9440  149.1880 C   0  0  0  0  0  0  0  0  0  0  0  0
  160.7480  206.0820  149.7730 N   0  0  0  0  0  2  0  0  0  0  0  0
  160.9330  207.1230  148.7610 C   0  0  2  0  0  3  0  0  0  0  0  0
  161.1760  205.0790  147.8370 C   0  0  0  0  0  0  0  0  0  0  0  0
  160.8070  203.6700  149.7990 C   0  0  0  0  0  0  0  0  0  0  0  0
  161.3710  203.9730  146.9960 C   0  0  0  0  0  3  0  0  0  0  0  0
  161.2680  202.7210  147.6080 C   0  0  0  0  0  0  0  0  0  0  0  0
  160.9960  202.5740  148.9470 C   0  0  0  0  0  0  0  0  0  0  0  0
  161.2190  206.3540  147.5000 C   0  0  0  0  0  2  0  0  0  0  0  0
  161.4020  201.4610  147.0690 C   0  0  0  0  0  3  0  0  0  0  0  0
  160.9580  201.3070  149.2560 O   0  0  0  0  0  0  0  0  0  0  0  0
  161.1950  200.6090  148.1580 C   0  0  0  0  0  3  0  0  0  0  0  0
  162.8330  208.4430  148.2050 O   0  0  0  0  0  0  0  0  0  0  0  0
  162.0900  208.0000  149.1210 C   0  0  0  0  0  0  0  0  0  0  0  0
  162.1590  209.4970  150.9810 C   0  0  0  0  0  2  0  0  0  0  0  0
  162.3540  208.3150  150.4940 N   0  0  0  0  0  0  0  0  0  0  0  0
  160.5430  203.4560  151.1600 O   0  0  0  0  0  0  0  0  0  0  0  0
  161.4440  203.7780  152.2150 C   0  0  0  0  0  2  0  0  0  0  0  0
  160.8380  204.8270  153.1400 C   0  0  0  0  0  2  0  0  0  0  0  0
  161.7280  206.0550  153.2410 C   0  0  0  0  0  2  0  0  0  0  0  0
  160.9170  207.2710  153.6570 C   0  0  0  0  0  2  0  0  0  0  0  0
  160.4350  207.1210  155.0920 C   0  0  0  0  0  2  0  0  0  0  0  0
  160.6070  208.4180  155.8680 C   0  0  1  0  0  3  0  0  0  0  0  0
  161.8890  208.3890  156.6790 C   0  0  0  0  0  1  0  0  0  0  0  0
  160.6580  209.5300  154.9380 N   0  0  0  0  0  1  0  0  0  0  0  0
  1  2  1  0  0  0  0
  1  5  1  0  0  0  0
  3 14  1  1  0  0  0
  3  2  1  0  0  0  0
  4  1  2  0  0  0  0
  5 17  1  0  0  0  0
  6  7  2  0  0  0  0
  6  4  1  0  0  0  0
  7  8  1  0  0  0  0
  8 11  1  0  0  0  0
  8  5  2  0  0  0  0
  9  4  1  0  0  0  0
  9  3  1  0  0  0  0
 10  7  1  0  0  0  0
 10 12  2  0  0  0  0
 12 11  1  0  0  0  0
 13 14  2  0  0  0  0
 14 16  1  0  0  0  0
 16 15  2  0  0  0  0
 17 18  1  0  0  0  0
 18 19  1  0  0  0  0
 19 20  1  0  0  0  0
 20 21  1  0  0  0  0
 21 22  1  0  0  0  0
 22 23  1  0  0  0  0
 23 24  1  6  0  0  0
 25 23  1  0  0  0  0
M  END
>  <MODEL>
2

>  <REMARK>
 VINA RESULT:      -7.3      2.378      6.726
  Name = 
  9 active torsions:
  status: ('A' for Active; 'I' for Inactive)
    1  A    between atoms: C_2  and  C_5
    2  A    between atoms: C_4  and  C_13
    3  A    between atoms: C_4  and  C_23
    4  A    between atoms: C_5  and  C_10
    5  A    between atoms: C_7  and  C_8
    6  A    between atoms: C_8  and  N_12
    7  A    between atoms: C_10  and  C_23
    8  A    between atoms: C_13  and  O_16
    9  A    between atoms: C_14  and  O_16
                            x       y       z     vdW  Elec       q    Type
                         _______ _______ _______ _____ _____    ______ ____

>  <TORSDO>
F 9

$$$$
=
 OpenBabel11042420163D

 25 27  0  0  1  0  0  0  0  0999 V2000
  161.6600  208.8650  152.4980 C   0  0  0  0  0  0  0  0  0  0  0  0
  161.8140  210.1420  152.4270 N   0  0  0  0  0  2  0  0  0  0  0  0
  161.3350  210.7110  153.6880 C   0  0  2  0  0  3  0  0  0  0  0  0
  161.1140  208.4660  153.7060 C   0  0  0  0  0  0  0  0  0  0  0  0
  161.9930  207.9260  151.4910 C   0  0  0  0  0  0  0  0  0  0  0  0
  160.8650  207.1190  154.0100 C   0  0  0  0  0  3  0  0  0  0  0  0
  161.2060  206.2000  153.0140 C   0  0  0  0  0  0  0  0  0  0  0  0
  161.7470  206.5840  151.8100 C   0  0  0  0  0  0  0  0  0  0  0  0
  160.8830  209.5120  154.4760 C   0  0  0  0  0  2  0  0  0  0  0  0
  161.0900  204.8280  153.0010 C   0  0  0  0  0  3  0  0  0  0  0  0
  161.9660  205.5330  151.0670 O   0  0  0  0  0  0  0  0  0  0  0  0
  161.5870  204.4630  151.7450 C   0  0  0  0  0  3  0  0  0  0  0  0
  159.6080  212.1740  154.4200 O   0  0  0  0  0  0  0  0  0  0  0  0
  160.1930  211.6430  153.4380 C   0  0  0  0  0  0  0  0  0  0  0  0
  159.7460  213.1070  151.6050 C   0  0  0  0  0  2  0  0  0  0  0  0
  159.7630  211.9120  152.0980 N   0  0  0  0  0  0  0  0  0  0  0  0
  162.5370  208.2550  150.2410 O   0  0  0  0  0  0  0  0  0  0  0  0
  161.7690  208.4910  149.0660 C   0  0  0  0  0  2  0  0  0  0  0  0
  161.9730  207.3680  148.0550 C   0  0  0  0  0  2  0  0  0  0  0  0
  160.8060  206.3940  148.0690 C   0  0  0  0  0  2  0  0  0  0  0  0
  161.2610  205.0080  147.6420 C   0  0  0  0  0  2  0  0  0  0  0  0
  162.4490  205.1060  146.6970 C   0  0  0  0  0  2  0  0  0  0  0  0
  162.1490  204.4370  145.3650 C   0  0  1  0  0  3  0  0  0  0  0  0
  161.2700  203.2170  145.5650 C   0  0  0  0  0  1  0  0  0  0  0  0
  161.4630  205.3790  144.4990 N   0  0  0  0  0  1  0  0  0  0  0  0
  1  4  1  0  0  0  0
  2  1  1  0  0  0  0
  2  3  1  0  0  0  0
  3 14  1  6  0  0  0
  3  9  1  0  0  0  0
  4  6  2  0  0  0  0
  4  9  1  0  0  0  0
  5  8  1  0  0  0  0
  5  1  2  0  0  0  0
  7  6  1  0  0  0  0
  8  7  2  0  0  0  0
 10  7  1  0  0  0  0
 11 12  1  0  0  0  0
 11  8  1  0  0  0  0
 12 10  2  0  0  0  0
 14 13  2  0  0  0  0
 15 16  2  0  0  0  0
 16 14  1  0  0  0  0
 17  5  1  0  0  0  0
 18 17  1  0  0  0  0
 19 20  1  0  0  0  0
 19 18  1  0  0  0  0
 21 20  1  0  0  0  0
 22 21  1  0  0  0  0
 23 24  1  1  0  0  0
 23 22  1  0  0  0  0
 25 23  1  0  0  0  0
M  END
>  <MODEL>
3

>  <REMARK>
 VINA RESULT:      -7.3      1.735      2.202
  Name = 
  9 active torsions:
  status: ('A' for Active; 'I' for Inactive)
    1  A    between atoms: C_2  and  C_5
    2  A    between atoms: C_4  and  C_13
    3  A    between atoms: C_4  and  C_23
    4  A    between atoms: C_5  and  C_10
    5  A    between atoms: C_7  and  C_8
    6  A    between atoms: C_8  and  N_12
    7  A    between atoms: C_10  and  C_23
    8  A    between atoms: C_13  and  O_16
    9  A    between atoms: C_14  and  O_16
                            x       y       z     vdW  Elec       q    Type
                         _______ _______ _______ _____ _____    ______ ____

>  <TORSDO>
F 9

$$$$
=
 OpenBabel11042420163D

 25 27  0  0  1  0  0  0  0  0999 V2000
  161.2160  207.6970  153.1900 C   0  0  0  0  0  0  0  0  0  0  0  0
  160.9510  207.4120  154.4190 N   0  0  0  0  0  2  0  0  0  0  0  0
  160.5630  208.6560  155.0840 C   0  0  2  0  0  3  0  0  0  0  0  0
  161.0480  209.0440  152.9150 C   0  0  0  0  0  0  0  0  0  0  0  0
  161.6330  206.7840  152.1910 C   0  0  0  0  0  0  0  0  0  0  0  0
  161.2710  209.5830  151.6390 C   0  0  0  0  0  3  0  0  0  0  0  0
  161.6730  208.6720  150.6580 C   0  0  0  0  0  0  0  0  0  0  0  0
  161.8450  207.3340  150.9200 C   0  0  0  0  0  0  0  0  0  0  0  0
  160.6640  209.6920  153.9980 C   0  0  0  0  0  2  0  0  0  0  0  0
  161.9660  208.8780  149.3280 C   0  0  0  0  0  3  0  0  0  0  0  0
  162.2240  206.7140  149.8350 O   0  0  0  0  0  0  0  0  0  0  0  0
  162.3070  207.6050  148.8610 C   0  0  0  0  0  3  0  0  0  0  0  0
  161.9520  208.0230  156.9090 O   0  0  0  0  0  0  0  0  0  0  0  0
  161.5090  208.9660  156.2000 C   0  0  0  0  0  0  0  0  0  0  0  0
  163.1120  210.6580  156.7190 C   0  0  0  0  0  2  0  0  0  0  0  0
  161.8900  210.3210  156.4650 N   0  0  0  0  0  0  0  0  0  0  0  0
  161.8340  205.4120  152.3980 O   0  0  0  0  0  0  0  0  0  0  0  0
  160.8500  204.4100  152.1620 C   0  0  0  0  0  2  0  0  0  0  0  0
  161.4460  203.2450  151.3810 C   0  0  0  0  0  2  0  0  0  0  0  0
  160.6380  202.9510  150.1260 C   0  0  0  0  0  2  0  0  0  0  0  0
  160.9600  203.9590  149.0350 C   0  0  0  0  0  2  0  0  0  0  0  0
  161.5820  203.2610  147.8350 C   0  0  0  0  0  2  0  0  0  0  0  0
  161.5280  204.1420  146.5970 C   0  0  1  0  0  3  0  0  0  0  0  0
  162.8500  204.8570  146.3910 C   0  0  0  0  0  1  0  0  0  0  0  0
  161.2460  203.3190  145.4350 N   0  0  0  0  0  1  0  0  0  0  0  0
  1  2  1  0  0  0  0
  2  3  1  0  0  0  0
  3 14  1  1  0  0  0
  4  1  1  0  0  0  0
  4  9  1  0  0  0  0
  5 17  1  0  0  0  0
  5  1  2  0  0  0  0
  6  4  2  0  0  0  0
  7  8  2  0  0  0  0
  7  6  1  0  0  0  0
  8  5  1  0  0  0  0
  9  3  1  0  0  0  0
 10  7  1  0  0  0  0
 11  8  1  0  0  0  0
 12 10  2  0  0  0  0
 12 11  1  0  0  0  0
 14 16  1  0  0  0  0
 14 13  2  0  0  0  0
 16 15  2  0  0  0  0
 18 17  1  0  0  0  0
 19 18  1  0  0  0  0
 20 19  1  0  0  0  0
 21 20  1  0  0  0  0
 22 21  1  0  0  0  0
 23 24  1  6  0  0  0
 23 22  1  0  0  0  0
 25 23  1  0  0  0  0
M  END
>  <MODEL>
4

>  <REMARK>
 VINA RESULT:      -7.3      2.086      3.622
  Name = 
  9 active torsions:
  status: ('A' for Active; 'I' for Inactive)
    1  A    between atoms: C_2  and  C_5
    2  A    between atoms: C_4  and  C_13
    3  A    between atoms: C_4  and  C_23
    4  A    between atoms: C_5  and  C_10
    5  A    between atoms: C_7  and  C_8
    6  A    between atoms: C_8  and  N_12
    7  A    between atoms: C_10  and  C_23
    8  A    between atoms: C_13  and  O_16
    9  A    between atoms: C_14  and  O_16
                            x       y       z     vdW  Elec       q    Type
                         _______ _______ _______ _____ _____    ______ ____

>  <TORSDO>
F 9

$$$$
=
 OpenBabel11042420163D

 25 27  0  0  1  0  0  0  0  0999 V2000
  161.8470  206.3240  150.1020 C   0  0  0  0  0  0  0  0  0  0  0  0
  162.1800  205.7140  149.0170 N   0  0  0  0  0  2  0  0  0  0  0  0
  162.2150  206.7120  147.9470 C   0  0  2  0  0  3  0  0  0  0  0  0
  161.6440  207.6790  149.9030 C   0  0  0  0  0  0  0  0  0  0  0  0
  161.6940  205.7330  151.3800 C   0  0  0  0  0  0  0  0  0  0  0  0
  161.2840  208.5460  150.9460 C   0  0  0  0  0  3  0  0  0  0  0  0
  161.1440  207.9540  152.2050 C   0  0  0  0  0  0  0  0  0  0  0  0
  161.3410  206.6100  152.4140 C   0  0  0  0  0  0  0  0  0  0  0  0
  161.8380  207.9940  148.6370 C   0  0  0  0  0  2  0  0  0  0  0  0
  160.8070  208.5200  153.4140 C   0  0  0  0  0  3  0  0  0  0  0  0
  161.1450  206.3240  153.6720 O   0  0  0  0  0  0  0  0  0  0  0  0
  160.8230  207.4410  154.3030 C   0  0  0  0  0  3  0  0  0  0  0  0
  159.9910  206.5030  147.1270 O   0  0  0  0  0  0  0  0  0  0  0  0
  161.2200  206.3700  146.8840 C   0  0  0  0  0  0  0  0  0  0  0  0
  162.4000  204.8250  145.4950 C   0  0  0  0  0  2  0  0  0  0  0  0
  161.6660  205.8830  145.6120 N   0  0  0  0  0  0  0  0  0  0  0  0
  161.8720  204.3690  151.6550 O   0  0  0  0  0  0  0  0  0  0  0  0
  160.8350  203.3950  151.5950 C   0  0  0  0  0  2  0  0  0  0  0  0
  160.6890  202.8500  150.1790 C   0  0  0  0  0  2  0  0  0  0  0  0
  160.7510  201.3310  150.1630 C   0  0  0  0  0  2  0  0  0  0  0  0
  161.1770  200.8280  148.7940 C   0  0  0  0  0  2  0  0  0  0  0  0
  160.6920  201.7730  147.7060 C   0  0  0  0  0  2  0  0  0  0  0  0
  161.0970  201.2780  146.3260 C   0  0  1  0  0  3  0  0  0  0  0  0
  161.2950  199.7740  146.3340 C   0  0  0  0  0  1  0  0  0  0  0  0
  160.0580  201.6160  145.3710 N   0  0  0  0  0  1  0  0  0  0  0  0
  1  5  1  0  0  0  0
  2  1  1  0  0  0  0
  3 14  1  6  0  0  0
  3  9  1  0  0  0  0
  3  2  1  0  0  0  0
  4  1  2  0  0  0  0
  4  6  1  0  0  0  0
  5 17  1  0  0  0  0
  5  8  2  0  0  0  0
  6  7  2  0  0  0  0
  7  8  1  0  0  0  0
  7 10  1  0  0  0  0
  8 11  1  0  0  0  0
  9  4  1  0  0  0  0
 10 12  2  0  0  0  0
 11 12  1  0  0  0  0
 14 13  2  0  0  0  0
 15 16  2  0  0  0  0
 16 14  1  0  0  0  0
 18 17  1  0  0  0  0
 19 18  1  0  0  0  0
 20 19  1  0  0  0  0
 21 20  1  0  0  0  0
 22 21  1  0  0  0  0
 23 24  1  1  0  0  0
 23 22  1  0  0  0  0
 25 23  1  0  0  0  0
M  END
>  <MODEL>
5

>  <REMARK>
 VINA RESULT:      -7.2      2.449      5.272
  Name = 
  9 active torsions:
  status: ('A' for Active; 'I' for Inactive)
    1  A    between atoms: C_2  and  C_5
    2  A    between atoms: C_4  and  C_13
    3  A    between atoms: C_4  and  C_23
    4  A    between atoms: C_5  and  C_10
    5  A    between atoms: C_7  and  C_8
    6  A    between atoms: C_8  and  N_12
    7  A    between atoms: C_10  and  C_23
    8  A    between atoms: C_13  and  O_16
    9  A    between atoms: C_14  and  O_16
                            x       y       z     vdW  Elec       q    Type
                         _______ _______ _______ _____ _____    ______ ____

>  <TORSDO>
F 9

$$$$
=
 OpenBabel11042420163D

 25 27  0  0  1  0  0  0  0  0999 V2000
  161.6140  204.9280  148.0490 C   0  0  0  0  0  0  0  0  0  0  0  0
  161.5400  203.6970  147.6730 N   0  0  0  0  0  2  0  0  0  0  0  0
  162.0430  203.6280  146.3010 C   0  0  2  0  0  3  0  0  0  0  0  0
  162.1320  205.7500  147.0630 C   0  0  0  0  0  0  0  0  0  0  0  0
  161.2280  205.4410  149.3120 C   0  0  0  0  0  0  0  0  0  0  0  0
  162.3120  207.1290  147.2510 C   0  0  0  0  0  3  0  0  0  0  0  0
  161.9370  207.6230  148.5040 C   0  0  0  0  0  0  0  0  0  0  0  0
  161.4200  206.8170  149.4910 C   0  0  0  0  0  0  0  0  0  0  0  0
  162.4100  205.0510  145.9780 C   0  0  0  0  0  2  0  0  0  0  0  0
  161.9880  208.9070  148.9980 C   0  0  0  0  0  3  0  0  0  0  0  0
  161.1540  207.5300  150.5510 O   0  0  0  0  0  0  0  0  0  0  0  0
  161.4810  208.7850  150.2950 C   0  0  0  0  0  3  0  0  0  0  0  0
  160.4800  203.9270  144.5320 O   0  0  0  0  0  0  0  0  0  0  0  0
  160.9730  203.1350  145.3790 C   0  0  0  0  0  0  0  0  0  0  0  0
  159.6030  201.3070  144.6830 C   0  0  0  0  0  2  0  0  0  0  0  0
  160.5090  201.7830  145.4740 N   0  0  0  0  0  0  0  0  0  0  0  0
  160.6870  204.6730  150.3530 O   0  0  0  0  0  0  0  0  0  0  0  0
  161.4450  204.1320  151.4310 C   0  0  0  0  0  2  0  0  0  0  0  0
  160.9750  204.7090  152.7620 C   0  0  0  0  0  2  0  0  0  0  0  0
  161.7510  205.9660  153.1220 C   0  0  0  0  0  2  0  0  0  0  0  0
  161.0670  206.7100  154.2570 C   0  0  0  0  0  2  0  0  0  0  0  0
  160.8860  208.1770  153.8980 C   0  0  0  0  0  2  0  0  0  0  0  0
  160.9850  209.0610  155.1310 C   0  0  1  0  0  3  0  0  0  0  0  0
  161.5900  208.2950  156.2930 C   0  0  0  0  0  1  0  0  0  0  0  0
  161.8220  210.2090  154.8320 N   0  0  0  0  0  1  0  0  0  0  0  0
  1  5  1  0  0  0  0
  2  1  1  0  0  0  0
  3 14  1  6  0  0  0
  3  2  1  0  0  0  0
  4  6  1  0  0  0  0
  4  1  2  0  0  0  0
  5  8  2  0  0  0  0
  5 17  1  0  0  0  0
  6  7  2  0  0  0  0
  7 10  1  0  0  0  0
  7  8  1  0  0  0  0
  8 11  1  0  0  0  0
  9  3  1  0  0  0  0
  9  4  1  0  0  0  0
 10 12  2  0  0  0  0
 12 11  1  0  0  0  0
 13 14  2  0  0  0  0
 14 16  1  0  0  0  0
 15 16  2  0  0  0  0
 17 18  1  0  0  0  0
 18 19  1  0  0  0  0
 19 20  1  0  0  0  0
 20 21  1  0  0  0  0
 22 21  1  0  0  0  0
 22 23  1  0  0  0  0
 23 24  1  1  0  0  0
 25 23  1  0  0  0  0
M  END
>  <MODEL>
6

>  <REMARK>
 VINA RESULT:      -7.0      1.827      8.254
  Name = 
  9 active torsions:
  status: ('A' for Active; 'I' for Inactive)
    1  A    between atoms: C_2  and  C_5
    2  A    between atoms: C_4  and  C_13
    3  A    between atoms: C_4  and  C_23
    4  A    between atoms: C_5  and  C_10
    5  A    between atoms: C_7  and  C_8
    6  A    between atoms: C_8  and  N_12
    7  A    between atoms: C_10  and  C_23
    8  A    between atoms: C_13  and  O_16
    9  A    between atoms: C_14  and  O_16
                            x       y       z     vdW  Elec       q    Type
                         _______ _______ _______ _____ _____    ______ ____

>  <TORSDO>
F 9

$$$$
=
 OpenBabel11042420163D

 25 27  0  0  1  0  0  0  0  0999 V2000
  161.1410  206.0410  149.1410 C   0  0  0  0  0  0  0  0  0  0  0  0
  161.1090  206.4120  147.9070 N   0  0  0  0  0  2  0  0  0  0  0  0
  161.1320  205.2020  147.0850 C   0  0  2  0  0  3  0  0  0  0  0  0
  161.1800  204.6630  149.2760 C   0  0  0  0  0  0  0  0  0  0  0  0
  161.1360  206.8940  150.2710 C   0  0  0  0  0  0  0  0  0  0  0  0
  161.2100  204.0310  150.5280 C   0  0  0  0  0  3  0  0  0  0  0  0
  161.1950  204.8820  151.6370 C   0  0  0  0  0  0  0  0  0  0  0  0
  161.1580  206.2510  151.5160 C   0  0  0  0  0  0  0  0  0  0  0  0
  161.1840  204.0840  148.0910 C   0  0  0  0  0  2  0  0  0  0  0  0
  161.2150  204.5830  152.9800 C   0  0  0  0  0  3  0  0  0  0  0  0
  161.1540  206.8010  152.7000 O   0  0  0  0  0  0  0  0  0  0  0  0
  161.1870  205.8350  153.6020 C   0  0  0  0  0  3  0  0  0  0  0  0
  163.4550  204.8510  146.7100 O   0  0  0  0  0  0  0  0  0  0  0  0
  162.3470  205.1870  146.2130 C   0  0  0  0  0  0  0  0  0  0  0  0
  161.1530  205.4390  144.1600 C   0  0  0  0  0  2  0  0  0  0  0  0
  162.2480  205.5670  144.8360 N   0  0  0  0  0  0  0  0  0  0  0  0
  161.1080  208.2950  150.2130 O   0  0  0  0  0  0  0  0  0  0  0  0
  162.2460  209.1310  150.4020 C   0  0  0  0  0  2  0  0  0  0  0  0
  162.2040  209.7950  151.7740 C   0  0  0  0  0  2  0  0  0  0  0  0
  160.8300  210.3780  152.0630 C   0  0  0  0  0  2  0  0  0  0  0  0
  160.7760  210.9470  153.4710 C   0  0  0  0  0  2  0  0  0  0  0  0
  160.3580  209.8720  154.4620 C   0  0  0  0  0  2  0  0  0  0  0  0
  161.2430  209.8910  155.7000 C   0  0  1  0  0  3  0  0  0  0  0  0
  161.5890  208.4780  156.1310 C   0  0  0  0  0  1  0  0  0  0  0  0
  162.4670  210.6100  155.4020 N   0  0  0  0  0  1  0  0  0  0  0  0
  1  4  2  0  0  0  0
  1  5  1  0  0  0  0
  2  1  1  0  0  0  0
  3 14  1  6  0  0  0
  3  2  1  0  0  0  0
  3  9  1  0  0  0  0
  4  6  1  0  0  0  0
  5  8  2  0  0  0  0
  6  7  2  0  0  0  0
  7 10  1  0  0  0  0
  8  7  1  0  0  0  0
  8 11  1  0  0  0  0
  9  4  1  0  0  0  0
 10 12  2  0  0  0  0
 11 12  1  0  0  0  0
 14 13  2  0  0  0  0
 15 16  2  0  0  0  0
 16 14  1  0  0  0  0
 17  5  1  0  0  0  0
 17 18  1  0  0  0  0
 18 19  1  0  0  0  0
 19 20  1  0  0  0  0
 20 21  1  0  0  0  0
 21 22  1  0  0  0  0
 22 23  1  0  0  0  0
 23 24  1  6  0  0  0
 25 23  1  0  0  0  0
M  END
>  <MODEL>
7

>  <REMARK>
 VINA RESULT:      -7.0      2.232      7.622
  Name = 
  9 active torsions:
  status: ('A' for Active; 'I' for Inactive)
    1  A    between atoms: C_2  and  C_5
    2  A    between atoms: C_4  and  C_13
    3  A    between atoms: C_4  and  C_23
    4  A    between atoms: C_5  and  C_10
    5  A    between atoms: C_7  and  C_8
    6  A    between atoms: C_8  and  N_12
    7  A    between atoms: C_10  and  C_23
    8  A    between atoms: C_13  and  O_16
    9  A    between atoms: C_14  and  O_16
                            x       y       z     vdW  Elec       q    Type
                         _______ _______ _______ _____ _____    ______ ____

>  <TORSDO>
F 9

$$$$
=
 OpenBabel11042420163D

 25 27  0  0  1  0  0  0  0  0999 V2000
  162.0040  208.7950  149.2830 C   0  0  0  0  0  0  0  0  0  0  0  0
  162.2670  209.6910  148.3940 N   0  0  0  0  0  2  0  0  0  0  0  0
  162.3550  210.9790  149.0830 C   0  0  2  0  0  3  0  0  0  0  0  0
  161.9000  209.3310  150.5560 C   0  0  0  0  0  0  0  0  0  0  0  0
  161.8340  207.4090  149.0490 C   0  0  0  0  0  0  0  0  0  0  0  0
  161.6280  208.5420  151.6840 C   0  0  0  0  0  3  0  0  0  0  0  0
  161.4710  207.1740  151.4420 C   0  0  0  0  0  0  0  0  0  0  0  0
  161.5700  206.6310  150.1840 C   0  0  0  0  0  0  0  0  0  0  0  0
  162.0900  210.6360  150.5240 C   0  0  0  0  0  2  0  0  0  0  0  0
  161.2020  206.1480  152.3200 C   0  0  0  0  0  3  0  0  0  0  0  0
  161.3790  205.3410  150.2410 O   0  0  0  0  0  0  0  0  0  0  0  0
  161.1560  205.0140  151.5030 C   0  0  0  0  0  3  0  0  0  0  0  0
  160.8380  211.7300  147.4120 O   0  0  0  0  0  0  0  0  0  0  0  0
  161.3150  211.9190  148.5620 C   0  0  0  0  0  0  0  0  0  0  0  0
  159.6830  213.5010  149.2940 C   0  0  0  0  0  2  0  0  0  0  0  0
  160.8840  213.0280  149.3600 N   0  0  0  0  0  0  0  0  0  0  0  0
  161.9140  206.7970  147.7890 O   0  0  0  0  0  0  0  0  0  0  0  0
  160.8000  206.5810  146.9280 C   0  0  0  0  0  2  0  0  0  0  0  0
  161.2240  205.8070  145.6850 C   0  0  0  0  0  2  0  0  0  0  0  0
  162.1840  204.6820  146.0360 C   0  0  0  0  0  2  0  0  0  0  0  0
  161.4230  203.3940  146.3040 C   0  0  0  0  0  2  0  0  0  0  0  0
  161.5380  203.0050  147.7700 C   0  0  0  0  0  2  0  0  0  0  0  0
  160.6610  201.8040  148.0910 C   0  0  1  0  0  3  0  0  0  0  0  0
  161.4940  200.5390  148.1670 C   0  0  0  0  0  1  0  0  0  0  0  0
  160.0040  202.0180  149.3670 N   0  0  0  0  0  1  0  0  0  0  0  0
  1  4  1  0  0  0  0
  2  3  1  0  0  0  0
  2  1  1  0  0  0  0
  3 14  1  6  0  0  0
  3  9  1  0  0  0  0
  4  6  2  0  0  0  0
  5  1  2  0  0  0  0
  5  8  1  0  0  0  0
  7  6  1  0  0  0  0
  7 10  1  0  0  0  0
  8 11  1  0  0  0  0
  8  7  2  0  0  0  0
  9  4  1  0  0  0  0
 11 12  1  0  0  0  0
 12 10  2  0  0  0  0
 13 14  2  0  0  0  0
 14 16  1  0  0  0  0
 15 16  2  0  0  0  0
 17  5  1  0  0  0  0
 18 17  1  0  0  0  0
 19 20  1  0  0  0  0
 19 18  1  0  0  0  0
 20 21  1  0  0  0  0
 21 22  1  0  0  0  0
 22 23  1  0  0  0  0
 23 24  1  1  0  0  0
 23 25  1  0  0  0  0
M  END
>  <MODEL>
8

>  <REMARK>
 VINA RESULT:      -6.9      2.697      3.430
  Name = 
  9 active torsions:
  status: ('A' for Active; 'I' for Inactive)
    1  A    between atoms: C_2  and  C_5
    2  A    between atoms: C_4  and  C_13
    3  A    between atoms: C_4  and  C_23
    4  A    between atoms: C_5  and  C_10
    5  A    between atoms: C_7  and  C_8
    6  A    between atoms: C_8  and  N_12
    7  A    between atoms: C_10  and  C_23
    8  A    between atoms: C_13  and  O_16
    9  A    between atoms: C_14  and  O_16
                            x       y       z     vdW  Elec       q    Type
                         _______ _______ _______ _____ _____    ______ ____

>  <TORSDO>
F 9

$$$$
=
 OpenBabel11042420163D

 25 27  0  0  1  0  0  0  0  0999 V2000
  161.1410  205.9600  148.9950 C   0  0  0  0  0  0  0  0  0  0  0  0
  161.1050  206.2510  147.7400 N   0  0  0  0  0  2  0  0  0  0  0  0
  161.1590  204.9910  146.9980 C   0  0  2  0  0  3  0  0  0  0  0  0
  161.2120  204.5950  149.2180 C   0  0  0  0  0  0  0  0  0  0  0  0
  161.1120  206.8840  150.0680 C   0  0  0  0  0  0  0  0  0  0  0  0
  161.2510  204.0450  150.5080 C   0  0  0  0  0  3  0  0  0  0  0  0
  161.2130  204.9650  151.5600 C   0  0  0  0  0  0  0  0  0  0  0  0
  161.1440  206.3220  151.3520 C   0  0  0  0  0  0  0  0  0  0  0  0
  161.2330  203.9410  148.0720 C   0  0  0  0  0  2  0  0  0  0  0  0
  161.2340  204.7530  152.9200 C   0  0  0  0  0  3  0  0  0  0  0  0
  161.1240  206.9470  152.4980 O   0  0  0  0  0  0  0  0  0  0  0  0
  161.1760  206.0410  153.4600 C   0  0  0  0  0  3  0  0  0  0  0  0
  163.4960  204.7090  146.6570 O   0  0  0  0  0  0  0  0  0  0  0  0
  162.3770  204.9490  146.1310 C   0  0  0  0  0  0  0  0  0  0  0  0
  161.1360  205.4560  144.1540 C   0  0  0  0  0  2  0  0  0  0  0  0
  162.2670  205.1950  144.7240 N   0  0  0  0  0  0  0  0  0  0  0  0
  161.0520  208.2770  149.9200 O   0  0  0  0  0  0  0  0  0  0  0  0
  162.1910  209.1200  149.7700 C   0  0  0  0  0  2  0  0  0  0  0  0
  161.9830  210.1060  148.6260 C   0  0  0  0  0  2  0  0  0  0  0  0
  162.1410  211.5410  149.1000 C   0  0  0  0  0  2  0  0  0  0  0  0
  162.2010  212.4920  147.9160 C   0  0  0  0  0  2  0  0  0  0  0  0
  160.8070  212.9860  147.5600 C   0  0  0  0  0  2  0  0  0  0  0  0
  160.6730  213.2240  146.0640 C   0  0  1  0  0  3  0  0  0  0  0  0
  162.0370  213.2300  145.3990 C   0  0  0  0  0  1  0  0  0  0  0  0
  159.8650  212.1680  145.4810 N   0  0  0  0  0  1  0  0  0  0  0  0
  1  4  2  0  0  0  0
  1  5  1  0  0  0  0
  2  1  1  0  0  0  0
  3 14  1  6  0  0  0
  3  2  1  0  0  0  0
  3  9  1  0  0  0  0
  4  6  1  0  0  0  0
  5  8  2  0  0  0  0
  6  7  2  0  0  0  0
  7 10  1  0  0  0  0
  8  7  1  0  0  0  0
  8 11  1  0  0  0  0
  9  4  1  0  0  0  0
 10 12  2  0  0  0  0
 11 12  1  0  0  0  0
 14 13  2  0  0  0  0
 15 16  2  0  0  0  0
 16 14  1  0  0  0  0
 17  5  1  0  0  0  0
 18 17  1  0  0  0  0
 19 20  1  0  0  0  0
 19 18  1  0  0  0  0
 21 20  1  0  0  0  0
 22 21  1  0  0  0  0
 23 24  1  6  0  0  0
 23 22  1  0  0  0  0
 25 23  1  0  0  0  0
M  END
>  <MODEL>
9

>  <REMARK>
 VINA RESULT:      -6.8      3.637      7.188
  Name = 
  9 active torsions:
  status: ('A' for Active; 'I' for Inactive)
    1  A    between atoms: C_2  and  C_5
    2  A    between atoms: C_4  and  C_13
    3  A    between atoms: C_4  and  C_23
    4  A    between atoms: C_5  and  C_10
    5  A    between atoms: C_7  and  C_8
    6  A    between atoms: C_8  and  N_12
    7  A    between atoms: C_10  and  C_23
    8  A    between atoms: C_13  and  O_16
    9  A    between atoms: C_14  and  O_16
                            x       y       z     vdW  Elec       q    Type
                         _______ _______ _______ _____ _____    ______ ____

>  <TORSDO>
F 9

$$$$
