=
 OpenBabel11042421043D

 36 37  0  0  1  0  0  0  0  0999 V2000
  162.2200  210.0700  149.6110 C   0  0  0  0  0  0  0  0  0  0  0  0
  162.1210  209.1360  148.7110 N   0  0  0  0  0  0  0  0  0  0  0  0
  162.3230  209.7280  150.9970 N   0  0  0  0  0  0  0  0  0  0  0  0
  161.5020  210.2020  151.8770 C   0  0  0  0  0  3  0  0  0  0  0  0
  161.6380  209.8410  153.2450 N   0  0  0  0  0  0  0  0  0  0  0  0
  160.6010  209.4590  153.9150 C   0  0  0  0  0  3  0  0  0  0  0  0
  161.3170  209.8280  156.1420 O   0  0  0  0  0  0  0  0  0  0  0  0
  160.7100  209.0800  155.3300 C   0  0  0  0  0  0  0  0  0  0  0  0
  160.1150  207.8000  155.8200 C   0  0  2  0  0  3  0  0  0  0  0  0
  160.5650  207.5170  157.2400 C   0  0  0  0  0  1  0  0  0  0  0  0
  160.4850  206.7430  154.9870 O   0  0  0  0  0  1  0  0  0  0  0  0
  162.0840  207.7060  149.0070 C   0  0  1  0  0  3  0  0  0  0  0  0
  160.7380  207.3140  149.6040 C   0  0  0  0  0  1  0  0  0  0  0  0
  162.3640  206.9010  147.7410 C   0  0  0  0  0  2  0  0  0  0  0  0
  161.2920  205.8430  147.4930 C   0  0  0  0  0  2  0  0  0  0  0  0
  161.9280  204.4770  147.2240 C   0  0  2  0  0  3  0  0  0  0  0  0
  161.9830  204.1490  145.8490 O   0  0  0  0  0  0  0  0  0  0  0  0
  161.1800  203.0180  145.6110 C   0  0  0  0  0  1  0  0  0  0  0  0
  161.2990  203.3670  148.0720 C   0  0  0  0  0  2  0  0  0  0  0  0
  160.9590  201.6480  150.3290 O   0  0  0  0  0  0  0  0  0  0  0  0
  161.1120  203.8060  149.4500 N   0  0  0  0  0  2  0  0  0  0  0  0
  160.9550  202.8910  150.5330 C   0  0  0  0  0  0  0  0  0  0  0  0
  160.8090  203.4090  151.9210 C   0  0  0  0  0  2  0  0  0  0  0  0
  161.5070  204.7480  152.0500 C   0  0  0  0  0  1  0  0  0  0  0  0
  162.2220  211.4190  149.2280 O   0  0  0  0  0  0  0  0  0  0  0  0
  161.0610  212.1070  148.7630 C   0  0  0  0  0  2  0  0  0  0  0  0
  160.5430  212.7640  142.5520 S   0  0  0  0  0  0  0  0  0  0  0  0
  160.8650  212.7120  144.1950 C   0  0  0  0  0  0  0  0  0  0  0  0
  162.8320  213.2590  145.6560 N   0  0  0  0  0  0  0  0  0  0  0  0
  162.0520  213.3260  142.0610 C   0  0  0  0  0  3  0  0  0  0  0  0
  162.4370  212.9630  146.8550 C   0  0  0  0  0  3  0  0  0  0  0  0
  162.8250  213.4810  143.2110 C   0  0  0  0  0  3  0  0  0  0  0  0
  161.1520  212.3990  147.3000 C   0  0  0  0  0  0  0  0  0  0  0  0
  159.9060  212.3070  145.1610 N   0  0  0  0  0  2  0  0  0  0  0  0
  160.0670  212.1400  146.5680 C   0  0  0  0  0  3  0  0  0  0  0  0
  162.1640  213.1380  144.4000 C   0  0  0  0  0  0  0  0  0  0  0  0
  1  3  1  0  0  0  0
  2 12  1  0  0  0  0
  2  1  2  0  0  0  0
  3  4  2  0  0  0  0
  4  5  1  0  0  0  0
  5  6  2  0  0  0  0
  6  8  1  0  0  0  0
  8  9  1  0  0  0  0
  8  7  2  0  0  0  0
  9 10  1  1  0  0  0
 11  9  1  0  0  0  0
 12 13  1  6  0  0  0
 14 12  1  0  0  0  0
 15 14  1  0  0  0  0
 16 15  1  6  0  0  0
 16 19  1  0  0  0  0
 17 16  1  0  0  0  0
 18 17  1  0  0  0  0
 19 21  1  0  0  0  0
 20 22  2  0  0  0  0
 21 22  1  0  0  0  0
 22 23  1  0  0  0  0
 23 24  1  0  0  0  0
 25  1  1  0  0  0  0
 26 25  1  0  0  0  0
 27 28  1  0  0  0  0
 28 36  2  0  0  0  0
 28 34  1  0  0  0  0
 29 31  2  0  0  0  0
 30 27  1  0  0  0  0
 30 32  2  0  0  0  0
 31 33  1  0  0  0  0
 32 36  1  0  0  0  0
 33 26  1  0  0  0  0
 34 35  1  0  0  0  0
 35 33  2  0  0  0  0
 36 29  1  0  0  0  0
M  END
>  <MODEL>
1

>  <REMARK>
 VINA RESULT:      -7.1      0.000      0.000
  Name = 
  15 active torsions:
  status: ('A' for Active; 'I' for Inactive)
    1  A    between atoms: N_1  and  C_18
    2  A    between atoms: O_7  and  C_14
    3  A    between atoms: O_7  and  C_18
    4  A    between atoms: C_9  and  C_23
    5  A    between atoms: C_10  and  N_21
    6  A    between atoms: C_10  and  C_24
    7  A    between atoms: C_11  and  N_30
    8  A    between atoms: C_11  and  C_31
    9  A    between atoms: C_13  and  C_17
   10  A    between atoms: C_14  and  C_25
   11  A    between atoms: C_15  and  C_24
   12  A    between atoms: C_15  and  C_31
   13  A    between atoms: C_17  and  C_29
   14  A    between atoms: N_20  and  C_22
   15  A    between atoms: C_24  and  O_27
                            x       y       z     vdW  Elec       q    Type
                         _______ _______ _______ _____ _____    ______ ____

>  <TORSDO>
F 15

$$$$
=
 OpenBabel11042421043D

 36 37  0  0  1  0  0  0  0  0999 V2000
  162.1510  209.6610  149.1910 C   0  0  0  0  0  0  0  0  0  0  0  0
  162.2320  210.6430  148.3410 N   0  0  0  0  0  0  0  0  0  0  0  0
  161.9620  209.9280  150.5850 N   0  0  0  0  0  0  0  0  0  0  0  0
  162.0750  208.9990  151.4760 C   0  0  0  0  0  3  0  0  0  0  0  0
  161.8770  209.3020  152.8510 N   0  0  0  0  0  0  0  0  0  0  0  0
  160.6810  209.3220  153.3390 C   0  0  0  0  0  3  0  0  0  0  0  0
  159.9470  210.7400  155.0880 O   0  0  0  0  0  0  0  0  0  0  0  0
  160.4450  209.6320  154.7550 C   0  0  0  0  0  0  0  0  0  0  0  0
  160.8040  208.6440  155.8170 C   0  0  2  0  0  3  0  0  0  0  0  0
  160.4090  207.2430  155.3930 C   0  0  0  0  0  1  0  0  0  0  0  0
  160.1730  208.9710  157.0180 O   0  0  0  0  0  1  0  0  0  0  0  0
  162.1630  212.0560  148.7040 C   0  0  1  0  0  3  0  0  0  0  0  0
  163.2220  212.8570  147.9550 C   0  0  0  0  0  1  0  0  0  0  0  0
  160.7690  212.6050  148.4120 C   0  0  0  0  0  2  0  0  0  0  0  0
  160.3290  212.3050  146.9820 C   0  0  0  0  0  2  0  0  0  0  0  0
  159.1110  213.1490  146.5990 C   0  0  2  0  0  3  0  0  0  0  0  0
  157.8830  212.4730  146.7930 O   0  0  0  0  0  0  0  0  0  0  0  0
  157.1550  213.1210  147.8080 C   0  0  0  0  0  1  0  0  0  0  0  0
  159.2390  213.7530  145.1970 C   0  0  0  0  0  2  0  0  0  0  0  0
  160.0570  211.9080  143.1740 O   0  0  0  0  0  0  0  0  0  0  0  0
  160.5970  213.6030  144.6870 N   0  0  0  0  0  2  0  0  0  0  0  0
  160.9360  212.6630  143.6680 C   0  0  0  0  0  0  0  0  0  0  0  0
  162.3350  212.5930  143.1660 C   0  0  0  0  0  2  0  0  0  0  0  0
  163.2660  213.3100  144.1230 C   0  0  0  0  0  1  0  0  0  0  0  0
  162.2550  208.3360  148.7470 O   0  0  0  0  0  0  0  0  0  0  0  0
  161.2140  207.6570  148.0450 C   0  0  0  0  0  2  0  0  0  0  0  0
  161.1170  201.3960  148.3080 S   0  0  0  0  0  0  0  0  0  0  0  0
  161.1610  203.0640  148.4590 C   0  0  0  0  0  0  0  0  0  0  0  0
  160.9230  204.7010  150.3470 N   0  0  0  0  0  0  0  0  0  0  0  0
  160.8210  201.0480  149.9280 C   0  0  0  0  0  3  0  0  0  0  0  0
  161.0280  205.8640  149.7820 C   0  0  0  0  0  3  0  0  0  0  0  0
  160.7600  202.2650  150.6040 C   0  0  0  0  0  3  0  0  0  0  0  0
  161.2100  206.1960  148.3590 C   0  0  0  0  0  0  0  0  0  0  0  0
  161.4040  203.9350  147.3640 N   0  0  0  0  0  0  0  0  0  0  0  0
  161.3890  205.3610  147.3340 C   0  0  0  0  0  3  0  0  0  0  0  0
  160.9490  203.3890  149.7860 C   0  0  2  0  0  3  0  0  0  0  0  0
  1  3  1  0  0  0  0
  2 12  1  0  0  0  0
  2  1  2  0  0  0  0
  3  4  2  0  0  0  0
  4  5  1  0  0  0  0
  5  6  2  0  0  0  0
  6  8  1  0  0  0  0
  8  7  2  0  0  0  0
  8  9  1  0  0  0  0
  9 10  1  6  0  0  0
  9 11  1  0  0  0  0
 12 13  1  6  0  0  0
 14 12  1  0  0  0  0
 15 14  1  0  0  0  0
 16 19  1  6  0  0  0
 16 17  1  0  0  0  0
 16 15  1  0  0  0  0
 17 18  1  0  0  0  0
 20 22  2  0  0  0  0
 21 19  1  0  0  0  0
 22 21  1  0  0  0  0
 23 22  1  0  0  0  0
 23 24  1  0  0  0  0
 25  1  1  0  0  0  0
 26 33  1  0  0  0  0
 26 25  1  0  0  0  0
 27 28  1  0  0  0  0
 27 30  1  0  0  0  0
 28 36  1  0  0  0  0
 30 32  2  0  0  0  0
 31 29  2  0  0  0  0
 33 31  1  0  0  0  0
 34 28  2  0  0  0  0
 35 34  1  0  0  0  0
 35 33  2  0  0  0  0
 36 29  1  0  0  0  0
 36 32  1  1  0  0  0
M  END
>  <MODEL>
2

>  <REMARK>
 VINA RESULT:      -6.9      2.950      8.250
  Name = 
  15 active torsions:
  status: ('A' for Active; 'I' for Inactive)
    1  A    between atoms: N_1  and  C_18
    2  A    between atoms: O_7  and  C_14
    3  A    between atoms: O_7  and  C_18
    4  A    between atoms: C_9  and  C_23
    5  A    between atoms: C_10  and  N_21
    6  A    between atoms: C_10  and  C_24
    7  A    between atoms: C_11  and  N_30
    8  A    between atoms: C_11  and  C_31
    9  A    between atoms: C_13  and  C_17
   10  A    between atoms: C_14  and  C_25
   11  A    between atoms: C_15  and  C_24
   12  A    between atoms: C_15  and  C_31
   13  A    between atoms: C_17  and  C_29
   14  A    between atoms: N_20  and  C_22
   15  A    between atoms: C_24  and  O_27
                            x       y       z     vdW  Elec       q    Type
                         _______ _______ _______ _____ _____    ______ ____

>  <TORSDO>
F 15

$$$$
=
 OpenBabel11042421043D

 36 37  0  0  1  0  0  0  0  0999 V2000
  161.9110  209.2620  150.1480 C   0  0  0  0  0  0  0  0  0  0  0  0
  161.5900  208.0040  150.0650 N   0  0  0  0  0  0  0  0  0  0  0  0
  161.9160  210.0840  148.9750 N   0  0  0  0  0  0  0  0  0  0  0  0
  162.0150  211.3700  149.0480 C   0  0  0  0  0  3  0  0  0  0  0  0
  162.0130  212.1530  147.8610 N   0  0  0  0  0  0  0  0  0  0  0  0
  160.9690  212.1660  147.1010 C   0  0  0  0  0  3  0  0  0  0  0  0
  162.0090  213.2630  145.2780 O   0  0  0  0  0  0  0  0  0  0  0  0
  160.9370  212.9650  145.8690 C   0  0  0  0  0  0  0  0  0  0  0  0
  159.6380  213.4470  145.3110 C   0  0  2  0  0  3  0  0  0  0  0  0
  158.6140  213.6110  146.4180 C   0  0  0  0  0  1  0  0  0  0  0  0
  159.1590  212.5510  144.3540 O   0  0  0  0  0  1  0  0  0  0  0  0
  161.2380  207.3220  148.8220 C   0  0  1  0  0  3  0  0  0  0  0  0
  162.4880  207.0060  148.0100 C   0  0  0  0  0  1  0  0  0  0  0  0
  160.4580  206.0460  149.1260 C   0  0  0  0  0  2  0  0  0  0  0  0
  161.3660  204.9370  149.6480 C   0  0  0  0  0  2  0  0  0  0  0  0
  160.7640  203.5600  149.3580 C   0  0  2  0  0  3  0  0  0  0  0  0
  160.7920  202.6930  150.4760 O   0  0  0  0  0  0  0  0  0  0  0  0
  161.0140  203.4490  151.6410 C   0  0  0  0  0  1  0  0  0  0  0  0
  161.3580  202.9200  148.0980 C   0  0  0  0  0  2  0  0  0  0  0  0
  160.8350  202.5090  145.3200 O   0  0  0  0  0  0  0  0  0  0  0  0
  161.5410  203.9130  147.0470 N   0  0  0  0  0  2  0  0  0  0  0  0
  161.2530  203.6430  145.6760 C   0  0  0  0  0  0  0  0  0  0  0  0
  161.4240  204.7170  144.6600 C   0  0  0  0  0  2  0  0  0  0  0  0
  160.5380  205.8980  145.0010 C   0  0  0  0  0  1  0  0  0  0  0  0
  162.2580  209.8190  151.3870 O   0  0  0  0  0  0  0  0  0  0  0  0
  161.8940  209.2410  152.6400 C   0  0  0  0  0  2  0  0  0  0  0  0
  157.1950  211.6130  156.0430 S   0  0  0  0  0  0  0  0  0  0  0  0
  158.4260  211.1570  155.0020 C   0  0  0  0  0  0  0  0  0  0  0  0
  159.1910  211.8510  152.7140 N   0  0  0  0  0  0  0  0  0  0  0  0
  156.5040  212.7810  155.0490 C   0  0  0  0  0  3  0  0  0  0  0  0
  160.1980  211.0730  152.4600 C   0  0  0  0  0  3  0  0  0  0  0  0
  157.2560  212.8180  153.8760 C   0  0  0  0  0  3  0  0  0  0  0  0
  160.7730  209.9940  153.2800 C   0  0  0  0  0  0  0  0  0  0  0  0
  159.3890  210.1640  155.3280 N   0  0  0  0  0  2  0  0  0  0  0  0
  160.4310  209.6260  154.5160 C   0  0  0  0  0  3  0  0  0  0  0  0
  158.3270  211.9130  153.8490 C   0  0  0  0  0  0  0  0  0  0  0  0
  1 25  1  0  0  0  0
  2  1  2  0  0  0  0
  3  4  2  0  0  0  0
  3  1  1  0  0  0  0
  5  4  1  0  0  0  0
  6  5  2  0  0  0  0
  7  8  2  0  0  0  0
  8  6  1  0  0  0  0
  9  8  1  0  0  0  0
  9 10  1  1  0  0  0
 11  9  1  0  0  0  0
 12 13  1  1  0  0  0
 12 14  1  0  0  0  0
 12  2  1  0  0  0  0
 14 15  1  0  0  0  0
 16 19  1  6  0  0  0
 16 15  1  0  0  0  0
 16 17  1  0  0  0  0
 17 18  1  0  0  0  0
 20 22  2  0  0  0  0
 21 19  1  0  0  0  0
 22 21  1  0  0  0  0
 23 24  1  0  0  0  0
 23 22  1  0  0  0  0
 25 26  1  0  0  0  0
 26 33  1  0  0  0  0
 28 34  1  0  0  0  0
 28 27  1  0  0  0  0
 29 36  1  0  0  0  0
 30 27  1  0  0  0  0
 31 29  2  0  0  0  0
 31 33  1  0  0  0  0
 32 30  2  0  0  0  0
 33 35  2  0  0  0  0
 35 34  1  0  0  0  0
 36 32  1  0  0  0  0
 36 28  2  0  0  0  0
M  END
>  <MODEL>
3

>  <REMARK>
 VINA RESULT:      -6.8      3.367      7.758
  Name = 
  15 active torsions:
  status: ('A' for Active; 'I' for Inactive)
    1  A    between atoms: N_1  and  C_18
    2  A    between atoms: O_7  and  C_14
    3  A    between atoms: O_7  and  C_18
    4  A    between atoms: C_9  and  C_23
    5  A    between atoms: C_10  and  N_21
    6  A    between atoms: C_10  and  C_24
    7  A    between atoms: C_11  and  N_30
    8  A    between atoms: C_11  and  C_31
    9  A    between atoms: C_13  and  C_17
   10  A    between atoms: C_14  and  C_25
   11  A    between atoms: C_15  and  C_24
   12  A    between atoms: C_15  and  C_31
   13  A    between atoms: C_17  and  C_29
   14  A    between atoms: N_20  and  C_22
   15  A    between atoms: C_24  and  O_27
                            x       y       z     vdW  Elec       q    Type
                         _______ _______ _______ _____ _____    ______ ____

>  <TORSDO>
F 15

$$$$
=
 OpenBabel11042421043D

 36 37  0  0  1  0  0  0  0  0999 V2000
  162.1280  209.5510  149.1850 C   0  0  0  0  0  0  0  0  0  0  0  0
  162.1390  210.5000  148.2930 N   0  0  0  0  0  0  0  0  0  0  0  0
  162.0130  209.8710  150.5760 N   0  0  0  0  0  0  0  0  0  0  0  0
  161.6160  208.9980  151.4430 C   0  0  0  0  0  3  0  0  0  0  0  0
  161.5110  209.3540  152.8150 N   0  0  0  0  0  0  0  0  0  0  0  0
  161.1060  208.4800  153.6760 C   0  0  0  0  0  3  0  0  0  0  0  0
  160.8160  207.9090  155.9560 O   0  0  0  0  0  0  0  0  0  0  0  0
  160.9870  208.8170  155.1010 C   0  0  0  0  0  0  0  0  0  0  0  0
  161.0520  210.2410  155.5510 C   0  0  2  0  0  3  0  0  0  0  0  0
  162.4080  210.5430  156.1600 C   0  0  0  0  0  1  0  0  0  0  0  0
  160.0470  210.5010  156.4820 O   0  0  0  0  0  1  0  0  0  0  0  0
  162.0610  211.9240  148.6040 C   0  0  1  0  0  3  0  0  0  0  0  0
  163.2780  212.6620  148.0600 C   0  0  0  0  0  1  0  0  0  0  0  0
  160.7760  212.5160  148.0320 C   0  0  0  0  0  2  0  0  0  0  0  0
  161.0560  213.4690  146.8740 C   0  0  0  0  0  2  0  0  0  0  0  0
  160.6270  212.8480  145.5420 C   0  0  2  0  0  3  0  0  0  0  0  0
  161.6530  212.8530  144.5690 O   0  0  0  0  0  0  0  0  0  0  0  0
  162.4200  214.0240  144.7120 C   0  0  0  0  0  1  0  0  0  0  0  0
  159.3140  213.4410  145.0210 C   0  0  0  0  0  2  0  0  0  0  0  0
  157.0220  212.2250  146.2180 O   0  0  0  0  0  0  0  0  0  0  0  0
  158.5280  214.0060  146.1110 N   0  0  0  0  0  2  0  0  0  0  0  0
  157.3960  213.3400  146.6690 C   0  0  0  0  0  0  0  0  0  0  0  0
  156.6640  213.9570  147.8090 C   0  0  0  0  0  2  0  0  0  0  0  0
  157.0080  213.2360  149.0960 C   0  0  0  0  0  1  0  0  0  0  0  0
  162.2330  208.2110  148.7870 O   0  0  0  0  0  0  0  0  0  0  0  0
  161.2250  207.5290  148.0430 C   0  0  0  0  0  2  0  0  0  0  0  0
  161.1320  201.2660  148.2680 S   0  0  0  0  0  0  0  0  0  0  0  0
  161.1750  202.9330  148.4300 C   0  0  0  0  0  0  0  0  0  0  0  0
  160.9330  204.5590  150.3270 N   0  0  0  0  0  0  0  0  0  0  0  0
  160.8340  200.9080  149.8850 C   0  0  0  0  0  3  0  0  0  0  0  0
  161.0380  205.7250  149.7690 C   0  0  0  0  0  3  0  0  0  0  0  0
  160.7700  202.1210  150.5690 C   0  0  0  0  0  3  0  0  0  0  0  0
  161.2220  206.0660  148.3480 C   0  0  0  0  0  0  0  0  0  0  0  0
  161.4190  203.8110  147.3400 N   0  0  0  0  0  0  0  0  0  0  0  0
  161.4030  205.2370  147.3180 C   0  0  0  0  0  3  0  0  0  0  0  0
  160.9600  203.2500  149.7580 C   0  0  2  0  0  3  0  0  0  0  0  0
  1  3  1  0  0  0  0
  2 12  1  0  0  0  0
  2  1  2  0  0  0  0
  3  4  2  0  0  0  0
  4  5  1  0  0  0  0
  5  6  2  0  0  0  0
  6  8  1  0  0  0  0
  8  9  1  0  0  0  0
  8  7  2  0  0  0  0
  9 10  1  1  0  0  0
  9 11  1  0  0  0  0
 12 13  1  6  0  0  0
 14 12  1  0  0  0  0
 15 14  1  0  0  0  0
 16 19  1  6  0  0  0
 16 15  1  0  0  0  0
 17 18  1  0  0  0  0
 17 16  1  0  0  0  0
 19 21  1  0  0  0  0
 20 22  2  0  0  0  0
 21 22  1  0  0  0  0
 22 23  1  0  0  0  0
 23 24  1  0  0  0  0
 25  1  1  0  0  0  0
 26 33  1  0  0  0  0
 26 25  1  0  0  0  0
 27 28  1  0  0  0  0
 27 30  1  0  0  0  0
 28 36  1  0  0  0  0
 30 32  2  0  0  0  0
 31 29  2  0  0  0  0
 33 31  1  0  0  0  0
 34 28  2  0  0  0  0
 35 34  1  0  0  0  0
 35 33  2  0  0  0  0
 36 29  1  0  0  0  0
 36 32  1  1  0  0  0
M  END
>  <MODEL>
4

>  <REMARK>
 VINA RESULT:      -6.7      3.049      8.187
  Name = 
  15 active torsions:
  status: ('A' for Active; 'I' for Inactive)
    1  A    between atoms: N_1  and  C_18
    2  A    between atoms: O_7  and  C_14
    3  A    between atoms: O_7  and  C_18
    4  A    between atoms: C_9  and  C_23
    5  A    between atoms: C_10  and  N_21
    6  A    between atoms: C_10  and  C_24
    7  A    between atoms: C_11  and  N_30
    8  A    between atoms: C_11  and  C_31
    9  A    between atoms: C_13  and  C_17
   10  A    between atoms: C_14  and  C_25
   11  A    between atoms: C_15  and  C_24
   12  A    between atoms: C_15  and  C_31
   13  A    between atoms: C_17  and  C_29
   14  A    between atoms: N_20  and  C_22
   15  A    between atoms: C_24  and  O_27
                            x       y       z     vdW  Elec       q    Type
                         _______ _______ _______ _____ _____    ______ ____

>  <TORSDO>
F 15

$$$$
=
 OpenBabel11042421043D

 36 37  0  0  1  0  0  0  0  0999 V2000
  161.9640  209.2330  150.0780 C   0  0  0  0  0  0  0  0  0  0  0  0
  161.6630  207.9740  149.9470 N   0  0  0  0  0  0  0  0  0  0  0  0
  161.8830  210.1150  148.9530 N   0  0  0  0  0  0  0  0  0  0  0  0
  161.9690  211.3970  149.0870 C   0  0  0  0  0  3  0  0  0  0  0  0
  161.8800  212.2410  147.9460 N   0  0  0  0  0  0  0  0  0  0  0  0
  160.9050  212.0950  147.1120 C   0  0  0  0  0  3  0  0  0  0  0  0
  161.7830  213.6000  145.5090 O   0  0  0  0  0  0  0  0  0  0  0  0
  160.7870  212.9510  145.9250 C   0  0  0  0  0  0  0  0  0  0  0  0
  159.4830  213.0740  145.2060 C   0  0  2  0  0  3  0  0  0  0  0  0
  158.3320  212.7370  146.1340 C   0  0  0  0  0  1  0  0  0  0  0  0
  159.4590  212.2280  144.0960 O   0  0  0  0  0  1  0  0  0  0  0  0
  161.2500  207.3510  148.6930 C   0  0  1  0  0  3  0  0  0  0  0  0
  162.4640  206.9730  147.8540 C   0  0  0  0  0  1  0  0  0  0  0  0
  160.3890  206.1220  148.9750 C   0  0  0  0  0  2  0  0  0  0  0  0
  161.2250  204.8480  149.0420 C   0  0  0  0  0  2  0  0  0  0  0  0
  160.8550  204.0190  150.2740 C   0  0  2  0  0  3  0  0  0  0  0  0
  161.8190  204.0950  151.3070 O   0  0  0  0  0  0  0  0  0  0  0  0
  161.2040  204.5760  152.4780 C   0  0  0  0  0  1  0  0  0  0  0  0
  160.4870  202.5760  149.9140 C   0  0  0  0  0  2  0  0  0  0  0  0
  161.5290  200.3460  148.4630 O   0  0  0  0  0  0  0  0  0  0  0  0
  160.4180  202.4000  148.4690 N   0  0  0  0  0  2  0  0  0  0  0  0
  160.9550  201.2560  147.8070 C   0  0  0  0  0  0  0  0  0  0  0  0
  160.8130  201.1230  146.3320 C   0  0  0  0  0  2  0  0  0  0  0  0
  160.9450  202.4810  145.6740 C   0  0  0  0  0  1  0  0  0  0  0  0
  162.3750  209.7320  151.3220 O   0  0  0  0  0  0  0  0  0  0  0  0
  161.8870  209.2390  152.5690 C   0  0  0  0  0  2  0  0  0  0  0  0
  158.6140  214.1430  154.6970 S   0  0  0  0  0  0  0  0  0  0  0  0
  159.4690  212.7490  154.3330 C   0  0  0  0  0  0  0  0  0  0  0  0
  160.5360  210.9020  155.6570 N   0  0  0  0  0  0  0  0  0  0  0  0
  158.6680  213.9890  156.3720 C   0  0  0  0  0  3  0  0  0  0  0  0
  161.0730  210.1310  154.7620 C   0  0  0  0  0  3  0  0  0  0  0  0
  159.3680  212.8170  156.6540 C   0  0  0  0  0  3  0  0  0  0  0  0
  161.1060  210.2840  153.2980 C   0  0  0  0  0  0  0  0  0  0  0  0
  159.7370  212.3280  153.0030 N   0  0  0  0  0  0  0  0  0  0  0  0
  160.5130  211.2200  152.5530 C   0  0  0  0  0  3  0  0  0  0  0  0
  159.8150  212.1260  155.5180 C   0  0  2  0  0  3  0  0  0  0  0  0
  1 25  1  0  0  0  0
  2  1  2  0  0  0  0
  3  4  2  0  0  0  0
  3  1  1  0  0  0  0
  5  4  1  0  0  0  0
  6  5  2  0  0  0  0
  7  8  2  0  0  0  0
  8  6  1  0  0  0  0
  9  8  1  0  0  0  0
  9 10  1  1  0  0  0
 11  9  1  0  0  0  0
 12 13  1  1  0  0  0
 12 14  1  0  0  0  0
 12  2  1  0  0  0  0
 14 15  1  0  0  0  0
 16 15  1  6  0  0  0
 16 17  1  0  0  0  0
 17 18  1  0  0  0  0
 19 16  1  0  0  0  0
 21 19  1  0  0  0  0
 22 20  2  0  0  0  0
 22 21  1  0  0  0  0
 23 22  1  0  0  0  0
 24 23  1  0  0  0  0
 25 26  1  0  0  0  0
 26 33  1  0  0  0  0
 27 30  1  0  0  0  0
 28 27  1  0  0  0  0
 28 36  1  0  0  0  0
 30 32  2  0  0  0  0
 31 29  2  0  0  0  0
 33 31  1  0  0  0  0
 34 28  2  0  0  0  0
 35 34  1  0  0  0  0
 35 33  2  0  0  0  0
 36 29  1  0  0  0  0
 36 32  1  6  0  0  0
M  END
>  <MODEL>
5

>  <REMARK>
 VINA RESULT:      -6.6      3.181      7.721
  Name = 
  15 active torsions:
  status: ('A' for Active; 'I' for Inactive)
    1  A    between atoms: N_1  and  C_18
    2  A    between atoms: O_7  and  C_14
    3  A    between atoms: O_7  and  C_18
    4  A    between atoms: C_9  and  C_23
    5  A    between atoms: C_10  and  N_21
    6  A    between atoms: C_10  and  C_24
    7  A    between atoms: C_11  and  N_30
    8  A    between atoms: C_11  and  C_31
    9  A    between atoms: C_13  and  C_17
   10  A    between atoms: C_14  and  C_25
   11  A    between atoms: C_15  and  C_24
   12  A    between atoms: C_15  and  C_31
   13  A    between atoms: C_17  and  C_29
   14  A    between atoms: N_20  and  C_22
   15  A    between atoms: C_24  and  O_27
                            x       y       z     vdW  Elec       q    Type
                         _______ _______ _______ _____ _____    ______ ____

>  <TORSDO>
F 15

$$$$
=
 OpenBabel11042421043D

 36 37  0  0  1  0  0  0  0  0999 V2000
  162.1470  209.9590  149.4520 C   0  0  0  0  0  0  0  0  0  0  0  0
  162.1270  210.3910  150.6790 N   0  0  0  0  0  0  0  0  0  0  0  0
  162.1800  208.5530  149.1820 N   0  0  0  0  0  0  0  0  0  0  0  0
  161.4450  208.0200  148.2630 C   0  0  0  0  0  3  0  0  0  0  0  0
  161.5030  206.6190  148.0260 N   0  0  0  0  0  0  0  0  0  0  0  0
  161.9710  206.1750  146.9080 C   0  0  0  0  0  3  0  0  0  0  0  0
  162.2830  203.9220  147.5680 O   0  0  0  0  0  0  0  0  0  0  0  0
  162.0430  204.7340  146.6340 C   0  0  0  0  0  0  0  0  0  0  0  0
  161.8490  204.2140  145.2470 C   0  0  2  0  0  3  0  0  0  0  0  0
  161.2180  205.2770  144.3670 C   0  0  0  0  0  1  0  0  0  0  0  0
  161.0440  203.0750  145.2640 O   0  0  0  0  0  1  0  0  0  0  0  0
  162.1550  209.5280  151.8570 C   0  0  1  0  0  3  0  0  0  0  0  0
  162.5110  210.3300  153.1030 C   0  0  0  0  0  1  0  0  0  0  0  0
  160.8080  208.8340  152.0330 C   0  0  0  0  0  2  0  0  0  0  0  0
  160.4320  208.6880  153.5040 C   0  0  0  0  0  2  0  0  0  0  0  0
  160.5530  207.2300  153.9550 C   0  0  2  0  0  3  0  0  0  0  0  0
  160.5320  207.0780  155.3610 O   0  0  0  0  0  0  0  0  0  0  0  0
  161.3970  208.0230  155.9410 C   0  0  0  0  0  1  0  0  0  0  0  0
  161.7400  206.5160  153.3000 C   0  0  0  0  0  2  0  0  0  0  0  0
  160.9180  205.2000  150.9010 O   0  0  0  0  0  0  0  0  0  0  0  0
  161.4800  205.0880  153.1650 N   0  0  0  0  0  2  0  0  0  0  0  0
  161.0780  204.4930  151.9320 C   0  0  0  0  0  0  0  0  0  0  0  0
  160.8700  203.0220  151.8570 C   0  0  0  0  0  2  0  0  0  0  0  0
  161.0960  202.5380  150.4380 C   0  0  0  0  0  1  0  0  0  0  0  0
  162.1420  210.8700  148.3860 O   0  0  0  0  0  0  0  0  0  0  0  0
  161.4890  212.1380  148.4360 C   0  0  0  0  0  2  0  0  0  0  0  0
  158.9140  213.6800  142.9340 S   0  0  0  0  0  0  0  0  0  0  0  0
  159.7870  213.3640  144.3280 C   0  0  0  0  0  0  0  0  0  0  0  0
  162.2110  213.4180  144.9770 N   0  0  0  0  0  0  0  0  0  0  0  0
  160.2230  214.0730  141.9530 C   0  0  0  0  0  3  0  0  0  0  0  0
  162.2240  213.0260  146.2140 C   0  0  0  0  0  3  0  0  0  0  0  0
  161.3700  213.9590  142.7350 C   0  0  0  0  0  3  0  0  0  0  0  0
  161.1020  212.6040  147.0700 C   0  0  0  0  0  0  0  0  0  0  0  0
  159.1790  212.9800  145.5540 N   0  0  0  0  0  2  0  0  0  0  0  0
  159.7990  212.6070  146.7820 C   0  0  0  0  0  3  0  0  0  0  0  0
  161.1280  213.5630  144.0590 C   0  0  0  0  0  0  0  0  0  0  0  0
  1  2  2  0  0  0  0
  2 12  1  0  0  0  0
  3  1  1  0  0  0  0
  4  3  2  0  0  0  0
  5  4  1  0  0  0  0
  6  5  2  0  0  0  0
  8  6  1  0  0  0  0
  8  7  2  0  0  0  0
  9 10  1  6  0  0  0
  9 11  1  0  0  0  0
  9  8  1  0  0  0  0
 12 14  1  0  0  0  0
 12 13  1  1  0  0  0
 14 15  1  0  0  0  0
 15 16  1  0  0  0  0
 16 19  1  1  0  0  0
 16 17  1  0  0  0  0
 17 18  1  0  0  0  0
 20 22  2  0  0  0  0
 21 19  1  0  0  0  0
 22 21  1  0  0  0  0
 23 22  1  0  0  0  0
 24 23  1  0  0  0  0
 25 26  1  0  0  0  0
 25  1  1  0  0  0  0
 27 28  1  0  0  0  0
 28 34  1  0  0  0  0
 29 31  2  0  0  0  0
 30 32  2  0  0  0  0
 30 27  1  0  0  0  0
 31 33  1  0  0  0  0
 32 36  1  0  0  0  0
 33 26  1  0  0  0  0
 34 35  1  0  0  0  0
 35 33  2  0  0  0  0
 36 28  2  0  0  0  0
 36 29  1  0  0  0  0
M  END
>  <MODEL>
6

>  <REMARK>
 VINA RESULT:      -6.5      1.553      5.843
  Name = 
  15 active torsions:
  status: ('A' for Active; 'I' for Inactive)
    1  A    between atoms: N_1  and  C_18
    2  A    between atoms: O_7  and  C_14
    3  A    between atoms: O_7  and  C_18
    4  A    between atoms: C_9  and  C_23
    5  A    between atoms: C_10  and  N_21
    6  A    between atoms: C_10  and  C_24
    7  A    between atoms: C_11  and  N_30
    8  A    between atoms: C_11  and  C_31
    9  A    between atoms: C_13  and  C_17
   10  A    between atoms: C_14  and  C_25
   11  A    between atoms: C_15  and  C_24
   12  A    between atoms: C_15  and  C_31
   13  A    between atoms: C_17  and  C_29
   14  A    between atoms: N_20  and  C_22
   15  A    between atoms: C_24  and  O_27
                            x       y       z     vdW  Elec       q    Type
                         _______ _______ _______ _____ _____    ______ ____

>  <TORSDO>
F 15

$$$$
=
 OpenBabel11042421043D

 36 37  0  0  1  0  0  0  0  0999 V2000
  162.0420  209.6060  149.7940 C   0  0  0  0  0  0  0  0  0  0  0  0
  162.1100  210.3610  148.7370 N   0  0  0  0  0  0  0  0  0  0  0  0
  162.1700  210.1800  151.1000 N   0  0  0  0  0  0  0  0  0  0  0  0
  161.1570  210.2940  151.8940 C   0  0  0  0  0  3  0  0  0  0  0  0
  161.3220  210.8730  153.1820 N   0  0  0  0  0  0  0  0  0  0  0  0
  161.6310  210.1240  154.1880 C   0  0  0  0  0  3  0  0  0  0  0  0
  162.9440  210.6920  156.0760 O   0  0  0  0  0  0  0  0  0  0  0  0
  161.8080  210.6930  155.5310 C   0  0  0  0  0  0  0  0  0  0  0  0
  160.6430  211.2650  156.2720 C   0  0  2  0  0  3  0  0  0  0  0  0
  159.4650  210.3110  156.2240 C   0  0  0  0  0  1  0  0  0  0  0  0
  160.2770  212.4960  155.7250 O   0  0  0  0  0  1  0  0  0  0  0  0
  162.3340  211.8040  148.7660 C   0  0  1  0  0  3  0  0  0  0  0  0
  163.3050  212.2210  147.6690 C   0  0  0  0  0  1  0  0  0  0  0  0
  161.0070  212.5440  148.6180 C   0  0  0  0  0  2  0  0  0  0  0  0
  160.4610  212.4510  147.1960 C   0  0  0  0  0  2  0  0  0  0  0  0
  160.0780  213.8360  146.6690 C   0  0  2  0  0  3  0  0  0  0  0  0
  158.7350  213.9130  146.2290 O   0  0  0  0  0  0  0  0  0  0  0  0
  158.2180  212.6110  146.0960 C   0  0  0  0  0  1  0  0  0  0  0  0
  161.0730  214.3560  145.6260 C   0  0  0  0  0  2  0  0  0  0  0  0
  163.3480  213.3780  144.2000 O   0  0  0  0  0  0  0  0  0  0  0  0
  161.0290  213.5460  144.4140 N   0  0  0  0  0  2  0  0  0  0  0  0
  162.2070  213.0840  143.7550 C   0  0  0  0  0  0  0  0  0  0  0  0
  162.0860  212.2260  142.5450 C   0  0  0  0  0  2  0  0  0  0  0  0
  160.7540  212.4730  141.8650 C   0  0  0  0  0  1  0  0  0  0  0  0
  161.8490  208.2240  149.6610 O   0  0  0  0  0  0  0  0  0  0  0  0
  161.2060  207.4190  150.6490 C   0  0  0  0  0  2  0  0  0  0  0  0
  160.8220  201.2200  149.8070 S   0  0  0  0  0  0  0  0  0  0  0  0
  160.9010  202.8940  149.8110 C   0  0  0  0  0  0  0  0  0  0  0  0
  161.2200  204.6800  148.0760 N   0  0  0  0  0  0  0  0  0  0  0  0
  161.0540  201.0050  148.1540 C   0  0  0  0  0  3  0  0  0  0  0  0
  161.2170  205.7890  148.7490 C   0  0  0  0  0  3  0  0  0  0  0  0
  161.1930  202.2730  147.5910 C   0  0  0  0  0  3  0  0  0  0  0  0
  161.0920  205.9980  150.2010 C   0  0  0  0  0  0  0  0  0  0  0  0
  160.7500  203.6740  150.9890 N   0  0  0  0  0  2  0  0  0  0  0  0
  160.8730  205.0850  151.1500 C   0  0  0  0  0  3  0  0  0  0  0  0
  161.1080  203.3260  148.5140 C   0  0  0  0  0  0  0  0  0  0  0  0
  1  3  1  0  0  0  0
  2 12  1  0  0  0  0
  2  1  2  0  0  0  0
  3  4  2  0  0  0  0
  4  5  1  0  0  0  0
  5  6  2  0  0  0  0
  6  8  1  0  0  0  0
  8  7  2  0  0  0  0
  8  9  1  0  0  0  0
  9 10  1  6  0  0  0
 11  9  1  0  0  0  0
 12 13  1  6  0  0  0
 14 12  1  0  0  0  0
 15 14  1  0  0  0  0
 16 19  1  6  0  0  0
 16 15  1  0  0  0  0
 17 16  1  0  0  0  0
 18 17  1  0  0  0  0
 21 19  1  0  0  0  0
 22 20  2  0  0  0  0
 22 21  1  0  0  0  0
 23 22  1  0  0  0  0
 24 23  1  0  0  0  0
 25  1  1  0  0  0  0
 25 26  1  0  0  0  0
 27 28  1  0  0  0  0
 28 34  1  0  0  0  0
 29 36  1  0  0  0  0
 29 31  2  0  0  0  0
 30 27  1  0  0  0  0
 31 33  1  0  0  0  0
 32 30  2  0  0  0  0
 32 36  1  0  0  0  0
 33 26  1  0  0  0  0
 33 35  2  0  0  0  0
 34 35  1  0  0  0  0
 36 28  2  0  0  0  0
M  END
>  <MODEL>
7

>  <REMARK>
 VINA RESULT:      -6.4      3.188      8.462
  Name = 
  15 active torsions:
  status: ('A' for Active; 'I' for Inactive)
    1  A    between atoms: N_1  and  C_18
    2  A    between atoms: O_7  and  C_14
    3  A    between atoms: O_7  and  C_18
    4  A    between atoms: C_9  and  C_23
    5  A    between atoms: C_10  and  N_21
    6  A    between atoms: C_10  and  C_24
    7  A    between atoms: C_11  and  N_30
    8  A    between atoms: C_11  and  C_31
    9  A    between atoms: C_13  and  C_17
   10  A    between atoms: C_14  and  C_25
   11  A    between atoms: C_15  and  C_24
   12  A    between atoms: C_15  and  C_31
   13  A    between atoms: C_17  and  C_29
   14  A    between atoms: N_20  and  C_22
   15  A    between atoms: C_24  and  O_27
                            x       y       z     vdW  Elec       q    Type
                         _______ _______ _______ _____ _____    ______ ____

>  <TORSDO>
F 15

$$$$
=
 OpenBabel11042421043D

 36 37  0  0  1  0  0  0  0  0999 V2000
  162.2230  210.0810  149.8040 C   0  0  0  0  0  0  0  0  0  0  0  0
  162.2350  209.1290  148.9170 N   0  0  0  0  0  0  0  0  0  0  0  0
  162.2030  209.7650  151.2000 N   0  0  0  0  0  0  0  0  0  0  0  0
  161.3050  210.2490  151.9940 C   0  0  0  0  0  3  0  0  0  0  0  0
  161.3200  209.9150  153.3760 N   0  0  0  0  0  0  0  0  0  0  0  0
  161.5560  210.8300  154.2560 C   0  0  0  0  0  3  0  0  0  0  0  0
  162.4060  209.6830  156.1450 O   0  0  0  0  0  0  0  0  0  0  0  0
  161.5770  210.5150  155.6910 C   0  0  0  0  0  0  0  0  0  0  0  0
  160.6090  211.1660  156.6240 C   0  0  2  0  0  3  0  0  0  0  0  0
  159.3190  210.3700  156.6890 C   0  0  0  0  0  1  0  0  0  0  0  0
  160.3390  212.4710  156.2110 O   0  0  0  0  0  1  0  0  0  0  0  0
  162.2090  207.7040  149.2350 C   0  0  1  0  0  3  0  0  0  0  0  0
  160.8260  207.2860  149.7190 C   0  0  0  0  0  1  0  0  0  0  0  0
  162.6210  206.8860  148.0150 C   0  0  0  0  0  2  0  0  0  0  0  0
  161.6520  205.7370  147.7490 C   0  0  0  0  0  2  0  0  0  0  0  0
  162.0630  204.9570  146.4980 C   0  0  2  0  0  3  0  0  0  0  0  0
  161.7230  205.6180  145.2930 O   0  0  0  0  0  0  0  0  0  0  0  0
  160.9340  204.7620  144.5040 C   0  0  0  0  0  1  0  0  0  0  0  0
  161.5780  203.5050  146.5330 C   0  0  0  0  0  2  0  0  0  0  0  0
  161.2100  200.8730  147.5840 O   0  0  0  0  0  0  0  0  0  0  0  0
  160.9820  203.1850  147.8240 N   0  0  0  0  0  2  0  0  0  0  0  0
  160.8350  201.8450  148.2930 C   0  0  0  0  0  0  0  0  0  0  0  0
  160.2550  201.5950  149.6400 C   0  0  0  0  0  2  0  0  0  0  0  0
  160.8150  202.5880  150.6380 C   0  0  0  0  0  1  0  0  0  0  0  0
  162.2240  211.4220  149.3970 O   0  0  0  0  0  0  0  0  0  0  0  0
  161.0700  212.0930  148.8910 C   0  0  0  0  0  2  0  0  0  0  0  0
  160.8600  213.0510  142.7010 S   0  0  0  0  0  0  0  0  0  0  0  0
  161.1050  212.9130  144.3520 C   0  0  0  0  0  0  0  0  0  0  0  0
  163.0190  213.3260  145.9230 N   0  0  0  0  0  0  0  0  0  0  0  0
  162.4070  213.5830  142.3040 C   0  0  0  0  0  3  0  0  0  0  0  0
  162.5600  212.9880  147.0880 C   0  0  0  0  0  3  0  0  0  0  0  0
  163.1310  213.6590  143.4930 C   0  0  0  0  0  3  0  0  0  0  0  0
  161.2380  212.4480  147.4490 C   0  0  0  0  0  0  0  0  0  0  0  0
  160.0890  212.4970  145.2540 N   0  0  0  0  0  2  0  0  0  0  0  0
  160.1800  212.2600  146.6570 C   0  0  0  0  0  3  0  0  0  0  0  0
  162.4060  213.2850  144.6340 C   0  0  0  0  0  0  0  0  0  0  0  0
  1  3  1  0  0  0  0
  2 12  1  0  0  0  0
  2  1  2  0  0  0  0
  3  4  2  0  0  0  0
  4  5  1  0  0  0  0
  5  6  2  0  0  0  0
  6  8  1  0  0  0  0
  8  7  2  0  0  0  0
  8  9  1  0  0  0  0
  9 10  1  6  0  0  0
 11  9  1  0  0  0  0
 12 13  1  6  0  0  0
 14 12  1  0  0  0  0
 15 14  1  0  0  0  0
 16 19  1  6  0  0  0
 16 15  1  0  0  0  0
 17 16  1  0  0  0  0
 18 17  1  0  0  0  0
 19 21  1  0  0  0  0
 20 22  2  0  0  0  0
 21 22  1  0  0  0  0
 22 23  1  0  0  0  0
 23 24  1  0  0  0  0
 25  1  1  0  0  0  0
 26 25  1  0  0  0  0
 27 28  1  0  0  0  0
 28 36  2  0  0  0  0
 28 34  1  0  0  0  0
 29 31  2  0  0  0  0
 30 27  1  0  0  0  0
 30 32  2  0  0  0  0
 31 33  1  0  0  0  0
 32 36  1  0  0  0  0
 33 26  1  0  0  0  0
 34 35  1  0  0  0  0
 35 33  2  0  0  0  0
 36 29  1  0  0  0  0
M  END
>  <MODEL>
8

>  <REMARK>
 VINA RESULT:      -6.3      1.381      1.741
  Name = 
  15 active torsions:
  status: ('A' for Active; 'I' for Inactive)
    1  A    between atoms: N_1  and  C_18
    2  A    between atoms: O_7  and  C_14
    3  A    between atoms: O_7  and  C_18
    4  A    between atoms: C_9  and  C_23
    5  A    between atoms: C_10  and  N_21
    6  A    between atoms: C_10  and  C_24
    7  A    between atoms: C_11  and  N_30
    8  A    between atoms: C_11  and  C_31
    9  A    between atoms: C_13  and  C_17
   10  A    between atoms: C_14  and  C_25
   11  A    between atoms: C_15  and  C_24
   12  A    between atoms: C_15  and  C_31
   13  A    between atoms: C_17  and  C_29
   14  A    between atoms: N_20  and  C_22
   15  A    between atoms: C_24  and  O_27
                            x       y       z     vdW  Elec       q    Type
                         _______ _______ _______ _____ _____    ______ ____

>  <TORSDO>
F 15

$$$$
=
 OpenBabel11042421043D

 36 37  0  0  1  0  0  0  0  0999 V2000
  162.0870  209.3310  150.7420 C   0  0  0  0  0  0  0  0  0  0  0  0
  162.0790  208.0310  150.6840 N   0  0  0  0  0  0  0  0  0  0  0  0
  162.1720  209.9960  152.0080 N   0  0  0  0  0  0  0  0  0  0  0  0
  161.1290  210.4970  152.5830 C   0  0  0  0  0  3  0  0  0  0  0  0
  161.2530  211.1530  153.8390 N   0  0  0  0  0  0  0  0  0  0  0  0
  161.4120  210.4560  154.9150 C   0  0  0  0  0  3  0  0  0  0  0  0
  160.8860  212.1480  156.4860 O   0  0  0  0  0  0  0  0  0  0  0  0
  161.5430  211.1050  156.2260 C   0  0  0  0  0  0  0  0  0  0  0  0
  162.4660  210.5460  157.2600 C   0  0  2  0  0  3  0  0  0  0  0  0
  163.8400  211.1780  157.1400 C   0  0  0  0  0  1  0  0  0  0  0  0
  162.5680  209.1620  157.1210 O   0  0  0  0  0  1  0  0  0  0  0  0
  162.1320  207.1530  151.8500 C   0  0  1  0  0  3  0  0  0  0  0  0
  160.8120  207.1880  152.6110 C   0  0  0  0  0  1  0  0  0  0  0  0
  162.4660  205.7280  151.4190 C   0  0  0  0  0  2  0  0  0  0  0  0
  161.2820  204.7850  151.6130 C   0  0  0  0  0  2  0  0  0  0  0  0
  160.7640  204.2770  150.2650 C   0  0  2  0  0  3  0  0  0  0  0  0
  161.4040  203.0900  149.8340 O   0  0  0  0  0  0  0  0  0  0  0  0
  160.6790  201.9790  150.3010 C   0  0  0  0  0  1  0  0  0  0  0  0
  160.7640  205.3720  149.1930 C   0  0  0  0  0  2  0  0  0  0  0  0
  162.2810  206.7960  147.2340 O   0  0  0  0  0  0  0  0  0  0  0  0
  161.1940  204.8400  147.9050 N   0  0  0  0  0  2  0  0  0  0  0  0
  161.9580  205.6060  146.9740 C   0  0  0  0  0  0  0  0  0  0  0  0
  162.3980  204.9860  145.6950 C   0  0  0  0  0  2  0  0  0  0  0  0
  161.6830  203.6660  145.4860 C   0  0  0  0  0  1  0  0  0  0  0  0
  162.0080  210.0880  149.5650 O   0  0  0  0  0  0  0  0  0  0  0  0
  161.8820  211.5100  149.5500 C   0  0  0  0  0  2  0  0  0  0  0  0
  160.5970  213.1910  143.6510 S   0  0  0  0  0  0  0  0  0  0  0  0
  161.1270  212.8590  145.2050 C   0  0  0  0  0  0  0  0  0  0  0  0
  163.2980  213.0860  146.4460 N   0  0  0  0  0  0  0  0  0  0  0  0
  162.0590  213.7680  143.0500 C   0  0  0  0  0  3  0  0  0  0  0  0
  163.0460  212.6130  147.6280 C   0  0  0  0  0  3  0  0  0  0  0  0
  162.9830  213.7030  144.0910 C   0  0  0  0  0  3  0  0  0  0  0  0
  161.7980  212.0330  148.1530 C   0  0  0  0  0  0  0  0  0  0  0  0
  160.2800  212.3390  146.2190 N   0  0  0  0  0  2  0  0  0  0  0  0
  160.6130  211.9380  147.5470 C   0  0  0  0  0  3  0  0  0  0  0  0
  162.4650  213.1970  145.2920 C   0  0  0  0  0  0  0  0  0  0  0  0
  1  3  1  0  0  0  0
  2  1  2  0  0  0  0
  2 12  1  0  0  0  0
  3  4  2  0  0  0  0
  4  5  1  0  0  0  0
  5  6  2  0  0  0  0
  6  8  1  0  0  0  0
  8  7  2  0  0  0  0
  8  9  1  0  0  0  0
  9 10  1  6  0  0  0
 11  9  1  0  0  0  0
 12 13  1  6  0  0  0
 14 15  1  0  0  0  0
 14 12  1  0  0  0  0
 16 19  1  6  0  0  0
 16 15  1  0  0  0  0
 17 16  1  0  0  0  0
 17 18  1  0  0  0  0
 21 19  1  0  0  0  0
 22 20  2  0  0  0  0
 22 21  1  0  0  0  0
 23 22  1  0  0  0  0
 24 23  1  0  0  0  0
 25  1  1  0  0  0  0
 26 25  1  0  0  0  0
 27 28  1  0  0  0  0
 28 36  2  0  0  0  0
 28 34  1  0  0  0  0
 29 31  2  0  0  0  0
 30 27  1  0  0  0  0
 30 32  2  0  0  0  0
 31 33  1  0  0  0  0
 32 36  1  0  0  0  0
 33 26  1  0  0  0  0
 34 35  1  0  0  0  0
 35 33  2  0  0  0  0
 36 29  1  0  0  0  0
M  END
>  <MODEL>
9

>  <REMARK>
 VINA RESULT:      -6.1      1.731      3.125
  Name = 
  15 active torsions:
  status: ('A' for Active; 'I' for Inactive)
    1  A    between atoms: N_1  and  C_18
    2  A    between atoms: O_7  and  C_14
    3  A    between atoms: O_7  and  C_18
    4  A    between atoms: C_9  and  C_23
    5  A    between atoms: C_10  and  N_21
    6  A    between atoms: C_10  and  C_24
    7  A    between atoms: C_11  and  N_30
    8  A    between atoms: C_11  and  C_31
    9  A    between atoms: C_13  and  C_17
   10  A    between atoms: C_14  and  C_25
   11  A    between atoms: C_15  and  C_24
   12  A    between atoms: C_15  and  C_31
   13  A    between atoms: C_17  and  C_29
   14  A    between atoms: N_20  and  C_22
   15  A    between atoms: C_24  and  O_27
                            x       y       z     vdW  Elec       q    Type
                         _______ _______ _______ _____ _____    ______ ____

>  <TORSDO>
F 15

$$$$
