=
 OpenBabel11042420593D

 46 48  0  0  1  0  0  0  0  0999 V2000
  161.9490  211.5790  148.8430 C   0  0  0  0  0  0  0  0  0  0  0  0
  162.0700  211.2390  150.2070 C   0  0  0  0  0  2  0  0  0  0  0  0
  161.7620  208.9280  149.5940 C   0  0  0  0  0  0  0  0  0  0  0  0
  161.7300  207.5720  150.2120 C   0  0  0  0  0  3  0  0  0  0  0  0
  161.6080  209.2810  148.2600 C   0  0  0  0  0  3  0  0  0  0  0  0
  162.0490  209.2520  151.8400 C   0  0  0  0  0  0  0  0  0  0  0  0
  161.6950  210.5990  147.9190 N   0  0  0  0  0  0  0  0  0  0  0  0
  161.9640  209.8910  150.5450 C   0  0  0  0  0  0  0  0  0  0  0  0
  161.9170  207.9310  151.6680 C   0  0  0  0  0  0  0  0  0  0  0  0
  160.8860  213.7940  148.1360 N   0  0  0  0  0  2  0  0  0  0  0  0
  162.0410  212.9860  148.3960 C   0  0  0  0  0  0  0  0  0  0  0  0
  163.1810  213.4960  148.2360 O   0  0  0  0  0  0  0  0  0  0  0  0
  158.7050  212.9740  147.3280 C   0  0  0  0  0  0  0  0  0  0  0  0
  159.1260  213.0910  145.9060 C   0  0  0  0  0  1  0  0  0  0  0  0
  159.5820  213.3540  148.3860 N   0  0  0  0  0  2  0  0  0  0  0  0
  157.5580  212.5350  147.6000 O   0  0  0  0  0  0  0  0  0  0  0  0
  162.1180  209.9610  153.1570 C   0  0  0  0  0  2  0  0  0  0  0  0
  160.5330  210.8500  154.9670 C   0  0  2  0  0  3  0  0  0  0  0  0
  160.8100  211.8250  153.9740 O   0  0  0  0  0  0  0  0  0  0  0  0
  159.5680  210.3100  152.5850 C   0  0  0  0  0  1  0  0  0  0  0  0
  160.7420  210.4920  153.5330 C   0  0  1  0  0  0  0  0  0  0  0  0
  159.1120  210.8260  155.3050 N   0  0  0  0  0  2  0  0  0  0  0  0
  158.9750  211.1140  156.6690 N   0  0  0  0  0  2  0  0  0  0  0  0
  158.6260  212.4680  156.7600 N   0  0  0  0  0  2  0  0  0  0  0  0
  157.8840  212.7810  155.6110 N   0  0  0  0  0  2  0  0  0  0  0  0
  157.2280  214.0650  155.8620 C   0  0  0  0  0  2  0  0  0  0  0  0
  155.9450  214.1780  155.1600 N   0  0  0  0  0  0  0  0  0  0  0  0
  154.8670  214.2480  156.1380 C   0  0  0  0  0  1  0  0  0  0  0  0
  155.7210  212.9970  154.3410 C   0  0  0  0  0  1  0  0  0  0  0  0
  162.0230  206.9310  152.7740 C   0  0  1  0  0  3  0  0  0  0  0  0
  160.7520  206.9150  153.6150 C   0  0  0  0  0  2  0  0  0  0  0  0
  159.8740  207.3120  155.5980 C   0  0  0  0  0  1  0  0  0  0  0  0
  161.0640  206.9510  154.9740 O   0  0  0  0  0  0  0  0  0  0  0  0
  162.3060  205.5590  152.1850 C   0  0  0  0  0  2  0  0  0  0  0  0
  161.1390  204.6300  152.4470 C   0  0  0  0  0  2  0  0  0  0  0  0
  160.8970  203.7830  151.2480 C   0  0  0  0  0  3  0  0  0  0  0  0
  160.9530  204.3210  150.0320 C   0  0  0  0  0  3  0  0  0  0  0  0
  160.6950  203.4910  148.8070 C   0  0  2  0  0  3  0  0  0  0  0  0
  161.7560  201.2690  149.2950 O   0  0  0  0  0  0  0  0  0  0  0  0
  160.6050  202.0360  149.1630 C   0  0  0  0  0  0  0  0  0  0  0  0
  159.4790  201.5080  149.3200 O   0  0  0  0  0  1  0  0  0  0  0  0
  161.7130  203.7880  147.6960 C   0  0  2  0  0  3  0  0  0  0  0  0
  161.9750  205.2780  147.5790 C   0  0  0  0  0  1  0  0  0  0  0  0
  161.3080  203.1820  146.3510 C   0  0  0  0  0  2  0  0  0  0  0  0
  161.8980  204.5910  144.5640 O   0  0  0  0  0  0  0  0  0  0  0  0
  161.0250  204.2470  145.3420 C   0  0  0  0  0  3  0  0  0  0  0  0
  1  2  1  0  0  0  0
  2  8  1  0  0  0  0
  3  4  1  0  0  0  0
  3  8  1  0  0  0  0
  4  9  2  0  0  0  0
  5  3  2  0  0  0  0
  6 17  1  0  0  0  0
  7  5  1  0  0  0  0
  7  1  2  0  0  0  0
  8  6  2  0  0  0  0
  9  6  1  0  0  0  0
  9 30  1  0  0  0  0
 10 15  1  0  0  0  0
 10 11  1  0  0  0  0
 11  1  1  0  0  0  0
 12 11  2  0  0  0  0
 13 16  2  0  0  0  0
 13 15  1  0  0  0  0
 14 13  1  0  0  0  0
 17 21  1  0  0  0  0
 18 22  1  6  0  0  0
 19 18  1  0  0  0  0
 21 20  1  6  0  0  0
 21 19  1  0  0  0  0
 21 18  1  0  0  0  0
 22 23  1  0  0  0  0
 23 24  1  0  0  0  0
 25 26  1  0  0  0  0
 25 24  1  0  0  0  0
 27 26  1  0  0  0  0
 27 28  1  0  0  0  0
 29 27  1  0  0  0  0
 30 34  1  6  0  0  0
 30 31  1  0  0  0  0
 31 33  1  0  0  0  0
 33 32  1  0  0  0  0
 34 35  1  0  0  0  0
 36 35  1  0  0  0  0
 37 36  2  0  0  0  0
 38 40  1  0  0  0  0
 38 37  1  1  0  0  0
 40 39  2  0  0  0  0
 40 41  1  0  0  0  0
 42 43  1  6  0  0  0
 42 38  1  0  0  0  0
 44 42  1  0  0  0  0
 45 46  2  0  0  0  0
 46 44  1  0  0  0  0
M  END
>  <MODEL>
1

>  <REMARK>
 VINA RESULT:      -6.3      0.000      0.000
  Name = 
  21 active torsions:
  status: ('A' for Active; 'I' for Inactive)
    1  A    between atoms: C_1  and  C_33
    2  A    between atoms: C_1  and  C_41
    3  A    between atoms: N_2  and  C_4
    4  A    between atoms: C_4  and  N_38
    5  A    between atoms: C_6  and  N_28
    6  A    between atoms: N_8  and  N_16
    7  A    between atoms: C_9  and  C_34
    8  A    between atoms: N_10  and  N_19
    9  A    between atoms: N_10  and  N_38
   10  A    between atoms: C_11  and  C_27
   11  A    between atoms: C_12  and  C_20
   12  A    between atoms: C_12  and  C_21
   13  A    between atoms: C_15  and  C_20
   14  A    between atoms: C_15  and  C_40
   15  A    between atoms: C_15  and  C_42
   16  A    between atoms: N_19  and  N_28
   17  A    between atoms: C_24  and  C_25
   18  A    between atoms: C_24  and  C_27
   19  A    between atoms: C_25  and  C_26
   20  A    between atoms: C_25  and  C_46
   21  A    between atoms: C_26  and  O_45
                            x       y       z     vdW  Elec       q    Type
                         _______ _______ _______ _____ _____    ______ ____

>  <TORSDO>
F 21

$$$$
=
 OpenBabel11042420593D

 46 48  0  0  1  0  0  0  0  0999 V2000
  160.4740  210.3410  155.9810 C   0  0  0  0  0  0  0  0  0  0  0  0
  161.1300  210.2480  154.7350 C   0  0  0  0  0  3  0  0  0  0  0  0
  160.5600  207.9070  154.6810 C   0  0  0  0  0  0  0  0  0  0  0  0
  160.6940  206.7140  153.7960 C   0  0  0  0  0  3  0  0  0  0  0  0
  159.9500  208.0050  155.9240 C   0  0  0  0  0  3  0  0  0  0  0  0
  161.7410  208.6080  152.8510 C   0  0  0  0  0  0  0  0  0  0  0  0
  159.9320  209.2180  156.5490 N   0  0  0  0  0  0  0  0  0  0  0  0
  161.1550  209.0010  154.1150 C   0  0  1  0  0  3  0  0  0  0  0  0
  161.4870  207.3080  152.6560 C   0  0  0  0  0  0  0  0  0  0  0  0
  159.1960  212.3890  156.8270 N   0  0  0  0  0  2  0  0  0  0  0  0
  160.4040  211.6250  156.7140 C   0  0  0  0  0  0  0  0  0  0  0  0
  161.4480  212.0660  157.2610 O   0  0  0  0  0  0  0  0  0  0  0  0
  157.4580  212.3400  155.0780 C   0  0  0  0  0  0  0  0  0  0  0  0
  158.1960  213.3210  154.2400 C   0  0  0  0  0  1  0  0  0  0  0  0
  157.9640  211.9310  156.3470 N   0  0  0  0  0  2  0  0  0  0  0  0
  156.3690  211.8650  154.6630 O   0  0  0  0  0  0  0  0  0  0  0  0
  162.6100  209.4700  151.9890 C   0  0  0  0  0  2  0  0  0  0  0  0
  162.3870  210.7870  149.8000 C   0  0  2  0  0  3  0  0  0  0  0  0
  161.5250  209.6620  149.8350 O   0  0  0  0  0  0  0  0  0  0  0  0
  160.4530  210.9290  151.5710 C   0  0  0  0  0  1  0  0  0  0  0  0
  161.7460  210.3130  151.0610 C   0  0  1  0  0  0  0  0  0  0  0  0
  161.6990  211.9670  149.2810 N   0  0  0  0  0  2  0  0  0  0  0  0
  161.5520  211.8220  147.8950 N   0  0  0  0  0  2  0  0  0  0  0  0
  162.3630  212.7990  147.3020 N   0  0  0  0  0  2  0  0  0  0  0  0
  161.5410  213.5620  146.4590 N   0  0  0  0  0  2  0  0  0  0  0  0
  162.3220  213.8670  145.2600 C   0  0  0  0  0  2  0  0  0  0  0  0
  161.5090  213.8140  144.0410 N   0  0  0  0  0  0  0  0  0  0  0  0
  160.1170  213.5760  144.4010 C   0  0  0  0  0  1  0  0  0  0  0  0
  161.9430  212.7070  143.2030 C   0  0  0  0  0  1  0  0  0  0  0  0
  161.8740  206.5600  151.4210 C   0  0  1  0  0  3  0  0  0  0  0  0
  162.4660  205.2000  151.7740 C   0  0  0  0  0  2  0  0  0  0  0  0
  161.0560  203.5320  152.0730 C   0  0  0  0  0  1  0  0  0  0  0  0
  161.7980  204.1840  151.0920 O   0  0  0  0  0  0  0  0  0  0  0  0
  160.6580  206.4090  150.5230 C   0  0  0  0  0  2  0  0  0  0  0  0
  160.8590  207.1900  149.2410 C   0  0  0  0  0  2  0  0  0  0  0  0
  161.6500  206.3740  148.2790 C   0  0  0  0  0  3  0  0  0  0  0  0
  161.0700  205.3690  147.6270 C   0  0  0  0  0  3  0  0  0  0  0  0
  161.8500  204.5190  146.6670 C   0  0  2  0  0  3  0  0  0  0  0  0
  160.2750  204.7370  144.7240 O   0  0  0  0  0  1  0  0  0  0  0  0
  161.5500  204.9110  145.2490 C   0  0  0  0  0  0  0  0  0  0  0  0
  162.4660  205.3780  144.5300 O   0  0  0  0  0  0  0  0  0  0  0  0
  161.6520  203.0210  146.9430 C   0  0  2  0  0  3  0  0  0  0  0  0
  160.8790  202.3570  145.8180 C   0  0  0  0  0  1  0  0  0  0  0  0
  161.0040  202.7560  148.3030 C   0  0  0  0  0  2  0  0  0  0  0  0
  161.1510  200.8720  149.7030 O   0  0  0  0  0  0  0  0  0  0  0  0
  160.9170  201.2910  148.5820 C   0  0  0  0  0  3  0  0  0  0  0  0
  1  7  1  0  0  0  0
  1 11  1  0  0  0  0
  2  1  2  0  0  0  0
  3  5  1  0  0  0  0
  4  3  2  0  0  0  0
  5  7  2  0  0  0  0
  6  8  1  0  0  0  0
  8  3  1  0  0  0  0
  8  2  1  6  0  0  0
  9  6  2  0  0  0  0
  9  4  1  0  0  0  0
 11 10  1  0  0  0  0
 11 12  2  0  0  0  0
 13 15  1  0  0  0  0
 14 13  1  0  0  0  0
 15 10  1  0  0  0  0
 16 13  2  0  0  0  0
 17  6  1  0  0  0  0
 18 22  1  6  0  0  0
 18 19  1  0  0  0  0
 18 21  1  0  0  0  0
 19 21  1  0  0  0  0
 21 20  1  1  0  0  0
 21 17  1  0  0  0  0
 23 22  1  0  0  0  0
 24 23  1  0  0  0  0
 25 24  1  0  0  0  0
 26 25  1  0  0  0  0
 27 28  1  0  0  0  0
 27 26  1  0  0  0  0
 29 27  1  0  0  0  0
 30 34  1  6  0  0  0
 30 31  1  0  0  0  0
 30  9  1  0  0  0  0
 33 31  1  0  0  0  0
 33 32  1  0  0  0  0
 35 34  1  0  0  0  0
 36 35  1  0  0  0  0
 37 36  2  0  0  0  0
 38 42  1  0  0  0  0
 38 37  1  1  0  0  0
 39 40  1  0  0  0  0
 40 38  1  0  0  0  0
 41 40  2  0  0  0  0
 42 43  1  6  0  0  0
 42 44  1  0  0  0  0
 44 46  1  0  0  0  0
 46 45  2  0  0  0  0
M  END
>  <MODEL>
2

>  <REMARK>
 VINA RESULT:      -5.7      2.049      6.737
  Name = 
  21 active torsions:
  status: ('A' for Active; 'I' for Inactive)
    1  A    between atoms: C_1  and  C_33
    2  A    between atoms: C_1  and  C_41
    3  A    between atoms: N_2  and  C_4
    4  A    between atoms: C_4  and  N_38
    5  A    between atoms: C_6  and  N_28
    6  A    between atoms: N_8  and  N_16
    7  A    between atoms: C_9  and  C_34
    8  A    between atoms: N_10  and  N_19
    9  A    between atoms: N_10  and  N_38
   10  A    between atoms: C_11  and  C_27
   11  A    between atoms: C_12  and  C_20
   12  A    between atoms: C_12  and  C_21
   13  A    between atoms: C_15  and  C_20
   14  A    between atoms: C_15  and  C_40
   15  A    between atoms: C_15  and  C_42
   16  A    between atoms: N_19  and  N_28
   17  A    between atoms: C_24  and  C_25
   18  A    between atoms: C_24  and  C_27
   19  A    between atoms: C_25  and  C_26
   20  A    between atoms: C_25  and  C_46
   21  A    between atoms: C_26  and  O_45
                            x       y       z     vdW  Elec       q    Type
                         _______ _______ _______ _____ _____    ______ ____

>  <TORSDO>
F 21

$$$$
=
 OpenBabel11042420593D

 46 48  0  0  1  0  0  0  0  0999 V2000
  160.6160  210.2400  155.7070 C   0  0  0  0  0  0  0  0  0  0  0  0
  161.2380  209.8830  154.4920 C   0  0  0  0  0  3  0  0  0  0  0  0
  160.4700  207.6240  154.8350 C   0  0  0  0  0  0  0  0  0  0  0  0
  160.4850  206.2930  154.1640 C   0  0  0  0  0  2  0  0  0  0  0  0
  159.8950  207.9820  156.0470 C   0  0  0  0  0  3  0  0  0  0  0  0
  161.6710  207.9040  152.9090 C   0  0  0  0  0  0  0  0  0  0  0  0
  159.9920  209.2790  156.4590 N   0  0  0  0  0  0  0  0  0  0  0  0
  161.1450  208.5520  154.0900 C   0  0  0  0  0  0  0  0  0  0  0  0
  161.3040  206.6160  152.9360 C   0  0  0  0  0  0  0  0  0  0  0  0
  159.8190  212.6700  155.7140 N   0  0  0  0  0  2  0  0  0  0  0  0
  160.6700  211.6290  156.2140 C   0  0  0  0  0  0  0  0  0  0  0  0
  161.4960  211.9110  157.1200 O   0  0  0  0  0  0  0  0  0  0  0  0
  157.4310  212.3730  155.1810 C   0  0  0  0  0  0  0  0  0  0  0  0
  157.0390  212.4980  156.6100 C   0  0  0  0  0  1  0  0  0  0  0  0
  158.7990  212.4340  154.7870 N   0  0  0  0  0  2  0  0  0  0  0  0
  156.5400  212.2090  154.3070 O   0  0  0  0  0  0  0  0  0  0  0  0
  162.5940  208.5310  151.9090 C   0  0  0  0  0  2  0  0  0  0  0  0
  162.3360  209.8960  149.7540 C   0  0  2  0  0  3  0  0  0  0  0  0
  161.1910  209.1020  150.0220 O   0  0  0  0  0  0  0  0  0  0  0  0
  160.9680  210.6070  151.8810 C   0  0  0  0  0  1  0  0  0  0  0  0
  161.8620  209.6230  151.1430 C   0  0  1  0  0  0  0  0  0  0  0  0
  161.9600  211.2440  149.3340 N   0  0  0  0  0  2  0  0  0  0  0  0
  161.7440  211.2340  147.9500 N   0  0  0  0  0  2  0  0  0  0  0  0
  162.0850  212.5100  147.4820 N   0  0  0  0  0  2  0  0  0  0  0  0
  160.9580  213.0210  146.8190 N   0  0  0  0  0  2  0  0  0  0  0  0
  161.3020  214.3700  146.3670 C   0  0  0  0  0  2  0  0  0  0  0  0
  161.4250  214.4510  144.9080 N   0  0  0  0  0  0  0  0  0  0  0  0
  160.8070  213.2750  144.3070 C   0  0  0  0  0  1  0  0  0  0  0  0
  162.8290  214.4530  144.5270 C   0  0  0  0  0  1  0  0  0  0  0  0
  161.6020  205.6410  151.8430 C   0  0  1  0  0  3  0  0  0  0  0  0
  161.4370  204.2070  152.3350 C   0  0  0  0  0  2  0  0  0  0  0  0
  161.2110  202.1280  151.6400 C   0  0  0  0  0  1  0  0  0  0  0  0
  160.8000  203.4300  151.3680 O   0  0  0  0  0  0  0  0  0  0  0  0
  160.6930  205.9210  150.6580 C   0  0  0  0  0  2  0  0  0  0  0  0
  161.5220  206.1620  149.4130 C   0  0  0  0  0  2  0  0  0  0  0  0
  160.9720  205.3610  148.2860 C   0  0  0  0  0  3  0  0  0  0  0  0
  161.4190  204.1260  148.0690 C   0  0  0  0  0  3  0  0  0  0  0  0
  160.8940  203.3050  146.9270 C   0  0  2  0  0  3  0  0  0  0  0  0
  160.7410  201.4790  148.6430 O   0  0  0  0  0  1  0  0  0  0  0  0
  160.8210  201.8550  147.3080 C   0  0  0  0  0  0  0  0  0  0  0  0
  160.8550  200.9790  146.4110 O   0  0  0  0  0  0  0  0  0  0  0  0
  161.6840  203.5590  145.6340 C   0  0  2  0  0  3  0  0  0  0  0  0
  163.0110  204.2330  145.9290 C   0  0  0  0  0  1  0  0  0  0  0  0
  160.8750  204.3410  144.5970 C   0  0  0  0  0  2  0  0  0  0  0  0
  160.0740  206.5270  144.9230 O   0  0  0  0  0  0  0  0  0  0  0  0
  161.0510  205.8140  144.7740 C   0  0  0  0  0  3  0  0  0  0  0  0
  1 11  1  0  0  0  0
  1  7  1  0  0  0  0
  2  1  2  0  0  0  0
  3  5  1  0  0  0  0
  4  3  1  0  0  0  0
  5  7  2  0  0  0  0
  6  9  2  0  0  0  0
  6  8  1  0  0  0  0
  8  2  1  0  0  0  0
  8  3  2  0  0  0  0
  9  4  1  0  0  0  0
 10 11  1  0  0  0  0
 11 12  2  0  0  0  0
 13 14  1  0  0  0  0
 15 13  1  0  0  0  0
 15 10  1  0  0  0  0
 16 13  2  0  0  0  0
 17  6  1  0  0  0  0
 18 22  1  6  0  0  0
 18 19  1  0  0  0  0
 18 21  1  0  0  0  0
 19 21  1  0  0  0  0
 21 20  1  1  0  0  0
 21 17  1  0  0  0  0
 23 22  1  0  0  0  0
 24 23  1  0  0  0  0
 25 24  1  0  0  0  0
 26 25  1  0  0  0  0
 27 26  1  0  0  0  0
 28 27  1  0  0  0  0
 29 27  1  0  0  0  0
 30 34  1  6  0  0  0
 30 31  1  0  0  0  0
 30  9  1  0  0  0  0
 33 32  1  0  0  0  0
 33 31  1  0  0  0  0
 35 34  1  0  0  0  0
 36 35  1  0  0  0  0
 37 36  2  0  0  0  0
 38 40  1  0  0  0  0
 38 37  1  1  0  0  0
 40 39  1  0  0  0  0
 41 40  2  0  0  0  0
 42 43  1  1  0  0  0
 42 38  1  0  0  0  0
 44 46  1  0  0  0  0
 44 42  1  0  0  0  0
 46 45  2  0  0  0  0
M  END
>  <MODEL>
3

>  <REMARK>
 VINA RESULT:      -5.3      2.129      6.379
  Name = 
  21 active torsions:
  status: ('A' for Active; 'I' for Inactive)
    1  A    between atoms: C_1  and  C_33
    2  A    between atoms: C_1  and  C_41
    3  A    between atoms: N_2  and  C_4
    4  A    between atoms: C_4  and  N_38
    5  A    between atoms: C_6  and  N_28
    6  A    between atoms: N_8  and  N_16
    7  A    between atoms: C_9  and  C_34
    8  A    between atoms: N_10  and  N_19
    9  A    between atoms: N_10  and  N_38
   10  A    between atoms: C_11  and  C_27
   11  A    between atoms: C_12  and  C_20
   12  A    between atoms: C_12  and  C_21
   13  A    between atoms: C_15  and  C_20
   14  A    between atoms: C_15  and  C_40
   15  A    between atoms: C_15  and  C_42
   16  A    between atoms: N_19  and  N_28
   17  A    between atoms: C_24  and  C_25
   18  A    between atoms: C_24  and  C_27
   19  A    between atoms: C_25  and  C_26
   20  A    between atoms: C_25  and  C_46
   21  A    between atoms: C_26  and  O_45
                            x       y       z     vdW  Elec       q    Type
                         _______ _______ _______ _____ _____    ______ ____

>  <TORSDO>
F 21

$$$$
=
 OpenBabel11042420593D

 46 48  0  0  1  0  0  0  0  0999 V2000
  160.0790  210.3230  154.9530 C   0  0  0  0  0  0  0  0  0  0  0  0
  160.2170  210.0170  153.5820 C   0  0  0  0  0  3  0  0  0  0  0  0
  161.0440  207.8430  154.2150 C   0  0  0  0  0  0  0  0  0  0  0  0
  161.5040  206.5660  153.5970 C   0  0  0  0  0  2  0  0  0  0  0  0
  160.9380  208.1710  155.5600 C   0  0  0  0  0  3  0  0  0  0  0  0
  160.9540  208.1690  151.9530 C   0  0  0  0  0  0  0  0  0  0  0  0
  160.4680  209.4080  155.8960 N   0  0  0  0  0  0  0  0  0  0  0  0
  160.7120  208.7570  153.2530 C   0  0  0  0  0  0  0  0  0  0  0  0
  161.4060  206.9220  152.1320 C   0  0  0  0  0  0  0  0  0  0  0  0
  158.2040  212.0430  155.2100 N   0  0  0  0  0  2  0  0  0  0  0  0
  159.5680  211.6400  155.3940 C   0  0  0  0  0  0  0  0  0  0  0  0
  160.3620  212.4400  155.9540 O   0  0  0  0  0  0  0  0  0  0  0  0
  155.9850  210.9810  155.3730 C   0  0  0  0  0  0  0  0  0  0  0  0
  155.7110  211.6260  156.6840 C   0  0  0  0  0  1  0  0  0  0  0  0
  157.2240  211.1860  154.6980 N   0  0  0  0  0  2  0  0  0  0  0  0
  155.1100  210.2410  154.8520 O   0  0  0  0  0  0  0  0  0  0  0  0
  160.8610  208.8870  150.6420 C   0  0  0  0  0  2  0  0  0  0  0  0
  161.8110  210.9260  149.4090 C   0  0  2  0  0  3  0  0  0  0  0  0
  161.1910  211.2840  150.6340 O   0  0  0  0  0  0  0  0  0  0  0  0
  163.0350  210.0590  151.5660 C   0  0  0  0  0  1  0  0  0  0  0  0
  161.8510  210.0430  150.6120 C   0  0  1  0  0  0  0  0  0  0  0  0
  163.0830  211.6220  149.2360 N   0  0  0  0  0  2  0  0  0  0  0  0
  163.0550  212.3010  148.0110 N   0  0  0  0  0  2  0  0  0  0  0  0
  161.7180  212.3140  147.5890 N   0  0  0  0  0  2  0  0  0  0  0  0
  161.6650  213.0710  146.4090 N   0  0  0  0  0  2  0  0  0  0  0  0
  160.3380  213.6860  146.3550 C   0  0  0  0  0  2  0  0  0  0  0  0
  159.2750  212.7410  146.7130 N   0  0  0  0  0  0  0  0  0  0  0  0
  158.3660  212.5900  145.5830 C   0  0  0  0  0  1  0  0  0  0  0  0
  158.5050  213.2610  147.8320 C   0  0  0  0  0  1  0  0  0  0  0  0
  161.7000  205.9730  151.0150 C   0  0  1  0  0  3  0  0  0  0  0  0
  162.0620  204.5940  151.5550 C   0  0  0  0  0  2  0  0  0  0  0  0
  161.2940  202.6420  152.2330 C   0  0  0  0  0  1  0  0  0  0  0  0
  160.9970  203.7090  151.3900 O   0  0  0  0  0  0  0  0  0  0  0  0
  160.4980  205.8990  150.0890 C   0  0  0  0  0  2  0  0  0  0  0  0
  160.8630  206.4330  148.7190 C   0  0  0  0  0  2  0  0  0  0  0  0
  161.0060  205.3000  147.7650 C   0  0  0  0  0  3  0  0  0  0  0  0
  161.5670  204.1610  148.1640 C   0  0  0  0  0  3  0  0  0  0  0  0
  161.7390  203.0100  147.2150 C   0  0  2  0  0  3  0  0  0  0  0  0
  162.8050  204.0720  145.2050 O   0  0  0  0  0  1  0  0  0  0  0  0
  161.6900  203.4860  145.7920 C   0  0  0  0  0  0  0  0  0  0  0  0
  160.6260  203.3710  145.1390 O   0  0  0  0  0  0  0  0  0  0  0  0
  160.7500  201.8740  147.5150 C   0  0  2  0  0  3  0  0  0  0  0  0
  160.1130  202.0520  148.8810 C   0  0  0  0  0  1  0  0  0  0  0  0
  161.3840  200.4890  147.3670 C   0  0  0  0  0  2  0  0  0  0  0  0
  161.5510  198.8870  145.6540 O   0  0  0  0  0  0  0  0  0  0  0  0
  160.9070  199.8080  146.1260 C   0  0  0  0  0  3  0  0  0  0  0  0
  1 11  1  0  0  0  0
  1  7  1  0  0  0  0
  2  1  2  0  0  0  0
  3  5  1  0  0  0  0
  4  3  1  0  0  0  0
  5  7  2  0  0  0  0
  6  9  2  0  0  0  0
  6  8  1  0  0  0  0
  8  2  1  0  0  0  0
  8  3  2  0  0  0  0
  9  4  1  0  0  0  0
 10 11  1  0  0  0  0
 11 12  2  0  0  0  0
 13 14  1  0  0  0  0
 15 10  1  0  0  0  0
 15 13  1  0  0  0  0
 16 13  2  0  0  0  0
 17  6  1  0  0  0  0
 18 22  1  1  0  0  0
 18 21  1  0  0  0  0
 18 19  1  0  0  0  0
 21 19  1  0  0  0  0
 21 17  1  0  0  0  0
 21 20  1  1  0  0  0
 23 22  1  0  0  0  0
 24 23  1  0  0  0  0
 25 24  1  0  0  0  0
 26 25  1  0  0  0  0
 26 27  1  0  0  0  0
 27 29  1  0  0  0  0
 28 27  1  0  0  0  0
 30 34  1  6  0  0  0
 30 31  1  0  0  0  0
 30  9  1  0  0  0  0
 33 31  1  0  0  0  0
 33 32  1  0  0  0  0
 35 34  1  0  0  0  0
 36 37  2  0  0  0  0
 36 35  1  0  0  0  0
 38 42  1  0  0  0  0
 38 37  1  1  0  0  0
 39 40  1  0  0  0  0
 40 38  1  0  0  0  0
 41 40  2  0  0  0  0
 42 43  1  1  0  0  0
 44 42  1  0  0  0  0
 45 46  2  0  0  0  0
 46 44  1  0  0  0  0
M  END
>  <MODEL>
4

>  <REMARK>
 VINA RESULT:      -5.3      1.996      6.218
  Name = 
  21 active torsions:
  status: ('A' for Active; 'I' for Inactive)
    1  A    between atoms: C_1  and  C_33
    2  A    between atoms: C_1  and  C_41
    3  A    between atoms: N_2  and  C_4
    4  A    between atoms: C_4  and  N_38
    5  A    between atoms: C_6  and  N_28
    6  A    between atoms: N_8  and  N_16
    7  A    between atoms: C_9  and  C_34
    8  A    between atoms: N_10  and  N_19
    9  A    between atoms: N_10  and  N_38
   10  A    between atoms: C_11  and  C_27
   11  A    between atoms: C_12  and  C_20
   12  A    between atoms: C_12  and  C_21
   13  A    between atoms: C_15  and  C_20
   14  A    between atoms: C_15  and  C_40
   15  A    between atoms: C_15  and  C_42
   16  A    between atoms: N_19  and  N_28
   17  A    between atoms: C_24  and  C_25
   18  A    between atoms: C_24  and  C_27
   19  A    between atoms: C_25  and  C_26
   20  A    between atoms: C_25  and  C_46
   21  A    between atoms: C_26  and  O_45
                            x       y       z     vdW  Elec       q    Type
                         _______ _______ _______ _____ _____    ______ ____

>  <TORSDO>
F 21

$$$$
=
 OpenBabel11042420593D

 46 48  0  0  1  0  0  0  0  0999 V2000
  161.1050  205.2650  149.4440 C   0  0  0  0  0  0  0  0  0  0  0  0
  160.9960  206.5570  150.0000 C   0  0  0  0  0  3  0  0  0  0  0  0
  161.1840  205.5640  152.1880 C   0  0  0  0  0  0  0  0  0  0  0  0
  161.2390  205.9570  153.6250 C   0  0  0  0  0  2  0  0  0  0  0  0
  161.2530  204.2950  151.6280 C   0  0  0  0  0  3  0  0  0  0  0  0
  160.9520  207.8390  152.2280 C   0  0  0  0  0  0  0  0  0  0  0  0
  161.2010  204.1760  150.2700 N   0  0  0  0  0  0  0  0  0  0  0  0
  161.0350  206.6640  151.3880 C   0  0  0  0  0  0  0  0  0  0  0  0
  161.0660  207.4540  153.5050 C   0  0  0  0  0  0  0  0  0  0  0  0
  161.2620  203.7730  147.3730 N   0  0  0  0  0  2  0  0  0  0  0  0
  161.0660  205.0580  147.9790 C   0  0  0  0  0  0  0  0  0  0  0  0
  160.8520  206.0490  147.2340 O   0  0  0  0  0  0  0  0  0  0  0  0
  161.1600  201.3150  147.5420 C   0  0  0  0  0  0  0  0  0  0  0  0
  160.6950  201.1830  146.1360 C   0  0  0  0  0  1  0  0  0  0  0  0
  161.3990  202.5980  148.1180 N   0  0  0  0  0  2  0  0  0  0  0  0
  161.3440  200.2800  148.2330 O   0  0  0  0  0  0  0  0  0  0  0  0
  160.6390  209.2260  151.7570 C   0  0  0  0  0  2  0  0  0  0  0  0
  161.6270  211.1180  150.3360 C   0  0  2  0  0  3  0  0  0  0  0  0
  162.5180  210.6970  151.3570 O   0  0  0  0  0  0  0  0  0  0  0  0
  162.5730  208.6850  150.0480 C   0  0  0  0  0  1  0  0  0  0  0  0
  161.7120  209.6970  150.7850 C   0  0  1  0  0  0  0  0  0  0  0  0
  162.3260  211.3020  149.0660 N   0  0  0  0  0  2  0  0  0  0  0  0
  161.4230  211.8290  148.1340 N   0  0  0  0  0  2  0  0  0  0  0  0
  162.1620  212.6710  147.2920 N   0  0  0  0  0  2  0  0  0  0  0  0
  161.3010  213.0850  146.2640 N   0  0  0  0  0  2  0  0  0  0  0  0
  160.0780  212.2910  146.3840 C   0  0  0  0  0  2  0  0  0  0  0  0
  159.1870  212.4690  145.2330 N   0  0  0  0  0  0  0  0  0  0  0  0
  159.8830  212.0610  144.0190 C   0  0  0  0  0  1  0  0  0  0  0  0
  158.8360  213.8720  145.0880 C   0  0  0  0  0  1  0  0  0  0  0  0
  161.0980  208.3990  154.6630 C   0  0  1  0  0  3  0  0  0  0  0  0
  161.5300  207.6830  155.9370 C   0  0  0  0  0  2  0  0  0  0  0  0
  159.3760  208.1010  156.1450 C   0  0  0  0  0  1  0  0  0  0  0  0
  160.4810  207.6400  156.8540 O   0  0  0  0  0  0  0  0  0  0  0  0
  162.0310  209.5550  154.3420 C   0  0  0  0  0  2  0  0  0  0  0  0
  161.5920  210.7990  155.0860 C   0  0  0  0  0  2  0  0  0  0  0  0
  160.5010  211.4720  154.3300 C   0  0  0  0  0  3  0  0  0  0  0  0
  159.2670  211.4960  154.8260 C   0  0  0  0  0  3  0  0  0  0  0  0
  158.1450  212.1530  154.0750 C   0  0  2  0  0  3  0  0  0  0  0  0
  158.8990  212.6860  151.7400 O   0  0  0  0  0  0  0  0  0  0  0  0
  158.6820  213.1060  153.0470 C   0  0  0  0  0  0  0  0  0  0  0  0
  158.9570  214.2830  153.3810 O   0  0  0  0  0  1  0  0  0  0  0  0
  157.1210  212.7920  155.0260 C   0  0  2  0  0  3  0  0  0  0  0  0
  157.6670  212.8720  156.4390 C   0  0  0  0  0  1  0  0  0  0  0  0
  155.7640  212.0870  154.9860 C   0  0  0  0  0  2  0  0  0  0  0  0
  154.9460  209.8900  155.1720 O   0  0  0  0  0  0  0  0  0  0  0  0
  155.8990  210.6370  155.3180 C   0  0  0  0  0  3  0  0  0  0  0  0
  1  2  2  0  0  0  0
  1  7  1  0  0  0  0
  2  8  1  0  0  0  0
  3  4  1  0  0  0  0
  5  3  1  0  0  0  0
  6  9  2  0  0  0  0
  7  5  2  0  0  0  0
  8  3  2  0  0  0  0
  8  6  1  0  0  0  0
  9  4  1  0  0  0  0
  9 30  1  0  0  0  0
 10 11  1  0  0  0  0
 10 15  1  0  0  0  0
 11  1  1  0  0  0  0
 12 11  2  0  0  0  0
 13 15  1  0  0  0  0
 13 16  2  0  0  0  0
 14 13  1  0  0  0  0
 17  6  1  0  0  0  0
 18 22  1  6  0  0  0
 18 21  1  0  0  0  0
 18 19  1  0  0  0  0
 21 20  1  6  0  0  0
 21 19  1  0  0  0  0
 21 17  1  0  0  0  0
 23 22  1  0  0  0  0
 24 23  1  0  0  0  0
 25 26  1  0  0  0  0
 25 24  1  0  0  0  0
 27 26  1  0  0  0  0
 28 27  1  0  0  0  0
 29 27  1  0  0  0  0
 30 34  1  6  0  0  0
 30 31  1  0  0  0  0
 31 33  1  0  0  0  0
 32 33  1  0  0  0  0
 34 35  1  0  0  0  0
 36 37  2  0  0  0  0
 36 35  1  0  0  0  0
 38 37  1  1  0  0  0
 38 42  1  0  0  0  0
 39 40  2  0  0  0  0
 40 41  1  0  0  0  0
 40 38  1  0  0  0  0
 42 43  1  1  0  0  0
 44 42  1  0  0  0  0
 44 46  1  0  0  0  0
 45 46  2  0  0  0  0
M  END
>  <MODEL>
5

>  <REMARK>
 VINA RESULT:      -4.9      3.276      8.767
  Name = 
  21 active torsions:
  status: ('A' for Active; 'I' for Inactive)
    1  A    between atoms: C_1  and  C_33
    2  A    between atoms: C_1  and  C_41
    3  A    between atoms: N_2  and  C_4
    4  A    between atoms: C_4  and  N_38
    5  A    between atoms: C_6  and  N_28
    6  A    between atoms: N_8  and  N_16
    7  A    between atoms: C_9  and  C_34
    8  A    between atoms: N_10  and  N_19
    9  A    between atoms: N_10  and  N_38
   10  A    between atoms: C_11  and  C_27
   11  A    between atoms: C_12  and  C_20
   12  A    between atoms: C_12  and  C_21
   13  A    between atoms: C_15  and  C_20
   14  A    between atoms: C_15  and  C_40
   15  A    between atoms: C_15  and  C_42
   16  A    between atoms: N_19  and  N_28
   17  A    between atoms: C_24  and  C_25
   18  A    between atoms: C_24  and  C_27
   19  A    between atoms: C_25  and  C_26
   20  A    between atoms: C_25  and  C_46
   21  A    between atoms: C_26  and  O_45
                            x       y       z     vdW  Elec       q    Type
                         _______ _______ _______ _____ _____    ______ ____

>  <TORSDO>
F 21

$$$$
=
 OpenBabel11042420593D

 46 48  0  0  1  0  0  0  0  0999 V2000
  160.9470  212.9140  149.4210 C   0  0  0  0  0  0  0  0  0  0  0  0
  161.5170  211.6790  149.7990 C   0  0  0  0  0  3  0  0  0  0  0  0
  160.4370  211.9080  151.9420 C   0  0  0  0  0  0  0  0  0  0  0  0
  160.2670  211.1690  153.2250 C   0  0  0  0  0  2  0  0  0  0  0  0
  159.9140  213.1390  151.5700 C   0  0  0  0  0  3  0  0  0  0  0  0
  161.6720  209.9940  151.7350 C   0  0  0  0  0  0  0  0  0  0  0  0
  160.1910  213.6170  150.3220 N   0  0  0  0  0  0  0  0  0  0  0  0
  161.2390  211.2100  151.0810 C   0  0  0  0  0  0  0  0  0  0  0  0
  161.1270  209.9560  152.9570 C   0  0  0  0  0  0  0  0  0  0  0  0
  160.1360  213.8180  147.1710 N   0  0  0  0  0  2  0  0  0  0  0  0
  161.1940  213.4910  148.0810 C   0  0  0  0  0  0  0  0  0  0  0  0
  162.3820  213.7050  147.7250 O   0  0  0  0  0  0  0  0  0  0  0  0
  157.8390  213.0880  146.6530 C   0  0  0  0  0  0  0  0  0  0  0  0
  158.2460  212.5640  145.3220 C   0  0  0  0  0  1  0  0  0  0  0  0
  158.7840  213.7180  147.5140 N   0  0  0  0  0  2  0  0  0  0  0  0
  156.6410  212.9740  147.0230 O   0  0  0  0  0  0  0  0  0  0  0  0
  162.6770  209.0250  151.1930 C   0  0  0  0  0  2  0  0  0  0  0  0
  162.5670  208.1230  148.7950 C   0  0  2  0  0  3  0  0  0  0  0  0
  162.9020  207.1110  149.7310 O   0  0  0  0  0  0  0  0  0  0  0  0
  160.6530  207.4920  150.4790 C   0  0  0  0  0  1  0  0  0  0  0  0
  162.0130  208.1020  150.1810 C   0  0  1  0  0  0  0  0  0  0  0  0
  161.5740  207.6480  147.8340 N   0  0  0  0  0  2  0  0  0  0  0  0
  162.1450  206.6170  147.0780 N   0  0  0  0  0  2  0  0  0  0  0  0
  161.2160  206.2860  146.0820 N   0  0  0  0  0  2  0  0  0  0  0  0
  161.9380  205.7550  145.0030 N   0  0  0  0  0  2  0  0  0  0  0  0
  162.1270  204.3300  145.2740 C   0  0  0  0  0  2  0  0  0  0  0  0
  160.8730  203.6660  145.6480 N   0  0  0  0  0  0  0  0  0  0  0  0
  161.1660  202.3210  146.1280 C   0  0  0  0  0  1  0  0  0  0  0  0
  160.0120  203.5400  144.4840 C   0  0  0  0  0  1  0  0  0  0  0  0
  161.2890  208.8130  153.9070 C   0  0  1  0  0  3  0  0  0  0  0  0
  160.8780  209.2170  155.3180 C   0  0  0  0  0  2  0  0  0  0  0  0
  162.0080  210.4260  156.7750 C   0  0  0  0  0  1  0  0  0  0  0  0
  161.9730  209.1690  156.1790 O   0  0  0  0  0  0  0  0  0  0  0  0
  160.4680  207.6320  153.4160 C   0  0  0  0  0  2  0  0  0  0  0  0
  161.1120  206.3330  153.8550 C   0  0  0  0  0  2  0  0  0  0  0  0
  161.5960  205.5890  152.6610 C   0  0  0  0  0  3  0  0  0  0  0  0
  161.0990  204.3860  152.3820 C   0  0  0  0  0  3  0  0  0  0  0  0
  161.5840  203.6070  151.1940 C   0  0  2  0  0  3  0  0  0  0  0  0
  161.9160  204.2660  148.7940 O   0  0  0  0  0  0  0  0  0  0  0  0
  161.0990  204.2310  149.9180 C   0  0  0  0  0  0  0  0  0  0  0  0
  159.9550  204.7440  149.8770 O   0  0  0  0  0  1  0  0  0  0  0  0
  161.2400  202.1150  151.3140 C   0  0  2  0  0  3  0  0  0  0  0  0
  162.3390  201.3580  152.0360 C   0  0  0  0  0  1  0  0  0  0  0  0
  160.9120  201.4760  149.9630 C   0  0  0  0  0  2  0  0  0  0  0  0
  158.7400  201.3480  149.0720 O   0  0  0  0  0  0  0  0  0  0  0  0
  159.5100  200.9620  149.9350 C   0  0  0  0  0  3  0  0  0  0  0  0
  1  2  2  0  0  0  0
  1  7  1  0  0  0  0
  2  8  1  0  0  0  0
  3  4  1  0  0  0  0
  5  3  1  0  0  0  0
  6  9  2  0  0  0  0
  7  5  2  0  0  0  0
  8  6  1  0  0  0  0
  8  3  2  0  0  0  0
  9  4  1  0  0  0  0
  9 30  1  0  0  0  0
 10 15  1  0  0  0  0
 10 11  1  0  0  0  0
 11  1  1  0  0  0  0
 12 11  2  0  0  0  0
 13 16  2  0  0  0  0
 13 15  1  0  0  0  0
 14 13  1  0  0  0  0
 17  6  1  0  0  0  0
 18 22  1  6  0  0  0
 18 19  1  0  0  0  0
 18 21  1  0  0  0  0
 19 21  1  0  0  0  0
 21 20  1  1  0  0  0
 21 17  1  0  0  0  0
 23 22  1  0  0  0  0
 24 23  1  0  0  0  0
 25 26  1  0  0  0  0
 25 24  1  0  0  0  0
 26 27  1  0  0  0  0
 27 28  1  0  0  0  0
 29 27  1  0  0  0  0
 30 34  1  6  0  0  0
 30 31  1  0  0  0  0
 31 33  1  0  0  0  0
 33 32  1  0  0  0  0
 34 35  1  0  0  0  0
 36 35  1  0  0  0  0
 37 36  2  0  0  0  0
 38 42  1  0  0  0  0
 38 37  1  1  0  0  0
 39 40  2  0  0  0  0
 40 38  1  0  0  0  0
 41 40  1  0  0  0  0
 42 43  1  6  0  0  0
 44 42  1  0  0  0  0
 45 46  2  0  0  0  0
 46 44  1  0  0  0  0
M  END
>  <MODEL>
6

>  <REMARK>
 VINA RESULT:      -4.2      2.974      6.514
  Name = 
  21 active torsions:
  status: ('A' for Active; 'I' for Inactive)
    1  A    between atoms: C_1  and  C_33
    2  A    between atoms: C_1  and  C_41
    3  A    between atoms: N_2  and  C_4
    4  A    between atoms: C_4  and  N_38
    5  A    between atoms: C_6  and  N_28
    6  A    between atoms: N_8  and  N_16
    7  A    between atoms: C_9  and  C_34
    8  A    between atoms: N_10  and  N_19
    9  A    between atoms: N_10  and  N_38
   10  A    between atoms: C_11  and  C_27
   11  A    between atoms: C_12  and  C_20
   12  A    between atoms: C_12  and  C_21
   13  A    between atoms: C_15  and  C_20
   14  A    between atoms: C_15  and  C_40
   15  A    between atoms: C_15  and  C_42
   16  A    between atoms: N_19  and  N_28
   17  A    between atoms: C_24  and  C_25
   18  A    between atoms: C_24  and  C_27
   19  A    between atoms: C_25  and  C_26
   20  A    between atoms: C_25  and  C_46
   21  A    between atoms: C_26  and  O_45
                            x       y       z     vdW  Elec       q    Type
                         _______ _______ _______ _____ _____    ______ ____

>  <TORSDO>
F 21

$$$$
=
 OpenBabel11042420593D

 46 48  0  0  1  0  0  0  0  0999 V2000
  161.2690  209.1920  154.4790 C   0  0  0  0  0  0  0  0  0  0  0  0
  161.7490  208.5340  153.3270 C   0  0  0  0  0  3  0  0  0  0  0  0
  160.7630  206.4970  154.1560 C   0  0  0  0  0  0  0  0  0  0  0  0
  160.5770  205.0710  153.7640 C   0  0  0  0  0  2  0  0  0  0  0  0
  160.3300  207.1490  155.3030 C   0  0  0  0  0  3  0  0  0  0  0  0
  161.8310  206.2500  152.1480 C   0  0  0  0  0  0  0  0  0  0  0  0
  160.6030  208.4790  155.4410 N   0  0  0  0  0  0  0  0  0  0  0  0
  161.4760  207.1730  153.2050 C   0  0  0  0  0  0  0  0  0  0  0  0
  161.3260  205.0480  152.4520 C   0  0  0  0  0  0  0  0  0  0  0  0
  160.8890  211.6560  153.9070 N   0  0  0  0  0  2  0  0  0  0  0  0
  161.5170  210.6350  154.6940 C   0  0  0  0  0  0  0  0  0  0  0  0
  162.3130  210.9820  155.6050 O   0  0  0  0  0  0  0  0  0  0  0  0
  158.6500  212.0420  152.9490 C   0  0  0  0  0  0  0  0  0  0  0  0
  158.3010  213.0190  154.0140 C   0  0  0  0  0  1  0  0  0  0  0  0
  159.9110  211.3760  152.9470 N   0  0  0  0  0  2  0  0  0  0  0  0
  157.8180  211.7970  152.0360 O   0  0  0  0  0  0  0  0  0  0  0  0
  162.7360  206.5540  150.9940 C   0  0  0  0  0  2  0  0  0  0  0  0
  162.5280  208.6440  149.5220 C   0  0  2  0  0  3  0  0  0  0  0  0
  162.7360  207.4690  148.7540 O   0  0  0  0  0  0  0  0  0  0  0  0
  160.5450  206.9210  149.5720 C   0  0  0  0  0  1  0  0  0  0  0  0
  161.9700  207.3190  149.9230 C   0  0  1  0  0  0  0  0  0  0  0  0
  161.4890  209.4850  148.9320 N   0  0  0  0  0  2  0  0  0  0  0  0
  162.1070  210.5140  148.2110 N   0  0  0  0  0  2  0  0  0  0  0  0
  162.2310  211.6010  149.0870 N   0  0  0  0  0  2  0  0  0  0  0  0
  161.2660  212.5470  148.7090 N   0  0  0  0  0  2  0  0  0  0  0  0
  161.3200  212.6550  147.2510 C   0  0  0  0  0  2  0  0  0  0  0  0
  160.0070  212.9510  146.6680 N   0  0  0  0  0  0  0  0  0  0  0  0
  159.8540  212.2060  145.4250 C   0  0  0  0  0  1  0  0  0  0  0  0
  159.9150  214.3670  146.3470 C   0  0  0  0  0  1  0  0  0  0  0  0
  161.4260  203.8520  151.5620 C   0  0  1  0  0  3  0  0  0  0  0  0
  161.6300  202.5810  152.3790 C   0  0  0  0  0  2  0  0  0  0  0  0
  163.4520  201.3990  152.0040 C   0  0  0  0  0  1  0  0  0  0  0  0
  162.1380  201.5600  151.5760 O   0  0  0  0  0  0  0  0  0  0  0  0
  160.1740  203.7570  150.7060 C   0  0  0  0  0  2  0  0  0  0  0  0
  160.0370  202.3590  150.1380 C   0  0  0  0  0  2  0  0  0  0  0  0
  159.8240  202.4380  148.6670 C   0  0  0  0  0  3  0  0  0  0  0  0
  160.8660  202.3820  147.8410 C   0  0  0  0  0  3  0  0  0  0  0  0
  160.6790  202.4780  146.3550 C   0  0  2  0  0  3  0  0  0  0  0  0
  159.9460  200.8910  144.5520 O   0  0  0  0  0  0  0  0  0  0  0  0
  160.6390  201.1110  145.7370 C   0  0  0  0  0  0  0  0  0  0  0  0
  161.2180  200.1570  146.3090 O   0  0  0  0  0  1  0  0  0  0  0  0
  161.7150  203.4100  145.7110 C   0  0  2  0  0  3  0  0  0  0  0  0
  162.5410  204.1200  146.7670 C   0  0  0  0  0  1  0  0  0  0  0  0
  161.0850  204.4020  144.7310 C   0  0  0  0  0  2  0  0  0  0  0  0
  160.2100  206.5840  144.8050 O   0  0  0  0  0  0  0  0  0  0  0  0
  160.5620  205.6060  145.4440 C   0  0  0  0  0  3  0  0  0  0  0  0
  1 11  1  0  0  0  0
  1  7  1  0  0  0  0
  2  1  2  0  0  0  0
  3  5  1  0  0  0  0
  4  3  1  0  0  0  0
  5  7  2  0  0  0  0
  6  9  2  0  0  0  0
  6  8  1  0  0  0  0
  8  2  1  0  0  0  0
  8  3  2  0  0  0  0
  9  4  1  0  0  0  0
 10 11  1  0  0  0  0
 11 12  2  0  0  0  0
 13 14  1  0  0  0  0
 15 13  1  0  0  0  0
 15 10  1  0  0  0  0
 16 13  2  0  0  0  0
 17  6  1  0  0  0  0
 18 22  1  6  0  0  0
 18 21  1  0  0  0  0
 19 18  1  0  0  0  0
 19 21  1  0  0  0  0
 21 20  1  6  0  0  0
 21 17  1  0  0  0  0
 23 22  1  0  0  0  0
 23 24  1  0  0  0  0
 25 24  1  0  0  0  0
 26 25  1  0  0  0  0
 27 26  1  0  0  0  0
 28 27  1  0  0  0  0
 29 27  1  0  0  0  0
 30 34  1  1  0  0  0
 30 31  1  0  0  0  0
 30  9  1  0  0  0  0
 33 32  1  0  0  0  0
 33 31  1  0  0  0  0
 35 34  1  0  0  0  0
 36 35  1  0  0  0  0
 37 36  2  0  0  0  0
 38 37  1  1  0  0  0
 39 40  2  0  0  0  0
 40 41  1  0  0  0  0
 40 38  1  0  0  0  0
 42 38  1  0  0  0  0
 42 43  1  1  0  0  0
 44 46  1  0  0  0  0
 44 42  1  0  0  0  0
 45 46  2  0  0  0  0
M  END
>  <MODEL>
7

>  <REMARK>
 VINA RESULT:      -4.2      2.408      5.933
  Name = 
  21 active torsions:
  status: ('A' for Active; 'I' for Inactive)
    1  A    between atoms: C_1  and  C_33
    2  A    between atoms: C_1  and  C_41
    3  A    between atoms: N_2  and  C_4
    4  A    between atoms: C_4  and  N_38
    5  A    between atoms: C_6  and  N_28
    6  A    between atoms: N_8  and  N_16
    7  A    between atoms: C_9  and  C_34
    8  A    between atoms: N_10  and  N_19
    9  A    between atoms: N_10  and  N_38
   10  A    between atoms: C_11  and  C_27
   11  A    between atoms: C_12  and  C_20
   12  A    between atoms: C_12  and  C_21
   13  A    between atoms: C_15  and  C_20
   14  A    between atoms: C_15  and  C_40
   15  A    between atoms: C_15  and  C_42
   16  A    between atoms: N_19  and  N_28
   17  A    between atoms: C_24  and  C_25
   18  A    between atoms: C_24  and  C_27
   19  A    between atoms: C_25  and  C_26
   20  A    between atoms: C_25  and  C_46
   21  A    between atoms: C_26  and  O_45
                            x       y       z     vdW  Elec       q    Type
                         _______ _______ _______ _____ _____    ______ ____

>  <TORSDO>
F 21

$$$$
=
 OpenBabel11042420593D

 46 48  0  0  1  0  0  0  0  0999 V2000
  161.7630  209.7980  155.0870 C   0  0  0  0  0  0  0  0  0  0  0  0
  162.0820  210.0210  153.7310 C   0  0  0  0  0  3  0  0  0  0  0  0
  161.0810  207.8910  153.2100 C   0  0  0  0  0  0  0  0  0  0  0  0
  160.7770  207.0230  152.0360 C   0  0  0  0  0  3  0  0  0  0  0  0
  160.8070  207.6680  154.5530 C   0  0  0  0  0  3  0  0  0  0  0  0
  161.9160  208.9860  151.3830 C   0  0  0  0  0  0  0  0  0  0  0  0
  161.1650  208.6220  155.4600 N   0  0  0  0  0  0  0  0  0  0  0  0
  161.7250  209.0320  152.8170 C   0  0  1  0  0  3  0  0  0  0  0  0
  161.3820  207.8480  150.9230 C   0  0  0  0  0  0  0  0  0  0  0  0
  161.1220  211.4670  156.9160 N   0  0  0  0  0  2  0  0  0  0  0  0
  162.1110  210.7910  156.1270 C   0  0  0  0  0  0  0  0  0  0  0  0
  163.3250  211.0550  156.3300 O   0  0  0  0  0  0  0  0  0  0  0  0
  158.8600  211.9520  156.0610 C   0  0  0  0  0  0  0  0  0  0  0  0
  159.3310  213.1670  155.3450 C   0  0  0  0  0  1  0  0  0  0  0  0
  159.7580  211.1640  156.8400 N   0  0  0  0  0  2  0  0  0  0  0  0
  157.6500  211.6150  155.9800 O   0  0  0  0  0  0  0  0  0  0  0  0
  162.7090  209.9690  150.5780 C   0  0  0  0  0  2  0  0  0  0  0  0
  162.2780  211.7410  148.7740 C   0  0  2  0  0  3  0  0  0  0  0  0
  161.3630  210.6590  148.6900 O   0  0  0  0  0  0  0  0  0  0  0  0
  160.6040  211.5450  150.7900 C   0  0  0  0  0  1  0  0  0  0  0  0
  161.7810  211.0190  149.9830 C   0  0  1  0  0  0  0  0  0  0  0  0
  161.5970  213.0240  148.6220 N   0  0  0  0  0  2  0  0  0  0  0  0
  162.4050  213.8670  147.8480 N   0  0  0  0  0  2  0  0  0  0  0  0
  161.7600  214.0180  146.6130 N   0  0  0  0  0  2  0  0  0  0  0  0
  162.6520  213.5750  145.6240 N   0  0  0  0  0  2  0  0  0  0  0  0
  161.8440  213.0960  144.5030 C   0  0  0  0  0  2  0  0  0  0  0  0
  162.6520  212.8490  143.3040 N   0  0  0  0  0  0  0  0  0  0  0  0
  163.1250  214.1200  142.7720 C   0  0  0  0  0  1  0  0  0  0  0  0
  161.8360  212.2180  142.2780 C   0  0  0  0  0  1  0  0  0  0  0  0
  161.3220  207.4790  149.4760 C   0  0  1  0  0  3  0  0  0  0  0  0
  162.7210  207.2440  148.9170 C   0  0  0  0  0  2  0  0  0  0  0  0
  161.3570  207.3310  147.1870 C   0  0  0  0  0  1  0  0  0  0  0  0
  162.6660  207.0180  147.5420 O   0  0  0  0  0  0  0  0  0  0  0  0
  160.4520  206.2440  149.3080 C   0  0  0  0  0  2  0  0  0  0  0  0
  161.1450  205.0350  149.9020 C   0  0  0  0  0  2  0  0  0  0  0  0
  160.9310  203.8560  149.0200 C   0  0  0  0  0  3  0  0  0  0  0  0
  161.6810  203.6940  147.9330 C   0  0  0  0  0  3  0  0  0  0  0  0
  161.4720  202.5220  147.0170 C   0  0  2  0  0  3  0  0  0  0  0  0
  160.2200  202.0480  144.8930 O   0  0  0  0  0  0  0  0  0  0  0  0
  160.8520  202.9650  145.7240 C   0  0  0  0  0  0  0  0  0  0  0  0
  160.9270  204.1700  145.3840 O   0  0  0  0  0  1  0  0  0  0  0  0
  160.6990  201.3900  147.7100 C   0  0  2  0  0  3  0  0  0  0  0  0
  159.4540  201.9210  148.3970 C   0  0  0  0  0  1  0  0  0  0  0  0
  161.5730  200.5870  148.6750 C   0  0  0  0  0  2  0  0  0  0  0  0
  161.5830  201.4470  150.8640 O   0  0  0  0  0  0  0  0  0  0  0  0
  161.0580  200.6800  150.0740 C   0  0  0  0  0  3  0  0  0  0  0  0
  1  7  1  0  0  0  0
  1 11  1  0  0  0  0
  2  1  2  0  0  0  0
  3  5  1  0  0  0  0
  4  3  2  0  0  0  0
  5  7  2  0  0  0  0
  6  8  1  0  0  0  0
  8  3  1  0  0  0  0
  8  2  1  6  0  0  0
  9  6  2  0  0  0  0
  9  4  1  0  0  0  0
 11 12  2  0  0  0  0
 11 10  1  0  0  0  0
 13 15  1  0  0  0  0
 14 13  1  0  0  0  0
 15 10  1  0  0  0  0
 16 13  2  0  0  0  0
 17  6  1  0  0  0  0
 18 22  1  1  0  0  0
 18 21  1  0  0  0  0
 19 18  1  0  0  0  0
 19 21  1  0  0  0  0
 21 17  1  0  0  0  0
 21 20  1  1  0  0  0
 23 22  1  0  0  0  0
 24 23  1  0  0  0  0
 25 24  1  0  0  0  0
 26 25  1  0  0  0  0
 27 26  1  0  0  0  0
 28 27  1  0  0  0  0
 29 27  1  0  0  0  0
 30 31  1  1  0  0  0
 30  9  1  0  0  0  0
 32 33  1  0  0  0  0
 33 31  1  0  0  0  0
 34 30  1  0  0  0  0
 34 35  1  0  0  0  0
 36 35  1  0  0  0  0
 37 36  2  0  0  0  0
 38 42  1  0  0  0  0
 38 37  1  1  0  0  0
 39 40  2  0  0  0  0
 40 38  1  0  0  0  0
 41 40  1  0  0  0  0
 42 43  1  1  0  0  0
 42 44  1  0  0  0  0
 44 46  1  0  0  0  0
 46 45  2  0  0  0  0
M  END
>  <MODEL>
8

>  <REMARK>
 VINA RESULT:      -4.0      2.316      7.165
  Name = 
  21 active torsions:
  status: ('A' for Active; 'I' for Inactive)
    1  A    between atoms: C_1  and  C_33
    2  A    between atoms: C_1  and  C_41
    3  A    between atoms: N_2  and  C_4
    4  A    between atoms: C_4  and  N_38
    5  A    between atoms: C_6  and  N_28
    6  A    between atoms: N_8  and  N_16
    7  A    between atoms: C_9  and  C_34
    8  A    between atoms: N_10  and  N_19
    9  A    between atoms: N_10  and  N_38
   10  A    between atoms: C_11  and  C_27
   11  A    between atoms: C_12  and  C_20
   12  A    between atoms: C_12  and  C_21
   13  A    between atoms: C_15  and  C_20
   14  A    between atoms: C_15  and  C_40
   15  A    between atoms: C_15  and  C_42
   16  A    between atoms: N_19  and  N_28
   17  A    between atoms: C_24  and  C_25
   18  A    between atoms: C_24  and  C_27
   19  A    between atoms: C_25  and  C_26
   20  A    between atoms: C_25  and  C_46
   21  A    between atoms: C_26  and  O_45
                            x       y       z     vdW  Elec       q    Type
                         _______ _______ _______ _____ _____    ______ ____

>  <TORSDO>
F 21

$$$$
=
 OpenBabel11042420593D

 46 48  0  0  1  0  0  0  0  0999 V2000
  161.2030  203.4630  149.0900 C   0  0  0  0  0  0  0  0  0  0  0  0
  161.5760  204.4260  150.0510 C   0  0  0  0  0  2  0  0  0  0  0  0
  161.1690  206.1380  148.4030 C   0  0  0  0  0  0  0  0  0  0  0  0
  161.1880  207.6220  148.2610 C   0  0  0  0  0  3  0  0  0  0  0  0
  160.8410  205.1760  147.4560 C   0  0  0  0  0  3  0  0  0  0  0  0
  161.8700  206.9540  150.4210 C   0  0  0  0  0  0  0  0  0  0  0  0
  160.8760  203.8620  147.8200 N   0  0  0  0  0  0  0  0  0  0  0  0
  161.5500  205.7640  149.6620 C   0  0  0  0  0  0  0  0  0  0  0  0
  161.6700  208.0210  149.6370 C   0  0  0  0  0  0  0  0  0  0  0  0
  160.8010  201.0140  148.4760 N   0  0  0  0  0  2  0  0  0  0  0  0
  161.2080  202.0190  149.4130 C   0  0  0  0  0  0  0  0  0  0  0  0
  161.5840  201.6580  150.5580 O   0  0  0  0  0  0  0  0  0  0  0  0
  160.8300  200.4340  146.0800 C   0  0  0  0  0  0  0  0  0  0  0  0
  161.6280  199.2040  146.3300 C   0  0  0  0  0  1  0  0  0  0  0  0
  160.4700  201.3060  147.1490 N   0  0  0  0  0  2  0  0  0  0  0  0
  160.4680  200.7090  144.9060 O   0  0  0  0  0  0  0  0  0  0  0  0
  162.4690  206.9770  151.7940 C   0  0  0  0  0  2  0  0  0  0  0  0
  160.9480  207.5670  153.7720 C   0  0  2  0  0  3  0  0  0  0  0  0
  160.2060  207.1840  152.6250 O   0  0  0  0  0  0  0  0  0  0  0  0
  161.2070  205.0480  153.0750 C   0  0  0  0  0  1  0  0  0  0  0  0
  161.4350  206.5280  152.8170 C   0  0  1  0  0  0  0  0  0  0  0  0
  160.4110  206.9470  154.9810 N   0  0  0  0  0  2  0  0  0  0  0  0
  160.7480  207.7490  156.0790 N   0  0  0  0  0  2  0  0  0  0  0  0
  161.2690  208.9420  155.5600 N   0  0  0  0  0  2  0  0  0  0  0  0
  161.3730  209.8460  156.6290 N   0  0  0  0  0  2  0  0  0  0  0  0
  160.0130  210.2620  156.9720 C   0  0  0  0  0  2  0  0  0  0  0  0
  159.8360  211.7140  156.8710 N   0  0  0  0  0  0  0  0  0  0  0  0
  158.4730  212.0610  157.2560 C   0  0  0  0  0  1  0  0  0  0  0  0
  160.0270  212.1430  155.4950 C   0  0  0  0  0  1  0  0  0  0  0  0
  161.8280  209.4340  150.0950 C   0  0  1  0  0  3  0  0  0  0  0  0
  162.7060  209.5080  151.3390 C   0  0  0  0  0  2  0  0  0  0  0  0
  161.1850  210.6450  152.4590 C   0  0  0  0  0  1  0  0  0  0  0  0
  162.5010  210.7120  152.0110 O   0  0  0  0  0  0  0  0  0  0  0  0
  162.4110  210.2670  148.9650 C   0  0  0  0  0  2  0  0  0  0  0  0
  161.8930  211.6880  149.0450 C   0  0  0  0  0  2  0  0  0  0  0  0
  161.7740  212.2520  147.6740 C   0  0  0  0  0  3  0  0  0  0  0  0
  160.6640  212.8930  147.3130 C   0  0  0  0  0  3  0  0  0  0  0  0
  160.5120  213.4550  145.9300 C   0  0  2  0  0  3  0  0  0  0  0  0
  158.7520  213.6630  144.1510 O   0  0  0  0  0  0  0  0  0  0  0  0
  159.1420  213.1650  145.3880 C   0  0  0  0  0  0  0  0  0  0  0  0
  158.3390  212.4860  146.0720 O   0  0  0  0  0  1  0  0  0  0  0  0
  161.6470  212.9970  145.0020 C   0  0  2  0  0  3  0  0  0  0  0  0
  162.7920  213.9920  145.0080 C   0  0  0  0  0  1  0  0  0  0  0  0
  161.1620  212.7060  143.5800 C   0  0  0  0  0  2  0  0  0  0  0  0
  162.2500  211.8500  141.6790 O   0  0  0  0  0  0  0  0  0  0  0  0
  162.3090  212.6160  142.6270 C   0  0  0  0  0  3  0  0  0  0  0  0
  1 11  1  0  0  0  0
  1  2  1  0  0  0  0
  3  8  1  0  0  0  0
  4  3  1  0  0  0  0
  4  9  2  0  0  0  0
  5  7  1  0  0  0  0
  5  3  2  0  0  0  0
  6 17  1  0  0  0  0
  7  1  2  0  0  0  0
  8  2  1  0  0  0  0
  8  6  2  0  0  0  0
  9 30  1  0  0  0  0
  9  6  1  0  0  0  0
 10 11  1  0  0  0  0
 11 12  2  0  0  0  0
 13 14  1  0  0  0  0
 13 15  1  0  0  0  0
 15 10  1  0  0  0  0
 16 13  2  0  0  0  0
 17 21  1  0  0  0  0
 18 22  1  1  0  0  0
 19 21  1  0  0  0  0
 19 18  1  0  0  0  0
 21 20  1  1  0  0  0
 21 18  1  0  0  0  0
 22 23  1  0  0  0  0
 24 23  1  0  0  0  0
 24 25  1  0  0  0  0
 25 26  1  0  0  0  0
 27 26  1  0  0  0  0
 27 28  1  0  0  0  0
 29 27  1  0  0  0  0
 30 34  1  6  0  0  0
 30 31  1  0  0  0  0
 31 33  1  0  0  0  0
 33 32  1  0  0  0  0
 34 35  1  0  0  0  0
 36 35  1  0  0  0  0
 37 36  2  0  0  0  0
 38 37  1  1  0  0  0
 39 40  2  0  0  0  0
 40 38  1  0  0  0  0
 40 41  1  0  0  0  0
 42 43  1  6  0  0  0
 42 38  1  0  0  0  0
 44 42  1  0  0  0  0
 45 46  2  0  0  0  0
 46 44  1  0  0  0  0
M  END
>  <MODEL>
9

>  <REMARK>
 VINA RESULT:      -3.8      3.248      7.935
  Name = 
  21 active torsions:
  status: ('A' for Active; 'I' for Inactive)
    1  A    between atoms: C_1  and  C_33
    2  A    between atoms: C_1  and  C_41
    3  A    between atoms: N_2  and  C_4
    4  A    between atoms: C_4  and  N_38
    5  A    between atoms: C_6  and  N_28
    6  A    between atoms: N_8  and  N_16
    7  A    between atoms: C_9  and  C_34
    8  A    between atoms: N_10  and  N_19
    9  A    between atoms: N_10  and  N_38
   10  A    between atoms: C_11  and  C_27
   11  A    between atoms: C_12  and  C_20
   12  A    between atoms: C_12  and  C_21
   13  A    between atoms: C_15  and  C_20
   14  A    between atoms: C_15  and  C_40
   15  A    between atoms: C_15  and  C_42
   16  A    between atoms: N_19  and  N_28
   17  A    between atoms: C_24  and  C_25
   18  A    between atoms: C_24  and  C_27
   19  A    between atoms: C_25  and  C_26
   20  A    between atoms: C_25  and  C_46
   21  A    between atoms: C_26  and  O_45
                            x       y       z     vdW  Elec       q    Type
                         _______ _______ _______ _____ _____    ______ ____

>  <TORSDO>
F 21

$$$$
