=
 OpenBabel11052409503D

 26 29  0  0  0  0  0  0  0  0999 V2000
  160.8310  201.0350  148.7920 C   0  0  0  0  0  3  0  0  0  0  0  0
  161.2290  203.6900  149.9510 C   0  0  0  0  0  0  0  0  0  0  0  0
  161.2500  203.8380  144.9920 C   0  0  0  0  0  3  0  0  0  0  0  0
  161.0900  202.0700  148.0000 C   0  0  0  0  0  0  0  0  0  0  0  0
  160.9810  202.6580  150.7700 C   0  0  0  0  0  3  0  0  0  0  0  0
  161.0990  202.0650  146.5780 N   0  0  0  0  0  0  0  0  0  0  0  0
  161.3770  205.5430  147.2540 C   0  0  0  0  0  3  0  0  0  0  0  0
  161.2510  203.4140  148.4970 C   0  0  0  0  0  0  0  0  0  0  0  0
  161.3450  205.2300  144.8320 C   0  0  0  0  0  0  0  0  0  0  0  0
  161.3030  204.1590  147.3990 C   0  0  0  0  0  0  0  0  0  0  0  0
  160.7210  201.2350  150.2910 C   0  0  0  0  0  2  0  0  0  0  0  0
  161.2260  203.3220  146.2880 C   0  0  0  0  0  0  0  0  0  0  0  0
  161.4020  206.0770  145.9560 C   0  0  0  0  0  3  0  0  0  0  0  0
  161.3770  205.7750  143.5560 O   0  0  0  0  0  1  0  0  0  0  0  0
  161.5140  204.9650  150.5310 N   0  0  0  0  0  0  0  0  0  0  0  0
  162.0030  210.0190  150.9850 C   0  0  0  0  0  1  0  0  0  0  0  0
  161.3290  209.2170  153.2160 N   0  0  0  0  0  0  0  0  0  0  0  0
  161.5800  207.6430  151.4830 N   0  0  0  0  0  0  0  0  0  0  0  0
  161.6250  208.9280  151.9220 C   0  0  0  0  0  0  0  0  0  0  0  0
  161.2010  205.2830  151.8580 N   0  0  0  0  0  0  0  0  0  0  0  0
  160.9790  208.2330  154.0870 C   0  0  0  0  0  0  0  0  0  0  0  0
  160.9320  206.9070  153.6550 C   0  0  0  0  0  3  0  0  0  0  0  0
  161.2400  206.6300  152.3230 C   0  0  0  0  0  0  0  0  0  0  0  0
  160.6770  208.5680  155.5070 C   0  0  0  0  0  2  0  0  0  0  0  0
  159.7680  207.5210  156.1310 C   0  0  0  0  0  2  0  0  0  0  0  0
  160.4310  206.8920  157.2610 N   0  0  0  0  0  1  0  0  0  0  0  0
  1 11  1  0  0  0  0
  2 15  1  0  0  0  0
  2  5  2  0  0  0  0
  3 12  1  0  0  0  0
  4  8  1  0  0  0  0
  4  1  2  0  0  0  0
  6  4  1  0  0  0  0
  7 10  1  0  0  0  0
  8  2  1  0  0  0  0
  9  3  2  0  0  0  0
  9 13  1  0  0  0  0
 10  8  2  0  0  0  0
 11  5  1  0  0  0  0
 12  6  2  0  0  0  0
 12 10  1  0  0  0  0
 13  7  2  0  0  0  0
 14  9  1  0  0  0  0
 15 20  2  0  0  0  0
 16 19  1  0  0  0  0
 17 21  1  0  0  0  0
 18 19  1  0  0  0  0
 18 23  2  0  0  0  0
 19 17  2  0  0  0  0
 20 23  1  0  0  0  0
 21 24  1  0  0  0  0
 22 21  2  0  0  0  0
 23 22  1  0  0  0  0
 24 25  1  0  0  0  0
 25 26  1  0  0  0  0
M  END
>  <MODEL>
1

>  <REMARK>
 VINA RESULT:      -9.9      0.000      0.000
  Name = 
  4 active torsions:
  status: ('A' for Active; 'I' for Inactive)
    1  A    between atoms: C_2  and  N_4
    2  A    between atoms: N_4  and  N_10
    3  A    between atoms: C_13  and  C_23
    4  A    between atoms: C_17  and  C_23
                            x       y       z     vdW  Elec       q    Type
                         _______ _______ _______ _____ _____    ______ ____

>  <TORSDO>
F 4

$$$$
=
 OpenBabel11052409503D

 26 29  0  0  0  0  0  0  0  0999 V2000
  160.8160  201.4580  149.5600 C   0  0  0  0  0  3  0  0  0  0  0  0
  161.1400  204.2640  150.3150 C   0  0  0  0  0  0  0  0  0  0  0  0
  161.2980  203.6650  145.3920 C   0  0  0  0  0  3  0  0  0  0  0  0
  161.0800  202.3670  148.6270 C   0  0  0  0  0  0  0  0  0  0  0  0
  160.8850  203.3620  151.2740 C   0  0  0  0  0  3  0  0  0  0  0  0
  161.1290  202.1480  147.2230 N   0  0  0  0  0  0  0  0  0  0  0  0
  161.3350  205.6930  147.3730 C   0  0  0  0  0  3  0  0  0  0  0  0
  161.2070  203.7730  148.9200 C   0  0  0  0  0  0  0  0  0  0  0  0
  161.3760  205.0180  145.0260 C   0  0  0  0  0  0  0  0  0  0  0  0
  161.2780  204.3450  147.7240 C   0  0  0  0  0  0  0  0  0  0  0  0
  160.6610  201.8790  151.0080 C   0  0  0  0  0  2  0  0  0  0  0  0
  161.2450  203.3490  146.7500 C   0  0  0  0  0  0  0  0  0  0  0  0
  161.3880  206.0260  146.0110 C   0  0  0  0  0  3  0  0  0  0  0  0
  161.4350  205.3660  143.6840 O   0  0  0  0  0  1  0  0  0  0  0  0
  161.3890  205.6180  150.7030 N   0  0  0  0  0  0  0  0  0  0  0  0
  162.0070  210.6760  150.5690 C   0  0  0  0  0  1  0  0  0  0  0  0
  161.4920  210.1340  152.9170 N   0  0  0  0  0  0  0  0  0  0  0  0
  161.5790  208.3790  151.3510 N   0  0  0  0  0  0  0  0  0  0  0  0
  161.6820  209.7020  151.6430 C   0  0  0  0  0  0  0  0  0  0  0  0
  161.1850  206.0840  152.0070 N   0  0  0  0  0  0  0  0  0  0  0  0
  161.1920  209.2590  153.9130 C   0  0  0  0  0  0  0  0  0  0  0  0
  161.0870  207.8960  153.6330 C   0  0  0  0  0  3  0  0  0  0  0  0
  161.2860  207.4710  152.3200 C   0  0  0  0  0  0  0  0  0  0  0  0
  161.0070  209.7510  155.3080 C   0  0  0  0  0  2  0  0  0  0  0  0
  159.5560  209.6170  155.7440 C   0  0  0  0  0  2  0  0  0  0  0  0
  158.7590  210.6830  155.1640 N   0  0  0  0  0  1  0  0  0  0  0  0
  1 11  1  0  0  0  0
  2 15  1  0  0  0  0
  2  5  2  0  0  0  0
  3 12  1  0  0  0  0
  4  8  1  0  0  0  0
  4  1  2  0  0  0  0
  6  4  1  0  0  0  0
  7 10  1  0  0  0  0
  8  2  1  0  0  0  0
  9  3  2  0  0  0  0
  9 13  1  0  0  0  0
 10  8  2  0  0  0  0
 11  5  1  0  0  0  0
 12  6  2  0  0  0  0
 12 10  1  0  0  0  0
 13  7  2  0  0  0  0
 14  9  1  0  0  0  0
 15 20  2  0  0  0  0
 16 19  1  0  0  0  0
 17 21  1  0  0  0  0
 18 19  1  0  0  0  0
 18 23  2  0  0  0  0
 19 17  2  0  0  0  0
 20 23  1  0  0  0  0
 21 24  1  0  0  0  0
 22 21  2  0  0  0  0
 23 22  1  0  0  0  0
 24 25  1  0  0  0  0
 26 25  1  0  0  0  0
M  END
>  <MODEL>
2

>  <REMARK>
 VINA RESULT:      -9.2      1.215      1.232
  Name = 
  4 active torsions:
  status: ('A' for Active; 'I' for Inactive)
    1  A    between atoms: C_2  and  N_4
    2  A    between atoms: N_4  and  N_10
    3  A    between atoms: C_13  and  C_23
    4  A    between atoms: C_17  and  C_23
                            x       y       z     vdW  Elec       q    Type
                         _______ _______ _______ _____ _____    ______ ____

>  <TORSDO>
F 4

$$$$
=
 OpenBabel11052409503D

 26 29  0  0  0  0  0  0  0  0999 V2000
  160.7640  202.9450  151.0750 C   0  0  0  0  0  3  0  0  0  0  0  0
  161.5930  205.7450  151.2210 C   0  0  0  0  0  0  0  0  0  0  0  0
  161.3350  204.1580  146.5270 C   0  0  0  0  0  3  0  0  0  0  0  0
  161.1140  203.5900  149.9660 C   0  0  0  0  0  0  0  0  0  0  0  0
  161.2550  205.1120  152.3530 C   0  0  0  0  0  3  0  0  0  0  0  0
  161.0370  203.0890  148.6380 N   0  0  0  0  0  0  0  0  0  0  0  0
  161.8310  206.5020  148.0430 C   0  0  0  0  0  3  0  0  0  0  0  0
  161.4880  204.9820  149.9580 C   0  0  0  0  0  0  0  0  0  0  0  0
  161.6110  205.3760  145.8870 C   0  0  0  0  0  0  0  0  0  0  0  0
  161.5760  205.2820  148.6670 C   0  0  0  0  0  0  0  0  0  0  0  0
  160.7730  203.6680  152.4080 C   0  0  0  0  0  2  0  0  0  0  0  0
  161.3170  204.1330  147.9220 C   0  0  0  0  0  0  0  0  0  0  0  0
  161.8510  206.5420  146.6390 C   0  0  0  0  0  3  0  0  0  0  0  0
  161.6400  205.4330  144.5000 O   0  0  0  0  0  1  0  0  0  0  0  0
  162.0850  207.0850  151.3120 N   0  0  0  0  0  2  0  0  0  0  0  0
  161.6120  208.5600  156.1690 C   0  0  0  0  0  1  0  0  0  0  0  0
  160.2410  210.1360  154.8620 N   0  0  0  0  0  0  0  0  0  0  0  0
  161.3940  208.4320  153.7170 N   0  0  0  0  0  0  0  0  0  0  0  0
  161.0670  209.0580  154.8790 C   0  0  0  0  0  0  0  0  0  0  0  0
  161.2450  208.2040  151.3130 N   0  0  0  0  0  2  0  0  0  0  0  0
  159.7350  210.6080  153.6920 C   0  0  0  0  0  0  0  0  0  0  0  0
  160.0540  209.9750  152.4900 C   0  0  0  0  0  3  0  0  0  0  0  0
  160.9030  208.8690  152.5270 C   0  0  0  0  0  0  0  0  0  0  0  0
  158.8140  211.7800  153.6970 C   0  0  0  0  0  2  0  0  0  0  0  0
  157.5720  211.4930  154.5260 C   0  0  0  0  0  2  0  0  0  0  0  0
  156.6380  212.6010  154.4280 N   0  0  0  0  0  1  0  0  0  0  0  0
  1 11  1  0  0  0  0
  2 15  1  0  0  0  0
  2  5  2  0  0  0  0
  3 12  1  0  0  0  0
  4  1  2  0  0  0  0
  5 11  1  0  0  0  0
  6  4  1  0  0  0  0
  7 10  1  0  0  0  0
  8  4  1  0  0  0  0
  8  2  1  0  0  0  0
  9  3  2  0  0  0  0
  9 13  1  0  0  0  0
 10  8  2  0  0  0  0
 12  6  2  0  0  0  0
 12 10  1  0  0  0  0
 13  7  2  0  0  0  0
 14  9  1  0  0  0  0
 15 20  1  0  0  0  0
 17 19  2  0  0  0  0
 18 19  1  0  0  0  0
 19 16  1  0  0  0  0
 20 23  1  0  0  0  0
 21 24  1  0  0  0  0
 21 17  1  0  0  0  0
 22 23  1  0  0  0  0
 22 21  2  0  0  0  0
 23 18  2  0  0  0  0
 24 25  1  0  0  0  0
 26 25  1  0  0  0  0
M  END
>  <MODEL>
3

>  <REMARK>
 VINA RESULT:      -8.6      2.102      3.075
  Name = 
  4 active torsions:
  status: ('A' for Active; 'I' for Inactive)
    1  A    between atoms: C_2  and  N_4
    2  A    between atoms: N_4  and  N_10
    3  A    between atoms: C_13  and  C_23
    4  A    between atoms: C_17  and  C_23
                            x       y       z     vdW  Elec       q    Type
                         _______ _______ _______ _____ _____    ______ ____

>  <TORSDO>
F 4

$$$$
=
 OpenBabel11052409503D

 26 29  0  0  1  0  0  0  0  0999 V2000
  161.7080  207.3670  147.8120 C   0  0  0  0  0  3  0  0  0  0  0  0
  161.6210  207.5990  150.7250 C   0  0  0  0  0  0  0  0  0  0  0  0
  160.8920  202.9210  149.2420 C   0  0  0  0  0  3  0  0  0  0  0  0
  161.3920  206.3070  148.5500 C   0  0  0  0  0  0  0  0  0  0  0  0
  161.9310  208.6830  149.9990 C   0  0  0  0  0  3  0  0  0  0  0  0
  161.1770  204.9830  148.0800 N   0  0  0  0  0  0  0  0  0  0  0  0
  161.1820  204.4720  151.5970 C   0  0  0  0  0  3  0  0  0  0  0  0
  161.3750  206.3370  149.9910 C   0  0  0  0  0  0  0  0  0  0  0  0
  160.8470  202.3130  150.5060 C   0  0  2  0  0  3  0  0  0  0  0  0
  161.2040  205.0660  150.3370 C   0  0  0  0  0  0  0  0  0  0  0  0
  162.0430  208.6850  148.4800 C   0  0  0  0  0  3  0  0  0  0  0  0
  161.0760  204.3020  149.1790 C   0  0  0  0  0  0  0  0  0  0  0  0
  160.9980  203.0820  151.6760 C   0  0  0  0  0  3  0  0  0  0  0  0
  160.6600  200.9410  150.6040 O   0  0  0  0  0  1  0  0  0  0  0  0
  161.4900  207.7430  152.1420 N   0  0  0  0  0  0  0  0  0  0  0  0
  160.0250  206.9600  156.9610 C   0  0  0  0  0  1  0  0  0  0  0  0
  160.5100  209.3720  156.8000 N   0  0  0  0  0  0  0  0  0  0  0  0
  160.8010  208.0350  154.8830 N   0  0  0  0  0  0  0  0  0  0  0  0
  160.4590  208.1570  156.1930 C   0  0  0  0  0  0  0  0  0  0  0  0
  161.5470  208.9840  152.7870 N   0  0  0  0  0  0  0  0  0  0  0  0
  160.9060  210.4770  156.1150 C   0  0  0  0  0  0  0  0  0  0  0  0
  161.2550  210.3720  154.7680 C   0  0  0  0  0  3  0  0  0  0  0  0
  161.1960  209.1180  154.1620 C   0  0  0  0  0  0  0  0  0  0  0  0
  160.9360  211.8040  156.7940 C   0  0  0  0  0  2  0  0  0  0  0  0
  159.9900  212.7830  156.1160 C   0  0  0  0  0  2  0  0  0  0  0  0
  158.6160  212.3370  156.2680 N   0  0  0  0  0  1  0  0  0  0  0  0
  1 11  2  0  0  0  0
  1  4  1  0  0  0  0
  2 15  1  0  0  0  0
  3  9  1  0  0  0  0
  4  8  1  0  0  0  0
  5  2  2  0  0  0  0
  6  4  2  0  0  0  0
  6 12  1  0  0  0  0
  7 13  2  0  0  0  0
  8 10  2  0  0  0  0
  8  2  1  0  0  0  0
  9 14  1  6  0  0  0
  9 13  1  0  0  0  0
 10  7  1  0  0  0  0
 11  5  1  0  0  0  0
 12  3  2  0  0  0  0
 12 10  1  0  0  0  0
 15 20  2  0  0  0  0
 18 19  1  0  0  0  0
 19 17  2  0  0  0  0
 19 16  1  0  0  0  0
 20 23  1  0  0  0  0
 21 24  1  0  0  0  0
 21 17  1  0  0  0  0
 22 21  2  0  0  0  0
 23 22  1  0  0  0  0
 23 18  2  0  0  0  0
 25 26  1  0  0  0  0
 25 24  1  0  0  0  0
M  END
>  <MODEL>
4

>  <REMARK>
 VINA RESULT:      -8.5      2.727      4.947
  Name = 
  4 active torsions:
  status: ('A' for Active; 'I' for Inactive)
    1  A    between atoms: C_2  and  N_4
    2  A    between atoms: N_4  and  N_10
    3  A    between atoms: C_13  and  C_23
    4  A    between atoms: C_17  and  C_23
                            x       y       z     vdW  Elec       q    Type
                         _______ _______ _______ _____ _____    ______ ____

>  <TORSDO>
F 4

$$$$
=
 OpenBabel11052409503D

 26 29  0  0  0  0  0  0  0  0999 V2000
  160.9730  201.0810  149.0150 C   0  0  0  0  0  3  0  0  0  0  0  0
  161.0660  203.7520  150.2020 C   0  0  0  0  0  0  0  0  0  0  0  0
  161.2290  203.9480  145.2470 C   0  0  0  0  0  3  0  0  0  0  0  0
  161.1520  202.1450  148.2370 C   0  0  0  0  0  0  0  0  0  0  0  0
  160.8960  202.6930  151.0060 C   0  0  0  0  0  3  0  0  0  0  0  0
  161.2060  202.1540  146.8160 N   0  0  0  0  0  0  0  0  0  0  0  0
  161.1120  205.6360  147.5220 C   0  0  0  0  0  3  0  0  0  0  0  0
  161.1610  203.4930  148.7480 C   0  0  0  0  0  0  0  0  0  0  0  0
  161.1890  205.3430  145.0990 C   0  0  0  0  0  0  0  0  0  0  0  0
  161.1730  204.2500  147.6570 C   0  0  0  0  0  0  0  0  0  0  0  0
  160.7960  201.2560  150.5100 C   0  0  0  0  0  2  0  0  0  0  0  0
  161.2150  203.4200  146.5380 C   0  0  0  0  0  0  0  0  0  0  0  0
  161.1250  206.1810  146.2290 C   0  0  0  0  0  3  0  0  0  0  0  0
  161.2060  205.9010  143.8280 O   0  0  0  0  0  1  0  0  0  0  0  0
  161.2020  205.0440  150.7990 N   0  0  0  0  0  0  0  0  0  0  0  0
  160.8310  209.0110  153.9790 C   0  0  0  0  0  1  0  0  0  0  0  0
  161.5880  209.9530  151.8310 N   0  0  0  0  0  0  0  0  0  0  0  0
  161.2300  207.6310  151.9770 N   0  0  0  0  0  0  0  0  0  0  0  0
  161.2290  208.8610  152.5550 C   0  0  0  0  0  0  0  0  0  0  0  0
  161.5800  206.1800  150.0730 N   0  0  0  0  0  0  0  0  0  0  0  0
  161.9570  209.8360  150.5280 C   0  0  0  0  0  0  0  0  0  0  0  0
  161.9590  208.5820  149.9160 C   0  0  0  0  0  3  0  0  0  0  0  0
  161.5870  207.4720  150.6740 C   0  0  0  0  0  0  0  0  0  0  0  0
  162.3280  211.0500  149.7460 C   0  0  0  0  0  2  0  0  0  0  0  0
  161.9550  210.8870  148.2810 C   0  0  0  0  0  2  0  0  0  0  0  0
  161.7560  212.1890  147.6680 N   0  0  0  0  0  1  0  0  0  0  0  0
  1 11  1  0  0  0  0
  2 15  1  0  0  0  0
  2  5  2  0  0  0  0
  3 12  1  0  0  0  0
  4  8  1  0  0  0  0
  4  1  2  0  0  0  0
  6  4  1  0  0  0  0
  7 10  1  0  0  0  0
  8  2  1  0  0  0  0
  9  3  2  0  0  0  0
  9 13  1  0  0  0  0
 10  8  2  0  0  0  0
 11  5  1  0  0  0  0
 12  6  2  0  0  0  0
 12 10  1  0  0  0  0
 13  7  2  0  0  0  0
 14  9  1  0  0  0  0
 17 19  2  0  0  0  0
 18 19  1  0  0  0  0
 19 16  1  0  0  0  0
 20 23  1  0  0  0  0
 20 15  2  0  0  0  0
 21 17  1  0  0  0  0
 22 21  2  0  0  0  0
 22 23  1  0  0  0  0
 23 18  2  0  0  0  0
 24 21  1  0  0  0  0
 25 24  1  0  0  0  0
 26 25  1  0  0  0  0
M  END
>  <MODEL>
5

>  <REMARK>
 VINA RESULT:      -8.5      1.523      3.395
  Name = 
  4 active torsions:
  status: ('A' for Active; 'I' for Inactive)
    1  A    between atoms: C_2  and  N_4
    2  A    between atoms: N_4  and  N_10
    3  A    between atoms: C_13  and  C_23
    4  A    between atoms: C_17  and  C_23
                            x       y       z     vdW  Elec       q    Type
                         _______ _______ _______ _____ _____    ______ ____

>  <TORSDO>
F 4

$$$$
=
 OpenBabel11052409503D

 26 29  0  0  0  0  0  0  0  0999 V2000
  161.1300  206.5100  153.3850 C   0  0  0  0  0  3  0  0  0  0  0  0
  161.5210  205.6100  150.6310 C   0  0  0  0  0  0  0  0  0  0  0  0
  161.6270  210.5590  150.9670 C   0  0  0  0  0  3  0  0  0  0  0  0
  161.2040  207.4020  152.4020 C   0  0  0  0  0  0  0  0  0  0  0  0
  161.4370  204.6920  151.6050 C   0  0  0  0  0  3  0  0  0  0  0  0
  161.2170  208.8170  152.5430 N   0  0  0  0  0  0  0  0  0  0  0  0
  161.9760  208.4640  149.0890 C   0  0  0  0  0  3  0  0  0  0  0  0
  161.4420  207.0330  151.0290 C   0  0  0  0  0  0  0  0  0  0  0  0
  161.9530  210.8450  149.6320 C   0  0  0  0  0  0  0  0  0  0  0  0
  161.6320  208.1940  150.4120 C   0  0  0  0  0  0  0  0  0  0  0  0
  161.2700  205.0320  153.0800 C   0  0  0  0  0  2  0  0  0  0  0  0
  161.4750  209.2220  151.3390 C   0  0  0  0  0  0  0  0  0  0  0  0
  162.1320  209.8040  148.7010 C   0  0  0  0  0  3  0  0  0  0  0  0
  162.1060  212.1640  149.2290 O   0  0  0  0  0  1  0  0  0  0  0  0
  161.6190  205.1580  149.2780 N   0  0  0  0  0  0  0  0  0  0  0  0
  161.2100  205.1800  144.1960 C   0  0  0  0  0  1  0  0  0  0  0  0
  160.7790  202.8530  144.8850 N   0  0  0  0  0  0  0  0  0  0  0  0
  161.2570  204.4480  146.5490 N   0  0  0  0  0  0  0  0  0  0  0  0
  161.0790  204.1290  145.2400 C   0  0  0  0  0  0  0  0  0  0  0  0
  161.3200  203.8460  148.8910 N   0  0  0  0  0  0  0  0  0  0  0  0
  160.6570  201.8780  145.8250 C   0  0  0  0  0  0  0  0  0  0  0  0
  160.8310  202.1880  147.1740 C   0  0  0  0  0  3  0  0  0  0  0  0
  161.1380  203.5030  147.5200 C   0  0  0  0  0  0  0  0  0  0  0  0
  160.3070  200.4880  145.4160 C   0  0  0  0  0  2  0  0  0  0  0  0
  161.2060  199.4750  146.1080 C   0  0  0  0  0  2  0  0  0  0  0  0
  161.3570  198.2920  145.2780 N   0  0  0  0  0  1  0  0  0  0  0  0
  2  8  1  0  0  0  0
  2  5  2  0  0  0  0
  3 12  1  0  0  0  0
  4  6  1  0  0  0  0
  4  1  2  0  0  0  0
  5 11  1  0  0  0  0
  7 10  1  0  0  0  0
  8  4  1  0  0  0  0
  9  3  2  0  0  0  0
 10  8  2  0  0  0  0
 10 12  1  0  0  0  0
 11  1  1  0  0  0  0
 12  6  2  0  0  0  0
 13  7  2  0  0  0  0
 13  9  1  0  0  0  0
 14  9  1  0  0  0  0
 15  2  1  0  0  0  0
 16 19  1  0  0  0  0
 17 19  2  0  0  0  0
 17 21  1  0  0  0  0
 18 23  2  0  0  0  0
 19 18  1  0  0  0  0
 20 15  2  0  0  0  0
 21 22  2  0  0  0  0
 22 23  1  0  0  0  0
 23 20  1  0  0  0  0
 24 21  1  0  0  0  0
 24 25  1  0  0  0  0
 26 25  1  0  0  0  0
M  END
>  <MODEL>
6

>  <REMARK>
 VINA RESULT:      -8.3      2.602      7.882
  Name = 
  4 active torsions:
  status: ('A' for Active; 'I' for Inactive)
    1  A    between atoms: C_2  and  N_4
    2  A    between atoms: N_4  and  N_10
    3  A    between atoms: C_13  and  C_23
    4  A    between atoms: C_17  and  C_23
                            x       y       z     vdW  Elec       q    Type
                         _______ _______ _______ _____ _____    ______ ____

>  <TORSDO>
F 4

$$$$
=
 OpenBabel11052409503D

 26 29  0  0  0  0  0  0  0  0999 V2000
  161.1150  208.6900  154.5250 C   0  0  0  0  0  3  0  0  0  0  0  0
  161.0410  206.5620  152.5210 C   0  0  0  0  0  0  0  0  0  0  0  0
  161.8710  210.9940  150.4500 C   0  0  0  0  0  3  0  0  0  0  0  0
  161.1920  208.9950  153.2330 C   0  0  0  0  0  0  0  0  0  0  0  0
  160.9500  206.2330  153.8170 C   0  0  0  0  0  3  0  0  0  0  0  0
  161.4180  210.2860  152.6810 N   0  0  0  0  0  0  0  0  0  0  0  0
  161.6970  208.2430  149.7860 C   0  0  0  0  0  3  0  0  0  0  0  0
  161.2090  207.9960  152.1940 C   0  0  0  0  0  0  0  0  0  0  0  0
  162.0690  210.5650  149.1280 C   0  0  0  0  0  0  0  0  0  0  0  0
  161.4820  208.6830  151.0910 C   0  0  0  0  0  0  0  0  0  0  0  0
  161.0110  207.2410  154.9570 C   0  0  0  0  0  2  0  0  0  0  0  0
  161.5820  210.0340  151.4200 C   0  0  0  0  0  0  0  0  0  0  0  0
  161.9890  209.1980  148.8000 C   0  0  0  0  0  3  0  0  0  0  0  0
  162.3540  211.4960  148.1380 O   0  0  0  0  0  1  0  0  0  0  0  0
  160.9110  205.5250  151.5440 N   0  0  0  0  0  0  0  0  0  0  0  0
  160.5520  200.9580  149.3090 C   0  0  0  0  0  1  0  0  0  0  0  0
  161.2060  202.5210  147.5190 N   0  0  0  0  0  0  0  0  0  0  0  0
  160.8970  203.3680  149.6940 N   0  0  0  0  0  0  0  0  0  0  0  0
  160.8940  202.3220  148.8260 C   0  0  0  0  0  0  0  0  0  0  0  0
  161.2180  205.7130  150.1920 N   0  0  0  0  0  0  0  0  0  0  0  0
  161.5190  203.7620  147.0580 C   0  0  0  0  0  0  0  0  0  0  0  0
  161.5330  204.8460  147.9360 C   0  0  0  0  0  3  0  0  0  0  0  0
  161.2100  204.6220  149.2740 C   0  0  0  0  0  0  0  0  0  0  0  0
  161.8770  203.9560  145.6250 C   0  0  0  0  0  2  0  0  0  0  0  0
  161.8160  205.4260  145.2430 C   0  0  0  0  0  2  0  0  0  0  0  0
  160.4570  205.7940  144.8860 N   0  0  0  0  0  1  0  0  0  0  0  0
  1 11  1  0  0  0  0
  2  5  2  0  0  0  0
  3 12  1  0  0  0  0
  4  1  2  0  0  0  0
  5 11  1  0  0  0  0
  6  4  1  0  0  0  0
  7 10  1  0  0  0  0
  8  2  1  0  0  0  0
  8  4  1  0  0  0  0
  9  3  2  0  0  0  0
 10 12  1  0  0  0  0
 10  8  2  0  0  0  0
 12  6  2  0  0  0  0
 13  9  1  0  0  0  0
 13  7  2  0  0  0  0
 14  9  1  0  0  0  0
 15  2  1  0  0  0  0
 17 19  2  0  0  0  0
 19 16  1  0  0  0  0
 19 18  1  0  0  0  0
 20 15  2  0  0  0  0
 21 17  1  0  0  0  0
 21 22  2  0  0  0  0
 22 23  1  0  0  0  0
 23 18  2  0  0  0  0
 23 20  1  0  0  0  0
 24 21  1  0  0  0  0
 25 24  1  0  0  0  0
 26 25  1  0  0  0  0
M  END
>  <MODEL>
7

>  <REMARK>
 VINA RESULT:      -8.2      2.115      7.569
  Name = 
  4 active torsions:
  status: ('A' for Active; 'I' for Inactive)
    1  A    between atoms: C_2  and  N_4
    2  A    between atoms: N_4  and  N_10
    3  A    between atoms: C_13  and  C_23
    4  A    between atoms: C_17  and  C_23
                            x       y       z     vdW  Elec       q    Type
                         _______ _______ _______ _____ _____    ______ ____

>  <TORSDO>
F 4

$$$$
=
 OpenBabel11052409503D

 26 29  0  0  0  0  0  0  0  0999 V2000
  161.1050  204.0190  152.3620 C   0  0  0  0  0  3  0  0  0  0  0  0
  161.5050  206.8590  151.7910 C   0  0  0  0  0  0  0  0  0  0  0  0
  161.2070  204.1810  147.6250 C   0  0  0  0  0  3  0  0  0  0  0  0
  161.2850  204.4230  151.1080 C   0  0  0  0  0  0  0  0  0  0  0  0
  161.3370  206.4730  153.0640 C   0  0  0  0  0  3  0  0  0  0  0  0
  161.2040  203.6150  149.9410 N   0  0  0  0  0  0  0  0  0  0  0  0
  161.4310  206.8630  148.5160 C   0  0  0  0  0  3  0  0  0  0  0  0
  161.4410  205.8100  150.7490 C   0  0  0  0  0  0  0  0  0  0  0  0
  161.2540  205.2380  146.7020 C   0  0  0  0  0  0  0  0  0  0  0  0
  161.4040  205.8040  149.4220 C   0  0  0  0  0  0  0  0  0  0  0  0
  161.0850  205.0320  153.4900 C   0  0  0  0  0  2  0  0  0  0  0  0
  161.2780  204.4870  148.9840 C   0  0  0  0  0  0  0  0  0  0  0  0
  161.3600  206.5710  147.1450 C   0  0  0  0  0  3  0  0  0  0  0  0
  161.1900  204.9670  145.3420 O   0  0  0  0  0  1  0  0  0  0  0  0
  161.7920  208.2350  151.5300 N   0  0  0  0  0  2  0  0  0  0  0  0
  162.4740  210.5490  156.0200 C   0  0  0  0  0  1  0  0  0  0  0  0
  160.5670  211.7000  154.9660 N   0  0  0  0  0  0  0  0  0  0  0  0
  161.6010  209.9360  153.7990 N   0  0  0  0  0  0  0  0  0  0  0  0
  161.5200  210.7350  154.8960 C   0  0  0  0  0  0  0  0  0  0  0  0
  160.8230  209.2430  151.6160 N   0  0  0  0  0  2  0  0  0  0  0  0
  159.6870  211.8860  153.9470 C   0  0  0  0  0  0  0  0  0  0  0  0
  159.7510  211.0730  152.8150 C   0  0  0  0  0  3  0  0  0  0  0  0
  160.7370  210.0870  152.7600 C   0  0  0  0  0  0  0  0  0  0  0  0
  158.6350  212.9380  154.0530 C   0  0  0  0  0  2  0  0  0  0  0  0
  158.1180  213.0470  155.4780 C   0  0  0  0  0  2  0  0  0  0  0  0
  157.0820  212.0550  155.7110 N   0  0  0  0  0  1  0  0  0  0  0  0
  1 11  1  0  0  0  0
  2  5  2  0  0  0  0
  3 12  1  0  0  0  0
  4  1  2  0  0  0  0
  5 11  1  0  0  0  0
  6  4  1  0  0  0  0
  7 10  1  0  0  0  0
  8  4  1  0  0  0  0
  8  2  1  0  0  0  0
  9 13  1  0  0  0  0
  9  3  2  0  0  0  0
 10  8  2  0  0  0  0
 12 10  1  0  0  0  0
 12  6  2  0  0  0  0
 13  7  2  0  0  0  0
 14  9  1  0  0  0  0
 15 20  1  0  0  0  0
 15  2  1  0  0  0  0
 18 19  1  0  0  0  0
 19 17  2  0  0  0  0
 19 16  1  0  0  0  0
 20 23  1  0  0  0  0
 21 24  1  0  0  0  0
 21 17  1  0  0  0  0
 22 21  2  0  0  0  0
 23 22  1  0  0  0  0
 23 18  2  0  0  0  0
 24 25  1  0  0  0  0
 25 26  1  0  0  0  0
M  END
>  <MODEL>
8

>  <REMARK>
 VINA RESULT:      -8.2      2.548      3.858
  Name = 
  4 active torsions:
  status: ('A' for Active; 'I' for Inactive)
    1  A    between atoms: C_2  and  N_4
    2  A    between atoms: N_4  and  N_10
    3  A    between atoms: C_13  and  C_23
    4  A    between atoms: C_17  and  C_23
                            x       y       z     vdW  Elec       q    Type
                         _______ _______ _______ _____ _____    ______ ____

>  <TORSDO>
F 4

$$$$
=
 OpenBabel11052409503D

 26 29  0  0  1  0  0  0  0  0999 V2000
  161.8100  210.9150  150.2720 C   0  0  0  0  0  3  0  0  0  0  0  0
  161.9480  208.0480  149.7150 C   0  0  0  0  0  0  0  0  0  0  0  0
  160.8990  208.9350  154.4820 C   0  0  0  0  0  3  0  0  0  0  0  0
  161.7010  210.0420  151.2690 C   0  0  0  0  0  0  0  0  0  0  0  0
  162.0710  208.9110  148.6960 C   0  0  0  0  0  3  0  0  0  0  0  0
  161.4120  210.3430  152.6280 N   0  0  0  0  0  0  0  0  0  0  0  0
  161.1820  206.7960  152.6440 C   0  0  0  0  0  3  0  0  0  0  0  0
  161.7130  208.6150  151.0620 C   0  0  0  0  0  0  0  0  0  0  0  0
  160.7010  207.6080  154.8960 C   0  0  2  0  0  3  0  0  0  0  0  0
  161.3960  208.1160  152.2500 C   0  0  0  0  0  0  0  0  0  0  0  0
  161.9820  210.4240  148.8480 C   0  0  0  0  0  3  0  0  0  0  0  0
  161.2420  209.1680  153.1500 C   0  0  0  0  0  0  0  0  0  0  0  0
  160.8360  206.5460  153.9810 C   0  0  0  0  0  3  0  0  0  0  0  0
  160.3630  207.3420  156.2160 O   0  0  0  0  0  1  0  0  0  0  0  0
  162.1080  206.6520  149.4480 N   0  0  0  0  0  2  0  0  0  0  0  0
  160.8230  201.7720  150.1670 C   0  0  0  0  0  1  0  0  0  0  0  0
  160.8400  202.0990  147.7240 N   0  0  0  0  0  0  0  0  0  0  0  0
  161.3620  203.9310  149.1080 N   0  0  0  0  0  0  0  0  0  0  0  0
  161.0130  202.6250  148.9640 C   0  0  0  0  0  0  0  0  0  0  0  0
  161.9150  206.0950  148.1780 N   0  0  0  0  0  2  0  0  0  0  0  0
  161.0060  202.8640  146.6120 C   0  0  0  0  0  0  0  0  0  0  0  0
  161.3700  204.2050  146.7400 C   0  0  0  0  0  3  0  0  0  0  0  0
  161.5430  204.7280  148.0210 C   0  0  0  0  0  0  0  0  0  0  0  0
  160.8320  202.2620  145.2600 C   0  0  0  0  0  2  0  0  0  0  0  0
  159.9810  201.0040  145.3310 C   0  0  0  0  0  2  0  0  0  0  0  0
  160.8290  199.8250  145.2880 N   0  0  0  0  0  1  0  0  0  0  0  0
  1  4  1  0  0  0  0
  2  8  1  0  0  0  0
  3  9  1  0  0  0  0
  4  6  2  0  0  0  0
  5 11  1  0  0  0  0
  5  2  2  0  0  0  0
  6 12  1  0  0  0  0
  7 13  2  0  0  0  0
  8  4  1  0  0  0  0
  8 10  2  0  0  0  0
  9 14  1  6  0  0  0
 10  7  1  0  0  0  0
 10 12  1  0  0  0  0
 11  1  2  0  0  0  0
 12  3  2  0  0  0  0
 13  9  1  0  0  0  0
 15  2  1  0  0  0  0
 17 19  2  0  0  0  0
 19 18  1  0  0  0  0
 19 16  1  0  0  0  0
 20 15  1  0  0  0  0
 21 22  2  0  0  0  0
 21 17  1  0  0  0  0
 22 23  1  0  0  0  0
 23 20  1  0  0  0  0
 23 18  2  0  0  0  0
 24 25  1  0  0  0  0
 24 21  1  0  0  0  0
 26 25  1  0  0  0  0
M  END
>  <MODEL>
9

>  <REMARK>
 VINA RESULT:      -8.0      3.074      8.701
  Name = 
  4 active torsions:
  status: ('A' for Active; 'I' for Inactive)
    1  A    between atoms: C_2  and  N_4
    2  A    between atoms: N_4  and  N_10
    3  A    between atoms: C_13  and  C_23
    4  A    between atoms: C_17  and  C_23
                            x       y       z     vdW  Elec       q    Type
                         _______ _______ _______ _____ _____    ______ ____

>  <TORSDO>
F 4

$$$$
