=
 OpenBabel11042420093D

 30 34  0  0  1  0  0  0  0  0999 V2000
  161.2730  208.6910  153.3160 C   0  0  0  0  0  0  0  0  0  0  0  0
  161.8450  206.3420  147.7270 C   0  0  0  0  0  0  0  0  0  0  0  0
  160.9740  203.4470  151.6360 C   0  0  0  0  0  3  0  0  0  0  0  0
  161.4650  208.5650  151.1490 C   0  0  0  0  0  0  0  0  0  0  0  0
  160.3980  204.0160  150.3800 C   0  0  0  0  0  2  0  0  0  0  0  0
  161.2430  206.3640  150.6480 C   0  0  0  0  0  0  0  0  0  0  0  0
  161.0530  205.5750  152.9780 C   0  0  0  0  0  2  0  0  0  0  0  0
  161.1910  204.1210  152.7650 C   0  0  0  0  0  3  0  0  0  0  0  0
  161.6320  210.0300  152.7840 C   0  0  0  0  0  3  0  0  0  0  0  0
  161.2010  207.8850  152.2740 C   0  0  0  0  0  0  0  0  0  0  0  0
  161.3990  205.2300  148.4630 C   0  0  0  0  0  3  0  0  0  0  0  0
  161.7550  209.9560  151.4460 C   0  0  0  0  0  3  0  0  0  0  0  0
  161.0820  206.5200  152.0330 C   0  0  0  0  0  0  0  0  0  0  0  0
  161.1120  205.2160  149.8490 C   0  0  0  0  0  0  0  0  0  0  0  0
  161.5360  207.6840  150.1060 C   0  0  2  0  0  3  0  0  0  0  0  0
  161.9470  207.8600  148.4900 S   0  0  0  0  0  0  0  0  0  0  0  0
  159.9870  207.6740  155.0320 O   0  0  0  0  0  1  0  0  0  0  0  0
  161.2080  208.2900  154.7560 C   0  0  2  0  0  3  0  0  0  0  0  0
  162.2780  210.9080  156.9740 C   0  0  0  0  0  3  0  0  0  0  0  0
  160.4700  210.4600  155.8960 C   0  0  0  0  0  0  0  0  0  0  0  0
  159.0910  210.5580  155.3330 C   0  0  0  0  0  1  0  0  0  0  0  0
  160.4320  212.5630  157.2600 C   0  0  0  0  0  1  0  0  0  0  0  0
  162.5350  209.7510  156.3200 N   0  0  0  0  0  0  0  0  0  0  0  0
  161.0300  211.3500  156.7280 N   0  0  0  0  0  0  0  0  0  0  0  0
  161.3950  209.4740  155.6510 C   0  0  0  0  0  0  0  0  0  0  0  0
  162.1130  206.2180  146.2690 C   0  0  0  0  0  2  0  0  0  0  0  0
  160.9970  205.5500  145.6200 N   0  0  0  0  0  2  0  0  0  0  0  0
  161.1000  204.2160  145.1240 C   0  0  0  0  0  0  0  0  0  0  0  0
  160.0030  203.6240  144.5130 O   0  0  0  0  0  0  0  0  0  0  0  0
  162.1770  203.5720  145.2340 O   0  0  0  0  0  1  0  0  0  0  0  0
  1 18  1  0  0  0  0
  2 11  2  0  0  0  0
  2 16  1  0  0  0  0
  3  8  2  0  0  0  0
  4 12  2  0  0  0  0
  4 10  1  0  0  0  0
  5  3  1  0  0  0  0
  6 13  1  0  0  0  0
  8  7  1  0  0  0  0
  9  1  2  0  0  0  0
 10  1  1  0  0  0  0
 11 14  1  0  0  0  0
 12  9  1  0  0  0  0
 13 10  2  0  0  0  0
 13  7  1  0  0  0  0
 14  5  1  0  0  0  0
 14  6  2  0  0  0  0
 15 16  1  1  0  0  0
 15  6  1  0  0  0  0
 15  4  1  0  0  0  0
 18 17  1  6  0  0  0
 18 25  1  0  0  0  0
 20 24  1  0  0  0  0
 21 20  1  0  0  0  0
 23 19  2  0  0  0  0
 24 19  1  0  0  0  0
 24 22  1  0  0  0  0
 25 20  2  0  0  0  0
 25 23  1  0  0  0  0
 26  2  1  0  0  0  0
 27 26  1  0  0  0  0
 28 30  1  0  0  0  0
 28 27  1  0  0  0  0
 29 28  2  0  0  0  0
M  END
>  <MODEL>
1

>  <REMARK>
 VINA RESULT:      -9.9      0.000      0.000
  Name = 
  4 active torsions:
  status: ('A' for Active; 'I' for Inactive)
    1  A    between atoms: C_2  and  C_26
    2  A    between atoms: C_3  and  C_9
    3  A    between atoms: C_9  and  N_11
    4  A    between atoms: C_26  and  C_30
                            x       y       z     vdW  Elec       q    Type
                         _______ _______ _______ _____ _____    ______ ____

>  <TORSDO>
F 4

$$$$
=
 OpenBabel11042420093D

 30 34  0  0  1  0  0  0  0  0999 V2000
  161.5530  208.6100  151.4870 C   0  0  0  0  0  0  0  0  0  0  0  0
  161.7370  204.5540  146.9500 C   0  0  0  0  0  0  0  0  0  0  0  0
  160.9560  203.1300  151.6170 C   0  0  0  0  0  3  0  0  0  0  0  0
  161.6260  207.7810  149.4740 C   0  0  0  0  0  0  0  0  0  0  0  0
  160.3380  203.2930  150.2660 C   0  0  0  0  0  2  0  0  0  0  0  0
  161.2900  205.5520  149.7240 C   0  0  0  0  0  0  0  0  0  0  0  0
  161.1910  205.5700  152.1900 C   0  0  0  0  0  2  0  0  0  0  0  0
  161.2590  204.1200  152.4570 C   0  0  0  0  0  3  0  0  0  0  0  0
  161.9370  209.6840  150.5350 C   0  0  0  0  0  3  0  0  0  0  0  0
  161.3950  207.5170  150.7670 C   0  0  0  0  0  0  0  0  0  0  0  0
  161.2850  203.7650  148.0240 C   0  0  0  0  0  3  0  0  0  0  0  0
  161.9870  209.1750  149.2910 C   0  0  0  0  0  3  0  0  0  0  0  0
  161.2080  206.1550  150.9880 C   0  0  0  0  0  0  0  0  0  0  0  0
  161.0710  204.2160  149.3480 C   0  0  0  0  0  0  0  0  0  0  0  0
  161.6060  206.6080  148.7720 C   0  0  2  0  0  3  0  0  0  0  0  0
  161.9390  206.2290  147.1730 S   0  0  0  0  0  0  0  0  0  0  0  0
  160.9550  207.5650  153.5320 O   0  0  0  0  0  1  0  0  0  0  0  0
  161.5480  208.7010  152.9810 C   0  0  2  0  0  3  0  0  0  0  0  0
  159.4090  211.5280  153.5740 C   0  0  0  0  0  3  0  0  0  0  0  0
  161.1100  210.6610  154.5690 C   0  0  0  0  0  0  0  0  0  0  0  0
  162.1930  210.3990  155.5610 C   0  0  0  0  0  1  0  0  0  0  0  0
  160.1270  212.6910  155.6620 C   0  0  0  0  0  1  0  0  0  0  0  0
  159.7550  210.4630  152.8150 N   0  0  0  0  0  0  0  0  0  0  0  0
  160.2210  211.6620  154.6410 N   0  0  0  0  0  0  0  0  0  0  0  0
  160.8250  209.9280  153.4410 C   0  0  0  0  0  0  0  0  0  0  0  0
  161.9220  203.9500  145.6020 C   0  0  0  0  0  2  0  0  0  0  0  0
  161.3870  202.5990  145.5920 N   0  0  0  0  0  2  0  0  0  0  0  0
  160.1940  202.2650  144.8840 C   0  0  0  0  0  0  0  0  0  0  0  0
  159.7250  200.9590  144.9060 O   0  0  0  0  0  1  0  0  0  0  0  0
  159.5630  203.1440  144.2390 O   0  0  0  0  0  0  0  0  0  0  0  0
  1 18  1  0  0  0  0
  2 16  1  0  0  0  0
  2 11  2  0  0  0  0
  3  8  2  0  0  0  0
  4 10  1  0  0  0  0
  5  3  1  0  0  0  0
  6 13  1  0  0  0  0
  7  8  1  0  0  0  0
  9  1  2  0  0  0  0
 10 13  2  0  0  0  0
 10  1  1  0  0  0  0
 11 14  1  0  0  0  0
 12  4  2  0  0  0  0
 12  9  1  0  0  0  0
 13  7  1  0  0  0  0
 14  6  2  0  0  0  0
 14  5  1  0  0  0  0
 15 16  1  1  0  0  0
 15  4  1  0  0  0  0
 15  6  1  0  0  0  0
 18 25  1  0  0  0  0
 18 17  1  1  0  0  0
 19 24  1  0  0  0  0
 20 24  1  0  0  0  0
 20 21  1  0  0  0  0
 23 25  1  0  0  0  0
 23 19  2  0  0  0  0
 24 22  1  0  0  0  0
 25 20  2  0  0  0  0
 26  2  1  0  0  0  0
 27 26  1  0  0  0  0
 28 29  1  0  0  0  0
 28 27  1  0  0  0  0
 30 28  2  0  0  0  0
M  END
>  <MODEL>
2

>  <REMARK>
 VINA RESULT:      -9.7      1.623      2.204
  Name = 
  4 active torsions:
  status: ('A' for Active; 'I' for Inactive)
    1  A    between atoms: C_2  and  C_26
    2  A    between atoms: C_3  and  C_9
    3  A    between atoms: C_9  and  N_11
    4  A    between atoms: C_26  and  C_30
                            x       y       z     vdW  Elec       q    Type
                         _______ _______ _______ _____ _____    ______ ____

>  <TORSDO>
F 4

$$$$
=
 OpenBabel11042420093D

 30 34  0  0  1  0  0  0  0  0999 V2000
  161.2030  208.8010  154.1860 C   0  0  0  0  0  0  0  0  0  0  0  0
  160.9220  204.0340  150.4080 C   0  0  0  0  0  0  0  0  0  0  0  0
  161.9680  208.5630  148.7300 C   0  0  0  0  0  3  0  0  0  0  0  0
  161.0580  206.7460  153.4780 C   0  0  0  0  0  0  0  0  0  0  0  0
  162.5150  207.1980  148.9950 C   0  0  0  0  0  2  0  0  0  0  0  0
  161.4720  206.8410  151.2500 C   0  0  0  0  0  0  0  0  0  0  0  0
  161.6890  209.2960  151.1220 C   0  0  0  0  0  3  0  0  0  0  0  0
  161.6770  209.4760  149.6570 C   0  0  0  0  0  3  0  0  0  0  0  0
  160.7420  207.9360  155.3020 C   0  0  0  0  0  3  0  0  0  0  0  0
  161.3590  208.0080  153.1440 C   0  0  0  0  0  0  0  0  0  0  0  0
  161.4480  205.0350  149.5710 C   0  0  0  0  0  3  0  0  0  0  0  0
  160.6470  206.6670  154.8680 C   0  0  0  0  0  3  0  0  0  0  0  0
  161.5960  208.1360  151.7780 C   0  0  0  0  0  0  0  0  0  0  0  0
  161.7120  206.3730  149.9470 C   0  0  0  0  0  0  0  0  0  0  0  0
  161.0780  205.9720  152.3510 C   0  0  0  0  0  0  0  0  0  0  0  0
  160.6800  204.3700  152.0590 S   0  0  0  0  0  0  0  0  0  0  0  0
  162.3870  210.7240  154.9140 O   0  0  0  0  0  1  0  0  0  0  0  0
  161.2770  210.2960  154.1860 C   0  0  2  0  0  3  0  0  0  0  0  0
  158.5860  211.6570  156.1410 C   0  0  0  0  0  3  0  0  0  0  0  0
  158.9650  211.3850  154.0400 C   0  0  0  0  0  0  0  0  0  0  0  0
  158.8210  211.4200  152.5540 C   0  0  0  0  0  1  0  0  0  0  0  0
  156.7820  212.4730  154.6210 C   0  0  0  0  0  1  0  0  0  0  0  0
  159.8020  211.0670  156.0760 N   0  0  0  0  0  0  0  0  0  0  0  0
  158.0650  211.8570  154.9150 N   0  0  0  0  0  0  0  0  0  0  0  0
  160.0300  210.8950  154.7560 C   0  0  0  0  0  0  0  0  0  0  0  0
  160.6890  202.6620  149.8810 C   0  0  0  0  0  2  0  0  0  0  0  0
  160.6740  202.6900  148.4280 N   0  0  0  0  0  2  0  0  0  0  0  0
  160.9650  201.5320  147.6470 C   0  0  0  0  0  0  0  0  0  0  0  0
  160.9360  201.6130  146.2620 O   0  0  0  0  0  0  0  0  0  0  0  0
  161.2480  200.4380  148.2030 O   0  0  0  0  0  1  0  0  0  0  0  0
  1  9  1  0  0  0  0
  2 16  1  0  0  0  0
  3  5  1  0  0  0  0
  3  8  2  0  0  0  0
  4 12  1  0  0  0  0
  5 14  1  0  0  0  0
  6 13  1  0  0  0  0
  6 15  1  0  0  0  0
  7 13  2  0  0  0  0
  8  7  1  0  0  0  0
 10  4  1  0  0  0  0
 10  1  2  0  0  0  0
 11 14  1  0  0  0  0
 11  2  2  0  0  0  0
 12  9  2  0  0  0  0
 13 10  1  0  0  0  0
 14  6  2  0  0  0  0
 15  4  2  0  0  0  0
 16 15  1  0  0  0  0
 18  1  1  0  0  0  0
 18 25  1  0  0  0  0
 18 17  1  1  0  0  0
 20 25  2  0  0  0  0
 20 24  1  0  0  0  0
 21 20  1  0  0  0  0
 22 24  1  0  0  0  0
 23 19  2  0  0  0  0
 24 19  1  0  0  0  0
 25 23  1  0  0  0  0
 26  2  1  0  0  0  0
 27 26  1  0  0  0  0
 28 30  1  0  0  0  0
 28 27  1  0  0  0  0
 29 28  2  0  0  0  0
M  END
>  <MODEL>
3

>  <REMARK>
 VINA RESULT:      -9.6      2.293      3.604
  Name = 
  4 active torsions:
  status: ('A' for Active; 'I' for Inactive)
    1  A    between atoms: C_2  and  C_26
    2  A    between atoms: C_3  and  C_9
    3  A    between atoms: C_9  and  N_11
    4  A    between atoms: C_26  and  C_30
                            x       y       z     vdW  Elec       q    Type
                         _______ _______ _______ _____ _____    ______ ____

>  <TORSDO>
F 4

$$$$
=
 OpenBabel11042420093D

 30 34  0  0  1  0  0  0  0  0999 V2000
  161.4330  208.2690  152.8440 C   0  0  0  0  0  0  0  0  0  0  0  0
  160.7500  202.9490  149.9620 C   0  0  0  0  0  0  0  0  0  0  0  0
  161.6810  207.1070  147.4590 C   0  0  0  0  0  3  0  0  0  0  0  0
  161.2010  206.1290  152.5080 C   0  0  0  0  0  0  0  0  0  0  0  0
  162.2370  205.7910  147.8990 C   0  0  0  0  0  2  0  0  0  0  0  0
  161.4060  205.8420  150.2670 C   0  0  0  0  0  0  0  0  0  0  0  0
  161.6350  208.2350  149.7090 C   0  0  0  0  0  3  0  0  0  0  0  0
  161.4870  208.1680  148.2420 C   0  0  0  0  0  3  0  0  0  0  0  0
  161.0690  207.6140  154.1270 C   0  0  0  0  0  3  0  0  0  0  0  0
  161.4820  207.3100  151.9400 C   0  0  0  0  0  0  0  0  0  0  0  0
  161.2060  203.7830  148.9240 C   0  0  0  0  0  3  0  0  0  0  0  0
  160.9210  206.2930  153.9230 C   0  0  0  0  0  3  0  0  0  0  0  0
  161.5920  207.2020  150.5570 C   0  0  0  0  0  0  0  0  0  0  0  0
  161.5180  205.1580  149.0450 C   0  0  0  0  0  0  0  0  0  0  0  0
  161.1080  205.1780  151.5290 C   0  0  0  0  0  0  0  0  0  0  0  0
  160.6680  203.5610  151.5480 S   0  0  0  0  0  0  0  0  0  0  0  0
  162.8130  210.0840  152.1870 O   0  0  0  0  0  1  0  0  0  0  0  0
  161.5220  209.7410  152.5860 C   0  0  2  0  0  3  0  0  0  0  0  0
  161.2060  211.4530  155.7310 C   0  0  0  0  0  3  0  0  0  0  0  0
  159.9800  211.2420  153.9740 C   0  0  0  0  0  0  0  0  0  0  0  0
  158.8630  211.3900  152.9950 C   0  0  0  0  0  1  0  0  0  0  0  0
  159.0300  212.6730  155.7990 C   0  0  0  0  0  1  0  0  0  0  0  0
  161.9160  210.6550  154.9000 N   0  0  0  0  0  0  0  0  0  0  0  0
  160.0300  211.8160  155.1840 N   0  0  0  0  0  0  0  0  0  0  0  0
  161.1390  210.5220  153.8030 C   0  0  0  0  0  0  0  0  0  0  0  0
  160.4560  201.5150  149.6970 C   0  0  0  0  0  2  0  0  0  0  0  0
  160.1980  201.3210  148.2800 N   0  0  0  0  0  2  0  0  0  0  0  0
  161.1260  200.6510  147.4280 C   0  0  0  0  0  0  0  0  0  0  0  0
  160.8310  200.4920  146.0810 O   0  0  0  0  0  0  0  0  0  0  0  0
  162.2110  200.2030  147.8860 O   0  0  0  0  0  1  0  0  0  0  0  0
  1  9  1  0  0  0  0
  2 16  1  0  0  0  0
  3  5  1  0  0  0  0
  3  8  2  0  0  0  0
  4 12  1  0  0  0  0
  5 14  1  0  0  0  0
  6 13  1  0  0  0  0
  6 15  1  0  0  0  0
  7 13  2  0  0  0  0
  8  7  1  0  0  0  0
 10  4  1  0  0  0  0
 10  1  2  0  0  0  0
 11 14  1  0  0  0  0
 11  2  2  0  0  0  0
 12  9  2  0  0  0  0
 13 10  1  0  0  0  0
 14  6  2  0  0  0  0
 15 16  1  0  0  0  0
 15  4  2  0  0  0  0
 18 17  1  1  0  0  0
 18  1  1  0  0  0  0
 18 25  1  0  0  0  0
 20 24  1  0  0  0  0
 21 20  1  0  0  0  0
 23 19  2  0  0  0  0
 24 19  1  0  0  0  0
 24 22  1  0  0  0  0
 25 20  2  0  0  0  0
 25 23  1  0  0  0  0
 26  2  1  0  0  0  0
 27 26  1  0  0  0  0
 28 30  1  0  0  0  0
 28 27  1  0  0  0  0
 29 28  2  0  0  0  0
M  END
>  <MODEL>
4

>  <REMARK>
 VINA RESULT:      -9.5      2.392      3.502
  Name = 
  4 active torsions:
  status: ('A' for Active; 'I' for Inactive)
    1  A    between atoms: C_2  and  C_26
    2  A    between atoms: C_3  and  C_9
    3  A    between atoms: C_9  and  N_11
    4  A    between atoms: C_26  and  C_30
                            x       y       z     vdW  Elec       q    Type
                         _______ _______ _______ _____ _____    ______ ____

>  <TORSDO>
F 4

$$$$
=
 OpenBabel11042420093D

 30 34  0  0  1  0  0  0  0  0999 V2000
  161.3100  208.8320  154.0840 C   0  0  0  0  0  0  0  0  0  0  0  0
  161.0460  205.1890  149.2120 C   0  0  0  0  0  0  0  0  0  0  0  0
  161.9560  210.0240  148.7390 C   0  0  0  0  0  3  0  0  0  0  0  0
  161.1930  207.0240  152.8740 C   0  0  0  0  0  0  0  0  0  0  0  0
  162.5380  208.6510  148.6350 C   0  0  0  0  0  2  0  0  0  0  0  0
  161.5540  207.7000  150.7390 C   0  0  0  0  0  0  0  0  0  0  0  0
  161.7150  210.1100  151.2430 C   0  0  0  0  0  3  0  0  0  0  0  0
  161.6660  210.6590  149.8740 C   0  0  0  0  0  3  0  0  0  0  0  0
  160.8930  207.6980  154.9480 C   0  0  0  0  0  3  0  0  0  0  0  0
  161.4590  208.3380  152.8700 C   0  0  0  0  0  0  0  0  0  0  0  0
  161.5310  206.3850  148.6520 C   0  0  0  0  0  3  0  0  0  0  0  0
  160.8160  206.5800  154.2030 C   0  0  0  0  0  3  0  0  0  0  0  0
  161.6620  208.8180  151.5800 C   0  0  0  0  0  0  0  0  0  0  0  0
  161.7740  207.5890  149.3550 C   0  0  0  0  0  0  0  0  0  0  0  0
  161.2040  206.5670  151.5850 C   0  0  0  0  0  0  0  0  0  0  0  0
  160.8350  205.0840  150.8980 S   0  0  0  0  0  0  0  0  0  0  0  0
  162.3460  210.4970  155.4210 O   0  0  0  0  0  1  0  0  0  0  0  0
  161.3520  210.2780  154.4670 C   0  0  2  0  0  3  0  0  0  0  0  0
  158.4430  211.2600  156.3360 C   0  0  0  0  0  3  0  0  0  0  0  0
  158.9750  211.2050  154.2510 C   0  0  0  0  0  0  0  0  0  0  0  0
  158.9240  211.3610  152.7680 C   0  0  0  0  0  1  0  0  0  0  0  0
  156.6810  212.0740  154.7670 C   0  0  0  0  0  1  0  0  0  0  0  0
  159.7030  210.7690  156.3080 N   0  0  0  0  0  0  0  0  0  0  0  0
  157.9870  211.5300  155.0970 N   0  0  0  0  0  0  0  0  0  0  0  0
  160.0280  210.7320  154.9970 C   0  0  0  0  0  0  0  0  0  0  0  0
  160.8310  203.9920  148.3540 C   0  0  0  0  0  2  0  0  0  0  0  0
  161.9600  203.8250  147.4540 N   0  0  0  0  0  2  0  0  0  0  0  0
  161.8890  204.1950  146.0780 C   0  0  0  0  0  0  0  0  0  0  0  0
  162.9970  204.0140  145.2610 O   0  0  0  0  0  0  0  0  0  0  0  0
  160.8310  204.6810  145.5970 O   0  0  0  0  0  1  0  0  0  0  0  0
  1 18  1  0  0  0  0
  1  9  1  0  0  0  0
  2 16  1  0  0  0  0
  3  8  2  0  0  0  0
  4 12  1  0  0  0  0
  5  3  1  0  0  0  0
  5 14  1  0  0  0  0
  6 13  1  0  0  0  0
  6 15  1  0  0  0  0
  7 13  2  0  0  0  0
  8  7  1  0  0  0  0
 10  4  1  0  0  0  0
 10  1  2  0  0  0  0
 11  2  2  0  0  0  0
 11 14  1  0  0  0  0
 12  9  2  0  0  0  0
 13 10  1  0  0  0  0
 14  6  2  0  0  0  0
 15  4  2  0  0  0  0
 16 15  1  0  0  0  0
 18 25  1  0  0  0  0
 18 17  1  1  0  0  0
 20 25  2  0  0  0  0
 20 24  1  0  0  0  0
 21 20  1  0  0  0  0
 22 24  1  0  0  0  0
 23 19  2  0  0  0  0
 24 19  1  0  0  0  0
 25 23  1  0  0  0  0
 26  2  1  0  0  0  0
 27 26  1  0  0  0  0
 28 27  1  0  0  0  0
 29 28  2  0  0  0  0
 30 28  1  0  0  0  0
M  END
>  <MODEL>
5

>  <REMARK>
 VINA RESULT:      -9.2      1.863      3.444
  Name = 
  4 active torsions:
  status: ('A' for Active; 'I' for Inactive)
    1  A    between atoms: C_2  and  C_26
    2  A    between atoms: C_3  and  C_9
    3  A    between atoms: C_9  and  N_11
    4  A    between atoms: C_26  and  C_30
                            x       y       z     vdW  Elec       q    Type
                         _______ _______ _______ _____ _____    ______ ____

>  <TORSDO>
F 4

$$$$
=
 OpenBabel11042420093D

 30 34  0  0  1  0  0  0  0  0999 V2000
  161.0560  204.8220  150.3030 C   0  0  0  0  0  0  0  0  0  0  0  0
  161.2920  208.5010  155.1500 C   0  0  0  0  0  0  0  0  0  0  0  0
  161.9610  210.2550  150.5790 C   0  0  0  0  0  3  0  0  0  0  0  0
  160.8980  205.5250  152.3600 C   0  0  0  0  0  0  0  0  0  0  0  0
  161.0400  210.2190  151.7550 C   0  0  0  0  0  2  0  0  0  0  0  0
  161.2220  207.7670  152.2600 C   0  0  0  0  0  0  0  0  0  0  0  0
  161.6680  207.8680  149.8360 C   0  0  0  0  0  3  0  0  0  0  0  0
  162.1710  209.2510  149.7270 C   0  0  0  0  0  3  0  0  0  0  0  0
  160.9250  203.6500  151.2070 C   0  0  0  0  0  3  0  0  0  0  0  0
  161.0350  205.8900  151.0770 C   0  0  0  0  0  0  0  0  0  0  0  0
  161.3120  209.4220  154.0880 C   0  0  0  0  0  3  0  0  0  0  0  0
  160.8310  204.0790  152.4780 C   0  0  0  0  0  3  0  0  0  0  0  0
  161.2660  207.2570  150.9540 C   0  0  0  0  0  0  0  0  0  0  0  0
  161.2840  209.0970  152.7100 C   0  0  0  0  0  0  0  0  0  0  0  0
  161.0330  206.6310  153.1520 C   0  0  0  0  0  0  0  0  0  0  0  0
  161.0930  206.8440  154.8130 S   0  0  0  0  0  0  0  0  0  0  0  0
  160.5810  205.7350  148.1650 O   0  0  0  0  0  1  0  0  0  0  0  0
  161.3570  204.7910  148.8380 C   0  0  2  0  0  3  0  0  0  0  0  0
  160.5950  201.3590  148.0900 C   0  0  0  0  0  3  0  0  0  0  0  0
  161.2010  203.0770  146.9430 C   0  0  0  0  0  0  0  0  0  0  0  0
  161.5650  203.9650  145.8000 C   0  0  0  0  0  1  0  0  0  0  0  0
  160.8320  200.9690  145.6370 C   0  0  0  0  0  1  0  0  0  0  0  0
  160.7260  202.3580  148.9940 N   0  0  0  0  0  0  0  0  0  0  0  0
  160.8800  201.7790  146.8420 N   0  0  0  0  0  0  0  0  0  0  0  0
  161.1110  203.4300  148.2680 C   0  0  0  0  0  0  0  0  0  0  0  0
  161.3280  208.9790  156.5590 C   0  0  0  0  0  2  0  0  0  0  0  0
  162.6480  209.5030  156.8650 N   0  0  0  0  0  2  0  0  0  0  0  0
  162.9000  210.9050  156.9660 C   0  0  0  0  0  0  0  0  0  0  0  0
  164.1800  211.3530  157.2610 O   0  0  0  0  0  1  0  0  0  0  0  0
  161.9710  211.7380  156.7890 O   0  0  0  0  0  0  0  0  0  0  0  0
  1 10  2  0  0  0  0
  1  9  1  0  0  0  0
  2 26  1  0  0  0  0
  3  5  1  0  0  0  0
  4 12  1  0  0  0  0
  4 15  2  0  0  0  0
  5 14  1  0  0  0  0
  6 14  2  0  0  0  0
  6 15  1  0  0  0  0
  7 13  2  0  0  0  0
  8  7  1  0  0  0  0
  8  3  2  0  0  0  0
  9 12  2  0  0  0  0
 10  4  1  0  0  0  0
 11  2  2  0  0  0  0
 13 10  1  0  0  0  0
 13  6  1  0  0  0  0
 14 11  1  0  0  0  0
 15 16  1  0  0  0  0
 16  2  1  0  0  0  0
 18 17  1  6  0  0  0
 18  1  1  0  0  0  0
 19 23  2  0  0  0  0
 20 25  2  0  0  0  0
 21 20  1  0  0  0  0
 22 24  1  0  0  0  0
 24 20  1  0  0  0  0
 24 19  1  0  0  0  0
 25 18  1  0  0  0  0
 25 23  1  0  0  0  0
 26 27  1  0  0  0  0
 27 28  1  0  0  0  0
 28 29  1  0  0  0  0
 30 28  2  0  0  0  0
M  END
>  <MODEL>
6

>  <REMARK>
 VINA RESULT:      -8.8      2.575      9.218
  Name = 
  4 active torsions:
  status: ('A' for Active; 'I' for Inactive)
    1  A    between atoms: C_2  and  C_26
    2  A    between atoms: C_3  and  C_9
    3  A    between atoms: C_9  and  N_11
    4  A    between atoms: C_26  and  C_30
                            x       y       z     vdW  Elec       q    Type
                         _______ _______ _______ _____ _____    ______ ____

>  <TORSDO>
F 4

$$$$
=
 OpenBabel11042420093D

 30 34  0  0  1  0  0  0  0  0999 V2000
  161.0140  205.0310  150.5350 C   0  0  0  0  0  0  0  0  0  0  0  0
  161.4230  209.0150  155.1220 C   0  0  0  0  0  0  0  0  0  0  0  0
  161.9560  210.4630  150.4270 C   0  0  0  0  0  3  0  0  0  0  0  0
  160.9250  205.8670  152.5450 C   0  0  0  0  0  0  0  0  0  0  0  0
  161.0720  210.5110  151.6320 C   0  0  0  0  0  2  0  0  0  0  0  0
  161.2570  208.0960  152.2900 C   0  0  0  0  0  0  0  0  0  0  0  0
  161.6270  208.0350  149.8510 C   0  0  0  0  0  3  0  0  0  0  0  0
  162.1330  209.4050  149.6370 C   0  0  0  0  0  3  0  0  0  0  0  0
  160.9050  203.9210  151.5160 C   0  0  0  0  0  3  0  0  0  0  0  0
  161.0230  206.1470  151.2380 C   0  0  0  0  0  0  0  0  0  0  0  0
  161.4140  209.8650  154.0010 C   0  0  0  0  0  3  0  0  0  0  0  0
  160.8540  204.4330  152.7590 C   0  0  0  0  0  3  0  0  0  0  0  0
  161.2570  207.5010  151.0190 C   0  0  0  0  0  0  0  0  0  0  0  0
  161.3410  209.4520  152.6500 C   0  0  0  0  0  0  0  0  0  0  0  0
  161.0910  207.0210  153.2590 C   0  0  0  0  0  0  0  0  0  0  0  0
  161.2040  207.3420  154.9000 S   0  0  0  0  0  0  0  0  0  0  0  0
  160.4550  205.7870  148.3560 O   0  0  0  0  0  1  0  0  0  0  0  0
  161.2680  204.9030  149.0660 C   0  0  2  0  0  3  0  0  0  0  0  0
  160.4820  201.4300  148.5690 C   0  0  0  0  0  3  0  0  0  0  0  0
  161.1740  203.0370  147.3150 C   0  0  0  0  0  0  0  0  0  0  0  0
  161.6100  203.8210  146.1220 C   0  0  0  0  0  1  0  0  0  0  0  0
  160.8320  200.8330  146.1710 C   0  0  0  0  0  1  0  0  0  0  0  0
  160.5860  202.5000  149.3920 N   0  0  0  0  0  0  0  0  0  0  0  0
  160.8350  201.7400  147.3060 N   0  0  0  0  0  0  0  0  0  0  0  0
  161.0250  203.5020  148.6000 C   0  0  0  0  0  0  0  0  0  0  0  0
  161.5060  209.5840  156.4940 C   0  0  0  0  0  2  0  0  0  0  0  0
  161.3500  211.0280  156.4370 N   0  0  0  0  0  2  0  0  0  0  0  0
  160.1180  211.6680  156.7630 C   0  0  0  0  0  0  0  0  0  0  0  0
  160.0220  213.0510  156.6920 O   0  0  0  0  0  0  0  0  0  0  0  0
  159.1160  210.9900  157.1150 O   0  0  0  0  0  1  0  0  0  0  0  0
  1 10  2  0  0  0  0
  1  9  1  0  0  0  0
  2 26  1  0  0  0  0
  3  5  1  0  0  0  0
  4 12  1  0  0  0  0
  4 15  2  0  0  0  0
  5 14  1  0  0  0  0
  6 14  2  0  0  0  0
  6 15  1  0  0  0  0
  7 13  2  0  0  0  0
  8  7  1  0  0  0  0
  8  3  2  0  0  0  0
  9 12  2  0  0  0  0
 10  4  1  0  0  0  0
 11  2  2  0  0  0  0
 13 10  1  0  0  0  0
 13  6  1  0  0  0  0
 14 11  1  0  0  0  0
 15 16  1  0  0  0  0
 16  2  1  0  0  0  0
 18 17  1  6  0  0  0
 18  1  1  0  0  0  0
 19 23  2  0  0  0  0
 20 25  2  0  0  0  0
 21 20  1  0  0  0  0
 22 24  1  0  0  0  0
 24 20  1  0  0  0  0
 24 19  1  0  0  0  0
 25 18  1  0  0  0  0
 25 23  1  0  0  0  0
 27 26  1  0  0  0  0
 27 28  1  0  0  0  0
 28 30  1  0  0  0  0
 29 28  2  0  0  0  0
M  END
>  <MODEL>
7

>  <REMARK>
 VINA RESULT:      -8.6      2.563      9.147
  Name = 
  4 active torsions:
  status: ('A' for Active; 'I' for Inactive)
    1  A    between atoms: C_2  and  C_26
    2  A    between atoms: C_3  and  C_9
    3  A    between atoms: C_9  and  N_11
    4  A    between atoms: C_26  and  C_30
                            x       y       z     vdW  Elec       q    Type
                         _______ _______ _______ _____ _____    ______ ____

>  <TORSDO>
F 4

$$$$
=
 OpenBabel11042420093D

 30 34  0  0  1  0  0  0  0  0999 V2000
  161.7570  209.9510  151.0080 C   0  0  0  0  0  0  0  0  0  0  0  0
  161.6380  204.8060  147.7540 C   0  0  0  0  0  0  0  0  0  0  0  0
  161.1070  204.7330  152.6670 C   0  0  0  0  0  3  0  0  0  0  0  0
  161.7060  208.6020  149.2980 C   0  0  0  0  0  0  0  0  0  0  0  0
  160.4160  204.5370  151.3560 C   0  0  0  0  0  2  0  0  0  0  0  0
  161.3600  206.5360  150.1670 C   0  0  0  0  0  0  0  0  0  0  0  0
  161.4010  207.2290  152.5350 C   0  0  0  0  0  2  0  0  0  0  0  0
  161.4680  205.9060  153.1860 C   0  0  0  0  0  3  0  0  0  0  0  0
  162.0990  210.7140  149.7800 C   0  0  0  0  0  3  0  0  0  0  0  0
  161.5460  208.7070  150.6250 C   0  0  0  0  0  0  0  0  0  0  0  0
  161.2390  204.3530  149.0240 C   0  0  0  0  0  3  0  0  0  0  0  0
  162.0720  209.8830  148.7220 C   0  0  0  0  0  3  0  0  0  0  0  0
  161.3580  207.4630  151.2200 C   0  0  0  0  0  0  0  0  0  0  0  0
  161.1060  205.1540  150.1840 C   0  0  0  0  0  0  0  0  0  0  0  0
  161.6340  207.2830  148.9470 C   0  0  2  0  0  3  0  0  0  0  0  0
  161.8720  206.4730  147.4990 S   0  0  0  0  0  0  0  0  0  0  0  0
  162.3800  209.4630  153.2450 O   0  0  0  0  0  1  0  0  0  0  0  0
  161.8380  210.4470  152.4180 C   0  0  2  0  0  3  0  0  0  0  0  0
  158.6760  210.9190  154.0610 C   0  0  0  0  0  3  0  0  0  0  0  0
  159.7530  211.9310  152.4960 C   0  0  0  0  0  0  0  0  0  0  0  0
  160.1360  212.9180  151.4440 C   0  0  0  0  0  1  0  0  0  0  0  0
  157.5370  212.9270  153.1130 C   0  0  0  0  0  1  0  0  0  0  0  0
  159.8210  210.2140  153.9090 N   0  0  0  0  0  0  0  0  0  0  0  0
  158.6200  211.9630  153.2110 N   0  0  0  0  0  0  0  0  0  0  0  0
  160.4890  210.8510  152.9230 C   0  0  0  0  0  0  0  0  0  0  0  0
  161.7400  203.8530  146.6160 C   0  0  0  0  0  2  0  0  0  0  0  0
  162.1140  204.5700  145.4080 N   0  0  0  0  0  2  0  0  0  0  0  0
  161.1650  204.8800  144.3890 C   0  0  0  0  0  0  0  0  0  0  0  0
  161.5740  205.5670  143.2540 O   0  0  0  0  0  0  0  0  0  0  0  0
  159.9590  204.5340  144.5080 O   0  0  0  0  0  1  0  0  0  0  0  0
  1 18  1  0  0  0  0
  2 11  2  0  0  0  0
  3  8  2  0  0  0  0
  4 10  1  0  0  0  0
  5  3  1  0  0  0  0
  6 14  2  0  0  0  0
  6 13  1  0  0  0  0
  7  8  1  0  0  0  0
  9  1  2  0  0  0  0
 10  1  1  0  0  0  0
 10 13  2  0  0  0  0
 11 14  1  0  0  0  0
 12  4  2  0  0  0  0
 12  9  1  0  0  0  0
 13  7  1  0  0  0  0
 14  5  1  0  0  0  0
 15 16  1  1  0  0  0
 15  4  1  0  0  0  0
 15  6  1  0  0  0  0
 16  2  1  0  0  0  0
 18 25  1  0  0  0  0
 18 17  1  1  0  0  0
 20 25  2  0  0  0  0
 20 24  1  0  0  0  0
 21 20  1  0  0  0  0
 22 24  1  0  0  0  0
 23 19  2  0  0  0  0
 24 19  1  0  0  0  0
 25 23  1  0  0  0  0
 26  2  1  0  0  0  0
 27 26  1  0  0  0  0
 28 30  1  0  0  0  0
 28 27  1  0  0  0  0
 29 28  2  0  0  0  0
M  END
>  <MODEL>
8

>  <REMARK>
 VINA RESULT:      -8.5      2.065      2.726
  Name = 
  4 active torsions:
  status: ('A' for Active; 'I' for Inactive)
    1  A    between atoms: C_2  and  C_26
    2  A    between atoms: C_3  and  C_9
    3  A    between atoms: C_9  and  N_11
    4  A    between atoms: C_26  and  C_30
                            x       y       z     vdW  Elec       q    Type
                         _______ _______ _______ _____ _____    ______ ____

>  <TORSDO>
F 4

$$$$
=
 OpenBabel11042420093D

 30 34  0  0  1  0  0  0  0  0999 V2000
  161.8610  207.2800  151.5380 C   0  0  0  0  0  0  0  0  0  0  0  0
  159.4550  212.2210  154.1590 C   0  0  0  0  0  0  0  0  0  0  0  0
  159.8200  207.9490  156.6170 C   0  0  0  0  0  3  0  0  0  0  0  0
  161.2570  209.3490  151.8570 C   0  0  0  0  0  0  0  0  0  0  0  0
  160.3390  209.3460  156.5030 C   0  0  0  0  0  2  0  0  0  0  0  0
  160.5240  209.4420  154.0010 C   0  0  0  0  0  0  0  0  0  0  0  0
  160.8020  207.0380  154.4860 C   0  0  0  0  0  2  0  0  0  0  0  0
  160.0810  206.9530  155.7710 C   0  0  0  0  0  3  0  0  0  0  0  0
  161.9570  208.0160  150.2510 C   0  0  0  0  0  3  0  0  0  0  0  0
  161.4320  208.1500  152.4310 C   0  0  0  0  0  0  0  0  0  0  0  0
  159.5610  211.3390  155.2490 C   0  0  0  0  0  3  0  0  0  0  0  0
  161.5810  209.2930  150.4430 C   0  0  0  0  0  3  0  0  0  0  0  0
  160.9730  208.1370  153.7450 C   0  0  0  0  0  0  0  0  0  0  0  0
  160.0600  210.0160  155.1970 C   0  0  0  0  0  0  0  0  0  0  0  0
  160.6700  210.1910  152.7610 C   0  0  2  0  0  3  0  0  0  0  0  0
  160.0800  211.7550  152.6460 S   0  0  0  0  0  0  0  0  0  0  0  0
  163.3510  205.4950  152.0110 O   0  0  0  0  0  1  0  0  0  0  0  0
  162.0190  205.8050  151.7370 C   0  0  2  0  0  3  0  0  0  0  0  0
  161.0320  204.5510  148.5160 C   0  0  0  0  0  3  0  0  0  0  0  0
  161.2060  203.7190  150.4940 C   0  0  0  0  0  0  0  0  0  0  0  0
  161.2060  202.7580  151.6360 C   0  0  0  0  0  1  0  0  0  0  0  0
  160.4450  202.1330  148.7090 C   0  0  0  0  0  1  0  0  0  0  0  0
  161.4550  205.5750  149.2930 N   0  0  0  0  0  0  0  0  0  0  0  0
  160.8760  203.4190  149.2300 N   0  0  0  0  0  0  0  0  0  0  0  0
  161.5560  205.0480  150.5320 C   0  0  0  0  0  0  0  0  0  0  0  0
  158.9080  213.5910  154.3530 C   0  0  0  0  0  2  0  0  0  0  0  0
  157.4620  213.5270  154.4880 N   0  0  0  0  0  2  0  0  0  0  0  0
  156.5900  213.7250  153.3760 C   0  0  0  0  0  0  0  0  0  0  0  0
  155.2160  213.6520  153.5600 O   0  0  0  0  0  1  0  0  0  0  0  0
  157.0550  213.9640  152.2300 O   0  0  0  0  0  0  0  0  0  0  0  0
  1 18  1  0  0  0  0
  1 10  1  0  0  0  0
  2 26  1  0  0  0  0
  2 11  2  0  0  0  0
  4 10  1  0  0  0  0
  5  3  1  0  0  0  0
  6 14  2  0  0  0  0
  7  8  1  0  0  0  0
  8  3  2  0  0  0  0
  9 12  1  0  0  0  0
  9  1  2  0  0  0  0
 10 13  2  0  0  0  0
 12  4  2  0  0  0  0
 13  6  1  0  0  0  0
 13  7  1  0  0  0  0
 14 11  1  0  0  0  0
 14  5  1  0  0  0  0
 15  4  1  6  0  0  0
 15  6  1  0  0  0  0
 16 15  1  0  0  0  0
 16  2  1  0  0  0  0
 18 17  1  6  0  0  0
 19 24  1  0  0  0  0
 19 23  2  0  0  0  0
 20 25  2  0  0  0  0
 20 21  1  0  0  0  0
 22 24  1  0  0  0  0
 23 25  1  0  0  0  0
 24 20  1  0  0  0  0
 25 18  1  0  0  0  0
 26 27  1  0  0  0  0
 28 29  1  0  0  0  0
 28 27  1  0  0  0  0
 30 28  2  0  0  0  0
M  END
>  <MODEL>
9

>  <REMARK>
 VINA RESULT:      -8.2      3.268      8.221
  Name = 
  4 active torsions:
  status: ('A' for Active; 'I' for Inactive)
    1  A    between atoms: C_2  and  C_26
    2  A    between atoms: C_3  and  C_9
    3  A    between atoms: C_9  and  N_11
    4  A    between atoms: C_26  and  C_30
                            x       y       z     vdW  Elec       q    Type
                         _______ _______ _______ _____ _____    ______ ____

>  <TORSDO>
F 4

$$$$
