=
 OpenBabel11042420353D

 49 53  0  0  1  0  0  0  0  0999 V2000
  160.7140  209.1000  152.6260 C   0  0  0  0  0  2  0  0  0  0  0  0
  161.9410  207.5780  150.6290 C   0  0  2  0  0  3  0  0  0  0  0  0
  161.5730  211.9440  150.1770 C   0  0  1  0  0  3  0  0  0  0  0  0
  162.3080  207.1610  152.0600 C   0  0  0  0  0  2  0  0  0  0  0  0
  162.1240  209.0980  150.4820 C   0  0  1  0  0  3  0  0  0  0  0  0
  161.4840  207.8760  153.1480 C   0  0  2  0  0  3  0  0  0  0  0  0
  161.6950  209.6110  149.1040 C   0  0  0  0  0  2  0  0  0  0  0  0
  161.5620  209.9320  151.6680 C   0  0  1  0  0  3  0  0  0  0  0  0
  160.7710  211.1540  151.2080 C   0  0  0  0  0  2  0  0  0  0  0  0
  161.9880  211.1040  148.9590 C   0  0  0  0  0  2  0  0  0  0  0  0
  160.7930  213.1240  149.7250 C   0  0  0  0  0  3  0  0  0  0  0  0
  160.6100  213.6590  147.1750 C   0  0  0  0  0  0  0  0  0  0  0  0
  157.5250  214.0010  144.9820 C   0  0  0  0  0  1  0  0  0  0  0  0
  160.7030  213.3950  148.4540 C   0  0  0  0  0  0  0  0  0  0  0  0
  159.7840  213.0920  144.4790 C   0  0  0  0  0  2  0  0  0  0  0  0
  162.6480  212.4450  146.8060 O   0  0  0  0  0  1  0  0  0  0  0  0
  161.6700  213.2280  146.1870 C   0  0  1  0  0  0  0  0  0  0  0  0
  161.0210  212.4050  145.0670 C   0  0  0  0  0  2  0  0  0  0  0  0
  159.3430  214.2590  146.6500 C   0  0  0  0  0  2  0  0  0  0  0  0
  158.7540  213.3500  145.5770 C   0  0  1  0  0  3  0  0  0  0  0  0
  162.3430  214.4520  145.5950 C   0  0  0  0  0  1  0  0  0  0  0  0
  160.5640  206.9190  153.7450 N   0  0  0  0  0  2  0  0  0  0  0  0
  158.9540  207.1660  155.8260 O   0  0  0  0  0  0  0  0  0  0  0  0
  161.1580  206.1820  156.1960 O   0  0  0  0  0  0  0  0  0  0  0  0
  160.4030  207.2370  155.4400 S   0  0  0  0  0  0  0  0  0  0  0  0
  161.0450  208.8520  155.8550 C   0  0  0  0  0  2  0  0  0  0  0  0
  160.1380  211.1850  155.5110 C   0  0  0  0  0  0  0  0  0  0  0  0
  159.9610  209.8220  155.9100 N   0  0  0  0  0  2  0  0  0  0  0  0
  161.2120  211.5600  154.9670 O   0  0  0  0  0  0  0  0  0  0  0  0
  159.0400  212.1700  155.7260 C   0  0  0  0  0  2  0  0  0  0  0  0
  157.4080  213.2740  154.3840 C   0  0  0  0  0  2  0  0  0  0  0  0
  157.9790  211.9680  154.7430 N   0  0  0  0  0  0  0  0  0  0  0  0
  156.5110  213.8230  155.5010 C   0  0  0  0  0  2  0  0  0  0  0  0
  156.9550  211.0720  155.3010 C   0  0  0  0  0  2  0  0  0  0  0  0
  155.4820  212.9100  155.7750 O   0  0  0  0  0  0  0  0  0  0  0  0
  156.0940  211.7850  156.3500 C   0  0  0  0  0  2  0  0  0  0  0  0
  160.5220  207.1260  150.2680 C   0  0  0  0  0  2  0  0  0  0  0  0
  160.5280  205.7850  149.5480 C   0  0  0  0  0  2  0  0  0  0  0  0
  161.0740  205.9180  148.1610 C   0  0  0  0  0  0  0  0  0  0  0  0
  160.8020  206.9080  147.4970 O   0  0  0  0  0  0  0  0  0  0  0  0
  161.4730  203.7040  145.4520 C   0  0  0  0  0  3  0  0  0  0  0  0
  161.9870  204.8590  147.6150 C   0  0  1  0  0  3  0  0  0  0  0  0
  161.7800  203.5030  148.3100 C   0  0  0  0  0  2  0  0  0  0  0  0
  161.8830  204.7980  146.1090 C   0  0  0  0  0  3  0  0  0  0  0  0
  160.7110  202.6780  147.6010 C   0  0  0  0  0  2  0  0  0  0  0  0
  161.1610  202.4160  146.1690 C   0  0  1  0  0  3  0  0  0  0  0  0
  160.0940  201.6320  145.4190 C   0  0  0  0  0  2  0  0  0  0  0  0
  160.6080  200.4000  145.0160 O   0  0  0  0  0  0  0  0  0  0  0  0
  161.0350  199.7940  146.1990 C   0  0  0  0  0  1  0  0  0  0  0  0
  1  6  1  0  0  0  0
  2 37  1  1  0  0  0
  2  4  1  0  0  0  0
  3 11  1  6  0  0  0
  3  9  1  0  0  0  0
  4  6  1  0  0  0  0
  5  7  1  6  0  0  0
  5  2  1  0  0  0  0
  5  8  1  0  0  0  0
  6 22  1  6  0  0  0
  8  9  1  6  0  0  0
  8  1  1  0  0  0  0
 10  7  1  0  0  0  0
 10  3  1  0  0  0  0
 12 14  2  0  0  0  0
 14 11  2  0  0  0  0
 15 18  1  0  0  0  0
 15 20  1  0  0  0  0
 17 21  1  6  0  0  0
 17 16  1  0  0  0  0
 17 12  1  0  0  0  0
 18 17  1  0  0  0  0
 19 12  1  0  0  0  0
 20 13  1  6  0  0  0
 20 19  1  0  0  0  0
 22 25  1  0  0  0  0
 25 23  2  0  0  0  0
 25 26  1  0  0  0  0
 25 24  2  0  0  0  0
 26 28  1  0  0  0  0
 27 30  1  0  0  0  0
 27 28  1  0  0  0  0
 29 27  2  0  0  0  0
 31 32  1  0  0  0  0
 31 33  1  0  0  0  0
 32 34  1  0  0  0  0
 32 30  1  0  0  0  0
 33 35  1  0  0  0  0
 34 36  1  0  0  0  0
 35 36  1  0  0  0  0
 38 37  1  0  0  0  0
 39 38  1  0  0  0  0
 40 39  2  0  0  0  0
 41 44  2  0  0  0  0
 41 46  1  0  0  0  0
 42 39  1  1  0  0  0
 42 43  1  0  0  0  0
 44 42  1  0  0  0  0
 45 43  1  0  0  0  0
 46 47  1  6  0  0  0
 46 45  1  0  0  0  0
 48 47  1  0  0  0  0
 48 49  1  0  0  0  0
M  END
>  <MODEL>
1

>  <REMARK>
 VINA RESULT:      -6.3      0.000      0.000
  Name = 
  13 active torsions:
  status: ('A' for Active; 'I' for Inactive)
    1  A    between atoms: C_1  and  C_13
    2  A    between atoms: C_2  and  C_32
    3  A    between atoms: N_4  and  C_32
    4  A    between atoms: N_7  and  C_35
    5  A    between atoms: C_8  and  C_43
    6  A    between atoms: C_16  and  C_41
    7  A    between atoms: C_16  and  C_43
    8  A    between atoms: N_21  and  C_22
    9  A    between atoms: N_21  and  S_38
   10  A    between atoms: C_26  and  O_31
   11  A    between atoms: C_26  and  C_46
   12  A    between atoms: C_28  and  C_41
   13  A    between atoms: C_35  and  S_38
                            x       y       z     vdW  Elec       q    Type
                         _______ _______ _______ _____ _____    ______ ____

>  <TORSDO>
F 13

$$$$
=
 OpenBabel11042420353D

 49 53  0  0  1  0  0  0  0  0999 V2000
  160.6890  209.0050  153.4790 C   0  0  0  0  0  2  0  0  0  0  0  0
  162.1270  207.5900  151.5450 C   0  0  2  0  0  3  0  0  0  0  0  0
  161.2580  211.8700  150.9700 C   0  0  1  0  0  3  0  0  0  0  0  0
  162.5110  207.2540  152.9920 C   0  0  0  0  0  2  0  0  0  0  0  0
  162.1340  209.1180  151.3610 C   0  0  1  0  0  3  0  0  0  0  0  0
  161.5880  207.8940  154.0460 C   0  0  2  0  0  3  0  0  0  0  0  0
  161.6750  209.5430  149.9620 C   0  0  0  0  0  2  0  0  0  0  0  0
  161.4530  209.9080  152.5140 C   0  0  1  0  0  3  0  0  0  0  0  0
  160.5340  211.0170  152.0080 C   0  0  0  0  0  2  0  0  0  0  0  0
  161.7940  211.0560  149.7830 C   0  0  0  0  0  2  0  0  0  0  0  0
  160.3550  212.9390  150.4740 C   0  0  0  0  0  3  0  0  0  0  0  0
  160.2100  213.4300  147.9130 C   0  0  0  0  0  0  0  0  0  0  0  0
  157.2000  213.3630  145.5940 C   0  0  0  0  0  1  0  0  0  0  0  0
  160.2830  213.1880  149.1980 C   0  0  0  0  0  0  0  0  0  0  0  0
  159.5750  212.7450  145.1930 C   0  0  0  0  0  2  0  0  0  0  0  0
  162.3990  212.4810  147.6400 O   0  0  0  0  0  1  0  0  0  0  0  0
  161.3570  213.1300  146.9730 C   0  0  1  0  0  0  0  0  0  0  0  0
  160.8630  212.2240  145.8380 C   0  0  0  0  0  2  0  0  0  0  0  0
  158.9010  213.8610  147.3300 C   0  0  0  0  0  2  0  0  0  0  0  0
  158.4760  212.8780  146.2460 C   0  0  1  0  0  3  0  0  0  0  0  0
  161.8930  214.4260  146.3940 C   0  0  0  0  0  1  0  0  0  0  0  0
  160.7740  206.8490  154.6530 N   0  0  0  0  0  2  0  0  0  0  0  0
  158.6290  207.3060  156.1280 O   0  0  0  0  0  0  0  0  0  0  0  0
  160.6500  206.5280  157.2570 O   0  0  0  0  0  0  0  0  0  0  0  0
  160.1270  207.4080  156.1590 S   0  0  0  0  0  0  0  0  0  0  0  0
  160.5950  209.1040  156.4710 C   0  0  0  0  0  2  0  0  0  0  0  0
  159.5440  211.3360  155.9240 C   0  0  0  0  0  0  0  0  0  0  0  0
  159.4340  209.9740  156.3510 N   0  0  0  0  0  2  0  0  0  0  0  0
  160.6440  211.7900  155.5050 O   0  0  0  0  0  0  0  0  0  0  0  0
  158.3470  212.2240  155.9610 C   0  0  0  0  0  2  0  0  0  0  0  0
  157.7660  213.0300  153.7950 C   0  0  0  0  0  2  0  0  0  0  0  0
  157.5040  211.9840  154.7940 N   0  0  0  0  0  0  0  0  0  0  0  0
  157.1310  214.3670  154.2000 C   0  0  0  0  0  2  0  0  0  0  0  0
  156.0900  211.9760  155.2020 C   0  0  0  0  0  2  0  0  0  0  0  0
  155.7490  214.2040  154.3710 O   0  0  0  0  0  0  0  0  0  0  0  0
  155.5830  213.3910  155.5020 C   0  0  0  0  0  2  0  0  0  0  0  0
  160.7790  206.9650  151.1710 C   0  0  0  0  0  2  0  0  0  0  0  0
  160.6470  205.5510  151.7150 C   0  0  0  0  0  2  0  0  0  0  0  0
  161.1300  204.5410  150.7220 C   0  0  0  0  0  0  0  0  0  0  0  0
  162.0450  203.7870  151.0230 O   0  0  0  0  0  0  0  0  0  0  0  0
  161.6560  203.4450  147.4180 C   0  0  0  0  0  3  0  0  0  0  0  0
  160.4570  204.4300  149.3850 C   0  0  1  0  0  3  0  0  0  0  0  0
  160.4530  205.7680  148.6270 C   0  0  0  0  0  2  0  0  0  0  0  0
  161.0380  203.2800  148.5960 C   0  0  0  0  0  3  0  0  0  0  0  0
  161.7060  205.9200  147.7710 C   0  0  0  0  0  2  0  0  0  0  0  0
  161.7420  204.7920  146.7480 C   0  0  1  0  0  3  0  0  0  0  0  0
  163.0070  204.8880  145.9060 C   0  0  0  0  0  2  0  0  0  0  0  0
  162.7050  205.4430  144.6620 O   0  0  0  0  0  0  0  0  0  0  0  0
  161.3150  205.3570  144.5670 C   0  0  0  0  0  1  0  0  0  0  0  0
  1  6  1  0  0  0  0
  2 37  1  1  0  0  0
  2  4  1  0  0  0  0
  3 11  1  6  0  0  0
  3  9  1  0  0  0  0
  4  6  1  0  0  0  0
  5  7  1  6  0  0  0
  5  2  1  0  0  0  0
  5  8  1  0  0  0  0
  6 22  1  6  0  0  0
  8  9  1  6  0  0  0
  8  1  1  0  0  0  0
 10  7  1  0  0  0  0
 10  3  1  0  0  0  0
 12 14  2  0  0  0  0
 14 11  2  0  0  0  0
 15 18  1  0  0  0  0
 15 20  1  0  0  0  0
 17 21  1  6  0  0  0
 17 16  1  0  0  0  0
 17 12  1  0  0  0  0
 18 17  1  0  0  0  0
 19 12  1  0  0  0  0
 20 13  1  6  0  0  0
 20 19  1  0  0  0  0
 22 25  1  0  0  0  0
 23 25  2  0  0  0  0
 25 26  1  0  0  0  0
 25 24  2  0  0  0  0
 27 30  1  0  0  0  0
 27 28  1  0  0  0  0
 28 26  1  0  0  0  0
 29 27  2  0  0  0  0
 31 33  1  0  0  0  0
 31 32  1  0  0  0  0
 32 34  1  0  0  0  0
 32 30  1  0  0  0  0
 33 35  1  0  0  0  0
 34 36  1  0  0  0  0
 35 36  1  0  0  0  0
 37 38  1  0  0  0  0
 39 40  2  0  0  0  0
 39 38  1  0  0  0  0
 41 44  2  0  0  0  0
 42 39  1  1  0  0  0
 43 42  1  0  0  0  0
 44 42  1  0  0  0  0
 45 43  1  0  0  0  0
 46 47  1  1  0  0  0
 46 41  1  0  0  0  0
 46 45  1  0  0  0  0
 48 47  1  0  0  0  0
 49 48  1  0  0  0  0
M  END
>  <MODEL>
2

>  <REMARK>
 VINA RESULT:      -6.1      1.498      2.014
  Name = 
  13 active torsions:
  status: ('A' for Active; 'I' for Inactive)
    1  A    between atoms: C_1  and  C_13
    2  A    between atoms: C_2  and  C_32
    3  A    between atoms: N_4  and  C_32
    4  A    between atoms: N_7  and  C_35
    5  A    between atoms: C_8  and  C_43
    6  A    between atoms: C_16  and  C_41
    7  A    between atoms: C_16  and  C_43
    8  A    between atoms: N_21  and  C_22
    9  A    between atoms: N_21  and  S_38
   10  A    between atoms: C_26  and  O_31
   11  A    between atoms: C_26  and  C_46
   12  A    between atoms: C_28  and  C_41
   13  A    between atoms: C_35  and  S_38
                            x       y       z     vdW  Elec       q    Type
                         _______ _______ _______ _____ _____    ______ ____

>  <TORSDO>
F 13

$$$$
=
 OpenBabel11042420353D

 49 53  0  0  1  0  0  0  0  0999 V2000
  160.8600  207.9150  152.4750 C   0  0  0  0  0  2  0  0  0  0  0  0
  162.2660  205.5590  151.9440 C   0  0  2  0  0  3  0  0  0  0  0  0
  161.9880  208.7120  148.8800 C   0  0  1  0  0  3  0  0  0  0  0  0
  162.4840  206.1230  153.3550 C   0  0  0  0  0  2  0  0  0  0  0  0
  162.4780  206.6800  150.9120 C   0  0  1  0  0  3  0  0  0  0  0  0
  161.5630  207.3080  153.7010 C   0  0  2  0  0  3  0  0  0  0  0  0
  162.1940  206.2200  149.4790 C   0  0  0  0  0  2  0  0  0  0  0  0
  161.8080  208.0330  151.2840 C   0  0  1  0  0  3  0  0  0  0  0  0
  161.0790  208.6740  150.1060 C   0  0  0  0  0  2  0  0  0  0  0  0
  162.5150  207.3270  148.4750 C   0  0  0  0  0  2  0  0  0  0  0  0
  161.2690  209.3260  147.7360 C   0  0  0  0  0  3  0  0  0  0  0  0
  161.2930  211.9200  147.4290 C   0  0  0  0  0  0  0  0  0  0  0  0
  162.4830  214.0050  144.4830 C   0  0  0  0  0  1  0  0  0  0  0  0
  161.2760  210.6190  147.5820 C   0  0  0  0  0  0  0  0  0  0  0  0
  162.5850  214.4400  146.9290 C   0  0  0  0  0  2  0  0  0  0  0  0
  161.7320  212.1610  149.7780 O   0  0  0  0  0  1  0  0  0  0  0  0
  161.4780  212.8630  148.5960 C   0  0  1  0  0  0  0  0  0  0  0  0
  162.6630  213.7960  148.3170 C   0  0  0  0  0  2  0  0  0  0  0  0
  161.2950  212.4850  146.0440 C   0  0  0  0  0  2  0  0  0  0  0  0
  162.5290  213.3590  145.8500 C   0  0  1  0  0  3  0  0  0  0  0  0
  160.2180  213.6850  148.7910 C   0  0  0  0  0  1  0  0  0  0  0  0
  160.5780  206.8670  154.6790 N   0  0  0  0  0  2  0  0  0  0  0  0
  158.9790  208.3710  156.1500 O   0  0  0  0  0  0  0  0  0  0  0  0
  160.9880  207.4660  157.2030 O   0  0  0  0  0  0  0  0  0  0  0  0
  160.4290  208.0480  155.9370 S   0  0  0  0  0  0  0  0  0  0  0  0
  161.3110  209.5450  155.5210 C   0  0  0  0  0  2  0  0  0  0  0  0
  159.7790  211.4170  154.7910 C   0  0  0  0  0  0  0  0  0  0  0  0
  160.4870  210.7090  155.8140 N   0  0  0  0  0  2  0  0  0  0  0  0
  159.7380  210.9700  153.6130 O   0  0  0  0  0  0  0  0  0  0  0  0
  159.0710  212.6860  155.1220 C   0  0  0  0  0  2  0  0  0  0  0  0
  157.4050  214.2330  154.4040 C   0  0  0  0  0  2  0  0  0  0  0  0
  157.9140  212.8620  154.2490 N   0  0  0  0  0  0  0  0  0  0  0  0
  156.6540  214.4090  155.7300 C   0  0  0  0  0  2  0  0  0  0  0  0
  156.8840  211.8680  154.5900 C   0  0  0  0  0  2  0  0  0  0  0  0
  155.5930  213.4940  155.8000 O   0  0  0  0  0  0  0  0  0  0  0  0
  156.1740  212.2210  155.9020 C   0  0  0  0  0  2  0  0  0  0  0  0
  160.8860  204.9040  151.8170 C   0  0  0  0  0  2  0  0  0  0  0  0
  160.8590  203.5260  152.4610 C   0  0  0  0  0  2  0  0  0  0  0  0
  161.3500  202.4760  151.5140 C   0  0  0  0  0  0  0  0  0  0  0  0
  162.4700  202.0060  151.6610 O   0  0  0  0  0  0  0  0  0  0  0  0
  161.3930  201.0550  148.2930 C   0  0  0  0  0  3  0  0  0  0  0  0
  160.4490  201.9760  150.4240 C   0  0  1  0  0  3  0  0  0  0  0  0
  159.8600  203.1250  149.5870 C   0  0  0  0  0  2  0  0  0  0  0  0
  161.1490  200.9170  149.6040 C   0  0  0  0  0  3  0  0  0  0  0  0
  160.7700  203.4740  148.4140 C   0  0  0  0  0  2  0  0  0  0  0  0
  160.9060  202.2510  147.5160 C   0  0  1  0  0  3  0  0  0  0  0  0
  161.8460  202.5530  146.3580 C   0  0  0  0  0  2  0  0  0  0  0  0
  161.8400  203.9210  146.0880 O   0  0  0  0  0  0  0  0  0  0  0  0
  161.0060  204.0560  144.9770 C   0  0  0  0  0  1  0  0  0  0  0  0
  1  6  1  0  0  0  0
  2 37  1  1  0  0  0
  2  4  1  0  0  0  0
  3 11  1  6  0  0  0
  3  9  1  0  0  0  0
  4  6  1  0  0  0  0
  5  7  1  6  0  0  0
  5  8  1  0  0  0  0
  5  2  1  0  0  0  0
  6 22  1  1  0  0  0
  8  9  1  6  0  0  0
  8  1  1  0  0  0  0
 10  3  1  0  0  0  0
 10  7  1  0  0  0  0
 12 14  2  0  0  0  0
 12 17  1  0  0  0  0
 14 11  2  0  0  0  0
 15 18  1  0  0  0  0
 17 21  1  1  0  0  0
 17 16  1  0  0  0  0
 18 17  1  0  0  0  0
 19 12  1  0  0  0  0
 20 13  1  6  0  0  0
 20 19  1  0  0  0  0
 20 15  1  0  0  0  0
 22 25  1  0  0  0  0
 25 23  2  0  0  0  0
 25 24  2  0  0  0  0
 26 28  1  0  0  0  0
 26 25  1  0  0  0  0
 27 30  1  0  0  0  0
 27 28  1  0  0  0  0
 29 27  2  0  0  0  0
 31 33  1  0  0  0  0
 32 31  1  0  0  0  0
 32 34  1  0  0  0  0
 32 30  1  0  0  0  0
 33 35  1  0  0  0  0
 34 36  1  0  0  0  0
 35 36  1  0  0  0  0
 37 38  1  0  0  0  0
 39 40  2  0  0  0  0
 39 38  1  0  0  0  0
 41 44  2  0  0  0  0
 42 39  1  1  0  0  0
 43 42  1  0  0  0  0
 44 42  1  0  0  0  0
 45 43  1  0  0  0  0
 46 47  1  6  0  0  0
 46 41  1  0  0  0  0
 46 45  1  0  0  0  0
 48 47  1  0  0  0  0
 49 48  1  0  0  0  0
M  END
>  <MODEL>
3

>  <REMARK>
 VINA RESULT:      -5.9      1.882      2.936
  Name = 
  13 active torsions:
  status: ('A' for Active; 'I' for Inactive)
    1  A    between atoms: C_1  and  C_13
    2  A    between atoms: C_2  and  C_32
    3  A    between atoms: N_4  and  C_32
    4  A    between atoms: N_7  and  C_35
    5  A    between atoms: C_8  and  C_43
    6  A    between atoms: C_16  and  C_41
    7  A    between atoms: C_16  and  C_43
    8  A    between atoms: N_21  and  C_22
    9  A    between atoms: N_21  and  S_38
   10  A    between atoms: C_26  and  O_31
   11  A    between atoms: C_26  and  C_46
   12  A    between atoms: C_28  and  C_41
   13  A    between atoms: C_35  and  S_38
                            x       y       z     vdW  Elec       q    Type
                         _______ _______ _______ _____ _____    ______ ____

>  <TORSDO>
F 13

$$$$
=
 OpenBabel11042420353D

 49 53  0  0  1  0  0  0  0  0999 V2000
  161.3830  209.3350  150.2160 C   0  0  0  0  0  2  0  0  0  0  0  0
  161.7920  209.6350  152.9650 C   0  0  2  0  0  3  0  0  0  0  0  0
  161.4190  205.6140  151.2050 C   0  0  1  0  0  3  0  0  0  0  0  0
  162.6220  210.5870  152.0930 C   0  0  0  0  0  2  0  0  0  0  0  0
  161.9580  208.1970  152.4440 C   0  0  1  0  0  3  0  0  0  0  0  0
  162.2510  210.5460  150.5980 C   0  0  2  0  0  3  0  0  0  0  0  0
  161.0910  207.1920  153.2080 C   0  0  0  0  0  2  0  0  0  0  0  0
  161.8690  208.0580  150.8980 C   0  0  1  0  0  3  0  0  0  0  0  0
  161.0040  206.8790  150.4590 C   0  0  0  0  0  2  0  0  0  0  0  0
  161.3600  205.7640  152.7330 C   0  0  0  0  0  2  0  0  0  0  0  0
  160.5670  204.4740  150.7830 C   0  0  0  0  0  3  0  0  0  0  0  0
  160.7490  203.5510  148.3470 C   0  0  0  0  0  0  0  0  0  0  0  0
  161.5790  200.0460  147.1340 C   0  0  0  0  0  1  0  0  0  0  0  0
  160.6530  204.0140  149.5680 C   0  0  0  0  0  0  0  0  0  0  0  0
  162.1350  202.2720  146.1760 C   0  0  0  0  0  2  0  0  0  0  0  0
  161.6020  205.6800  147.6370 O   0  0  0  0  0  1  0  0  0  0  0  0
  161.2070  204.4150  147.1940 C   0  0  1  0  0  0  0  0  0  0  0  0
  162.3980  203.7470  146.4960 C   0  0  0  0  0  2  0  0  0  0  0  0
  160.5580  202.0850  148.1110 C   0  0  0  0  0  2  0  0  0  0  0  0
  161.8070  201.5070  147.4570 C   0  0  1  0  0  3  0  0  0  0  0  0
  160.0690  204.5900  146.2050 C   0  0  0  0  0  1  0  0  0  0  0  0
  161.5680  211.7840  150.2490 N   0  0  0  0  0  2  0  0  0  0  0  0
  162.3400  213.7210  148.6260 O   0  0  0  0  0  0  0  0  0  0  0  0
  163.2060  211.4740  148.2200 O   0  0  0  0  0  0  0  0  0  0  0  0
  161.9980  212.2600  148.6410 S   0  0  0  0  0  0  0  0  0  0  0  0
  160.6560  211.9570  147.5010 C   0  0  0  0  0  2  0  0  0  0  0  0
  159.9550  212.6460  145.1720 C   0  0  0  0  0  0  0  0  0  0  0  0
  160.9180  212.6210  146.2320 N   0  0  0  0  0  2  0  0  0  0  0  0
  158.7890  212.2040  145.3560 O   0  0  0  0  0  0  0  0  0  0  0  0
  160.3290  213.2100  143.8440 C   0  0  0  0  0  2  0  0  0  0  0  0
  162.3400  212.5730  142.7350 C   0  0  0  0  0  2  0  0  0  0  0  0
  160.9510  212.1820  143.0150 N   0  0  0  0  0  0  0  0  0  0  0  0
  162.4100  213.7020  141.6990 C   0  0  0  0  0  2  0  0  0  0  0  0
  160.1800  212.0200  141.7720 C   0  0  0  0  0  2  0  0  0  0  0  0
  161.7780  213.2980  140.5130 O   0  0  0  0  0  0  0  0  0  0  0  0
  160.4110  213.1910  140.8100 C   0  0  0  0  0  2  0  0  0  0  0  0
  160.3230  210.0700  153.0150 C   0  0  0  0  0  2  0  0  0  0  0  0
  159.7460  209.9310  154.4160 C   0  0  0  0  0  2  0  0  0  0  0  0
  160.0050  211.1580  155.2330 C   0  0  0  0  0  0  0  0  0  0  0  0
  161.1550  211.4670  155.5100 O   0  0  0  0  0  0  0  0  0  0  0  0
  156.8250  212.2800  154.2200 C   0  0  0  0  0  3  0  0  0  0  0  0
  158.8560  212.0220  155.6630 C   0  0  1  0  0  3  0  0  0  0  0  0
  159.1340  213.5160  155.4210 C   0  0  0  0  0  2  0  0  0  0  0  0
  157.5660  211.5320  155.0490 C   0  0  0  0  0  3  0  0  0  0  0  0
  158.6840  213.9410  154.0280 C   0  0  0  0  0  2  0  0  0  0  0  0
  157.1830  213.7090  153.9040 C   0  0  1  0  0  3  0  0  0  0  0  0
  156.7080  214.0810  152.5070 C   0  0  0  0  0  2  0  0  0  0  0  0
  157.8010  214.1730  151.6450 O   0  0  0  0  0  0  0  0  0  0  0  0
  157.3020  213.7780  150.4020 C   0  0  0  0  0  1  0  0  0  0  0  0
  1  6  1  0  0  0  0
  2 37  1  6  0  0  0
  3 11  1  6  0  0  0
  3 10  1  0  0  0  0
  4  2  1  0  0  0  0
  5  2  1  0  0  0  0
  5  7  1  1  0  0  0
  6 22  1  1  0  0  0
  6  4  1  0  0  0  0
  8  1  1  6  0  0  0
  8  5  1  0  0  0  0
  9  8  1  0  0  0  0
  9  3  1  0  0  0  0
 10  7  1  0  0  0  0
 12 14  2  0  0  0  0
 14 11  2  0  0  0  0
 15 18  1  0  0  0  0
 15 20  1  0  0  0  0
 17 21  1  6  0  0  0
 17 16  1  0  0  0  0
 17 12  1  0  0  0  0
 18 17  1  0  0  0  0
 19 12  1  0  0  0  0
 20 13  1  6  0  0  0
 20 19  1  0  0  0  0
 23 25  2  0  0  0  0
 24 25  2  0  0  0  0
 25 22  1  0  0  0  0
 26 25  1  0  0  0  0
 27 29  2  0  0  0  0
 27 28  1  0  0  0  0
 28 26  1  0  0  0  0
 30 27  1  0  0  0  0
 31 32  1  0  0  0  0
 32 30  1  0  0  0  0
 33 31  1  0  0  0  0
 34 32  1  0  0  0  0
 35 36  1  0  0  0  0
 35 33  1  0  0  0  0
 36 34  1  0  0  0  0
 37 38  1  0  0  0  0
 38 39  1  0  0  0  0
 39 40  2  0  0  0  0
 41 44  2  0  0  0  0
 42 39  1  6  0  0  0
 43 42  1  0  0  0  0
 44 42  1  0  0  0  0
 45 43  1  0  0  0  0
 46 47  1  6  0  0  0
 46 45  1  0  0  0  0
 46 41  1  0  0  0  0
 48 47  1  0  0  0  0
 49 48  1  0  0  0  0
M  END
>  <MODEL>
4

>  <REMARK>
 VINA RESULT:      -5.6      3.307     10.488
  Name = 
  13 active torsions:
  status: ('A' for Active; 'I' for Inactive)
    1  A    between atoms: C_1  and  C_13
    2  A    between atoms: C_2  and  C_32
    3  A    between atoms: N_4  and  C_32
    4  A    between atoms: N_7  and  C_35
    5  A    between atoms: C_8  and  C_43
    6  A    between atoms: C_16  and  C_41
    7  A    between atoms: C_16  and  C_43
    8  A    between atoms: N_21  and  C_22
    9  A    between atoms: N_21  and  S_38
   10  A    between atoms: C_26  and  O_31
   11  A    between atoms: C_26  and  C_46
   12  A    between atoms: C_28  and  C_41
   13  A    between atoms: C_35  and  S_38
                            x       y       z     vdW  Elec       q    Type
                         _______ _______ _______ _____ _____    ______ ____

>  <TORSDO>
F 13

$$$$
=
 OpenBabel11042420353D

 49 53  0  0  1  0  0  0  0  0999 V2000
  161.4600  209.6900  149.5580 C   0  0  0  0  0  2  0  0  0  0  0  0
  161.8380  210.2070  152.2780 C   0  0  2  0  0  3  0  0  0  0  0  0
  161.4570  206.0600  150.8430 C   0  0  1  0  0  3  0  0  0  0  0  0
  162.6850  211.0810  151.3430 C   0  0  0  0  0  2  0  0  0  0  0  0
  162.0000  208.7300  151.8770 C   0  0  1  0  0  3  0  0  0  0  0  0
  162.3310  210.9220  149.8520 C   0  0  2  0  0  3  0  0  0  0  0  0
  161.1160  207.7960  152.7090 C   0  0  0  0  0  2  0  0  0  0  0  0
  161.9280  208.4690  150.3460 C   0  0  1  0  0  3  0  0  0  0  0  0
  161.0600  207.2640  149.9930 C   0  0  0  0  0  2  0  0  0  0  0  0
  161.3810  206.3330  152.3530 C   0  0  0  0  0  2  0  0  0  0  0  0
  160.6020  204.8950  150.5030 C   0  0  0  0  0  3  0  0  0  0  0  0
  160.7550  203.8220  148.1270 C   0  0  0  0  0  0  0  0  0  0  0  0
  161.5770  200.2490  147.1250 C   0  0  0  0  0  1  0  0  0  0  0  0
  160.6740  204.3600  149.3180 C   0  0  0  0  0  0  0  0  0  0  0  0
  162.1180  202.4120  146.0230 C   0  0  0  0  0  2  0  0  0  0  0  0
  161.5960  205.9040  147.2760 O   0  0  0  0  0  1  0  0  0  0  0  0
  161.1980  204.6130  146.9170 C   0  0  1  0  0  0  0  0  0  0  0  0
  162.3810  203.9040  146.2470 C   0  0  0  0  0  2  0  0  0  0  0  0
  160.5650  202.3440  147.9860 C   0  0  0  0  0  2  0  0  0  0  0  0
  161.8060  201.7270  147.3530 C   0  0  1  0  0  3  0  0  0  0  0  0
  160.0480  204.7250  145.9330 C   0  0  0  0  0  1  0  0  0  0  0  0
  161.6620  212.1320  149.3970 N   0  0  0  0  0  2  0  0  0  0  0  0
  163.0100  214.1110  148.2790 O   0  0  0  0  0  0  0  0  0  0  0  0
  163.5890  211.8270  147.6390 O   0  0  0  0  0  0  0  0  0  0  0  0
  162.4550  212.7480  147.9860 S   0  0  0  0  0  0  0  0  0  0  0  0
  161.3230  212.8560  146.6080 C   0  0  0  0  0  2  0  0  0  0  0  0
  161.4210  213.2260  144.1100 C   0  0  0  0  0  0  0  0  0  0  0  0
  162.0640  212.9470  145.3580 N   0  0  0  0  0  2  0  0  0  0  0  0
  160.1990  213.5370  144.0740 O   0  0  0  0  0  0  0  0  0  0  0  0
  162.2020  213.1610  142.8420 C   0  0  0  0  0  2  0  0  0  0  0  0
  161.1250  211.5880  141.4110 C   0  0  0  0  0  2  0  0  0  0  0  0
  161.3020  213.0180  141.7010 N   0  0  0  0  0  0  0  0  0  0  0  0
  162.3660  210.9920  140.7340 C   0  0  0  0  0  2  0  0  0  0  0  0
  161.8600  213.7340  140.5420 C   0  0  0  0  0  2  0  0  0  0  0  0
  162.6410  211.6900  139.5480 O   0  0  0  0  0  0  0  0  0  0  0  0
  163.0460  212.9780  139.9320 C   0  0  0  0  0  2  0  0  0  0  0  0
  160.3720  210.6530  152.2760 C   0  0  0  0  0  2  0  0  0  0  0  0
  160.2380  212.1370  152.5820 C   0  0  0  0  0  2  0  0  0  0  0  0
  158.8330  212.4880  152.9630 C   0  0  0  0  0  0  0  0  0  0  0  0
  157.9860  212.6200  152.0910 O   0  0  0  0  0  0  0  0  0  0  0  0
  160.1250  212.1040  156.2160 C   0  0  0  0  0  3  0  0  0  0  0  0
  158.4670  212.6260  154.4120 C   0  0  1  0  0  3  0  0  0  0  0  0
  157.6430  211.4300  154.9170 C   0  0  0  0  0  2  0  0  0  0  0  0
  159.6950  212.9180  155.2420 C   0  0  0  0  0  3  0  0  0  0  0  0
  158.5470  210.3230  155.4480 C   0  0  0  0  0  2  0  0  0  0  0  0
  159.3600  210.8690  156.6150 C   0  0  1  0  0  3  0  0  0  0  0  0
  160.3080  209.8000  157.1400 C   0  0  0  0  0  2  0  0  0  0  0  0
  161.0490  209.2660  156.0860 O   0  0  0  0  0  0  0  0  0  0  0  0
  161.5850  208.0840  156.5980 C   0  0  0  0  0  1  0  0  0  0  0  0
  1  6  1  0  0  0  0
  2 37  1  6  0  0  0
  3 11  1  1  0  0  0
  3 10  1  0  0  0  0
  4  2  1  0  0  0  0
  5  2  1  0  0  0  0
  5  7  1  1  0  0  0
  6 22  1  1  0  0  0
  6  4  1  0  0  0  0
  8  1  1  6  0  0  0
  8  5  1  0  0  0  0
  9  8  1  0  0  0  0
  9  3  1  0  0  0  0
 10  7  1  0  0  0  0
 12 14  2  0  0  0  0
 14 11  2  0  0  0  0
 15 18  1  0  0  0  0
 15 20  1  0  0  0  0
 17 21  1  6  0  0  0
 17 16  1  0  0  0  0
 17 12  1  0  0  0  0
 18 17  1  0  0  0  0
 19 12  1  0  0  0  0
 20 13  1  6  0  0  0
 20 19  1  0  0  0  0
 24 25  2  0  0  0  0
 25 23  2  0  0  0  0
 25 22  1  0  0  0  0
 26 25  1  0  0  0  0
 27 28  1  0  0  0  0
 28 26  1  0  0  0  0
 29 27  2  0  0  0  0
 30 27  1  0  0  0  0
 31 32  1  0  0  0  0
 32 30  1  0  0  0  0
 33 31  1  0  0  0  0
 34 32  1  0  0  0  0
 35 36  1  0  0  0  0
 35 33  1  0  0  0  0
 36 34  1  0  0  0  0
 37 38  1  0  0  0  0
 38 39  1  0  0  0  0
 40 39  2  0  0  0  0
 41 46  1  0  0  0  0
 42 39  1  6  0  0  0
 42 43  1  0  0  0  0
 42 44  1  0  0  0  0
 43 45  1  0  0  0  0
 44 41  2  0  0  0  0
 45 46  1  0  0  0  0
 46 47  1  6  0  0  0
 48 49  1  0  0  0  0
 48 47  1  0  0  0  0
M  END
>  <MODEL>
5

>  <REMARK>
 VINA RESULT:      -5.6      3.697     10.647
  Name = 
  13 active torsions:
  status: ('A' for Active; 'I' for Inactive)
    1  A    between atoms: C_1  and  C_13
    2  A    between atoms: C_2  and  C_32
    3  A    between atoms: N_4  and  C_32
    4  A    between atoms: N_7  and  C_35
    5  A    between atoms: C_8  and  C_43
    6  A    between atoms: C_16  and  C_41
    7  A    between atoms: C_16  and  C_43
    8  A    between atoms: N_21  and  C_22
    9  A    between atoms: N_21  and  S_38
   10  A    between atoms: C_26  and  O_31
   11  A    between atoms: C_26  and  C_46
   12  A    between atoms: C_28  and  C_41
   13  A    between atoms: C_35  and  S_38
                            x       y       z     vdW  Elec       q    Type
                         _______ _______ _______ _____ _____    ______ ____

>  <TORSDO>
F 13

$$$$
=
 OpenBabel11042420353D

 49 53  0  0  1  0  0  0  0  0999 V2000
  160.4970  209.8480  151.5060 C   0  0  0  0  0  2  0  0  0  0  0  0
  161.3930  209.6000  154.1410 C   0  0  2  0  0  3  0  0  0  0  0  0
  161.1880  206.0600  151.5280 C   0  0  1  0  0  3  0  0  0  0  0  0
  161.9120  210.8460  153.4100 C   0  0  0  0  0  2  0  0  0  0  0  0
  161.6320  208.3600  153.2620 C   0  0  1  0  0  3  0  0  0  0  0  0
  161.2650  211.0730  152.0300 C   0  0  2  0  0  3  0  0  0  0  0  0
  161.0620  207.0810  153.8840 C   0  0  0  0  0  2  0  0  0  0  0  0
  161.2610  208.5520  151.7650 C   0  0  1  0  0  3  0  0  0  0  0  0
  160.4810  207.3710  151.1930 C   0  0  0  0  0  2  0  0  0  0  0  0
  161.4090  205.8580  153.0350 C   0  0  0  0  0  2  0  0  0  0  0  0
  160.4180  204.9150  150.9800 C   0  0  0  0  0  3  0  0  0  0  0  0
  160.7290  204.2190  148.4820 C   0  0  0  0  0  0  0  0  0  0  0  0
  161.8030  200.8860  147.0050 C   0  0  0  0  0  1  0  0  0  0  0  0
  160.5680  204.5680  149.7340 C   0  0  0  0  0  0  0  0  0  0  0  0
  162.2550  203.2150  146.2610 C   0  0  0  0  0  2  0  0  0  0  0  0
  161.4760  206.4470  147.9870 O   0  0  0  0  0  1  0  0  0  0  0  0
  161.1700  205.2060  147.4240 C   0  0  1  0  0  0  0  0  0  0  0  0
  162.4190  204.6690  146.7140 C   0  0  0  0  0  2  0  0  0  0  0  0
  160.6330  202.7710  148.1150 C   0  0  0  0  0  2  0  0  0  0  0  0
  161.9330  202.3230  147.4590 C   0  0  1  0  0  3  0  0  0  0  0  0
  160.0550  205.4020  146.4130 C   0  0  0  0  0  1  0  0  0  0  0  0
  160.3790  212.2260  152.1110 N   0  0  0  0  0  2  0  0  0  0  0  0
  158.8850  212.9250  150.0470 O   0  0  0  0  0  0  0  0  0  0  0  0
  160.6560  214.4530  150.7480 O   0  0  0  0  0  0  0  0  0  0  0  0
  160.2900  213.0080  150.5690 S   0  0  0  0  0  0  0  0  0  0  0  0
  161.4000  212.2450  149.3950 C   0  0  0  0  0  2  0  0  0  0  0  0
  161.7090  213.4700  147.2070 C   0  0  0  0  0  0  0  0  0  0  0  0
  160.9820  212.5570  148.0370 N   0  0  0  0  0  2  0  0  0  0  0  0
  162.8190  213.9340  147.5840 O   0  0  0  0  0  0  0  0  0  0  0  0
  161.1580  213.8660  145.8800 C   0  0  0  0  0  2  0  0  0  0  0  0
  161.8240  212.9060  143.8020 C   0  0  0  0  0  2  0  0  0  0  0  0
  161.0240  212.6960  145.0180 N   0  0  0  0  0  0  0  0  0  0  0  0
  161.1510  213.9040  142.8510 C   0  0  0  0  0  2  0  0  0  0  0  0
  159.6040  212.4830  144.6940 C   0  0  0  0  0  2  0  0  0  0  0  0
  159.8710  213.4440  142.5080 O   0  0  0  0  0  0  0  0  0  0  0  0
  159.0990  213.5140  143.6770 C   0  0  0  0  0  2  0  0  0  0  0  0
  159.9200  209.7620  154.5310 C   0  0  0  0  0  2  0  0  0  0  0  0
  159.6920  209.4410  156.0010 C   0  0  0  0  0  2  0  0  0  0  0  0
  160.2850  210.4930  156.8840 C   0  0  0  0  0  0  0  0  0  0  0  0
  161.4440  210.3830  157.2610 O   0  0  0  0  0  0  0  0  0  0  0  0
  157.3670  212.2670  156.0250 C   0  0  0  0  0  3  0  0  0  0  0  0
  159.4710  211.6960  157.2610 C   0  0  1  0  0  3  0  0  0  0  0  0
  160.0710  212.9980  156.7040 C   0  0  0  0  0  2  0  0  0  0  0  0
  158.0200  211.4860  156.8980 C   0  0  0  0  0  3  0  0  0  0  0  0
  159.5290  213.3030  155.3120 C   0  0  0  0  0  2  0  0  0  0  0  0
  158.0170  213.4740  155.4000 C   0  0  1  0  0  3  0  0  0  0  0  0
  157.4370  213.7350  154.0170 C   0  0  0  0  0  2  0  0  0  0  0  0
  156.2330  214.4300  154.1320 O   0  0  0  0  0  0  0  0  0  0  0  0
  155.3400  213.7190  153.3290 C   0  0  0  0  0  1  0  0  0  0  0  0
  1  8  1  0  0  0  0
  1  6  1  0  0  0  0
  2 37  1  6  0  0  0
  3 11  1  1  0  0  0
  3 10  1  0  0  0  0
  4  2  1  0  0  0  0
  5  7  1  1  0  0  0
  5  2  1  0  0  0  0
  6 22  1  1  0  0  0
  6  4  1  0  0  0  0
  8  9  1  1  0  0  0
  8  5  1  0  0  0  0
  9  3  1  0  0  0  0
 10  7  1  0  0  0  0
 12 14  2  0  0  0  0
 14 11  2  0  0  0  0
 15 18  1  0  0  0  0
 15 20  1  0  0  0  0
 17 21  1  6  0  0  0
 17 16  1  0  0  0  0
 17 12  1  0  0  0  0
 18 17  1  0  0  0  0
 19 12  1  0  0  0  0
 20 13  1  6  0  0  0
 20 19  1  0  0  0  0
 23 25  2  0  0  0  0
 25 24  2  0  0  0  0
 25 22  1  0  0  0  0
 26 25  1  0  0  0  0
 27 29  2  0  0  0  0
 27 28  1  0  0  0  0
 28 26  1  0  0  0  0
 30 27  1  0  0  0  0
 31 32  1  0  0  0  0
 32 30  1  0  0  0  0
 33 31  1  0  0  0  0
 34 32  1  0  0  0  0
 35 33  1  0  0  0  0
 35 36  1  0  0  0  0
 36 34  1  0  0  0  0
 37 38  1  0  0  0  0
 38 39  1  0  0  0  0
 39 40  2  0  0  0  0
 41 44  2  0  0  0  0
 42 39  1  6  0  0  0
 43 42  1  0  0  0  0
 44 42  1  0  0  0  0
 45 46  1  0  0  0  0
 45 43  1  0  0  0  0
 46 47  1  6  0  0  0
 46 41  1  0  0  0  0
 47 48  1  0  0  0  0
 49 48  1  0  0  0  0
M  END
>  <MODEL>
6

>  <REMARK>
 VINA RESULT:      -5.6      2.841     10.048
  Name = 
  13 active torsions:
  status: ('A' for Active; 'I' for Inactive)
    1  A    between atoms: C_1  and  C_13
    2  A    between atoms: C_2  and  C_32
    3  A    between atoms: N_4  and  C_32
    4  A    between atoms: N_7  and  C_35
    5  A    between atoms: C_8  and  C_43
    6  A    between atoms: C_16  and  C_41
    7  A    between atoms: C_16  and  C_43
    8  A    between atoms: N_21  and  C_22
    9  A    between atoms: N_21  and  S_38
   10  A    between atoms: C_26  and  O_31
   11  A    between atoms: C_26  and  C_46
   12  A    between atoms: C_28  and  C_41
   13  A    between atoms: C_35  and  S_38
                            x       y       z     vdW  Elec       q    Type
                         _______ _______ _______ _____ _____    ______ ____

>  <TORSDO>
F 13

$$$$
=
 OpenBabel11042420353D

 49 53  0  0  1  0  0  0  0  0999 V2000
  161.4610  209.4560  149.9940 C   0  0  0  0  0  2  0  0  0  0  0  0
  161.7690  209.8110  152.7490 C   0  0  2  0  0  3  0  0  0  0  0  0
  161.4110  205.7570  151.0630 C   0  0  1  0  0  3  0  0  0  0  0  0
  162.6440  210.7330  151.8890 C   0  0  0  0  0  2  0  0  0  0  0  0
  161.9360  208.3590  152.2650 C   0  0  1  0  0  3  0  0  0  0  0  0
  162.3290  210.6640  150.3820 C   0  0  2  0  0  3  0  0  0  0  0  0
  161.0280  207.3820  153.0180 C   0  0  0  0  0  2  0  0  0  0  0  0
  161.9040  208.1880  150.7200 C   0  0  1  0  0  3  0  0  0  0  0  0
  161.0410  207.0100  150.2740 C   0  0  0  0  0  2  0  0  0  0  0  0
  161.2960  205.9410  152.5840 C   0  0  0  0  0  2  0  0  0  0  0  0
  160.5600  204.6180  150.6330 C   0  0  0  0  0  3  0  0  0  0  0  0
  160.7440  203.7110  148.1910 C   0  0  0  0  0  0  0  0  0  0  0  0
  161.5800  200.2160  146.9550 C   0  0  0  0  0  1  0  0  0  0  0  0
  160.6470  204.1660  149.4150 C   0  0  0  0  0  0  0  0  0  0  0  0
  162.1330  202.4490  146.0120 C   0  0  0  0  0  2  0  0  0  0  0  0
  161.5940  205.8470  147.4950 O   0  0  0  0  0  1  0  0  0  0  0  0
  161.2010  204.5840  147.0430 C   0  0  1  0  0  0  0  0  0  0  0  0
  162.3930  203.9220  146.3410 C   0  0  0  0  0  2  0  0  0  0  0  0
  160.5560  202.2470  147.9460 C   0  0  0  0  0  2  0  0  0  0  0  0
  161.8050  201.6740  147.2870 C   0  0  1  0  0  3  0  0  0  0  0  0
  160.0630  204.7640  146.0550 C   0  0  0  0  0  1  0  0  0  0  0  0
  161.6760  211.9020  149.9820 N   0  0  0  0  0  2  0  0  0  0  0  0
  162.3840  213.7770  148.2590 O   0  0  0  0  0  0  0  0  0  0  0  0
  163.3810  211.5620  148.0120 O   0  0  0  0  0  0  0  0  0  0  0  0
  162.1210  212.3030  148.3560 S   0  0  0  0  0  0  0  0  0  0  0  0
  160.8270  211.8570  147.2070 C   0  0  0  0  0  2  0  0  0  0  0  0
  159.9830  212.6350  144.9560 C   0  0  0  0  0  0  0  0  0  0  0  0
  161.0150  212.5590  145.9460 N   0  0  0  0  0  2  0  0  0  0  0  0
  158.8240  212.2060  145.2050 O   0  0  0  0  0  0  0  0  0  0  0  0
  160.2760  213.2380  143.6250 C   0  0  0  0  0  2  0  0  0  0  0  0
  162.3840  212.6340  142.6890 C   0  0  0  0  0  2  0  0  0  0  0  0
  160.9610  212.2700  142.7720 N   0  0  0  0  0  0  0  0  0  0  0  0
  162.6020  213.8540  141.7840 C   0  0  0  0  0  2  0  0  0  0  0  0
  160.3350  212.2570  141.4410 C   0  0  0  0  0  2  0  0  0  0  0  0
  162.1000  213.5890  140.5010 O   0  0  0  0  0  0  0  0  0  0  0  0
  160.7050  213.5050  140.6320 C   0  0  0  0  0  2  0  0  0  0  0  0
  160.3060  210.2640  152.7340 C   0  0  0  0  0  2  0  0  0  0  0  0
  160.1100  211.5490  153.5250 C   0  0  0  0  0  2  0  0  0  0  0  0
  159.1930  212.4910  152.8100 C   0  0  0  0  0  0  0  0  0  0  0  0
  158.8230  212.2280  151.6740 O   0  0  0  0  0  0  0  0  0  0  0  0
  157.9680  213.6440  155.9030 C   0  0  0  0  0  3  0  0  0  0  0  0
  158.6990  213.7240  153.5080 C   0  0  1  0  0  3  0  0  0  0  0  0
  157.2400  214.0490  153.1440 C   0  0  0  0  0  2  0  0  0  0  0  0
  158.9530  213.6270  154.9940 C   0  0  0  0  0  3  0  0  0  0  0  0
  156.2680  213.3540  154.0920 C   0  0  0  0  0  2  0  0  0  0  0  0
  156.5280  213.8460  155.5100 C   0  0  1  0  0  3  0  0  0  0  0  0
  155.6030  213.1370  156.4890 C   0  0  0  0  0  2  0  0  0  0  0  0
  156.1770  211.9320  156.8930 O   0  0  0  0  0  0  0  0  0  0  0  0
  155.1720  210.9820  156.7020 C   0  0  0  0  0  1  0  0  0  0  0  0
  1  6  1  0  0  0  0
  2 37  1  6  0  0  0
  3 11  1  6  0  0  0
  3 10  1  0  0  0  0
  4  2  1  0  0  0  0
  5  2  1  0  0  0  0
  5  7  1  1  0  0  0
  6 22  1  1  0  0  0
  6  4  1  0  0  0  0
  8  1  1  6  0  0  0
  8  5  1  0  0  0  0
  9  8  1  0  0  0  0
  9  3  1  0  0  0  0
 10  7  1  0  0  0  0
 12 14  2  0  0  0  0
 14 11  2  0  0  0  0
 15 18  1  0  0  0  0
 15 20  1  0  0  0  0
 17 21  1  6  0  0  0
 17 16  1  0  0  0  0
 17 12  1  0  0  0  0
 18 17  1  0  0  0  0
 19 12  1  0  0  0  0
 20 13  1  6  0  0  0
 20 19  1  0  0  0  0
 23 25  2  0  0  0  0
 24 25  2  0  0  0  0
 25 22  1  0  0  0  0
 26 25  1  0  0  0  0
 27 29  2  0  0  0  0
 27 28  1  0  0  0  0
 28 26  1  0  0  0  0
 30 27  1  0  0  0  0
 31 32  1  0  0  0  0
 32 30  1  0  0  0  0
 33 31  1  0  0  0  0
 34 32  1  0  0  0  0
 35 36  1  0  0  0  0
 35 33  1  0  0  0  0
 36 34  1  0  0  0  0
 37 38  1  0  0  0  0
 39 38  1  0  0  0  0
 40 39  2  0  0  0  0
 42 39  1  6  0  0  0
 42 44  1  0  0  0  0
 43 42  1  0  0  0  0
 43 45  1  0  0  0  0
 44 41  2  0  0  0  0
 45 46  1  0  0  0  0
 46 41  1  0  0  0  0
 46 47  1  1  0  0  0
 47 48  1  0  0  0  0
 49 48  1  0  0  0  0
M  END
>  <MODEL>
7

>  <REMARK>
 VINA RESULT:      -5.6      3.347     10.727
  Name = 
  13 active torsions:
  status: ('A' for Active; 'I' for Inactive)
    1  A    between atoms: C_1  and  C_13
    2  A    between atoms: C_2  and  C_32
    3  A    between atoms: N_4  and  C_32
    4  A    between atoms: N_7  and  C_35
    5  A    between atoms: C_8  and  C_43
    6  A    between atoms: C_16  and  C_41
    7  A    between atoms: C_16  and  C_43
    8  A    between atoms: N_21  and  C_22
    9  A    between atoms: N_21  and  S_38
   10  A    between atoms: C_26  and  O_31
   11  A    between atoms: C_26  and  C_46
   12  A    between atoms: C_28  and  C_41
   13  A    between atoms: C_35  and  S_38
                            x       y       z     vdW  Elec       q    Type
                         _______ _______ _______ _____ _____    ______ ____

>  <TORSDO>
F 13

$$$$
=
 OpenBabel11042420353D

 49 53  0  0  1  0  0  0  0  0999 V2000
  161.4530  209.3070  150.2200 C   0  0  0  0  0  2  0  0  0  0  0  0
  161.7500  209.7190  152.9680 C   0  0  2  0  0  3  0  0  0  0  0  0
  161.3840  205.6310  151.3660 C   0  0  1  0  0  3  0  0  0  0  0  0
  162.6320  210.6200  152.0930 C   0  0  0  0  0  2  0  0  0  0  0  0
  161.9130  208.2570  152.5160 C   0  0  1  0  0  3  0  0  0  0  0  0
  162.3240  210.5190  150.5870 C   0  0  2  0  0  3  0  0  0  0  0  0
  160.9970  207.2990  153.2840 C   0  0  0  0  0  2  0  0  0  0  0  0
  161.8870  208.0530  150.9750 C   0  0  1  0  0  3  0  0  0  0  0  0
  161.0220  206.8690  150.5500 C   0  0  0  0  0  2  0  0  0  0  0  0
  161.2620  205.8480  152.8820 C   0  0  0  0  0  2  0  0  0  0  0  0
  160.5300  204.4870  150.9560 C   0  0  0  0  0  3  0  0  0  0  0  0
  160.6530  203.5890  148.5070 C   0  0  0  0  0  0  0  0  0  0  0  0
  161.4830  200.1040  147.2380 C   0  0  0  0  0  1  0  0  0  0  0  0
  160.5870  204.0390  149.7350 C   0  0  0  0  0  0  0  0  0  0  0  0
  161.9920  202.3440  146.2870 C   0  0  0  0  0  2  0  0  0  0  0  0
  161.4670  205.7330  147.7950 O   0  0  0  0  0  1  0  0  0  0  0  0
  161.0710  204.4690  147.3500 C   0  0  1  0  0  0  0  0  0  0  0  0
  162.2490  203.8180  146.6130 C   0  0  0  0  0  2  0  0  0  0  0  0
  160.4700  202.1240  148.2630 C   0  0  0  0  0  2  0  0  0  0  0  0
  161.7060  201.5630  147.5680 C   0  0  1  0  0  3  0  0  0  0  0  0
  159.9060  204.6420  146.3950 C   0  0  0  0  0  1  0  0  0  0  0  0
  161.6780  211.7520  150.1570 N   0  0  0  0  0  2  0  0  0  0  0  0
  163.4610  211.5420  148.2180 O   0  0  0  0  0  0  0  0  0  0  0  0
  161.0980  211.4150  147.6170 O   0  0  0  0  0  0  0  0  0  0  0  0
  162.0960  212.0920  148.5110 S   0  0  0  0  0  0  0  0  0  0  0  0
  162.0900  213.8510  148.1970 C   0  0  0  0  0  2  0  0  0  0  0  0
  161.8060  213.9970  145.6900 C   0  0  0  0  0  0  0  0  0  0  0  0
  161.2890  214.1450  147.0170 N   0  0  0  0  0  2  0  0  0  0  0  0
  162.9370  213.4750  145.4970 O   0  0  0  0  0  0  0  0  0  0  0  0
  160.9960  214.4520  144.5240 C   0  0  0  0  0  2  0  0  0  0  0  0
  160.6850  212.1980  143.8140 C   0  0  0  0  0  2  0  0  0  0  0  0
  159.9970  213.4450  144.1790 N   0  0  0  0  0  0  0  0  0  0  0  0
  161.3260  212.2940  142.4240 C   0  0  0  0  0  2  0  0  0  0  0  0
  159.1630  213.9390  143.0720 C   0  0  0  0  0  2  0  0  0  0  0  0
  160.3450  212.5970  141.4680 O   0  0  0  0  0  0  0  0  0  0  0  0
  159.9190  213.9060  141.7390 C   0  0  0  0  0  2  0  0  0  0  0  0
  160.2880  210.1770  152.9370 C   0  0  0  0  0  2  0  0  0  0  0  0
  160.1670  211.6770  153.1580 C   0  0  0  0  0  2  0  0  0  0  0  0
  158.7510  212.0710  153.4430 C   0  0  0  0  0  0  0  0  0  0  0  0
  157.9910  211.2610  153.9560 O   0  0  0  0  0  0  0  0  0  0  0  0
  156.3060  213.8760  151.6650 C   0  0  0  0  0  3  0  0  0  0  0  0
  158.2900  213.4660  153.1400 C   0  0  1  0  0  3  0  0  0  0  0  0
  159.1500  214.1360  152.0540 C   0  0  0  0  0  2  0  0  0  0  0  0
  156.8090  213.4800  152.8430 C   0  0  0  0  0  3  0  0  0  0  0  0
  158.5970  213.8550  150.6620 C   0  0  0  0  0  2  0  0  0  0  0  0
  157.1850  214.4210  150.5700 C   0  0  1  0  0  3  0  0  0  0  0  0
  156.5860  214.1170  149.2040 C   0  0  0  0  0  2  0  0  0  0  0  0
  157.4510  213.2960  148.4800 O   0  0  0  0  0  0  0  0  0  0  0  0
  157.5090  213.8790  147.2130 C   0  0  0  0  0  1  0  0  0  0  0  0
  1  6  1  0  0  0  0
  2 37  1  6  0  0  0
  3 11  1  6  0  0  0
  3 10  1  0  0  0  0
  4  2  1  0  0  0  0
  5  2  1  0  0  0  0
  5  7  1  1  0  0  0
  6 22  1  1  0  0  0
  6  4  1  0  0  0  0
  8  1  1  6  0  0  0
  8  5  1  0  0  0  0
  9  8  1  0  0  0  0
  9  3  1  0  0  0  0
 10  7  1  0  0  0  0
 12 14  2  0  0  0  0
 14 11  2  0  0  0  0
 15 18  1  0  0  0  0
 15 20  1  0  0  0  0
 17 21  1  6  0  0  0
 17 16  1  0  0  0  0
 17 12  1  0  0  0  0
 18 17  1  0  0  0  0
 19 12  1  0  0  0  0
 20 13  1  6  0  0  0
 20 19  1  0  0  0  0
 23 25  2  0  0  0  0
 24 25  2  0  0  0  0
 25 22  1  0  0  0  0
 26 25  1  0  0  0  0
 27 28  1  0  0  0  0
 28 26  1  0  0  0  0
 29 27  2  0  0  0  0
 30 27  1  0  0  0  0
 31 32  1  0  0  0  0
 32 30  1  0  0  0  0
 33 31  1  0  0  0  0
 34 32  1  0  0  0  0
 35 36  1  0  0  0  0
 35 33  1  0  0  0  0
 36 34  1  0  0  0  0
 37 38  1  0  0  0  0
 38 39  1  0  0  0  0
 39 40  2  0  0  0  0
 41 44  2  0  0  0  0
 42 39  1  6  0  0  0
 43 42  1  0  0  0  0
 44 42  1  0  0  0  0
 45 43  1  0  0  0  0
 46 47  1  6  0  0  0
 46 45  1  0  0  0  0
 46 41  1  0  0  0  0
 48 47  1  0  0  0  0
 49 48  1  0  0  0  0
M  END
>  <MODEL>
8

>  <REMARK>
 VINA RESULT:      -5.4      3.271     10.061
  Name = 
  13 active torsions:
  status: ('A' for Active; 'I' for Inactive)
    1  A    between atoms: C_1  and  C_13
    2  A    between atoms: C_2  and  C_32
    3  A    between atoms: N_4  and  C_32
    4  A    between atoms: N_7  and  C_35
    5  A    between atoms: C_8  and  C_43
    6  A    between atoms: C_16  and  C_41
    7  A    between atoms: C_16  and  C_43
    8  A    between atoms: N_21  and  C_22
    9  A    between atoms: N_21  and  S_38
   10  A    between atoms: C_26  and  O_31
   11  A    between atoms: C_26  and  C_46
   12  A    between atoms: C_28  and  C_41
   13  A    between atoms: C_35  and  S_38
                            x       y       z     vdW  Elec       q    Type
                         _______ _______ _______ _____ _____    ______ ____

>  <TORSDO>
F 13

$$$$
=
 OpenBabel11042420353D

 49 53  0  0  1  0  0  0  0  0999 V2000
  158.8540  212.6580  148.8250 C   0  0  0  0  0  2  0  0  0  0  0  0
  161.6310  212.3430  148.8390 C   0  0  2  0  0  3  0  0  0  0  0  0
  159.5660  213.6380  145.1690 C   0  0  1  0  0  3  0  0  0  0  0  0
  161.0610  213.0040  150.1020 C   0  0  0  0  0  2  0  0  0  0  0  0
  161.0720  213.0590  147.5970 C   0  0  1  0  0  3  0  0  0  0  0  0
  159.5220  212.9990  150.1670 C   0  0  2  0  0  3  0  0  0  0  0  0
  161.5250  212.4050  146.2890 C   0  0  0  0  0  2  0  0  0  0  0  0
  159.5470  213.3570  147.6580 C   0  0  1  0  0  3  0  0  0  0  0  0
  158.8270  213.0210  146.3540 C   0  0  0  0  0  2  0  0  0  0  0  0
  161.0370  213.2020  145.0800 C   0  0  0  0  0  2  0  0  0  0  0  0
  158.8680  213.2970  143.9040 C   0  0  0  0  0  3  0  0  0  0  0  0
  160.2530  212.8690  141.7320 C   0  0  0  0  0  0  0  0  0  0  0  0
  160.3680  209.8010  139.4910 C   0  0  0  0  0  1  0  0  0  0  0  0
  159.5560  213.0860  142.8190 C   0  0  0  0  0  0  0  0  0  0  0  0
  162.1500  211.4120  140.1350 C   0  0  0  0  0  2  0  0  0  0  0  0
  162.0380  214.1870  142.6490 O   0  0  0  0  0  1  0  0  0  0  0  0
  161.6170  213.4860  141.5160 C   0  0  1  0  0  0  0  0  0  0  0  0
  162.6370  212.3790  141.2180 C   0  0  0  0  0  2  0  0  0  0  0  0
  159.7630  211.8530  140.7490 C   0  0  0  0  0  2  0  0  0  0  0  0
  160.8250  210.7770  140.5540 C   0  0  1  0  0  3  0  0  0  0  0  0
  161.5590  214.4530  140.3490 C   0  0  0  0  0  1  0  0  0  0  0  0
  159.0980  212.0580  151.1940 N   0  0  0  0  0  2  0  0  0  0  0  0
  157.5560  214.0670  151.9470 O   0  0  0  0  0  0  0  0  0  0  0  0
  157.3940  211.9710  153.1910 O   0  0  0  0  0  0  0  0  0  0  0  0
  158.3380  212.9100  152.4960 S   0  0  0  0  0  0  0  0  0  0  0  0
  159.5500  213.5170  153.6600 C   0  0  0  0  0  2  0  0  0  0  0  0
  160.6220  211.4830  154.7090 C   0  0  0  0  0  0  0  0  0  0  0  0
  159.6990  212.5770  154.7620 N   0  0  0  0  0  2  0  0  0  0  0  0
  161.4380  211.3780  153.7530 O   0  0  0  0  0  0  0  0  0  0  0  0
  160.6300  210.4670  155.7990 C   0  0  0  0  0  2  0  0  0  0  0  0
  159.7350  208.3900  156.5530 C   0  0  0  0  0  2  0  0  0  0  0  0
  159.5800  209.4770  155.5760 N   0  0  0  0  0  0  0  0  0  0  0  0
  160.9170  207.4780  156.1990 C   0  0  0  0  0  2  0  0  0  0  0  0
  159.6660  208.9720  154.1960 C   0  0  0  0  0  2  0  0  0  0  0  0
  160.7360  206.9440  154.9150 O   0  0  0  0  0  0  0  0  0  0  0  0
  160.8530  208.0180  154.0190 C   0  0  0  0  0  2  0  0  0  0  0  0
  161.3410  210.8390  148.8230 C   0  0  0  0  0  2  0  0  0  0  0  0
  162.5160  210.0360  149.3610 C   0  0  0  0  0  2  0  0  0  0  0  0
  162.0580  208.7530  149.9800 C   0  0  0  0  0  0  0  0  0  0  0  0
  162.5860  208.3570  151.0100 O   0  0  0  0  0  0  0  0  0  0  0  0
  160.4980  205.5960  149.9690 C   0  0  0  0  0  3  0  0  0  0  0  0
  160.9250  207.9890  149.3600 C   0  0  1  0  0  3  0  0  0  0  0  0
  161.2670  207.4970  147.9430 C   0  0  0  0  0  2  0  0  0  0  0  0
  160.4530  206.8970  150.2910 C   0  0  0  0  0  3  0  0  0  0  0  0
  161.9230  206.1210  147.9820 C   0  0  0  0  0  2  0  0  0  0  0  0
  160.9500  205.1300  148.6100 C   0  0  1  0  0  3  0  0  0  0  0  0
  161.5930  203.7530  148.7050 C   0  0  0  0  0  2  0  0  0  0  0  0
  160.9190  202.9810  149.6510 O   0  0  0  0  0  0  0  0  0  0  0  0
  160.9970  201.6770  149.1590 C   0  0  0  0  0  1  0  0  0  0  0  0
  1  6  1  0  0  0  0
  2 37  1  6  0  0  0
  2  4  1  0  0  0  0
  3 11  1  6  0  0  0
  3  9  1  0  0  0  0
  4  6  1  0  0  0  0
  5  7  1  6  0  0  0
  5  8  1  0  0  0  0
  5  2  1  0  0  0  0
  6 22  1  1  0  0  0
  8  9  1  6  0  0  0
  8  1  1  0  0  0  0
 10  3  1  0  0  0  0
 10  7  1  0  0  0  0
 12 14  2  0  0  0  0
 14 11  2  0  0  0  0
 15 20  1  0  0  0  0
 15 18  1  0  0  0  0
 17 21  1  6  0  0  0
 17 12  1  0  0  0  0
 17 16  1  0  0  0  0
 18 17  1  0  0  0  0
 19 12  1  0  0  0  0
 20 13  1  6  0  0  0
 20 19  1  0  0  0  0
 22 25  1  0  0  0  0
 23 25  2  0  0  0  0
 25 24  2  0  0  0  0
 25 26  1  0  0  0  0
 26 28  1  0  0  0  0
 27 28  1  0  0  0  0
 27 30  1  0  0  0  0
 29 27  2  0  0  0  0
 32 30  1  0  0  0  0
 32 31  1  0  0  0  0
 33 31  1  0  0  0  0
 34 32  1  0  0  0  0
 35 33  1  0  0  0  0
 36 34  1  0  0  0  0
 36 35  1  0  0  0  0
 37 38  1  0  0  0  0
 38 39  1  0  0  0  0
 39 40  2  0  0  0  0
 41 44  2  0  0  0  0
 42 39  1  1  0  0  0
 42 44  1  0  0  0  0
 43 45  1  0  0  0  0
 43 42  1  0  0  0  0
 45 46  1  0  0  0  0
 46 47  1  1  0  0  0
 46 41  1  0  0  0  0
 47 48  1  0  0  0  0
 49 48  1  0  0  0  0
M  END
>  <MODEL>
9

>  <REMARK>
 VINA RESULT:      -4.3      2.714      5.235
  Name = 
  13 active torsions:
  status: ('A' for Active; 'I' for Inactive)
    1  A    between atoms: C_1  and  C_13
    2  A    between atoms: C_2  and  C_32
    3  A    between atoms: N_4  and  C_32
    4  A    between atoms: N_7  and  C_35
    5  A    between atoms: C_8  and  C_43
    6  A    between atoms: C_16  and  C_41
    7  A    between atoms: C_16  and  C_43
    8  A    between atoms: N_21  and  C_22
    9  A    between atoms: N_21  and  S_38
   10  A    between atoms: C_26  and  O_31
   11  A    between atoms: C_26  and  C_46
   12  A    between atoms: C_28  and  C_41
   13  A    between atoms: C_35  and  S_38
                            x       y       z     vdW  Elec       q    Type
                         _______ _______ _______ _____ _____    ______ ____

>  <TORSDO>
F 13

$$$$
