=
 OpenBabel11052411593D

 70 76  0  0  1  0  0  0  0  0999 V2000
  160.2280  213.2980  151.2440 C   0  0  1  0  0  3  0  0  0  0  0  0
  157.7510  213.4540  151.5240 C   0  0  0  0  0  0  0  0  0  0  0  0
  156.4590  213.1320  152.2060 C   0  0  0  0  0  2  0  0  0  0  0  0
  159.0950  212.6840  153.4700 C   0  0  0  0  0  3  0  0  0  0  0  0
  158.8460  214.0370  149.3640 C   0  0  0  0  0  0  0  0  0  0  0  0
  160.0080  213.7430  149.8600 N   0  0  0  0  0  0  0  0  0  0  0  0
  157.6710  213.9200  150.1760 N   0  0  0  0  0  2  0  0  0  0  0  0
  158.9480  213.1530  152.0690 C   0  0  0  0  0  0  0  0  0  0  0  0
  156.2760  213.9060  153.4730 C   0  0  0  0  0  3  0  0  0  0  0  0
  158.3050  212.9540  154.5150 C   0  0  0  0  0  3  0  0  0  0  0  0
  157.0830  213.7870  154.5320 C   0  0  0  0  0  0  0  0  0  0  0  0
  161.5210  211.6770  149.8060 C   0  0  0  0  0  1  0  0  0  0  0  0
  161.1040  212.0340  151.2220 C   0  0  2  0  0  3  0  0  0  0  0  0
  160.4050  210.8590  151.9030 C   0  0  0  0  0  2  0  0  0  0  0  0
  161.3620  209.9270  152.5780 C   0  0  0  0  0  0  0  0  0  0  0  0
  162.5750  210.2580  152.6710 O   0  0  0  0  0  0  0  0  0  0  0  0
  160.9090  208.6590  153.1700 C   0  0  0  0  0  0  0  0  0  0  0  0
  160.5520  208.6140  154.3780 O   0  0  0  0  0  0  0  0  0  0  0  0
  160.8370  207.4140  152.3440 C   0  0  0  0  0  2  0  0  0  0  0  0
  161.2770  206.1960  153.1470 C   0  0  0  0  0  2  0  0  0  0  0  0
  161.8680  205.1280  152.2270 C   0  0  2  0  0  3  0  0  0  0  0  0
  163.3730  205.3240  152.1710 C   0  0  0  0  0  1  0  0  0  0  0  0
  162.1530  205.8260  149.6280 O   0  0  0  0  0  0  0  0  0  0  0  0
  161.1520  205.2310  150.5800 S   0  0  0  0  0  0  0  0  0  0  0  0
  159.9170  206.0930  150.6130 O   0  0  0  0  0  0  0  0  0  0  0  0
  160.7190  203.6030  149.9760 C   0  0  1  0  0  3  0  0  0  0  0  0
  160.6290  203.6150  148.4550 C   0  0  0  0  0  2  0  0  0  0  0  0
  161.7490  202.5700  150.4550 C   0  0  2  0  0  3  0  0  0  0  0  0
  160.3860  202.1930  147.9070 C   0  0  2  0  0  3  0  0  0  0  0  0
  162.0730  201.5350  149.3650 C   0  0  0  0  0  2  0  0  0  0  0  0
  160.8950  201.1300  148.7040 O   0  0  0  0  0  0  0  0  0  0  0  0
  160.7490  202.0220  146.4240 C   0  0  2  0  0  0  0  0  0  0  0  0
  160.0400  201.0570  145.5420 C   0  0  0  0  0  2  0  0  0  0  0  0
  161.2430  200.7250  146.1920 O   0  0  0  0  0  0  0  0  0  0  0  0
  161.6590  203.0350  145.8610 N   0  0  0  0  0  2  0  0  0  0  0  0
  160.9500  204.0960  145.1450 C   0  0  2  0  0  3  0  0  0  0  0  0
  161.5650  204.3130  143.9070 O   0  0  0  0  0  1  0  0  0  0  0  0
  160.1330  206.4490  145.2250 C   0  0  0  0  0  1  0  0  0  0  0  0
  160.9210  205.3780  145.9690 C   0  0  2  0  0  3  0  0  0  0  0  0
  163.3470  204.7650  146.0850 C   0  0  0  0  0  1  0  0  0  0  0  0
  162.3280  205.8700  146.2880 C   0  0  0  0  0  2  0  0  0  0  0  0
  160.0930  202.4700  152.1900 O   0  0  0  0  0  1  0  0  0  0  0  0
  161.2840  201.9020  151.7410 C   0  0  0  0  0  2  0  0  0  0  0  0
  156.7910  214.4510  155.7300 O   0  0  0  0  0  0  0  0  0  0  0  0
  155.6290  214.1700  156.5100 C   0  0  0  0  0  1  0  0  0  0  0  0
  158.7530  214.4090  147.9170 C   0  0  0  0  0  2  0  0  0  0  0  0
  158.4550  213.2330  145.6780 N   0  0  0  0  0  2  0  0  0  0  0  0
  158.1070  213.3610  147.0590 C   0  0  0  0  0  0  0  0  0  0  0  0
  157.2830  212.5550  147.5680 O   0  0  0  0  0  0  0  0  0  0  0  0
  159.4230  214.1120  145.0370 C   0  0  0  0  0  2  0  0  0  0  0  0
  162.0710  213.1620  141.1810 N   0  0  0  0  0  2  0  0  0  0  0  0
  161.9120  213.9140  145.3910 C   0  0  1  0  0  3  0  0  0  0  0  0
  160.6870  213.3360  144.6590 C   0  0  2  0  0  3  0  0  0  0  0  0
  161.8670  213.5360  146.8550 C   0  0  0  0  0  1  0  0  0  0  0  0
  159.5570  212.8060  142.0230 S   0  0  0  0  0  0  0  0  0  0  0  0
  162.0590  213.3920  142.5780 C   0  0  0  0  0  0  0  0  0  0  0  0
  163.3070  213.7710  143.3240 C   0  0  0  0  0  2  0  0  0  0  0  0
  160.8150  212.6010  140.7110 C   0  0  1  0  0  3  0  0  0  0  0  0
  160.8740  213.2790  143.1580 C   0  0  0  0  0  0  0  0  0  0  0  0
  163.2000  213.3720  144.7900 C   0  0  0  0  0  2  0  0  0  0  0  0
  160.4330  213.1430  139.3330 C   0  0  0  0  0  2  0  0  0  0  0  0
  160.7730  212.3070  138.0910 C   0  0  2  0  0  0  0  0  0  0  0  0
  159.4800  211.6350  137.5960 C   0  0  0  0  0  2  0  0  0  0  0  0
  161.8260  211.2500  138.3870 C   0  0  0  0  0  0  0  0  0  0  0  0
  158.6570  210.7720  139.6980 O   0  0  0  0  0  1  0  0  0  0  0  0
  163.0010  211.4450  138.1030 O   0  0  0  0  0  0  0  0  0  0  0  0
  161.4400  209.9890  139.1030 C   0  0  0  0  0  2  0  0  0  0  0  0
  160.1870  209.3810  138.4700 C   0  0  0  0  0  2  0  0  0  0  0  0
  159.0510  210.4020  138.4110 C   0  0  2  0  0  3  0  0  0  0  0  0
  161.2220  213.1550  137.0810 O   0  0  0  0  0  1  0  0  0  0  0  0
  1 13  1  6  0  0  0
  1  8  1  0  0  0  0
  2  8  2  0  0  0  0
  2  3  1  0  0  0  0
  3  9  1  0  0  0  0
  4 10  2  0  0  0  0
  5  6  2  0  0  0  0
  5  7  1  0  0  0  0
  6  1  1  0  0  0  0
  7  2  1  0  0  0  0
  8  4  1  0  0  0  0
  9 11  2  0  0  0  0
 10 11  1  0  0  0  0
 11 44  1  0  0  0  0
 13 12  1  6  0  0  0
 13 14  1  0  0  0  0
 14 15  1  0  0  0  0
 15 16  2  0  0  0  0
 15 17  1  0  0  0  0
 17 18  2  0  0  0  0
 19 20  1  0  0  0  0
 19 17  1  0  0  0  0
 21 22  1  6  0  0  0
 21 20  1  0  0  0  0
 23 24  2  0  0  0  0
 24 25  2  0  0  0  0
 24 21  1  0  0  0  0
 26 28  1  0  0  0  0
 26 24  1  6  0  0  0
 27 26  1  0  0  0  0
 28 43  1  1  0  0  0
 29 27  1  1  0  0  0
 29 31  1  0  0  0  0
 30 28  1  0  0  0  0
 31 30  1  0  0  0  0
 32 35  1  6  0  0  0
 32 29  1  0  0  0  0
 33 34  1  0  0  0  0
 33 32  1  0  0  0  0
 34 32  1  0  0  0  0
 36 37  1  6  0  0  0
 36 35  1  0  0  0  0
 36 39  1  0  0  0  0
 39 38  1  6  0  0  0
 39 41  1  0  0  0  0
 40 41  1  0  0  0  0
 43 42  1  0  0  0  0
 44 45  1  0  0  0  0
 46  5  1  0  0  0  0
 47 48  1  0  0  0  0
 48 49  2  0  0  0  0
 48 46  1  0  0  0  0
 50 47  1  0  0  0  0
 51 56  1  0  0  0  0
 52 54  1  1  0  0  0
 53 50  1  6  0  0  0
 53 52  1  0  0  0  0
 55 59  1  0  0  0  0
 56 59  2  0  0  0  0
 56 57  1  0  0  0  0
 57 60  1  0  0  0  0
 58 61  1  6  0  0  0
 58 51  1  0  0  0  0
 58 55  1  0  0  0  0
 59 53  1  0  0  0  0
 60 52  1  0  0  0  0
 62 70  1  6  0  0  0
 62 64  1  0  0  0  0
 62 61  1  0  0  0  0
 63 62  1  0  0  0  0
 63 69  1  0  0  0  0
 64 67  1  0  0  0  0
 66 64  2  0  0  0  0
 68 67  1  0  0  0  0
 69 68  1  0  0  0  0
 69 65  1  1  0  0  0
M  END
>  <MODEL>
1

>  <REMARK>
 VINA RESULT:      -4.4      0.000      0.000
  Name = 
  22 active torsions:
  status: ('A' for Active; 'I' for Inactive)
    1  A    between atoms: C_1  and  S_58
    2  A    between atoms: C_2  and  C_64
    3  A    between atoms: C_4  and  C_41
    4  A    between atoms: C_4  and  N_43
    5  A    between atoms: C_7  and  C_31
    6  A    between atoms: C_7  and  C_45
    7  A    between atoms: C_9  and  C_25
    8  A    between atoms: C_11  and  C_23
    9  A    between atoms: C_11  and  C_32
   10  A    between atoms: C_16  and  C_27
   11  A    between atoms: C_17  and  C_29
   12  A    between atoms: C_19  and  C_54
   13  A    between atoms: N_22  and  C_49
   14  A    between atoms: C_23  and  C_64
   15  A    between atoms: C_25  and  C_50
   16  A    between atoms: C_26  and  C_49
   17  A    between atoms: C_27  and  C_35
   18  A    between atoms: C_29  and  C_60
   19  A    between atoms: C_31  and  C_32
   20  A    between atoms: C_35  and  N_43
   21  A    between atoms: O_39  and  C_70
   22  A    between atoms: C_45  and  S_58
                            x       y       z     vdW  Elec       q    Type
                         _______ _______ _______ _____ _____    ______ ____

>  <TORSDO>
F 22

$$$$
=
 OpenBabel11052411593D

 70 76  0  0  1  0  0  0  0  0999 V2000
  161.6900  211.9440  150.0380 C   0  0  1  0  0  3  0  0  0  0  0  0
  159.7390  211.8170  151.5930 C   0  0  0  0  0  0  0  0  0  0  0  0
  158.9570  211.2010  152.7090 C   0  0  0  0  0  2  0  0  0  0  0  0
  161.8060  210.5830  152.2170 C   0  0  0  0  0  3  0  0  0  0  0  0
  159.6210  213.1260  149.4760 C   0  0  0  0  0  0  0  0  0  0  0  0
  160.8360  212.7820  149.1820 N   0  0  0  0  0  0  0  0  0  0  0  0
  159.0260  212.6720  150.6990 N   0  0  0  0  0  2  0  0  0  0  0  0
  161.0090  211.4530  151.3160 C   0  0  0  0  0  0  0  0  0  0  0  0
  159.5300  211.5250  154.0520 C   0  0  0  0  0  3  0  0  0  0  0  0
  161.6970  210.4530  153.5440 C   0  0  0  0  0  3  0  0  0  0  0  0
  160.7490  211.1430  154.4440 C   0  0  0  0  0  0  0  0  0  0  0  0
  162.9820  211.3790  147.9460 C   0  0  0  0  0  1  0  0  0  0  0  0
  162.2980  210.8210  149.1810 C   0  0  2  0  0  3  0  0  0  0  0  0
  161.2480  209.7780  148.8050 C   0  0  0  0  0  2  0  0  0  0  0  0
  161.8340  208.4170  148.5880 C   0  0  0  0  0  0  0  0  0  0  0  0
  163.0870  208.2980  148.5010 O   0  0  0  0  0  0  0  0  0  0  0  0
  160.9860  207.2180  148.5210 C   0  0  0  0  0  0  0  0  0  0  0  0
  159.9860  207.1030  149.2790 O   0  0  0  0  0  0  0  0  0  0  0  0
  161.2770  206.1320  147.5330 C   0  0  0  0  0  2  0  0  0  0  0  0
  160.6420  206.4360  146.1820 C   0  0  0  0  0  2  0  0  0  0  0  0
  160.9270  205.3100  145.1870 C   0  0  2  0  0  3  0  0  0  0  0  0
  159.7090  204.4040  145.1290 C   0  0  0  0  0  1  0  0  0  0  0  0
  163.3320  205.2770  146.4280 O   0  0  0  0  0  0  0  0  0  0  0  0
  162.3890  204.3810  145.6710 S   0  0  0  0  0  0  0  0  0  0  0  0
  163.0820  203.8440  144.4470 O   0  0  0  0  0  0  0  0  0  0  0  0
  161.9460  203.0190  146.7440 C   0  0  1  0  0  3  0  0  0  0  0  0
  161.9100  203.4850  148.1940 C   0  0  0  0  0  2  0  0  0  0  0  0
  160.5900  202.4340  146.3240 C   0  0  2  0  0  3  0  0  0  0  0  0
  161.4030  202.3600  149.1210 C   0  0  2  0  0  3  0  0  0  0  0  0
  159.7270  202.0540  147.5390 C   0  0  0  0  0  2  0  0  0  0  0  0
  160.5150  201.4220  148.5240 O   0  0  0  0  0  0  0  0  0  0  0  0
  160.8870  202.8530  150.4810 C   0  0  2  0  0  0  0  0  0  0  0  0
  160.8820  201.9840  151.6890 C   0  0  0  0  0  2  0  0  0  0  0  0
  159.7500  202.1170  150.8640 O   0  0  0  0  0  0  0  0  0  0  0  0
  160.6320  204.3000  150.5900 N   0  0  0  0  0  2  0  0  0  0  0  0
  161.7210  205.0180  151.2510 C   0  0  2  0  0  3  0  0  0  0  0  0
  162.4790  204.1200  152.0100 O   0  0  0  0  0  1  0  0  0  0  0  0
  162.0590  207.3750  151.9880 C   0  0  0  0  0  1  0  0  0  0  0  0
  161.1760  206.1420  152.1250 C   0  0  2  0  0  3  0  0  0  0  0  0
  161.1760  206.9140  154.5090 C   0  0  0  0  0  1  0  0  0  0  0  0
  161.0720  205.7150  153.5860 C   0  0  0  0  0  2  0  0  0  0  0  0
  159.7780  201.2230  144.4160 O   0  0  0  0  0  1  0  0  0  0  0  0
  160.7820  201.2530  145.3820 C   0  0  0  0  0  2  0  0  0  0  0  0
  161.1830  211.3750  155.7550 O   0  0  0  0  0  0  0  0  0  0  0  0
  160.5120  212.2640  156.6490 C   0  0  0  0  0  1  0  0  0  0  0  0
  158.8360  213.9230  148.4820 C   0  0  0  0  0  2  0  0  0  0  0  0
  158.8680  213.3160  146.0090 N   0  0  0  0  0  2  0  0  0  0  0  0
  158.3320  213.1190  147.3200 C   0  0  0  0  0  0  0  0  0  0  0  0
  157.4590  212.2290  147.5050 O   0  0  0  0  0  0  0  0  0  0  0  0
  159.9000  214.3060  145.7340 C   0  0  0  0  0  2  0  0  0  0  0  0
  161.4830  213.2470  141.3570 N   0  0  0  0  0  2  0  0  0  0  0  0
  162.3900  214.4530  145.3620 C   0  0  1  0  0  3  0  0  0  0  0  0
  161.1100  213.6510  145.0640 C   0  0  2  0  0  3  0  0  0  0  0  0
  162.8110  214.2430  146.8000 C   0  0  0  0  0  1  0  0  0  0  0  0
  159.3840  212.6890  142.9190 S   0  0  0  0  0  0  0  0  0  0  0  0
  161.8260  213.6330  142.6760 C   0  0  0  0  0  0  0  0  0  0  0  0
  163.1610  214.2440  142.9950 C   0  0  0  0  0  2  0  0  0  0  0  0
  160.2440  212.4880  141.3170 C   0  0  1  0  0  3  0  0  0  0  0  0
  160.8790  213.4450  143.5820 C   0  0  0  0  0  0  0  0  0  0  0  0
  163.5260  214.0050  144.4550 C   0  0  0  0  0  2  0  0  0  0  0  0
  159.4180  212.8190  140.0730 C   0  0  0  0  0  2  0  0  0  0  0  0
  159.5600  211.9230  138.8330 C   0  0  2  0  0  0  0  0  0  0  0  0
  159.3370  212.7940  137.5840 C   0  0  0  0  0  2  0  0  0  0  0  0
  158.5670  210.7710  138.8470 C   0  0  0  0  0  0  0  0  0  0  0  0
  157.3300  213.9530  138.2670 O   0  0  0  0  0  1  0  0  0  0  0  0
  158.9110  209.6560  139.2170 O   0  0  0  0  0  0  0  0  0  0  0  0
  157.1330  211.0150  138.4790 C   0  0  0  0  0  2  0  0  0  0  0  0
  157.0470  211.8250  137.1830 C   0  0  0  0  0  2  0  0  0  0  0  0
  157.8620  213.1140  137.2860 C   0  0  2  0  0  3  0  0  0  0  0  0
  160.8600  211.4280  138.7770 O   0  0  0  0  0  1  0  0  0  0  0  0
  1 13  1  6  0  0  0
  1  8  1  0  0  0  0
  2  3  1  0  0  0  0
  3  9  1  0  0  0  0
  4 10  2  0  0  0  0
  5  7  1  0  0  0  0
  6  5  2  0  0  0  0
  6  1  1  0  0  0  0
  7  2  1  0  0  0  0
  8  2  2  0  0  0  0
  8  4  1  0  0  0  0
  9 11  2  0  0  0  0
 10 11  1  0  0  0  0
 11 44  1  0  0  0  0
 13 12  1  6  0  0  0
 14 13  1  0  0  0  0
 15 14  1  0  0  0  0
 16 15  2  0  0  0  0
 17 15  1  0  0  0  0
 17 18  2  0  0  0  0
 19 17  1  0  0  0  0
 20 19  1  0  0  0  0
 21 22  1  1  0  0  0
 21 24  1  0  0  0  0
 21 20  1  0  0  0  0
 24 23  2  0  0  0  0
 25 24  2  0  0  0  0
 26 24  1  6  0  0  0
 26 27  1  0  0  0  0
 28 43  1  6  0  0  0
 28 26  1  0  0  0  0
 28 30  1  0  0  0  0
 29 27  1  6  0  0  0
 29 32  1  0  0  0  0
 30 31  1  0  0  0  0
 31 29  1  0  0  0  0
 32 35  1  1  0  0  0
 32 34  1  0  0  0  0
 32 33  1  0  0  0  0
 34 33  1  0  0  0  0
 35 36  1  0  0  0  0
 36 37  1  1  0  0  0
 36 39  1  0  0  0  0
 39 38  1  1  0  0  0
 39 41  1  0  0  0  0
 41 40  1  0  0  0  0
 42 43  1  0  0  0  0
 44 45  1  0  0  0  0
 46  5  1  0  0  0  0
 47 48  1  0  0  0  0
 48 49  2  0  0  0  0
 48 46  1  0  0  0  0
 50 47  1  0  0  0  0
 51 56  1  0  0  0  0
 52 54  1  1  0  0  0
 53 52  1  0  0  0  0
 53 50  1  6  0  0  0
 55 59  1  0  0  0  0
 56 57  1  0  0  0  0
 56 59  2  0  0  0  0
 57 60  1  0  0  0  0
 58 61  1  6  0  0  0
 58 51  1  0  0  0  0
 58 55  1  0  0  0  0
 59 53  1  0  0  0  0
 60 52  1  0  0  0  0
 62 70  1  6  0  0  0
 62 64  1  0  0  0  0
 62 61  1  0  0  0  0
 63 62  1  0  0  0  0
 64 66  2  0  0  0  0
 67 64  1  0  0  0  0
 68 69  1  0  0  0  0
 68 67  1  0  0  0  0
 69 63  1  0  0  0  0
 69 65  1  1  0  0  0
M  END
>  <MODEL>
2

>  <REMARK>
 VINA RESULT:      -4.1      2.018      4.235
  Name = 
  22 active torsions:
  status: ('A' for Active; 'I' for Inactive)
    1  A    between atoms: C_1  and  S_58
    2  A    between atoms: C_2  and  C_64
    3  A    between atoms: C_4  and  C_41
    4  A    between atoms: C_4  and  N_43
    5  A    between atoms: C_7  and  C_31
    6  A    between atoms: C_7  and  C_45
    7  A    between atoms: C_9  and  C_25
    8  A    between atoms: C_11  and  C_23
    9  A    between atoms: C_11  and  C_32
   10  A    between atoms: C_16  and  C_27
   11  A    between atoms: C_17  and  C_29
   12  A    between atoms: C_19  and  C_54
   13  A    between atoms: N_22  and  C_49
   14  A    between atoms: C_23  and  C_64
   15  A    between atoms: C_25  and  C_50
   16  A    between atoms: C_26  and  C_49
   17  A    between atoms: C_27  and  C_35
   18  A    between atoms: C_29  and  C_60
   19  A    between atoms: C_31  and  C_32
   20  A    between atoms: C_35  and  N_43
   21  A    between atoms: O_39  and  C_70
   22  A    between atoms: C_45  and  S_58
                            x       y       z     vdW  Elec       q    Type
                         _______ _______ _______ _____ _____    ______ ____

>  <TORSDO>
F 22

$$$$
