=
 OpenBabel11042420173D

 70 75  0  0  1  0  0  0  0  0999 V2000
  158.9960  211.8190  143.9270 N   0  0  0  0  0  0  0  0  0  0  0  0
  159.1510  212.7220  142.8200 C   0  0  0  0  0  0  0  0  0  0  0  0
  158.0750  213.5370  142.4140 C   0  0  0  0  0  3  0  0  0  0  0  0
  158.1990  214.3940  141.3380 C   0  0  0  0  0  3  0  0  0  0  0  0
  160.4720  213.6660  140.9970 C   0  0  0  0  0  3  0  0  0  0  0  0
  160.3550  212.8240  142.1020 C   0  0  0  0  0  3  0  0  0  0  0  0
  159.3860  214.4530  140.6070 C   0  0  0  0  0  3  0  0  0  0  0  0
  159.8800  210.6080  144.0690 C   0  0  0  0  0  2  0  0  0  0  0  0
  160.3580  209.9850  142.7360 C   0  0  0  0  0  2  0  0  0  0  0  0
  161.6620  208.1800  141.9300 N   0  0  0  0  0  0  0  0  0  0  0  0
  160.8690  208.6290  142.8430 N   0  0  0  0  0  0  0  0  0  0  0  0
  162.1700  206.8350  142.0290 C   0  0  0  0  0  0  0  0  0  0  0  0
  162.3810  206.1750  140.9950 O   0  0  0  0  0  0  0  0  0  0  0  0
  161.6440  203.7680  144.1220 C   0  0  0  0  0  2  0  0  0  0  0  0
  159.6010  205.5900  146.0740 O   0  0  0  0  0  1  0  0  0  0  0  0
  161.4640  204.2580  145.4970 N   0  0  0  0  0  0  0  0  0  0  0  0
  160.9420  205.6190  145.6440 C   0  0  1  0  0  3  0  0  0  0  0  0
  162.3330  206.1350  143.3980 C   0  0  1  0  0  3  0  0  0  0  0  0
  161.0840  206.4100  144.2890 C   0  0  0  0  0  2  0  0  0  0  0  0
  162.5890  204.6610  143.2260 C   0  0  0  0  0  2  0  0  0  0  0  0
  161.4070  203.3720  146.7530 C   0  0  2  0  0  3  0  0  0  0  0  0
  159.8410  201.2920  144.7150 C   0  0  0  0  0  2  0  0  0  0  0  0
  161.2800  199.8270  146.2620 O   0  0  0  0  0  0  0  0  0  0  0  0
  159.6950  202.6500  145.1590 N   0  0  0  0  0  2  0  0  0  0  0  0
  160.4220  202.2660  146.3450 C   0  0  1  0  0  3  0  0  0  0  0  0
  160.7190  200.8560  145.8800 C   0  0  0  0  0  0  0  0  0  0  0  0
  161.1670  204.1260  148.1360 C   0  0  1  0  0  3  0  0  0  0  0  0
  161.6840  203.5130  149.2880 O   0  0  0  0  0  0  0  0  0  0  0  0
  161.2040  202.2680  149.8060 C   0  0  0  0  0  0  0  0  0  0  0  0
  161.6810  201.1880  149.4630 O   0  0  0  0  0  0  0  0  0  0  0  0
  160.1650  202.3790  150.8670 C   0  0  0  0  0  2  0  0  0  0  0  0
  159.6070  204.8890  152.2190 O   0  0  0  0  0  1  0  0  0  0  0  0
  160.7060  203.6070  152.1300 P   0  0  0  0  0  0  0  0  0  0  0  0
  162.2420  204.2230  151.7450 O   0  0  0  0  0  0  0  0  0  0  0  0
  160.7160  202.9290  153.4950 O   0  0  0  0  0  1  0  0  0  0  0  0
  161.0190  205.6710  148.2110 C   0  0  0  0  0  2  0  0  0  0  0  0
  161.9070  206.2230  149.3410 C   0  0  0  0  0  2  0  0  0  0  0  0
  159.7010  206.6790  150.2380 O   0  0  0  0  0  1  0  0  0  0  0  0
  161.0680  206.6510  150.5460 C   0  0  0  0  0  2  0  0  0  0  0  0
  158.0750  212.2410  145.0320 C   0  0  0  0  0  2  0  0  0  0  0  0
  159.5910  211.8700  147.5070 O   0  0  0  0  0  1  0  0  0  0  0  0
  158.8170  213.0140  146.5440 P   0  0  1  0  0  0  0  0  0  0  0  0
  159.9220  213.9300  146.0920 O   0  0  0  0  0  0  0  0  0  0  0  0
  157.6050  213.7300  147.5690 O   0  0  0  0  0  0  0  0  0  0  0  0
  158.3180  214.4280  148.5690 C   0  0  0  0  0  2  0  0  0  0  0  0
  160.3520  212.0310  151.0920 C   0  0  2  0  0  3  0  0  0  0  0  0
  161.6530  212.4410  150.4200 C   0  0  0  0  0  2  0  0  0  0  0  0
  159.4640  213.6070  149.1300 C   0  0  0  0  0  0  0  0  0  0  0  0
  159.2870  213.0150  150.5780 C   0  0  0  0  0  2  0  0  0  0  0  0
  161.8210  212.6830  148.8870 C   0  0  2  0  0  3  0  0  0  0  0  0
  160.6520  213.5190  148.4650 C   0  0  0  0  0  3  0  0  0  0  0  0
  160.5350  211.6880  152.7370 C   0  0  1  0  0  3  0  0  0  0  0  0
  159.6350  212.5830  153.2350 O   0  0  0  0  0  0  0  0  0  0  0  0
  158.0710  210.8930  154.0600 C   0  0  0  0  0  2  0  0  0  0  0  0
  157.2980  212.1560  154.1710 C   0  0  2  0  0  3  0  0  0  0  0  0
  158.8500  212.1280  154.4170 C   0  0  2  0  0  3  0  0  0  0  0  0
  156.4250  212.4840  156.6320 O   0  0  0  0  0  1  0  0  0  0  0  0
  156.3190  211.7490  155.4260 C   0  0  0  0  0  2  0  0  0  0  0  0
  160.3030  210.4340  153.3740 O   0  0  0  0  0  0  0  0  0  0  0  0
  161.8890  209.0100  152.3510 O   0  0  0  0  0  1  0  0  0  0  0  0
  161.7250  209.5500  154.0150 P   0  0  2  0  0  0  0  0  0  0  0  0
  161.3790  207.4810  155.6590 O   0  0  0  0  0  0  0  0  0  0  0  0
  160.5210  208.4530  156.2340 C   0  0  0  0  0  2  0  0  0  0  0  0
  160.5630  208.2780  154.7530 C   0  0  1  0  0  3  0  0  0  0  0  0
  161.9730  211.4330  148.1280 O   0  0  0  0  0  0  0  0  0  0  0  0
  162.9950  210.5420  148.3560 C   0  0  0  0  0  0  0  0  0  0  0  0
  164.2500  210.8830  148.1750 O   0  0  0  0  0  0  0  0  0  0  0  0
  161.5170  208.8940  149.2020 O   0  0  0  0  0  1  0  0  0  0  0  0
  162.6870  209.2280  148.7730 C   0  0  0  0  0  0  0  0  0  0  0  0
  163.6100  208.2230  148.6430 O   0  0  0  0  0  0  0  0  0  0  0  0
  1  8  1  0  0  0  0
  1 40  1  0  0  0  0
  2  1  1  0  0  0  0
  3  2  1  0  0  0  0
  4  3  2  0  0  0  0
  5  6  1  0  0  0  0
  6  2  2  0  0  0  0
  7  5  2  0  0  0  0
  7  4  1  0  0  0  0
  9 11  1  0  0  0  0
  9  8  1  0  0  0  0
 10 12  1  0  0  0  0
 10 11  2  0  0  0  0
 13 12  2  0  0  0  0
 14 16  1  0  0  0  0
 16 17  1  0  0  0  0
 16 21  1  0  0  0  0
 17 15  1  6  0  0  0
 18 12  1  6  0  0  0
 18 19  1  0  0  0  0
 19 17  1  0  0  0  0
 20 18  1  0  0  0  0
 20 14  1  0  0  0  0
 21 27  1  1  0  0  0
 22 24  1  0  0  0  0
 22 26  1  0  0  0  0
 24 25  1  0  0  0  0
 25 21  1  6  0  0  0
 26 23  2  0  0  0  0
 26 25  1  0  0  0  0
 27 36  1  6  0  0  0
 27 28  1  0  0  0  0
 28 29  1  0  0  0  0
 29 31  1  0  0  0  0
 30 29  2  0  0  0  0
 31 33  1  0  0  0  0
 33 32  1  0  0  0  0
 33 35  1  0  0  0  0
 34 33  2  0  0  0  0
 36 37  1  0  0  0  0
 37 39  1  0  0  0  0
 38 39  1  0  0  0  0
 40 42  1  0  0  0  0
 42 43  2  6  0  0  0
 42 41  1  0  0  0  0
 42 44  1  0  0  0  0
 44 45  1  0  0  0  0
 45 48  1  0  0  0  0
 46 52  1  1  0  0  0
 47 46  1  0  0  0  0
 48 49  1  0  0  0  0
 49 46  1  0  0  0  0
 50 65  1  6  0  0  0
 50 47  1  0  0  0  0
 51 50  1  0  0  0  0
 51 48  2  0  0  0  0
 52 53  1  1  0  0  0
 52 59  1  0  0  0  0
 54 55  1  0  0  0  0
 54 56  1  0  0  0  0
 55 56  1  0  0  0  0
 55 58  1  1  0  0  0
 56 53  1  6  0  0  0
 58 57  1  0  0  0  0
 59 61  1  0  0  0  0
 61 60  1  6  0  0  0
 62 63  1  0  0  0  0
 64 61  1  6  0  0  0
 64 62  1  0  0  0  0
 64 63  1  0  0  0  0
 65 66  1  0  0  0  0
 66 69  1  0  0  0  0
 67 66  2  0  0  0  0
 69 68  1  0  0  0  0
 70 69  2  0  0  0  0
M  END
>  <MODEL>
1

>  <REMARK>
 VINA RESULT:      11.5      0.000      0.000
  Name = 
  31 active torsions:
  status: ('A' for Active; 'I' for Inactive)
    1  A    between atoms: C_4  and  N_20
    2  A    between atoms: C_7  and  C_67
    3  A    between atoms: C_9  and  P_16
    4  A    between atoms: C_9  and  C_36
    5  A    between atoms: O_14  and  C_22
    6  A    between atoms: O_14  and  P_30
    7  A    between atoms: C_15  and  C_21
    8  A    between atoms: C_15  and  O_37
    9  A    between atoms: C_15  and  C_52
   10  A    between atoms: C_17  and  N_20
   11  A    between atoms: C_17  and  P_30
   12  A    between atoms: C_18  and  N_34
   13  A    between atoms: C_18  and  C_56
   14  A    between atoms: N_20  and  C_33
   15  A    between atoms: C_21  and  C_45
   16  A    between atoms: C_22  and  C_31
   17  A    between atoms: C_24  and  C_40
   18  A    between atoms: O_25  and  P_35
   19  A    between atoms: O_25  and  C_67
   20  A    between atoms: C_27  and  C_52
   21  A    between atoms: O_32  and  C_40
   22  A    between atoms: O_32  and  C_58
   23  A    between atoms: C_33  and  C_60
   24  A    between atoms: P_35  and  C_68
   25  A    between atoms: C_36  and  O_37
   26  A    between atoms: N_38  and  C_52
   27  A    between atoms: N_43  and  C_60
   28  A    between atoms: C_45  and  C_64
   29  A    between atoms: C_48  and  C_62
   30  A    between atoms: O_50  and  C_57
   31  A    between atoms: O_50  and  C_67
                            x       y       z     vdW  Elec       q    Type
                         _______ _______ _______ _____ _____    ______ ____

>  <TORSDO>
F 31

$$$$
=
 OpenBabel11042420173D

 70 75  0  0  1  0  0  0  0  0999 V2000
  161.1610  203.4820  151.7720 N   0  0  0  0  0  0  0  0  0  0  0  0
  160.1620  202.6750  151.1270 C   0  0  0  0  0  0  0  0  0  0  0  0
  159.9500  201.3450  151.5400 C   0  0  0  0  0  3  0  0  0  0  0  0
  159.0100  200.5490  150.9150 C   0  0  0  0  0  3  0  0  0  0  0  0
  158.4470  202.3530  149.4190 C   0  0  0  0  0  3  0  0  0  0  0  0
  159.3750  203.1660  150.0700 C   0  0  0  0  0  3  0  0  0  0  0  0
  158.2660  201.0330  149.8390 C   0  0  0  0  0  3  0  0  0  0  0  0
  162.1700  202.8660  152.7050 C   0  0  0  0  0  2  0  0  0  0  0  0
  163.0010  201.7070  152.1020 C   0  0  0  0  0  2  0  0  0  0  0  0
  162.0010  200.5760  150.2770 N   0  0  0  0  0  0  0  0  0  0  0  0
  162.8120  201.4970  150.6770 N   0  0  0  0  0  0  0  0  0  0  0  0
  161.8110  200.3600  148.8660 C   0  0  0  0  0  0  0  0  0  0  0  0
  162.1650  199.2850  148.3500 O   0  0  0  0  0  0  0  0  0  0  0  0
  162.4140  202.5610  145.8900 C   0  0  0  0  0  2  0  0  0  0  0  0
  162.3820  205.1970  147.9750 O   0  0  0  0  0  1  0  0  0  0  0  0
  161.7080  203.8170  146.1810 N   0  0  0  0  0  0  0  0  0  0  0  0
  161.5210  204.1500  147.5950 C   0  0  1  0  0  3  0  0  0  0  0  0
  161.2990  201.4900  147.9400 C   0  0  1  0  0  3  0  0  0  0  0  0
  161.7500  202.8760  148.4930 C   0  0  0  0  0  2  0  0  0  0  0  0
  161.7530  201.2740  146.5210 C   0  0  0  0  0  2  0  0  0  0  0  0
  161.4960  204.9670  145.1820 C   0  0  2  0  0  3  0  0  0  0  0  0
  160.6420  208.0370  146.0620 C   0  0  0  0  0  2  0  0  0  0  0  0
  159.2590  206.4590  147.5470 O   0  0  0  0  0  0  0  0  0  0  0  0
  161.7270  207.3970  145.3720 N   0  0  0  0  0  2  0  0  0  0  0  0
  161.3850  206.1970  146.0970 C   0  0  1  0  0  3  0  0  0  0  0  0
  160.1540  206.7760  146.7600 C   0  0  0  0  0  0  0  0  0  0  0  0
  160.3710  204.7420  144.0770 C   0  0  1  0  0  3  0  0  0  0  0  0
  160.3080  205.6820  143.0370 O   0  0  0  0  0  0  0  0  0  0  0  0
  161.4390  206.0660  142.2470 C   0  0  0  0  0  0  0  0  0  0  0  0
  162.5430  205.5430  142.3860 O   0  0  0  0  0  0  0  0  0  0  0  0
  161.1570  207.0610  141.1760 C   0  0  0  0  0  2  0  0  0  0  0  0
  162.7100  205.7510  139.1000 O   0  0  0  0  0  1  0  0  0  0  0  0
  162.5980  207.1570  140.0330 P   0  0  0  0  0  0  0  0  0  0  0  0
  164.0420  207.3560  140.9060 O   0  0  0  0  0  1  0  0  0  0  0  0
  162.3780  208.3170  139.0690 O   0  0  0  0  0  0  0  0  0  0  0  0
  159.8380  203.3240  143.7280 C   0  0  0  0  0  2  0  0  0  0  0  0
  159.7390  202.4770  145.0100 C   0  0  0  0  0  2  0  0  0  0  0  0
  158.5400  200.3840  144.7610 O   0  0  0  0  0  1  0  0  0  0  0  0
  159.8050  200.9820  144.6930 C   0  0  0  0  0  2  0  0  0  0  0  0
  161.2900  204.9040  151.3200 C   0  0  0  0  0  2  0  0  0  0  0  0
  162.5370  205.7440  153.8300 O   0  0  0  0  0  1  0  0  0  0  0  0
  161.4780  206.2210  152.6100 P   0  0  1  0  0  0  0  0  0  0  0  0
  162.1590  207.3980  151.9650 O   0  0  0  0  0  0  0  0  0  0  0  0
  159.9730  206.5600  153.4170 O   0  0  0  0  0  0  0  0  0  0  0  0
  160.3280  207.0140  154.7060 C   0  0  0  0  0  2  0  0  0  0  0  0
  160.3400  210.8950  153.6170 C   0  0  2  0  0  3  0  0  0  0  0  0
  161.6270  211.1030  154.4000 C   0  0  0  0  0  2  0  0  0  0  0  0
  160.6900  208.4870  154.7140 C   0  0  0  0  0  0  0  0  0  0  0  0
  160.1420  209.3710  153.5320 C   0  0  0  0  0  2  0  0  0  0  0  0
  161.9490  210.4280  155.7700 C   0  0  2  0  0  3  0  0  0  0  0  0
  161.5760  208.9840  155.6250 C   0  0  0  0  0  3  0  0  0  0  0  0
  160.2230  211.8910  152.2570 C   0  0  1  0  0  3  0  0  0  0  0  0
  161.1740  211.2940  151.4830 O   0  0  0  0  0  0  0  0  0  0  0  0
  162.3090  211.6060  149.3380 C   0  0  0  0  0  2  0  0  0  0  0  0
  161.4260  212.7960  149.4330 C   0  0  2  0  0  3  0  0  0  0  0  0
  160.9790  211.4050  150.0090 C   0  0  2  0  0  3  0  0  0  0  0  0
  159.8760  213.3480  147.3790 O   0  0  0  0  0  1  0  0  0  0  0  0
  161.1910  213.0710  147.8310 C   0  0  0  0  0  2  0  0  0  0  0  0
  159.0660  212.0950  151.4490 O   0  0  0  0  0  0  0  0  0  0  0  0
  159.6650  214.1290  152.4930 O   0  0  0  0  0  1  0  0  0  0  0  0
  158.4750  213.7750  151.2510 P   0  0  2  0  0  0  0  0  0  0  0  0
  157.3530  212.2040  153.0890 O   0  0  0  0  0  0  0  0  0  0  0  0
  157.2550  213.4800  153.7010 C   0  0  0  0  0  2  0  0  0  0  0  0
  156.9530  213.3240  152.2480 C   0  0  1  0  0  3  0  0  0  0  0  0
  161.3020  211.1050  156.9040 O   0  0  0  0  0  0  0  0  0  0  0  0
  159.9370  211.2380  157.0120 C   0  0  0  0  0  0  0  0  0  0  0  0
  159.1650  210.1960  157.2140 O   0  0  0  0  0  0  0  0  0  0  0  0
  158.1310  212.7600  157.2100 O   0  0  0  0  0  1  0  0  0  0  0  0
  159.3560  212.5180  156.8830 C   0  0  0  0  0  0  0  0  0  0  0  0
  160.1150  213.5900  156.4900 O   0  0  0  0  0  0  0  0  0  0  0  0
  1  8  1  0  0  0  0
  2  3  1  0  0  0  0
  2  1  1  0  0  0  0
  4  3  2  0  0  0  0
  5  7  2  0  0  0  0
  5  6  1  0  0  0  0
  6  2  2  0  0  0  0
  7  4  1  0  0  0  0
  9  8  1  0  0  0  0
 10 11  2  0  0  0  0
 11  9  1  0  0  0  0
 12 10  1  0  0  0  0
 13 12  2  0  0  0  0
 14 16  1  0  0  0  0
 14 20  1  0  0  0  0
 16 17  1  0  0  0  0
 17 15  1  1  0  0  0
 17 19  1  0  0  0  0
 18 19  1  0  0  0  0
 18 12  1  1  0  0  0
 20 18  1  0  0  0  0
 21 27  1  1  0  0  0
 21 16  1  0  0  0  0
 22 26  1  0  0  0  0
 24 22  1  0  0  0  0
 24 25  1  0  0  0  0
 25 21  1  6  0  0  0
 25 26  1  0  0  0  0
 26 23  2  0  0  0  0
 27 36  1  6  0  0  0
 28 27  1  0  0  0  0
 29 30  2  0  0  0  0
 29 28  1  0  0  0  0
 31 29  1  0  0  0  0
 32 33  1  0  0  0  0
 33 34  1  0  0  0  0
 33 31  1  0  0  0  0
 35 33  2  0  0  0  0
 36 37  1  0  0  0  0
 39 38  1  0  0  0  0
 39 37  1  0  0  0  0
 40  1  1  0  0  0  0
 40 42  1  0  0  0  0
 42 43  2  6  0  0  0
 42 44  1  0  0  0  0
 42 41  1  0  0  0  0
 44 45  1  0  0  0  0
 45 48  1  0  0  0  0
 46 52  1  6  0  0  0
 46 47  1  0  0  0  0
 47 50  1  0  0  0  0
 48 51  2  0  0  0  0
 49 46  1  0  0  0  0
 49 48  1  0  0  0  0
 50 65  1  1  0  0  0
 51 50  1  0  0  0  0
 52 59  1  6  0  0  0
 53 52  1  0  0  0  0
 54 55  1  0  0  0  0
 54 56  1  0  0  0  0
 55 58  1  6  0  0  0
 55 56  1  0  0  0  0
 56 53  1  1  0  0  0
 57 58  1  0  0  0  0
 61 59  1  0  0  0  0
 61 60  1  1  0  0  0
 62 63  1  0  0  0  0
 64 61  1  6  0  0  0
 64 62  1  0  0  0  0
 64 63  1  0  0  0  0
 65 66  1  0  0  0  0
 66 67  2  0  0  0  0
 69 66  1  0  0  0  0
 69 68  1  0  0  0  0
 70 69  2  0  0  0  0
M  END
>  <MODEL>
2

>  <REMARK>
 VINA RESULT:      12.5      2.976      8.919
  Name = 
  31 active torsions:
  status: ('A' for Active; 'I' for Inactive)
    1  A    between atoms: C_4  and  N_20
    2  A    between atoms: C_7  and  C_67
    3  A    between atoms: C_9  and  P_16
    4  A    between atoms: C_9  and  C_36
    5  A    between atoms: O_14  and  C_22
    6  A    between atoms: O_14  and  P_30
    7  A    between atoms: C_15  and  C_21
    8  A    between atoms: C_15  and  O_37
    9  A    between atoms: C_15  and  C_52
   10  A    between atoms: C_17  and  N_20
   11  A    between atoms: C_17  and  P_30
   12  A    between atoms: C_18  and  N_34
   13  A    between atoms: C_18  and  C_56
   14  A    between atoms: N_20  and  C_33
   15  A    between atoms: C_21  and  C_45
   16  A    between atoms: C_22  and  C_31
   17  A    between atoms: C_24  and  C_40
   18  A    between atoms: O_25  and  P_35
   19  A    between atoms: O_25  and  C_67
   20  A    between atoms: C_27  and  C_52
   21  A    between atoms: O_32  and  C_40
   22  A    between atoms: O_32  and  C_58
   23  A    between atoms: C_33  and  C_60
   24  A    between atoms: P_35  and  C_68
   25  A    between atoms: C_36  and  O_37
   26  A    between atoms: N_38  and  C_52
   27  A    between atoms: N_43  and  C_60
   28  A    between atoms: C_45  and  C_64
   29  A    between atoms: C_48  and  C_62
   30  A    between atoms: O_50  and  C_57
   31  A    between atoms: O_50  and  C_67
                            x       y       z     vdW  Elec       q    Type
                         _______ _______ _______ _____ _____    ______ ____

>  <TORSDO>
F 31

$$$$
=
 OpenBabel11042420173D

 70 75  0  0  1  0  0  0  0  0999 V2000
  161.3510  203.3960  151.2810 N   0  0  0  0  0  0  0  0  0  0  0  0
  160.2400  202.7130  150.6790 C   0  0  0  0  0  0  0  0  0  0  0  0
  159.9500  201.3800  151.0360 C   0  0  0  0  0  3  0  0  0  0  0  0
  158.8990  200.7010  150.4510 C   0  0  0  0  0  3  0  0  0  0  0  0
  158.3730  202.6320  149.1070 C   0  0  0  0  0  3  0  0  0  0  0  0
  159.4150  203.3270  149.7210 C   0  0  0  0  0  3  0  0  0  0  0  0
  158.1150  201.3080  149.4690 C   0  0  0  0  0  3  0  0  0  0  0  0
  162.4320  202.6340  152.0010 C   0  0  0  0  0  2  0  0  0  0  0  0
  163.1310  201.5360  151.1630 C   0  0  0  0  0  2  0  0  0  0  0  0
  162.0620  200.8950  149.1490 N   0  0  0  0  0  0  0  0  0  0  0  0
  162.9380  201.6470  149.7270 N   0  0  0  0  0  0  0  0  0  0  0  0
  161.8660  200.9970  147.7260 C   0  0  0  0  0  0  0  0  0  0  0  0
  162.1970  200.0540  146.9860 O   0  0  0  0  0  0  0  0  0  0  0  0
  161.5960  203.1140  144.6420 C   0  0  0  0  0  2  0  0  0  0  0  0
  163.5200  205.4010  146.1810 O   0  0  0  0  0  1  0  0  0  0  0  0
  161.6100  204.5060  145.1190 N   0  0  0  0  0  0  0  0  0  0  0  0
  162.2880  204.7530  146.3930 C   0  0  1  0  0  3  0  0  0  0  0  0
  161.3790  202.3120  147.0730 C   0  0  1  0  0  3  0  0  0  0  0  0
  162.4870  203.4030  147.1800 C   0  0  0  0  0  2  0  0  0  0  0  0
  160.9500  202.0830  145.6480 C   0  0  0  0  0  2  0  0  0  0  0  0
  161.3310  205.7430  144.2500 C   0  0  2  0  0  3  0  0  0  0  0  0
  158.2110  204.8200  144.8370 C   0  0  0  0  0  2  0  0  0  0  0  0
  158.8050  206.5280  146.6650 O   0  0  0  0  0  0  0  0  0  0  0  0
  159.1350  204.7870  143.7390 N   0  0  0  0  0  2  0  0  0  0  0  0
  159.8060  205.9010  144.3630 C   0  0  1  0  0  3  0  0  0  0  0  0
  158.9440  205.9090  145.6070 C   0  0  0  0  0  0  0  0  0  0  0  0
  161.9860  205.7460  142.7980 C   0  0  1  0  0  3  0  0  0  0  0  0
  161.9050  206.9440  142.0710 O   0  0  0  0  0  0  0  0  0  0  0  0
  161.9620  207.0090  140.6420 C   0  0  0  0  0  0  0  0  0  0  0  0
  161.2960  206.2630  139.9250 O   0  0  0  0  0  0  0  0  0  0  0  0
  162.7960  208.1100  140.0880 C   0  0  0  0  0  2  0  0  0  0  0  0
  162.6290  210.7710  138.9350 O   0  0  0  0  0  1  0  0  0  0  0  0
  161.7160  209.5310  139.6350 P   0  0  0  0  0  0  0  0  0  0  0  0
  160.9210  210.1400  141.0080 O   0  0  0  0  0  1  0  0  0  0  0  0
  160.7140  209.0660  138.5850 O   0  0  0  0  0  0  0  0  0  0  0  0
  163.1870  204.8280  142.4390 C   0  0  0  0  0  2  0  0  0  0  0  0
  163.6220  205.0870  140.9860 C   0  0  0  0  0  2  0  0  0  0  0  0
  164.9410  203.1040  140.5320 O   0  0  0  0  0  1  0  0  0  0  0  0
  163.7570  203.7780  140.2060 C   0  0  0  0  0  2  0  0  0  0  0  0
  161.5000  204.8580  150.9830 C   0  0  0  0  0  2  0  0  0  0  0  0
  162.5790  205.3360  153.6600 O   0  0  0  0  0  1  0  0  0  0  0  0
  161.6920  206.0280  152.4060 P   0  0  1  0  0  0  0  0  0  0  0  0
  162.5430  207.1780  151.9380 O   0  0  0  0  0  0  0  0  0  0  0  0
  160.1570  206.4520  153.1110 O   0  0  0  0  0  0  0  0  0  0  0  0
  160.4650  207.0780  154.3390 C   0  0  0  0  0  2  0  0  0  0  0  0
  160.6380  210.7990  152.7990 C   0  0  2  0  0  3  0  0  0  0  0  0
  161.9820  211.0090  153.4780 C   0  0  0  0  0  2  0  0  0  0  0  0
  160.9130  208.5150  154.1510 C   0  0  0  0  0  0  0  0  0  0  0  0
  160.3450  209.2920  152.9060 C   0  0  0  0  0  2  0  0  0  0  0  0
  162.3500  210.4760  154.8990 C   0  0  2  0  0  3  0  0  0  0  0  0
  161.8830  209.0530  154.9460 C   0  0  0  0  0  3  0  0  0  0  0  0
  160.4950  211.6380  151.3380 C   0  0  1  0  0  3  0  0  0  0  0  0
  160.0400  212.8260  151.8280 O   0  0  0  0  0  0  0  0  0  0  0  0
  157.7600  213.6470  152.1610 C   0  0  0  0  0  2  0  0  0  0  0  0
  158.4760  214.1300  153.3690 C   0  0  2  0  0  3  0  0  0  0  0  0
  158.8380  212.7520  152.7060 C   0  0  2  0  0  3  0  0  0  0  0  0
  155.9880  213.5730  154.0230 O   0  0  0  0  0  1  0  0  0  0  0  0
  157.2140  214.1630  154.4200 C   0  0  0  0  0  2  0  0  0  0  0  0
  161.5420  211.9170  150.4120 O   0  0  0  0  0  0  0  0  0  0  0  0
  162.7220  211.3030  148.4580 O   0  0  0  0  0  1  0  0  0  0  0  0
  161.1180  211.9860  148.6720 P   0  0  2  0  0  0  0  0  0  0  0  0
  162.3030  214.0900  147.5440 O   0  0  0  0  0  0  0  0  0  0  0  0
  160.9310  214.4370  147.4350 C   0  0  0  0  0  2  0  0  0  0  0  0
  161.4490  213.8300  148.6960 C   0  0  1  0  0  3  0  0  0  0  0  0
  161.8170  211.3200  155.9780 O   0  0  0  0  0  0  0  0  0  0  0  0
  160.4760  211.5960  156.1160 C   0  0  0  0  0  0  0  0  0  0  0  0
  160.0170  212.8200  155.9980 O   0  0  0  0  0  0  0  0  0  0  0  0
  158.4290  210.4330  155.8410 O   0  0  0  0  0  0  0  0  0  0  0  0
  159.5810  210.5440  156.4110 C   0  0  0  0  0  0  0  0  0  0  0  0
  159.9540  209.5310  157.2570 O   0  0  0  0  0  1  0  0  0  0  0  0
  1  8  1  0  0  0  0
  2  3  1  0  0  0  0
  2  1  1  0  0  0  0
  4  3  2  0  0  0  0
  5  7  2  0  0  0  0
  5  6  1  0  0  0  0
  6  2  2  0  0  0  0
  7  4  1  0  0  0  0
  9  8  1  0  0  0  0
 10 11  2  0  0  0  0
 11  9  1  0  0  0  0
 12 10  1  0  0  0  0
 13 12  2  0  0  0  0
 14 16  1  0  0  0  0
 14 20  1  0  0  0  0
 16 17  1  0  0  0  0
 17 15  1  6  0  0  0
 17 19  1  0  0  0  0
 18 19  1  0  0  0  0
 18 12  1  6  0  0  0
 20 18  1  0  0  0  0
 21 27  1  6  0  0  0
 21 16  1  0  0  0  0
 22 26  1  0  0  0  0
 24 25  1  0  0  0  0
 24 22  1  0  0  0  0
 25 21  1  1  0  0  0
 25 26  1  0  0  0  0
 26 23  2  0  0  0  0
 27 36  1  1  0  0  0
 28 27  1  0  0  0  0
 29 28  1  0  0  0  0
 30 29  2  0  0  0  0
 31 29  1  0  0  0  0
 32 33  1  0  0  0  0
 33 31  1  0  0  0  0
 33 34  1  0  0  0  0
 35 33  2  0  0  0  0
 37 36  1  0  0  0  0
 39 38  1  0  0  0  0
 39 37  1  0  0  0  0
 40  1  1  0  0  0  0
 40 42  1  0  0  0  0
 42 43  2  6  0  0  0
 42 44  1  0  0  0  0
 42 41  1  0  0  0  0
 44 45  1  0  0  0  0
 46 52  1  6  0  0  0
 46 49  1  0  0  0  0
 46 47  1  0  0  0  0
 47 50  1  0  0  0  0
 48 45  1  0  0  0  0
 48 51  2  0  0  0  0
 49 48  1  0  0  0  0
 50 51  1  0  0  0  0
 50 65  1  1  0  0  0
 52 59  1  1  0  0  0
 52 53  1  0  0  0  0
 54 56  1  0  0  0  0
 54 55  1  0  0  0  0
 55 58  1  1  0  0  0
 56 53  1  6  0  0  0
 56 55  1  0  0  0  0
 57 58  1  0  0  0  0
 61 60  1  6  0  0  0
 61 59  1  0  0  0  0
 62 64  1  0  0  0  0
 63 62  1  0  0  0  0
 63 64  1  0  0  0  0
 64 61  1  6  0  0  0
 65 66  1  0  0  0  0
 66 69  1  0  0  0  0
 67 66  2  0  0  0  0
 68 69  2  0  0  0  0
 69 70  1  0  0  0  0
M  END
>  <MODEL>
3

>  <REMARK>
 VINA RESULT:      12.9      3.094      8.841
  Name = 
  31 active torsions:
  status: ('A' for Active; 'I' for Inactive)
    1  A    between atoms: C_4  and  N_20
    2  A    between atoms: C_7  and  C_67
    3  A    between atoms: C_9  and  P_16
    4  A    between atoms: C_9  and  C_36
    5  A    between atoms: O_14  and  C_22
    6  A    between atoms: O_14  and  P_30
    7  A    between atoms: C_15  and  C_21
    8  A    between atoms: C_15  and  O_37
    9  A    between atoms: C_15  and  C_52
   10  A    between atoms: C_17  and  N_20
   11  A    between atoms: C_17  and  P_30
   12  A    between atoms: C_18  and  N_34
   13  A    between atoms: C_18  and  C_56
   14  A    between atoms: N_20  and  C_33
   15  A    between atoms: C_21  and  C_45
   16  A    between atoms: C_22  and  C_31
   17  A    between atoms: C_24  and  C_40
   18  A    between atoms: O_25  and  P_35
   19  A    between atoms: O_25  and  C_67
   20  A    between atoms: C_27  and  C_52
   21  A    between atoms: O_32  and  C_40
   22  A    between atoms: O_32  and  C_58
   23  A    between atoms: C_33  and  C_60
   24  A    between atoms: P_35  and  C_68
   25  A    between atoms: C_36  and  O_37
   26  A    between atoms: N_38  and  C_52
   27  A    between atoms: N_43  and  C_60
   28  A    between atoms: C_45  and  C_64
   29  A    between atoms: C_48  and  C_62
   30  A    between atoms: O_50  and  C_57
   31  A    between atoms: O_50  and  C_67
                            x       y       z     vdW  Elec       q    Type
                         _______ _______ _______ _____ _____    ______ ____

>  <TORSDO>
F 31

$$$$
=
 OpenBabel11042420173D

 70 76  0  0  1  0  0  0  0  0999 V2000
  161.4730  203.3640  151.6230 N   0  0  0  0  0  0  0  0  0  0  0  0
  160.2860  202.8600  150.9890 C   0  0  0  0  0  0  0  0  0  0  0  0
  159.2480  203.7410  150.6250 C   0  0  0  0  0  3  0  0  0  0  0  0
  158.0910  203.2710  150.0360 C   0  0  0  0  0  3  0  0  0  0  0  0
  158.9250  201.0120  150.1540 C   0  0  0  0  0  3  0  0  0  0  0  0
  160.1060  201.4920  150.7200 C   0  0  0  0  0  3  0  0  0  0  0  0
  157.9070  201.9060  149.8140 C   0  0  0  0  0  3  0  0  0  0  0  0
  162.4530  202.4320  152.2860 C   0  0  0  0  0  2  0  0  0  0  0  0
  162.7000  201.0990  151.5380 C   0  0  0  0  0  2  0  0  0  0  0  0
  161.8470  200.5670  149.3940 N   0  0  0  0  0  0  0  0  0  0  0  0
  162.7270  201.2060  150.0900 N   0  0  0  0  0  0  0  0  0  0  0  0
  161.8690  200.6660  147.9570 C   0  0  0  0  0  0  0  0  0  0  0  0
  161.6930  199.6480  147.2630 O   0  0  0  0  0  0  0  0  0  0  0  0
  161.0980  204.2850  147.3470 C   0  0  0  0  0  2  0  0  0  0  0  0
  160.5620  203.5090  144.1200 O   0  0  0  0  0  0  0  0  0  0  0  0
  161.5670  204.5610  145.9800 N   0  0  1  0  0  0  0  0  0  0  0  0
  161.6070  203.4220  145.0600 C   0  0  1  0  0  3  0  0  0  0  0  0
  162.2440  201.9880  147.2470 C   0  0  1  0  0  3  0  0  0  0  0  0
  161.5360  202.0670  145.8610 C   0  0  0  0  0  2  0  0  0  0  0  0
  161.9230  203.1780  148.1130 C   0  0  0  0  0  2  0  0  0  0  0  0
  161.6480  205.9550  145.3360 C   0  0  2  0  0  3  0  0  0  0  0  0
  160.9530  206.8400  148.4450 C   0  0  0  0  0  2  0  0  0  0  0  0
  163.0150  208.2130  147.7570 O   0  0  0  0  0  0  0  0  0  0  0  0
  160.2770  206.2030  147.3490 N   0  0  0  0  0  2  0  0  0  0  0  0
  161.2020  206.8840  146.4760 C   0  0  1  0  0  3  0  0  0  0  0  0
  162.0330  207.4850  147.5890 C   0  0  0  0  0  0  0  0  0  0  0  0
  160.9500  206.1140  143.9130 C   0  0  1  0  0  3  0  0  0  0  0  0
  161.5350  207.0250  143.0200 O   0  0  0  0  0  0  0  0  0  0  0  0
  161.8690  206.7040  141.6650 C   0  0  0  0  0  0  0  0  0  0  0  0
  162.1010  205.5520  141.3040 O   0  0  0  0  0  0  0  0  0  0  0  0
  161.8070  207.8420  140.7080 C   0  0  0  0  0  2  0  0  0  0  0  0
  160.4520  206.8510  138.3380 O   0  0  0  0  0  1  0  0  0  0  0  0
  161.9720  207.2090  138.9870 P   0  0  0  0  0  0  0  0  0  0  0  0
  162.9280  205.8040  138.9570 O   0  0  0  0  0  1  0  0  0  0  0  0
  162.5830  208.3040  138.1210 O   0  0  0  0  0  0  0  0  0  0  0  0
  160.1570  204.9510  143.2550 C   0  0  0  0  0  2  0  0  0  0  0  0
  159.3120  204.2310  144.3220 C   0  0  1  0  0  3  0  0  0  0  0  0
  157.9970  206.0850  145.1680 O   0  0  0  0  0  1  0  0  0  0  0  0
  157.9310  204.8760  144.4630 C   0  0  0  0  0  2  0  0  0  0  0  0
  161.7990  204.8110  151.4130 C   0  0  0  0  0  2  0  0  0  0  0  0
  162.3540  205.2260  154.2560 O   0  0  0  0  0  1  0  0  0  0  0  0
  161.7180  205.9480  152.8740 P   0  0  1  0  0  0  0  0  0  0  0  0
  162.6390  207.1070  152.6010 O   0  0  0  0  0  0  0  0  0  0  0  0
  160.0770  206.3600  153.2870 O   0  0  0  0  0  0  0  0  0  0  0  0
  160.1510  206.9900  154.5480 C   0  0  0  0  0  2  0  0  0  0  0  0
  160.1440  210.7720  153.1540 C   0  0  2  0  0  3  0  0  0  0  0  0
  161.4430  211.0410  153.8970 C   0  0  0  0  0  2  0  0  0  0  0  0
  160.5120  208.4600  154.4320 C   0  0  0  0  0  0  0  0  0  0  0  0
  159.9450  209.2470  153.1930 C   0  0  0  0  0  2  0  0  0  0  0  0
  161.7880  210.4770  155.3110 C   0  0  2  0  0  3  0  0  0  0  0  0
  161.4120  209.0270  155.2870 C   0  0  0  0  0  3  0  0  0  0  0  0
  160.0050  211.6570  151.7200 C   0  0  1  0  0  3  0  0  0  0  0  0
  159.4800  212.8050  152.2370 O   0  0  0  0  0  0  0  0  0  0  0  0
  157.0400  212.6450  152.1700 C   0  0  0  0  0  2  0  0  0  0  0  0
  157.2800  213.8760  152.9660 C   0  0  2  0  0  3  0  0  0  0  0  0
  158.2500  212.6440  153.0630 C   0  0  2  0  0  3  0  0  0  0  0  0
  156.0620  213.6980  155.2920 O   0  0  0  0  0  1  0  0  0  0  0  0
  155.9220  213.8540  153.8900 C   0  0  0  0  0  2  0  0  0  0  0  0
  161.0650  212.0180  150.8380 O   0  0  0  0  0  0  0  0  0  0  0  0
  162.5480  210.1970  150.5720 O   0  0  0  0  0  1  0  0  0  0  0  0
  161.4050  210.9290  149.4560 P   0  0  2  0  0  0  0  0  0  0  0  0
  162.8840  211.7540  147.3980 O   0  0  0  0  0  0  0  0  0  0  0  0
  161.7980  212.6650  147.3570 C   0  0  0  0  0  2  0  0  0  0  0  0
  162.4130  212.2970  148.6650 C   0  0  1  0  0  3  0  0  0  0  0  0
  161.1580  211.2430  156.3970 O   0  0  0  0  0  0  0  0  0  0  0  0
  159.7940  211.3580  156.5350 C   0  0  0  0  0  0  0  0  0  0  0  0
  159.0050  210.3180  156.3940 O   0  0  0  0  0  0  0  0  0  0  0  0
  158.0260  212.7660  157.2480 O   0  0  0  0  0  1  0  0  0  0  0  0
  159.2320  212.6230  156.8130 C   0  0  0  0  0  0  0  0  0  0  0  0
  159.9960  213.7580  156.7220 O   0  0  0  0  0  0  0  0  0  0  0  0
  1  8  1  0  0  0  0
  2  1  1  0  0  0  0
  3  2  2  0  0  0  0
  4  3  1  0  0  0  0
  5  6  2  0  0  0  0
  6  2  1  0  0  0  0
  7  4  2  0  0  0  0
  7  5  1  0  0  0  0
  9  8  1  0  0  0  0
 10 11  2  0  0  0  0
 11  9  1  0  0  0  0
 12 10  1  0  0  0  0
 13 12  2  0  0  0  0
 14 20  1  0  0  0  0
 15 37  1  0  0  0  0
 15 17  1  0  0  0  0
 16 14  1  6  0  0  0
 17 19  1  1  0  0  0
 17 16  1  0  0  0  0
 18 12  1  1  0  0  0
 18 20  1  0  0  0  0
 19 18  1  0  0  0  0
 21 16  1  0  0  0  0
 21 25  1  1  0  0  0
 24 22  1  0  0  0  0
 25 24  1  1  0  0  0
 25 26  1  0  0  0  0
 26 23  2  0  0  0  0
 26 22  1  0  0  0  0
 27 28  1  6  0  0  0
 27 21  1  0  0  0  0
 29 28  1  0  0  0  0
 30 29  2  0  0  0  0
 31 29  1  0  0  0  0
 32 33  1  0  0  0  0
 33 31  1  0  0  0  0
 34 33  1  0  0  0  0
 35 33  2  0  0  0  0
 36 27  1  0  0  0  0
 36 37  1  0  0  0  0
 37 39  1  6  0  0  0
 39 38  1  0  0  0  0
 40  1  1  0  0  0  0
 40 42  1  0  0  0  0
 42 43  2  6  0  0  0
 42 44  1  0  0  0  0
 42 41  1  0  0  0  0
 44 45  1  0  0  0  0
 46 52  1  6  0  0  0
 46 49  1  0  0  0  0
 46 47  1  0  0  0  0
 47 50  1  0  0  0  0
 48 45  1  0  0  0  0
 48 51  2  0  0  0  0
 49 48  1  0  0  0  0
 50 65  1  1  0  0  0
 51 50  1  0  0  0  0
 52 59  1  1  0  0  0
 52 53  1  0  0  0  0
 54 55  1  0  0  0  0
 54 56  1  0  0  0  0
 55 56  1  0  0  0  0
 55 58  1  1  0  0  0
 56 53  1  6  0  0  0
 58 57  1  0  0  0  0
 61 60  1  1  0  0  0
 61 59  1  0  0  0  0
 62 64  1  0  0  0  0
 63 62  1  0  0  0  0
 63 64  1  0  0  0  0
 64 61  1  1  0  0  0
 65 66  1  0  0  0  0
 66 69  1  0  0  0  0
 67 66  2  0  0  0  0
 69 68  1  0  0  0  0
 70 69  2  0  0  0  0
M  END
>  <MODEL>
4

>  <REMARK>
 VINA RESULT:      13.1      3.105      8.741
  Name = 
  31 active torsions:
  status: ('A' for Active; 'I' for Inactive)
    1  A    between atoms: C_4  and  N_20
    2  A    between atoms: C_7  and  C_67
    3  A    between atoms: C_9  and  P_16
    4  A    between atoms: C_9  and  C_36
    5  A    between atoms: O_14  and  C_22
    6  A    between atoms: O_14  and  P_30
    7  A    between atoms: C_15  and  C_21
    8  A    between atoms: C_15  and  O_37
    9  A    between atoms: C_15  and  C_52
   10  A    between atoms: C_17  and  N_20
   11  A    between atoms: C_17  and  P_30
   12  A    between atoms: C_18  and  N_34
   13  A    between atoms: C_18  and  C_56
   14  A    between atoms: N_20  and  C_33
   15  A    between atoms: C_21  and  C_45
   16  A    between atoms: C_22  and  C_31
   17  A    between atoms: C_24  and  C_40
   18  A    between atoms: O_25  and  P_35
   19  A    between atoms: O_25  and  C_67
   20  A    between atoms: C_27  and  C_52
   21  A    between atoms: O_32  and  C_40
   22  A    between atoms: O_32  and  C_58
   23  A    between atoms: C_33  and  C_60
   24  A    between atoms: P_35  and  C_68
   25  A    between atoms: C_36  and  O_37
   26  A    between atoms: N_38  and  C_52
   27  A    between atoms: N_43  and  C_60
   28  A    between atoms: C_45  and  C_64
   29  A    between atoms: C_48  and  C_62
   30  A    between atoms: O_50  and  C_57
   31  A    between atoms: O_50  and  C_67
                            x       y       z     vdW  Elec       q    Type
                         _______ _______ _______ _____ _____    ______ ____

>  <TORSDO>
F 31

$$$$
