=
 OpenBabel11042423013D

 65 72  0  0  1  0  0  0  0  0999 V2000
  163.0830  211.7120  148.5840 C   0  0  0  0  0  0  0  0  0  0  0  0
  161.8770  214.2630  144.3980 C   0  0  0  0  0  3  0  0  0  0  0  0
  164.0670  212.7130  148.3200 N   0  0  0  0  0  2  0  0  0  0  0  0
  163.9620  213.5240  147.1780 N   0  0  0  0  0  0  0  0  0  0  0  0
  163.2460  210.8870  149.6200 C   0  0  0  0  0  3  0  0  0  0  0  0
  162.9150  214.2210  145.1770 N   0  0  0  0  0  0  0  0  0  0  0  0
  160.7650  212.3000  145.6030 C   0  0  1  0  0  3  0  0  0  0  0  0
  160.5890  213.5510  144.7230 C   0  0  2  0  0  3  0  0  0  0  0  0
  162.9530  213.4220  146.3650 C   0  0  0  0  0  0  0  0  0  0  0  0
  161.8680  212.4410  146.6160 C   0  0  0  0  0  0  0  0  0  0  0  0
  161.9490  211.6040  147.6540 C   0  0  0  0  0  3  0  0  0  0  0  0
  159.3450  212.9110  142.4530 C   0  0  0  0  0  0  0  0  0  0  0  0
  159.9090  213.1800  143.4820 C   0  0  0  0  0  0  0  0  0  0  0  0
  160.7460  212.4800  140.0510 N   0  0  0  0  0  2  0  0  0  0  0  0
  158.6940  212.6300  141.2450 N   0  0  0  0  0  0  0  0  0  0  0  0
  159.3090  212.4350  140.1180 C   0  0  0  0  0  0  0  0  0  0  0  0
  161.5680  212.4740  138.8330 C   0  0  1  0  0  3  0  0  0  0  0  0
  162.4850  214.1940  137.3130 C   0  0  0  0  0  2  0  0  0  0  0  0
  163.9420  214.4510  137.0110 C   0  0  0  0  0  2  0  0  0  0  0  0
  164.7130  213.4820  137.8730 C   0  0  0  0  0  2  0  0  0  0  0  0
  162.4330  213.7010  138.7420 C   0  0  2  0  0  3  0  0  0  0  0  0
  162.5890  211.3470  138.7970 C   0  0  1  0  0  3  0  0  0  0  0  0
  163.7980  211.8100  139.3340 O   0  0  0  0  0  0  0  0  0  0  0  0
  163.8310  213.1960  139.0720 C   0  0  1  0  0  3  0  0  0  0  0  0
  162.1010  206.2740  138.0740 C   0  0  0  0  0  3  0  0  0  0  0  0
  161.4000  208.3870  140.8480 N   0  0  0  0  0  0  0  0  0  0  0  0
  162.5990  208.5750  137.5770 N   0  0  0  0  0  0  0  0  0  0  0  0
  161.6920  206.6200  139.3300 N   0  0  0  0  0  0  0  0  0  0  0  0
  161.6280  209.8390  140.8050 C   0  0  0  0  0  2  0  0  0  0  0  0
  161.7390  207.9270  139.6930 C   0  0  0  0  0  0  0  0  0  0  0  0
  162.1900  208.8800  138.8350 C   0  0  0  0  0  0  0  0  0  0  0  0
  162.1580  210.0570  139.4160 C   0  0  0  0  0  0  0  0  0  0  0  0
  162.5630  207.2670  137.1810 C   0  0  0  0  0  3  0  0  0  0  0  0
  158.5710  212.1980  138.9550 O   0  0  0  0  0  0  0  0  0  0  0  0
  156.2930  212.5040  137.3940 O   0  0  0  0  0  0  0  0  0  0  0  0
  156.3870  210.4790  139.2710 O   0  0  0  0  0  1  0  0  0  0  0  0
  156.8540  212.0730  138.9290 P   0  0  0  0  0  0  0  0  0  0  0  0
  156.2590  213.0060  139.9590 O   0  0  0  0  0  1  0  0  0  0  0  0
  162.2850  209.7900  149.9690 C   0  0  0  0  0  2  0  0  0  0  0  0
  162.7500  208.4450  149.4250 C   0  0  0  0  0  2  0  0  0  0  0  0
  162.4430  207.3750  150.3620 N   0  0  0  0  0  2  0  0  0  0  0  0
  161.0510  207.5250  150.7620 C   0  0  0  0  0  2  0  0  0  0  0  0
  160.7430  208.3740  153.0710 C   0  0  0  0  0  0  0  0  0  0  0  0
  160.9000  204.8150  151.8970 C   0  0  0  0  0  1  0  0  0  0  0  0
  160.6020  205.7250  154.1940 C   0  0  0  0  0  2  0  0  0  0  0  0
  160.9680  206.8090  156.2920 O   0  0  0  0  0  0  0  0  0  0  0  0
  160.7940  206.9260  155.0500 C   0  0  0  0  0  0  0  0  0  0  0  0
  160.9260  207.3210  152.2460 C   0  0  0  0  0  0  0  0  0  0  0  0
  160.7690  208.1920  154.4650 O   0  0  0  0  0  0  0  0  0  0  0  0
  161.2530  205.9600  152.8330 C   0  0  2  0  0  3  0  0  0  0  0  0
  160.5880  209.7690  152.5200 C   0  0  0  0  0  2  0  0  0  0  0  0
  160.2210  210.7620  153.5820 C   0  0  0  0  0  0  0  0  0  0  0  0
  158.4730  212.1550  154.8730 C   0  0  2  0  0  3  0  0  0  0  0  0
  158.8050  211.3300  153.6060 C   0  0  0  0  0  2  0  0  0  0  0  0
  159.4020  211.8520  156.0510 C   0  0  0  0  0  2  0  0  0  0  0  0
  161.1470  211.0940  154.5000 C   0  0  0  0  0  3  0  0  0  0  0  0
  160.8380  212.0610  155.6020 C   0  0  0  0  0  2  0  0  0  0  0  0
  157.0040  211.9620  155.2560 C   0  0  0  0  0  3  0  0  0  0  0  0
  156.3750  211.0720  154.3740 O   0  0  0  0  0  1  0  0  0  0  0  0
  156.8920  211.4810  156.5660 O   0  0  0  0  0  1  0  0  0  0  0  0
  159.5170  211.9070  146.2020 O   0  0  0  0  0  0  0  0  0  0  0  0
  157.3740  212.4220  147.1170 C   0  0  0  0  0  2  0  0  0  0  0  0
  158.6350  212.7660  146.8810 C   0  0  0  0  0  0  0  0  0  0  0  0
  159.1090  214.0080  147.3090 O   0  0  0  0  0  0  0  0  0  0  0  0
  159.2130  214.3100  148.6160 O   0  0  0  0  0  1  0  0  0  0  0  0
  1  5  2  0  0  0  0
  2  8  1  0  0  0  0
  2  6  2  0  0  0  0
  3  1  1  0  0  0  0
  4  3  1  0  0  0  0
  5 39  1  0  0  0  0
  6  9  1  0  0  0  0
  7 61  1  1  0  0  0
  7 10  1  0  0  0  0
  8 13  1  6  0  0  0
  8  7  1  0  0  0  0
  9 10  1  0  0  0  0
  9  4  2  0  0  0  0
 10 11  2  0  0  0  0
 11  1  1  0  0  0  0
 12 13  3  0  0  0  0
 14 16  1  0  0  0  0
 15 12  1  0  0  0  0
 16 15  2  0  0  0  0
 17 14  1  1  0  0  0
 19 18  1  0  0  0  0
 19 20  1  0  0  0  0
 21 18  1  6  0  0  0
 21 17  1  0  0  0  0
 21 24  1  0  0  0  0
 22 17  1  0  0  0  0
 22 23  1  0  0  0  0
 22 32  1  1  0  0  0
 24 20  1  6  0  0  0
 24 23  1  0  0  0  0
 25 28  2  0  0  0  0
 27 31  1  0  0  0  0
 28 30  1  0  0  0  0
 29 26  1  0  0  0  0
 30 26  2  0  0  0  0
 31 32  2  0  0  0  0
 31 30  1  0  0  0  0
 32 29  1  0  0  0  0
 33 27  2  0  0  0  0
 33 25  1  0  0  0  0
 34 16  1  0  0  0  0
 35 37  2  0  0  0  0
 37 34  1  0  0  0  0
 37 36  1  0  0  0  0
 37 38  1  0  0  0  0
 40 39  1  0  0  0  0
 40 41  1  0  0  0  0
 41 42  1  0  0  0  0
 42 48  1  0  0  0  0
 43 49  1  0  0  0  0
 45 47  1  0  0  0  0
 47 46  2  0  0  0  0
 48 50  1  0  0  0  0
 48 43  2  0  0  0  0
 49 47  1  0  0  0  0
 50 44  1  6  0  0  0
 50 45  1  0  0  0  0
 51 43  1  0  0  0  0
 51 52  1  0  0  0  0
 52 54  1  0  0  0  0
 52 56  2  0  0  0  0
 53 58  1  1  0  0  0
 53 55  1  0  0  0  0
 54 53  1  0  0  0  0
 56 57  1  0  0  0  0
 57 55  1  0  0  0  0
 58 60  1  0  0  0  0
 59 58  1  0  0  0  0
 61 63  1  0  0  0  0
 63 62  2  0  0  0  0
 63 64  1  0  0  0  0
 64 65  1  0  0  0  0
M  END
>  <MODEL>
1

>  <REMARK>
 VINA RESULT:      -2.9      0.000      0.000
  Name = 
  17 active torsions:
  status: ('A' for Active; 'I' for Inactive)
    1  A    between atoms: C_2  and  C_19
    2  A    between atoms: C_3  and  N_15
    3  A    between atoms: C_5  and  C_19
    4  A    between atoms: C_6  and  C_9
    5  A    between atoms: C_7  and  N_30
    6  A    between atoms: O_11  and  C_42
    7  A    between atoms: C_13  and  N_28
    8  A    between atoms: C_13  and  C_53
    9  A    between atoms: O_14  and  P_27
   10  A    between atoms: O_14  and  C_59
   11  A    between atoms: O_24  and  C_42
   12  A    between atoms: O_24  and  C_46
   13  A    between atoms: N_28  and  C_29
   14  A    between atoms: C_29  and  C_40
   15  A    between atoms: C_33  and  C_53
   16  A    between atoms: C_35  and  C_50
   17  A    between atoms: C_56  and  C_63
                            x       y       z     vdW  Elec       q    Type
                         _______ _______ _______ _____ _____    ______ ____

>  <TORSDO>
F 17

$$$$
=
 OpenBabel11042423013D

 65 72  0  0  1  0  0  0  0  0999 V2000
  161.4560  204.5250  145.8270 C   0  0  0  0  0  0  0  0  0  0  0  0
  160.8240  204.7840  150.8290 C   0  0  0  0  0  3  0  0  0  0  0  0
  161.2820  203.2130  146.3670 N   0  0  0  0  0  2  0  0  0  0  0  0
  161.1300  203.0340  147.7520 N   0  0  0  0  0  0  0  0  0  0  0  0
  161.6950  204.6710  144.5220 C   0  0  0  0  0  3  0  0  0  0  0  0
  161.0000  203.8190  149.9770 N   0  0  0  0  0  0  0  0  0  0  0  0
  161.2450  206.5710  149.0480 C   0  0  1  0  0  3  0  0  0  0  0  0
  160.6070  206.2130  150.4030 C   0  0  2  0  0  3  0  0  0  0  0  0
  161.0910  204.0460  148.5670 C   0  0  0  0  0  0  0  0  0  0  0  0
  161.2080  205.4360  148.0600 C   0  0  0  0  0  0  0  0  0  0  0  0
  161.4160  205.6610  146.7600 C   0  0  0  0  0  3  0  0  0  0  0  0
  161.5600  207.8750  152.2570 C   0  0  0  0  0  0  0  0  0  0  0  0
  161.1210  207.1140  151.4350 C   0  0  0  0  0  0  0  0  0  0  0  0
  160.8020  210.5850  152.3010 N   0  0  0  0  0  2  0  0  0  0  0  0
  162.0780  208.7840  153.1900 N   0  0  0  0  0  0  0  0  0  0  0  0
  161.7560  210.0410  153.2320 C   0  0  0  0  0  0  0  0  0  0  0  0
  160.4860  212.0050  152.0990 C   0  0  1  0  0  3  0  0  0  0  0  0
  160.9810  213.6940  150.3620 C   0  0  0  0  0  2  0  0  0  0  0  0
  159.9800  214.4520  149.5250 C   0  0  0  0  0  2  0  0  0  0  0  0
  158.6270  213.9200  149.9290 C   0  0  0  0  0  2  0  0  0  0  0  0
  160.3610  212.3420  150.6380 C   0  0  2  0  0  3  0  0  0  0  0  0
  159.1250  212.4070  152.6470 C   0  0  1  0  0  3  0  0  0  0  0  0
  158.1700  212.2860  151.6290 O   0  0  0  0  0  0  0  0  0  0  0  0
  158.8640  212.5060  150.4200 C   0  0  1  0  0  3  0  0  0  0  0  0
  156.1650  212.7330  156.8450 C   0  0  0  0  0  3  0  0  0  0  0  0
  158.3710  210.2130  155.6470 N   0  0  0  0  0  0  0  0  0  0  0  0
  157.2030  213.3820  154.7740 N   0  0  0  0  0  0  0  0  0  0  0  0
  156.8420  211.5470  156.8280 N   0  0  0  0  0  0  0  0  0  0  0  0
  159.1220  210.3610  154.3910 C   0  0  0  0  0  2  0  0  0  0  0  0
  157.6850  211.2930  155.7950 C   0  0  0  0  0  0  0  0  0  0  0  0
  157.8540  212.1910  154.7880 C   0  0  0  0  0  0  0  0  0  0  0  0
  158.6980  211.7160  153.9020 C   0  0  0  0  0  0  0  0  0  0  0  0
  156.3470  213.6670  155.8010 C   0  0  0  0  0  3  0  0  0  0  0  0
  162.3550  210.8800  154.1750 O   0  0  0  0  0  0  0  0  0  0  0  0
  163.8830  210.8260  156.4960 O   0  0  0  0  0  1  0  0  0  0  0  0
  161.2400  211.6200  156.6320 O   0  0  0  0  0  1  0  0  0  0  0  0
  162.3340  210.5720  155.8690 P   0  0  0  0  0  0  0  0  0  0  0  0
  161.9210  209.1400  156.1220 O   0  0  0  0  0  0  0  0  0  0  0  0
  161.9150  205.9990  143.8620 C   0  0  0  0  0  2  0  0  0  0  0  0
  162.4970  205.8390  142.4640 C   0  0  0  0  0  2  0  0  0  0  0  0
  161.7560  206.6400  141.5010 N   0  0  0  0  0  2  0  0  0  0  0  0
  162.6910  207.5750  140.8910 C   0  0  0  0  0  2  0  0  0  0  0  0
  161.7270  209.6580  139.9550 C   0  0  0  0  0  0  0  0  0  0  0  0
  162.1730  206.3350  138.2740 C   0  0  0  0  0  1  0  0  0  0  0  0
  161.2070  208.4520  137.3910 C   0  0  0  0  0  2  0  0  0  0  0  0
  159.7900  210.3380  137.0120 O   0  0  0  0  0  0  0  0  0  0  0  0
  160.6040  209.7550  137.7770 C   0  0  0  0  0  0  0  0  0  0  0  0
  161.9990  208.3450  139.8020 C   0  0  0  0  0  0  0  0  0  0  0  0
  160.9560  210.3360  138.9950 O   0  0  0  0  0  0  0  0  0  0  0  0
  161.3900  207.5870  138.6360 C   0  0  2  0  0  3  0  0  0  0  0  0
  162.1720  210.4000  141.1900 C   0  0  0  0  0  2  0  0  0  0  0  0
  161.4340  211.6920  141.3730 C   0  0  0  0  0  0  0  0  0  0  0  0
  159.5910  213.1080  142.4960 C   0  0  2  0  0  3  0  0  0  0  0  0
  160.1340  211.6950  142.1730 C   0  0  0  0  0  2  0  0  0  0  0  0
  160.6570  214.2010  142.4010 C   0  0  0  0  0  2  0  0  0  0  0  0
  161.9630  212.8150  140.8520 C   0  0  0  0  0  3  0  0  0  0  0  0
  161.2900  214.1430  141.0210 C   0  0  0  0  0  2  0  0  0  0  0  0
  158.9110  213.1080  143.8670 C   0  0  0  0  0  3  0  0  0  0  0  0
  159.8610  212.9820  144.8900 O   0  0  0  0  0  1  0  0  0  0  0  0
  158.1730  214.2830  144.0540 O   0  0  0  0  0  1  0  0  0  0  0  0
  160.6830  207.7820  148.5130 O   0  0  0  0  0  0  0  0  0  0  0  0
  162.4890  209.2320  149.0930 C   0  0  0  0  0  2  0  0  0  0  0  0
  161.3280  209.0320  148.4800 C   0  0  0  0  0  0  0  0  0  0  0  0
  160.7170  210.0810  147.7870 O   0  0  0  0  0  0  0  0  0  0  0  0
  161.4050  211.1780  147.4240 O   0  0  0  0  0  1  0  0  0  0  0  0
  1  3  1  0  0  0  0
  1 11  1  0  0  0  0
  3  4  1  0  0  0  0
  4  9  2  0  0  0  0
  5  1  2  0  0  0  0
  6  2  2  0  0  0  0
  7 61  1  6  0  0  0
  7  8  1  0  0  0  0
  8  2  1  0  0  0  0
  8 13  1  1  0  0  0
  9  6  1  0  0  0  0
 10  9  1  0  0  0  0
 10  7  1  0  0  0  0
 11 10  2  0  0  0  0
 12 15  1  0  0  0  0
 13 12  3  0  0  0  0
 14 16  1  0  0  0  0
 15 16  2  0  0  0  0
 16 34  1  0  0  0  0
 17 14  1  6  0  0  0
 17 22  1  0  0  0  0
 19 20  1  0  0  0  0
 19 18  1  0  0  0  0
 21 18  1  1  0  0  0
 21 17  1  0  0  0  0
 22 32  1  1  0  0  0
 23 22  1  0  0  0  0
 24 20  1  1  0  0  0
 24 21  1  0  0  0  0
 24 23  1  0  0  0  0
 26 30  2  0  0  0  0
 27 31  1  0  0  0  0
 27 33  2  0  0  0  0
 28 25  2  0  0  0  0
 29 26  1  0  0  0  0
 30 28  1  0  0  0  0
 31 30  1  0  0  0  0
 32 29  1  0  0  0  0
 32 31  2  0  0  0  0
 33 25  1  0  0  0  0
 34 37  1  0  0  0  0
 37 38  2  0  0  0  0
 37 35  1  0  0  0  0
 37 36  1  0  0  0  0
 39  5  1  0  0  0  0
 40 39  1  0  0  0  0
 41 40  1  0  0  0  0
 42 41  1  0  0  0  0
 43 51  1  0  0  0  0
 45 47  1  0  0  0  0
 45 50  1  0  0  0  0
 46 47  2  0  0  0  0
 47 49  1  0  0  0  0
 48 43  2  0  0  0  0
 48 42  1  0  0  0  0
 49 43  1  0  0  0  0
 50 44  1  6  0  0  0
 50 48  1  0  0  0  0
 51 52  1  0  0  0  0
 52 54  1  0  0  0  0
 53 58  1  1  0  0  0
 54 53  1  0  0  0  0
 55 53  1  0  0  0  0
 56 57  1  0  0  0  0
 56 52  2  0  0  0  0
 57 55  1  0  0  0  0
 58 60  1  0  0  0  0
 58 59  1  0  0  0  0
 63 61  1  0  0  0  0
 63 62  2  0  0  0  0
 64 63  1  0  0  0  0
 65 64  1  0  0  0  0
M  END
>  <MODEL>
2

>  <REMARK>
 VINA RESULT:      -2.9      4.010     13.244
  Name = 
  17 active torsions:
  status: ('A' for Active; 'I' for Inactive)
    1  A    between atoms: C_2  and  C_19
    2  A    between atoms: C_3  and  N_15
    3  A    between atoms: C_5  and  C_19
    4  A    between atoms: C_6  and  C_9
    5  A    between atoms: C_7  and  N_30
    6  A    between atoms: O_11  and  C_42
    7  A    between atoms: C_13  and  N_28
    8  A    between atoms: C_13  and  C_53
    9  A    between atoms: O_14  and  P_27
   10  A    between atoms: O_14  and  C_59
   11  A    between atoms: O_24  and  C_42
   12  A    between atoms: O_24  and  C_46
   13  A    between atoms: N_28  and  C_29
   14  A    between atoms: C_29  and  C_40
   15  A    between atoms: C_33  and  C_53
   16  A    between atoms: C_35  and  C_50
   17  A    between atoms: C_56  and  C_63
                            x       y       z     vdW  Elec       q    Type
                         _______ _______ _______ _____ _____    ______ ____

>  <TORSDO>
F 17

$$$$
=
 OpenBabel11042423013D

 65 72  0  0  1  0  0  0  0  0999 V2000
  161.6770  204.9000  145.9740 C   0  0  0  0  0  0  0  0  0  0  0  0
  160.7570  205.5400  150.8970 C   0  0  0  0  0  3  0  0  0  0  0  0
  161.4790  203.6330  146.6040 N   0  0  0  0  0  2  0  0  0  0  0  0
  161.2480  203.5600  147.9880 N   0  0  0  0  0  0  0  0  0  0  0  0
  161.9900  204.9470  144.6780 C   0  0  0  0  0  3  0  0  0  0  0  0
  160.9860  204.5140  150.1340 N   0  0  0  0  0  0  0  0  0  0  0  0
  161.2710  207.1870  149.0080 C   0  0  1  0  0  3  0  0  0  0  0  0
  160.5580  206.9300  150.3490 C   0  0  2  0  0  3  0  0  0  0  0  0
  161.1580  204.6320  148.7180 C   0  0  0  0  0  0  0  0  0  0  0  0
  161.2970  205.9800  148.1120 C   0  0  0  0  0  0  0  0  0  0  0  0
  161.5780  206.1040  146.8120 C   0  0  0  0  0  3  0  0  0  0  0  0
  161.3560  208.7050  152.1710 C   0  0  0  0  0  0  0  0  0  0  0  0
  161.0080  207.9130  151.3350 C   0  0  0  0  0  0  0  0  0  0  0  0
  159.5030  210.2430  153.6270 N   0  0  0  0  0  2  0  0  0  0  0  0
  161.7490  209.6070  153.1690 N   0  0  0  0  0  0  0  0  0  0  0  0
  160.9210  210.3380  153.8520 C   0  0  0  0  0  0  0  0  0  0  0  0
  158.4660  211.1300  154.1730 C   0  0  1  0  0  3  0  0  0  0  0  0
  157.2410  211.3050  156.3120 C   0  0  0  0  0  2  0  0  0  0  0  0
  157.2370  212.4800  157.2600 C   0  0  0  0  0  2  0  0  0  0  0  0
  158.1800  213.4920  156.6570 C   0  0  0  0  0  2  0  0  0  0  0  0
  158.6060  211.2940  155.6620 C   0  0  2  0  0  3  0  0  0  0  0  0
  158.5700  212.5630  153.6720 C   0  0  1  0  0  3  0  0  0  0  0  0
  159.3530  213.3030  154.5690 O   0  0  0  0  0  0  0  0  0  0  0  0
  159.1720  212.6970  155.8300 C   0  0  1  0  0  3  0  0  0  0  0  0
  157.1940  214.0220  148.9320 C   0  0  0  0  0  3  0  0  0  0  0  0
  160.2550  212.8160  150.2840 N   0  0  0  0  0  0  0  0  0  0  0  0
  156.9900  213.5370  151.2790 N   0  0  0  0  0  0  0  0  0  0  0  0
  158.5020  213.6300  148.9510 N   0  0  0  0  0  0  0  0  0  0  0  0
  160.3970  212.4560  151.7020 C   0  0  0  0  0  2  0  0  0  0  0  0
  159.0360  213.1980  150.1220 C   0  0  0  0  0  0  0  0  0  0  0  0
  158.2940  213.1610  151.2610 C   0  0  0  0  0  0  0  0  0  0  0  0
  159.0290  212.7270  152.2590 C   0  0  0  0  0  0  0  0  0  0  0  0
  156.4240  213.9760  150.1150 C   0  0  0  0  0  3  0  0  0  0  0  0
  161.4100  211.2390  154.8020 O   0  0  0  0  0  0  0  0  0  0  0  0
  162.1900  209.2080  156.5310 O   0  0  0  0  0  1  0  0  0  0  0  0
  164.1020  210.9040  155.4820 O   0  0  0  0  0  0  0  0  0  0  0  0
  162.5080  210.7980  156.0520 P   0  0  0  0  0  0  0  0  0  0  0  0
  162.3320  211.7220  157.2350 O   0  0  0  0  0  1  0  0  0  0  0  0
  162.2400  206.2220  143.9300 C   0  0  0  0  0  2  0  0  0  0  0  0
  162.5260  205.9590  142.4570 C   0  0  0  0  0  2  0  0  0  0  0  0
  161.7820  206.8830  141.6140 N   0  0  0  0  0  2  0  0  0  0  0  0
  162.7390  207.5620  140.7510 C   0  0  0  0  0  2  0  0  0  0  0  0
  161.7230  209.6590  139.9060 C   0  0  0  0  0  0  0  0  0  0  0  0
  162.1520  206.3910  138.1170 C   0  0  0  0  0  1  0  0  0  0  0  0
  161.1360  208.5200  137.3250 C   0  0  0  0  0  2  0  0  0  0  0  0
  159.6870  210.4000  137.0450 O   0  0  0  0  0  0  0  0  0  0  0  0
  160.5310  209.8050  137.7670 C   0  0  0  0  0  0  0  0  0  0  0  0
  162.0050  208.3540  139.7060 C   0  0  0  0  0  0  0  0  0  0  0  0
  160.9160  210.3560  138.9900 O   0  0  0  0  0  0  0  0  0  0  0  0
  161.3670  207.6220  138.5390 C   0  0  2  0  0  3  0  0  0  0  0  0
  162.1990  210.3710  141.1470 C   0  0  0  0  0  2  0  0  0  0  0  0
  161.7350  211.7950  141.1990 C   0  0  0  0  0  0  0  0  0  0  0  0
  160.0600  213.6050  141.9630 C   0  0  2  0  0  3  0  0  0  0  0  0
  160.3390  212.0990  141.7360 C   0  0  0  0  0  2  0  0  0  0  0  0
  161.3350  214.4430  142.0840 C   0  0  0  0  0  2  0  0  0  0  0  0
  162.5810  212.7630  140.7990 C   0  0  0  0  0  3  0  0  0  0  0  0
  162.1890  214.2080  140.8490 C   0  0  0  0  0  2  0  0  0  0  0  0
  159.1510  213.7930  143.1780 C   0  0  0  0  0  3  0  0  0  0  0  0
  157.8470  214.1160  142.7770 O   0  0  0  0  0  1  0  0  0  0  0  0
  159.1250  212.6350  143.9640 O   0  0  0  0  0  1  0  0  0  0  0  0
  160.7350  208.3480  148.3500 O   0  0  0  0  0  0  0  0  0  0  0  0
  162.4580  209.8970  148.9290 C   0  0  0  0  0  2  0  0  0  0  0  0
  161.4090  209.5710  148.1810 C   0  0  0  0  0  0  0  0  0  0  0  0
  160.9520  210.4570  147.2010 O   0  0  0  0  0  0  0  0  0  0  0  0
  160.9910  211.7880  147.3830 O   0  0  0  0  0  1  0  0  0  0  0  0
  1  3  1  0  0  0  0
  1 11  1  0  0  0  0
  3  4  1  0  0  0  0
  4  9  2  0  0  0  0
  5  1  2  0  0  0  0
  6  2  2  0  0  0  0
  7 61  1  6  0  0  0
  7  8  1  0  0  0  0
  8  2  1  0  0  0  0
  8 13  1  1  0  0  0
  9  6  1  0  0  0  0
 10  9  1  0  0  0  0
 10  7  1  0  0  0  0
 11 10  2  0  0  0  0
 12 15  1  0  0  0  0
 13 12  3  0  0  0  0
 14 16  1  0  0  0  0
 15 16  2  0  0  0  0
 16 34  1  0  0  0  0
 17 14  1  6  0  0  0
 17 21  1  0  0  0  0
 18 19  1  0  0  0  0
 20 19  1  0  0  0  0
 21 24  1  0  0  0  0
 21 18  1  1  0  0  0
 22 32  1  6  0  0  0
 22 17  1  0  0  0  0
 22 23  1  0  0  0  0
 23 24  1  0  0  0  0
 24 20  1  1  0  0  0
 25 28  2  0  0  0  0
 25 33  1  0  0  0  0
 26 29  1  0  0  0  0
 28 30  1  0  0  0  0
 29 32  1  0  0  0  0
 30 26  2  0  0  0  0
 30 31  1  0  0  0  0
 31 27  1  0  0  0  0
 31 32  2  0  0  0  0
 33 27  2  0  0  0  0
 34 37  1  0  0  0  0
 36 37  2  0  0  0  0
 37 35  1  0  0  0  0
 37 38  1  0  0  0  0
 39  5  1  0  0  0  0
 40 39  1  0  0  0  0
 41 40  1  0  0  0  0
 42 41  1  0  0  0  0
 43 51  1  0  0  0  0
 45 47  1  0  0  0  0
 45 50  1  0  0  0  0
 46 47  2  0  0  0  0
 47 49  1  0  0  0  0
 48 43  2  0  0  0  0
 48 42  1  0  0  0  0
 49 43  1  0  0  0  0
 50 44  1  6  0  0  0
 50 48  1  0  0  0  0
 51 52  1  0  0  0  0
 52 54  1  0  0  0  0
 53 55  1  0  0  0  0
 53 58  1  1  0  0  0
 54 53  1  0  0  0  0
 56 57  1  0  0  0  0
 56 52  2  0  0  0  0
 57 55  1  0  0  0  0
 58 60  1  0  0  0  0
 59 58  1  0  0  0  0
 63 61  1  0  0  0  0
 63 62  2  0  0  0  0
 64 65  1  0  0  0  0
 64 63  1  0  0  0  0
M  END
>  <MODEL>
3

>  <REMARK>
 VINA RESULT:      -2.9      3.753     13.293
  Name = 
  17 active torsions:
  status: ('A' for Active; 'I' for Inactive)
    1  A    between atoms: C_2  and  C_19
    2  A    between atoms: C_3  and  N_15
    3  A    between atoms: C_5  and  C_19
    4  A    between atoms: C_6  and  C_9
    5  A    between atoms: C_7  and  N_30
    6  A    between atoms: O_11  and  C_42
    7  A    between atoms: C_13  and  N_28
    8  A    between atoms: C_13  and  C_53
    9  A    between atoms: O_14  and  P_27
   10  A    between atoms: O_14  and  C_59
   11  A    between atoms: O_24  and  C_42
   12  A    between atoms: O_24  and  C_46
   13  A    between atoms: N_28  and  C_29
   14  A    between atoms: C_29  and  C_40
   15  A    between atoms: C_33  and  C_53
   16  A    between atoms: C_35  and  C_50
   17  A    between atoms: C_56  and  C_63
                            x       y       z     vdW  Elec       q    Type
                         _______ _______ _______ _____ _____    ______ ____

>  <TORSDO>
F 17

$$$$
=
 OpenBabel11042423013D

 65 72  0  0  1  0  0  0  0  0999 V2000
  159.3450  213.5930  144.3400 C   0  0  0  0  0  0  0  0  0  0  0  0
  157.2040  214.1510  148.8780 C   0  0  0  0  0  3  0  0  0  0  0  0
  158.0600  214.2030  144.2040 N   0  0  0  0  0  2  0  0  0  0  0  0
  157.2570  214.4210  145.3360 N   0  0  0  0  0  0  0  0  0  0  0  0
  160.0550  213.3050  143.2480 C   0  0  0  0  0  3  0  0  0  0  0  0
  156.8030  214.3010  147.6520 N   0  0  0  0  0  0  0  0  0  0  0  0
  159.4310  213.1350  148.1330 C   0  0  1  0  0  3  0  0  0  0  0  0
  158.6410  213.8700  149.2330 C   0  0  2  0  0  3  0  0  0  0  0  0
  157.6760  214.1240  146.5300 C   0  0  0  0  0  0  0  0  0  0  0  0
  159.0240  213.5420  146.7430 C   0  0  0  0  0  0  0  0  0  0  0  0
  159.8040  213.2580  145.6970 C   0  0  0  0  0  3  0  0  0  0  0  0
  158.7640  212.4800  151.5040 C   0  0  0  0  0  0  0  0  0  0  0  0
  158.6960  213.0930  150.4710 C   0  0  0  0  0  0  0  0  0  0  0  0
  160.0080  209.9660  151.7250 N   0  0  0  0  0  2  0  0  0  0  0  0
  158.8560  211.7920  152.7220 N   0  0  0  0  0  0  0  0  0  0  0  0
  159.4140  210.6280  152.8560 C   0  0  0  0  0  0  0  0  0  0  0  0
  160.4980  208.5810  151.6770 C   0  0  1  0  0  3  0  0  0  0  0  0
  160.1110  206.6210  150.2210 C   0  0  0  0  0  2  0  0  0  0  0  0
  161.1420  205.8850  149.4000 C   0  0  0  0  0  2  0  0  0  0  0  0
  162.4360  206.6320  149.6090 C   0  0  0  0  0  2  0  0  0  0  0  0
  160.5600  208.0640  150.2650 C   0  0  2  0  0  3  0  0  0  0  0  0
  161.9370  208.4310  152.1460 C   0  0  1  0  0  3  0  0  0  0  0  0
  162.7910  208.5290  151.0390 O   0  0  0  0  0  0  0  0  0  0  0  0
  162.0460  208.0600  149.9350 C   0  0  1  0  0  3  0  0  0  0  0  0
  162.1270  209.0290  157.2550 C   0  0  0  0  0  3  0  0  0  0  0  0
  163.2190  211.0680  154.5520 N   0  0  0  0  0  0  0  0  0  0  0  0
  161.6340  208.0140  155.1300 N   0  0  0  0  0  0  0  0  0  0  0  0
  162.6850  210.1060  156.6260 N   0  0  0  0  0  0  0  0  0  0  0  0
  163.0440  210.6680  153.1480 C   0  0  0  0  0  2  0  0  0  0  0  0
  162.7110  210.1260  155.2700 C   0  0  0  0  0  0  0  0  0  0  0  0
  162.2010  209.0970  154.5410 C   0  0  0  0  0  0  0  0  0  0  0  0
  162.3570  209.3360  153.2590 C   0  0  0  0  0  0  0  0  0  0  0  0
  161.5920  207.9650  156.4960 C   0  0  0  0  0  3  0  0  0  0  0  0
  159.4240  210.0020  154.1050 O   0  0  0  0  0  0  0  0  0  0  0  0
  157.3810  211.4420  155.3190 O   0  0  0  0  0  0  0  0  0  0  0  0
  158.8430  209.6400  156.8180 O   0  0  0  0  0  1  0  0  0  0  0  0
  158.9150  210.7730  155.5580 P   0  0  0  0  0  0  0  0  0  0  0  0
  159.8880  211.8700  155.9210 O   0  0  0  0  0  1  0  0  0  0  0  0
  161.4010  212.6450  143.2810 C   0  0  0  0  0  2  0  0  0  0  0  0
  161.8850  212.2900  141.8810 C   0  0  0  0  0  2  0  0  0  0  0  0
  162.2430  213.4890  141.1390 N   0  0  0  0  0  2  0  0  0  0  0  0
  161.3450  213.5860  139.9960 C   0  0  0  0  0  2  0  0  0  0  0  0
  160.5240  211.4420  139.0600 C   0  0  0  0  0  0  0  0  0  0  0  0
  163.6420  213.3290  138.1770 C   0  0  0  0  0  1  0  0  0  0  0  0
  162.7730  211.1760  137.2810 C   0  0  0  0  0  2  0  0  0  0  0  0
  162.0820  208.8990  137.0660 O   0  0  0  0  0  0  0  0  0  0  0  0
  161.8570  210.0370  137.5560 C   0  0  0  0  0  0  0  0  0  0  0  0
  161.5010  212.3710  139.1260 C   0  0  0  0  0  0  0  0  0  0  0  0
  160.7340  210.2430  138.3580 O   0  0  0  0  0  0  0  0  0  0  0  0
  162.8580  212.0710  138.5150 C   0  0  2  0  0  3  0  0  0  0  0  0
  159.2250  211.6340  139.8020 C   0  0  0  0  0  2  0  0  0  0  0  0
  158.0400  211.6250  138.8850 C   0  0  0  0  0  0  0  0  0  0  0  0
  155.6950  210.7720  138.2230 C   0  0  2  0  0  3  0  0  0  0  0  0
  156.9760  210.5450  139.0610 C   0  0  0  0  0  2  0  0  0  0  0  0
  155.5180  212.2240  137.7730 C   0  0  0  0  0  2  0  0  0  0  0  0
  157.9380  212.5920  137.9540 C   0  0  0  0  0  3  0  0  0  0  0  0
  156.7670  212.6550  137.0220 C   0  0  0  0  0  2  0  0  0  0  0  0
  154.4690  210.2720  138.9900 C   0  0  0  0  0  3  0  0  0  0  0  0
  153.8560  211.3240  139.6850 O   0  0  0  0  0  1  0  0  0  0  0  0
  153.5450  209.6830  138.1200 O   0  0  0  0  0  1  0  0  0  0  0  0
  160.8480  213.2520  148.3460 O   0  0  0  0  0  0  0  0  0  0  0  0
  161.7080  211.3820  149.5570 C   0  0  0  0  0  2  0  0  0  0  0  0
  161.7400  212.1730  148.4900 C   0  0  0  0  0  0  0  0  0  0  0  0
  162.6800  211.9440  147.4820 O   0  0  0  0  0  0  0  0  0  0  0  0
  163.9560  212.3490  147.6040 O   0  0  0  0  0  1  0  0  0  0  0  0
  1 11  1  0  0  0  0
  2  8  1  0  0  0  0
  3  1  1  0  0  0  0
  3  4  1  0  0  0  0
  4  9  2  0  0  0  0
  5 39  1  0  0  0  0
  5  1  2  0  0  0  0
  6  2  2  0  0  0  0
  7 61  1  1  0  0  0
  7  8  1  0  0  0  0
  8 13  1  1  0  0  0
  9 10  1  0  0  0  0
  9  6  1  0  0  0  0
 10  7  1  0  0  0  0
 11 10  2  0  0  0  0
 12 15  1  0  0  0  0
 13 12  3  0  0  0  0
 14 16  1  0  0  0  0
 15 16  2  0  0  0  0
 16 34  1  0  0  0  0
 17 14  1  6  0  0  0
 17 22  1  0  0  0  0
 19 20  1  0  0  0  0
 19 18  1  0  0  0  0
 21 18  1  1  0  0  0
 21 17  1  0  0  0  0
 22 32  1  1  0  0  0
 23 22  1  0  0  0  0
 24 20  1  1  0  0  0
 24 21  1  0  0  0  0
 24 23  1  0  0  0  0
 26 30  2  0  0  0  0
 27 33  2  0  0  0  0
 28 25  2  0  0  0  0
 29 32  1  0  0  0  0
 29 26  1  0  0  0  0
 30 28  1  0  0  0  0
 31 27  1  0  0  0  0
 31 30  1  0  0  0  0
 32 31  2  0  0  0  0
 33 25  1  0  0  0  0
 34 37  1  0  0  0  0
 35 37  2  0  0  0  0
 37 38  1  0  0  0  0
 37 36  1  0  0  0  0
 40 39  1  0  0  0  0
 41 40  1  0  0  0  0
 42 41  1  0  0  0  0
 43 48  2  0  0  0  0
 43 51  1  0  0  0  0
 45 47  1  0  0  0  0
 45 50  1  0  0  0  0
 46 47  2  0  0  0  0
 47 49  1  0  0  0  0
 48 42  1  0  0  0  0
 49 43  1  0  0  0  0
 50 44  1  6  0  0  0
 50 48  1  0  0  0  0
 52 54  1  0  0  0  0
 52 51  1  0  0  0  0
 53 58  1  1  0  0  0
 53 54  1  0  0  0  0
 55 53  1  0  0  0  0
 56 52  2  0  0  0  0
 57 55  1  0  0  0  0
 57 56  1  0  0  0  0
 58 59  1  0  0  0  0
 60 58  1  0  0  0  0
 61 63  1  0  0  0  0
 63 62  2  0  0  0  0
 64 65  1  0  0  0  0
 64 63  1  0  0  0  0
M  END
>  <MODEL>
4

>  <REMARK>
 VINA RESULT:      -2.5      3.639     13.409
  Name = 
  17 active torsions:
  status: ('A' for Active; 'I' for Inactive)
    1  A    between atoms: C_2  and  C_19
    2  A    between atoms: C_3  and  N_15
    3  A    between atoms: C_5  and  C_19
    4  A    between atoms: C_6  and  C_9
    5  A    between atoms: C_7  and  N_30
    6  A    between atoms: O_11  and  C_42
    7  A    between atoms: C_13  and  N_28
    8  A    between atoms: C_13  and  C_53
    9  A    between atoms: O_14  and  P_27
   10  A    between atoms: O_14  and  C_59
   11  A    between atoms: O_24  and  C_42
   12  A    between atoms: O_24  and  C_46
   13  A    between atoms: N_28  and  C_29
   14  A    between atoms: C_29  and  C_40
   15  A    between atoms: C_33  and  C_53
   16  A    between atoms: C_35  and  C_50
   17  A    between atoms: C_56  and  C_63
                            x       y       z     vdW  Elec       q    Type
                         _______ _______ _______ _____ _____    ______ ____

>  <TORSDO>
F 17

$$$$
=
 OpenBabel11042423013D

 65 72  0  0  1  0  0  0  0  0999 V2000
  160.2440  213.0520  145.4310 C   0  0  0  0  0  0  0  0  0  0  0  0
  162.7760  211.1880  149.3810 C   0  0  0  0  0  3  0  0  0  0  0  0
  160.8740  214.1120  146.1530 N   0  0  0  0  0  2  0  0  0  0  0  0
  161.6050  213.8350  147.3210 N   0  0  0  0  0  0  0  0  0  0  0  0
  159.4750  213.3400  144.3790 C   0  0  0  0  0  3  0  0  0  0  0  0
  162.4640  212.3810  148.9740 N   0  0  0  0  0  0  0  0  0  0  0  0
  161.3310  210.0860  147.5810 C   0  0  1  0  0  3  0  0  0  0  0  0
  162.5180  209.9550  148.5530 C   0  0  2  0  0  3  0  0  0  0  0  0
  161.7690  212.6170  147.7450 C   0  0  0  0  0  0  0  0  0  0  0  0
  161.1880  211.4690  147.0060 C   0  0  0  0  0  0  0  0  0  0  0  0
  160.4340  211.6800  145.9240 C   0  0  0  0  0  3  0  0  0  0  0  0
  162.1130  207.8480  150.1350 C   0  0  0  0  0  0  0  0  0  0  0  0
  162.2980  208.8110  149.4370 C   0  0  0  0  0  0  0  0  0  0  0  0
  160.5910  207.9070  152.5010 N   0  0  0  0  0  2  0  0  0  0  0  0
  161.9020  206.7060  150.9200 N   0  0  0  0  0  0  0  0  0  0  0  0
  161.2140  206.7020  152.0210 C   0  0  0  0  0  0  0  0  0  0  0  0
  159.9530  208.1040  153.8100 C   0  0  1  0  0  3  0  0  0  0  0  0
  159.6740  206.7500  155.8590 C   0  0  0  0  0  2  0  0  0  0  0  0
  160.1690  207.0910  157.2440 C   0  0  0  0  0  2  0  0  0  0  0  0
  160.9160  208.3940  157.0990 C   0  0  0  0  0  2  0  0  0  0  0  0
  160.6720  207.3510  154.8950 C   0  0  2  0  0  3  0  0  0  0  0  0
  160.0180  209.5410  154.3050 C   0  0  1  0  0  3  0  0  0  0  0  0
  161.1640  209.6980  155.0970 O   0  0  0  0  0  0  0  0  0  0  0  0
  161.4150  208.4320  155.6680 C   0  0  1  0  0  3  0  0  0  0  0  0
  157.2190  213.4910  152.5580 C   0  0  0  0  0  3  0  0  0  0  0  0
  160.2660  212.0260  151.4520 N   0  0  0  0  0  0  0  0  0  0  0  0
  157.8540  211.6270  153.9410 N   0  0  0  0  0  0  0  0  0  0  0  0
  158.3270  213.3100  151.7810 N   0  0  0  0  0  0  0  0  0  0  0  0
  160.8760  210.8760  152.1350 C   0  0  0  0  0  2  0  0  0  0  0  0
  159.1790  212.2990  152.0880 C   0  0  0  0  0  0  0  0  0  0  0  0
  158.9470  211.4820  153.1500 C   0  0  0  0  0  0  0  0  0  0  0  0
  159.9140  210.5980  153.2540 C   0  0  0  0  0  0  0  0  0  0  0  0
  156.9770  212.6370  153.6570 C   0  0  0  0  0  3  0  0  0  0  0  0
  161.0910  205.5210  152.7580 O   0  0  0  0  0  0  0  0  0  0  0  0
  160.5170  203.9800  150.5180 O   0  0  0  0  0  0  0  0  0  0  0  0
  162.8320  203.4890  151.9440 O   0  0  0  0  0  1  0  0  0  0  0  0
  161.2050  203.9500  152.0620 P   0  0  0  0  0  0  0  0  0  0  0  0
  160.4600  202.9560  152.9230 O   0  0  0  0  0  1  0  0  0  0  0  0
  158.7530  212.3060  143.5690 C   0  0  0  0  0  2  0  0  0  0  0  0
  158.6480  212.7140  142.1060 C   0  0  0  0  0  2  0  0  0  0  0  0
  159.8970  213.2980  141.6410 N   0  0  0  0  0  2  0  0  0  0  0  0
  159.9310  213.1730  140.1910 C   0  0  0  0  0  2  0  0  0  0  0  0
  159.9310  211.1480  138.7600 C   0  0  0  0  0  0  0  0  0  0  0  0
  162.2930  212.0430  141.5330 C   0  0  0  0  0  1  0  0  0  0  0  0
  162.2380  210.0290  140.0730 C   0  0  0  0  0  2  0  0  0  0  0  0
  161.5980  207.9810  139.0210 O   0  0  0  0  0  0  0  0  0  0  0  0
  161.3770  209.2110  139.1770 C   0  0  0  0  0  0  0  0  0  0  0  0
  160.4510  211.8140  139.8120 C   0  0  0  0  0  0  0  0  0  0  0  0
  160.3230  209.8240  138.4990 O   0  0  0  0  0  0  0  0  0  0  0  0
  161.3890  211.0930  140.7640 C   0  0  2  0  0  3  0  0  0  0  0  0
  158.8680  211.7780  137.8970 C   0  0  0  0  0  2  0  0  0  0  0  0
  157.5220  211.1510  138.1040 C   0  0  0  0  0  0  0  0  0  0  0  0
  155.1640  211.1440  139.1550 C   0  0  2  0  0  3  0  0  0  0  0  0
  156.6050  211.7080  139.1900 C   0  0  0  0  0  2  0  0  0  0  0  0
  154.7860  210.5380  137.8020 C   0  0  0  0  0  2  0  0  0  0  0  0
  157.1550  210.1350  137.3010 C   0  0  0  0  0  3  0  0  0  0  0  0
  155.8140  209.4800  137.4390 C   0  0  0  0  0  2  0  0  0  0  0  0
  154.1670  212.2230  139.5830 C   0  0  0  0  0  3  0  0  0  0  0  0
  154.8340  213.3160  140.1520 O   0  0  0  0  0  1  0  0  0  0  0  0
  153.4050  212.6550  138.4910 O   0  0  0  0  0  1  0  0  0  0  0  0
  161.3800  209.0710  146.5630 O   0  0  0  0  0  0  0  0  0  0  0  0
  160.3230  207.0610  147.2980 C   0  0  0  0  0  2  0  0  0  0  0  0
  161.3840  207.6830  146.7970 C   0  0  0  0  0  0  0  0  0  0  0  0
  162.5380  206.9570  146.4940 O   0  0  0  0  0  0  0  0  0  0  0  0
  162.4790  205.7780  145.8500 O   0  0  0  0  0  1  0  0  0  0  0  0
  1 11  1  0  0  0  0
  1  3  1  0  0  0  0
  3  4  1  0  0  0  0
  4  9  2  0  0  0  0
  5  1  2  0  0  0  0
  6  2  2  0  0  0  0
  7 61  1  6  0  0  0
  7  8  1  0  0  0  0
  8  2  1  0  0  0  0
  8 13  1  1  0  0  0
  9  6  1  0  0  0  0
 10  7  1  0  0  0  0
 10  9  1  0  0  0  0
 11 10  2  0  0  0  0
 12 15  1  0  0  0  0
 13 12  3  0  0  0  0
 15 16  2  0  0  0  0
 16 14  1  0  0  0  0
 16 34  1  0  0  0  0
 17 14  1  6  0  0  0
 17 22  1  0  0  0  0
 17 21  1  0  0  0  0
 18 19  1  0  0  0  0
 20 19  1  0  0  0  0
 21 24  1  0  0  0  0
 21 18  1  1  0  0  0
 22 32  1  6  0  0  0
 22 23  1  0  0  0  0
 23 24  1  0  0  0  0
 24 20  1  1  0  0  0
 25 33  1  0  0  0  0
 26 30  2  0  0  0  0
 26 29  1  0  0  0  0
 28 30  1  0  0  0  0
 28 25  2  0  0  0  0
 29 32  1  0  0  0  0
 30 31  1  0  0  0  0
 31 32  2  0  0  0  0
 31 27  1  0  0  0  0
 33 27  2  0  0  0  0
 35 37  2  0  0  0  0
 36 37  1  0  0  0  0
 37 34  1  0  0  0  0
 37 38  1  0  0  0  0
 39  5  1  0  0  0  0
 40 39  1  0  0  0  0
 41 40  1  0  0  0  0
 42 41  1  0  0  0  0
 43 48  2  0  0  0  0
 45 50  1  0  0  0  0
 46 47  2  0  0  0  0
 47 45  1  0  0  0  0
 48 42  1  0  0  0  0
 48 50  1  0  0  0  0
 49 43  1  0  0  0  0
 49 47  1  0  0  0  0
 50 44  1  6  0  0  0
 51 52  1  0  0  0  0
 51 43  1  0  0  0  0
 52 54  1  0  0  0  0
 53 54  1  0  0  0  0
 53 58  1  6  0  0  0
 55 53  1  0  0  0  0
 56 57  1  0  0  0  0
 56 52  2  0  0  0  0
 57 55  1  0  0  0  0
 58 59  1  0  0  0  0
 60 58  1  0  0  0  0
 61 63  1  0  0  0  0
 63 62  2  0  0  0  0
 64 63  1  0  0  0  0
 65 64  1  0  0  0  0
M  END
>  <MODEL>
5

>  <REMARK>
 VINA RESULT:       0.1      3.670     13.565
  Name = 
  17 active torsions:
  status: ('A' for Active; 'I' for Inactive)
    1  A    between atoms: C_2  and  C_19
    2  A    between atoms: C_3  and  N_15
    3  A    between atoms: C_5  and  C_19
    4  A    between atoms: C_6  and  C_9
    5  A    between atoms: C_7  and  N_30
    6  A    between atoms: O_11  and  C_42
    7  A    between atoms: C_13  and  N_28
    8  A    between atoms: C_13  and  C_53
    9  A    between atoms: O_14  and  P_27
   10  A    between atoms: O_14  and  C_59
   11  A    between atoms: O_24  and  C_42
   12  A    between atoms: O_24  and  C_46
   13  A    between atoms: N_28  and  C_29
   14  A    between atoms: C_29  and  C_40
   15  A    between atoms: C_33  and  C_53
   16  A    between atoms: C_35  and  C_50
   17  A    between atoms: C_56  and  C_63
                            x       y       z     vdW  Elec       q    Type
                         _______ _______ _______ _____ _____    ______ ____

>  <TORSDO>
F 17

$$$$
