=
 OpenBabel11042422443D

 38 44  0  0  1  0  0  0  0  0999 V2000
  160.8220  212.9870  156.1990 C   0  0  0  0  0  1  0  0  0  0  0  0
  160.5310  209.0360  153.2770 C   0  0  1  0  0  3  0  0  0  0  0  0
  159.7760  210.1870  152.5950 C   0  0  0  0  0  2  0  0  0  0  0  0
  159.7230  211.2220  154.8670 C   0  0  0  0  0  0  0  0  0  0  0  0
  159.3420  212.7370  153.2570 C   0  0  0  0  0  0  0  0  0  0  0  0
  159.3050  213.4350  154.3520 N   0  0  0  0  0  0  0  0  0  0  0  0
  159.5470  212.5620  155.4990 C   0  0  2  0  0  3  0  0  0  0  0  0
  160.0620  209.9430  155.5770 C   0  0  0  0  0  2  0  0  0  0  0  0
  159.9250  208.7290  154.6490 C   0  0  0  0  0  2  0  0  0  0  0  0
  159.6270  211.3390  153.5500 C   0  0  0  0  0  0  0  0  0  0  0  0
  158.0530  212.9610  151.2160 C   0  0  0  0  0  3  0  0  0  0  0  0
  159.8750  212.6780  148.6810 C   0  0  0  0  0  0  0  0  0  0  0  0
  160.8280  213.3630  149.3290 C   0  0  0  0  0  0  0  0  0  0  0  0
  159.9790  214.4390  151.4560 C   0  0  0  0  0  3  0  0  0  0  0  0
  157.7570  213.5500  149.8820 C   0  0  0  0  0  2  0  0  0  0  0  0
  160.6830  214.4530  150.3180 C   0  0  0  0  0  3  0  0  0  0  0  0
  158.4560  212.7930  148.8600 N   0  0  0  0  0  2  0  0  0  0  0  0
  160.4940  211.5410  147.4480 S   0  0  0  0  0  0  0  0  0  0  0  0
  162.2060  213.0230  148.8720 C   0  0  0  0  0  2  0  0  0  0  0  0
  159.1180  213.3370  151.9270 C   0  0  0  0  0  0  0  0  0  0  0  0
  162.1220  211.6410  148.2450 C   0  0  0  0  0  2  0  0  0  0  0  0
  160.7130  205.4290  151.0100 C   0  0  2  0  0  3  0  0  0  0  0  0
  161.0450  207.9780  150.9360 C   0  0  1  0  0  3  0  0  0  0  0  0
  162.4790  208.4620  150.7720 C   0  0  0  0  0  1  0  0  0  0  0  0
  161.4580  206.6560  153.1020 C   0  0  0  0  0  2  0  0  0  0  0  0
  160.8600  206.6810  150.1290 C   0  0  0  0  0  2  0  0  0  0  0  0
  161.6990  205.4520  152.1800 C   0  0  0  0  0  2  0  0  0  0  0  0
  160.6600  207.7750  152.4170 C   0  0  1  0  0  3  0  0  0  0  0  0
  161.2060  201.7960  146.0160 C   0  0  0  0  0  3  0  0  0  0  0  0
  161.1230  201.7710  148.7900 C   0  0  0  0  0  0  0  0  0  0  0  0
  160.9430  202.9490  150.8970 C   0  0  0  0  0  3  0  0  0  0  0  0
  161.3240  200.6010  146.7330 C   0  0  0  0  0  3  0  0  0  0  0  0
  161.0040  202.9970  148.1010 C   0  0  0  0  0  0  0  0  0  0  0  0
  161.0470  203.0010  146.7060 C   0  0  0  0  0  3  0  0  0  0  0  0
  160.8300  204.1680  150.2160 C   0  0  0  0  0  0  0  0  0  0  0  0
  161.0900  201.7530  150.1870 C   0  0  0  0  0  3  0  0  0  0  0  0
  160.8620  204.1900  148.8130 C   0  0  0  0  0  3  0  0  0  0  0  0
  161.2810  200.6130  148.0950 N   0  0  0  0  0  0  0  0  0  0  0  0
  2  3  1  6  0  0  0
  2  9  1  0  0  0  0
  3 10  1  0  0  0  0
  4  7  1  0  0  0  0
  4  8  1  0  0  0  0
  5 10  1  0  0  0  0
  5  6  2  0  0  0  0
  6  7  1  0  0  0  0
  7  1  1  6  0  0  0
  9  8  1  0  0  0  0
 10  4  2  0  0  0  0
 11 20  2  0  0  0  0
 12 17  1  0  0  0  0
 12 13  2  0  0  0  0
 13 16  1  0  0  0  0
 14 20  1  0  0  0  0
 15 11  1  0  0  0  0
 16 14  2  0  0  0  0
 17 15  1  0  0  0  0
 18 21  1  0  0  0  0
 18 12  1  0  0  0  0
 19 13  1  0  0  0  0
 20  5  1  0  0  0  0
 21 19  1  0  0  0  0
 22 35  1  6  0  0  0
 22 27  1  0  0  0  0
 23 24  1  1  0  0  0
 23 28  1  0  0  0  0
 26 23  1  0  0  0  0
 26 22  1  0  0  0  0
 27 25  1  0  0  0  0
 28 25  1  1  0  0  0
 28  2  1  0  0  0  0
 29 34  2  0  0  0  0
 29 32  1  0  0  0  0
 30 36  1  0  0  0  0
 32 38  2  0  0  0  0
 33 30  2  0  0  0  0
 33 37  1  0  0  0  0
 34 33  1  0  0  0  0
 35 31  1  0  0  0  0
 36 31  2  0  0  0  0
 37 35  2  0  0  0  0
 38 30  1  0  0  0  0
M  END
>  <MODEL>
1

>  <REMARK>
 VINA RESULT:      -8.2      0.000      0.000
  Name = 
  3 active torsions:
  status: ('A' for Active; 'I' for Inactive)
    1  A    between atoms: C_2  and  C_36
    2  A    between atoms: C_8  and  C_23
    3  A    between atoms: C_18  and  C_37
                            x       y       z     vdW  Elec       q    Type
                         _______ _______ _______ _____ _____    ______ ____

>  <TORSDO>
F 3

$$$$
=
 OpenBabel11042422443D

 38 44  0  0  1  0  0  0  0  0999 V2000
  162.5570  211.8070  157.2240 C   0  0  0  0  0  1  0  0  0  0  0  0
  161.4510  208.3180  153.9320 C   0  0  1  0  0  3  0  0  0  0  0  0
  160.1910  209.1650  154.1670 C   0  0  0  0  0  2  0  0  0  0  0  0
  161.3250  209.8920  156.2710 C   0  0  0  0  0  0  0  0  0  0  0  0
  159.6780  211.2990  155.6870 C   0  0  0  0  0  0  0  0  0  0  0  0
  160.1690  211.8290  156.7670 N   0  0  0  0  0  0  0  0  0  0  0  0
  161.2700  211.0060  157.2610 C   0  0  2  0  0  3  0  0  0  0  0  0
  162.3230  208.7700  156.2490 C   0  0  0  0  0  2  0  0  0  0  0  0
  161.9290  207.6830  155.2410 C   0  0  0  0  0  2  0  0  0  0  0  0
  160.4040  210.0860  155.3370 C   0  0  0  0  0  0  0  0  0  0  0  0
  158.4040  213.2200  154.9360 C   0  0  0  0  0  3  0  0  0  0  0  0
  155.3580  212.8980  155.6020 C   0  0  0  0  0  0  0  0  0  0  0  0
  155.4610  211.5980  155.2930 C   0  0  0  0  0  0  0  0  0  0  0  0
  157.6480  211.0380  154.1520 C   0  0  0  0  0  3  0  0  0  0  0  0
  157.2940  213.8790  154.1960 C   0  0  0  0  0  2  0  0  0  0  0  0
  156.3190  210.9460  154.2810 C   0  0  0  0  0  3  0  0  0  0  0  0
  156.1340  213.9770  155.0630 N   0  0  0  0  0  2  0  0  0  0  0  0
  154.0760  213.2740  156.7900 S   0  0  0  0  0  0  0  0  0  0  0  0
  154.4720  210.7460  156.0140 C   0  0  0  0  0  2  0  0  0  0  0  0
  158.5390  211.8930  154.9590 C   0  0  0  0  0  0  0  0  0  0  0  0
  154.0620  211.5200  157.2560 C   0  0  0  0  0  2  0  0  0  0  0  0
  160.8940  205.3170  150.9540 C   0  0  2  0  0  3  0  0  0  0  0  0
  161.4600  207.7920  151.3650 C   0  0  1  0  0  3  0  0  0  0  0  0
  162.8860  208.2150  151.0470 C   0  0  0  0  0  1  0  0  0  0  0  0
  162.0960  205.9900  153.0850 C   0  0  0  0  0  2  0  0  0  0  0  0
  161.0140  206.7260  150.3490 C   0  0  0  0  0  2  0  0  0  0  0  0
  162.0590  205.0150  151.8990 C   0  0  0  0  0  2  0  0  0  0  0  0
  161.3100  207.2800  152.8140 C   0  0  1  0  0  3  0  0  0  0  0  0
  161.0130  202.7690  145.3080 C   0  0  0  0  0  3  0  0  0  0  0  0
  160.5360  202.2270  147.9890 C   0  0  0  0  0  0  0  0  0  0  0  0
  160.4090  202.9630  150.2900 C   0  0  0  0  0  3  0  0  0  0  0  0
  160.6770  201.4810  145.7380 C   0  0  0  0  0  3  0  0  0  0  0  0
  160.8760  203.5380  147.5930 C   0  0  0  0  0  0  0  0  0  0  0  0
  161.1150  203.8020  146.2440 C   0  0  0  0  0  3  0  0  0  0  0  0
  160.7510  204.2650  149.9020 C   0  0  0  0  0  0  0  0  0  0  0  0
  160.3020  201.9460  149.3370 C   0  0  0  0  0  3  0  0  0  0  0  0
  160.9860  204.5510  148.5480 C   0  0  0  0  0  3  0  0  0  0  0  0
  160.4470  201.2380  147.0580 N   0  0  0  0  0  0  0  0  0  0  0  0
  2  3  1  1  0  0  0
  2  9  1  0  0  0  0
  3 10  1  0  0  0  0
  4  7  1  0  0  0  0
  5  6  2  0  0  0  0
  6  7  1  0  0  0  0
  7  1  1  6  0  0  0
  8  4  1  0  0  0  0
  9  8  1  0  0  0  0
 10  5  1  0  0  0  0
 10  4  2  0  0  0  0
 11 20  2  0  0  0  0
 12 18  1  0  0  0  0
 13 12  2  0  0  0  0
 13 19  1  0  0  0  0
 14 16  2  0  0  0  0
 14 20  1  0  0  0  0
 15 11  1  0  0  0  0
 15 17  1  0  0  0  0
 16 13  1  0  0  0  0
 17 12  1  0  0  0  0
 18 21  1  0  0  0  0
 19 21  1  0  0  0  0
 20  5  1  0  0  0  0
 22 35  1  6  0  0  0
 22 27  1  0  0  0  0
 23 24  1  6  0  0  0
 23 28  1  0  0  0  0
 26 22  1  0  0  0  0
 26 23  1  0  0  0  0
 27 25  1  0  0  0  0
 28 25  1  1  0  0  0
 28  2  1  0  0  0  0
 29 32  2  0  0  0  0
 29 34  1  0  0  0  0
 30 36  1  0  0  0  0
 32 38  1  0  0  0  0
 33 30  1  0  0  0  0
 33 37  1  0  0  0  0
 34 33  2  0  0  0  0
 35 31  1  0  0  0  0
 36 31  2  0  0  0  0
 37 35  2  0  0  0  0
 38 30  2  0  0  0  0
M  END
>  <MODEL>
2

>  <REMARK>
 VINA RESULT:      -5.7      3.297      4.487
  Name = 
  3 active torsions:
  status: ('A' for Active; 'I' for Inactive)
    1  A    between atoms: C_2  and  C_36
    2  A    between atoms: C_8  and  C_23
    3  A    between atoms: C_18  and  C_37
                            x       y       z     vdW  Elec       q    Type
                         _______ _______ _______ _____ _____    ______ ____

>  <TORSDO>
F 3

$$$$
