=
 OpenBabel11052412083D

 50 58  0  0  1  0  0  0  0  0999 V2000
  161.4950  205.9890  148.7200 C   0  0  0  0  0  3  0  0  0  0  0  0
  161.5200  211.2340  151.2000 O   0  0  0  0  0  1  0  0  0  0  0  0
  160.8620  210.7450  153.4510 C   0  0  0  0  0  0  0  0  0  0  0  0
  160.4610  207.9290  152.8000 C   0  0  1  0  0  3  0  0  0  0  0  0
  161.2130  210.0590  154.7820 C   0  0  0  0  0  2  0  0  0  0  0  0
  160.6600  208.9740  151.6580 C   0  0  1  0  0  3  0  0  0  0  0  0
  160.8750  205.7430  149.9480 C   0  0  0  0  0  3  0  0  0  0  0  0
  161.7910  208.3410  149.3010 C   0  0  0  0  0  0  0  0  0  0  0  0
  162.4490  206.7980  153.6030 O   0  0  0  0  0  0  0  0  0  0  0  0
  159.9820  211.6890  153.4390 N   0  0  0  0  0  0  0  0  0  0  0  0
  160.7240  206.8060  150.8240 C   0  0  0  0  0  0  0  0  0  0  0  0
  160.1810  206.6800  152.1260 N   0  0  0  0  0  2  0  0  0  0  0  0
  162.0190  208.8540  154.6280 N   0  0  0  0  0  2  0  0  0  0  0  0
  161.6900  207.8030  153.6940 C   0  0  0  0  0  0  0  0  0  0  0  0
  161.4460  210.2090  152.1450 C   0  0  1  0  0  3  0  0  0  0  0  0
  161.9700  207.2720  148.4120 C   0  0  0  0  0  3  0  0  0  0  0  0
  161.1650  208.0890  150.5360 C   0  0  0  0  0  0  0  0  0  0  0  0
  158.6110  213.8130  156.1490 N   0  0  0  0  0  0  0  0  0  0  0  0
  160.1260  211.8880  155.9320 C   0  0  0  0  0  2  0  0  0  0  0  0
  157.8690  213.8550  153.8770 O   0  0  0  0  0  1  0  0  0  0  0  0
  159.3120  212.0690  154.6870 C   0  0  1  0  0  3  0  0  0  0  0  0
  158.9370  213.5240  154.7370 C   0  0  2  0  0  3  0  0  0  0  0  0
  159.3970  212.8060  156.9080 C   0  0  0  0  0  2  0  0  0  0  0  0
  157.1730  213.6670  156.5160 C   0  0  1  0  0  3  0  0  0  0  0  0
  156.1920  214.4420  155.6020 C   0  0  0  0  0  1  0  0  0  0  0  0
  156.7350  212.2070  156.8020 C   0  0  2  0  0  3  0  0  0  0  0  0
  154.5930  211.2530  156.3530 C   0  0  0  0  0  2  0  0  0  0  0  0
  156.8400  211.3310  155.6270 N   0  0  0  0  0  2  0  0  0  0  0  0
  155.3140  212.2150  157.2550 C   0  0  0  0  0  2  0  0  0  0  0  0
  155.6750  210.4770  155.6790 C   0  0  0  0  0  2  0  0  0  0  0  0
  162.4860  209.9450  148.8380 S   0  0  0  0  0  0  0  0  0  0  0  0
  161.8810  214.3230  145.9970 C   0  0  0  0  0  2  0  0  0  0  0  0
  161.3720  213.3860  145.0010 N   0  0  0  0  0  0  0  0  0  0  0  0
  161.5630  211.8500  146.9660 C   0  0  1  0  0  0  0  0  0  0  0  0
  161.1080  210.6690  147.8320 C   0  0  2  0  0  3  0  0  0  0  0  0
  162.9850  213.7030  146.8680 C   0  0  1  0  0  3  0  0  0  0  0  0
  160.7690  212.2430  145.6990 C   0  0  0  0  0  2  0  0  0  0  0  0
  160.7530  212.1040  148.2280 C   0  0  0  0  0  2  0  0  0  0  0  0
  163.0990  214.4530  148.2020 C   0  0  0  0  0  1  0  0  0  0  0  0
  162.9110  212.3010  147.0800 O   0  0  0  0  0  0  0  0  0  0  0  0
  160.3290  214.0980  144.3450 N   0  0  0  0  0  2  0  0  0  0  0  0
  160.6820  214.4530  142.9680 C   0  0  1  0  0  3  0  0  0  0  0  0
  161.7120  213.4670  142.3610 C   0  0  2  0  0  3  0  0  0  0  0  0
  160.0600  213.5950  140.7740 C   0  0  2  0  0  3  0  0  0  0  0  0
  161.5240  213.6720  140.9310 N   0  0  0  0  0  0  0  0  0  0  0  0
  159.5180  214.3980  141.9670 C   0  0  0  0  0  2  0  0  0  0  0  0
  159.9730  211.5540  142.2940 C   0  0  0  0  0  2  0  0  0  0  0  0
  159.5650  212.1380  140.9260 C   0  0  0  0  0  2  0  0  0  0  0  0
  162.2960  212.7460  140.0840 C   0  0  0  0  0  1  0  0  0  0  0  0
  161.3940  211.9780  142.7240 C   0  0  0  0  0  2  0  0  0  0  0  0
  1  7  1  0  0  0  0
  3  5  1  0  0  0  0
  4 12  1  6  0  0  0
  4 14  1  0  0  0  0
  6 17  1  6  0  0  0
  6 15  1  0  0  0  0
  6  4  1  0  0  0  0
  7 11  2  0  0  0  0
  8 17  2  0  0  0  0
  9 14  2  0  0  0  0
 10  3  2  0  0  0  0
 11 12  1  0  0  0  0
 13  5  1  0  0  0  0
 14 13  1  0  0  0  0
 15  2  1  6  0  0  0
 15  3  1  0  0  0  0
 16  1  2  0  0  0  0
 16  8  1  0  0  0  0
 17 11  1  0  0  0  0
 18 24  1  0  0  0  0
 18 23  1  0  0  0  0
 19 23  1  0  0  0  0
 21 10  1  6  0  0  0
 21 22  1  0  0  0  0
 21 19  1  0  0  0  0
 22 20  1  6  0  0  0
 22 18  1  0  0  0  0
 24 25  1  6  0  0  0
 26 24  1  6  0  0  0
 26 29  1  0  0  0  0
 27 29  1  0  0  0  0
 28 30  1  0  0  0  0
 28 26  1  0  0  0  0
 30 27  1  0  0  0  0
 31  8  1  0  0  0  0
 32 36  1  0  0  0  0
 33 37  1  0  0  0  0
 33 32  1  0  0  0  0
 34 37  1  6  0  0  0
 34 40  1  0  0  0  0
 34 35  1  0  0  0  0
 34 38  1  0  0  0  0
 35 38  1  0  0  0  0
 35 31  1  1  0  0  0
 36 40  1  0  0  0  0
 36 39  1  1  0  0  0
 41 33  1  0  0  0  0
 42 41  1  1  0  0  0
 43 50  1  6  0  0  0
 43 42  1  0  0  0  0
 44 48  1  1  0  0  0
 44 45  1  0  0  0  0
 44 46  1  0  0  0  0
 45 43  1  0  0  0  0
 46 42  1  0  0  0  0
 47 50  1  0  0  0  0
 48 47  1  0  0  0  0
 49 45  1  0  0  0  0
M  END
>  <MODEL>
1

>  <REMARK>
 VINA RESULT:      -2.9      0.000      0.000
  Name = 
  7 active torsions:
  status: ('A' for Active; 'I' for Inactive)
    1  A    between atoms: C_1  and  C_28
    2  A    between atoms: N_3  and  C_28
    3  A    between atoms: C_5  and  N_12
    4  A    between atoms: N_6  and  N_12
    5  A    between atoms: C_10  and  S_21
    6  A    between atoms: C_20  and  S_21
    7  A    between atoms: N_27  and  C_38
                            x       y       z     vdW  Elec       q    Type
                         _______ _______ _______ _____ _____    ______ ____

>  <TORSDO>
F 7

$$$$
=
 OpenBabel11052412083D

 50 58  0  0  1  0  0  0  0  0999 V2000
  161.1820  213.1540  157.0430 C   0  0  0  0  0  3  0  0  0  0  0  0
  159.0310  209.7350  152.8790 O   0  0  0  0  0  1  0  0  0  0  0  0
  160.4480  207.8090  153.0070 C   0  0  0  0  0  0  0  0  0  0  0  0
  162.1010  209.0710  155.0530 C   0  0  1  0  0  3  0  0  0  0  0  0
  160.9130  206.5960  153.8320 C   0  0  0  0  0  2  0  0  0  0  0  0
  161.0590  209.9190  154.2580 C   0  0  1  0  0  3  0  0  0  0  0  0
  162.1510  212.1520  156.9470 C   0  0  0  0  0  3  0  0  0  0  0  0
  159.8410  212.0720  155.3140 C   0  0  0  0  0  0  0  0  0  0  0  0
  161.3570  208.1180  157.1540 O   0  0  0  0  0  0  0  0  0  0  0  0
  160.6350  207.8130  151.7310 N   0  0  0  0  0  0  0  0  0  0  0  0
  161.9440  211.1330  156.0310 C   0  0  0  0  0  0  0  0  0  0  0  0
  162.8080  210.0210  155.8850 N   0  0  0  0  0  2  0  0  0  0  0  0
  160.8780  206.8160  155.2730 N   0  0  0  0  0  2  0  0  0  0  0  0
  161.4440  207.9870  155.9010 C   0  0  0  0  0  0  0  0  0  0  0  0
  159.9070  209.0470  153.7200 C   0  0  1  0  0  3  0  0  0  0  0  0
  160.0260  213.0990  156.2500 C   0  0  0  0  0  3  0  0  0  0  0  0
  160.8220  211.0660  155.2200 C   0  0  0  0  0  0  0  0  0  0  0  0
  161.2620  204.3730  150.5050 N   0  0  0  0  0  0  0  0  0  0  0  0
  162.3980  206.0430  151.9070 C   0  0  0  0  0  2  0  0  0  0  0  0
  159.4910  205.7870  149.7470 O   0  0  0  0  0  1  0  0  0  0  0  0
  161.3120  206.6790  151.0930 C   0  0  1  0  0  3  0  0  0  0  0  0
  160.3900  205.5280  150.8020 C   0  0  2  0  0  3  0  0  0  0  0  0
  162.5170  204.6770  151.2390 C   0  0  0  0  0  2  0  0  0  0  0  0
  161.5920  204.1740  149.0650 C   0  0  1  0  0  3  0  0  0  0  0  0
  161.1940  202.7890  148.4970 C   0  0  0  0  0  1  0  0  0  0  0  0
  161.1890  205.3600  148.1500 C   0  0  2  0  0  3  0  0  0  0  0  0
  162.3750  206.1410  146.2300 C   0  0  0  0  0  2  0  0  0  0  0  0
  160.4680  204.9390  146.9410 N   0  0  0  0  0  2  0  0  0  0  0  0
  162.4250  206.0820  147.7320 C   0  0  0  0  0  2  0  0  0  0  0  0
  160.9680  205.7870  145.8820 C   0  0  0  0  0  2  0  0  0  0  0  0
  158.2950  212.0570  154.3770 S   0  0  0  0  0  0  0  0  0  0  0  0
  160.7420  212.7390  149.7780 C   0  0  0  0  0  2  0  0  0  0  0  0
  159.4830  213.3790  149.4120 N   0  0  0  0  0  0  0  0  0  0  0  0
  159.1030  213.0700  151.8650 C   0  0  1  0  0  0  0  0  0  0  0  0
  158.5440  213.4920  153.2300 C   0  0  2  0  0  3  0  0  0  0  0  0
  160.5400  211.5860  150.7730 C   0  0  1  0  0  3  0  0  0  0  0  0
  158.8870  213.9620  150.6210 C   0  0  0  0  0  2  0  0  0  0  0  0
  160.0120  213.7460  152.8800 C   0  0  0  0  0  2  0  0  0  0  0  0
  161.8370  211.3140  151.5480 C   0  0  0  0  0  1  0  0  0  0  0  0
  159.4360  211.6990  151.6590 O   0  0  0  0  0  0  0  0  0  0  0  0
  159.8650  214.4470  148.5540 N   0  0  0  0  0  2  0  0  0  0  0  0
  159.1140  214.4430  147.2960 C   0  0  1  0  0  3  0  0  0  0  0  0
  160.0520  214.4530  146.0610 C   0  0  2  0  0  3  0  0  0  0  0  0
  158.5840  212.7420  145.6330 C   0  0  2  0  0  3  0  0  0  0  0  0
  159.1810  213.9390  145.0120 N   0  0  0  0  0  0  0  0  0  0  0  0
  158.2490  213.1950  147.0630 C   0  0  0  0  0  2  0  0  0  0  0  0
  160.8570  212.0430  146.5440 C   0  0  0  0  0  2  0  0  0  0  0  0
  159.6210  211.5990  145.7350 C   0  0  0  0  0  2  0  0  0  0  0  0
  159.8600  213.7070  143.7270 C   0  0  0  0  0  1  0  0  0  0  0  0
  161.2790  213.4970  146.2410 C   0  0  0  0  0  2  0  0  0  0  0  0
  3 15  1  0  0  0  0
  3  5  1  0  0  0  0
  4 12  1  1  0  0  0
  4 14  1  0  0  0  0
  5 13  1  0  0  0  0
  6  4  1  0  0  0  0
  6 17  1  1  0  0  0
  7  1  1  0  0  0  0
  8 16  1  0  0  0  0
 10  3  2  0  0  0  0
 11  7  2  0  0  0  0
 12 11  1  0  0  0  0
 13 14  1  0  0  0  0
 14  9  2  0  0  0  0
 15  2  1  6  0  0  0
 15  6  1  0  0  0  0
 16  1  2  0  0  0  0
 17  8  2  0  0  0  0
 17 11  1  0  0  0  0
 18 22  1  0  0  0  0
 18 23  1  0  0  0  0
 21 10  1  1  0  0  0
 21 19  1  0  0  0  0
 22 20  1  6  0  0  0
 22 21  1  0  0  0  0
 23 19  1  0  0  0  0
 24 25  1  6  0  0  0
 24 18  1  0  0  0  0
 26 24  1  6  0  0  0
 27 29  1  0  0  0  0
 28 26  1  0  0  0  0
 29 26  1  0  0  0  0
 30 27  1  0  0  0  0
 30 28  1  0  0  0  0
 31  8  1  0  0  0  0
 32 36  1  0  0  0  0
 33 32  1  0  0  0  0
 33 37  1  0  0  0  0
 34 37  1  6  0  0  0
 34 38  1  0  0  0  0
 34 35  1  0  0  0  0
 35 31  1  1  0  0  0
 36 39  1  1  0  0  0
 36 40  1  0  0  0  0
 38 35  1  0  0  0  0
 40 34  1  0  0  0  0
 41 33  1  0  0  0  0
 42 41  1  1  0  0  0
 43 50  1  1  0  0  0
 43 42  1  0  0  0  0
 44 48  1  1  0  0  0
 44 46  1  0  0  0  0
 45 44  1  0  0  0  0
 45 43  1  0  0  0  0
 46 42  1  0  0  0  0
 48 47  1  0  0  0  0
 49 45  1  0  0  0  0
 50 47  1  0  0  0  0
M  END
>  <MODEL>
2

>  <REMARK>
 VINA RESULT:      -2.3      3.013      7.430
  Name = 
  7 active torsions:
  status: ('A' for Active; 'I' for Inactive)
    1  A    between atoms: C_1  and  C_28
    2  A    between atoms: N_3  and  C_28
    3  A    between atoms: C_5  and  N_12
    4  A    between atoms: N_6  and  N_12
    5  A    between atoms: C_10  and  S_21
    6  A    between atoms: C_20  and  S_21
    7  A    between atoms: N_27  and  C_38
                            x       y       z     vdW  Elec       q    Type
                         _______ _______ _______ _____ _____    ______ ____

>  <TORSDO>
F 7

$$$$
