=
 OpenBabel11042420223D

 30 36  0  0  1  0  0  0  0  0999 V2000
  161.6240  205.0800  149.4160 C   0  0  1  0  0  3  0  0  0  0  0  0
  161.4110  205.2540  152.6560 N   0  0  0  0  0  2  0  0  0  0  0  0
  161.3590  206.7660  147.2600 C   0  0  1  0  0  3  0  0  0  0  0  0
  160.6980  207.4470  149.6140 N   0  0  0  0  0  2  0  0  0  0  0  0
  161.2670  204.3100  151.5920 C   0  0  0  0  0  0  0  0  0  0  0  0
  162.1290  209.8350  151.9280 N   0  0  0  0  0  0  0  0  0  0  0  0
  161.7360  203.0680  151.8040 C   0  0  0  0  0  3  0  0  0  0  0  0
  161.8930  208.6900  152.7340 C   0  0  2  0  0  3  0  0  0  0  0  0
  160.6090  202.6190  148.8460 C   0  0  2  0  0  3  0  0  0  0  0  0
  160.7150  206.5380  152.6870 C   0  0  2  0  0  3  0  0  0  0  0  0
  161.8520  209.4510  150.7190 C   0  0  0  0  0  3  0  0  0  0  0  0
  161.4180  208.0430  150.7010 C   0  0  0  0  0  0  0  0  0  0  0  0
  161.2420  201.6380  149.7310 C   0  0  0  0  0  3  0  0  0  0  0  0
  160.6600  203.9040  149.1280 C   0  0  1  0  0  3  0  0  0  0  0  0
  161.4770  207.5890  151.9500 C   0  0  0  0  0  0  0  0  0  0  0  0
  159.7150  202.1330  147.7660 C   0  0  0  0  0  1  0  0  0  0  0  0
  161.2990  206.4230  148.7550 C   0  0  1  0  0  0  0  0  0  0  0  0
  160.6020  204.8000  150.3440 C   0  0  2  0  0  3  0  0  0  0  0  0
  161.4910  209.8680  154.8640 C   0  0  0  0  0  1  0  0  0  0  0  0
  160.6740  207.1320  154.4330 S   0  0  0  0  0  0  0  0  0  0  0  0
  161.5230  208.6590  153.9960 C   0  0  1  0  0  3  0  0  0  0  0  0
  161.7280  201.8470  150.9620 C   0  0  0  0  0  3  0  0  0  0  0  0
  162.5680  206.9960  148.1390 C   0  0  0  0  0  2  0  0  0  0  0  0
  164.1340  204.5400  146.4140 Cl  0  0  0  0  0  0  0  0  0  0  0  0
  161.8450  203.3070  145.6680 C   0  0  0  0  0  2  0  0  0  0  0  0
  160.4890  205.3060  145.4570 N   0  0  0  0  0  2  0  0  0  0  0  0
  159.8480  203.3670  144.3130 O   0  0  0  0  0  0  0  0  0  0  0  0
  160.6530  203.9560  145.0790 C   0  0  0  0  0  0  0  0  0  0  0  0
  161.6640  205.6790  146.2130 C   0  0  2  0  0  3  0  0  0  0  0  0
  162.3740  204.3760  146.6200 C   0  0  2  0  0  3  0  0  0  0  0  0
  1 18  1  0  0  0  0
  2 10  1  0  0  0  0
  3 23  1  0  0  0  0
  3 17  1  0  0  0  0
  4 12  1  0  0  0  0
  5  7  2  0  0  0  0
  5  2  1  0  0  0  0
  6  8  1  0  0  0  0
  8 21  1  0  0  0  0
  9 14  1  0  0  0  0
  9 13  1  0  0  0  0
 10 20  1  0  0  0  0
 11  6  2  0  0  0  0
 12 11  1  0  0  0  0
 12 15  2  0  0  0  0
 13 22  2  0  0  0  0
 14  1  1  0  0  0  0
 14 18  1  0  0  0  0
 15 10  1  0  0  0  0
 15  8  1  0  0  0  0
 16  9  1  0  0  0  0
 17  1  1  0  0  0  0
 17  4  1  0  0  0  0
 18  5  1  0  0  0  0
 21 20  1  0  0  0  0
 21 19  1  0  0  0  0
 22  7  1  0  0  0  0
 23 17  1  0  0  0  0
 24 30  1  0  0  0  0
 25 30  1  0  0  0  0
 26 29  1  0  0  0  0
 27 28  2  0  0  0  0
 28 26  1  0  0  0  0
 28 25  1  0  0  0  0
 29 30  1  0  0  0  0
 29  3  1  0  0  0  0
M  END
>  <MODEL>
1

>  <REMARK>
 VINA RESULT:      -9.4      0.000      0.000
  Name = 
  1 active torsions:
  status: ('A' for Active; 'I' for Inactive)
    1  A    between atoms: C_4  and  C_25
                            x       y       z     vdW  Elec       q    Type
                         _______ _______ _______ _____ _____    ______ ____

>  <TORSDO>
F 1

$$$$
=
 OpenBabel11042420223D

 30 36  0  0  1  0  0  0  0  0999 V2000
  161.4500  205.0310  149.9800 C   0  0  1  0  0  3  0  0  0  0  0  0
  161.3620  205.2400  153.2240 N   0  0  0  0  0  2  0  0  0  0  0  0
  161.0450  206.6790  147.8170 C   0  0  1  0  0  3  0  0  0  0  0  0
  160.4560  207.3700  150.1880 N   0  0  0  0  0  2  0  0  0  0  0  0
  161.2060  204.2790  152.1780 C   0  0  0  0  0  0  0  0  0  0  0  0
  161.9000  209.8330  152.4140 N   0  0  0  0  0  0  0  0  0  0  0  0
  161.7230  203.0550  152.3860 C   0  0  0  0  0  3  0  0  0  0  0  0
  161.7340  208.6910  153.2420 C   0  0  2  0  0  3  0  0  0  0  0  0
  160.4940  202.5310  149.4810 C   0  0  2  0  0  3  0  0  0  0  0  0
  160.6260  206.5020  153.2670 C   0  0  2  0  0  3  0  0  0  0  0  0
  161.5880  209.4240  151.2210 C   0  0  0  0  0  3  0  0  0  0  0  0
  161.2000  208.0020  151.2370 C   0  0  0  0  0  0  0  0  0  0  0  0
  161.1930  201.5830  150.3510 C   0  0  0  0  0  3  0  0  0  0  0  0
  160.5140  203.8210  149.7450 C   0  0  1  0  0  3  0  0  0  0  0  0
  161.3230  207.5670  152.4880 C   0  0  0  0  0  0  0  0  0  0  0  0
  159.5740  202.0030  148.4430 C   0  0  0  0  0  1  0  0  0  0  0  0
  161.0560  206.3550  149.3170 C   0  0  1  0  0  0  0  0  0  0  0  0
  160.4760  204.7310  150.9520 C   0  0  2  0  0  3  0  0  0  0  0  0
  161.3800  209.8830  155.3720 C   0  0  0  0  0  1  0  0  0  0  0  0
  160.6360  207.1180  155.0070 S   0  0  0  0  0  0  0  0  0  0  0  0
  161.4160  208.6650  154.5180 C   0  0  1  0  0  3  0  0  0  0  0  0
  161.7220  201.8230  151.5580 C   0  0  0  0  0  3  0  0  0  0  0  0
  162.2790  206.9600  148.6430 C   0  0  0  0  0  2  0  0  0  0  0  0
  159.4060  205.2340  144.8860 Cl  0  0  0  0  0  0  0  0  0  0  0  0
  162.0760  205.0120  144.5170 C   0  0  0  0  0  2  0  0  0  0  0  0
  162.7060  205.1110  146.8560 N   0  0  0  0  0  2  0  0  0  0  0  0
  164.1770  204.1350  145.3190 O   0  0  0  0  0  0  0  0  0  0  0  0
  163.0810  204.7030  145.5580 C   0  0  0  0  0  0  0  0  0  0  0  0
  161.3430  205.5890  146.7720 C   0  0  2  0  0  3  0  0  0  0  0  0
  161.0360  205.8250  145.2830 C   0  0  2  0  0  3  0  0  0  0  0  0
  1 18  1  0  0  0  0
  2 10  1  0  0  0  0
  3 23  1  0  0  0  0
  3 17  1  0  0  0  0
  4 12  1  0  0  0  0
  5  7  2  0  0  0  0
  5  2  1  0  0  0  0
  6  8  1  0  0  0  0
  8 21  1  0  0  0  0
  9 14  1  0  0  0  0
  9 13  1  0  0  0  0
 10 20  1  0  0  0  0
 11 12  1  0  0  0  0
 11  6  2  0  0  0  0
 12 15  2  0  0  0  0
 13 22  2  0  0  0  0
 14  1  1  0  0  0  0
 14 18  1  0  0  0  0
 15  8  1  0  0  0  0
 15 10  1  0  0  0  0
 16  9  1  0  0  0  0
 17  1  1  0  0  0  0
 17  4  1  0  0  0  0
 18  5  1  0  0  0  0
 21 20  1  0  0  0  0
 21 19  1  0  0  0  0
 22  7  1  0  0  0  0
 23 17  1  0  0  0  0
 24 30  1  0  0  0  0
 25 30  1  0  0  0  0
 25 28  1  0  0  0  0
 27 28  2  0  0  0  0
 28 26  1  0  0  0  0
 29 26  1  0  0  0  0
 29  3  1  0  0  0  0
 30 29  1  0  0  0  0
M  END
>  <MODEL>
2

>  <REMARK>
 VINA RESULT:      -8.9      1.524      1.609
  Name = 
  1 active torsions:
  status: ('A' for Active; 'I' for Inactive)
    1  A    between atoms: C_4  and  C_25
                            x       y       z     vdW  Elec       q    Type
                         _______ _______ _______ _____ _____    ______ ____

>  <TORSDO>
F 1

$$$$
=
 OpenBabel11042420223D

 30 36  0  0  1  0  0  0  0  0999 V2000
  160.8440  204.6120  149.1580 C   0  0  1  0  0  3  0  0  0  0  0  0
  161.2270  207.8380  149.2930 N   0  0  0  0  0  2  0  0  0  0  0  0
  161.2060  202.4440  150.8090 C   0  0  1  0  0  3  0  0  0  0  0  0
  162.0520  204.7630  151.3980 N   0  0  0  0  0  2  0  0  0  0  0  0
  161.2090  206.7700  148.3430 C   0  0  0  0  0  0  0  0  0  0  0  0
  161.0230  207.1370  153.9300 N   0  0  0  0  0  0  0  0  0  0  0  0
  160.6070  207.0060  147.1640 C   0  0  0  0  0  3  0  0  0  0  0  0
  161.1590  207.9330  152.7610 C   0  0  0  0  0  0  0  0  0  0  0  0
  161.5340  204.0000  146.5960 C   0  0  2  0  0  3  0  0  0  0  0  0
  162.0710  207.8340  150.4850 C   0  0  2  0  0  3  0  0  0  0  0  0
  161.1960  205.9170  153.5200 C   0  0  0  0  0  2  0  0  0  0  0  0
  161.4590  205.8810  152.0710 C   0  0  0  0  0  0  0  0  0  0  0  0
  160.8310  204.9140  145.6940 C   0  0  0  0  0  3  0  0  0  0  0  0
  161.6480  204.2810  147.8770 C   0  0  1  0  0  3  0  0  0  0  0  0
  161.4050  207.1320  151.6220 C   0  0  0  0  0  0  0  0  0  0  0  0
  162.3130  202.8790  146.0130 C   0  0  0  0  0  1  0  0  0  0  0  0
  161.2950  203.9350  150.4560 C   0  0  1  0  0  0  0  0  0  0  0  0
  161.8690  205.4920  148.7560 C   0  0  2  0  0  3  0  0  0  0  0  0
  161.7960  210.0400  153.8750 C   0  0  0  0  0  1  0  0  0  0  0  0
  162.2630  209.5760  151.0640 S   0  0  0  0  0  0  0  0  0  0  0  0
  161.5810  209.1770  152.6820 C   0  0  1  0  0  3  0  0  0  0  0  0
  160.4310  206.1660  145.9540 C   0  0  0  0  0  3  0  0  0  0  0  0
  160.0760  203.3770  151.1770 C   0  0  0  0  0  2  0  0  0  0  0  0
  158.0280  201.3280  149.3860 Cl  0  0  0  0  0  0  0  0  0  0  0  0
  159.9370  200.9530  147.5070 C   0  0  0  0  0  2  0  0  0  0  0  0
  161.8250  200.8400  149.0240 N   0  0  0  0  0  2  0  0  0  0  0  0
  162.0110  199.8800  146.8970 O   0  0  0  0  0  0  0  0  0  0  0  0
  161.3260  200.5030  147.7480 C   0  0  0  0  0  0  0  0  0  0  0  0
  160.7260  201.4140  149.7700 C   0  0  2  0  0  3  0  0  0  0  0  0
  159.6300  201.7770  148.7540 C   0  0  2  0  0  3  0  0  0  0  0  0
  1 17  1  0  0  0  0
  2 10  1  0  0  0  0
  3 23  1  0  0  0  0
  4 12  1  0  0  0  0
  5 18  1  0  0  0  0
  5  2  1  0  0  0  0
  7  5  2  0  0  0  0
  8  6  2  0  0  0  0
  9 14  1  0  0  0  0
 10 20  1  0  0  0  0
 10 15  1  0  0  0  0
 11  6  1  0  0  0  0
 12 11  1  0  0  0  0
 13 22  2  0  0  0  0
 13  9  1  0  0  0  0
 14 18  1  0  0  0  0
 14  1  1  0  0  0  0
 15 12  2  0  0  0  0
 15  8  1  0  0  0  0
 16  9  1  0  0  0  0
 17  3  1  0  0  0  0
 17 23  1  0  0  0  0
 17  4  1  0  0  0  0
 18  1  1  0  0  0  0
 20 21  1  0  0  0  0
 21  8  1  0  0  0  0
 21 19  1  0  0  0  0
 22  7  1  0  0  0  0
 25 28  1  0  0  0  0
 25 30  1  0  0  0  0
 26 29  1  0  0  0  0
 27 28  2  0  0  0  0
 28 26  1  0  0  0  0
 29  3  1  0  0  0  0
 30 24  1  0  0  0  0
 30 29  1  0  0  0  0
M  END
>  <MODEL>
3

>  <REMARK>
 VINA RESULT:      -8.0      2.365      4.174
  Name = 
  1 active torsions:
  status: ('A' for Active; 'I' for Inactive)
    1  A    between atoms: C_4  and  C_25
                            x       y       z     vdW  Elec       q    Type
                         _______ _______ _______ _____ _____    ______ ____

>  <TORSDO>
F 1

$$$$
=
 OpenBabel11042420223D

 30 36  0  0  1  0  0  0  0  0999 V2000
  159.9140  210.7150  152.2690 C   0  0  1  0  0  3  0  0  0  0  0  0
  161.8230  210.4020  149.6560 N   0  0  0  0  0  0  0  0  0  0  0  0
  158.5440  212.7140  153.5670 C   0  0  1  0  0  3  0  0  0  0  0  0
  160.2070  213.1850  151.7080 N   0  0  0  0  0  2  0  0  0  0  0  0
  161.5770  209.7820  150.9200 C   0  0  0  0  0  0  0  0  0  0  0  0
  159.7670  214.4070  148.3290 N   0  0  0  0  0  0  0  0  0  0  0  0
  161.6120  208.4390  150.9640 C   0  0  0  0  0  2  0  0  0  0  0  0
  160.6690  213.3210  148.1760 C   0  0  0  0  0  0  0  0  0  0  0  0
  160.9960  208.9690  154.0560 C   0  0  2  0  0  3  0  0  0  0  0  0
  162.0950  211.8290  149.5030 C   0  0  2  0  0  3  0  0  0  0  0  0
  159.4150  214.3710  149.5790 C   0  0  0  0  0  2  0  0  0  0  0  0
  160.0850  213.2630  150.2820 C   0  0  0  0  0  0  0  0  0  0  0  0
  161.2060  207.6850  153.3840 C   0  0  0  0  0  3  0  0  0  0  0  0
  160.8070  210.0670  153.3560 C   0  0  1  0  0  3  0  0  0  0  0  0
  160.8310  212.6160  149.3910 C   0  0  0  0  0  0  0  0  0  0  0  0
  161.2340  209.0570  155.5190 C   0  0  0  0  0  1  0  0  0  0  0  0
  159.4950  212.1710  152.4910 C   0  0  1  0  0  0  0  0  0  0  0  0
  161.3100  210.6960  152.0750 C   0  0  2  0  0  3  0  0  0  0  0  0
  161.8830  214.1800  146.2080 C   0  0  0  0  0  1  0  0  0  0  0  0
  162.9470  212.0860  147.8860 S   0  0  0  0  0  0  0  0  0  0  0  0
  161.6660  213.2190  147.3230 C   0  0  1  0  0  3  0  0  0  0  0  0
  161.4430  207.4770  152.0820 C   0  0  0  0  0  3  0  0  0  0  0  0
  158.0040  212.3090  152.2150 C   0  0  0  0  0  2  0  0  0  0  0  0
  159.2490  211.9440  157.0720 Cl  0  0  0  0  0  0  0  0  0  0  0  0
  156.6080  211.5280  156.6620 C   0  0  0  0  0  2  0  0  0  0  0  0
  156.7330  211.1730  154.2670 N   0  0  0  0  0  2  0  0  0  0  0  0
  154.8990  210.3280  155.4510 O   0  0  0  0  0  0  0  0  0  0  0  0
  155.9910  210.9530  155.4470 C   0  0  0  0  0  0  0  0  0  0  0  0
  157.9820  211.7890  154.6620 C   0  0  2  0  0  3  0  0  0  0  0  0
  157.8000  212.2990  156.1020 C   0  0  2  0  0  3  0  0  0  0  0  0
  1 17  1  0  0  0  0
  1 14  1  0  0  0  0
  2  5  2  0  0  0  0
  3 29  1  0  0  0  0
  4 17  1  0  0  0  0
  5  7  1  0  0  0  0
  5 18  1  0  0  0  0
  6 11  1  0  0  0  0
  7 22  1  0  0  0  0
  8  6  2  0  0  0  0
  8 15  1  0  0  0  0
  9 16  1  0  0  0  0
 10  2  1  0  0  0  0
 11 12  1  0  0  0  0
 12  4  1  0  0  0  0
 13  9  1  0  0  0  0
 14  9  1  0  0  0  0
 15 10  1  0  0  0  0
 15 12  2  0  0  0  0
 17  3  1  0  0  0  0
 18  1  1  0  0  0  0
 18 14  1  0  0  0  0
 19 21  1  0  0  0  0
 20 10  1  0  0  0  0
 21 20  1  0  0  0  0
 21  8  1  0  0  0  0
 22 13  2  0  0  0  0
 23 17  1  0  0  0  0
 23  3  1  0  0  0  0
 26 29  1  0  0  0  0
 26 28  1  0  0  0  0
 28 27  2  0  0  0  0
 28 25  1  0  0  0  0
 29 30  1  0  0  0  0
 30 25  1  0  0  0  0
 30 24  1  0  0  0  0
M  END
>  <MODEL>
4

>  <REMARK>
 VINA RESULT:      -7.5      5.804      8.913
  Name = 
  1 active torsions:
  status: ('A' for Active; 'I' for Inactive)
    1  A    between atoms: C_4  and  C_25
                            x       y       z     vdW  Elec       q    Type
                         _______ _______ _______ _____ _____    ______ ____

>  <TORSDO>
F 1

$$$$
=
 OpenBabel11042420223D

 30 36  0  0  1  0  0  0  0  0999 V2000
  161.4920  207.9680  152.0010 C   0  0  1  0  0  3  0  0  0  0  0  0
  161.7060  206.5930  149.0630 N   0  0  0  0  0  0  0  0  0  0  0  0
  160.6060  207.2870  154.5130 C   0  0  1  0  0  3  0  0  0  0  0  0
  160.1610  205.8450  152.4730 N   0  0  0  0  0  2  0  0  0  0  0  0
  161.6000  207.8820  149.6700 C   0  0  0  0  0  0  0  0  0  0  0  0
  161.4130  202.5900  151.4980 N   0  0  0  0  0  0  0  0  0  0  0  0
  162.3260  208.8770  149.1300 C   0  0  0  0  0  2  0  0  0  0  0  0
  161.5190  203.3590  150.3080 C   0  0  0  0  0  0  0  0  0  0  0  0
  160.9040  210.5670  151.4420 C   0  0  2  0  0  3  0  0  0  0  0  0
  160.7850  205.4950  149.3490 C   0  0  2  0  0  3  0  0  0  0  0  0
  161.0490  203.4420  152.4100 C   0  0  0  0  0  2  0  0  0  0  0  0
  160.8980  204.7910  151.8380 C   0  0  0  0  0  0  0  0  0  0  0  0
  161.8320  211.0440  150.4160 C   0  0  0  0  0  3  0  0  0  0  0  0
  160.7430  209.2770  151.6510 C   0  0  1  0  0  3  0  0  0  0  0  0
  161.2180  204.7190  150.5490 C   0  0  0  0  0  0  0  0  0  0  0  0
  159.9780  211.5390  152.0750 C   0  0  0  0  0  1  0  0  0  0  0  0
  160.8230  207.0340  153.0150 C   0  0  1  0  0  0  0  0  0  0  0  0
  160.6840  207.9980  150.8470 C   0  0  2  0  0  3  0  0  0  0  0  0
  161.1990  201.5150  148.7010 C   0  0  0  0  0  1  0  0  0  0  0  0
  160.8760  204.2860  147.9580 S   0  0  0  0  0  0  0  0  0  0  0  0
  161.3430  202.9490  149.0710 C   0  0  1  0  0  3  0  0  0  0  0  0
  162.4370  210.3190  149.4650 C   0  0  0  0  0  3  0  0  0  0  0  0
  161.8580  206.5860  154.0380 C   0  0  0  0  0  2  0  0  0  0  0  0
  158.8570  210.3220  155.5640 Cl  0  0  0  0  0  0  0  0  0  0  0  0
  161.0450  210.0610  157.1310 C   0  0  0  0  0  2  0  0  0  0  0  0
  162.3360  208.6840  155.6080 N   0  0  0  0  0  2  0  0  0  0  0  0
  163.4510  209.9110  157.2610 O   0  0  0  0  0  0  0  0  0  0  0  0
  162.3750  209.5740  156.7030 C   0  0  0  0  0  0  0  0  0  0  0  0
  160.9660  208.6450  155.1450 C   0  0  2  0  0  3  0  0  0  0  0  0
  160.0930  209.2470  156.2590 C   0  0  2  0  0  3  0  0  0  0  0  0
  1 17  1  0  0  0  0
  2 10  1  0  0  0  0
  2  5  2  0  0  0  0
  3 29  1  0  0  0  0
  4 17  1  0  0  0  0
  5 18  1  0  0  0  0
  6 11  1  0  0  0  0
  7 22  1  0  0  0  0
  7  5  1  0  0  0  0
  8 15  1  0  0  0  0
  8  6  2  0  0  0  0
  9 14  1  0  0  0  0
  9 16  1  0  0  0  0
 10 15  1  0  0  0  0
 12 11  1  0  0  0  0
 12  4  1  0  0  0  0
 13  9  1  0  0  0  0
 14  1  1  0  0  0  0
 15 12  2  0  0  0  0
 17 23  1  0  0  0  0
 17  3  1  0  0  0  0
 18 14  1  0  0  0  0
 18  1  1  0  0  0  0
 19 21  1  0  0  0  0
 20 21  1  0  0  0  0
 20 10  1  0  0  0  0
 21  8  1  0  0  0  0
 22 13  2  0  0  0  0
 23  3  1  0  0  0  0
 24 30  1  0  0  0  0
 26 28  1  0  0  0  0
 28 25  1  0  0  0  0
 28 27  2  0  0  0  0
 29 26  1  0  0  0  0
 29 30  1  0  0  0  0
 30 25  1  0  0  0  0
M  END
>  <MODEL>
5

>  <REMARK>
 VINA RESULT:      -7.3      4.221      8.194
  Name = 
  1 active torsions:
  status: ('A' for Active; 'I' for Inactive)
    1  A    between atoms: C_4  and  C_25
                            x       y       z     vdW  Elec       q    Type
                         _______ _______ _______ _____ _____    ______ ____

>  <TORSDO>
F 1

$$$$
