=
 OpenBabel11042420083D

 30 34  0  0  1  0  0  0  0  0999 V2000
  160.5530  207.4890  149.9040 O   0  0  0  0  0  0  0  0  0  0  0  0
  162.2590  209.6100  148.5320 C   0  0  0  0  0  3  0  0  0  0  0  0
  161.3870  210.4300  152.1050 N   0  0  0  0  0  2  0  0  0  0  0  0
  162.3820  209.7900  156.3380 N   0  0  0  0  0  0  0  0  0  0  0  0
  161.6180  208.0300  150.2990 C   0  0  0  0  0  0  0  0  0  0  0  0
  162.0030  208.9250  155.4620 C   0  0  0  0  0  3  0  0  0  0  0  0
  161.2970  206.9310  153.3000 C   0  0  0  0  0  0  0  0  0  0  0  0
  161.7660  210.5250  150.7230 C   0  0  0  0  0  0  0  0  0  0  0  0
  162.0920  206.3300  152.1560 C   0  0  2  0  0  3  0  0  0  0  0  0
  161.0650  206.2460  154.2850 O   0  0  0  0  0  0  0  0  0  0  0  0
  161.9340  211.8040  150.1870 C   0  0  0  0  0  3  0  0  0  0  0  0
  161.9260  209.4000  149.8740 C   0  0  0  0  0  0  0  0  0  0  0  0
  162.5120  207.3300  151.1720 N   0  0  0  0  0  2  0  0  0  0  0  0
  160.1550  210.5480  154.6020 C   0  0  2  0  0  3  0  0  0  0  0  0
  162.2810  211.9590  148.8450 C   0  0  0  0  0  3  0  0  0  0  0  0
  160.4740  211.2570  155.9270 C   0  0  0  0  0  2  0  0  0  0  0  0
  158.8210  210.1410  154.6200 O   0  0  0  0  0  1  0  0  0  0  0  0
  162.4390  210.8680  148.0520 N   0  0  0  0  0  0  0  0  0  0  0  0
  161.8450  209.3790  153.0090 C   0  0  1  0  0  3  0  0  0  0  0  0
  159.5750  208.5430  152.5380 F   0  0  0  0  0  0  0  0  0  0  0  0
  161.9650  211.1750  156.2590 C   0  0  0  0  0  2  0  0  0  0  0  0
  161.0880  209.3420  154.3410 C   0  0  1  0  0  0  0  0  0  0  0  0
  160.7530  208.3360  153.2400 C   0  0  1  0  0  0  0  0  0  0  0  0
  161.4660  205.1180  151.5150 C   0  0  0  0  0  0  0  0  0  0  0  0
  160.9380  204.4790  149.1660 C   0  0  0  0  0  3  0  0  0  0  0  0
  161.0680  203.1530  149.1710 C   0  0  0  0  0  3  0  0  0  0  0  0
  160.5170  205.2670  150.3610 C   0  0  0  0  0  2  0  0  0  0  0  0
  161.6760  203.9350  152.0960 C   0  0  0  0  0  3  0  0  0  0  0  0
  160.9130  202.2890  150.3560 C   0  0  0  0  0  3  0  0  0  0  0  0
  161.1760  202.6290  151.6230 C   0  0  0  0  0  3  0  0  0  0  0  0
  1  5  2  0  0  0  0
  2 12  1  0  0  0  0
  5 13  1  0  0  0  0
  6  4  2  0  0  0  0
  7 10  2  0  0  0  0
  8  3  1  0  0  0  0
  9 24  1  6  0  0  0
  9  7  1  0  0  0  0
 11  8  1  0  0  0  0
 12  5  1  0  0  0  0
 12  8  2  0  0  0  0
 13  9  1  0  0  0  0
 14 17  1  1  0  0  0
 14 16  1  0  0  0  0
 15 11  2  0  0  0  0
 16 21  1  0  0  0  0
 18  2  2  0  0  0  0
 18 15  1  0  0  0  0
 19  3  1  6  0  0  0
 19 23  1  0  0  0  0
 19 22  1  0  0  0  0
 21  4  1  0  0  0  0
 22 14  1  0  0  0  0
 22  6  1  1  0  0  0
 23 20  1  6  0  0  0
 23  7  1  0  0  0  0
 23 22  1  0  0  0  0
 24 28  2  0  0  0  0
 25 26  2  0  0  0  0
 25 27  1  0  0  0  0
 26 29  1  0  0  0  0
 27 24  1  0  0  0  0
 29 30  2  0  0  0  0
 30 28  1  0  0  0  0
M  END
>  <MODEL>
1

>  <REMARK>
 VINA RESULT:      -7.5      0.000      0.000
  Name = 
  1 active torsions:
  status: ('A' for Active; 'I' for Inactive)
    1  A    between atoms: C_1  and  C_14
                            x       y       z     vdW  Elec       q    Type
                         _______ _______ _______ _____ _____    ______ ____

>  <TORSDO>
F 1

$$$$
=
 OpenBabel11042420083D

 30 34  0  0  1  0  0  0  0  0999 V2000
  159.0490  212.1370  142.2220 O   0  0  0  0  0  0  0  0  0  0  0  0
  160.3280  213.5340  144.6100 C   0  0  0  0  0  3  0  0  0  0  0  0
  162.6870  212.9810  141.7240 N   0  0  0  0  0  2  0  0  0  0  0  0
  164.0830  214.4530  137.8250 N   0  0  0  0  0  0  0  0  0  0  0  0
  159.7290  213.1960  142.2530 C   0  0  0  0  0  0  0  0  0  0  0  0
  162.9060  214.0480  138.1570 C   0  0  0  0  0  3  0  0  0  0  0  0
  160.1300  213.2670  139.0670 C   0  0  0  0  0  0  0  0  0  0  0  0
  162.1410  213.2070  143.0330 C   0  0  0  0  0  0  0  0  0  0  0  0
  159.0820  213.9800  139.9010 C   0  0  2  0  0  3  0  0  0  0  0  0
  159.9720  213.1880  137.8580 O   0  0  0  0  0  0  0  0  0  0  0  0
  163.0330  213.2270  144.1090 C   0  0  0  0  0  3  0  0  0  0  0  0
  160.7540  213.3580  143.2900 C   0  0  0  0  0  0  0  0  0  0  0  0
  159.5230  214.2230  141.2770 N   0  0  0  0  0  2  0  0  0  0  0  0
  163.9210  212.0100  139.4220 C   0  0  2  0  0  3  0  0  0  0  0  0
  162.5580  213.4210  145.4050 C   0  0  0  0  0  3  0  0  0  0  0  0
  165.1650  212.4130  138.6160 C   0  0  0  0  0  2  0  0  0  0  0  0
  163.5470  210.7170  139.0540 O   0  0  0  0  0  1  0  0  0  0  0  0
  161.2270  213.5730  145.6280 N   0  0  0  0  0  0  0  0  0  0  0  0
  162.1780  213.6050  140.5060 C   0  0  1  0  0  3  0  0  0  0  0  0
  161.1810  211.3640  140.2570 F   0  0  0  0  0  0  0  0  0  0  0  0
  165.2700  213.9320  138.4730 C   0  0  0  0  0  2  0  0  0  0  0  0
  162.7450  212.9940  139.2200 C   0  0  1  0  0  0  0  0  0  0  0  0
  161.3400  212.6200  139.6910 C   0  0  1  0  0  0  0  0  0  0  0  0
  157.7020  213.3790  139.8370 C   0  0  0  0  0  0  0  0  0  0  0  0
  155.4270  214.3070  139.4280 C   0  0  0  0  0  3  0  0  0  0  0  0
  154.7890  213.3040  138.8260 C   0  0  0  0  0  3  0  0  0  0  0  0
  156.5230  214.1050  140.4190 C   0  0  0  0  0  2  0  0  0  0  0  0
  157.5930  212.1320  139.3740 C   0  0  0  0  0  3  0  0  0  0  0  0
  155.1250  211.8760  138.9700 C   0  0  0  0  0  3  0  0  0  0  0  0
  156.3400  211.3690  139.2080 C   0  0  0  0  0  3  0  0  0  0  0  0
  1  5  2  0  0  0  0
  2 18  1  0  0  0  0
  3  8  1  0  0  0  0
  4  6  2  0  0  0  0
  4 21  1  0  0  0  0
  5 12  1  0  0  0  0
  7 23  1  0  0  0  0
  7  9  1  0  0  0  0
  8 12  1  0  0  0  0
  8 11  2  0  0  0  0
  9 24  1  1  0  0  0
  9 13  1  0  0  0  0
 10  7  2  0  0  0  0
 11 15  1  0  0  0  0
 12  2  2  0  0  0  0
 13  5  1  0  0  0  0
 14 17  1  6  0  0  0
 15 18  2  0  0  0  0
 16 14  1  0  0  0  0
 19  3  1  1  0  0  0
 21 16  1  0  0  0  0
 22  6  1  6  0  0  0
 22 14  1  0  0  0  0
 22 23  1  0  0  0  0
 22 19  1  0  0  0  0
 23 20  1  1  0  0  0
 23 19  1  0  0  0  0
 24 27  1  0  0  0  0
 25 27  1  0  0  0  0
 26 29  1  0  0  0  0
 26 25  2  0  0  0  0
 28 24  2  0  0  0  0
 29 30  2  0  0  0  0
 30 28  1  0  0  0  0
M  END
>  <MODEL>
2

>  <REMARK>
 VINA RESULT:      -5.9      9.730     13.836
  Name = 
  1 active torsions:
  status: ('A' for Active; 'I' for Inactive)
    1  A    between atoms: C_1  and  C_14
                            x       y       z     vdW  Elec       q    Type
                         _______ _______ _______ _____ _____    ______ ____

>  <TORSDO>
F 1

$$$$
=
 OpenBabel11042420083D

 30 34  0  0  1  0  0  0  0  0999 V2000
  160.2640  205.6990  151.5260 O   0  0  0  0  0  0  0  0  0  0  0  0
  161.0560  202.7710  151.8250 C   0  0  0  0  0  3  0  0  0  0  0  0
  160.8900  203.9490  148.2500 N   0  0  0  0  0  2  0  0  0  0  0  0
  162.9820  206.0500  145.0050 N   0  0  0  0  0  0  0  0  0  0  0  0
  161.2370  205.0830  151.0190 C   0  0  0  0  0  0  0  0  0  0  0  0
  162.6170  206.5060  146.1540 C   0  0  0  0  0  3  0  0  0  0  0  0
  161.9010  207.4390  148.9400 C   0  0  0  0  0  0  0  0  0  0  0  0
  160.8980  203.1350  149.4330 C   0  0  0  0  0  0  0  0  0  0  0  0
  162.5190  207.1820  150.3010 C   0  0  2  0  0  3  0  0  0  0  0  0
  162.0750  208.5240  148.4050 O   0  0  0  0  0  0  0  0  0  0  0  0
  160.6330  201.7720  149.2790 C   0  0  0  0  0  3  0  0  0  0  0  0
  161.1090  203.6490  150.7380 C   0  0  0  0  0  0  0  0  0  0  0  0
  162.4500  205.7730  150.6970 N   0  0  0  0  0  2  0  0  0  0  0  0
  160.2950  205.3510  145.9160 C   0  0  2  0  0  3  0  0  0  0  0  0
  160.6060  200.9350  150.3950 C   0  0  0  0  0  3  0  0  0  0  0  0
  160.7450  205.2450  144.4520 C   0  0  0  0  0  2  0  0  0  0  0  0
  159.1340  206.1240  145.9740 O   0  0  0  0  0  1  0  0  0  0  0  0
  160.8200  201.4470  151.6350 N   0  0  0  0  0  0  0  0  0  0  0  0
  161.7810  205.0850  148.0330 C   0  0  1  0  0  3  0  0  0  0  0  0
  159.7230  206.2980  148.6360 F   0  0  0  0  0  0  0  0  0  0  0  0
  162.2500  204.9870  144.3480 C   0  0  0  0  0  2  0  0  0  0  0  0
  161.3920  205.9490  146.8280 C   0  0  1  0  0  0  0  0  0  0  0  0
  161.0480  206.4090  148.2450 C   0  0  1  0  0  0  0  0  0  0  0  0
  162.0570  208.1110  151.3940 C   0  0  0  0  0  0  0  0  0  0  0  0
  161.0600  210.3930  151.4200 C   0  0  0  0  0  3  0  0  0  0  0  0
  160.2760  210.3740  152.4980 C   0  0  0  0  0  3  0  0  0  0  0  0
  162.3100  209.5880  151.3000 C   0  0  0  0  0  2  0  0  0  0  0  0
  161.5470  207.5590  152.4980 C   0  0  0  0  0  3  0  0  0  0  0  0
  160.4670  209.5030  153.6720 C   0  0  0  0  0  3  0  0  0  0  0  0
  161.0190  208.2840  153.6710 C   0  0  0  0  0  3  0  0  0  0  0  0
  3  8  1  0  0  0  0
  4  6  2  0  0  0  0
  5  1  2  0  0  0  0
  7  9  1  0  0  0  0
  8 12  1  0  0  0  0
  9 13  1  0  0  0  0
  9 24  1  1  0  0  0
 10  7  2  0  0  0  0
 11  8  2  0  0  0  0
 11 15  1  0  0  0  0
 12  5  1  0  0  0  0
 12  2  2  0  0  0  0
 13  5  1  0  0  0  0
 14 17  1  6  0  0  0
 14 22  1  0  0  0  0
 15 18  2  0  0  0  0
 16 14  1  0  0  0  0
 18  2  1  0  0  0  0
 19 23  1  0  0  0  0
 19  3  1  6  0  0  0
 21 16  1  0  0  0  0
 21  4  1  0  0  0  0
 22  6  1  6  0  0  0
 22 19  1  0  0  0  0
 22 23  1  0  0  0  0
 23 20  1  1  0  0  0
 23  7  1  0  0  0  0
 24 28  2  0  0  0  0
 25 26  2  0  0  0  0
 26 29  1  0  0  0  0
 27 24  1  0  0  0  0
 27 25  1  0  0  0  0
 28 30  1  0  0  0  0
 30 29  2  0  0  0  0
M  END
>  <MODEL>
3

>  <REMARK>
 VINA RESULT:      -5.8      2.923      7.769
  Name = 
  1 active torsions:
  status: ('A' for Active; 'I' for Inactive)
    1  A    between atoms: C_1  and  C_14
                            x       y       z     vdW  Elec       q    Type
                         _______ _______ _______ _____ _____    ______ ____

>  <TORSDO>
F 1

$$$$
=
 OpenBabel11042420083D

 30 34  0  0  1  0  0  0  0  0999 V2000
  160.8140  209.0480  149.9640 O   0  0  0  0  0  0  0  0  0  0  0  0
  162.1380  211.4710  148.6730 C   0  0  0  0  0  3  0  0  0  0  0  0
  160.3390  212.2510  151.8900 N   0  0  0  0  0  2  0  0  0  0  0  0
  160.5450  212.2210  156.2800 N   0  0  0  0  0  0  0  0  0  0  0  0
  161.5860  209.9000  150.4770 C   0  0  0  0  0  0  0  0  0  0  0  0
  160.6080  211.2240  155.4660 C   0  0  0  0  0  3  0  0  0  0  0  0
  160.9410  208.9660  153.4820 C   0  0  0  0  0  0  0  0  0  0  0  0
  160.9630  212.3540  150.6010 C   0  0  0  0  0  0  0  0  0  0  0  0
  162.0930  208.5430  152.5900 C   0  0  2  0  0  3  0  0  0  0  0  0
  160.6980  208.3140  154.4860 O   0  0  0  0  0  0  0  0  0  0  0  0
  160.8910  213.5870  149.9480 C   0  0  0  0  0  3  0  0  0  0  0  0
  161.5970  211.2670  149.9450 C   0  0  0  0  0  0  0  0  0  0  0  0
  162.4280  209.5500  151.5810 N   0  0  0  0  0  2  0  0  0  0  0  0
  158.6190  212.1810  154.0820 C   0  0  2  0  0  3  0  0  0  0  0  0
  161.4610  213.7420  148.6840 C   0  0  0  0  0  3  0  0  0  0  0  0
  158.4460  213.0410  155.3420 C   0  0  0  0  0  2  0  0  0  0  0  0
  157.4710  211.4080  153.9050 O   0  0  0  0  0  1  0  0  0  0  0  0
  162.0720  212.6900  148.0790 N   0  0  0  0  0  0  0  0  0  0  0  0
  160.8600  211.4420  152.9890 C   0  0  1  0  0  3  0  0  0  0  0  0
  159.0530  209.9550  152.2170 F   0  0  0  0  0  0  0  0  0  0  0  0
  159.7980  213.4180  155.9510 C   0  0  0  0  0  2  0  0  0  0  0  0
  159.8750  211.2810  154.1520 C   0  0  1  0  0  0  0  0  0  0  0  0
  160.0650  210.1460  153.1440 C   0  0  1  0  0  0  0  0  0  0  0  0
  161.9660  207.1610  152.0030 C   0  0  0  0  0  0  0  0  0  0  0  0
  161.2650  204.9500  152.9140 C   0  0  0  0  0  3  0  0  0  0  0  0
  160.7130  204.3460  151.8620 C   0  0  0  0  0  3  0  0  0  0  0  0
  162.3650  205.9520  152.8000 C   0  0  0  0  0  2  0  0  0  0  0  0
  161.6230  207.0650  150.7170 C   0  0  0  0  0  3  0  0  0  0  0  0
  161.0290  204.6360  150.4520 C   0  0  0  0  0  3  0  0  0  0  0  0
  161.4250  205.8150  149.9570 C   0  0  0  0  0  3  0  0  0  0  0  0
  1  5  2  0  0  0  0
  2 12  1  0  0  0  0
  5 13  1  0  0  0  0
  6  4  2  0  0  0  0
  7 10  2  0  0  0  0
  8  3  1  0  0  0  0
  9 24  1  6  0  0  0
  9  7  1  0  0  0  0
 11  8  1  0  0  0  0
 12  5  1  0  0  0  0
 12  8  2  0  0  0  0
 13  9  1  0  0  0  0
 14 17  1  1  0  0  0
 14 22  1  0  0  0  0
 14 16  1  0  0  0  0
 15 11  2  0  0  0  0
 16 21  1  0  0  0  0
 18  2  2  0  0  0  0
 18 15  1  0  0  0  0
 19  3  1  6  0  0  0
 19 23  1  0  0  0  0
 19 22  1  0  0  0  0
 21  4  1  0  0  0  0
 22  6  1  1  0  0  0
 23 20  1  6  0  0  0
 23  7  1  0  0  0  0
 23 22  1  0  0  0  0
 24 27  1  0  0  0  0
 26 25  2  0  0  0  0
 27 25  1  0  0  0  0
 28 24  2  0  0  0  0
 29 26  1  0  0  0  0
 30 29  2  0  0  0  0
 30 28  1  0  0  0  0
M  END
>  <MODEL>
4

>  <REMARK>
 VINA RESULT:      -5.4      1.609      2.449
  Name = 
  1 active torsions:
  status: ('A' for Active; 'I' for Inactive)
    1  A    between atoms: C_1  and  C_14
                            x       y       z     vdW  Elec       q    Type
                         _______ _______ _______ _____ _____    ______ ____

>  <TORSDO>
F 1

$$$$
