=
 OpenBabel11052410083D

 54 62  0  0  1  0  0  0  0  0999 V2000
  161.1630  211.7090  148.3520 C   0  0  2  0  0  3  0  0  0  0  0  0
  163.0610  213.8150  145.8240 C   0  0  0  0  0  3  0  0  0  0  0  0
  158.9590  212.9180  141.3920 C   0  0  0  0  0  3  0  0  0  0  0  0
  161.6830  213.5290  141.6860 N   0  0  0  0  0  0  0  0  0  0  0  0
  161.2010  213.0850  140.5550 C   0  0  0  0  0  3  0  0  0  0  0  0
  159.5100  213.2420  142.7030 C   0  0  2  0  0  3  0  0  0  0  0  0
  160.8030  213.9710  142.7740 C   0  0  1  0  0  3  0  0  0  0  0  0
  162.5210  214.0140  144.6620 N   0  0  0  0  0  0  0  0  0  0  0  0
  161.2820  213.5590  144.1220 C   0  0  1  0  0  3  0  0  0  0  0  0
  161.3970  212.4030  147.0490 C   0  0  0  0  0  0  0  0  0  0  0  0
  159.7810  212.8780  140.3820 N   0  0  0  0  0  0  0  0  0  0  0  0
  160.3480  212.8380  144.7240 C   0  0  0  0  0  0  0  0  0  0  0  0
  159.2370  212.5810  143.8150 C   0  0  0  0  0  3  0  0  0  0  0  0
  162.5090  213.0550  146.9070 N   0  0  0  0  0  0  0  0  0  0  0  0
  160.3930  212.2920  146.0370 N   0  0  0  0  0  2  0  0  0  0  0  0
  160.6350  212.1810  150.7170 O   0  0  0  0  0  0  0  0  0  0  0  0
  160.1490  213.9430  149.2200 C   0  0  2  0  0  3  0  0  0  0  0  0
  161.0580  212.7400  149.4870 C   0  0  2  0  0  3  0  0  0  0  0  0
  160.1170  214.4530  150.6170 C   0  0  0  0  0  2  0  0  0  0  0  0
  158.3770  212.8920  150.4590 C   0  0  0  0  0  2  0  0  0  0  0  0
  158.7050  213.4460  149.0730 C   0  0  0  0  0  2  0  0  0  0  0  0
  159.6920  213.1260  151.1830 C   0  0  1  0  0  0  0  0  0  0  0  0
  159.5380  213.1030  152.6980 C   0  0  0  0  0  2  0  0  0  0  0  0
  158.5240  212.0540  153.1390 C   0  0  0  0  0  2  0  0  0  0  0  0
  159.7940  209.4470  155.8550 C   0  0  1  0  0  0  0  0  0  0  0  0
  159.3680  210.6320  155.0820 N   0  0  0  0  0  0  0  0  0  0  0  0
  161.7540  211.0040  155.7600 C   0  0  0  0  0  1  0  0  0  0  0  0
  160.3300  210.7060  156.2300 C   0  0  2  0  0  0  0  0  0  0  0  0
  160.6590  208.8390  153.5560 C   0  0  0  0  0  0  0  0  0  0  0  0
  159.2090  210.8580  153.7030 C   0  0  0  0  0  0  0  0  0  0  0  0
  160.3190  209.6440  157.1220 O   0  0  0  0  0  0  0  0  0  0  0  0
  160.6410  208.6120  154.9080 C   0  0  0  0  0  3  0  0  0  0  0  0
  159.8630  209.9760  152.9360 C   0  0  0  0  0  3  0  0  0  0  0  0
  162.1430  206.7960  153.4710 C   0  0  0  0  0  2  0  0  0  0  0  0
  161.4510  207.9070  152.6530 C   0  0  0  0  0  0  0  0  0  0  0  0
  161.2330  205.5830  153.6610 C   0  0  0  0  0  2  0  0  0  0  0  0
  160.8790  204.9330  152.3170 C   0  0  0  0  0  2  0  0  0  0  0  0
  160.5400  207.3120  151.5490 C   0  0  0  0  0  2  0  0  0  0  0  0
  162.5430  208.7160  151.9770 C   0  0  0  0  0  1  0  0  0  0  0  0
  160.9570  205.9030  151.1310 C   0  0  0  0  0  2  0  0  0  0  0  0
  162.2400  210.6570  148.5860 C   0  0  0  0  0  2  0  0  0  0  0  0
  161.6000  209.3250  148.9160 C   0  0  0  0  0  2  0  0  0  0  0  0
  162.2860  208.2340  148.1190 C   0  0  0  0  0  2  0  0  0  0  0  0
  161.2720  207.2060  147.6440 C   0  0  0  0  0  2  0  0  0  0  0  0
  161.9050  205.8230  147.4810 C   0  0  1  0  0  3  0  0  0  0  0  0
  161.4560  204.8970  148.6040 C   0  0  0  0  0  1  0  0  0  0  0  0
  161.6700  205.2000  146.0890 C   0  0  1  0  0  0  0  0  0  0  0  0
  160.4540  205.8280  145.4290 C   0  0  0  0  0  1  0  0  0  0  0  0
  162.7770  205.4810  145.2880 O   0  0  0  0  0  1  0  0  0  0  0  0
  161.5030  203.6770  146.1420 C   0  0  0  0  0  2  0  0  0  0  0  0
  160.8400  203.1870  145.0130 O   0  0  0  0  0  0  0  0  0  0  0  0
  159.3860  201.4500  144.7740 O   0  0  0  0  0  1  0  0  0  0  0  0
  160.6240  201.8360  145.2850 C   0  0  0  0  0  3  0  0  0  0  0  0
  160.6480  201.6240  146.6640 O   0  0  0  0  0  1  0  0  0  0  0  0
  1 41  1  1  0  0  0
  2 14  1  0  0  0  0
  5  4  2  0  0  0  0
  6  3  1  6  0  0  0
  6  7  1  0  0  0  0
  6 13  1  0  0  0  0
  7  4  1  6  0  0  0
  7  9  1  0  0  0  0
  8  2  2  0  0  0  0
  9  8  1  1  0  0  0
  9 12  1  0  0  0  0
 10  1  1  0  0  0  0
 11  5  1  0  0  0  0
 11  3  2  0  0  0  0
 12 15  1  0  0  0  0
 13 12  2  0  0  0  0
 14 10  2  0  0  0  0
 15 10  1  0  0  0  0
 16 22  1  0  0  0  0
 17 21  1  1  0  0  0
 17 18  1  0  0  0  0
 17 19  1  0  0  0  0
 18  1  1  6  0  0  0
 18 16  1  0  0  0  0
 19 22  1  0  0  0  0
 20 22  1  0  0  0  0
 21 20  1  0  0  0  0
 22 23  1  1  0  0  0
 23 24  1  0  0  0  0
 24 30  1  0  0  0  0
 25 32  1  6  0  0  0
 25 28  1  0  0  0  0
 25 31  1  0  0  0  0
 26 25  1  0  0  0  0
 26 28  1  0  0  0  0
 28 27  1  6  0  0  0
 28 31  1  0  0  0  0
 29 32  2  0  0  0  0
 30 26  1  0  0  0  0
 33 29  1  0  0  0  0
 33 30  2  0  0  0  0
 34 36  1  0  0  0  0
 35 34  1  0  0  0  0
 35 29  1  0  0  0  0
 37 36  1  0  0  0  0
 38 35  1  0  0  0  0
 39 35  1  0  0  0  0
 40 38  1  0  0  0  0
 40 37  1  0  0  0  0
 41 42  1  0  0  0  0
 43 42  1  0  0  0  0
 44 43  1  0  0  0  0
 45 44  1  0  0  0  0
 45 46  1  1  0  0  0
 47 48  1  6  0  0  0
 47 50  1  0  0  0  0
 47 45  1  0  0  0  0
 49 47  1  0  0  0  0
 51 53  1  0  0  0  0
 51 50  1  0  0  0  0
 52 53  1  0  0  0  0
 53 54  1  0  0  0  0
M  END
>  <MODEL>
1

>  <REMARK>
 VINA RESULT:      -7.3      0.000      0.000
  Name = 
  15 active torsions:
  status: ('A' for Active; 'I' for Inactive)
    1  A    between atoms: C_7  and  C_20
    2  A    between atoms: C_7  and  O_46
    3  A    between atoms: C_15  and  C_17
    4  A    between atoms: C_15  and  C_28
    5  A    between atoms: C_15  and  C_37
    6  A    between atoms: C_18  and  C_36
    7  A    between atoms: C_18  and  C_41
    8  A    between atoms: C_19  and  C_26
    9  A    between atoms: C_20  and  C_24
   10  A    between atoms: C_21  and  O_46
   11  A    between atoms: C_24  and  C_36
   12  A    between atoms: C_28  and  C_41
   13  A    between atoms: C_31  and  C_50
   14  A    between atoms: C_35  and  C_48
   15  A    between atoms: C_48  and  C_50
                            x       y       z     vdW  Elec       q    Type
                         _______ _______ _______ _____ _____    ______ ____

>  <TORSDO>
F 15

$$$$
=
 OpenBabel11052410083D

 54 62  0  0  1  0  0  0  0  0999 V2000
  160.0450  213.4380  146.6400 C   0  0  2  0  0  3  0  0  0  0  0  0
  157.8690  214.4530  143.6950 C   0  0  0  0  0  3  0  0  0  0  0  0
  161.2940  211.4660  139.6170 C   0  0  0  0  0  3  0  0  0  0  0  0
  159.5270  213.6450  139.7320 N   0  0  0  0  0  0  0  0  0  0  0  0
  160.3470  213.4830  138.7280 C   0  0  0  0  0  3  0  0  0  0  0  0
  160.5140  211.7270  140.8220 C   0  0  2  0  0  3  0  0  0  0  0  0
  159.3010  212.5800  140.7170 C   0  0  1  0  0  3  0  0  0  0  0  0
  158.1550  213.9690  142.5260 N   0  0  0  0  0  0  0  0  0  0  0  0
  159.1950  213.0850  142.1140 C   0  0  1  0  0  3  0  0  0  0  0  0
  159.5880  213.4550  145.2160 C   0  0  0  0  0  0  0  0  0  0  0  0
  161.1730  212.3020  138.6250 N   0  0  0  0  0  0  0  0  0  0  0  0
  160.1130  212.5000  142.8690 C   0  0  0  0  0  0  0  0  0  0  0  0
  160.9950  211.6750  142.0520 C   0  0  0  0  0  3  0  0  0  0  0  0
  158.5640  214.1940  144.9220 N   0  0  0  0  0  0  0  0  0  0  0  0
  160.3170  212.6730  144.2660 N   0  0  0  0  0  2  0  0  0  0  0  0
  161.0380  211.3320  147.4580 O   0  0  0  0  0  0  0  0  0  0  0  0
  162.4970  213.1900  147.4750 C   0  0  2  0  0  3  0  0  0  0  0  0
  161.2910  212.5500  146.7820 C   0  0  2  0  0  3  0  0  0  0  0  0
  163.2810  211.9380  147.6550 C   0  0  0  0  0  2  0  0  0  0  0  0
  161.8970  212.1090  149.5380 C   0  0  0  0  0  2  0  0  0  0  0  0
  162.1230  213.4940  148.9320 C   0  0  0  0  0  2  0  0  0  0  0  0
  162.1450  211.2210  148.3300 C   0  0  1  0  0  0  0  0  0  0  0  0
  162.4450  209.7790  148.7170 C   0  0  0  0  0  2  0  0  0  0  0  0
  161.8220  209.4200  150.0600 C   0  0  0  0  0  2  0  0  0  0  0  0
  160.6150  205.9540  151.5810 C   0  0  1  0  0  0  0  0  0  0  0  0
  161.1890  207.2890  151.3110 N   0  0  0  0  0  0  0  0  0  0  0  0
  163.0890  205.7720  151.9280 C   0  0  0  0  0  1  0  0  0  0  0  0
  161.7390  206.3540  152.3470 C   0  0  2  0  0  0  0  0  0  0  0  0
  161.3250  205.6750  149.1680 C   0  0  0  0  0  0  0  0  0  0  0  0
  161.4760  207.9730  150.1150 C   0  0  0  0  0  0  0  0  0  0  0  0
  160.8910  205.3550  152.8000 O   0  0  0  0  0  0  0  0  0  0  0  0
  160.9080  205.1150  150.3480 C   0  0  0  0  0  3  0  0  0  0  0  0
  161.5600  207.1720  149.0450 C   0  0  0  0  0  3  0  0  0  0  0  0
  160.4230  205.0830  146.8830 C   0  0  0  0  0  2  0  0  0  0  0  0
  161.5060  204.7920  147.9440 C   0  0  0  0  0  0  0  0  0  0  0  0
  160.8460  206.2070  145.9370 C   0  0  0  0  0  2  0  0  0  0  0  0
  162.1000  205.8260  145.1400 C   0  0  0  0  0  2  0  0  0  0  0  0
  162.9310  204.9550  147.3580 C   0  0  0  0  0  2  0  0  0  0  0  0
  161.3370  203.3460  148.3750 C   0  0  0  0  0  1  0  0  0  0  0  0
  162.9730  204.7770  145.8410 C   0  0  0  0  0  2  0  0  0  0  0  0
  158.8970  213.0250  147.5520 C   0  0  0  0  0  2  0  0  0  0  0  0
  158.9030  213.8740  148.8070 C   0  0  0  0  0  2  0  0  0  0  0  0
  157.4750  214.2240  149.1760 C   0  0  0  0  0  2  0  0  0  0  0  0
  156.9930  213.3500  150.3230 C   0  0  0  0  0  2  0  0  0  0  0  0
  156.9150  214.1340  151.6340 C   0  0  1  0  0  3  0  0  0  0  0  0
  155.4650  214.4530  151.9760 C   0  0  0  0  0  1  0  0  0  0  0  0
  157.6480  213.4480  152.8050 C   0  0  1  0  0  0  0  0  0  0  0  0
  158.6160  212.4000  152.2800 C   0  0  0  0  0  1  0  0  0  0  0  0
  158.3970  214.4110  153.4810 O   0  0  0  0  0  1  0  0  0  0  0  0
  156.6870  212.8060  153.8130 C   0  0  0  0  0  2  0  0  0  0  0  0
  156.4440  213.6430  154.9050 O   0  0  0  0  0  0  0  0  0  0  0  0
  157.5170  213.2780  156.8810 O   0  0  0  0  0  1  0  0  0  0  0  0
  156.5280  212.8070  156.0190 C   0  0  0  0  0  3  0  0  0  0  0  0
  156.8410  211.5100  155.6110 O   0  0  0  0  0  1  0  0  0  0  0  0
  1 41  1  1  0  0  0
  2 14  1  0  0  0  0
  5  4  2  0  0  0  0
  6  3  1  6  0  0  0
  6 13  1  0  0  0  0
  7  4  1  6  0  0  0
  7  6  1  0  0  0  0
  7  9  1  0  0  0  0
  8  2  2  0  0  0  0
  9  8  1  1  0  0  0
  9 12  1  0  0  0  0
 10  1  1  0  0  0  0
 11  5  1  0  0  0  0
 11  3  2  0  0  0  0
 12 15  1  0  0  0  0
 13 12  2  0  0  0  0
 14 10  2  0  0  0  0
 15 10  1  0  0  0  0
 16 22  1  0  0  0  0
 17 19  1  1  0  0  0
 17 21  1  0  0  0  0
 18  1  1  1  0  0  0
 18 16  1  0  0  0  0
 18 17  1  0  0  0  0
 19 22  1  0  0  0  0
 21 20  1  0  0  0  0
 22 23  1  1  0  0  0
 22 20  1  0  0  0  0
 23 24  1  0  0  0  0
 24 30  1  0  0  0  0
 25 32  1  6  0  0  0
 25 28  1  0  0  0  0
 25 31  1  0  0  0  0
 26 25  1  0  0  0  0
 26 28  1  0  0  0  0
 28 27  1  6  0  0  0
 28 31  1  0  0  0  0
 29 32  2  0  0  0  0
 30 26  1  0  0  0  0
 33 29  1  0  0  0  0
 33 30  2  0  0  0  0
 34 35  1  0  0  0  0
 35 39  1  0  0  0  0
 35 29  1  0  0  0  0
 36 34  1  0  0  0  0
 37 40  1  0  0  0  0
 37 36  1  0  0  0  0
 38 35  1  0  0  0  0
 40 38  1  0  0  0  0
 41 42  1  0  0  0  0
 42 43  1  0  0  0  0
 43 44  1  0  0  0  0
 44 45  1  0  0  0  0
 45 46  1  1  0  0  0
 45 47  1  0  0  0  0
 47 48  1  6  0  0  0
 47 49  1  0  0  0  0
 47 50  1  0  0  0  0
 50 51  1  0  0  0  0
 51 53  1  0  0  0  0
 53 52  1  0  0  0  0
 54 53  1  0  0  0  0
M  END
>  <MODEL>
2

>  <REMARK>
 VINA RESULT:      -6.5      3.055      7.257
  Name = 
  15 active torsions:
  status: ('A' for Active; 'I' for Inactive)
    1  A    between atoms: C_7  and  C_20
    2  A    between atoms: C_7  and  O_46
    3  A    between atoms: C_15  and  C_17
    4  A    between atoms: C_15  and  C_28
    5  A    between atoms: C_15  and  C_37
    6  A    between atoms: C_18  and  C_36
    7  A    between atoms: C_18  and  C_41
    8  A    between atoms: C_19  and  C_26
    9  A    between atoms: C_20  and  C_24
   10  A    between atoms: C_21  and  O_46
   11  A    between atoms: C_24  and  C_36
   12  A    between atoms: C_28  and  C_41
   13  A    between atoms: C_31  and  C_50
   14  A    between atoms: C_35  and  C_48
   15  A    between atoms: C_48  and  C_50
                            x       y       z     vdW  Elec       q    Type
                         _______ _______ _______ _____ _____    ______ ____

>  <TORSDO>
F 15

$$$$
=
 OpenBabel11052410083D

 54 62  0  0  1  0  0  0  0  0999 V2000
  161.6270  209.7580  149.7790 C   0  0  2  0  0  3  0  0  0  0  0  0
  162.7440  210.0600  153.3980 C   0  0  0  0  0  3  0  0  0  0  0  0
  157.5560  212.7310  155.1980 C   0  0  0  0  0  3  0  0  0  0  0  0
  160.2550  212.5830  155.9570 N   0  0  0  0  0  0  0  0  0  0  0  0
  159.4720  213.5320  156.3970 C   0  0  0  0  0  3  0  0  0  0  0  0
  158.4560  211.7740  154.5610 C   0  0  2  0  0  3  0  0  0  0  0  0
  159.7190  211.4110  155.2560 C   0  0  1  0  0  3  0  0  0  0  0  0
  161.8980  210.5270  154.2640 N   0  0  0  0  0  0  0  0  0  0  0  0
  160.5560  210.9810  154.1020 C   0  0  1  0  0  3  0  0  0  0  0  0
  161.4870  210.0760  151.2340 C   0  0  0  0  0  0  0  0  0  0  0  0
  158.0610  213.5360  156.0880 N   0  0  0  0  0  0  0  0  0  0  0  0
  159.8270  210.9880  152.9960 C   0  0  0  0  0  0  0  0  0  0  0  0
  158.5040  211.5410  153.2610 C   0  0  0  0  0  3  0  0  0  0  0  0
  162.5170  209.8700  151.9960 N   0  0  0  0  0  0  0  0  0  0  0  0
  160.2390  210.6020  151.6900 N   0  0  0  0  0  2  0  0  0  0  0  0
  162.5380  208.0500  148.2470 O   0  0  0  0  0  0  0  0  0  0  0  0
  161.5980  207.1980  150.2410 C   0  0  2  0  0  3  0  0  0  0  0  0
  162.3100  208.3930  149.6020 C   0  0  2  0  0  3  0  0  0  0  0  0
  162.4040  206.1380  149.5750 C   0  0  0  0  0  2  0  0  0  0  0  0
  160.6380  206.6210  148.1130 C   0  0  0  0  0  2  0  0  0  0  0  0
  160.2470  206.9980  149.5410 C   0  0  0  0  0  2  0  0  0  0  0  0
  162.1530  206.6910  148.2000 C   0  0  1  0  0  0  0  0  0  0  0  0
  162.8390  205.9260  147.0740 C   0  0  0  0  0  2  0  0  0  0  0  0
  161.8230  205.2750  146.1430 C   0  0  0  0  0  2  0  0  0  0  0  0
  161.1880  201.3560  145.9960 C   0  0  1  0  0  0  0  0  0  0  0  0
  161.3060  202.8080  145.7500 N   0  0  0  0  0  0  0  0  0  0  0  0
  158.8770  202.2130  145.5540 C   0  0  0  0  0  1  0  0  0  0  0  0
  160.2970  201.9390  145.0590 C   0  0  2  0  0  0  0  0  0  0  0  0
  160.6640  202.2630  148.3000 C   0  0  0  0  0  0  0  0  0  0  0  0
  161.4740  203.9060  146.6130 C   0  0  0  0  0  0  0  0  0  0  0  0
  160.5560  200.5770  145.0400 O   0  0  0  0  0  0  0  0  0  0  0  0
  160.6680  201.2130  147.4180 C   0  0  0  0  0  3  0  0  0  0  0  0
  161.1410  203.6440  147.8840 C   0  0  0  0  0  3  0  0  0  0  0  0
  161.2560  201.1760  150.5030 C   0  0  0  0  0  2  0  0  0  0  0  0
  160.2230  202.0300  149.7360 C   0  0  0  0  0  0  0  0  0  0  0  0
  162.3400  202.0420  151.1440 C   0  0  0  0  0  2  0  0  0  0  0  0
  161.7490  202.9960  152.1900 C   0  0  0  0  0  2  0  0  0  0  0  0
  159.9590  203.3780  150.4530 C   0  0  0  0  0  2  0  0  0  0  0  0
  158.9220  201.2480  149.7100 C   0  0  0  0  0  1  0  0  0  0  0  0
  160.2710  203.3260  151.9480 C   0  0  0  0  0  2  0  0  0  0  0  0
  162.3460  210.8940  149.0630 C   0  0  0  0  0  2  0  0  0  0  0  0
  161.4670  211.4510  147.9620 C   0  0  0  0  0  2  0  0  0  0  0  0
  162.1020  212.7120  147.4100 C   0  0  0  0  0  2  0  0  0  0  0  0
  161.0580  213.5700  146.7130 C   0  0  0  0  0  2  0  0  0  0  0  0
  161.4280  213.8340  145.2530 C   0  0  1  0  0  3  0  0  0  0  0  0
  162.7960  213.2450  144.9370 C   0  0  0  0  0  1  0  0  0  0  0  0
  160.3510  213.3670  144.2520 C   0  0  1  0  0  0  0  0  0  0  0  0
  159.4770  212.2940  144.8810 C   0  0  0  0  0  1  0  0  0  0  0  0
  159.5310  214.4530  143.9470 O   0  0  0  0  0  1  0  0  0  0  0  0
  160.9490  212.8450  142.9390 C   0  0  0  0  0  2  0  0  0  0  0  0
  160.5580  211.5290  142.6770 O   0  0  0  0  0  0  0  0  0  0  0  0
  161.5390  211.9530  140.6650 O   0  0  0  0  0  1  0  0  0  0  0  0
  160.3890  211.4770  141.2930 C   0  0  0  0  0  3  0  0  0  0  0  0
  159.2960  212.2600  140.9230 O   0  0  0  0  0  1  0  0  0  0  0  0
  1 41  1  6  0  0  0
  1 10  1  0  0  0  0
  2  8  2  0  0  0  0
  3 11  2  0  0  0  0
  4  5  2  0  0  0  0
  6 13  1  6  0  0  0
  6  3  1  0  0  0  0
  6  7  1  0  0  0  0
  7  4  1  6  0  0  0
  9 12  1  1  0  0  0
  9  8  1  0  0  0  0
  9  7  1  0  0  0  0
 10 15  1  0  0  0  0
 10 14  2  0  0  0  0
 11  5  1  0  0  0  0
 12 13  2  0  0  0  0
 14  2  1  0  0  0  0
 15 12  1  0  0  0  0
 16 18  1  0  0  0  0
 17 21  1  6  0  0  0
 18  1  1  6  0  0  0
 18 17  1  0  0  0  0
 19 17  1  0  0  0  0
 20 22  1  0  0  0  0
 20 21  1  0  0  0  0
 22 23  1  6  0  0  0
 22 16  1  0  0  0  0
 22 19  1  0  0  0  0
 24 30  1  0  0  0  0
 24 23  1  0  0  0  0
 25 32  1  1  0  0  0
 26 25  1  0  0  0  0
 26 30  1  0  0  0  0
 28 27  1  1  0  0  0
 28 26  1  0  0  0  0
 28 25  1  0  0  0  0
 29 35  1  0  0  0  0
 30 33  2  0  0  0  0
 31 28  1  0  0  0  0
 31 25  1  0  0  0  0
 32 29  2  0  0  0  0
 33 29  1  0  0  0  0
 34 36  1  0  0  0  0
 35 38  1  0  0  0  0
 35 34  1  0  0  0  0
 36 37  1  0  0  0  0
 38 40  1  0  0  0  0
 39 35  1  0  0  0  0
 40 37  1  0  0  0  0
 42 41  1  0  0  0  0
 43 42  1  0  0  0  0
 44 43  1  0  0  0  0
 45 46  1  6  0  0  0
 45 44  1  0  0  0  0
 47 48  1  1  0  0  0
 47 45  1  0  0  0  0
 49 47  1  0  0  0  0
 50 47  1  0  0  0  0
 51 50  1  0  0  0  0
 52 53  1  0  0  0  0
 53 51  1  0  0  0  0
 54 53  1  0  0  0  0
M  END
>  <MODEL>
3

>  <REMARK>
 VINA RESULT:      -5.2      3.536      9.394
  Name = 
  15 active torsions:
  status: ('A' for Active; 'I' for Inactive)
    1  A    between atoms: C_7  and  C_20
    2  A    between atoms: C_7  and  O_46
    3  A    between atoms: C_15  and  C_17
    4  A    between atoms: C_15  and  C_28
    5  A    between atoms: C_15  and  C_37
    6  A    between atoms: C_18  and  C_36
    7  A    between atoms: C_18  and  C_41
    8  A    between atoms: C_19  and  C_26
    9  A    between atoms: C_20  and  C_24
   10  A    between atoms: C_21  and  O_46
   11  A    between atoms: C_24  and  C_36
   12  A    between atoms: C_28  and  C_41
   13  A    between atoms: C_31  and  C_50
   14  A    between atoms: C_35  and  C_48
   15  A    between atoms: C_48  and  C_50
                            x       y       z     vdW  Elec       q    Type
                         _______ _______ _______ _____ _____    ______ ____

>  <TORSDO>
F 15

$$$$
=
 OpenBabel11052410083D

 54 62  0  0  1  0  0  0  0  0999 V2000
  161.2020  209.7650  153.6400 C   0  0  2  0  0  3  0  0  0  0  0  0
  161.9400  211.2500  150.2220 C   0  0  0  0  0  3  0  0  0  0  0  0
  156.7450  214.4530  150.0460 C   0  0  0  0  0  3  0  0  0  0  0  0
  158.6130  213.3190  148.2840 N   0  0  0  0  0  0  0  0  0  0  0  0
  157.4190  213.6660  147.8830 C   0  0  0  0  0  3  0  0  0  0  0  0
  158.0040  213.9100  150.5460 C   0  0  2  0  0  3  0  0  0  0  0  0
  159.1310  213.7280  149.5950 C   0  0  1  0  0  3  0  0  0  0  0  0
  161.1120  212.1250  149.7420 N   0  0  0  0  0  0  0  0  0  0  0  0
  159.9040  212.6570  150.2820 C   0  0  1  0  0  3  0  0  0  0  0  0
  160.9770  210.6420  152.4510 C   0  0  0  0  0  0  0  0  0  0  0  0
  156.5060  214.3490  148.7700 N   0  0  0  0  0  0  0  0  0  0  0  0
  159.3580  212.4020  151.4620 C   0  0  0  0  0  0  0  0  0  0  0  0
  158.1180  213.1510  151.6220 C   0  0  0  0  0  3  0  0  0  0  0  0
  161.8400  210.5790  151.4850 N   0  0  0  0  0  0  0  0  0  0  0  0
  159.8180  211.4800  152.4430 N   0  0  0  0  0  2  0  0  0  0  0  0
  161.2450  207.8480  152.0860 O   0  0  0  0  0  0  0  0  0  0  0  0
  161.9750  207.3640  154.2800 C   0  0  2  0  0  3  0  0  0  0  0  0
  161.8680  208.4490  153.2060 C   0  0  2  0  0  3  0  0  0  0  0  0
  162.3630  206.2530  153.3690 C   0  0  0  0  0  2  0  0  0  0  0  0
  160.0200  206.2800  153.3950 C   0  0  0  0  0  2  0  0  0  0  0  0
  160.5610  206.9190  154.6730 C   0  0  0  0  0  2  0  0  0  0  0  0
  161.1940  206.4830  152.4510 C   0  0  1  0  0  0  0  0  0  0  0  0
  161.1420  205.5540  151.2450 C   0  0  0  0  0  2  0  0  0  0  0  0
  161.3430  206.3190  149.9430 C   0  0  0  0  0  2  0  0  0  0  0  0
  162.7020  205.0110  146.4460 C   0  0  1  0  0  0  0  0  0  0  0  0
  162.1670  205.7790  147.5900 N   0  0  0  0  0  0  0  0  0  0  0  0
  160.4310  205.8330  145.7790 C   0  0  0  0  0  1  0  0  0  0  0  0
  161.8820  206.1320  146.1600 C   0  0  2  0  0  0  0  0  0  0  0  0
  161.2980  203.2380  147.5830 C   0  0  0  0  0  0  0  0  0  0  0  0
  161.5900  205.3840  148.8110 C   0  0  0  0  0  0  0  0  0  0  0  0
  162.7540  205.6290  145.2070 O   0  0  0  0  0  0  0  0  0  0  0  0
  162.0020  203.6610  146.4850 C   0  0  0  0  0  3  0  0  0  0  0  0
  161.1410  204.1220  148.8090 C   0  0  0  0  0  3  0  0  0  0  0  0
  159.8380  201.5900  146.3420 C   0  0  0  0  0  2  0  0  0  0  0  0
  160.7050  201.8380  147.5960 C   0  0  0  0  0  0  0  0  0  0  0  0
  160.6700  201.0560  145.1770 C   0  0  0  0  0  2  0  0  0  0  0  0
  161.2940  199.6950  145.5120 C   0  0  0  0  0  2  0  0  0  0  0  0
  161.8220  200.7720  147.7310 C   0  0  0  0  0  2  0  0  0  0  0  0
  159.7930  201.7210  148.8040 C   0  0  0  0  0  1  0  0  0  0  0  0
  161.4850  199.4650  147.0160 C   0  0  0  0  0  2  0  0  0  0  0  0
  159.8950  209.5620  154.3970 C   0  0  0  0  0  2  0  0  0  0  0  0
  160.1230  209.7500  155.8820 C   0  0  0  0  0  2  0  0  0  0  0  0
  160.3560  211.2200  156.1670 C   0  0  0  0  0  2  0  0  0  0  0  0
  159.3660  211.7230  157.2050 C   0  0  0  0  0  2  0  0  0  0  0  0
  158.8420  213.1170  156.8560 C   0  0  1  0  0  3  0  0  0  0  0  0
  159.7110  213.7570  155.7810 C   0  0  0  0  0  1  0  0  0  0  0  0
  157.3470  213.1350  156.4780 C   0  0  1  0  0  0  0  0  0  0  0  0
  156.6960  214.4220  156.9600 C   0  0  0  0  0  1  0  0  0  0  0  0
  157.2430  213.1060  155.0870 O   0  0  0  0  0  1  0  0  0  0  0  0
  156.5810  211.9280  157.0320 C   0  0  0  0  0  2  0  0  0  0  0  0
  155.3200  211.7970  156.4440 O   0  0  0  0  0  0  0  0  0  0  0  0
  155.4780  210.3520  154.6900 O   0  0  0  0  0  1  0  0  0  0  0  0
  155.2430  210.4580  156.0600 C   0  0  0  0  0  3  0  0  0  0  0  0
  153.9770  209.9550  156.3580 O   0  0  0  0  0  1  0  0  0  0  0  0
  1 41  1  6  0  0  0
  2 14  1  0  0  0  0
  5  4  2  0  0  0  0
  5 11  1  0  0  0  0
  6  3  1  6  0  0  0
  6 13  1  0  0  0  0
  7  4  1  6  0  0  0
  7  9  1  0  0  0  0
  7  6  1  0  0  0  0
  8  2  2  0  0  0  0
  9  8  1  1  0  0  0
  9 12  1  0  0  0  0
 10  1  1  0  0  0  0
 11  3  2  0  0  0  0
 12 13  2  0  0  0  0
 12 15  1  0  0  0  0
 14 10  2  0  0  0  0
 15 10  1  0  0  0  0
 16 22  1  0  0  0  0
 16 18  1  0  0  0  0
 17 19  1  6  0  0  0
 17 21  1  0  0  0  0
 18  1  1  1  0  0  0
 18 17  1  0  0  0  0
 20 21  1  0  0  0  0
 22 23  1  6  0  0  0
 22 19  1  0  0  0  0
 22 20  1  0  0  0  0
 24 23  1  0  0  0  0
 25 32  1  6  0  0  0
 25 26  1  0  0  0  0
 26 30  1  0  0  0  0
 28 27  1  6  0  0  0
 28 25  1  0  0  0  0
 28 26  1  0  0  0  0
 29 35  1  0  0  0  0
 29 33  1  0  0  0  0
 30 24  1  0  0  0  0
 31 28  1  0  0  0  0
 31 25  1  0  0  0  0
 32 29  2  0  0  0  0
 33 30  2  0  0  0  0
 34 35  1  0  0  0  0
 35 38  1  0  0  0  0
 35 39  1  0  0  0  0
 36 37  1  0  0  0  0
 36 34  1  0  0  0  0
 37 40  1  0  0  0  0
 40 38  1  0  0  0  0
 41 42  1  0  0  0  0
 42 43  1  0  0  0  0
 43 44  1  0  0  0  0
 45 46  1  6  0  0  0
 45 44  1  0  0  0  0
 47 45  1  0  0  0  0
 47 48  1  1  0  0  0
 47 50  1  0  0  0  0
 49 47  1  0  0  0  0
 51 50  1  0  0  0  0
 52 53  1  0  0  0  0
 53 54  1  0  0  0  0
 53 51  1  0  0  0  0
M  END
>  <MODEL>
4

>  <REMARK>
 VINA RESULT:      -4.5      3.426      9.493
  Name = 
  15 active torsions:
  status: ('A' for Active; 'I' for Inactive)
    1  A    between atoms: C_7  and  C_20
    2  A    between atoms: C_7  and  O_46
    3  A    between atoms: C_15  and  C_17
    4  A    between atoms: C_15  and  C_28
    5  A    between atoms: C_15  and  C_37
    6  A    between atoms: C_18  and  C_36
    7  A    between atoms: C_18  and  C_41
    8  A    between atoms: C_19  and  C_26
    9  A    between atoms: C_20  and  C_24
   10  A    between atoms: C_21  and  O_46
   11  A    between atoms: C_24  and  C_36
   12  A    between atoms: C_28  and  C_41
   13  A    between atoms: C_31  and  C_50
   14  A    between atoms: C_35  and  C_48
   15  A    between atoms: C_48  and  C_50
                            x       y       z     vdW  Elec       q    Type
                         _______ _______ _______ _____ _____    ______ ____

>  <TORSDO>
F 15

$$$$
