=
 OpenBabel11042423013D

 65 71  0  0  1  0  0  0  0  0999 V2000
  158.1160  213.5990  151.5760 C   0  0  0  0  0  3  0  0  0  0  0  0
  158.7420  213.7850  149.3010 C   0  0  0  0  0  0  0  0  0  0  0  0
  156.3610  214.0500  149.7290 C   0  0  0  0  0  0  0  0  0  0  0  0
  155.3000  214.0620  150.6240 O   0  0  0  0  0  1  0  0  0  0  0  0
  160.0360  213.5450  149.9930 C   0  0  1  0  0  3  0  0  0  0  0  0
  157.6790  213.8150  150.1790 C   0  0  0  0  0  0  0  0  0  0  0  0
  157.2350  214.2590  147.4950 C   0  0  0  0  0  0  0  0  0  0  0  0
  158.6700  214.3140  145.8610 C   0  0  0  0  0  0  0  0  0  0  0  0
  159.3560  214.0560  146.9610 O   0  0  0  0  0  0  0  0  0  0  0  0
  156.1300  214.2790  148.3550 C   0  0  0  0  0  3  0  0  0  0  0  0
  157.3010  214.4530  146.1340 C   0  0  0  0  0  3  0  0  0  0  0  0
  158.5040  214.0220  147.9500 C   0  0  0  0  0  0  0  0  0  0  0  0
  159.6470  213.5220  151.4840 C   0  0  0  0  0  3  0  0  0  0  0  0
  159.3120  214.3950  144.5040 C   0  0  2  0  0  3  0  0  0  0  0  0
  158.2630  214.2480  143.4140 C   0  0  0  0  0  1  0  0  0  0  0  0
  160.4070  213.3510  144.3010 C   0  0  0  0  0  2  0  0  0  0  0  0
  161.8210  213.3310  142.2270 C   0  0  0  0  0  0  0  0  0  0  0  0
  160.5680  213.0610  142.8750 N   0  0  0  0  0  0  0  0  0  0  0  0
  162.0250  212.9260  140.8710 N   0  0  0  0  0  2  0  0  0  0  0  0
  162.7440  213.9240  142.8520 O   0  0  0  0  0  0  0  0  0  0  0  0
  162.3170  210.1290  139.6370 C   0  0  0  0  0  2  0  0  0  0  0  0
  163.7840  211.9760  139.3840 C   0  0  0  0  0  2  0  0  0  0  0  0
  161.3320  209.1370  138.9940 C   0  0  1  0  0  3  0  0  0  0  0  0
  160.7310  210.9430  137.3010 C   0  0  1  0  0  3  0  0  0  0  0  0
  163.2460  213.2140  140.1240 C   0  0  1  0  0  3  0  0  0  0  0  0
  162.7920  211.1360  138.6840 N   0  0  2  0  0  0  0  0  0  0  0  0
  161.9160  214.3100  138.2200 C   0  0  0  0  0  2  0  0  0  0  0  0
  161.6250  211.8610  138.1430 C   0  0  1  0  0  3  0  0  0  0  0  0
  163.0920  214.4190  139.1890 C   0  0  0  0  0  2  0  0  0  0  0  0
  162.0210  213.0830  137.3310 C   0  0  0  0  0  2  0  0  0  0  0  0
  160.0330  208.6460  137.0180 O   0  0  0  0  0  1  0  0  0  0  0  0
  161.0590  209.4540  137.5160 C   0  0  2  0  0  3  0  0  0  0  0  0
  159.3920  211.2040  137.6110 O   0  0  0  0  0  1  0  0  0  0  0  0
  161.8290  207.7370  139.1610 C   0  0  0  0  0  0  0  0  0  0  0  0
  162.9100  205.9700  140.5990 C   0  0  0  0  0  1  0  0  0  0  0  0
  162.4050  207.3190  140.4020 N   0  0  0  0  0  2  0  0  0  0  0  0
  161.7640  206.9390  138.1860 O   0  0  0  0  0  0  0  0  0  0  0  0
  159.7120  211.5500  141.1820 C   0  0  0  0  0  2  0  0  0  0  0  0
  159.5010  212.4760  142.1100 C   0  0  0  0  0  3  0  0  0  0  0  0
  161.4920  211.7400  150.6390 O   0  0  0  0  0  1  0  0  0  0  0  0
  160.7120  212.2250  149.5890 C   0  0  2  0  0  3  0  0  0  0  0  0
  161.5440  212.3380  148.3150 C   0  0  0  0  0  2  0  0  0  0  0  0
  161.9650  210.9640  147.8180 C   0  0  0  0  0  2  0  0  0  0  0  0
  161.4950  209.8500  148.7570 C   0  0  0  0  0  2  0  0  0  0  0  0
  162.0720  208.4690  148.4380 C   0  0  2  0  0  3  0  0  0  0  0  0
  160.9740  207.4660  148.1290 C   0  0  0  0  0  1  0  0  0  0  0  0
  162.9170  207.9840  149.5190 N   0  0  0  0  0  2  0  0  0  0  0  0
  160.6770  205.9480  154.2150 C   0  0  0  0  0  1  0  0  0  0  0  0
  162.7000  205.3530  149.9370 F   0  0  0  0  0  0  0  0  0  0  0  0
  162.0450  207.5720  150.6090 C   0  0  2  0  0  3  0  0  0  0  0  0
  162.6700  207.8100  151.8490 O   0  0  0  0  0  0  0  0  0  0  0  0
  161.6620  206.0910  150.4800 C   0  0  2  0  0  3  0  0  0  0  0  0
  161.2960  205.4920  151.8410 C   0  0  1  0  0  3  0  0  0  0  0  0
  160.7760  206.5460  152.8250 C   0  0  2  0  0  3  0  0  0  0  0  0
  160.3480  204.4840  151.6660 O   0  0  0  0  0  1  0  0  0  0  0  0
  161.6710  207.8090  152.8600 C   0  0  2  0  0  3  0  0  0  0  0  0
  161.0200  211.4840  155.5610 C   0  0  0  0  0  1  0  0  0  0  0  0
  160.1730  208.6280  155.2460 C   0  0  0  0  0  2  0  0  0  0  0  0
  159.7880  209.0960  153.8330 C   0  0  0  0  0  2  0  0  0  0  0  0
  163.2220  210.7270  156.3220 C   0  0  0  0  0  1  0  0  0  0  0  0
  161.5730  209.0080  155.7460 C   0  0  0  0  0  2  0  0  0  0  0  0
  160.8520  209.0400  152.8220 N   0  0  1  0  0  0  0  0  0  0  0  0
  162.0810  210.4030  155.3800 C   0  0  0  0  0  0  0  0  0  0  0  0
  162.6550  210.3920  153.9640 C   0  0  0  0  0  2  0  0  0  0  0  0
  161.6130  210.2980  152.8430 C   0  0  0  0  0  2  0  0  0  0  0  0
  2  5  1  0  0  0  0
  2  6  1  0  0  0  0
  3  6  2  0  0  0  0
  3  4  1  0  0  0  0
  5 41  1  6  0  0  0
  5 13  1  0  0  0  0
  6  1  1  0  0  0  0
  7 12  1  0  0  0  0
  7 10  2  0  0  0  0
  8 11  2  0  0  0  0
  8  9  1  0  0  0  0
  9 12  1  0  0  0  0
 10  3  1  0  0  0  0
 11  7  1  0  0  0  0
 12  2  2  0  0  0  0
 13  1  2  0  0  0  0
 14 15  1  6  0  0  0
 14  8  1  0  0  0  0
 16 14  1  0  0  0  0
 17 20  2  0  0  0  0
 17 18  1  0  0  0  0
 18 16  1  0  0  0  0
 19 17  1  0  0  0  0
 22 25  1  0  0  0  0
 23 34  1  6  0  0  0
 23 21  1  0  0  0  0
 24 32  1  0  0  0  0
 24 33  1  1  0  0  0
 24 28  1  0  0  0  0
 25 19  1  6  0  0  0
 26 22  1  1  0  0  0
 26 21  1  0  0  0  0
 27 29  1  0  0  0  0
 28 30  1  6  0  0  0
 28 26  1  0  0  0  0
 29 25  1  0  0  0  0
 30 27  1  0  0  0  0
 32 31  1  1  0  0  0
 32 23  1  0  0  0  0
 34 36  1  0  0  0  0
 36 35  1  0  0  0  0
 37 34  2  0  0  0  0
 38 39  2  0  0  0  0
 39 18  1  0  0  0  0
 41 40  1  1  0  0  0
 42 41  1  0  0  0  0
 43 42  1  0  0  0  0
 43 44  1  0  0  0  0
 45 46  1  1  0  0  0
 45 44  1  0  0  0  0
 45 47  1  0  0  0  0
 50 47  1  6  0  0  0
 50 51  1  0  0  0  0
 52 49  1  1  0  0  0
 52 50  1  0  0  0  0
 52 53  1  0  0  0  0
 53 55  1  6  0  0  0
 53 54  1  0  0  0  0
 54 56  1  0  0  0  0
 54 48  1  1  0  0  0
 56 51  1  6  0  0  0
 58 61  1  0  0  0  0
 59 58  1  0  0  0  0
 62 65  1  1  0  0  0
 62 56  1  0  0  0  0
 62 59  1  0  0  0  0
 63 57  1  0  0  0  0
 63 61  1  0  0  0  0
 63 60  1  0  0  0  0
 64 63  1  0  0  0  0
 65 64  1  0  0  0  0
M  END
>  <MODEL>
1

>  <REMARK>
 VINA RESULT:      -5.1      0.000      0.000
  Name = 
  14 active torsions:
  status: ('A' for Active; 'I' for Inactive)
    1  A    between atoms: C_3  and  C_17
    2  A    between atoms: N_11  and  C_24
    3  A    between atoms: N_11  and  C_50
    4  A    between atoms: N_13  and  C_43
    5  A    between atoms: N_19  and  C_65
    6  A    between atoms: C_23  and  C_31
    7  A    between atoms: C_23  and  C_36
    8  A    between atoms: C_24  and  C_25
    9  A    between atoms: C_25  and  C_42
   10  A    between atoms: C_28  and  N_45
   11  A    between atoms: C_29  and  C_35
   12  A    between atoms: C_29  and  C_36
   13  A    between atoms: C_31  and  C_32
   14  A    between atoms: C_35  and  N_45
                            x       y       z     vdW  Elec       q    Type
                         _______ _______ _______ _____ _____    ______ ____

>  <TORSDO>
F 14

$$$$
=
 OpenBabel11042423013D

 65 71  0  0  1  0  0  0  0  0999 V2000
  161.4870  203.0230  145.4040 C   0  0  0  0  0  3  0  0  0  0  0  0
  161.4640  204.9160  146.8230 C   0  0  0  0  0  0  0  0  0  0  0  0
  161.1140  202.7900  147.9530 C   0  0  0  0  0  0  0  0  0  0  0  0
  160.9740  201.4100  147.8910 O   0  0  0  0  0  1  0  0  0  0  0  0
  161.7170  205.5000  145.4790 C   0  0  1  0  0  3  0  0  0  0  0  0
  161.3380  203.5440  146.7800 C   0  0  0  0  0  0  0  0  0  0  0  0
  161.1890  204.8440  149.2060 C   0  0  0  0  0  0  0  0  0  0  0  0
  161.3750  206.9690  149.6330 C   0  0  0  0  0  0  0  0  0  0  0  0
  161.5080  206.8320  148.3250 O   0  0  0  0  0  0  0  0  0  0  0  0
  161.0380  203.4530  149.1970 C   0  0  0  0  0  3  0  0  0  0  0  0
  161.1660  205.7320  150.2590 C   0  0  0  0  0  3  0  0  0  0  0  0
  161.3980  205.5590  148.0570 C   0  0  0  0  0  0  0  0  0  0  0  0
  161.8310  204.2640  144.5670 C   0  0  0  0  0  3  0  0  0  0  0  0
  161.4100  208.3090  150.3160 C   0  0  2  0  0  3  0  0  0  0  0  0
  161.7100  209.4070  149.3080 C   0  0  0  0  0  1  0  0  0  0  0  0
  162.4250  208.3710  151.4530 C   0  0  0  0  0  2  0  0  0  0  0  0
  162.0270  209.4370  153.6910 C   0  0  0  0  0  0  0  0  0  0  0  0
  161.7340  208.3970  152.7450 N   0  0  0  0  0  0  0  0  0  0  0  0
  161.2610  209.5440  154.8940 N   0  0  0  0  0  2  0  0  0  0  0  0
  162.9590  210.2580  153.4640 O   0  0  0  0  0  0  0  0  0  0  0  0
  160.3610  211.9810  153.2560 C   0  0  0  0  0  2  0  0  0  0  0  0
  161.2600  211.9720  155.4520 C   0  0  0  0  0  2  0  0  0  0  0  0
  159.1670  212.2630  152.3280 C   0  0  1  0  0  3  0  0  0  0  0  0
  157.6170  211.7090  154.2720 C   0  0  1  0  0  3  0  0  0  0  0  0
  161.5320  210.5350  155.9310 C   0  0  1  0  0  3  0  0  0  0  0  0
  160.0290  212.1900  154.6690 N   0  0  2  0  0  0  0  0  0  0  0  0
  159.2970  210.0390  157.0970 C   0  0  0  0  0  2  0  0  0  0  0  0
  158.8960  211.3110  155.0210 C   0  0  1  0  0  3  0  0  0  0  0  0
  160.8070  210.2210  157.2450 C   0  0  0  0  0  2  0  0  0  0  0  0
  158.6280  211.2730  156.5160 C   0  0  0  0  0  2  0  0  0  0  0  0
  156.8020  212.7420  152.2460 O   0  0  0  0  0  1  0  0  0  0  0  0
  157.9030  212.6680  153.1020 C   0  0  2  0  0  3  0  0  0  0  0  0
  156.9760  210.5520  153.8190 O   0  0  0  0  0  1  0  0  0  0  0  0
  159.5340  213.3020  151.3170 C   0  0  0  0  0  0  0  0  0  0  0  0
  161.0240  214.0710  149.4330 C   0  0  0  0  0  1  0  0  0  0  0  0
  160.6280  213.0810  150.4230 N   0  0  0  0  0  2  0  0  0  0  0  0
  158.8910  214.3850  151.2840 O   0  0  0  0  0  0  0  0  0  0  0  0
  161.0420  206.2410  153.6110 C   0  0  0  0  0  2  0  0  0  0  0  0
  160.7370  207.4160  153.0750 C   0  0  0  0  0  3  0  0  0  0  0  0
  159.3470  205.8560  145.2460 O   0  0  0  0  0  1  0  0  0  0  0  0
  160.5940  206.4300  144.9930 C   0  0  2  0  0  3  0  0  0  0  0  0
  160.7170  206.8070  143.5190 C   0  0  0  0  0  2  0  0  0  0  0  0
  162.0870  206.4310  142.9760 C   0  0  0  0  0  2  0  0  0  0  0  0
  162.0210  205.9980  141.5100 C   0  0  0  0  0  2  0  0  0  0  0  0
  162.2350  207.1320  140.5050 C   0  0  2  0  0  3  0  0  0  0  0  0
  163.5130  207.8980  140.7960 C   0  0  0  0  0  1  0  0  0  0  0  0
  161.0940  208.0350  140.4720 N   0  0  0  0  0  2  0  0  0  0  0  0
  161.7700  213.1720  138.3800 C   0  0  0  0  0  1  0  0  0  0  0  0
  161.2900  208.4570  137.8400 F   0  0  0  0  0  0  0  0  0  0  0  0
  161.5810  209.3440  140.0610 C   0  0  2  0  0  3  0  0  0  0  0  0
  160.5740  210.3130  140.2350 O   0  0  0  0  0  0  0  0  0  0  0  0
  162.0560  209.3230  138.6020 C   0  0  2  0  0  3  0  0  0  0  0  0
  161.9850  210.7190  137.9750 C   0  0  1  0  0  3  0  0  0  0  0  0
  162.1030  211.8360  139.0180 C   0  0  2  0  0  3  0  0  0  0  0  0
  162.9850  210.8480  137.0120 O   0  0  0  0  0  1  0  0  0  0  0  0
  161.1860  211.5960  140.2420 C   0  0  2  0  0  3  0  0  0  0  0  0
  160.5300  214.1340  144.0310 C   0  0  0  0  0  1  0  0  0  0  0  0
  161.5010  214.3500  141.2060 C   0  0  0  0  0  2  0  0  0  0  0  0
  162.4410  213.2140  141.6420 C   0  0  0  0  0  2  0  0  0  0  0  0
  158.2330  213.9210  143.2060 C   0  0  0  0  0  1  0  0  0  0  0  0
  160.0130  214.1880  141.5420 C   0  0  0  0  0  2  0  0  0  0  0  0
  161.9120  211.8500  141.5050 N   0  0  1  0  0  0  0  0  0  0  0  0
  159.6750  213.5710  142.9000 C   0  0  0  0  0  0  0  0  0  0  0  0
  159.7610  212.0480  142.8160 C   0  0  0  0  0  2  0  0  0  0  0  0
  161.1840  211.4840  142.7290 C   0  0  0  0  0  2  0  0  0  0  0  0
  1  6  1  0  0  0  0
  2 12  1  0  0  0  0
  3 10  2  0  0  0  0
  4  3  1  0  0  0  0
  5 41  1  6  0  0  0
  5  2  1  0  0  0  0
  6  2  2  0  0  0  0
  6  3  1  0  0  0  0
  7 11  1  0  0  0  0
  8 11  2  0  0  0  0
  8 14  1  0  0  0  0
  9  8  1  0  0  0  0
 10  7  1  0  0  0  0
 12  9  1  0  0  0  0
 12  7  2  0  0  0  0
 13  1  2  0  0  0  0
 13  5  1  0  0  0  0
 14 15  1  6  0  0  0
 14 16  1  0  0  0  0
 16 18  1  0  0  0  0
 17 19  1  0  0  0  0
 18 39  1  0  0  0  0
 18 17  1  0  0  0  0
 20 17  2  0  0  0  0
 22 25  1  0  0  0  0
 23 34  1  6  0  0  0
 23 32  1  0  0  0  0
 23 21  1  0  0  0  0
 24 33  1  6  0  0  0
 24 28  1  0  0  0  0
 25 19  1  6  0  0  0
 25 29  1  0  0  0  0
 26 21  1  6  0  0  0
 26 28  1  0  0  0  0
 26 22  1  0  0  0  0
 27 29  1  0  0  0  0
 28 30  1  1  0  0  0
 30 27  1  0  0  0  0
 32 31  1  6  0  0  0
 32 24  1  0  0  0  0
 35 36  1  0  0  0  0
 36 34  1  0  0  0  0
 37 34  2  0  0  0  0
 39 38  2  0  0  0  0
 41 40  1  6  0  0  0
 42 41  1  0  0  0  0
 43 42  1  0  0  0  0
 44 43  1  0  0  0  0
 45 46  1  1  0  0  0
 45 44  1  0  0  0  0
 47 45  1  0  0  0  0
 50 51  1  0  0  0  0
 50 47  1  6  0  0  0
 52 49  1  6  0  0  0
 52 50  1  0  0  0  0
 53 55  1  6  0  0  0
 53 52  1  0  0  0  0
 53 54  1  0  0  0  0
 54 48  1  6  0  0  0
 54 56  1  0  0  0  0
 56 51  1  1  0  0  0
 56 62  1  0  0  0  0
 58 61  1  0  0  0  0
 58 59  1  0  0  0  0
 61 63  1  0  0  0  0
 62 59  1  1  0  0  0
 62 65  1  0  0  0  0
 63 60  1  0  0  0  0
 63 57  1  0  0  0  0
 64 63  1  0  0  0  0
 65 64  1  0  0  0  0
M  END
>  <MODEL>
2

>  <REMARK>
 VINA RESULT:      -3.7      3.031     12.917
  Name = 
  14 active torsions:
  status: ('A' for Active; 'I' for Inactive)
    1  A    between atoms: C_3  and  C_17
    2  A    between atoms: N_11  and  C_24
    3  A    between atoms: N_11  and  C_50
    4  A    between atoms: N_13  and  C_43
    5  A    between atoms: N_19  and  C_65
    6  A    between atoms: C_23  and  C_31
    7  A    between atoms: C_23  and  C_36
    8  A    between atoms: C_24  and  C_25
    9  A    between atoms: C_25  and  C_42
   10  A    between atoms: C_28  and  N_45
   11  A    between atoms: C_29  and  C_35
   12  A    between atoms: C_29  and  C_36
   13  A    between atoms: C_31  and  C_32
   14  A    between atoms: C_35  and  N_45
                            x       y       z     vdW  Elec       q    Type
                         _______ _______ _______ _____ _____    ______ ____

>  <TORSDO>
F 14

$$$$
