=
 OpenBabel11052411403D

 43 48  0  0  1  0  0  0  0  0999 V2000
  159.7820  213.8290  149.5040 C   0  0  0  0  0  3  0  0  0  0  0  0
  161.2360  211.9490  149.7130 N   0  0  0  0  0  0  0  0  0  0  0  0
  159.9690  212.6530  151.6160 C   0  0  0  0  0  0  0  0  0  0  0  0
  159.4150  213.6800  150.8420 C   0  0  0  0  0  3  0  0  0  0  0  0
  160.8940  211.7810  151.0220 C   0  0  0  0  0  0  0  0  0  0  0  0
  160.7060  212.9420  148.9450 C   0  0  0  0  0  0  0  0  0  0  0  0
  161.9460  208.3490  151.3630 C   0  0  2  0  0  3  0  0  0  0  0  0
  160.5340  208.4610  151.9000 C   0  0  0  0  0  2  0  0  0  0  0  0
  160.4680  209.8360  152.5370 C   0  0  0  0  0  2  0  0  0  0  0  0
  162.3220  209.7530  150.9390 C   0  0  0  0  0  2  0  0  0  0  0  0
  161.5190  210.6840  151.8310 C   0  0  1  0  0  3  0  0  0  0  0  0
  162.0030  207.4310  150.1920 C   0  0  0  0  0  3  0  0  0  0  0  0
  161.3040  206.3420  150.1800 N   0  0  0  0  0  0  0  0  0  0  0  0
  161.3250  205.4060  149.0980 C   0  0  0  0  0  0  0  0  0  0  0  0
  161.3420  203.5260  147.0130 C   0  0  0  0  0  0  0  0  0  0  0  0
  161.4190  202.5170  145.9060 C   0  0  0  0  0  2  0  0  0  0  0  0
  161.5680  205.8140  147.7740 C   0  0  0  0  0  3  0  0  0  0  0  0
  160.6220  201.3340  146.2310 N   0  0  0  0  0  2  0  0  0  0  0  0
  161.0950  204.0510  149.3690 C   0  0  0  0  0  3  0  0  0  0  0  0
  160.8040  201.6680  148.6480 C   0  0  0  0  0  2  0  0  0  0  0  0
  161.1420  200.7580  147.4690 C   0  0  0  0  0  2  0  0  0  0  0  0
  161.1200  203.1060  148.3390 C   0  0  0  0  0  0  0  0  0  0  0  0
  161.5810  204.8760  146.7360 C   0  0  0  0  0  3  0  0  0  0  0  0
  162.1800  213.4780  145.7620 C   0  0  0  0  0  3  0  0  0  0  0  0
  161.0040  212.9320  145.4160 N   0  0  0  0  0  0  0  0  0  0  0  0
  160.3000  212.6760  146.5030 N   0  0  0  0  0  0  0  0  0  0  0  0
  161.0870  213.0590  147.5270 C   0  0  0  0  0  0  0  0  0  0  0  0
  162.2690  213.5690  147.1090 N   0  0  0  0  0  0  0  0  0  0  0  0
  160.5210  212.7720  144.1120 C   0  0  0  0  0  0  0  0  0  0  0  0
  159.6360  212.4540  141.6180 C   0  0  0  0  0  1  0  0  0  0  0  0
  160.1170  212.6290  142.9860 C   0  0  0  0  0  0  0  0  0  0  0  0
  159.6230  212.4950  152.9610 O   0  0  0  0  0  0  0  0  0  0  0  0
  158.5510  213.1640  153.5130 N   0  0  0  0  0  2  0  0  0  0  0  0
  158.8220  213.3120  154.8800 N   0  0  0  0  0  2  0  0  0  0  0  0
  160.6120  207.9950  157.2610 C   0  0  0  0  0  2  0  0  0  0  0  0
  159.7280  212.2940  155.2160 N   0  0  0  0  0  2  0  0  0  0  0  0
  162.3920  209.5260  156.9140 C   0  0  0  0  0  2  0  0  0  0  0  0
  158.0550  210.6910  155.4350 O   0  0  0  0  0  0  0  0  0  0  0  0
  160.2300  209.9540  155.8610 N   0  0  0  0  0  0  0  0  0  0  0  0
  159.2840  210.9680  155.4960 C   0  0  0  0  0  0  0  0  0  0  0  0
  159.7900  208.5830  156.1160 C   0  0  0  0  0  2  0  0  0  0  0  0
  161.6610  210.2210  155.7640 C   0  0  0  0  0  2  0  0  0  0  0  0
  162.0360  208.1070  156.9520 N   0  0  0  0  0  2  0  0  0  0  0  0
  1  4  1  0  0  0  0
  2  5  2  0  0  0  0
  3 32  1  0  0  0  0
  4  3  2  0  0  0  0
  5  3  1  0  0  0  0
  6  1  2  0  0  0  0
  6  2  1  0  0  0  0
  7 12  1  6  0  0  0
  7  8  1  0  0  0  0
  8  9  1  0  0  0  0
 10  7  1  0  0  0  0
 10 11  1  0  0  0  0
 11  5  1  6  0  0  0
 11  9  1  0  0  0  0
 13 12  2  0  0  0  0
 14 19  1  0  0  0  0
 14 13  1  0  0  0  0
 15 22  1  0  0  0  0
 16 18  1  0  0  0  0
 16 15  1  0  0  0  0
 17 14  2  0  0  0  0
 18 21  1  0  0  0  0
 21 20  1  0  0  0  0
 22 20  1  0  0  0  0
 22 19  2  0  0  0  0
 23 15  2  0  0  0  0
 23 17  1  0  0  0  0
 24 28  2  0  0  0  0
 25 24  1  0  0  0  0
 25 26  1  0  0  0  0
 26 27  2  0  0  0  0
 27  6  1  0  0  0  0
 28 27  1  0  0  0  0
 29 25  1  0  0  0  0
 30 31  1  0  0  0  0
 31 29  3  0  0  0  0
 32 33  1  0  0  0  0
 33 34  1  0  0  0  0
 34 36  1  0  0  0  0
 36 40  1  0  0  0  0
 37 43  1  0  0  0  0
 38 40  2  0  0  0  0
 39 41  1  0  0  0  0
 40 39  1  0  0  0  0
 41 35  1  0  0  0  0
 42 39  1  0  0  0  0
 42 37  1  0  0  0  0
 43 35  1  0  0  0  0
M  END
>  <MODEL>
1

>  <REMARK>
 VINA RESULT:      -8.6      0.000      0.000
  Name = 
  9 active torsions:
  status: ('A' for Active; 'I' for Inactive)
    1  A    between atoms: C_3  and  C_21
    2  A    between atoms: C_4  and  O_32
    3  A    between atoms: N_7  and  C_8
    4  A    between atoms: N_9  and  N_12
    5  A    between atoms: N_9  and  N_18
    6  A    between atoms: C_10  and  N_37
    7  A    between atoms: C_16  and  C_25
    8  A    between atoms: N_18  and  O_32
    9  A    between atoms: C_27  and  C_30
                            x       y       z     vdW  Elec       q    Type
                         _______ _______ _______ _____ _____    ______ ____

>  <TORSDO>
F 9

$$$$
=
 OpenBabel11052411403D

 43 48  0  0  1  0  0  0  0  0999 V2000
  161.7030  207.3790  150.3640 C   0  0  0  0  0  3  0  0  0  0  0  0
  161.8980  209.0920  148.7150 N   0  0  0  0  0  0  0  0  0  0  0  0
  161.7360  209.7130  151.0190 C   0  0  0  0  0  0  0  0  0  0  0  0
  161.6600  208.3570  151.3580 C   0  0  0  0  0  3  0  0  0  0  0  0
  161.8590  210.0660  149.6670 C   0  0  0  0  0  0  0  0  0  0  0  0
  161.8260  207.7680  149.0270 C   0  0  0  0  0  0  0  0  0  0  0  0
  161.4720  212.6560  147.1880 C   0  0  2  0  0  3  0  0  0  0  0  0
  162.9130  212.1900  147.1560 C   0  0  0  0  0  2  0  0  0  0  0  0
  163.2450  211.8540  148.5970 C   0  0  0  0  0  2  0  0  0  0  0  0
  160.8160  211.8450  148.2850 C   0  0  0  0  0  2  0  0  0  0  0  0
  161.9220  211.5120  149.2720 C   0  0  1  0  0  3  0  0  0  0  0  0
  160.7950  212.3960  145.8870 C   0  0  0  0  0  3  0  0  0  0  0  0
  161.1610  213.0310  144.8200 N   0  0  0  0  0  0  0  0  0  0  0  0
  160.5430  212.8450  143.5430 C   0  0  0  0  0  0  0  0  0  0  0  0
  159.3640  212.4270  141.0300 C   0  0  0  0  0  0  0  0  0  0  0  0
  158.7720  212.2570  139.6630 C   0  0  0  0  0  2  0  0  0  0  0  0
  159.3920  213.5620  143.1690 C   0  0  0  0  0  3  0  0  0  0  0  0
  159.0800  210.9300  139.1290 N   0  0  0  0  0  2  0  0  0  0  0  0
  161.0990  211.9220  142.6500 C   0  0  0  0  0  3  0  0  0  0  0  0
  161.1080  210.6760  140.4740 C   0  0  0  0  0  2  0  0  0  0  0  0
  160.5330  210.7900  139.0650 C   0  0  0  0  0  2  0  0  0  0  0  0
  160.5290  211.7210  141.3890 C   0  0  0  0  0  0  0  0  0  0  0  0
  158.8090  213.3570  141.9140 C   0  0  0  0  0  3  0  0  0  0  0  0
  162.2660  205.8110  146.1000 C   0  0  0  0  0  3  0  0  0  0  0  0
  161.7550  204.9030  146.9460 N   0  0  0  0  0  0  0  0  0  0  0  0
  161.5090  205.4750  148.1100 N   0  0  0  0  0  0  0  0  0  0  0  0
  161.9040  206.7540  147.9610 C   0  0  0  0  0  0  0  0  0  0  0  0
  162.3810  207.0070  146.7200 N   0  0  0  0  0  0  0  0  0  0  0  0
  161.4050  203.5850  146.6290 C   0  0  0  0  0  0  0  0  0  0  0  0
  160.7380  201.0680  146.0610 C   0  0  0  0  0  1  0  0  0  0  0  0
  161.1030  202.4480  146.3680 C   0  0  0  0  0  0  0  0  0  0  0  0
  161.6820  210.7080  152.0000 O   0  0  0  0  0  0  0  0  0  0  0  0
  160.8890  210.5730  153.1190 N   0  0  0  0  0  2  0  0  0  0  0  0
  160.4950  211.8640  153.4980 N   0  0  0  0  0  2  0  0  0  0  0  0
  155.4730  214.0850  150.8540 C   0  0  0  0  0  2  0  0  0  0  0  0
  159.7090  212.3610  152.4480 N   0  0  0  0  0  2  0  0  0  0  0  0
  157.0320  213.1740  149.3140 C   0  0  0  0  0  2  0  0  0  0  0  0
  158.2100  213.4100  153.8870 O   0  0  0  0  0  0  0  0  0  0  0  0
  157.7450  213.6190  151.6070 N   0  0  0  0  0  0  0  0  0  0  0  0
  158.5440  213.1450  152.7000 C   0  0  0  0  0  0  0  0  0  0  0  0
  156.5690  214.4530  151.8530 C   0  0  0  0  0  2  0  0  0  0  0  0
  158.2180  213.4660  150.2360 C   0  0  0  0  0  2  0  0  0  0  0  0
  155.9940  214.1900  149.4930 N   0  0  0  0  0  2  0  0  0  0  0  0
  1  4  1  0  0  0  0
  2  6  1  0  0  0  0
  2  5  2  0  0  0  0
  3  4  2  0  0  0  0
  3 32  1  0  0  0  0
  5  3  1  0  0  0  0
  6  1  2  0  0  0  0
  7 12  1  6  0  0  0
  7 10  1  0  0  0  0
  8  7  1  0  0  0  0
  8  9  1  0  0  0  0
  9 11  1  0  0  0  0
 10 11  1  0  0  0  0
 11  5  1  6  0  0  0
 13 12  2  0  0  0  0
 14 13  1  0  0  0  0
 15 22  2  0  0  0  0
 15 23  1  0  0  0  0
 16 15  1  0  0  0  0
 17 14  1  0  0  0  0
 18 16  1  0  0  0  0
 19 14  2  0  0  0  0
 20 22  1  0  0  0  0
 21 18  1  0  0  0  0
 21 20  1  0  0  0  0
 22 19  1  0  0  0  0
 23 17  2  0  0  0  0
 24 28  2  0  0  0  0
 24 25  1  0  0  0  0
 25 26  1  0  0  0  0
 27 26  2  0  0  0  0
 27  6  1  0  0  0  0
 28 27  1  0  0  0  0
 29 25  1  0  0  0  0
 30 31  1  0  0  0  0
 31 29  3  0  0  0  0
 32 33  1  0  0  0  0
 33 34  1  0  0  0  0
 35 41  1  0  0  0  0
 36 40  1  0  0  0  0
 36 34  1  0  0  0  0
 37 43  1  0  0  0  0
 37 42  1  0  0  0  0
 39 41  1  0  0  0  0
 39 40  1  0  0  0  0
 40 38  2  0  0  0  0
 42 39  1  0  0  0  0
 43 35  1  0  0  0  0
M  END
>  <MODEL>
2

>  <REMARK>
 VINA RESULT:      -7.4      2.557      8.040
  Name = 
  9 active torsions:
  status: ('A' for Active; 'I' for Inactive)
    1  A    between atoms: C_3  and  C_21
    2  A    between atoms: C_4  and  O_32
    3  A    between atoms: N_7  and  C_8
    4  A    between atoms: N_9  and  N_12
    5  A    between atoms: N_9  and  N_18
    6  A    between atoms: C_10  and  N_37
    7  A    between atoms: C_16  and  C_25
    8  A    between atoms: N_18  and  O_32
    9  A    between atoms: C_27  and  C_30
                            x       y       z     vdW  Elec       q    Type
                         _______ _______ _______ _____ _____    ______ ____

>  <TORSDO>
F 9

$$$$
=
 OpenBabel11052411403D

 43 48  0  0  1  0  0  0  0  0999 V2000
  162.0000  207.2510  150.2490 C   0  0  0  0  0  3  0  0  0  0  0  0
  161.9260  209.0290  148.6600 N   0  0  0  0  0  0  0  0  0  0  0  0
  162.1040  209.5580  150.9860 C   0  0  0  0  0  0  0  0  0  0  0  0
  162.0950  208.1890  151.2780 C   0  0  0  0  0  3  0  0  0  0  0  0
  162.0190  209.9650  149.6460 C   0  0  0  0  0  0  0  0  0  0  0  0
  161.9170  207.6930  148.9250 C   0  0  0  0  0  0  0  0  0  0  0  0
  161.4740  212.6230  147.2710 C   0  0  2  0  0  3  0  0  0  0  0  0
  162.9350  212.2300  147.2050 C   0  0  0  0  0  2  0  0  0  0  0  0
  163.3020  211.8580  148.6290 C   0  0  0  0  0  2  0  0  0  0  0  0
  160.8730  211.7400  148.3440 C   0  0  0  0  0  2  0  0  0  0  0  0
  162.0070  211.4260  149.3050 C   0  0  1  0  0  3  0  0  0  0  0  0
  160.7930  212.3780  145.9700 C   0  0  0  0  0  3  0  0  0  0  0  0
  161.1770  213.0040  144.9030 N   0  0  0  0  0  0  0  0  0  0  0  0
  160.5560  212.8310  143.6250 C   0  0  0  0  0  0  0  0  0  0  0  0
  159.3750  212.4420  141.1090 C   0  0  0  0  0  0  0  0  0  0  0  0
  158.7790  212.2890  139.7410 C   0  0  0  0  0  2  0  0  0  0  0  0
  159.3820  213.5230  143.2750 C   0  0  0  0  0  3  0  0  0  0  0  0
  159.1240  210.9860  139.1710 N   0  0  0  0  0  2  0  0  0  0  0  0
  161.1340  211.9480  142.7050 C   0  0  0  0  0  3  0  0  0  0  0  0
  161.1660  210.7600  140.4980 C   0  0  0  0  0  2  0  0  0  0  0  0
  160.5790  210.8920  139.0950 C   0  0  0  0  0  2  0  0  0  0  0  0
  160.5630  211.7620  141.4420 C   0  0  0  0  0  0  0  0  0  0  0  0
  158.7970  213.3320  142.0190 C   0  0  0  0  0  3  0  0  0  0  0  0
  161.8780  205.8700  145.8810 C   0  0  0  0  0  3  0  0  0  0  0  0
  161.6280  204.8970  146.7710 N   0  0  0  0  0  0  0  0  0  0  0  0
  161.5890  205.4110  147.9860 N   0  0  0  0  0  0  0  0  0  0  0  0
  161.8460  206.7230  147.8200 C   0  0  0  0  0  0  0  0  0  0  0  0
  162.0300  207.0530  146.5200 N   0  0  0  0  0  0  0  0  0  0  0  0
  161.3200  203.5650  146.4700 C   0  0  0  0  0  0  0  0  0  0  0  0
  160.7110  201.0400  145.8720 C   0  0  0  0  0  1  0  0  0  0  0  0
  161.0480  202.4220  146.2030 C   0  0  0  0  0  0  0  0  0  0  0  0
  162.1870  210.5130  152.0040 O   0  0  0  0  0  0  0  0  0  0  0  0
  161.2430  210.5810  153.0060 N   0  0  0  0  0  2  0  0  0  0  0  0
  160.2860  211.5210  152.6020 N   0  0  0  0  0  2  0  0  0  0  0  0
  155.4920  213.6830  155.6830 C   0  0  0  0  0  2  0  0  0  0  0  0
  159.2980  211.5340  153.5990 N   0  0  0  0  0  2  0  0  0  0  0  0
  156.7680  212.0970  156.9040 C   0  0  0  0  0  2  0  0  0  0  0  0
  157.9170  212.9760  152.4020 O   0  0  0  0  0  0  0  0  0  0  0  0
  157.1230  212.3130  154.4970 N   0  0  0  0  0  0  0  0  0  0  0  0
  158.1030  212.3000  153.4500 C   0  0  0  0  0  0  0  0  0  0  0  0
  155.8790  213.0660  154.3410 C   0  0  0  0  0  2  0  0  0  0  0  0
  157.2500  211.4020  155.6290 C   0  0  0  0  0  2  0  0  0  0  0  0
  155.4230  212.6400  156.7030 N   0  0  0  0  0  2  0  0  0  0  0  0
  1  4  1  0  0  0  0
  2  6  1  0  0  0  0
  2  5  2  0  0  0  0
  3  4  2  0  0  0  0
  3 32  1  0  0  0  0
  5  3  1  0  0  0  0
  6  1  2  0  0  0  0
  7 12  1  6  0  0  0
  7 10  1  0  0  0  0
  8  7  1  0  0  0  0
  8  9  1  0  0  0  0
  9 11  1  0  0  0  0
 10 11  1  0  0  0  0
 11  5  1  6  0  0  0
 13 12  2  0  0  0  0
 14 13  1  0  0  0  0
 15 22  2  0  0  0  0
 15 23  1  0  0  0  0
 16 15  1  0  0  0  0
 17 14  1  0  0  0  0
 18 16  1  0  0  0  0
 19 14  2  0  0  0  0
 20 22  1  0  0  0  0
 21 18  1  0  0  0  0
 21 20  1  0  0  0  0
 22 19  1  0  0  0  0
 23 17  2  0  0  0  0
 24 28  2  0  0  0  0
 24 25  1  0  0  0  0
 25 26  1  0  0  0  0
 27 26  2  0  0  0  0
 27  6  1  0  0  0  0
 28 27  1  0  0  0  0
 29 25  1  0  0  0  0
 30 31  1  0  0  0  0
 31 29  3  0  0  0  0
 32 33  1  0  0  0  0
 34 33  1  0  0  0  0
 34 36  1  0  0  0  0
 35 43  1  0  0  0  0
 38 40  2  0  0  0  0
 39 42  1  0  0  0  0
 40 36  1  0  0  0  0
 40 39  1  0  0  0  0
 41 39  1  0  0  0  0
 41 35  1  0  0  0  0
 42 37  1  0  0  0  0
 43 37  1  0  0  0  0
M  END
>  <MODEL>
3

>  <REMARK>
 VINA RESULT:      -7.3      2.507      7.681
  Name = 
  9 active torsions:
  status: ('A' for Active; 'I' for Inactive)
    1  A    between atoms: C_3  and  C_21
    2  A    between atoms: C_4  and  O_32
    3  A    between atoms: N_7  and  C_8
    4  A    between atoms: N_9  and  N_12
    5  A    between atoms: N_9  and  N_18
    6  A    between atoms: C_10  and  N_37
    7  A    between atoms: C_16  and  C_25
    8  A    between atoms: N_18  and  O_32
    9  A    between atoms: C_27  and  C_30
                            x       y       z     vdW  Elec       q    Type
                         _______ _______ _______ _____ _____    ______ ____

>  <TORSDO>
F 9

$$$$
=
 OpenBabel11052411403D

 43 48  0  0  1  0  0  0  0  0999 V2000
  161.2950  207.9680  150.7000 C   0  0  0  0  0  3  0  0  0  0  0  0
  161.8110  209.4460  148.9000 N   0  0  0  0  0  0  0  0  0  0  0  0
  161.3700  210.3640  151.0650 C   0  0  0  0  0  0  0  0  0  0  0  0
  161.1720  209.0660  151.5520 C   0  0  0  0  0  3  0  0  0  0  0  0
  161.6970  210.5360  149.7110 C   0  0  0  0  0  0  0  0  0  0  0  0
  161.6220  208.1770  149.3570 C   0  0  0  0  0  0  0  0  0  0  0  0
  161.5920  212.8440  146.9430 C   0  0  2  0  0  3  0  0  0  0  0  0
  162.9860  212.2560  147.0090 C   0  0  0  0  0  2  0  0  0  0  0  0
  163.2580  212.0630  148.4880 C   0  0  0  0  0  2  0  0  0  0  0  0
  160.8440  212.2240  148.1040 C   0  0  0  0  0  2  0  0  0  0  0  0
  161.8970  211.9150  149.1560 C   0  0  1  0  0  3  0  0  0  0  0  0
  160.9220  212.4940  145.6600 C   0  0  0  0  0  3  0  0  0  0  0  0
  161.3840  212.9430  144.5370 N   0  0  0  0  0  0  0  0  0  0  0  0
  160.7790  212.6620  143.2710 C   0  0  0  0  0  0  0  0  0  0  0  0
  159.6350  212.0630  140.7780 C   0  0  0  0  0  0  0  0  0  0  0  0
  159.0530  211.8010  139.4210 C   0  0  0  0  0  2  0  0  0  0  0  0
  159.5350  213.2100  142.9080 C   0  0  0  0  0  3  0  0  0  0  0  0
  159.5340  210.5260  138.8910 N   0  0  0  0  0  2  0  0  0  0  0  0
  161.4460  211.8160  142.3750 C   0  0  0  0  0  3  0  0  0  0  0  0
  161.5960  210.5650  140.2070 C   0  0  0  0  0  2  0  0  0  0  0  0
  160.9910  210.5870  138.8060 C   0  0  0  0  0  2  0  0  0  0  0  0
  160.8910  211.5280  141.1240 C   0  0  0  0  0  0  0  0  0  0  0  0
  158.9690  212.9150  141.6640 C   0  0  0  0  0  3  0  0  0  0  0  0
  162.2760  205.8610  146.7490 C   0  0  0  0  0  3  0  0  0  0  0  0
  161.7510  205.0570  147.6870 N   0  0  0  0  0  0  0  0  0  0  0  0
  161.4260  205.7710  148.7480 N   0  0  0  0  0  0  0  0  0  0  0  0
  161.7880  207.0330  148.4450 C   0  0  0  0  0  0  0  0  0  0  0  0
  162.3200  207.1340  147.2050 N   0  0  0  0  0  0  0  0  0  0  0  0
  161.4610  203.6960  147.5360 C   0  0  0  0  0  0  0  0  0  0  0  0
  160.8910  201.1040  147.2840 C   0  0  0  0  0  1  0  0  0  0  0  0
  161.2040  202.5240  147.4180 C   0  0  0  0  0  0  0  0  0  0  0  0
  161.2390  211.4780  151.8990 O   0  0  0  0  0  0  0  0  0  0  0  0
  160.0210  212.0940  152.0930 N   0  0  0  0  0  2  0  0  0  0  0  0
  159.9330  212.4040  153.4560 N   0  0  0  0  0  2  0  0  0  0  0  0
  161.5580  207.9290  157.2610 C   0  0  0  0  0  2  0  0  0  0  0  0
  159.8020  211.1820  154.1320 N   0  0  0  0  0  2  0  0  0  0  0  0
  159.9220  207.2760  155.6710 C   0  0  0  0  0  2  0  0  0  0  0  0
  161.2870  211.8000  155.8150 O   0  0  0  0  0  0  0  0  0  0  0  0
  160.3880  209.6510  155.9920 N   0  0  0  0  0  0  0  0  0  0  0  0
  160.5220  210.9200  155.3360 C   0  0  0  0  0  0  0  0  0  0  0  0
  161.0930  209.3840  157.2450 C   0  0  0  0  0  2  0  0  0  0  0  0
  159.3770  208.7000  155.5430 C   0  0  0  0  0  2  0  0  0  0  0  0
  160.4180  207.0460  157.0290 N   0  0  0  0  0  2  0  0  0  0  0  0
  1  4  1  0  0  0  0
  2  6  1  0  0  0  0
  2  5  2  0  0  0  0
  3  4  2  0  0  0  0
  3 32  1  0  0  0  0
  5  3  1  0  0  0  0
  6  1  2  0  0  0  0
  7 12  1  6  0  0  0
  7  8  1  0  0  0  0
  7 10  1  0  0  0  0
  8  9  1  0  0  0  0
  9 11  1  0  0  0  0
 10 11  1  0  0  0  0
 11  5  1  6  0  0  0
 13 12  2  0  0  0  0
 14 13  1  0  0  0  0
 15 22  2  0  0  0  0
 15 23  1  0  0  0  0
 16 15  1  0  0  0  0
 17 14  1  0  0  0  0
 18 16  1  0  0  0  0
 19 14  2  0  0  0  0
 20 22  1  0  0  0  0
 21 18  1  0  0  0  0
 21 20  1  0  0  0  0
 22 19  1  0  0  0  0
 23 17  2  0  0  0  0
 24 28  2  0  0  0  0
 24 25  1  0  0  0  0
 25 26  1  0  0  0  0
 27 26  2  0  0  0  0
 27  6  1  0  0  0  0
 28 27  1  0  0  0  0
 29 25  1  0  0  0  0
 30 31  1  0  0  0  0
 31 29  3  0  0  0  0
 32 33  1  0  0  0  0
 33 34  1  0  0  0  0
 34 36  1  0  0  0  0
 36 40  1  0  0  0  0
 37 43  1  0  0  0  0
 39 41  1  0  0  0  0
 40 38  2  0  0  0  0
 40 39  1  0  0  0  0
 41 35  1  0  0  0  0
 42 37  1  0  0  0  0
 42 39  1  0  0  0  0
 43 35  1  0  0  0  0
M  END
>  <MODEL>
4

>  <REMARK>
 VINA RESULT:      -7.3      2.057      7.274
  Name = 
  9 active torsions:
  status: ('A' for Active; 'I' for Inactive)
    1  A    between atoms: C_3  and  C_21
    2  A    between atoms: C_4  and  O_32
    3  A    between atoms: N_7  and  C_8
    4  A    between atoms: N_9  and  N_12
    5  A    between atoms: N_9  and  N_18
    6  A    between atoms: C_10  and  N_37
    7  A    between atoms: C_16  and  C_25
    8  A    between atoms: N_18  and  O_32
    9  A    between atoms: C_27  and  C_30
                            x       y       z     vdW  Elec       q    Type
                         _______ _______ _______ _____ _____    ______ ____

>  <TORSDO>
F 9

$$$$
=
 OpenBabel11052411403D

 43 48  0  0  1  0  0  0  0  0999 V2000
  159.4800  213.7780  151.0970 C   0  0  0  0  0  3  0  0  0  0  0  0
  160.7620  211.7670  151.0390 N   0  0  0  0  0  0  0  0  0  0  0  0
  160.0180  212.6070  153.1510 C   0  0  0  0  0  0  0  0  0  0  0  0
  159.4040  213.6760  152.4870 C   0  0  0  0  0  3  0  0  0  0  0  0
  160.7020  211.6440  152.3950 C   0  0  0  0  0  0  0  0  0  0  0  0
  160.1710  212.8000  150.3760 C   0  0  0  0  0  0  0  0  0  0  0  0
  162.0440  208.2980  152.3180 C   0  0  2  0  0  3  0  0  0  0  0  0
  160.6040  208.2140  152.7810 C   0  0  0  0  0  2  0  0  0  0  0  0
  160.3840  209.4730  153.5980 C   0  0  0  0  0  2  0  0  0  0  0  0
  162.3110  209.7750  152.1170 C   0  0  0  0  0  2  0  0  0  0  0  0
  161.3850  210.4980  153.0800 C   0  0  1  0  0  3  0  0  0  0  0  0
  162.2400  207.5650  151.0370 C   0  0  0  0  0  3  0  0  0  0  0  0
  161.2180  207.1590  150.3530 N   0  0  0  0  0  0  0  0  0  0  0  0
  161.3330  206.4340  149.1250 C   0  0  0  0  0  0  0  0  0  0  0  0
  161.5310  204.9610  146.7430 C   0  0  0  0  0  0  0  0  0  0  0  0
  161.7050  204.1690  145.4820 C   0  0  0  0  0  2  0  0  0  0  0  0
  161.6430  207.0780  147.9130 C   0  0  0  0  0  3  0  0  0  0  0  0
  160.9250  202.9320  145.5380 N   0  0  0  0  0  2  0  0  0  0  0  0
  161.1260  205.0490  149.1350 C   0  0  0  0  0  3  0  0  0  0  0  0
  160.9500  202.8300  147.9820 C   0  0  0  0  0  2  0  0  0  0  0  0
  161.3850  202.1530  146.6840 C   0  0  0  0  0  2  0  0  0  0  0  0
  161.2410  204.3050  147.9560 C   0  0  0  0  0  0  0  0  0  0  0  0
  161.7470  206.3420  146.7280 C   0  0  0  0  0  3  0  0  0  0  0  0
  159.7090  212.7770  146.8580 C   0  0  0  0  0  3  0  0  0  0  0  0
  160.9890  213.1720  146.9500 N   0  0  0  0  0  0  0  0  0  0  0  0
  161.3440  213.2210  148.2210 N   0  0  0  0  0  0  0  0  0  0  0  0
  160.2390  212.8680  148.9070 C   0  0  0  0  0  0  0  0  0  0  0  0
  159.1950  212.5800  148.0940 N   0  0  0  0  0  0  0  0  0  0  0  0
  161.8680  213.3750  145.8810 C   0  0  0  0  0  0  0  0  0  0  0  0
  163.5190  213.7440  143.8210 C   0  0  0  0  0  1  0  0  0  0  0  0
  162.6170  213.5450  144.9520 C   0  0  0  0  0  0  0  0  0  0  0  0
  159.9640  212.4940  154.5430 O   0  0  0  0  0  0  0  0  0  0  0  0
  159.4450  213.5020  155.3280 N   0  0  0  0  0  2  0  0  0  0  0  0
  159.8520  213.2450  156.6440 N   0  0  0  0  0  2  0  0  0  0  0  0
  162.1170  207.5890  156.5030 C   0  0  0  0  0  2  0  0  0  0  0  0
  159.8360  211.8510  156.7980 N   0  0  0  0  0  2  0  0  0  0  0  0
  159.7450  207.6610  156.5110 C   0  0  0  0  0  2  0  0  0  0  0  0
  162.1550  211.7050  156.9470 O   0  0  0  0  0  0  0  0  0  0  0  0
  161.0000  209.6790  157.0750 N   0  0  0  0  0  0  0  0  0  0  0  0
  161.0450  211.1070  156.9450 C   0  0  0  0  0  0  0  0  0  0  0  0
  162.2300  208.9100  157.2610 C   0  0  0  0  0  2  0  0  0  0  0  0
  159.7190  209.0020  157.2480 C   0  0  0  0  0  2  0  0  0  0  0  0
  160.9110  206.8810  156.9260 N   0  0  0  0  0  2  0  0  0  0  0  0
  1  4  1  0  0  0  0
  2  5  2  0  0  0  0
  3 32  1  0  0  0  0
  4  3  2  0  0  0  0
  5  3  1  0  0  0  0
  6  2  1  0  0  0  0
  6  1  2  0  0  0  0
  7 12  1  6  0  0  0
  7  8  1  0  0  0  0
  8  9  1  0  0  0  0
 10  7  1  0  0  0  0
 10 11  1  0  0  0  0
 11  5  1  6  0  0  0
 11  9  1  0  0  0  0
 13 12  2  0  0  0  0
 14 19  1  0  0  0  0
 14 13  1  0  0  0  0
 15 22  1  0  0  0  0
 16 18  1  0  0  0  0
 16 15  1  0  0  0  0
 17 14  2  0  0  0  0
 18 21  1  0  0  0  0
 21 20  1  0  0  0  0
 22 20  1  0  0  0  0
 22 19  2  0  0  0  0
 23 15  2  0  0  0  0
 23 17  1  0  0  0  0
 24 25  1  0  0  0  0
 24 28  2  0  0  0  0
 25 26  1  0  0  0  0
 26 27  2  0  0  0  0
 27  6  1  0  0  0  0
 28 27  1  0  0  0  0
 29 25  1  0  0  0  0
 30 31  1  0  0  0  0
 31 29  3  0  0  0  0
 32 33  1  0  0  0  0
 33 34  1  0  0  0  0
 34 36  1  0  0  0  0
 35 43  1  0  0  0  0
 35 41  1  0  0  0  0
 36 40  1  0  0  0  0
 37 43  1  0  0  0  0
 37 42  1  0  0  0  0
 39 42  1  0  0  0  0
 39 41  1  0  0  0  0
 40 38  2  0  0  0  0
 40 39  1  0  0  0  0
M  END
>  <MODEL>
5

>  <REMARK>
 VINA RESULT:      -7.3      1.562      2.050
  Name = 
  9 active torsions:
  status: ('A' for Active; 'I' for Inactive)
    1  A    between atoms: C_3  and  C_21
    2  A    between atoms: C_4  and  O_32
    3  A    between atoms: N_7  and  C_8
    4  A    between atoms: N_9  and  N_12
    5  A    between atoms: N_9  and  N_18
    6  A    between atoms: C_10  and  N_37
    7  A    between atoms: C_16  and  C_25
    8  A    between atoms: N_18  and  O_32
    9  A    between atoms: C_27  and  C_30
                            x       y       z     vdW  Elec       q    Type
                         _______ _______ _______ _____ _____    ______ ____

>  <TORSDO>
F 9

$$$$
=
 OpenBabel11052411403D

 43 48  0  0  1  0  0  0  0  0999 V2000
  161.0430  211.3740  152.4560 C   0  0  0  0  0  3  0  0  0  0  0  0
  161.6120  209.0630  152.3010 N   0  0  0  0  0  0  0  0  0  0  0  0
  160.9410  209.9520  154.4180 C   0  0  0  0  0  0  0  0  0  0  0  0
  160.7820  211.2070  153.8170 C   0  0  0  0  0  3  0  0  0  0  0  0
  161.3630  208.8720  153.6270 C   0  0  0  0  0  0  0  0  0  0  0  0
  161.4620  210.2760  151.7000 C   0  0  0  0  0  0  0  0  0  0  0  0
  161.5470  205.2840  153.3240 C   0  0  2  0  0  3  0  0  0  0  0  0
  160.1180  205.6520  153.6650 C   0  0  0  0  0  2  0  0  0  0  0  0
  160.2330  206.8540  154.5820 C   0  0  0  0  0  2  0  0  0  0  0  0
  162.2980  206.5980  153.2900 C   0  0  0  0  0  2  0  0  0  0  0  0
  161.5610  207.5210  154.2470 C   0  0  1  0  0  3  0  0  0  0  0  0
  161.6270  204.6160  151.9960 C   0  0  0  0  0  3  0  0  0  0  0  0
  161.1390  205.1920  150.9440 N   0  0  0  0  0  0  0  0  0  0  0  0
  161.1650  204.6000  149.6410 C   0  0  0  0  0  0  0  0  0  0  0  0
  161.2320  203.4960  147.0610 C   0  0  0  0  0  0  0  0  0  0  0  0
  161.1990  202.9040  145.6840 C   0  0  0  0  0  2  0  0  0  0  0  0
  161.1300  203.2050  149.4630 C   0  0  0  0  0  3  0  0  0  0  0  0
  161.8330  203.8040  144.7200 N   0  0  0  0  0  2  0  0  0  0  0  0
  161.2290  205.4360  148.5190 C   0  0  0  0  0  3  0  0  0  0  0  0
  161.3810  205.8100  146.0450 C   0  0  0  0  0  2  0  0  0  0  0  0
  161.1090  205.0730  144.7360 C   0  0  0  0  0  2  0  0  0  0  0  0
  161.2450  204.8940  147.2300 C   0  0  0  0  0  0  0  0  0  0  0  0
  161.1590  202.6560  148.1770 C   0  0  0  0  0  3  0  0  0  0  0  0
  162.1310  209.9710  148.2280 C   0  0  0  0  0  3  0  0  0  0  0  0
  161.9680  211.2990  148.3470 N   0  0  0  0  0  0  0  0  0  0  0  0
  161.7210  211.6010  149.6080 N   0  0  0  0  0  0  0  0  0  0  0  0
  161.7140  210.4200  150.2560 C   0  0  0  0  0  0  0  0  0  0  0  0
  161.9690  209.3760  149.4320 N   0  0  0  0  0  0  0  0  0  0  0  0
  162.1560  212.2460  147.3340 C   0  0  0  0  0  0  0  0  0  0  0  0
  162.4780  214.0530  145.4010 C   0  0  0  0  0  1  0  0  0  0  0  0
  162.3060  213.0630  146.4620 C   0  0  0  0  0  0  0  0  0  0  0  0
  160.6960  209.7670  155.7810 O   0  0  0  0  0  0  0  0  0  0  0  0
  161.6450  210.0780  156.7320 N   0  0  0  0  0  2  0  0  0  0  0  0
  161.3000  211.3310  157.2570 N   0  0  0  0  0  2  0  0  0  0  0  0
  156.1070  214.4530  156.6060 C   0  0  0  0  0  2  0  0  0  0  0  0
  159.9360  211.5130  156.9830 N   0  0  0  0  0  2  0  0  0  0  0  0
  155.7810  212.1210  156.9060 C   0  0  0  0  0  2  0  0  0  0  0  0
  160.1920  213.7820  156.5290 O   0  0  0  0  0  0  0  0  0  0  0  0
  158.0140  212.9520  156.3690 N   0  0  0  0  0  0  0  0  0  0  0  0
  159.4170  212.7910  156.6190 C   0  0  0  0  0  0  0  0  0  0  0  0
  157.4760  214.2500  155.9600 C   0  0  0  0  0  2  0  0  0  0  0  0
  157.1450  211.7830  156.3000 C   0  0  0  0  0  2  0  0  0  0  0  0
  155.2370  213.3260  156.2790 N   0  0  0  0  0  2  0  0  0  0  0  0
  1  4  1  0  0  0  0
  2  5  2  0  0  0  0
  3 32  1  0  0  0  0
  4  3  2  0  0  0  0
  5  3  1  0  0  0  0
  6  2  1  0  0  0  0
  6  1  2  0  0  0  0
  7 12  1  6  0  0  0
  7  8  1  0  0  0  0
  8  9  1  0  0  0  0
 10  7  1  0  0  0  0
 10 11  1  0  0  0  0
 11  5  1  6  0  0  0
 11  9  1  0  0  0  0
 13 12  2  0  0  0  0
 14 13  1  0  0  0  0
 15 22  2  0  0  0  0
 15 23  1  0  0  0  0
 16 15  1  0  0  0  0
 17 14  1  0  0  0  0
 18 21  1  0  0  0  0
 18 16  1  0  0  0  0
 19 14  2  0  0  0  0
 20 22  1  0  0  0  0
 21 20  1  0  0  0  0
 22 19  1  0  0  0  0
 23 17  2  0  0  0  0
 24 25  1  0  0  0  0
 24 28  2  0  0  0  0
 25 26  1  0  0  0  0
 26 27  2  0  0  0  0
 27  6  1  0  0  0  0
 28 27  1  0  0  0  0
 29 25  1  0  0  0  0
 30 31  1  0  0  0  0
 31 29  3  0  0  0  0
 32 33  1  0  0  0  0
 33 34  1  0  0  0  0
 36 34  1  0  0  0  0
 38 40  2  0  0  0  0
 39 40  1  0  0  0  0
 40 36  1  0  0  0  0
 41 39  1  0  0  0  0
 41 35  1  0  0  0  0
 42 39  1  0  0  0  0
 42 37  1  0  0  0  0
 43 35  1  0  0  0  0
 43 37  1  0  0  0  0
M  END
>  <MODEL>
6

>  <REMARK>
 VINA RESULT:      -7.2      2.321      4.167
  Name = 
  9 active torsions:
  status: ('A' for Active; 'I' for Inactive)
    1  A    between atoms: C_3  and  C_21
    2  A    between atoms: C_4  and  O_32
    3  A    between atoms: N_7  and  C_8
    4  A    between atoms: N_9  and  N_12
    5  A    between atoms: N_9  and  N_18
    6  A    between atoms: C_10  and  N_37
    7  A    between atoms: C_16  and  C_25
    8  A    between atoms: N_18  and  O_32
    9  A    between atoms: C_27  and  C_30
                            x       y       z     vdW  Elec       q    Type
                         _______ _______ _______ _____ _____    ______ ____

>  <TORSDO>
F 9

$$$$
=
 OpenBabel11052411403D

 43 48  0  0  1  0  0  0  0  0999 V2000
  160.3260  212.7790  150.7420 C   0  0  0  0  0  3  0  0  0  0  0  0
  161.7010  210.8330  150.6440 N   0  0  0  0  0  0  0  0  0  0  0  0
  160.5430  211.3330  152.6760 C   0  0  0  0  0  0  0  0  0  0  0  0
  160.0050  212.4730  152.0650 C   0  0  0  0  0  3  0  0  0  0  0  0
  161.4030  210.5100  151.9340 C   0  0  0  0  0  0  0  0  0  0  0  0
  161.1860  211.9360  150.0330 C   0  0  0  0  0  0  0  0  0  0  0  0
  162.0030  206.9550  151.9510 C   0  0  2  0  0  3  0  0  0  0  0  0
  160.7510  207.2210  152.7610 C   0  0  0  0  0  2  0  0  0  0  0  0
  161.0050  208.5520  153.4410 C   0  0  0  0  0  2  0  0  0  0  0  0
  162.4860  208.3190  151.5060 C   0  0  0  0  0  2  0  0  0  0  0  0
  162.0100  209.2940  152.5690 C   0  0  1  0  0  3  0  0  0  0  0  0
  161.7030  206.1080  150.7630 C   0  0  0  0  0  3  0  0  0  0  0  0
  161.9880  206.5270  149.5720 N   0  0  0  0  0  0  0  0  0  0  0  0
  161.7100  205.7750  148.3860 C   0  0  0  0  0  0  0  0  0  0  0  0
  161.1470  204.2500  146.0980 C   0  0  0  0  0  0  0  0  0  0  0  0
  160.9140  203.4280  144.8650 C   0  0  0  0  0  2  0  0  0  0  0  0
  161.6710  206.3830  147.1180 C   0  0  0  0  0  3  0  0  0  0  0  0
  160.1440  202.2260  145.1860 N   0  0  0  0  0  2  0  0  0  0  0  0
  161.4700  204.4000  148.4980 C   0  0  0  0  0  3  0  0  0  0  0  0
  160.8860  202.1680  147.5160 C   0  0  0  0  0  2  0  0  0  0  0  0
  160.8960  201.4500  146.1690 C   0  0  0  0  0  2  0  0  0  0  0  0
  161.2060  203.6300  147.3610 C   0  0  0  0  0  0  0  0  0  0  0  0
  161.3950  205.6210  145.9780 C   0  0  0  0  0  3  0  0  0  0  0  0
  162.6010  212.6290  146.8540 C   0  0  0  0  0  3  0  0  0  0  0  0
  161.2940  212.5740  146.5510 N   0  0  0  0  0  0  0  0  0  0  0  0
  160.5980  212.3350  147.6470 N   0  0  0  0  0  0  0  0  0  0  0  0
  161.5160  212.2210  148.6270 C   0  0  0  0  0  0  0  0  0  0  0  0
  162.7800  212.4010  148.1750 N   0  0  0  0  0  0  0  0  0  0  0  0
  160.7240  212.8560  145.3040 C   0  0  0  0  0  0  0  0  0  0  0  0
  159.6120  213.3660  142.9370 C   0  0  0  0  0  1  0  0  0  0  0  0
  160.2240  213.0900  144.2330 C   0  0  0  0  0  0  0  0  0  0  0  0
  160.2430  211.0160  154.0040 O   0  0  0  0  0  0  0  0  0  0  0  0
  161.1240  211.2950  155.0280 N   0  0  0  0  0  2  0  0  0  0  0  0
  160.3850  211.9160  156.0440 N   0  0  0  0  0  2  0  0  0  0  0  0
  154.8490  212.9940  153.7340 C   0  0  0  0  0  2  0  0  0  0  0  0
  159.3820  212.6600  155.4050 N   0  0  0  0  0  2  0  0  0  0  0  0
  156.5250  214.4530  152.9010 C   0  0  0  0  0  2  0  0  0  0  0  0
  157.6650  211.3670  156.2970 O   0  0  0  0  0  0  0  0  0  0  0  0
  157.0000  213.0990  154.8780 N   0  0  0  0  0  0  0  0  0  0  0  0
  158.0020  212.3350  155.5630 C   0  0  0  0  0  0  0  0  0  0  0  0
  155.5810  212.7970  155.0600 C   0  0  0  0  0  2  0  0  0  0  0  0
  157.3690  214.3210  154.1710 C   0  0  0  0  0  2  0  0  0  0  0  0
  155.1030  214.3400  153.2280 N   0  0  0  0  0  2  0  0  0  0  0  0
  1  4  1  0  0  0  0
  2  5  2  0  0  0  0
  3 32  1  0  0  0  0
  4  3  2  0  0  0  0
  5  3  1  0  0  0  0
  6  2  1  0  0  0  0
  6  1  2  0  0  0  0
  7 12  1  6  0  0  0
  7  8  1  0  0  0  0
  8  9  1  0  0  0  0
 10  7  1  0  0  0  0
 10 11  1  0  0  0  0
 11  5  1  6  0  0  0
 11  9  1  0  0  0  0
 13 12  2  0  0  0  0
 14 19  1  0  0  0  0
 14 13  1  0  0  0  0
 15 22  1  0  0  0  0
 16 18  1  0  0  0  0
 16 15  1  0  0  0  0
 17 14  2  0  0  0  0
 18 21  1  0  0  0  0
 21 20  1  0  0  0  0
 22 20  1  0  0  0  0
 22 19  2  0  0  0  0
 23 15  2  0  0  0  0
 23 17  1  0  0  0  0
 24 28  2  0  0  0  0
 25 24  1  0  0  0  0
 25 26  1  0  0  0  0
 26 27  2  0  0  0  0
 27  6  1  0  0  0  0
 28 27  1  0  0  0  0
 29 25  1  0  0  0  0
 30 31  1  0  0  0  0
 31 29  3  0  0  0  0
 32 33  1  0  0  0  0
 33 34  1  0  0  0  0
 35 41  1  0  0  0  0
 36 40  1  0  0  0  0
 36 34  1  0  0  0  0
 37 43  1  0  0  0  0
 37 42  1  0  0  0  0
 39 41  1  0  0  0  0
 39 40  1  0  0  0  0
 40 38  2  0  0  0  0
 42 39  1  0  0  0  0
 43 35  1  0  0  0  0
M  END
>  <MODEL>
7

>  <REMARK>
 VINA RESULT:      -7.1      1.838      3.168
  Name = 
  9 active torsions:
  status: ('A' for Active; 'I' for Inactive)
    1  A    between atoms: C_3  and  C_21
    2  A    between atoms: C_4  and  O_32
    3  A    between atoms: N_7  and  C_8
    4  A    between atoms: N_9  and  N_12
    5  A    between atoms: N_9  and  N_18
    6  A    between atoms: C_10  and  N_37
    7  A    between atoms: C_16  and  C_25
    8  A    between atoms: N_18  and  O_32
    9  A    between atoms: C_27  and  C_30
                            x       y       z     vdW  Elec       q    Type
                         _______ _______ _______ _____ _____    ______ ____

>  <TORSDO>
F 9

$$$$
=
 OpenBabel11052411403D

 43 48  0  0  1  0  0  0  0  0999 V2000
  159.1570  213.3430  152.1310 C   0  0  0  0  0  3  0  0  0  0  0  0
  160.0420  211.7230  153.6430 N   0  0  0  0  0  0  0  0  0  0  0  0
  160.7560  211.6910  151.3600 C   0  0  0  0  0  0  0  0  0  0  0  0
  159.9250  212.7890  151.1060 C   0  0  0  0  0  3  0  0  0  0  0  0
  160.8030  211.1640  152.6600 C   0  0  0  0  0  0  0  0  0  0  0  0
  159.2290  212.7920  153.4140 C   0  0  0  0  0  0  0  0  0  0  0  0
  162.0230  207.8830  151.7980 C   0  0  2  0  0  3  0  0  0  0  0  0
  160.8200  207.7120  152.7020 C   0  0  0  0  0  2  0  0  0  0  0  0
  160.8920  208.8760  153.6700 C   0  0  0  0  0  2  0  0  0  0  0  0
  162.2160  209.3790  151.6720 C   0  0  0  0  0  2  0  0  0  0  0  0
  161.6690  209.9770  152.9570 C   0  0  1  0  0  3  0  0  0  0  0  0
  161.7760  207.2860  150.4560 C   0  0  0  0  0  3  0  0  0  0  0  0
  161.8300  206.0030  150.2900 N   0  0  0  0  0  0  0  0  0  0  0  0
  161.6210  205.3650  149.0270 C   0  0  0  0  0  0  0  0  0  0  0  0
  161.1910  204.0610  146.5780 C   0  0  0  0  0  0  0  0  0  0  0  0
  161.0290  203.3560  145.2650 C   0  0  0  0  0  2  0  0  0  0  0  0
  161.6790  206.0830  147.8180 C   0  0  0  0  0  3  0  0  0  0  0  0
  160.2200  202.1480  145.4240 N   0  0  0  0  0  2  0  0  0  0  0  0
  161.3510  203.9910  148.9990 C   0  0  0  0  0  3  0  0  0  0  0  0
  160.8000  201.8680  147.7840 C   0  0  0  0  0  2  0  0  0  0  0  0
  160.8900  201.2720  146.3820 C   0  0  0  0  0  2  0  0  0  0  0  0
  161.1540  203.3300  147.7820 C   0  0  0  0  0  0  0  0  0  0  0  0
  161.4690  205.4310  146.5990 C   0  0  0  0  0  3  0  0  0  0  0  0
  157.9410  214.3360  156.3370 C   0  0  0  0  0  3  0  0  0  0  0  0
  156.8080  214.0170  155.6910 N   0  0  0  0  0  0  0  0  0  0  0  0
  157.1050  213.4040  154.5600 N   0  0  0  0  0  0  0  0  0  0  0  0
  158.4510  213.3770  154.5190 C   0  0  0  0  0  0  0  0  0  0  0  0
  159.0130  213.9460  155.6110 N   0  0  0  0  0  0  0  0  0  0  0  0
  155.5070  214.1780  156.1790 C   0  0  0  0  0  0  0  0  0  0  0  0
  153.0170  214.4530  157.0900 C   0  0  0  0  0  1  0  0  0  0  0  0
  154.3820  214.3050  156.5940 C   0  0  0  0  0  0  0  0  0  0  0  0
  161.5240  211.1150  150.3440 O   0  0  0  0  0  0  0  0  0  0  0  0
  162.0230  211.8680  149.3030 N   0  0  0  0  0  2  0  0  0  0  0  0
  160.9210  212.3840  148.6070 N   0  0  0  0  0  2  0  0  0  0  0  0
  160.9950  212.3600  142.5130 C   0  0  0  0  0  2  0  0  0  0  0  0
  161.3850  212.7210  147.3270 N   0  0  0  0  0  2  0  0  0  0  0  0
  163.0520  213.0350  143.4840 C   0  0  0  0  0  2  0  0  0  0  0  0
  159.3510  212.2190  146.3110 O   0  0  0  0  0  0  0  0  0  0  0  0
  161.0500  212.9420  144.8800 N   0  0  0  0  0  0  0  0  0  0  0  0
  160.5420  212.6150  146.1800 C   0  0  0  0  0  0  0  0  0  0  0  0
  160.1850  212.8700  143.7040 C   0  0  0  0  0  2  0  0  0  0  0  0
  162.3640  213.5630  144.7450 C   0  0  0  0  0  2  0  0  0  0  0  0
  162.1750  213.2000  142.3240 N   0  0  0  0  0  2  0  0  0  0  0  0
  1  6  1  0  0  0  0
  3  5  2  0  0  0  0
  4  3  1  0  0  0  0
  4  1  2  0  0  0  0
  5  2  1  0  0  0  0
  6  2  2  0  0  0  0
  6 27  1  0  0  0  0
  7 12  1  6  0  0  0
  7  8  1  0  0  0  0
  8  9  1  0  0  0  0
 10  7  1  0  0  0  0
 10 11  1  0  0  0  0
 11  5  1  6  0  0  0
 11  9  1  0  0  0  0
 13 12  2  0  0  0  0
 14 13  1  0  0  0  0
 15 23  2  0  0  0  0
 15 22  1  0  0  0  0
 16 18  1  0  0  0  0
 16 15  1  0  0  0  0
 17 14  2  0  0  0  0
 18 21  1  0  0  0  0
 19 14  1  0  0  0  0
 21 20  1  0  0  0  0
 22 20  1  0  0  0  0
 22 19  2  0  0  0  0
 23 17  1  0  0  0  0
 25 29  1  0  0  0  0
 25 24  1  0  0  0  0
 26 25  1  0  0  0  0
 27 26  2  0  0  0  0
 27 28  1  0  0  0  0
 28 24  2  0  0  0  0
 29 31  3  0  0  0  0
 31 30  1  0  0  0  0
 32  3  1  0  0  0  0
 33 32  1  0  0  0  0
 34 33  1  0  0  0  0
 35 41  1  0  0  0  0
 36 34  1  0  0  0  0
 37 42  1  0  0  0  0
 39 40  1  0  0  0  0
 40 38  2  0  0  0  0
 40 36  1  0  0  0  0
 41 39  1  0  0  0  0
 42 39  1  0  0  0  0
 43 35  1  0  0  0  0
 43 37  1  0  0  0  0
M  END
>  <MODEL>
8

>  <REMARK>
 VINA RESULT:      -7.0      2.422      7.856
  Name = 
  9 active torsions:
  status: ('A' for Active; 'I' for Inactive)
    1  A    between atoms: C_3  and  C_21
    2  A    between atoms: C_4  and  O_32
    3  A    between atoms: N_7  and  C_8
    4  A    between atoms: N_9  and  N_12
    5  A    between atoms: N_9  and  N_18
    6  A    between atoms: C_10  and  N_37
    7  A    between atoms: C_16  and  C_25
    8  A    between atoms: N_18  and  O_32
    9  A    between atoms: C_27  and  C_30
                            x       y       z     vdW  Elec       q    Type
                         _______ _______ _______ _____ _____    ______ ____

>  <TORSDO>
F 9

$$$$
=
 OpenBabel11052411403D

 43 48  0  0  1  0  0  0  0  0999 V2000
  159.5010  212.3160  152.8220 C   0  0  0  0  0  3  0  0  0  0  0  0
  159.9990  210.7900  154.5860 N   0  0  0  0  0  0  0  0  0  0  0  0
  160.9060  210.3830  152.4110 C   0  0  0  0  0  0  0  0  0  0  0  0
  160.2700  211.5440  151.9510 C   0  0  0  0  0  3  0  0  0  0  0  0
  160.7560  210.0180  153.7570 C   0  0  0  0  0  0  0  0  0  0  0  0
  159.3740  211.9220  154.1570 C   0  0  0  0  0  0  0  0  0  0  0  0
  161.9570  206.6600  153.2220 C   0  0  2  0  0  3  0  0  0  0  0  0
  160.5270  206.5730  153.7160 C   0  0  0  0  0  2  0  0  0  0  0  0
  160.3800  207.7260  154.6890 C   0  0  0  0  0  2  0  0  0  0  0  0
  162.2790  208.1390  153.1980 C   0  0  0  0  0  2  0  0  0  0  0  0
  161.4090  208.7700  154.2730 C   0  0  1  0  0  3  0  0  0  0  0  0
  162.0880  206.0880  151.8540 C   0  0  0  0  0  3  0  0  0  0  0  0
  161.0360  205.7190  151.1950 N   0  0  0  0  0  0  0  0  0  0  0  0
  161.0900  205.1440  149.8860 C   0  0  0  0  0  0  0  0  0  0  0  0
  161.2070  204.0750  147.2930 C   0  0  0  0  0  0  0  0  0  0  0  0
  161.2000  203.4940  145.9100 C   0  0  0  0  0  2  0  0  0  0  0  0
  161.2080  203.7550  149.6930 C   0  0  0  0  0  3  0  0  0  0  0  0
  161.7000  204.4670  144.9400 N   0  0  0  0  0  2  0  0  0  0  0  0
  161.0270  205.9900  148.7720 C   0  0  0  0  0  3  0  0  0  0  0  0
  161.0630  206.3990  146.2990 C   0  0  0  0  0  2  0  0  0  0  0  0
  160.8390  205.6460  144.9900 C   0  0  0  0  0  2  0  0  0  0  0  0
  161.0660  205.4640  147.4770 C   0  0  0  0  0  0  0  0  0  0  0  0
  161.2610  203.2230  148.4010 C   0  0  0  0  0  3  0  0  0  0  0  0
  158.0760  214.0580  156.6760 C   0  0  0  0  0  3  0  0  0  0  0  0
  156.9470  213.6370  156.0830 N   0  0  0  0  0  0  0  0  0  0  0  0
  157.2470  212.8000  155.1070 N   0  0  0  0  0  0  0  0  0  0  0  0
  158.5930  212.7370  155.1030 C   0  0  0  0  0  0  0  0  0  0  0  0
  159.1510  213.5050  156.0680 N   0  0  0  0  0  0  0  0  0  0  0  0
  155.6420  213.9220  156.5000 C   0  0  0  0  0  0  0  0  0  0  0  0
  153.1430  214.4530  157.2600 C   0  0  0  0  0  1  0  0  0  0  0  0
  154.5130  214.1630  156.8480 C   0  0  0  0  0  0  0  0  0  0  0  0
  161.6700  209.5900  151.5510 O   0  0  0  0  0  0  0  0  0  0  0  0
  161.5570  209.6950  150.1810 N   0  0  0  0  0  2  0  0  0  0  0  0
  162.4270  210.7180  149.7780 N   0  0  0  0  0  2  0  0  0  0  0  0
  158.7880  214.2030  146.3490 C   0  0  0  0  0  2  0  0  0  0  0  0
  161.8960  211.2410  148.5890 N   0  0  0  0  0  2  0  0  0  0  0  0
  159.7230  212.3660  145.1750 C   0  0  0  0  0  2  0  0  0  0  0  0
  161.0710  213.1490  149.6390 O   0  0  0  0  0  0  0  0  0  0  0  0
  160.6520  212.9890  147.3460 N   0  0  0  0  0  0  0  0  0  0  0  0
  161.2060  212.4900  148.5710 C   0  0  0  0  0  0  0  0  0  0  0  0
  159.9730  214.2830  147.3090 C   0  0  0  0  0  2  0  0  0  0  0  0
  160.9540  212.3220  146.0840 C   0  0  0  0  0  2  0  0  0  0  0  0
  159.2450  213.7420  145.0410 N   0  0  0  0  0  2  0  0  0  0  0  0
  1  6  1  0  0  0  0
  3  5  2  0  0  0  0
  4  3  1  0  0  0  0
  4  1  2  0  0  0  0
  5  2  1  0  0  0  0
  6  2  2  0  0  0  0
  6 27  1  0  0  0  0
  7 12  1  6  0  0  0
  7  8  1  0  0  0  0
  8  9  1  0  0  0  0
 10  7  1  0  0  0  0
 10 11  1  0  0  0  0
 11  5  1  6  0  0  0
 11  9  1  0  0  0  0
 13 12  2  0  0  0  0
 14 13  1  0  0  0  0
 15 22  2  0  0  0  0
 15 23  1  0  0  0  0
 16 15  1  0  0  0  0
 17 14  1  0  0  0  0
 18 21  1  0  0  0  0
 18 16  1  0  0  0  0
 19 14  2  0  0  0  0
 20 22  1  0  0  0  0
 21 20  1  0  0  0  0
 22 19  1  0  0  0  0
 23 17  2  0  0  0  0
 25 29  1  0  0  0  0
 25 24  1  0  0  0  0
 26 25  1  0  0  0  0
 27 26  2  0  0  0  0
 27 28  1  0  0  0  0
 28 24  2  0  0  0  0
 29 31  3  0  0  0  0
 31 30  1  0  0  0  0
 32  3  1  0  0  0  0
 33 32  1  0  0  0  0
 34 33  1  0  0  0  0
 35 41  1  0  0  0  0
 36 34  1  0  0  0  0
 37 42  1  0  0  0  0
 39 40  1  0  0  0  0
 40 36  1  0  0  0  0
 40 38  2  0  0  0  0
 41 39  1  0  0  0  0
 42 39  1  0  0  0  0
 43 37  1  0  0  0  0
 43 35  1  0  0  0  0
M  END
>  <MODEL>
9

>  <REMARK>
 VINA RESULT:      -6.9      2.456      7.574
  Name = 
  9 active torsions:
  status: ('A' for Active; 'I' for Inactive)
    1  A    between atoms: C_3  and  C_21
    2  A    between atoms: C_4  and  O_32
    3  A    between atoms: N_7  and  C_8
    4  A    between atoms: N_9  and  N_12
    5  A    between atoms: N_9  and  N_18
    6  A    between atoms: C_10  and  N_37
    7  A    between atoms: C_16  and  C_25
    8  A    between atoms: N_18  and  O_32
    9  A    between atoms: C_27  and  C_30
                            x       y       z     vdW  Elec       q    Type
                         _______ _______ _______ _____ _____    ______ ____

>  <TORSDO>
F 9

$$$$
