=
 OpenBabel11052411123D

 60 65  0  0  1  0  0  0  0  0999 V2000
  160.8910  207.7880  154.1860 C   0  0  0  0  0  0  0  0  0  0  0  0
  160.8520  205.8360  152.9460 N   0  0  0  0  0  0  0  0  0  0  0  0
  161.3830  206.7930  152.2580 C   0  0  0  0  0  0  0  0  0  0  0  0
  161.4380  208.0310  153.0050 C   0  0  0  0  0  0  0  0  0  0  0  0
  161.9590  206.6080  150.9600 N   0  0  0  0  0  2  0  0  0  0  0  0
  160.4490  206.3640  154.2480 C   0  0  0  0  0  2  0  0  0  0  0  0
  161.1000  205.3840  149.0930 C   0  0  0  0  0  0  0  0  0  0  0  0
  161.7970  205.4410  150.1900 N   0  0  0  0  0  0  0  0  0  0  0  0
  161.0100  202.7650  146.3570 C   0  0  0  0  0  3  0  0  0  0  0  0
  160.9740  204.0720  148.4100 C   0  0  0  0  0  0  0  0  0  0  0  0
  160.4780  201.6900  148.4550 C   0  0  0  0  0  3  0  0  0  0  0  0
  160.6260  202.9130  149.1170 C   0  0  0  0  0  3  0  0  0  0  0  0
  161.1560  203.9850  147.0210 C   0  0  0  0  0  3  0  0  0  0  0  0
  160.6700  201.6100  147.0750 C   0  0  0  0  0  0  0  0  0  0  0  0
  159.8870  199.1090  144.2400 C   0  0  0  0  0  2  0  0  0  0  0  0
  161.9770  198.3900  145.4630 C   0  0  0  0  0  2  0  0  0  0  0  0
  160.6440  197.9360  144.8770 C   0  0  0  0  0  2  0  0  0  0  0  0
  160.1590  200.4600  144.9160 C   0  0  0  0  0  2  0  0  0  0  0  0
  161.6960  198.7570  147.8110 O   0  0  0  0  0  1  0  0  0  0  0  0
  160.5180  200.2880  146.3930 C   0  0  1  0  0  3  0  0  0  0  0  0
  161.7720  199.4140  146.5850 C   0  0  2  0  0  3  0  0  0  0  0  0
  161.2030  207.4360  147.6790 C   0  0  0  0  0  1  0  0  0  0  0  0
  160.5360  206.5600  148.5770 O   0  0  0  0  0  0  0  0  0  0  0  0
  160.7690  208.7350  155.2620 C   0  0  0  0  0  0  0  0  0  0  0  0
  160.6730  209.5290  156.1630 C   0  0  0  0  0  0  0  0  0  0  0  0
  160.5620  210.4950  157.2590 C   0  0  0  0  0  2  0  0  0  0  0  0
  159.2800  211.1800  157.1980 N   0  0  0  0  0  2  0  0  0  0  0  0
  160.1920  213.2950  156.7880 O   0  0  0  0  0  0  0  0  0  0  0  0
  159.1630  212.5840  156.9530 C   0  0  0  0  0  0  0  0  0  0  0  0
  157.8030  213.1980  156.8820 C   0  0  2  0  0  3  0  0  0  0  0  0
  156.7880  212.1950  156.4310 C   0  0  0  0  0  0  0  0  0  0  0  0
  155.5790  212.3540  156.7340 O   0  0  0  0  0  1  0  0  0  0  0  0
  157.1750  211.0850  155.6900 O   0  0  0  0  0  0  0  0  0  0  0  0
  157.8090  214.4300  155.9840 C   0  0  0  0  0  2  0  0  0  0  0  0
  158.9700  212.4040  153.9250 O   0  0  0  0  0  1  0  0  0  0  0  0
  158.4200  213.6330  153.5550 C   0  0  2  0  0  3  0  0  0  0  0  0
  157.4380  214.0670  154.5810 C   0  0  0  0  0  0  0  0  0  0  0  0
  156.2010  214.1400  154.1270 C   0  0  0  0  0  3  0  0  0  0  0  0
  157.5830  213.4580  152.2930 C   0  0  1  0  0  3  0  0  0  0  0  0
  156.1370  213.7470  152.6940 C   0  0  0  0  0  2  0  0  0  0  0  0
  158.0440  214.4530  151.2400 C   0  0  0  0  0  2  0  0  0  0  0  0
  158.6700  213.7520  150.1330 N   0  0  0  0  0  1  0  0  0  0  0  0
  162.0380  209.3180  152.5480 C   0  0  0  0  0  2  0  0  0  0  0  0
  161.9070  209.4360  151.1040 N   0  0  0  0  0  2  0  0  0  0  0  0
  161.0990  211.6840  151.5640 C   0  0  0  0  0  1  0  0  0  0  0  0
  162.0770  210.8390  150.7580 C   0  0  2  0  0  3  0  0  0  0  0  0
  161.8040  211.0180  149.2750 C   0  0  0  0  0  2  0  0  0  0  0  0
  161.6550  212.4900  148.9270 C   0  0  0  0  0  2  0  0  0  0  0  0
  162.6930  212.8860  147.4880 S   0  0  0  0  0  0  0  0  0  0  0  0
  158.5620  213.1250  145.3030 F   0  0  0  0  0  0  0  0  0  0  0  0
  161.5080  214.1200  146.8330 C   0  0  1  0  0  3  0  0  0  0  0  0
  161.7360  214.4490  145.3630 C   0  0  2  0  0  3  0  0  0  0  0  0
  160.0970  211.5500  145.7970 F   0  0  0  0  0  0  0  0  0  0  0  0
  159.8800  212.9120  145.6540 C   0  0  0  0  0  0  0  0  0  0  0  0
  160.7910  213.5280  144.5940 C   0  0  2  0  0  3  0  0  0  0  0  0
  160.1570  213.5770  146.9270 N   0  0  0  0  0  2  0  0  0  0  0  0
  163.2100  214.4470  144.9140 C   0  0  0  0  0  2  0  0  0  0  0  0
  161.4960  212.5090  143.7260 C   0  0  0  0  0  3  0  0  0  0  0  0
  162.6820  212.7870  143.1730 C   0  0  0  0  0  3  0  0  0  0  0  0
  163.3310  214.1130  143.4290 C   0  0  0  0  0  2  0  0  0  0  0  0
  1  6  1  0  0  0  0
  1 24  1  0  0  0  0
  2  6  1  0  0  0  0
  3  2  2  0  0  0  0
  3  4  1  0  0  0  0
  4  1  2  0  0  0  0
  5  3  1  0  0  0  0
  7  8  2  0  0  0  0
  8  5  1  0  0  0  0
  9 13  2  0  0  0  0
  9 14  1  0  0  0  0
 10  7  1  0  0  0  0
 10 12  2  0  0  0  0
 11 12  1  0  0  0  0
 13 10  1  0  0  0  0
 14 11  2  0  0  0  0
 15 17  1  0  0  0  0
 15 18  1  0  0  0  0
 16 21  1  0  0  0  0
 17 16  1  0  0  0  0
 18 20  1  0  0  0  0
 20 21  1  0  0  0  0
 20 14  1  6  0  0  0
 21 19  1  1  0  0  0
 22 23  1  0  0  0  0
 23  7  1  0  0  0  0
 24 25  3  0  0  0  0
 25 26  1  0  0  0  0
 27 26  1  0  0  0  0
 28 29  2  0  0  0  0
 29 27  1  0  0  0  0
 30 34  1  6  0  0  0
 30 29  1  0  0  0  0
 31 32  1  0  0  0  0
 31 30  1  0  0  0  0
 33 31  2  0  0  0  0
 36 35  1  1  0  0  0
 36 37  1  0  0  0  0
 37 34  1  0  0  0  0
 38 37  2  0  0  0  0
 39 41  1  6  0  0  0
 39 40  1  0  0  0  0
 39 36  1  0  0  0  0
 40 38  1  0  0  0  0
 42 41  1  0  0  0  0
 43  4  1  0  0  0  0
 44 43  1  0  0  0  0
 46 44  1  0  0  0  0
 46 45  1  1  0  0  0
 47 46  1  0  0  0  0
 48 47  1  0  0  0  0
 49 48  1  0  0  0  0
 50 54  1  0  0  0  0
 51 56  1  0  0  0  0
 51 49  1  6  0  0  0
 52 57  1  6  0  0  0
 52 51  1  0  0  0  0
 54 53  1  0  0  0  0
 54 56  1  0  0  0  0
 55 58  1  1  0  0  0
 55 52  1  0  0  0  0
 55 54  1  0  0  0  0
 59 60  1  0  0  0  0
 59 58  2  0  0  0  0
 60 57  1  0  0  0  0
M  END
>  <MODEL>
1

>  <REMARK>
 VINA RESULT:      -3.5      0.000      0.000
  Name = 
  19 active torsions:
  status: ('A' for Active; 'I' for Inactive)
    1  A    between atoms: C_1  and  C_24
    2  A    between atoms: C_1  and  N_42
    3  A    between atoms: C_4  and  C_19
    4  A    between atoms: C_6  and  S_50
    5  A    between atoms: C_7  and  C_9
    6  A    between atoms: C_9  and  O_56
    7  A    between atoms: C_14  and  C_37
    8  A    between atoms: C_19  and  C_44
    9  A    between atoms: C_19  and  C_51
   10  A    between atoms: N_26  and  C_53
   11  A    between atoms: N_27  and  N_57
   12  A    between atoms: C_29  and  C_44
   13  A    between atoms: C_30  and  C_34
   14  A    between atoms: C_30  and  S_50
   15  A    between atoms: C_34  and  C_43
   16  A    between atoms: C_38  and  C_54
   17  A    between atoms: N_42  and  C_43
   18  A    between atoms: C_47  and  C_53
   19  A    between atoms: C_52  and  C_58
                            x       y       z     vdW  Elec       q    Type
                         _______ _______ _______ _____ _____    ______ ____

>  <TORSDO>
F 19

$$$$
=
 OpenBabel11052411123D

 60 65  0  0  1  0  0  0  0  0999 V2000
  158.3670  213.9190  144.5270 C   0  0  0  0  0  0  0  0  0  0  0  0
  157.3950  214.1890  146.6090 N   0  0  0  0  0  0  0  0  0  0  0  0
  158.6550  213.9270  146.7340 C   0  0  0  0  0  0  0  0  0  0  0  0
  159.3030  213.7630  145.4510 C   0  0  0  0  0  0  0  0  0  0  0  0
  159.3400  213.9260  147.9910 N   0  0  0  0  0  2  0  0  0  0  0  0
  157.0560  214.1880  145.1870 C   0  0  0  0  0  2  0  0  0  0  0  0
  159.2730  213.7060  150.3710 C   0  0  0  0  0  0  0  0  0  0  0  0
  158.6900  213.9640  149.2380 N   0  0  0  0  0  0  0  0  0  0  0  0
  158.0840  213.0080  153.9000 C   0  0  0  0  0  3  0  0  0  0  0  0
  158.4500  213.7360  151.6070 C   0  0  0  0  0  0  0  0  0  0  0  0
  156.4540  214.4250  152.8150 C   0  0  0  0  0  3  0  0  0  0  0  0
  157.2350  214.4320  151.6560 C   0  0  0  0  0  3  0  0  0  0  0  0
  158.8610  213.0170  152.7400 C   0  0  0  0  0  3  0  0  0  0  0  0
  156.8740  213.7150  153.9420 C   0  0  0  0  0  0  0  0  0  0  0  0
  153.8090  214.4460  156.1730 C   0  0  0  0  0  2  0  0  0  0  0  0
  154.6720  212.1170  156.6380 C   0  0  0  0  0  2  0  0  0  0  0  0
  154.1790  213.4230  157.2550 C   0  0  0  0  0  2  0  0  0  0  0  0
  154.6410  214.3140  154.8890 C   0  0  0  0  0  2  0  0  0  0  0  0
  157.0640  212.1320  156.6240 O   0  0  0  0  0  1  0  0  0  0  0  0
  156.0270  213.7340  155.1740 C   0  0  1  0  0  3  0  0  0  0  0  0
  155.9470  212.3370  155.8170 C   0  0  2  0  0  3  0  0  0  0  0  0
  161.6490  214.4530  150.2300 C   0  0  0  0  0  1  0  0  0  0  0  0
  160.6530  213.4520  150.3900 O   0  0  0  0  0  0  0  0  0  0  0  0
  158.5780  213.8710  143.1060 C   0  0  0  0  0  0  0  0  0  0  0  0
  158.7580  213.8380  141.9150 C   0  0  0  0  0  0  0  0  0  0  0  0
  158.9790  213.8020  140.4660 C   0  0  0  0  0  2  0  0  0  0  0  0
  160.1380  212.9800  140.1540 N   0  0  0  0  0  2  0  0  0  0  0  0
  161.6390  214.2440  141.4280 O   0  0  0  0  0  0  0  0  0  0  0  0
  161.4430  213.2520  140.6730 C   0  0  0  0  0  0  0  0  0  0  0  0
  162.5700  212.3390  140.3180 C   0  0  2  0  0  3  0  0  0  0  0  0
  162.9340  212.4780  138.8740 C   0  0  0  0  0  0  0  0  0  0  0  0
  162.4650  213.4310  138.2030 O   0  0  0  0  0  0  0  0  0  0  0  0
  163.7780  211.5560  138.2670 O   0  0  0  0  0  1  0  0  0  0  0  0
  162.2320  210.8960  140.6740 C   0  0  0  0  0  2  0  0  0  0  0  0
  161.6910  208.5680  138.6780 O   0  0  0  0  0  1  0  0  0  0  0  0
  161.0510  209.8060  138.5940 C   0  0  2  0  0  3  0  0  0  0  0  0
  161.0130  210.4390  139.9370 C   0  0  0  0  0  0  0  0  0  0  0  0
  159.7900  210.5960  140.4100 C   0  0  0  0  0  3  0  0  0  0  0  0
  159.5830  209.5980  138.2420 C   0  0  1  0  0  3  0  0  0  0  0  0
  158.7800  210.0740  139.4520 C   0  0  0  0  0  2  0  0  0  0  0  0
  159.2330  210.4320  137.0200 C   0  0  0  0  0  2  0  0  0  0  0  0
  159.9040  211.7190  137.0880 N   0  0  0  0  0  1  0  0  0  0  0  0
  160.7550  213.5130  145.2150 C   0  0  0  0  0  2  0  0  0  0  0  0
  161.1840  212.3510  145.9780 N   0  0  0  0  0  2  0  0  0  0  0  0
  163.0690  213.8190  146.4330 C   0  0  0  0  0  1  0  0  0  0  0  0
  162.0860  212.8140  147.0200 C   0  0  2  0  0  3  0  0  0  0  0  0
  162.8470  211.6250  147.5790 C   0  0  0  0  0  2  0  0  0  0  0  0
  162.2320  211.1560  148.8880 C   0  0  0  0  0  2  0  0  0  0  0  0
  161.2100  209.6840  148.5920 S   0  0  0  0  0  0  0  0  0  0  0  0
  162.3160  205.3000  147.3860 F   0  0  0  0  0  0  0  0  0  0  0  0
  162.6540  208.5610  148.5080 C   0  0  1  0  0  3  0  0  0  0  0  0
  162.8390  207.7250  149.7680 C   0  0  2  0  0  3  0  0  0  0  0  0
  160.4470  206.5060  147.7500 F   0  0  0  0  0  0  0  0  0  0  0  0
  161.8110  206.4360  147.9880 C   0  0  0  0  0  0  0  0  0  0  0  0
  162.1320  206.4030  149.4810 C   0  0  2  0  0  3  0  0  0  0  0  0
  162.4580  207.6160  147.4140 N   0  0  0  0  0  2  0  0  0  0  0  0
  162.4580  208.4330  151.0830 C   0  0  0  0  0  2  0  0  0  0  0  0
  160.9270  206.1450  150.3590 C   0  0  0  0  0  3  0  0  0  0  0  0
  160.8820  206.6160  151.6100 C   0  0  0  0  0  3  0  0  0  0  0  0
  162.0250  207.4240  152.1450 C   0  0  0  0  0  2  0  0  0  0  0  0
  1  6  1  0  0  0  0
  1  4  2  0  0  0  0
  2  3  2  0  0  0  0
  3  5  1  0  0  0  0
  4  3  1  0  0  0  0
  5  8  1  0  0  0  0
  6  2  1  0  0  0  0
  7 23  1  0  0  0  0
  7 10  1  0  0  0  0
  8  7  2  0  0  0  0
  9 14  1  0  0  0  0
 10 12  2  0  0  0  0
 10 13  1  0  0  0  0
 11 14  2  0  0  0  0
 12 11  1  0  0  0  0
 13  9  2  0  0  0  0
 15 17  1  0  0  0  0
 16 17  1  0  0  0  0
 18 20  1  0  0  0  0
 18 15  1  0  0  0  0
 20 14  1  6  0  0  0
 20 21  1  0  0  0  0
 21 19  1  1  0  0  0
 21 16  1  0  0  0  0
 22 23  1  0  0  0  0
 24  1  1  0  0  0  0
 25 24  3  0  0  0  0
 26 25  1  0  0  0  0
 27 26  1  0  0  0  0
 27 29  1  0  0  0  0
 29 28  2  0  0  0  0
 30 29  1  0  0  0  0
 30 34  1  6  0  0  0
 31 30  1  0  0  0  0
 32 31  2  0  0  0  0
 33 31  1  0  0  0  0
 36 35  1  1  0  0  0
 36 37  1  0  0  0  0
 37 38  2  0  0  0  0
 37 34  1  0  0  0  0
 39 41  1  6  0  0  0
 39 36  1  0  0  0  0
 39 40  1  0  0  0  0
 40 38  1  0  0  0  0
 41 42  1  0  0  0  0
 43  4  1  0  0  0  0
 43 44  1  0  0  0  0
 44 46  1  0  0  0  0
 46 45  1  6  0  0  0
 46 47  1  0  0  0  0
 47 48  1  0  0  0  0
 49 48  1  0  0  0  0
 50 54  1  0  0  0  0
 51 49  1  1  0  0  0
 51 52  1  0  0  0  0
 52 57  1  1  0  0  0
 53 54  1  0  0  0  0
 54 55  1  0  0  0  0
 55 52  1  0  0  0  0
 55 58  1  1  0  0  0
 56 54  1  0  0  0  0
 56 51  1  0  0  0  0
 57 60  1  0  0  0  0
 58 59  2  0  0  0  0
 59 60  1  0  0  0  0
M  END
>  <MODEL>
2

>  <REMARK>
 VINA RESULT:      -2.0      4.413     12.998
  Name = 
  19 active torsions:
  status: ('A' for Active; 'I' for Inactive)
    1  A    between atoms: C_1  and  C_24
    2  A    between atoms: C_1  and  N_42
    3  A    between atoms: C_4  and  C_19
    4  A    between atoms: C_6  and  S_50
    5  A    between atoms: C_7  and  C_9
    6  A    between atoms: C_9  and  O_56
    7  A    between atoms: C_14  and  C_37
    8  A    between atoms: C_19  and  C_44
    9  A    between atoms: C_19  and  C_51
   10  A    between atoms: N_26  and  C_53
   11  A    between atoms: N_27  and  N_57
   12  A    between atoms: C_29  and  C_44
   13  A    between atoms: C_30  and  C_34
   14  A    between atoms: C_30  and  S_50
   15  A    between atoms: C_34  and  C_43
   16  A    between atoms: C_38  and  C_54
   17  A    between atoms: N_42  and  C_43
   18  A    between atoms: C_47  and  C_53
   19  A    between atoms: C_52  and  C_58
                            x       y       z     vdW  Elec       q    Type
                         _______ _______ _______ _____ _____    ______ ____

>  <TORSDO>
F 19

$$$$
=
 OpenBabel11052411123D

 60 65  0  0  1  0  0  0  0  0999 V2000
  158.4210  214.0880  144.4030 C   0  0  0  0  0  0  0  0  0  0  0  0
  157.5950  214.0980  146.5630 N   0  0  0  0  0  0  0  0  0  0  0  0
  158.8630  213.8460  146.5700 C   0  0  0  0  0  0  0  0  0  0  0  0
  159.4210  213.8430  145.2360 C   0  0  0  0  0  0  0  0  0  0  0  0
  159.6350  213.7120  147.7680 N   0  0  0  0  0  2  0  0  0  0  0  0
  157.1560  214.2550  145.1780 C   0  0  0  0  0  2  0  0  0  0  0  0
  159.7590  213.6620  150.1560 C   0  0  0  0  0  0  0  0  0  0  0  0
  159.0740  213.5930  149.0530 N   0  0  0  0  0  0  0  0  0  0  0  0
  157.5750  212.1250  152.8430 C   0  0  0  0  0  3  0  0  0  0  0  0
  159.0410  213.4700  151.4410 C   0  0  0  0  0  0  0  0  0  0  0  0
  158.3540  214.2720  153.6330 C   0  0  0  0  0  3  0  0  0  0  0  0
  159.0620  214.4520  152.4410 C   0  0  0  0  0  3  0  0  0  0  0  0
  158.2820  212.3080  151.6530 C   0  0  0  0  0  3  0  0  0  0  0  0
  157.6090  213.1100  153.8400 C   0  0  0  0  0  0  0  0  0  0  0  0
  155.2480  213.9910  156.7650 C   0  0  0  0  0  2  0  0  0  0  0  0
  154.9180  211.5780  156.0950 C   0  0  0  0  0  2  0  0  0  0  0  0
  155.0960  212.5470  157.2600 C   0  0  0  0  0  2  0  0  0  0  0  0
  155.9190  214.1050  155.3900 C   0  0  0  0  0  2  0  0  0  0  0  0
  157.0370  210.5900  155.5900 O   0  0  0  0  0  1  0  0  0  0  0  0
  156.8710  212.9360  155.1290 C   0  0  1  0  0  3  0  0  0  0  0  0
  156.1460  211.5790  155.1780 C   0  0  2  0  0  3  0  0  0  0  0  0
  161.7880  214.4450  148.9340 C   0  0  0  0  0  1  0  0  0  0  0  0
  161.1300  213.9550  150.0940 O   0  0  0  0  0  0  0  0  0  0  0  0
  158.5320  214.2090  142.9740 C   0  0  0  0  0  0  0  0  0  0  0  0
  158.6320  214.3110  141.7770 C   0  0  0  0  0  0  0  0  0  0  0  0
  158.7590  214.4320  140.3230 C   0  0  0  0  0  2  0  0  0  0  0  0
  158.3770  213.1860  139.6780 N   0  0  0  0  0  2  0  0  0  0  0  0
  157.6540  214.1900  137.6930 O   0  0  0  0  0  0  0  0  0  0  0  0
  157.8340  213.1320  138.3560 C   0  0  0  0  0  0  0  0  0  0  0  0
  157.4930  211.8030  137.7650 C   0  0  2  0  0  3  0  0  0  0  0  0
  156.7410  210.9600  138.7460 C   0  0  0  0  0  0  0  0  0  0  0  0
  156.8520  209.7090  138.7040 O   0  0  0  0  0  0  0  0  0  0  0  0
  155.9140  211.5490  139.6940 O   0  0  0  0  0  1  0  0  0  0  0  0
  158.7450  211.0950  137.2620 C   0  0  0  0  0  2  0  0  0  0  0  0
  160.7880  209.3580  138.8440 O   0  0  0  0  0  1  0  0  0  0  0  0
  160.3490  210.6070  139.2860 C   0  0  2  0  0  3  0  0  0  0  0  0
  159.9240  211.4260  138.1220 C   0  0  0  0  0  0  0  0  0  0  0  0
  160.6650  212.5020  137.9370 C   0  0  0  0  0  3  0  0  0  0  0  0
  161.5240  211.3820  139.8730 C   0  0  1  0  0  3  0  0  0  0  0  0
  161.7450  212.5860  138.9570 C   0  0  0  0  0  2  0  0  0  0  0  0
  161.1710  211.8500  141.2750 C   0  0  0  0  0  2  0  0  0  0  0  0
  162.3800  212.2000  142.0020 N   0  0  0  0  0  1  0  0  0  0  0  0
  160.8550  213.6490  144.8730 C   0  0  0  0  0  2  0  0  0  0  0  0
  161.3280  212.3790  145.4010 N   0  0  0  0  0  2  0  0  0  0  0  0
  163.1020  213.7230  146.3840 C   0  0  0  0  0  1  0  0  0  0  0  0
  162.0470  212.6540  146.6350 C   0  0  2  0  0  3  0  0  0  0  0  0
  162.7180  211.3770  147.1100 C   0  0  0  0  0  2  0  0  0  0  0  0
  162.3530  211.0790  148.5560 C   0  0  0  0  0  2  0  0  0  0  0  0
  161.2840  209.6120  148.6260 S   0  0  0  0  0  0  0  0  0  0  0  0
  161.8060  205.4170  150.6330 F   0  0  0  0  0  0  0  0  0  0  0  0
  162.5590  208.5830  149.4450 C   0  0  1  0  0  3  0  0  0  0  0  0
  162.5840  208.7510  150.9590 C   0  0  2  0  0  3  0  0  0  0  0  0
  160.1120  206.7270  149.9250 F   0  0  0  0  0  0  0  0  0  0  0  0
  161.4450  206.7100  150.3080 C   0  0  0  0  0  0  0  0  0  0  0  0
  161.7090  207.6240  151.5030 C   0  0  2  0  0  3  0  0  0  0  0  0
  162.2680  207.1770  149.1930 N   0  0  0  0  0  2  0  0  0  0  0  0
  162.2630  210.1710  151.4650 C   0  0  0  0  0  2  0  0  0  0  0  0
  160.4530  208.1010  152.1970 C   0  0  0  0  0  3  0  0  0  0  0  0
  160.4330  209.2710  152.8440 C   0  0  0  0  0  3  0  0  0  0  0  0
  161.6600  210.1320  152.8660 C   0  0  0  0  0  2  0  0  0  0  0  0
  1  6  1  0  0  0  0
  1  4  2  0  0  0  0
  2  3  2  0  0  0  0
  3  5  1  0  0  0  0
  4  3  1  0  0  0  0
  5  8  1  0  0  0  0
  6  2  1  0  0  0  0
  7 10  1  0  0  0  0
  8  7  2  0  0  0  0
  9 14  1  0  0  0  0
 10 13  1  0  0  0  0
 10 12  2  0  0  0  0
 11 14  2  0  0  0  0
 12 11  1  0  0  0  0
 13  9  2  0  0  0  0
 15 17  1  0  0  0  0
 16 17  1  0  0  0  0
 18 15  1  0  0  0  0
 20 14  1  6  0  0  0
 20 21  1  0  0  0  0
 20 18  1  0  0  0  0
 21 19  1  1  0  0  0
 21 16  1  0  0  0  0
 22 23  1  0  0  0  0
 23  7  1  0  0  0  0
 24  1  1  0  0  0  0
 25 24  3  0  0  0  0
 26 25  1  0  0  0  0
 27 26  1  0  0  0  0
 28 29  2  0  0  0  0
 29 27  1  0  0  0  0
 30 34  1  1  0  0  0
 30 29  1  0  0  0  0
 30 31  1  0  0  0  0
 31 33  1  0  0  0  0
 32 31  2  0  0  0  0
 34 37  1  0  0  0  0
 36 35  1  6  0  0  0
 36 39  1  0  0  0  0
 37 36  1  0  0  0  0
 38 37  2  0  0  0  0
 38 40  1  0  0  0  0
 39 41  1  1  0  0  0
 40 39  1  0  0  0  0
 41 42  1  0  0  0  0
 43  4  1  0  0  0  0
 43 44  1  0  0  0  0
 44 46  1  0  0  0  0
 46 45  1  6  0  0  0
 46 47  1  0  0  0  0
 47 48  1  0  0  0  0
 48 49  1  0  0  0  0
 51 49  1  6  0  0  0
 51 52  1  0  0  0  0
 52 57  1  6  0  0  0
 52 55  1  0  0  0  0
 53 54  1  0  0  0  0
 54 50  1  0  0  0  0
 54 55  1  0  0  0  0
 55 58  1  6  0  0  0
 56 51  1  0  0  0  0
 56 54  1  0  0  0  0
 57 60  1  0  0  0  0
 58 59  2  0  0  0  0
 59 60  1  0  0  0  0
M  END
>  <MODEL>
3

>  <REMARK>
 VINA RESULT:      -1.7      4.614     12.900
  Name = 
  19 active torsions:
  status: ('A' for Active; 'I' for Inactive)
    1  A    between atoms: C_1  and  C_24
    2  A    between atoms: C_1  and  N_42
    3  A    between atoms: C_4  and  C_19
    4  A    between atoms: C_6  and  S_50
    5  A    between atoms: C_7  and  C_9
    6  A    between atoms: C_9  and  O_56
    7  A    between atoms: C_14  and  C_37
    8  A    between atoms: C_19  and  C_44
    9  A    between atoms: C_19  and  C_51
   10  A    between atoms: N_26  and  C_53
   11  A    between atoms: N_27  and  N_57
   12  A    between atoms: C_29  and  C_44
   13  A    between atoms: C_30  and  C_34
   14  A    between atoms: C_30  and  S_50
   15  A    between atoms: C_34  and  C_43
   16  A    between atoms: C_38  and  C_54
   17  A    between atoms: N_42  and  C_43
   18  A    between atoms: C_47  and  C_53
   19  A    between atoms: C_52  and  C_58
                            x       y       z     vdW  Elec       q    Type
                         _______ _______ _______ _____ _____    ______ ____

>  <TORSDO>
F 19

$$$$
