=
 OpenBabel11042420153D

 25 28  0  0  1  0  0  0  0  0999 V2000
  161.5170  205.8700  146.8440 N   0  0  0  0  0  0  0  0  0  0  0  0
  161.1510  205.3200  150.9400 C   0  0  0  0  0  3  0  0  0  0  0  0
  161.3950  205.6710  148.1810 C   0  0  0  0  0  0  0  0  0  0  0  0
  161.1200  203.3080  147.7580 C   0  0  0  0  0  0  0  0  0  0  0  0
  160.9170  201.9560  148.1580 N   0  0  0  0  0  1  0  0  0  0  0  0
  161.5810  205.0810  144.5150 C   0  0  0  0  0  1  0  0  0  0  0  0
  161.3570  206.6020  150.4230 C   0  0  0  0  0  0  0  0  0  0  0  0
  161.0670  204.2050  150.1030 C   0  0  0  0  0  0  0  0  0  0  0  0
  161.4450  204.8350  145.9740 C   0  0  0  0  0  0  0  0  0  0  0  0
  161.2490  203.5740  146.4320 N   0  0  0  0  0  0  0  0  0  0  0  0
  161.4760  206.7680  149.0400 C   0  0  0  0  0  3  0  0  0  0  0  0
  160.8490  202.8860  150.7670 C   0  0  0  0  0  1  0  0  0  0  0  0
  161.1900  204.3670  148.6970 C   0  0  0  0  0  0  0  0  0  0  0  0
  160.4890  210.2520  152.2460 N   0  0  0  0  0  2  0  0  0  0  0  0
  161.4420  207.7680  151.3250 C   0  0  0  0  0  0  0  0  0  0  0  0
  160.8310  207.8480  152.6770 C   0  0  2  0  0  3  0  0  0  0  0  0
  161.1560  209.2750  153.1240 C   0  0  1  0  0  3  0  0  0  0  0  0
  161.9890  208.8770  150.9700 N   0  0  0  0  0  0  0  0  0  0  0  0
  161.8980  209.8900  152.0110 C   0  0  1  0  0  3  0  0  0  0  0  0
  161.4500  206.8540  153.6200 C   0  0  0  0  0  0  0  0  0  0  0  0
  162.4710  206.2020  153.2720 O   0  0  0  0  0  0  0  0  0  0  0  0
  160.8850  206.6220  154.9110 N   0  0  0  0  0  2  0  0  0  0  0  0
  159.7060  207.3280  155.3850 C   0  0  0  0  0  2  0  0  0  0  0  0
  160.3990  209.0410  157.2440 N   0  0  0  0  0  0  0  0  0  0  0  0
  160.0930  208.2840  156.4230 C   0  0  0  0  0  0  0  0  0  0  0  0
  1  3  1  0  0  0  0
  3 13  2  0  0  0  0
  3 11  1  0  0  0  0
  4  5  1  0  0  0  0
  4 13  1  0  0  0  0
  6  9  1  0  0  0  0
  7  2  1  0  0  0  0
  7 15  1  0  0  0  0
  8 12  1  0  0  0  0
  8  2  2  0  0  0  0
  9 10  1  0  0  0  0
  9  1  2  0  0  0  0
 10  4  2  0  0  0  0
 11  7  2  0  0  0  0
 13  8  1  0  0  0  0
 15 16  1  0  0  0  0
 16 17  1  0  0  0  0
 16 20  1  1  0  0  0
 17 14  1  6  0  0  0
 18 15  2  0  0  0  0
 19 18  1  6  0  0  0
 19 14  1  0  0  0  0
 19 17  1  0  0  0  0
 20 22  1  0  0  0  0
 21 20  2  0  0  0  0
 22 23  1  0  0  0  0
 23 25  1  0  0  0  0
 25 24  3  0  0  0  0
M  END
>  <MODEL>
1

>  <REMARK>
 VINA RESULT:      -8.6      0.000      0.000
  Name = 
  4 active torsions:
  status: ('A' for Active; 'I' for Inactive)
    1  A    between atoms: C_4  and  C_11
    2  A    between atoms: C_5  and  C_10
    3  A    between atoms: C_12  and  C_22
    4  A    between atoms: C_12  and  N_23
                            x       y       z     vdW  Elec       q    Type
                         _______ _______ _______ _____ _____    ______ ____

>  <TORSDO>
F 4

$$$$
=
 OpenBabel11042420153D

 25 28  0  0  1  0  0  0  0  0999 V2000
  160.7590  203.2020  150.0800 N   0  0  0  0  0  0  0  0  0  0  0  0
  161.7230  207.0050  148.7330 C   0  0  0  0  0  3  0  0  0  0  0  0
  161.0760  204.4390  149.6210 C   0  0  0  0  0  0  0  0  0  0  0  0
  161.3070  203.5080  147.4040 C   0  0  0  0  0  0  0  0  0  0  0  0
  161.5770  203.5910  146.0080 N   0  0  0  0  0  1  0  0  0  0  0  0
  160.3620  200.7930  149.7730 C   0  0  0  0  0  1  0  0  0  0  0  0
  161.4340  206.7950  150.0850 C   0  0  0  0  0  0  0  0  0  0  0  0
  161.6940  205.9550  147.8130 C   0  0  0  0  0  0  0  0  0  0  0  0
  160.7110  202.1370  149.2440 C   0  0  0  0  0  0  0  0  0  0  0  0
  160.9830  202.2960  147.9250 N   0  0  0  0  0  0  0  0  0  0  0  0
  161.1130  205.5070  150.5200 C   0  0  0  0  0  3  0  0  0  0  0  0
  162.0170  206.2980  146.3970 C   0  0  0  0  0  1  0  0  0  0  0  0
  161.3660  204.6430  148.2490 C   0  0  0  0  0  0  0  0  0  0  0  0
  160.4030  210.3000  152.0970 N   0  0  0  0  0  2  0  0  0  0  0  0
  161.4720  207.9190  151.0410 C   0  0  0  0  0  0  0  0  0  0  0  0
  160.8800  207.9000  152.4050 C   0  0  2  0  0  3  0  0  0  0  0  0
  161.1360  209.3200  152.9170 C   0  0  1  0  0  3  0  0  0  0  0  0
  161.9530  209.0720  150.7340 N   0  0  0  0  0  0  0  0  0  0  0  0
  161.8260  210.0260  151.8250 C   0  0  1  0  0  3  0  0  0  0  0  0
  161.5670  206.8960  153.2890 C   0  0  0  0  0  0  0  0  0  0  0  0
  162.5950  206.2930  152.8810 O   0  0  0  0  0  0  0  0  0  0  0  0
  161.0580  206.6020  154.5910 N   0  0  0  0  0  2  0  0  0  0  0  0
  159.8760  207.2500  155.1320 C   0  0  0  0  0  2  0  0  0  0  0  0
  160.5320  208.6320  157.2590 N   0  0  0  0  0  0  0  0  0  0  0  0
  160.2420  208.0220  156.3200 C   0  0  0  0  0  0  0  0  0  0  0  0
  2  7  1  0  0  0  0
  3  1  1  0  0  0  0
  3 11  1  0  0  0  0
  4 10  2  0  0  0  0
  4 13  1  0  0  0  0
  5  4  1  0  0  0  0
  7 11  2  0  0  0  0
  7 15  1  0  0  0  0
  8 13  1  0  0  0  0
  8  2  2  0  0  0  0
  9  6  1  0  0  0  0
  9  1  2  0  0  0  0
 10  9  1  0  0  0  0
 12  8  1  0  0  0  0
 13  3  2  0  0  0  0
 15 16  1  0  0  0  0
 16 17  1  0  0  0  0
 16 20  1  1  0  0  0
 17 14  1  6  0  0  0
 18 15  2  0  0  0  0
 19 18  1  6  0  0  0
 19 14  1  0  0  0  0
 19 17  1  0  0  0  0
 20 22  1  0  0  0  0
 21 20  2  0  0  0  0
 22 23  1  0  0  0  0
 23 25  1  0  0  0  0
 25 24  3  0  0  0  0
M  END
>  <MODEL>
2

>  <REMARK>
 VINA RESULT:      -8.3      0.895      2.484
  Name = 
  4 active torsions:
  status: ('A' for Active; 'I' for Inactive)
    1  A    between atoms: C_4  and  C_11
    2  A    between atoms: C_5  and  C_10
    3  A    between atoms: C_12  and  C_22
    4  A    between atoms: C_12  and  N_23
                            x       y       z     vdW  Elec       q    Type
                         _______ _______ _______ _____ _____    ______ ____

>  <TORSDO>
F 4

$$$$
=
 OpenBabel11042420153D

 25 28  0  0  1  0  0  0  0  0999 V2000
  161.6430  207.5960  149.6150 N   0  0  0  0  0  0  0  0  0  0  0  0
  160.9660  203.5190  149.9750 C   0  0  0  0  0  3  0  0  0  0  0  0
  161.4210  206.2650  149.7520 C   0  0  0  0  0  0  0  0  0  0  0  0
  161.3300  206.5730  152.1470 C   0  0  0  0  0  0  0  0  0  0  0  0
  161.1770  206.1140  153.4870 N   0  0  0  0  0  1  0  0  0  0  0  0
  161.9560  209.8630  150.5180 C   0  0  0  0  0  1  0  0  0  0  0  0
  161.1290  204.0910  148.7100 C   0  0  0  0  0  0  0  0  0  0  0  0
  161.0230  204.2950  151.1350 C   0  0  0  0  0  0  0  0  0  0  0  0
  161.7110  208.4090  150.6970 C   0  0  0  0  0  0  0  0  0  0  0  0
  161.5550  207.8970  151.9420 N   0  0  0  0  0  0  0  0  0  0  0  0
  161.3580  205.4660  148.6080 C   0  0  0  0  0  3  0  0  0  0  0  0
  160.8310  203.5770  152.4290 C   0  0  0  0  0  1  0  0  0  0  0  0
  161.2530  205.6940  151.0380 C   0  0  0  0  0  0  0  0  0  0  0  0
  159.6110  201.8480  145.5380 N   0  0  0  0  0  2  0  0  0  0  0  0
  161.0660  203.2540  147.4960 C   0  0  0  0  0  0  0  0  0  0  0  0
  161.0510  203.7690  146.1020 C   0  0  2  0  0  3  0  0  0  0  0  0
  160.9030  202.4990  145.2610 C   0  0  1  0  0  3  0  0  0  0  0  0
  160.9230  201.9760  147.5450 N   0  0  0  0  0  0  0  0  0  0  0  0
  160.8330  201.3840  146.2190 C   0  0  1  0  0  3  0  0  0  0  0  0
  162.3360  204.4720  145.7610 C   0  0  0  0  0  0  0  0  0  0  0  0
  163.3900  204.2090  146.4010 O   0  0  0  0  0  0  0  0  0  0  0  0
  162.3780  205.4540  144.7250 N   0  0  0  0  0  2  0  0  0  0  0  0
  161.2060  205.8170  143.9450 C   0  0  0  0  0  2  0  0  0  0  0  0
  161.9020  206.2090  141.4490 N   0  0  0  0  0  0  0  0  0  0  0  0
  161.5950  206.0350  142.5520 C   0  0  0  0  0  0  0  0  0  0  0  0
  1  3  1  0  0  0  0
  1  9  2  0  0  0  0
  2  8  1  0  0  0  0
  3 13  1  0  0  0  0
  4  5  1  0  0  0  0
  6  9  1  0  0  0  0
  7  2  2  0  0  0  0
  8 12  1  0  0  0  0
  9 10  1  0  0  0  0
 10  4  2  0  0  0  0
 11  7  1  0  0  0  0
 11  3  2  0  0  0  0
 13  8  2  0  0  0  0
 13  4  1  0  0  0  0
 15 18  2  0  0  0  0
 15  7  1  0  0  0  0
 16 20  1  6  0  0  0
 16 15  1  0  0  0  0
 17 14  1  1  0  0  0
 17 16  1  0  0  0  0
 17 19  1  0  0  0  0
 19 14  1  1  0  0  0
 19 18  1  0  0  0  0
 20 21  2  0  0  0  0
 22 20  1  0  0  0  0
 23 22  1  0  0  0  0
 24 25  3  0  0  0  0
 25 23  1  0  0  0  0
M  END
>  <MODEL>
3

>  <REMARK>
 VINA RESULT:      -8.3      2.470      7.922
  Name = 
  4 active torsions:
  status: ('A' for Active; 'I' for Inactive)
    1  A    between atoms: C_4  and  C_11
    2  A    between atoms: C_5  and  C_10
    3  A    between atoms: C_12  and  C_22
    4  A    between atoms: C_12  and  N_23
                            x       y       z     vdW  Elec       q    Type
                         _______ _______ _______ _____ _____    ______ ____

>  <TORSDO>
F 4

$$$$
=
 OpenBabel11042420153D

 25 28  0  0  1  0  0  0  0  0999 V2000
  160.8390  206.7460  148.9880 N   0  0  0  0  0  0  0  0  0  0  0  0
  161.0190  205.1340  152.8060 C   0  0  0  0  0  3  0  0  0  0  0  0
  160.9000  206.2010  150.2290 C   0  0  0  0  0  0  0  0  0  0  0  0
  161.0730  204.0160  149.2110 C   0  0  0  0  0  0  0  0  0  0  0  0
  161.1940  202.5970  149.2500 N   0  0  0  0  0  1  0  0  0  0  0  0
  160.8240  206.5920  146.5320 C   0  0  0  0  0  1  0  0  0  0  0  0
  160.9020  206.5160  152.6360 C   0  0  0  0  0  0  0  0  0  0  0  0
  161.0790  204.2700  151.7090 C   0  0  0  0  0  0  0  0  0  0  0  0
  160.8930  205.9690  147.8790 C   0  0  0  0  0  0  0  0  0  0  0  0
  161.0080  204.6230  147.9980 N   0  0  0  0  0  0  0  0  0  0  0  0
  160.8420  207.0410  151.3420 C   0  0  0  0  0  3  0  0  0  0  0  0
  161.2060  202.8140  152.0110 C   0  0  0  0  0  1  0  0  0  0  0  0
  161.0200  204.7980  150.3910 C   0  0  0  0  0  0  0  0  0  0  0  0
  161.9560  208.4850  156.1590 N   0  0  0  0  0  2  0  0  0  0  0  0
  160.8380  207.4110  153.8080 C   0  0  0  0  0  0  0  0  0  0  0  0
  161.2600  208.8360  153.8190 C   0  0  2  0  0  3  0  0  0  0  0  0
  161.0570  209.2500  155.2780 C   0  0  1  0  0  3  0  0  0  0  0  0
  160.4890  206.9970  154.9750 N   0  0  0  0  0  0  0  0  0  0  0  0
  160.5590  208.0530  155.9740 C   0  0  1  0  0  3  0  0  0  0  0  0
  160.3970  209.6720  152.9150 C   0  0  0  0  0  0  0  0  0  0  0  0
  159.2010  209.9130  153.2280 O   0  0  0  0  0  0  0  0  0  0  0  0
  160.9130  210.1900  151.6880 N   0  0  0  0  0  2  0  0  0  0  0  0
  162.2790  209.9530  151.2530 C   0  0  0  0  0  2  0  0  0  0  0  0
  162.3590  209.8500  148.6360 N   0  0  0  0  0  0  0  0  0  0  0  0
  162.3240  209.8960  149.7920 C   0  0  0  0  0  0  0  0  0  0  0  0
  1  3  1  0  0  0  0
  3 13  2  0  0  0  0
  3 11  1  0  0  0  0
  4  5  1  0  0  0  0
  4 13  1  0  0  0  0
  6  9  1  0  0  0  0
  7  2  1  0  0  0  0
  7 15  1  0  0  0  0
  8 12  1  0  0  0  0
  8  2  2  0  0  0  0
  9 10  1  0  0  0  0
  9  1  2  0  0  0  0
 10  4  2  0  0  0  0
 11  7  2  0  0  0  0
 13  8  1  0  0  0  0
 15 16  1  0  0  0  0
 15 18  2  0  0  0  0
 16 20  1  6  0  0  0
 16 17  1  0  0  0  0
 17 19  1  0  0  0  0
 17 14  1  1  0  0  0
 19 18  1  6  0  0  0
 19 14  1  0  0  0  0
 20 21  2  0  0  0  0
 22 20  1  0  0  0  0
 23 22  1  0  0  0  0
 24 25  3  0  0  0  0
 25 23  1  0  0  0  0
M  END
>  <MODEL>
4

>  <REMARK>
 VINA RESULT:      -8.2      1.705      3.727
  Name = 
  4 active torsions:
  status: ('A' for Active; 'I' for Inactive)
    1  A    between atoms: C_4  and  C_11
    2  A    between atoms: C_5  and  C_10
    3  A    between atoms: C_12  and  C_22
    4  A    between atoms: C_12  and  N_23
                            x       y       z     vdW  Elec       q    Type
                         _______ _______ _______ _____ _____    ______ ____

>  <TORSDO>
F 4

$$$$
=
 OpenBabel11042420153D

 25 28  0  0  1  0  0  0  0  0999 V2000
  160.7730  203.4690  150.9260 N   0  0  0  0  0  0  0  0  0  0  0  0
  161.1960  207.5960  150.8710 C   0  0  0  0  0  3  0  0  0  0  0  0
  160.9140  204.8180  150.8890 C   0  0  0  0  0  0  0  0  0  0  0  0
  161.2020  204.6770  148.4940 C   0  0  0  0  0  0  0  0  0  0  0  0
  161.4210  205.2320  147.2010 N   0  0  0  0  0  1  0  0  0  0  0  0
  160.6840  201.2520  149.8640 C   0  0  0  0  0  1  0  0  0  0  0  0
  160.9740  206.9320  152.0810 C   0  0  0  0  0  0  0  0  0  0  0  0
  161.2780  206.8970  149.6650 C   0  0  0  0  0  0  0  0  0  0  0  0
  160.8410  202.7280  149.7940 C   0  0  0  0  0  0  0  0  0  0  0  0
  161.0530  203.3300  148.5990 N   0  0  0  0  0  0  0  0  0  0  0  0
  160.8350  205.5420  152.0800 C   0  0  0  0  0  3  0  0  0  0  0  0
  161.5150  207.7100  148.4360 C   0  0  0  0  0  1  0  0  0  0  0  0
  161.1360  205.4830  149.6570 C   0  0  0  0  0  0  0  0  0  0  0  0
  162.0030  208.5510  155.7850 N   0  0  0  0  0  2  0  0  0  0  0  0
  160.8910  207.6900  153.3460 C   0  0  0  0  0  0  0  0  0  0  0  0
  161.2480  209.1230  153.5080 C   0  0  2  0  0  3  0  0  0  0  0  0
  161.0540  209.3650  155.0060 C   0  0  1  0  0  3  0  0  0  0  0  0
  160.5830  207.1340  154.4650 N   0  0  0  0  0  0  0  0  0  0  0  0
  160.6240  208.0770  155.5730 C   0  0  1  0  0  3  0  0  0  0  0  0
  160.3320  210.0120  152.7130 C   0  0  0  0  0  0  0  0  0  0  0  0
  159.1350  210.1720  153.0760 O   0  0  0  0  0  0  0  0  0  0  0  0
  160.7950  210.6710  151.5340 N   0  0  0  0  0  2  0  0  0  0  0  0
  162.1580  210.5340  151.0470 C   0  0  0  0  0  2  0  0  0  0  0  0
  162.2930  211.3890  148.5740 N   0  0  0  0  0  0  0  0  0  0  0  0
  162.2340  211.0120  149.6670 C   0  0  0  0  0  0  0  0  0  0  0  0
  2  7  1  0  0  0  0
  3  1  1  0  0  0  0
  3 11  1  0  0  0  0
  4 10  2  0  0  0  0
  4 13  1  0  0  0  0
  5  4  1  0  0  0  0
  7 15  1  0  0  0  0
  8  2  2  0  0  0  0
  9  6  1  0  0  0  0
  9  1  2  0  0  0  0
 10  9  1  0  0  0  0
 11  7  2  0  0  0  0
 12  8  1  0  0  0  0
 13  8  1  0  0  0  0
 13  3  2  0  0  0  0
 15 16  1  0  0  0  0
 15 18  2  0  0  0  0
 16 20  1  6  0  0  0
 16 17  1  0  0  0  0
 17 19  1  0  0  0  0
 17 14  1  1  0  0  0
 19 18  1  6  0  0  0
 19 14  1  0  0  0  0
 20 21  2  0  0  0  0
 22 20  1  0  0  0  0
 23 22  1  0  0  0  0
 24 25  3  0  0  0  0
 25 23  1  0  0  0  0
M  END
>  <MODEL>
5

>  <REMARK>
 VINA RESULT:      -8.2      1.835      4.376
  Name = 
  4 active torsions:
  status: ('A' for Active; 'I' for Inactive)
    1  A    between atoms: C_4  and  C_11
    2  A    between atoms: C_5  and  C_10
    3  A    between atoms: C_12  and  C_22
    4  A    between atoms: C_12  and  N_23
                            x       y       z     vdW  Elec       q    Type
                         _______ _______ _______ _____ _____    ______ ____

>  <TORSDO>
F 4

$$$$
=
 OpenBabel11042420153D

 25 28  0  0  1  0  0  0  0  0999 V2000
  160.0490  210.7500  152.3950 N   0  0  0  0  0  0  0  0  0  0  0  0
  161.1960  207.1970  154.2020 C   0  0  0  0  0  3  0  0  0  0  0  0
  160.4240  209.5960  153.0030 C   0  0  0  0  0  0  0  0  0  0  0  0
  160.4070  210.7610  155.1200 C   0  0  0  0  0  0  0  0  0  0  0  0
  160.5730  210.8420  156.5330 N   0  0  0  0  0  1  0  0  0  0  0  0
  159.4440  213.1340  152.4150 C   0  0  0  0  0  1  0  0  0  0  0  0
  160.9980  207.2450  152.8190 C   0  0  0  0  0  0  0  0  0  0  0  0
  161.0130  208.3280  155.0020 C   0  0  0  0  0  0  0  0  0  0  0  0
  159.8540  211.8850  153.1080 C   0  0  0  0  0  0  0  0  0  0  0  0
  160.0320  211.8830  154.4510 N   0  0  0  0  0  0  0  0  0  0  0  0
  160.6130  208.4510  152.2280 C   0  0  0  0  0  3  0  0  0  0  0  0
  161.2510  208.1570  156.4650 C   0  0  0  0  0  1  0  0  0  0  0  0
  160.6200  209.5560  154.4060 C   0  0  0  0  0  0  0  0  0  0  0  0
  160.2570  203.6400  150.8550 N   0  0  0  0  0  2  0  0  0  0  0  0
  161.1980  206.0380  151.9920 C   0  0  0  0  0  0  0  0  0  0  0  0
  160.9990  205.9690  150.5210 C   0  0  2  0  0  3  0  0  0  0  0  0
  161.2630  204.4950  150.2020 C   0  0  1  0  0  3  0  0  0  0  0  0
  161.4800  204.8910  152.5020 N   0  0  0  0  0  0  0  0  0  0  0  0
  161.5720  203.8500  151.4880 C   0  0  1  0  0  3  0  0  0  0  0  0
  161.9810  206.8440  149.7920 C   0  0  0  0  0  0  0  0  0  0  0  0
  162.9590  207.3470  150.4070 O   0  0  0  0  0  0  0  0  0  0  0  0
  161.8120  207.1280  148.4020 N   0  0  0  0  0  2  0  0  0  0  0  0
  160.7090  206.5910  147.6230 C   0  0  0  0  0  2  0  0  0  0  0  0
  161.6240  205.6000  145.3770 N   0  0  0  0  0  0  0  0  0  0  0  0
  161.2200  206.0380  146.3690 C   0  0  0  0  0  0  0  0  0  0  0  0
  1  3  1  0  0  0  0
  1  9  2  0  0  0  0
  2  8  1  0  0  0  0
  3 13  1  0  0  0  0
  4  5  1  0  0  0  0
  6  9  1  0  0  0  0
  7  2  2  0  0  0  0
  8 12  1  0  0  0  0
  9 10  1  0  0  0  0
 10  4  2  0  0  0  0
 11  7  1  0  0  0  0
 11  3  2  0  0  0  0
 13  8  2  0  0  0  0
 13  4  1  0  0  0  0
 15 18  2  0  0  0  0
 15  7  1  0  0  0  0
 16 20  1  6  0  0  0
 16 15  1  0  0  0  0
 17 16  1  0  0  0  0
 17 14  1  1  0  0  0
 17 19  1  0  0  0  0
 19 14  1  1  0  0  0
 19 18  1  0  0  0  0
 20 21  2  0  0  0  0
 22 20  1  0  0  0  0
 23 22  1  0  0  0  0
 24 25  3  0  0  0  0
 25 23  1  0  0  0  0
M  END
>  <MODEL>
6

>  <REMARK>
 VINA RESULT:      -8.0      1.965      7.634
  Name = 
  4 active torsions:
  status: ('A' for Active; 'I' for Inactive)
    1  A    between atoms: C_4  and  C_11
    2  A    between atoms: C_5  and  C_10
    3  A    between atoms: C_12  and  C_22
    4  A    between atoms: C_12  and  N_23
                            x       y       z     vdW  Elec       q    Type
                         _______ _______ _______ _____ _____    ______ ____

>  <TORSDO>
F 4

$$$$
=
 OpenBabel11042420153D

 25 28  0  0  1  0  0  0  0  0999 V2000
  160.9920  204.5760  152.1470 N   0  0  0  0  0  0  0  0  0  0  0  0
  161.5210  208.6790  152.4560 C   0  0  0  0  0  3  0  0  0  0  0  0
  161.1660  205.9200  152.2290 C   0  0  0  0  0  0  0  0  0  0  0  0
  161.3670  205.9940  149.8220 C   0  0  0  0  0  0  0  0  0  0  0  0
  161.5550  206.6620  148.5780 N   0  0  0  0  0  1  0  0  0  0  0  0
  160.8070  202.4700  150.8900 C   0  0  0  0  0  1  0  0  0  0  0  0
  161.3240  207.9110  153.6080 C   0  0  0  0  0  0  0  0  0  0  0  0
  161.5430  208.0930  151.1880 C   0  0  0  0  0  0  0  0  0  0  0  0
  161.0000  203.9420  150.9500 C   0  0  0  0  0  0  0  0  0  0  0  0
  161.1860  204.6480  149.8080 N   0  0  0  0  0  0  0  0  0  0  0  0
  161.1490  206.5310  153.4840 C   0  0  0  0  0  3  0  0  0  0  0  0
  161.7580  209.0120  150.0320 C   0  0  0  0  0  1  0  0  0  0  0  0
  161.3630  206.6900  151.0560 C   0  0  0  0  0  0  0  0  0  0  0  0
  162.6030  209.8620  157.0660 N   0  0  0  0  0  2  0  0  0  0  0  0
  161.3060  208.5500  154.9390 C   0  0  0  0  0  0  0  0  0  0  0  0
  161.0000  209.9810  155.1950 C   0  0  2  0  0  3  0  0  0  0  0  0
  161.1970  210.1160  156.7070 C   0  0  1  0  0  3  0  0  0  0  0  0
  161.6540  207.9250  156.0090 N   0  0  0  0  0  0  0  0  0  0  0  0
  161.6050  208.7840  157.1830 C   0  0  1  0  0  3  0  0  0  0  0  0
  159.5820  210.3160  154.8240 C   0  0  0  0  0  0  0  0  0  0  0  0
  158.6230  209.8100  155.4670 O   0  0  0  0  0  0  0  0  0  0  0  0
  159.3020  211.1950  153.7330 N   0  0  0  0  0  2  0  0  0  0  0  0
  160.3500  211.8140  152.9390 C   0  0  0  0  0  2  0  0  0  0  0  0
  159.2970  213.6050  151.3430 N   0  0  0  0  0  0  0  0  0  0  0  0
  159.7620  212.8140  152.0480 C   0  0  0  0  0  0  0  0  0  0  0  0
  1  3  1  0  0  0  0
  2  7  1  0  0  0  0
  3 11  1  0  0  0  0
  4 13  1  0  0  0  0
  5  4  1  0  0  0  0
  6  9  1  0  0  0  0
  7 15  1  0  0  0  0
  8  2  2  0  0  0  0
  9  1  2  0  0  0  0
 10  4  2  0  0  0  0
 10  9  1  0  0  0  0
 11  7  2  0  0  0  0
 12  8  1  0  0  0  0
 13  8  1  0  0  0  0
 13  3  2  0  0  0  0
 14 19  1  0  0  0  0
 15 16  1  0  0  0  0
 15 18  2  0  0  0  0
 16 20  1  1  0  0  0
 16 17  1  0  0  0  0
 17 14  1  6  0  0  0
 17 19  1  0  0  0  0
 19 18  1  6  0  0  0
 20 21  2  0  0  0  0
 22 20  1  0  0  0  0
 23 22  1  0  0  0  0
 24 25  3  0  0  0  0
 25 23  1  0  0  0  0
M  END
>  <MODEL>
7

>  <REMARK>
 VINA RESULT:      -8.0      2.534      4.887
  Name = 
  4 active torsions:
  status: ('A' for Active; 'I' for Inactive)
    1  A    between atoms: C_4  and  C_11
    2  A    between atoms: C_5  and  C_10
    3  A    between atoms: C_12  and  C_22
    4  A    between atoms: C_12  and  N_23
                            x       y       z     vdW  Elec       q    Type
                         _______ _______ _______ _____ _____    ______ ____

>  <TORSDO>
F 4

$$$$
=
 OpenBabel11042420153D

 25 28  0  0  1  0  0  0  0  0999 V2000
  161.0240  206.0520  152.6360 N   0  0  0  0  0  0  0  0  0  0  0  0
  161.6450  206.4050  148.5490 C   0  0  0  0  0  3  0  0  0  0  0  0
  161.2290  206.1860  151.3010 C   0  0  0  0  0  0  0  0  0  0  0  0
  161.4960  208.5650  151.6280 C   0  0  0  0  0  0  0  0  0  0  0  0
  161.7350  209.8960  151.1790 N   0  0  0  0  0  1  0  0  0  0  0  0
  160.8210  206.9510  154.9170 C   0  0  0  0  0  1  0  0  0  0  0  0
  161.4030  205.1490  149.1130 C   0  0  0  0  0  0  0  0  0  0  0  0
  161.6850  207.5580  149.3360 C   0  0  0  0  0  0  0  0  0  0  0  0
  161.0500  207.1270  153.4590 C   0  0  0  0  0  0  0  0  0  0  0  0
  161.2830  208.3640  152.9550 N   0  0  0  0  0  0  0  0  0  0  0  0
  161.1940  205.0490  150.4910 C   0  0  0  0  0  3  0  0  0  0  0  0
  161.9540  208.8430  148.6260 C   0  0  0  0  0  1  0  0  0  0  0  0
  161.4760  207.4630  150.7380 C   0  0  0  0  0  0  0  0  0  0  0  0
  159.9470  201.8960  146.9460 N   0  0  0  0  0  2  0  0  0  0  0  0
  161.3620  203.9420  148.2630 C   0  0  0  0  0  0  0  0  0  0  0  0
  161.3090  203.9450  146.7780 C   0  0  2  0  0  3  0  0  0  0  0  0
  161.2060  202.4580  146.4290 C   0  0  1  0  0  3  0  0  0  0  0  0
  161.2750  202.7560  148.7530 N   0  0  0  0  0  0  0  0  0  0  0  0
  161.1950  201.7400  147.7130 C   0  0  1  0  0  3  0  0  0  0  0  0
  162.5580  204.5340  146.1830 C   0  0  0  0  0  0  0  0  0  0  0  0
  163.6640  204.3980  146.7710 O   0  0  0  0  0  0  0  0  0  0  0  0
  162.5070  205.2660  144.9570 N   0  0  0  0  0  2  0  0  0  0  0  0
  161.2710  205.4720  144.2210 C   0  0  0  0  0  2  0  0  0  0  0  0
  161.8260  206.2030  141.7670 N   0  0  0  0  0  0  0  0  0  0  0  0
  161.5810  205.8810  142.8510 C   0  0  0  0  0  0  0  0  0  0  0  0
  1  9  2  0  0  0  0
  2  7  2  0  0  0  0
  2  8  1  0  0  0  0
  3  1  1  0  0  0  0
  4 10  2  0  0  0  0
  5  4  1  0  0  0  0
  7 11  1  0  0  0  0
  8 13  2  0  0  0  0
  9  6  1  0  0  0  0
 10  9  1  0  0  0  0
 11  3  2  0  0  0  0
 12  8  1  0  0  0  0
 13  3  1  0  0  0  0
 13  4  1  0  0  0  0
 15 18  2  0  0  0  0
 15  7  1  0  0  0  0
 16 20  1  6  0  0  0
 16 15  1  0  0  0  0
 17 16  1  0  0  0  0
 17 14  1  1  0  0  0
 17 19  1  0  0  0  0
 19 14  1  1  0  0  0
 19 18  1  0  0  0  0
 20 21  2  0  0  0  0
 22 20  1  0  0  0  0
 23 22  1  0  0  0  0
 24 25  3  0  0  0  0
 25 23  1  0  0  0  0
M  END
>  <MODEL>
8

>  <REMARK>
 VINA RESULT:      -8.0      2.149      8.146
  Name = 
  4 active torsions:
  status: ('A' for Active; 'I' for Inactive)
    1  A    between atoms: C_4  and  C_11
    2  A    between atoms: C_5  and  C_10
    3  A    between atoms: C_12  and  C_22
    4  A    between atoms: C_12  and  N_23
                            x       y       z     vdW  Elec       q    Type
                         _______ _______ _______ _____ _____    ______ ____

>  <TORSDO>
F 4

$$$$
=
 OpenBabel11042420153D

 25 28  0  0  1  0  0  0  0  0999 V2000
  161.2020  207.2740  149.0410 N   0  0  0  0  0  0  0  0  0  0  0  0
  160.8700  207.6690  153.1570 C   0  0  0  0  0  3  0  0  0  0  0  0
  161.0960  207.3840  150.3900 C   0  0  0  0  0  0  0  0  0  0  0  0
  161.4430  204.9990  150.5660 C   0  0  0  0  0  0  0  0  0  0  0  0
  161.5790  203.7800  151.2910 N   0  0  0  0  0  1  0  0  0  0  0  0
  161.5320  205.9810  146.9740 C   0  0  0  0  0  1  0  0  0  0  0  0
  160.7580  208.7950  152.3360 C   0  0  0  0  0  0  0  0  0  0  0  0
  161.0970  206.3990  152.6210 C   0  0  0  0  0  0  0  0  0  0  0  0
  161.4210  206.0740  148.4530 C   0  0  0  0  0  0  0  0  0  0  0  0
  161.5390  204.9560  149.2120 N   0  0  0  0  0  0  0  0  0  0  0  0
  160.8710  208.6420  150.9520 C   0  0  0  0  0  3  0  0  0  0  0  0
  161.2020  205.2730  153.5940 C   0  0  0  0  0  1  0  0  0  0  0  0
  161.2140  206.2380  151.2150 C   0  0  0  0  0  0  0  0  0  0  0  0
  158.7810  212.1590  153.8120 N   0  0  0  0  0  2  0  0  0  0  0  0
  160.5180  210.1280  152.9230 C   0  0  0  0  0  0  0  0  0  0  0  0
  160.4360  210.4190  154.3780 C   0  0  2  0  0  3  0  0  0  0  0  0
  160.1010  211.9120  154.4180 C   0  0  1  0  0  3  0  0  0  0  0  0
  160.2610  211.1630  152.2030 N   0  0  0  0  0  0  0  0  0  0  0  0
  160.0070  212.3440  153.0140 C   0  0  1  0  0  3  0  0  0  0  0  0
  161.7470  210.1610  155.0660 C   0  0  0  0  0  0  0  0  0  0  0  0
  162.8320  210.3910  154.4660 O   0  0  0  0  0  0  0  0  0  0  0  0
  161.7840  209.6400  156.3950 N   0  0  0  0  0  2  0  0  0  0  0  0
  160.5790  209.3440  157.1520 C   0  0  0  0  0  2  0  0  0  0  0  0
  159.7100  206.9560  156.5140 N   0  0  0  0  0  0  0  0  0  0  0  0
  160.0940  208.0110  156.7960 C   0  0  0  0  0  0  0  0  0  0  0  0
  1  3  1  0  0  0  0
  3 11  2  0  0  0  0
  3 13  1  0  0  0  0
  4 13  1  0  0  0  0
  4  5  1  0  0  0  0
  6  9  1  0  0  0  0
  7 15  1  0  0  0  0
  7  2  2  0  0  0  0
  8  2  1  0  0  0  0
  8 12  1  0  0  0  0
  9  1  2  0  0  0  0
  9 10  1  0  0  0  0
 10  4  2  0  0  0  0
 11  7  1  0  0  0  0
 13  8  2  0  0  0  0
 15 16  1  0  0  0  0
 16 17  1  0  0  0  0
 16 20  1  1  0  0  0
 17 14  1  6  0  0  0
 18 15  2  0  0  0  0
 19 18  1  6  0  0  0
 19 14  1  0  0  0  0
 19 17  1  0  0  0  0
 20 22  1  0  0  0  0
 21 20  2  0  0  0  0
 22 23  1  0  0  0  0
 24 25  3  0  0  0  0
 25 23  1  0  0  0  0
M  END
>  <MODEL>
9

>  <REMARK>
 VINA RESULT:      -7.7      2.048      3.103
  Name = 
  4 active torsions:
  status: ('A' for Active; 'I' for Inactive)
    1  A    between atoms: C_4  and  C_11
    2  A    between atoms: C_5  and  C_10
    3  A    between atoms: C_12  and  C_22
    4  A    between atoms: C_12  and  N_23
                            x       y       z     vdW  Elec       q    Type
                         _______ _______ _______ _____ _____    ______ ____

>  <TORSDO>
F 4

$$$$
