=
 OpenBabel11052412113D

 56 68  0  0  1  0  0  0  0  0999 V2000
  159.7790  209.4360  155.0690 C   0  0  2  0  0  3  0  0  0  0  0  0
  160.2230  208.2100  152.8080 C   0  0  0  0  0  2  0  0  0  0  0  0
  161.2710  206.0170  154.4670 C   0  0  0  0  0  3  0  0  0  0  0  0
  161.0570  207.0650  152.1660 C   0  0  2  0  0  3  0  0  0  0  0  0
  160.3600  208.2580  154.3250 C   0  0  1  0  0  0  0  0  0  0  0  0
  161.9590  206.2740  153.1420 C   0  0  2  0  0  3  0  0  0  0  0  0
  160.5600  210.6820  154.6950 C   0  0  2  0  0  3  0  0  0  0  0  0
  161.2750  209.3530  154.8190 C   0  0  1  0  0  3  0  0  0  0  0  0
  160.5280  206.9630  155.0470 C   0  0  0  0  0  3  0  0  0  0  0  0
  161.6140  208.8850  150.2770 C   0  0  2  0  0  0  0  0  0  0  0  0
  160.6930  207.7340  149.9330 C   0  0  2  0  0  3  0  0  0  0  0  0
  162.6480  208.6270  151.2740 N   0  0  0  0  0  2  0  0  0  0  0  0
  162.4040  209.3820  149.0330 C   0  0  1  0  0  3  0  0  0  0  0  0
  161.8230  207.4790  150.8930 C   0  0  2  0  0  0  0  0  0  0  0  0
  161.9150  207.2320  147.8130 C   0  0  0  0  0  0  0  0  0  0  0  0
  162.7350  208.3620  148.0470 N   0  0  0  0  0  2  0  0  0  0  0  0
  160.9440  206.9410  148.6760 C   0  0  0  0  0  3  0  0  0  0  0  0
  161.8360  210.5760  148.3820 N   0  0  0  0  0  0  0  0  0  0  0  0
  162.9020  211.2650  147.6650 C   0  0  0  0  0  2  0  0  0  0  0  0
  161.2930  211.5150  149.3540 C   0  0  0  0  0  2  0  0  0  0  0  0
  161.6350  212.9050  148.8770 C   0  0  0  0  0  2  0  0  0  0  0  0
  162.8700  212.7300  148.0390 C   0  0  0  0  0  2  0  0  0  0  0  0
  162.1420  206.4070  146.5860 C   0  0  0  0  0  3  0  0  0  0  0  0
  160.9110  206.3930  145.6990 C   0  0  0  0  0  1  0  0  0  0  0  0
  162.5710  204.9830  146.9100 C   0  0  0  0  0  1  0  0  0  0  0  0
  160.8120  211.5260  155.9290 C   0  0  0  0  0  2  0  0  0  0  0  0
  158.9370  212.0360  157.2470 C   0  0  0  0  0  2  0  0  0  0  0  0
  159.7300  212.4790  156.1040 N   0  0  0  0  0  0  0  0  0  0  0  0
  157.7250  214.4520  155.9020 O   0  0  0  0  0  0  0  0  0  0  0  0
  158.8560  212.3670  154.9320 C   0  0  1  0  0  3  0  0  0  0  0  0
  157.2400  213.7990  157.0550 C   0  0  0  0  0  2  0  0  0  0  0  0
  157.4360  212.1070  155.4300 C   0  0  2  0  0  3  0  0  0  0  0  0
  157.7910  213.4690  154.8920 C   0  0  1  0  0  0  0  0  0  0  0  0
  157.4890  212.3100  156.9070 C   0  0  1  0  0  3  0  0  0  0  0  0
  157.9460  213.8600  152.4970 C   0  0  0  0  0  3  0  0  0  0  0  0
  157.3830  214.1740  151.2630 C   0  0  0  0  0  0  0  0  0  0  0  0
  156.0500  214.4200  151.1810 N   0  0  0  0  0  0  0  0  0  0  0  0
  155.2590  214.3690  152.2810 C   0  0  0  0  0  3  0  0  0  0  0  0
  155.0830  214.0380  154.5420 O   0  0  0  0  0  0  0  0  0  0  0  0
  158.3870  214.2600  149.8330 Cl  0  0  0  0  0  0  0  0  0  0  0  0
  157.1590  213.7830  153.6080 N   0  0  0  0  0  0  0  0  0  0  0  0
  155.8180  214.0520  153.5180 C   0  0  0  0  0  0  0  0  0  0  0  0
  162.3950  204.9560  152.5000 C   0  0  0  0  0  2  0  0  0  0  0  0
  161.2300  203.9970  152.3240 C   0  0  0  0  0  2  0  0  0  0  0  0
  160.6020  204.2040  150.9580 C   0  0  0  0  0  2  0  0  0  0  0  0
  160.7070  201.8330  150.8370 O   0  0  0  0  0  0  0  0  0  0  0  0
  160.3060  202.9180  148.8080 N   0  0  0  0  0  2  0  0  0  0  0  0
  160.5470  202.9180  150.2150 C   0  0  0  0  0  0  0  0  0  0  0  0
  161.6010  201.3560  147.6780 C   0  0  2  0  0  0  0  0  0  0  0  0
  160.6080  202.0060  146.7470 C   0  0  2  0  0  3  0  0  0  0  0  0
  161.7700  200.0570  147.1050 O   0  0  0  0  0  0  0  0  0  0  0  0
  160.2170  201.7140  148.1010 N   0  0  0  0  0  0  0  0  0  0  0  0
  161.7330  200.0850  148.4760 C   0  0  0  0  0  2  0  0  0  0  0  0
  159.7940  201.1140  145.7990 C   0  0  0  0  0  2  0  0  0  0  0  0
  159.8530  203.1000  144.5680 C   0  0  0  0  0  1  0  0  0  0  0  0
  159.8400  201.6520  144.4510 N   0  0  0  0  0  2  0  0  0  0  0  0
  2  5  1  0  0  0  0
  3  9  2  0  0  0  0
  4  2  1  0  0  0  0
  4  6  1  0  0  0  0
  5  8  1  0  0  0  0
  5  9  1  0  0  0  0
  5  1  1  0  0  0  0
  6  3  1  0  0  0  0
  7  8  1  0  0  0  0
  7  1  1  0  0  0  0
  7 26  1  0  0  0  0
  8  1  1  0  0  0  0
 10 14  1  0  0  0  0
 10 12  1  0  0  0  0
 11 10  1  0  0  0  0
 11 14  1  0  0  0  0
 13 10  1  0  0  0  0
 14 12  1  0  0  0  0
 14  4  1  0  0  0  0
 15 16  1  0  0  0  0
 15 17  2  0  0  0  0
 16 13  1  0  0  0  0
 17 11  1  0  0  0  0
 18 13  1  0  0  0  0
 18 20  1  0  0  0  0
 19 22  1  0  0  0  0
 19 18  1  0  0  0  0
 21 20  1  0  0  0  0
 22 21  1  0  0  0  0
 23 25  1  0  0  0  0
 23 15  1  0  0  0  0
 24 23  1  0  0  0  0
 26 28  1  0  0  0  0
 28 27  1  0  0  0  0
 29 31  1  0  0  0  0
 30 32  1  0  0  0  0
 30 28  1  0  0  0  0
 32 34  1  0  0  0  0
 33 30  1  0  0  0  0
 33 32  1  0  0  0  0
 33 29  1  0  0  0  0
 34 31  1  0  0  0  0
 34 27  1  0  0  0  0
 35 41  1  0  0  0  0
 36 35  2  0  0  0  0
 37 36  1  0  0  0  0
 37 38  2  0  0  0  0
 38 42  1  0  0  0  0
 40 36  1  0  0  0  0
 41 33  1  0  0  0  0
 42 41  1  0  0  0  0
 42 39  2  0  0  0  0
 43  6  1  0  0  0  0
 44 43  1  0  0  0  0
 45 44  1  0  0  0  0
 47 48  1  0  0  0  0
 48 46  2  0  0  0  0
 48 45  1  0  0  0  0
 49 52  1  0  0  0  0
 49 53  1  0  0  0  0
 50 49  1  0  0  0  0
 50 52  1  0  0  0  0
 51 49  1  0  0  0  0
 51 53  1  0  0  0  0
 52 47  1  0  0  0  0
 54 50  1  0  0  0  0
 56 55  1  0  0  0  0
 56 54  1  0  0  0  0
M  END
>  <MODEL>
1

>  <REMARK>
 VINA RESULT:      -6.1      0.000      0.000
  Name = 
  13 active torsions:
  status: ('A' for Active; 'I' for Inactive)
    1  A    between atoms: C_4  and  C_25
    2  A    between atoms: N_6  and  C_13
    3  A    between atoms: N_7  and  C_8
    4  A    between atoms: C_8  and  C_53
    5  A    between atoms: C_19  and  C_27
    6  A    between atoms: C_26  and  C_45
    7  A    between atoms: C_35  and  N_43
    8  A    between atoms: N_36  and  N_38
    9  A    between atoms: C_37  and  C_42
   10  A    between atoms: C_37  and  C_51
   11  A    between atoms: C_42  and  C_52
   12  A    between atoms: C_45  and  N_47
   13  A    between atoms: C_48  and  C_52
                            x       y       z     vdW  Elec       q    Type
                         _______ _______ _______ _____ _____    ______ ____

>  <TORSDO>
F 13

$$$$
=
 OpenBabel11052412113D

 56 68  0  0  1  0  0  0  0  0999 V2000
  161.0870  211.7200  149.2790 C   0  0  2  0  0  3  0  0  0  0  0  0
  160.7230  209.2140  149.9090 C   0  0  0  0  0  2  0  0  0  0  0  0
  162.0120  209.9060  152.4620 C   0  0  0  0  0  3  0  0  0  0  0  0
  161.2190  208.0970  150.8700 C   0  0  2  0  0  3  0  0  0  0  0  0
  161.3100  210.5800  150.2440 C   0  0  1  0  0  0  0  0  0  0  0  0
  162.2950  208.5310  151.8930 C   0  0  2  0  0  3  0  0  0  0  0  0
  161.8320  211.4230  147.9920 C   0  0  2  0  0  3  0  0  0  0  0  0
  162.4260  211.0060  149.3200 C   0  0  1  0  0  3  0  0  0  0  0  0
  161.5660  210.8910  151.6800 C   0  0  0  0  0  3  0  0  0  0  0  0
  161.1970  206.5360  148.6890 C   0  0  2  0  0  0  0  0  0  0  0  0
  160.2540  206.2120  149.8290 C   0  0  2  0  0  3  0  0  0  0  0  0
  162.4660  207.1640  149.0410 N   0  0  0  0  0  2  0  0  0  0  0  0
  161.6120  205.2590  147.9040 C   0  0  1  0  0  3  0  0  0  0  0  0
  161.6060  206.7810  150.1630 C   0  0  2  0  0  0  0  0  0  0  0  0
  160.8840  203.7950  149.8210 C   0  0  0  0  0  0  0  0  0  0  0  0
  161.7010  204.0360  148.6910 N   0  0  0  0  0  2  0  0  0  0  0  0
  160.1880  204.7990  150.3480 C   0  0  0  0  0  3  0  0  0  0  0  0
  160.8540  205.0290  146.6610 N   0  0  0  0  0  0  0  0  0  0  0  0
  161.6590  204.1990  145.7730 C   0  0  0  0  0  2  0  0  0  0  0  0
  160.5790  206.2740  145.9570 C   0  0  0  0  0  2  0  0  0  0  0  0
  160.7380  206.0020  144.4820 C   0  0  0  0  0  2  0  0  0  0  0  0
  161.6940  204.8460  144.4060 C   0  0  0  0  0  2  0  0  0  0  0  0
  160.8030  202.4100  150.3810 C   0  0  0  0  0  3  0  0  0  0  0  0
  161.7900  202.2190  151.5170 C   0  0  0  0  0  1  0  0  0  0  0  0
  161.0100  201.3370  149.3220 C   0  0  0  0  0  1  0  0  0  0  0  0
  162.5160  212.6770  147.4870 C   0  0  0  0  0  2  0  0  0  0  0  0
  160.3300  213.4280  147.0730 C   0  0  0  0  0  2  0  0  0  0  0  0
  161.6730  213.3390  146.5060 N   0  0  0  0  0  0  0  0  0  0  0  0
  160.4280  214.4530  144.2330 O   0  0  0  0  0  0  0  0  0  0  0  0
  161.5690  212.4460  145.3480 C   0  0  1  0  0  3  0  0  0  0  0  0
  159.3020  214.4360  145.0840 C   0  0  0  0  0  2  0  0  0  0  0  0
  160.0870  212.2170  145.0640 C   0  0  2  0  0  3  0  0  0  0  0  0
  160.8800  213.1180  144.1540 C   0  0  1  0  0  0  0  0  0  0  0  0
  159.3600  213.1840  145.9380 C   0  0  1  0  0  3  0  0  0  0  0  0
  160.0330  212.0660  142.1320 C   0  0  0  0  0  3  0  0  0  0  0  0
  160.2100  211.5140  140.8660 C   0  0  0  0  0  0  0  0  0  0  0  0
  161.4560  211.4590  140.3300 N   0  0  0  0  0  0  0  0  0  0  0  0
  162.5330  211.9300  141.0090 C   0  0  0  0  0  3  0  0  0  0  0  0
  163.3670  212.8930  142.9130 O   0  0  0  0  0  0  0  0  0  0  0  0
  158.8380  210.8880  139.9790 Cl  0  0  0  0  0  0  0  0  0  0  0  0
  161.1020  212.5640  142.8170 N   0  0  0  0  0  0  0  0  0  0  0  0
  162.3590  212.4870  142.2750 C   0  0  0  0  0  0  0  0  0  0  0  0
  162.3970  207.4970  153.0150 C   0  0  0  0  0  2  0  0  0  0  0  0
  161.0500  207.2260  153.6630 C   0  0  0  0  0  2  0  0  0  0  0  0
  161.1610  207.4140  155.1650 C   0  0  0  0  0  2  0  0  0  0  0  0
  161.9720  209.4650  156.0520 O   0  0  0  0  0  0  0  0  0  0  0  0
  159.7820  209.5260  155.2440 N   0  0  0  0  0  2  0  0  0  0  0  0
  161.0090  208.8510  155.5180 C   0  0  0  0  0  0  0  0  0  0  0  0
  158.1800  211.1300  155.7460 C   0  0  2  0  0  0  0  0  0  0  0  0
  158.8840  211.4600  154.4530 C   0  0  2  0  0  3  0  0  0  0  0  0
  157.8220  212.4200  156.2500 O   0  0  0  0  0  0  0  0  0  0  0  0
  159.6360  210.8860  155.5380 N   0  0  0  0  0  0  0  0  0  0  0  0
  158.2480  211.5250  157.1980 C   0  0  0  0  0  2  0  0  0  0  0  0
  159.3720  212.8980  154.2260 C   0  0  0  0  0  2  0  0  0  0  0  0
  158.5260  212.6850  152.0580 C   0  0  0  0  0  1  0  0  0  0  0  0
  158.5460  213.5490  153.2260 N   0  0  0  0  0  2  0  0  0  0  0  0
  1  8  1  0  0  0  0
  1  5  1  0  0  0  0
  2  5  1  0  0  0  0
  2  4  1  0  0  0  0
  4  6  1  0  0  0  0
  5  9  1  0  0  0  0
  6  3  1  0  0  0  0
  6 43  1  0  0  0  0
  7  1  1  0  0  0  0
  7  8  1  0  0  0  0
  8  5  1  0  0  0  0
  9  3  2  0  0  0  0
 10 12  1  0  0  0  0
 10 11  1  0  0  0  0
 10 14  1  0  0  0  0
 11 14  1  0  0  0  0
 11 17  1  0  0  0  0
 12 14  1  0  0  0  0
 13 10  1  0  0  0  0
 13 16  1  0  0  0  0
 14  4  1  0  0  0  0
 15 17  2  0  0  0  0
 15 23  1  0  0  0  0
 16 15  1  0  0  0  0
 18 13  1  0  0  0  0
 19 18  1  0  0  0  0
 20 18  1  0  0  0  0
 21 20  1  0  0  0  0
 22 21  1  0  0  0  0
 22 19  1  0  0  0  0
 23 24  1  0  0  0  0
 25 23  1  0  0  0  0
 26  7  1  0  0  0  0
 28 27  1  0  0  0  0
 28 26  1  0  0  0  0
 29 31  1  0  0  0  0
 30 28  1  0  0  0  0
 31 34  1  0  0  0  0
 32 30  1  0  0  0  0
 32 34  1  0  0  0  0
 33 29  1  0  0  0  0
 33 32  1  0  0  0  0
 33 30  1  0  0  0  0
 34 27  1  0  0  0  0
 35 41  1  0  0  0  0
 36 35  2  0  0  0  0
 37 36  1  0  0  0  0
 37 38  2  0  0  0  0
 38 42  1  0  0  0  0
 40 36  1  0  0  0  0
 41 33  1  0  0  0  0
 42 41  1  0  0  0  0
 42 39  2  0  0  0  0
 43 44  1  0  0  0  0
 44 45  1  0  0  0  0
 45 48  1  0  0  0  0
 47 48  1  0  0  0  0
 47 52  1  0  0  0  0
 48 46  2  0  0  0  0
 49 51  1  0  0  0  0
 49 53  1  0  0  0  0
 50 52  1  0  0  0  0
 50 49  1  0  0  0  0
 51 53  1  0  0  0  0
 52 49  1  0  0  0  0
 54 50  1  0  0  0  0
 55 56  1  0  0  0  0
 56 54  1  0  0  0  0
M  END
>  <MODEL>
2

>  <REMARK>
 VINA RESULT:      -5.9      4.061      9.166
  Name = 
  13 active torsions:
  status: ('A' for Active; 'I' for Inactive)
    1  A    between atoms: C_4  and  C_25
    2  A    between atoms: N_6  and  C_13
    3  A    between atoms: N_7  and  C_8
    4  A    between atoms: C_8  and  C_53
    5  A    between atoms: C_19  and  C_27
    6  A    between atoms: C_26  and  C_45
    7  A    between atoms: C_35  and  N_43
    8  A    between atoms: N_36  and  N_38
    9  A    between atoms: C_37  and  C_42
   10  A    between atoms: C_37  and  C_51
   11  A    between atoms: C_42  and  C_52
   12  A    between atoms: C_45  and  N_47
   13  A    between atoms: C_48  and  C_52
                            x       y       z     vdW  Elec       q    Type
                         _______ _______ _______ _____ _____    ______ ____

>  <TORSDO>
F 13

$$$$
=
 OpenBabel11052412113D

 56 68  0  0  1  0  0  0  0  0999 V2000
  161.4560  209.7750  154.2050 C   0  0  2  0  0  3  0  0  0  0  0  0
  162.6290  208.6960  152.1380 C   0  0  0  0  0  2  0  0  0  0  0  0
  161.6540  211.0380  150.6480 C   0  0  0  0  0  3  0  0  0  0  0  0
  162.6480  208.7050  150.5840 C   0  0  2  0  0  3  0  0  0  0  0  0
  161.7400  209.7870  152.7210 C   0  0  1  0  0  0  0  0  0  0  0  0
  161.6860  209.7140  149.9140 C   0  0  2  0  0  3  0  0  0  0  0  0
  160.6180  208.5530  154.5300 C   0  0  2  0  0  3  0  0  0  0  0  0
  160.4070  209.2840  153.2220 C   0  0  1  0  0  3  0  0  0  0  0  0
  161.6560  211.0800  151.9830 C   0  0  0  0  0  3  0  0  0  0  0  0
  161.9810  207.1450  148.5060 C   0  0  2  0  0  0  0  0  0  0  0  0
  161.0590  207.1970  149.7080 C   0  0  2  0  0  3  0  0  0  0  0  0
  163.4040  207.3380  148.7590 N   0  0  0  0  0  2  0  0  0  0  0  0
  161.9080  205.7710  147.7840 C   0  0  1  0  0  3  0  0  0  0  0  0
  162.5410  207.3060  149.9420 C   0  0  2  0  0  0  0  0  0  0  0  0
  160.8700  204.7090  149.8190 C   0  0  0  0  0  0  0  0  0  0  0  0
  161.6460  204.6210  148.6390 N   0  0  0  0  0  2  0  0  0  0  0  0
  160.5720  205.9070  150.3150 C   0  0  0  0  0  3  0  0  0  0  0  0
  161.0370  205.7480  146.5940 N   0  0  0  0  0  0  0  0  0  0  0  0
  160.5870  204.3790  146.3740 C   0  0  0  0  0  2  0  0  0  0  0  0
  161.7500  206.1670  145.3940 C   0  0  0  0  0  2  0  0  0  0  0  0
  161.2790  205.2880  144.2620 C   0  0  0  0  0  2  0  0  0  0  0  0
  160.8260  204.0180  144.9240 C   0  0  0  0  0  2  0  0  0  0  0  0
  160.3800  203.4520  150.4660 C   0  0  0  0  0  3  0  0  0  0  0  0
  160.8640  203.3490  151.9000 C   0  0  0  0  0  1  0  0  0  0  0  0
  160.7720  202.2030  149.6900 C   0  0  0  0  0  1  0  0  0  0  0  0
  159.5250  208.9210  155.5140 C   0  0  0  0  0  2  0  0  0  0  0  0
  159.2480  210.5630  157.1700 C   0  0  0  0  0  2  0  0  0  0  0  0
  159.5400  210.3540  155.7550 N   0  0  0  0  0  0  0  0  0  0  0  0
  159.4770  213.1720  155.6670 O   0  0  0  0  0  0  0  0  0  0  0  0
  158.4150  210.9320  155.0150 C   0  0  1  0  0  3  0  0  0  0  0  0
  159.2460  213.0150  157.0500 C   0  0  0  0  0  2  0  0  0  0  0  0
  157.5710  211.7360  156.0010 C   0  0  2  0  0  3  0  0  0  0  0  0
  158.4450  212.4660  155.0130 C   0  0  1  0  0  0  0  0  0  0  0  0
  158.3720  211.7930  157.2570 C   0  0  1  0  0  3  0  0  0  0  0  0
  156.3630  213.3790  154.1530 C   0  0  0  0  0  3  0  0  0  0  0  0
  155.6190  214.0360  153.1760 C   0  0  0  0  0  0  0  0  0  0  0  0
  156.2310  214.4530  152.0380 N   0  0  0  0  0  0  0  0  0  0  0  0
  157.5550  214.2390  151.8360 C   0  0  0  0  0  3  0  0  0  0  0  0
  159.5270  213.3610  152.6040 O   0  0  0  0  0  0  0  0  0  0  0  0
  153.9060  214.3100  153.4100 Cl  0  0  0  0  0  0  0  0  0  0  0  0
  157.7000  213.1770  153.9730 N   0  0  0  0  0  0  0  0  0  0  0  0
  158.3050  213.5860  152.8130 C   0  0  0  0  0  0  0  0  0  0  0  0
  162.0800  209.9210  148.4510 C   0  0  0  0  0  2  0  0  0  0  0  0
  162.1660  211.3940  148.0890 C   0  0  0  0  0  2  0  0  0  0  0  0
  160.8210  211.8700  147.5730 C   0  0  0  0  0  2  0  0  0  0  0  0
  161.6450  213.6950  146.2940 O   0  0  0  0  0  0  0  0  0  0  0  0
  160.4220  212.1090  145.0930 N   0  0  0  0  0  2  0  0  0  0  0  0
  160.9910  212.6170  146.3000 C   0  0  0  0  0  0  0  0  0  0  0  0
  159.2630  212.8840  143.2370 C   0  0  2  0  0  0  0  0  0  0  0  0
  160.2790  211.8430  142.8400 C   0  0  2  0  0  3  0  0  0  0  0  0
  159.1820  213.7110  142.0720 O   0  0  0  0  0  0  0  0  0  0  0  0
  160.6040  212.7830  143.8800 N   0  0  0  0  0  0  0  0  0  0  0  0
  159.1400  214.3860  143.2670 C   0  0  0  0  0  2  0  0  0  0  0  0
  161.1830  212.1210  141.6300 C   0  0  0  0  0  2  0  0  0  0  0  0
  162.5460  210.8720  140.2000 C   0  0  0  0  0  1  0  0  0  0  0  0
  161.2050  210.9660  140.7520 N   0  0  0  0  0  2  0  0  0  0  0  0
  1  7  1  0  0  0  0
  2  5  1  0  0  0  0
  3  9  2  0  0  0  0
  4  2  1  0  0  0  0
  5  8  1  0  0  0  0
  5  1  1  0  0  0  0
  6  4  1  0  0  0  0
  6  3  1  0  0  0  0
  7 26  1  0  0  0  0
  8  1  1  0  0  0  0
  8  7  1  0  0  0  0
  9  5  1  0  0  0  0
 10 12  1  0  0  0  0
 10 11  1  0  0  0  0
 10 14  1  0  0  0  0
 11 14  1  0  0  0  0
 11 17  1  0  0  0  0
 12 14  1  0  0  0  0
 13 10  1  0  0  0  0
 13 16  1  0  0  0  0
 14  4  1  0  0  0  0
 15 17  2  0  0  0  0
 15 23  1  0  0  0  0
 16 15  1  0  0  0  0
 18 13  1  0  0  0  0
 19 18  1  0  0  0  0
 20 18  1  0  0  0  0
 21 22  1  0  0  0  0
 21 20  1  0  0  0  0
 22 19  1  0  0  0  0
 23 24  1  0  0  0  0
 25 23  1  0  0  0  0
 26 28  1  0  0  0  0
 27 34  1  0  0  0  0
 28 27  1  0  0  0  0
 29 31  1  0  0  0  0
 30 28  1  0  0  0  0
 30 32  1  0  0  0  0
 31 34  1  0  0  0  0
 32 34  1  0  0  0  0
 33 30  1  0  0  0  0
 33 29  1  0  0  0  0
 33 32  1  0  0  0  0
 36 40  1  0  0  0  0
 36 35  2  0  0  0  0
 37 36  1  0  0  0  0
 38 37  2  0  0  0  0
 38 42  1  0  0  0  0
 39 42  2  0  0  0  0
 41 35  1  0  0  0  0
 41 33  1  0  0  0  0
 42 41  1  0  0  0  0
 43  6  1  0  0  0  0
 44 43  1  0  0  0  0
 45 44  1  0  0  0  0
 46 48  2  0  0  0  0
 47 48  1  0  0  0  0
 48 45  1  0  0  0  0
 49 53  1  0  0  0  0
 49 52  1  0  0  0  0
 50 49  1  0  0  0  0
 50 52  1  0  0  0  0
 51 49  1  0  0  0  0
 51 53  1  0  0  0  0
 52 47  1  0  0  0  0
 54 50  1  0  0  0  0
 55 56  1  0  0  0  0
 56 54  1  0  0  0  0
M  END
>  <MODEL>
3

>  <REMARK>
 VINA RESULT:      -4.5      3.590      6.600
  Name = 
  13 active torsions:
  status: ('A' for Active; 'I' for Inactive)
    1  A    between atoms: C_4  and  C_25
    2  A    between atoms: N_6  and  C_13
    3  A    between atoms: N_7  and  C_8
    4  A    between atoms: C_8  and  C_53
    5  A    between atoms: C_19  and  C_27
    6  A    between atoms: C_26  and  C_45
    7  A    between atoms: C_35  and  N_43
    8  A    between atoms: N_36  and  N_38
    9  A    between atoms: C_37  and  C_42
   10  A    between atoms: C_37  and  C_51
   11  A    between atoms: C_42  and  C_52
   12  A    between atoms: C_45  and  N_47
   13  A    between atoms: C_48  and  C_52
                            x       y       z     vdW  Elec       q    Type
                         _______ _______ _______ _____ _____    ______ ____

>  <TORSDO>
F 13

$$$$
=
 OpenBabel11052412113D

 56 68  0  0  1  0  0  0  0  0999 V2000
  160.7640  205.9740  150.7970 C   0  0  2  0  0  3  0  0  0  0  0  0
  160.3810  208.4540  151.5150 C   0  0  0  0  0  2  0  0  0  0  0  0
  162.1380  209.1400  149.2560 C   0  0  0  0  0  3  0  0  0  0  0  0
  160.9780  209.8840  151.3870 C   0  0  2  0  0  3  0  0  0  0  0  0
  161.0920  207.4390  150.6290 C   0  0  1  0  0  0  0  0  0  0  0  0
  162.2400  209.9990  150.4990 C   0  0  2  0  0  3  0  0  0  0  0  0
  161.2520  205.5200  152.1590 C   0  0  2  0  0  3  0  0  0  0  0  0
  162.0490  206.5410  151.3760 C   0  0  1  0  0  3  0  0  0  0  0  0
  161.6150  207.9130  149.3140 C   0  0  0  0  0  3  0  0  0  0  0  0
  161.0780  209.8320  154.0660 C   0  0  2  0  0  0  0  0  0  0  0  0
  159.8320  210.3670  153.3910 C   0  0  2  0  0  3  0  0  0  0  0  0
  162.3410  210.0170  153.3600 N   0  0  0  0  0  2  0  0  0  0  0  0
  161.3170  210.5030  155.4490 C   0  0  1  0  0  3  0  0  0  0  0  0
  161.1610  210.6160  152.7320 C   0  0  2  0  0  0  0  0  0  0  0  0
  159.7750  212.4000  154.8410 C   0  0  0  0  0  0  0  0  0  0  0  0
  160.8790  211.8870  155.5630 N   0  0  0  0  0  2  0  0  0  0  0  0
  159.2640  211.6900  153.8390 C   0  0  0  0  0  3  0  0  0  0  0  0
  160.8550  209.7100  156.6030 N   0  0  0  0  0  0  0  0  0  0  0  0
  161.9710  208.9100  157.0930 C   0  0  0  0  0  2  0  0  0  0  0  0
  159.7920  208.7850  156.2320 C   0  0  0  0  0  2  0  0  0  0  0  0
  160.0320  207.4990  156.9840 C   0  0  0  0  0  2  0  0  0  0  0  0
  161.5120  207.4770  157.2450 C   0  0  0  0  0  2  0  0  0  0  0  0
  159.1910  213.7190  155.2400 C   0  0  0  0  0  3  0  0  0  0  0  0
  158.9490  213.7810  156.7360 C   0  0  0  0  0  1  0  0  0  0  0  0
  157.9080  214.0430  154.4880 C   0  0  0  0  0  1  0  0  0  0  0  0
  161.9040  204.1560  152.0480 C   0  0  0  0  0  2  0  0  0  0  0  0
  161.3410  201.9120  151.6410 C   0  0  0  0  0  2  0  0  0  0  0  0
  161.0890  203.2860  151.2170 N   0  0  0  0  0  0  0  0  0  0  0  0
  159.5070  202.0350  149.2450 O   0  0  0  0  0  0  0  0  0  0  0  0
  161.5980  203.3910  149.8460 C   0  0  1  0  0  3  0  0  0  0  0  0
  159.9180  200.8730  149.9320 C   0  0  0  0  0  2  0  0  0  0  0  0
  161.9130  201.9800  149.3550 C   0  0  2  0  0  3  0  0  0  0  0  0
  160.6890  202.6860  148.8310 C   0  0  1  0  0  0  0  0  0  0  0  0
  161.3510  201.0640  150.3890 C   0  0  1  0  0  3  0  0  0  0  0  0
  160.7360  204.3990  147.1070 C   0  0  0  0  0  3  0  0  0  0  0  0
  160.8050  204.8020  145.7760 C   0  0  0  0  0  0  0  0  0  0  0  0
  160.9010  203.8650  144.7980 N   0  0  0  0  0  0  0  0  0  0  0  0
  160.9280  202.5420  145.0960 C   0  0  0  0  0  3  0  0  0  0  0  0
  160.8550  200.9020  146.6950 O   0  0  0  0  0  0  0  0  0  0  0  0
  160.7580  206.5030  145.3670 Cl  0  0  0  0  0  0  0  0  0  0  0  0
  160.7840  203.0730  147.4230 N   0  0  0  0  0  0  0  0  0  0  0  0
  160.8620  202.1340  146.4270 C   0  0  0  0  0  0  0  0  0  0  0  0
  162.4820  211.4610  150.1220 C   0  0  0  0  0  2  0  0  0  0  0  0
  161.8270  211.8230  148.8010 C   0  0  0  0  0  2  0  0  0  0  0  0
  162.8540  212.4550  147.8790 C   0  0  0  0  0  2  0  0  0  0  0  0
  162.9160  213.2970  145.6580 O   0  0  0  0  0  0  0  0  0  0  0  0
  160.7780  212.9750  146.5410 N   0  0  0  0  0  2  0  0  0  0  0  0
  162.2020  212.9350  146.6320 C   0  0  0  0  0  0  0  0  0  0  0  0
  158.7070  213.0480  145.4960 C   0  0  2  0  0  0  0  0  0  0  0  0
  159.6750  212.1990  144.7110 C   0  0  2  0  0  3  0  0  0  0  0  0
  157.8390  213.5610  144.4810 O   0  0  0  0  0  0  0  0  0  0  0  0
  160.1510  213.3910  145.3620 N   0  0  0  0  0  0  0  0  0  0  0  0
  158.1640  214.4530  145.4710 C   0  0  0  0  0  2  0  0  0  0  0  0
  159.7680  212.4000  143.1920 C   0  0  0  0  0  2  0  0  0  0  0  0
  161.2550  211.5020  141.6290 C   0  0  0  0  0  1  0  0  0  0  0  0
  161.1580  212.3900  142.7740 N   0  0  0  0  0  2  0  0  0  0  0  0
  1  8  1  0  0  0  0
  1  7  1  0  0  0  0
  3  9  2  0  0  0  0
  3  6  1  0  0  0  0
  4  2  1  0  0  0  0
  4 14  1  0  0  0  0
  5  1  1  0  0  0  0
  5  8  1  0  0  0  0
  5  2  1  0  0  0  0
  6  4  1  0  0  0  0
  8  7  1  0  0  0  0
  9  5  1  0  0  0  0
 10 13  1  0  0  0  0
 11 17  1  0  0  0  0
 11 10  1  0  0  0  0
 12 10  1  0  0  0  0
 13 16  1  0  0  0  0
 13 18  1  0  0  0  0
 14 12  1  0  0  0  0
 14 11  1  0  0  0  0
 14 10  1  0  0  0  0
 15 23  1  0  0  0  0
 15 16  1  0  0  0  0
 17 15  2  0  0  0  0
 18 19  1  0  0  0  0
 19 22  1  0  0  0  0
 20 18  1  0  0  0  0
 20 21  1  0  0  0  0
 21 22  1  0  0  0  0
 23 24  1  0  0  0  0
 25 23  1  0  0  0  0
 26  7  1  0  0  0  0
 28 27  1  0  0  0  0
 28 26  1  0  0  0  0
 29 31  1  0  0  0  0
 30 28  1  0  0  0  0
 31 34  1  0  0  0  0
 32 30  1  0  0  0  0
 32 34  1  0  0  0  0
 33 29  1  0  0  0  0
 33 32  1  0  0  0  0
 33 30  1  0  0  0  0
 34 27  1  0  0  0  0
 35 41  1  0  0  0  0
 36 35  2  0  0  0  0
 37 38  2  0  0  0  0
 37 36  1  0  0  0  0
 38 42  1  0  0  0  0
 40 36  1  0  0  0  0
 41 33  1  0  0  0  0
 42 39  2  0  0  0  0
 42 41  1  0  0  0  0
 43  6  1  0  0  0  0
 44 43  1  0  0  0  0
 45 44  1  0  0  0  0
 46 48  2  0  0  0  0
 47 48  1  0  0  0  0
 48 45  1  0  0  0  0
 50 52  1  0  0  0  0
 50 49  1  0  0  0  0
 51 53  1  0  0  0  0
 51 49  1  0  0  0  0
 52 49  1  0  0  0  0
 52 47  1  0  0  0  0
 53 49  1  0  0  0  0
 54 50  1  0  0  0  0
 55 56  1  0  0  0  0
 56 54  1  0  0  0  0
M  END
>  <MODEL>
4

>  <REMARK>
 VINA RESULT:      -4.0      3.407     10.298
  Name = 
  13 active torsions:
  status: ('A' for Active; 'I' for Inactive)
    1  A    between atoms: C_4  and  C_25
    2  A    between atoms: N_6  and  C_13
    3  A    between atoms: N_7  and  C_8
    4  A    between atoms: C_8  and  C_53
    5  A    between atoms: C_19  and  C_27
    6  A    between atoms: C_26  and  C_45
    7  A    between atoms: C_35  and  N_43
    8  A    between atoms: N_36  and  N_38
    9  A    between atoms: C_37  and  C_42
   10  A    between atoms: C_37  and  C_51
   11  A    between atoms: C_42  and  C_52
   12  A    between atoms: C_45  and  N_47
   13  A    between atoms: C_48  and  C_52
                            x       y       z     vdW  Elec       q    Type
                         _______ _______ _______ _____ _____    ______ ____

>  <TORSDO>
F 13

$$$$
