=
 OpenBabel11052410343D

 40 46  0  0  1  0  0  0  0  0999 V2000
  159.8390  213.0300  151.4350 C   0  0  0  0  0  2  0  0  0  0  0  0
  160.7080  212.9380  149.1260 C   0  0  1  0  0  3  0  0  0  0  0  0
  161.3300  211.6060  149.4560 C   0  0  0  0  0  3  0  0  0  0  0  0
  160.6710  211.8120  151.8550 C   0  0  2  0  0  3  0  0  0  0  0  0
  161.2280  211.0330  150.6710 C   0  0  0  0  0  0  0  0  0  0  0  0
  160.5710  213.8190  150.3620 C   0  0  0  0  0  2  0  0  0  0  0  0
  161.9010  207.8790  152.3630 C   0  0  0  0  0  2  0  0  0  0  0  0
  162.0690  206.7930  147.5860 C   0  0  0  0  0  2  0  0  0  0  0  0
  160.8810  205.9980  150.9570 C   0  0  1  0  0  3  0  0  0  0  0  0
  161.3770  206.4420  152.3410 C   0  0  0  0  0  2  0  0  0  0  0  0
  161.3070  205.9780  148.5160 N   0  0  0  0  0  2  0  0  0  0  0  0
  161.0600  208.7570  151.5470 N   0  0  1  0  0  0  0  0  0  0  0  0
  162.7810  207.8550  148.3990 C   0  0  0  0  0  2  0  0  0  0  0  0
  161.8830  206.2820  149.8170 C   0  0  1  0  0  3  0  0  0  0  0  0
  162.4130  207.6540  149.7900 N   0  0  2  0  0  0  0  0  0  0  0  0
  161.9550  209.7360  150.9040 C   0  0  1  0  0  3  0  0  0  0  0  0
  161.3750  208.6560  150.0960 C   0  0  2  0  0  3  0  0  0  0  0  0
  160.4680  204.5550  150.9850 C   0  0  0  0  0  3  0  0  0  0  0  0
  161.3500  203.5710  151.1800 C   0  0  0  0  0  3  0  0  0  0  0  0
  160.9030  202.1490  151.1880 C   0  0  0  0  0  2  0  0  0  0  0  0
  161.7180  201.3910  150.3420 O   0  0  0  0  0  0  0  0  0  0  0  0
  161.3670  200.1790  148.0350 O   0  0  0  0  0  1  0  0  0  0  0  0
  161.3440  202.7900  147.9970 O   0  0  0  0  0  0  0  0  0  0  0  0
  160.9330  201.3830  148.8390 P   0  0  0  0  0  0  0  0  0  0  0  0
  159.2550  201.3390  149.0610 O   0  0  0  0  0  1  0  0  0  0  0  0
  160.9190  214.3770  147.2600 O   0  0  0  0  0  0  0  0  0  0  0  0
  162.9510  213.4250  147.9490 C   0  0  0  0  0  1  0  0  0  0  0  0
  161.4800  213.6360  148.0520 C   0  0  0  0  0  0  0  0  0  0  0  0
  159.9050  210.9880  152.6870 O   0  0  0  0  0  0  0  0  0  0  0  0
  160.2430  211.3660  153.9950 C   0  0  2  0  0  3  0  0  0  0  0  0
  160.6020  210.1460  154.8230 C   0  0  0  0  0  1  0  0  0  0  0  0
  156.8330  212.6010  154.1250 C   0  0  0  0  0  2  0  0  0  0  0  0
  155.8080  211.0990  155.7340 O   0  0  0  0  0  0  0  0  0  0  0  0
  159.1830  212.1320  156.1570 C   0  0  0  0  0  0  0  0  0  0  0  0
  160.1460  212.5710  156.8410 O   0  0  0  0  0  0  0  0  0  0  0  0
  156.2280  212.4090  155.4980 C   0  0  1  0  0  3  0  0  0  0  0  0
  157.8090  211.5460  154.3200 N   0  0  2  0  0  0  0  0  0  0  0  0
  157.2050  211.2730  155.6280 C   0  0  2  0  0  0  0  0  0  0  0  0
  158.0310  211.6260  156.7160 O   0  0  0  0  0  0  0  0  0  0  0  0
  159.1100  212.1550  154.6590 C   0  0  2  0  0  3  0  0  0  0  0  0
  1  4  1  0  0  0  0
  2 28  1  6  0  0  0
  2  3  1  0  0  0  0
  2  6  1  0  0  0  0
  3  5  2  0  0  0  0
  4 29  1  6  0  0  0
  5  4  1  0  0  0  0
  6  1  1  0  0  0  0
  8 13  1  0  0  0  0
  8 11  1  0  0  0  0
  9 18  1  1  0  0  0
  9 10  1  0  0  0  0
 10  7  1  0  0  0  0
 12  7  1  1  0  0  0
 14 11  1  6  0  0  0
 14  9  1  0  0  0  0
 15 13  1  6  0  0  0
 15 14  1  0  0  0  0
 15 17  1  0  0  0  0
 16  5  1  6  0  0  0
 16 12  1  0  0  0  0
 17 16  1  0  0  0  0
 17 12  1  0  0  0  0
 18 19  2  0  0  0  0
 19 20  1  0  0  0  0
 21 20  1  0  0  0  0
 22 24  1  0  0  0  0
 23 24  2  0  0  0  0
 24 25  1  0  0  0  0
 24 21  1  0  0  0  0
 26 28  2  0  0  0  0
 27 28  1  0  0  0  0
 29 30  1  0  0  0  0
 30 40  1  0  0  0  0
 30 31  1  0  0  0  0
 32 37  1  0  0  0  0
 32 36  1  0  0  0  0
 34 39  1  0  0  0  0
 34 35  2  0  0  0  0
 36 38  1  0  0  0  0
 36 33  1  0  0  0  0
 37 40  1  0  0  0  0
 37 38  1  0  0  0  0
 38 33  1  0  0  0  0
 38 39  1  0  0  0  0
 40 34  1  0  0  0  0
M  END
>  <MODEL>
1

>  <REMARK>
 VINA RESULT:      -7.0      0.000      0.000
  Name = 
  9 active torsions:
  status: ('A' for Active; 'I' for Inactive)
    1  A    between atoms: C_1  and  C_14
    2  A    between atoms: C_1  and  O_25
    3  A    between atoms: O_5  and  C_7
    4  A    between atoms: O_5  and  C_27
    5  A    between atoms: C_7  and  C_39
    6  A    between atoms: C_11  and  C_24
    7  A    between atoms: P_17  and  O_25
    8  A    between atoms: C_22  and  C_38
    9  A    between atoms: C_31  and  C_37
                            x       y       z     vdW  Elec       q    Type
                         _______ _______ _______ _____ _____    ______ ____

>  <TORSDO>
F 9

$$$$
=
 OpenBabel11052410343D

 40 46  0  0  1  0  0  0  0  0999 V2000
  161.0290  207.9070  151.8020 C   0  0  0  0  0  2  0  0  0  0  0  0
  162.0040  207.2030  149.6460 C   0  0  1  0  0  3  0  0  0  0  0  0
  162.2800  208.6530  149.3430 C   0  0  0  0  0  3  0  0  0  0  0  0
  161.0720  209.3860  151.4010 C   0  0  2  0  0  3  0  0  0  0  0  0
  161.9540  209.6510  150.1880 C   0  0  0  0  0  0  0  0  0  0  0  0
  160.8070  207.0390  150.5750 C   0  0  0  0  0  2  0  0  0  0  0  0
  163.2010  212.2380  147.9490 C   0  0  0  0  0  2  0  0  0  0  0  0
  158.7110  213.7420  149.2160 C   0  0  0  0  0  2  0  0  0  0  0  0
  161.2140  213.1460  146.6120 C   0  0  1  0  0  3  0  0  0  0  0  0
  162.7380  212.9700  146.6880 C   0  0  0  0  0  2  0  0  0  0  0  0
  159.1380  213.7380  147.8280 N   0  0  0  0  0  2  0  0  0  0  0  0
  162.2980  211.1320  148.2740 N   0  0  1  0  0  0  0  0  0  0  0  0
  159.9000  213.3160  150.0530 C   0  0  0  0  0  2  0  0  0  0  0  0
  160.5920  213.7290  147.8990 C   0  0  1  0  0  3  0  0  0  0  0  0
  161.0000  213.0550  149.1410 N   0  0  2  0  0  0  0  0  0  0  0  0
  162.2110  211.0660  149.7450 C   0  0  1  0  0  3  0  0  0  0  0  0
  161.0710  211.5910  148.9810 C   0  0  2  0  0  3  0  0  0  0  0  0
  160.8380  213.9490  145.4010 C   0  0  0  0  0  3  0  0  0  0  0  0
  161.2570  213.6210  144.1760 C   0  0  0  0  0  3  0  0  0  0  0  0
  160.8730  214.4530  143.0000 C   0  0  0  0  0  2  0  0  0  0  0  0
  161.4890  213.9570  141.8470 O   0  0  0  0  0  0  0  0  0  0  0  0
  160.3770  212.9850  139.6710 O   0  0  0  0  0  0  0  0  0  0  0  0
  158.8390  213.2000  141.7710 O   0  0  0  0  0  1  0  0  0  0  0  0
  160.3850  212.8580  141.1770 P   0  0  0  0  0  0  0  0  0  0  0  0
  160.8060  211.2760  141.6080 O   0  0  0  0  0  1  0  0  0  0  0  0
  162.2220  206.8550  147.3160 O   0  0  0  0  0  0  0  0  0  0  0  0
  161.1280  205.1020  148.4320 C   0  0  0  0  0  1  0  0  0  0  0  0
  161.8160  206.4220  148.3840 C   0  0  0  0  0  0  0  0  0  0  0  0
  161.4770  210.1550  152.4980 O   0  0  0  0  0  0  0  0  0  0  0  0
  160.2950  210.4760  153.1810 C   0  0  2  0  0  3  0  0  0  0  0  0
  160.1640  211.9800  153.3360 C   0  0  0  0  0  1  0  0  0  0  0  0
  161.5190  208.1060  155.6430 C   0  0  0  0  0  2  0  0  0  0  0  0
  162.7150  209.5470  157.1880 O   0  0  0  0  0  0  0  0  0  0  0  0
  159.7270  210.6870  155.6360 C   0  0  0  0  0  0  0  0  0  0  0  0
  158.5920  211.2340  155.6490 O   0  0  0  0  0  0  0  0  0  0  0  0
  161.5970  208.7290  157.0180 C   0  0  1  0  0  3  0  0  0  0  0  0
  161.5930  209.3890  154.9700 N   0  0  2  0  0  0  0  0  0  0  0  0
  161.7480  210.0310  156.2800 C   0  0  2  0  0  0  0  0  0  0  0  0
  160.6310  210.8000  156.6670 O   0  0  0  0  0  0  0  0  0  0  0  0
  160.2350  209.7860  154.5480 C   0  0  2  0  0  3  0  0  0  0  0  0
  2 28  1  6  0  0  0
  2  6  1  0  0  0  0
  3  2  1  0  0  0  0
  3  5  2  0  0  0  0
  4  1  1  0  0  0  0
  4 29  1  1  0  0  0
  5  4  1  0  0  0  0
  6  1  1  0  0  0  0
  8 13  1  0  0  0  0
  9 18  1  6  0  0  0
  9 10  1  0  0  0  0
  9 14  1  0  0  0  0
 10  7  1  0  0  0  0
 11  8  1  0  0  0  0
 12  7  1  1  0  0  0
 12 17  1  0  0  0  0
 12 16  1  0  0  0  0
 14 11  1  6  0  0  0
 14 15  1  0  0  0  0
 15 13  1  1  0  0  0
 16  5  1  6  0  0  0
 17 15  1  0  0  0  0
 17 16  1  0  0  0  0
 19 18  2  0  0  0  0
 20 19  1  0  0  0  0
 21 20  1  0  0  0  0
 22 24  2  0  0  0  0
 24 25  1  0  0  0  0
 24 23  1  0  0  0  0
 24 21  1  0  0  0  0
 26 28  2  0  0  0  0
 28 27  1  0  0  0  0
 29 30  1  0  0  0  0
 30 31  1  0  0  0  0
 30 40  1  0  0  0  0
 32 36  1  0  0  0  0
 34 35  2  0  0  0  0
 34 39  1  0  0  0  0
 36 33  1  0  0  0  0
 37 32  1  0  0  0  0
 37 38  1  0  0  0  0
 38 39  1  0  0  0  0
 38 36  1  0  0  0  0
 38 33  1  0  0  0  0
 40 37  1  0  0  0  0
 40 34  1  0  0  0  0
M  END
>  <MODEL>
2

>  <REMARK>
 VINA RESULT:      -6.6      3.833      7.841
  Name = 
  9 active torsions:
  status: ('A' for Active; 'I' for Inactive)
    1  A    between atoms: C_1  and  C_14
    2  A    between atoms: C_1  and  O_25
    3  A    between atoms: O_5  and  C_7
    4  A    between atoms: O_5  and  C_27
    5  A    between atoms: C_7  and  C_39
    6  A    between atoms: C_11  and  C_24
    7  A    between atoms: P_17  and  O_25
    8  A    between atoms: C_22  and  C_38
    9  A    between atoms: C_31  and  C_37
                            x       y       z     vdW  Elec       q    Type
                         _______ _______ _______ _____ _____    ______ ____

>  <TORSDO>
F 9

$$$$
=
 OpenBabel11052410343D

 40 46  0  0  1  0  0  0  0  0999 V2000
  158.2630  213.5500  152.3950 C   0  0  0  0  0  2  0  0  0  0  0  0
  158.6290  213.2360  154.8160 C   0  0  1  0  0  3  0  0  0  0  0  0
  159.6860  212.2150  154.4830 C   0  0  0  0  0  3  0  0  0  0  0  0
  159.1440  212.3440  152.0500 C   0  0  2  0  0  3  0  0  0  0  0  0
  160.0040  211.8780  153.2180 C   0  0  0  0  0  0  0  0  0  0  0  0
  157.5680  213.3250  153.7270 C   0  0  0  0  0  2  0  0  0  0  0  0
  161.4020  208.5390  153.6170 C   0  0  0  0  0  2  0  0  0  0  0  0
  161.9010  209.5390  148.8450 C   0  0  0  0  0  2  0  0  0  0  0  0
  160.8930  207.2130  151.4860 C   0  0  1  0  0  3  0  0  0  0  0  0
  161.2450  207.1580  152.9800 C   0  0  0  0  0  2  0  0  0  0  0  0
  161.3480  208.2730  149.2940 N   0  0  0  0  0  2  0  0  0  0  0  0
  160.3840  209.4660  153.1180 N   0  0  1  0  0  0  0  0  0  0  0  0
  162.3200  210.3090  150.0800 C   0  0  0  0  0  2  0  0  0  0  0  0
  161.8130  208.1440  150.6660 C   0  0  1  0  0  3  0  0  0  0  0  0
  161.9920  209.4890  151.2340 N   0  0  2  0  0  0  0  0  0  0  0  0
  161.0230  210.7900  153.0100 C   0  0  1  0  0  3  0  0  0  0  0  0
  160.7360  210.0300  151.7860 C   0  0  2  0  0  3  0  0  0  0  0  0
  160.8450  205.8290  150.9060 C   0  0  0  0  0  3  0  0  0  0  0  0
  161.2680  204.7620  151.5880 C   0  0  0  0  0  3  0  0  0  0  0  0
  161.2170  203.4050  150.9720 C   0  0  0  0  0  2  0  0  0  0  0  0
  160.7360  203.4970  149.6620 O   0  0  0  0  0  0  0  0  0  0  0  0
  161.4480  200.9800  149.9420 O   0  0  0  0  0  1  0  0  0  0  0  0
  161.0180  201.8080  147.5020 O   0  0  0  0  0  0  0  0  0  0  0  0
  160.5630  201.8960  149.1280 P   0  0  0  0  0  0  0  0  0  0  0  0
  158.9500  201.4050  149.2790 O   0  0  0  0  0  1  0  0  0  0  0  0
  158.3570  213.5660  157.1430 O   0  0  0  0  0  0  0  0  0  0  0  0
  156.9620  211.8970  156.2590 C   0  0  0  0  0  1  0  0  0  0  0  0
  158.0110  212.9480  156.1480 C   0  0  0  0  0  0  0  0  0  0  0  0
  159.9310  212.6450  150.9320 O   0  0  0  0  0  0  0  0  0  0  0  0
  159.1890  213.5830  150.1990 C   0  0  2  0  0  3  0  0  0  0  0  0
  157.8850  212.9700  149.7230 C   0  0  0  0  0  1  0  0  0  0  0  0
  162.3070  214.4520  148.5570 C   0  0  0  0  0  2  0  0  0  0  0  0
  162.6130  212.5930  147.0270 O   0  0  0  0  0  0  0  0  0  0  0  0
  159.3500  213.8380  147.6900 C   0  0  0  0  0  0  0  0  0  0  0  0
  158.2060  214.2320  147.3400 O   0  0  0  0  0  0  0  0  0  0  0  0
  162.3360  213.9570  147.1290 C   0  0  1  0  0  3  0  0  0  0  0  0
  161.3150  213.4740  148.9610 N   0  0  2  0  0  0  0  0  0  0  0  0
  161.3660  212.9110  147.6080 C   0  0  2  0  0  0  0  0  0  0  0  0
  160.1920  213.1350  146.8580 O   0  0  0  0  0  0  0  0  0  0  0  0
  159.9930  214.1280  149.0150 C   0  0  2  0  0  3  0  0  0  0  0  0
  1  6  1  0  0  0  0
  2 28  1  1  0  0  0
  3  2  1  0  0  0  0
  4 29  1  6  0  0  0
  4  1  1  0  0  0  0
  4  5  1  0  0  0  0
  5  3  2  0  0  0  0
  6  2  1  0  0  0  0
  8 11  1  0  0  0  0
  8 13  1  0  0  0  0
  9 18  1  6  0  0  0
  9 10  1  0  0  0  0
 10  7  1  0  0  0  0
 12  7  1  1  0  0  0
 14 11  1  6  0  0  0
 14 15  1  0  0  0  0
 14  9  1  0  0  0  0
 15 13  1  6  0  0  0
 15 17  1  0  0  0  0
 16 12  1  0  0  0  0
 16  5  1  6  0  0  0
 17 16  1  0  0  0  0
 17 12  1  0  0  0  0
 18 19  2  0  0  0  0
 20 19  1  0  0  0  0
 21 20  1  0  0  0  0
 23 24  2  0  0  0  0
 24 25  1  0  0  0  0
 24 21  1  0  0  0  0
 24 22  1  0  0  0  0
 28 27  1  0  0  0  0
 28 26  2  0  0  0  0
 30 29  1  0  0  0  0
 31 30  1  0  0  0  0
 32 37  1  0  0  0  0
 33 36  1  0  0  0  0
 33 38  1  0  0  0  0
 34 40  1  0  0  0  0
 35 34  2  0  0  0  0
 36 38  1  0  0  0  0
 36 32  1  0  0  0  0
 37 40  1  0  0  0  0
 38 37  1  0  0  0  0
 39 38  1  0  0  0  0
 39 34  1  0  0  0  0
 40 30  1  0  0  0  0
M  END
>  <MODEL>
3

>  <REMARK>
 VINA RESULT:      -6.6      1.680      5.633
  Name = 
  9 active torsions:
  status: ('A' for Active; 'I' for Inactive)
    1  A    between atoms: C_1  and  C_14
    2  A    between atoms: C_1  and  O_25
    3  A    between atoms: O_5  and  C_7
    4  A    between atoms: O_5  and  C_27
    5  A    between atoms: C_7  and  C_39
    6  A    between atoms: C_11  and  C_24
    7  A    between atoms: P_17  and  O_25
    8  A    between atoms: C_22  and  C_38
    9  A    between atoms: C_31  and  C_37
                            x       y       z     vdW  Elec       q    Type
                         _______ _______ _______ _____ _____    ______ ____

>  <TORSDO>
F 9

$$$$
=
 OpenBabel11052410343D

 40 46  0  0  1  0  0  0  0  0999 V2000
  161.5750  208.8140  147.9670 C   0  0  0  0  0  2  0  0  0  0  0  0
  160.9360  206.7440  149.1500 C   0  0  1  0  0  3  0  0  0  0  0  0
  161.1250  207.4790  150.4530 C   0  0  0  0  0  3  0  0  0  0  0  0
  162.0130  209.4900  149.2710 C   0  0  2  0  0  3  0  0  0  0  0  0
  161.5150  208.7670  150.5150 C   0  0  0  0  0  0  0  0  0  0  0  0
  161.8180  207.3160  148.0470 C   0  0  0  0  0  2  0  0  0  0  0  0
  161.2000  211.3210  153.0920 C   0  0  0  0  0  2  0  0  0  0  0  0
  160.3650  207.0900  155.4200 C   0  0  0  0  0  2  0  0  0  0  0  0
  159.3980  210.5550  154.7430 C   0  0  1  0  0  3  0  0  0  0  0  0
  160.1910  211.7370  154.1630 C   0  0  0  0  0  2  0  0  0  0  0  0
  159.4810  208.2290  155.5920 N   0  0  0  0  0  2  0  0  0  0  0  0
  160.6410  210.2880  152.2170 N   0  0  1  0  0  0  0  0  0  0  0  0
  161.5100  207.5390  154.5360 C   0  0  0  0  0  2  0  0  0  0  0  0
  160.2860  209.3730  155.1900 C   0  0  1  0  0  3  0  0  0  0  0  0
  161.2710  208.9300  154.1900 N   0  0  2  0  0  0  0  0  0  0  0  0
  161.7440  209.3720  151.8740 C   0  0  1  0  0  3  0  0  0  0  0  0
  160.7140  208.9310  152.8250 C   0  0  2  0  0  3  0  0  0  0  0  0
  158.4970  211.0200  155.8490 C   0  0  0  0  0  3  0  0  0  0  0  0
  158.3490  212.3140  156.1450 C   0  0  0  0  0  3  0  0  0  0  0  0
  157.4540  212.7350  157.2610 C   0  0  0  0  0  2  0  0  0  0  0  0
  156.8350  213.9460  156.9410 O   0  0  0  0  0  0  0  0  0  0  0  0
  154.2540  214.4300  157.0990 O   0  0  0  0  0  1  0  0  0  0  0  0
  154.9590  211.9290  156.8400 O   0  0  0  0  0  1  0  0  0  0  0  0
  155.2720  213.5370  156.4250 P   0  0  0  0  0  0  0  0  0  0  0  0
  155.1500  213.7110  154.7460 O   0  0  0  0  0  0  0  0  0  0  0  0
  161.4130  204.5650  148.3630 O   0  0  0  0  0  0  0  0  0  0  0  0
  161.1300  204.6840  150.6910 C   0  0  0  0  0  1  0  0  0  0  0  0
  161.1770  205.2780  149.3260 C   0  0  0  0  0  0  0  0  0  0  0  0
  161.6000  210.8280  149.2650 O   0  0  0  0  0  0  0  0  0  0  0  0
  162.1370  211.3750  148.0900 C   0  0  2  0  0  3  0  0  0  0  0  0
  163.5770  211.8010  148.3140 C   0  0  0  0  0  1  0  0  0  0  0  0
  160.0680  213.0230  145.6050 C   0  0  0  0  0  2  0  0  0  0  0  0
  157.8370  212.7040  146.5060 O   0  0  0  0  0  0  0  0  0  0  0  0
  160.5800  213.2730  148.6950 C   0  0  0  0  0  0  0  0  0  0  0  0
  161.1390  213.8380  149.6720 O   0  0  0  0  0  0  0  0  0  0  0  0
  158.8370  213.6380  146.2310 C   0  0  1  0  0  3  0  0  0  0  0  0
  160.2380  212.0690  146.6840 N   0  0  2  0  0  0  0  0  0  0  0  0
  159.0050  212.5830  147.2900 C   0  0  2  0  0  0  0  0  0  0  0  0
  159.2200  213.2990  148.4860 O   0  0  0  0  0  0  0  0  0  0  0  0
  161.2980  212.5550  147.5900 C   0  0  2  0  0  3  0  0  0  0  0  0
  1  6  1  0  0  0  0
  1  4  1  0  0  0  0
  2 28  1  1  0  0  0
  2  3  1  0  0  0  0
  3  5  2  0  0  0  0
  4 29  1  6  0  0  0
  4  5  1  0  0  0  0
  6  2  1  0  0  0  0
  7 10  1  0  0  0  0
  8 11  1  0  0  0  0
  9 14  1  0  0  0  0
  9 18  1  1  0  0  0
 10  9  1  0  0  0  0
 12 17  1  0  0  0  0
 12  7  1  1  0  0  0
 13  8  1  0  0  0  0
 14 11  1  6  0  0  0
 15 13  1  1  0  0  0
 15 14  1  0  0  0  0
 16  5  1  6  0  0  0
 16 12  1  0  0  0  0
 16 17  1  0  0  0  0
 17 15  1  0  0  0  0
 18 19  2  0  0  0  0
 19 20  1  0  0  0  0
 21 20  1  0  0  0  0
 24 23  1  0  0  0  0
 24 21  1  0  0  0  0
 24 22  1  0  0  0  0
 25 24  2  0  0  0  0
 26 28  2  0  0  0  0
 28 27  1  0  0  0  0
 30 31  1  0  0  0  0
 30 29  1  0  0  0  0
 32 36  1  0  0  0  0
 32 37  1  0  0  0  0
 33 38  1  0  0  0  0
 34 35  2  0  0  0  0
 36 33  1  0  0  0  0
 36 38  1  0  0  0  0
 37 38  1  0  0  0  0
 37 40  1  0  0  0  0
 38 39  1  0  0  0  0
 39 34  1  0  0  0  0
 40 30  1  0  0  0  0
 40 34  1  0  0  0  0
M  END
>  <MODEL>
4

>  <REMARK>
 VINA RESULT:      -6.2      3.396      8.708
  Name = 
  9 active torsions:
  status: ('A' for Active; 'I' for Inactive)
    1  A    between atoms: C_1  and  C_14
    2  A    between atoms: C_1  and  O_25
    3  A    between atoms: O_5  and  C_7
    4  A    between atoms: O_5  and  C_27
    5  A    between atoms: C_7  and  C_39
    6  A    between atoms: C_11  and  C_24
    7  A    between atoms: P_17  and  O_25
    8  A    between atoms: C_22  and  C_38
    9  A    between atoms: C_31  and  C_37
                            x       y       z     vdW  Elec       q    Type
                         _______ _______ _______ _____ _____    ______ ____

>  <TORSDO>
F 9

$$$$
=
 OpenBabel11052410343D

 40 46  0  0  1  0  0  0  0  0999 V2000
  160.3940  212.2330  151.8700 C   0  0  0  0  0  2  0  0  0  0  0  0
  160.0920  211.2240  154.1020 C   0  0  1  0  0  3  0  0  0  0  0  0
  160.8640  210.0230  153.6190 C   0  0  0  0  0  3  0  0  0  0  0  0
  160.9530  210.9270  151.2940 C   0  0  2  0  0  3  0  0  0  0  0  0
  161.3540  209.9250  152.3680 C   0  0  0  0  0  0  0  0  0  0  0  0
  159.3780  211.9320  152.9580 C   0  0  0  0  0  2  0  0  0  0  0  0
  162.2830  206.4230  152.7430 C   0  0  0  0  0  2  0  0  0  0  0  0
  161.0820  206.8970  148.0140 C   0  0  0  0  0  2  0  0  0  0  0  0
  160.8130  205.0460  151.1610 C   0  0  1  0  0  3  0  0  0  0  0  0
  161.6920  205.0500  152.4210 C   0  0  0  0  0  2  0  0  0  0  0  0
  160.5580  205.8070  148.8170 N   0  0  0  0  0  2  0  0  0  0  0  0
  161.3030  207.4850  152.5060 N   0  0  1  0  0  0  0  0  0  0  0  0
  162.0480  207.6730  148.8860 C   0  0  0  0  0  2  0  0  0  0  0  0
  161.4830  205.7060  149.9360 C   0  0  1  0  0  3  0  0  0  0  0  0
  162.0620  207.0340  150.1910 N   0  0  2  0  0  0  0  0  0  0  0  0
  162.0440  208.6440  151.9770 C   0  0  1  0  0  3  0  0  0  0  0  0
  161.2050  207.8540  151.0670 C   0  0  2  0  0  3  0  0  0  0  0  0
  160.3430  203.6540  150.8530 C   0  0  0  0  0  3  0  0  0  0  0  0
  160.5590  203.0810  149.6660 C   0  0  0  0  0  3  0  0  0  0  0  0
  160.0650  201.7010  149.3940 C   0  0  0  0  0  2  0  0  0  0  0  0
  159.5100  201.6400  148.1130 O   0  0  0  0  0  0  0  0  0  0  0  0
  161.4920  202.7790  146.8110 O   0  0  0  0  0  1  0  0  0  0  0  0
  160.2590  200.8280  145.5870 O   0  0  0  0  0  0  0  0  0  0  0  0
  160.8220  201.4450  147.0570 P   0  0  0  0  0  0  0  0  0  0  0  0
  161.9450  200.3640  147.7180 O   0  0  0  0  0  1  0  0  0  0  0  0
  157.9570  211.1730  155.1190 O   0  0  0  0  0  0  0  0  0  0  0  0
  159.6100  210.0410  156.3430 C   0  0  0  0  0  1  0  0  0  0  0  0
  159.1300  210.8400  155.1810 C   0  0  0  0  0  0  0  0  0  0  0  0
  162.0270  211.2130  150.4440 O   0  0  0  0  0  0  0  0  0  0  0  0
  161.4660  211.3260  149.1630 C   0  0  2  0  0  3  0  0  0  0  0  0
  161.9730  210.2160  148.2620 C   0  0  0  0  0  1  0  0  0  0  0  0
  163.1570  213.4880  146.7880 C   0  0  0  0  0  2  0  0  0  0  0  0
  161.4300  213.8670  145.1240 O   0  0  0  0  0  0  0  0  0  0  0  0
  160.5670  213.6120  148.5630 C   0  0  0  0  0  0  0  0  0  0  0  0
  159.9670  213.9960  149.6030 O   0  0  0  0  0  0  0  0  0  0  0  0
  162.1930  214.4530  146.1360 C   0  0  1  0  0  3  0  0  0  0  0  0
  162.1090  212.5410  147.1200 N   0  0  2  0  0  0  0  0  0  0  0  0
  161.1500  213.4090  146.4300 C   0  0  2  0  0  0  0  0  0  0  0  0
  160.2370  214.0430  147.2990 O   0  0  0  0  0  0  0  0  0  0  0  0
  161.7570  212.6970  148.5450 C   0  0  2  0  0  3  0  0  0  0  0  0
  1  6  1  0  0  0  0
  2 28  1  1  0  0  0
  3  2  1  0  0  0  0
  4 29  1  1  0  0  0
  4  1  1  0  0  0  0
  4  5  1  0  0  0  0
  5  3  2  0  0  0  0
  6  2  1  0  0  0  0
  8 11  1  0  0  0  0
  8 13  1  0  0  0  0
  9 18  1  6  0  0  0
  9 10  1  0  0  0  0
 10  7  1  0  0  0  0
 12  7  1  6  0  0  0
 14 11  1  6  0  0  0
 14 15  1  0  0  0  0
 14  9  1  0  0  0  0
 15 13  1  6  0  0  0
 15 17  1  0  0  0  0
 16  5  1  1  0  0  0
 16 12  1  0  0  0  0
 17 16  1  0  0  0  0
 17 12  1  0  0  0  0
 19 18  2  0  0  0  0
 20 19  1  0  0  0  0
 21 20  1  0  0  0  0
 22 24  1  0  0  0  0
 23 24  2  0  0  0  0
 24 25  1  0  0  0  0
 24 21  1  0  0  0  0
 26 28  2  0  0  0  0
 28 27  1  0  0  0  0
 30 29  1  0  0  0  0
 31 30  1  0  0  0  0
 32 37  1  0  0  0  0
 33 36  1  0  0  0  0
 33 38  1  0  0  0  0
 34 35  2  0  0  0  0
 36 38  1  0  0  0  0
 36 32  1  0  0  0  0
 37 40  1  0  0  0  0
 38 37  1  0  0  0  0
 38 39  1  0  0  0  0
 39 34  1  0  0  0  0
 40 34  1  0  0  0  0
 40 30  1  0  0  0  0
M  END
>  <MODEL>
5

>  <REMARK>
 VINA RESULT:      -5.7      1.797      5.613
  Name = 
  9 active torsions:
  status: ('A' for Active; 'I' for Inactive)
    1  A    between atoms: C_1  and  C_14
    2  A    between atoms: C_1  and  O_25
    3  A    between atoms: O_5  and  C_7
    4  A    between atoms: O_5  and  C_27
    5  A    between atoms: C_7  and  C_39
    6  A    between atoms: C_11  and  C_24
    7  A    between atoms: P_17  and  O_25
    8  A    between atoms: C_22  and  C_38
    9  A    between atoms: C_31  and  C_37
                            x       y       z     vdW  Elec       q    Type
                         _______ _______ _______ _____ _____    ______ ____

>  <TORSDO>
F 9

$$$$
=
 OpenBabel11052410343D

 40 46  0  0  1  0  0  0  0  0999 V2000
  161.2380  207.5750  148.1300 C   0  0  0  0  0  2  0  0  0  0  0  0
  160.8130  205.6460  149.6110 C   0  0  1  0  0  3  0  0  0  0  0  0
  161.0510  206.5510  150.7920 C   0  0  0  0  0  3  0  0  0  0  0  0
  161.7270  208.4360  149.3000 C   0  0  2  0  0  3  0  0  0  0  0  0
  161.3650  207.8550  150.6610 C   0  0  0  0  0  0  0  0  0  0  0  0
  161.5760  206.1140  148.3780 C   0  0  0  0  0  2  0  0  0  0  0  0
  161.2220  210.7700  152.8400 C   0  0  0  0  0  2  0  0  0  0  0  0
  160.2860  206.9640  155.7830 C   0  0  0  0  0  2  0  0  0  0  0  0
  159.4380  210.3310  154.6240 C   0  0  1  0  0  3  0  0  0  0  0  0
  160.2600  211.3800  153.8600 C   0  0  0  0  0  2  0  0  0  0  0  0
  159.4530  208.1530  155.8040 N   0  0  0  0  0  2  0  0  0  0  0  0
  160.5990  209.6450  152.1390 N   0  0  1  0  0  0  0  0  0  0  0  0
  161.4230  207.2290  154.8180 C   0  0  0  0  0  2  0  0  0  0  0  0
  160.2900  209.1900  155.2210 C   0  0  1  0  0  3  0  0  0  0  0  0
  161.2290  208.5640  154.2770 N   0  0  2  0  0  0  0  0  0  0  0  0
  161.6550  208.6420  151.9110 C   0  0  1  0  0  3  0  0  0  0  0  0
  160.6360  208.3900  152.9380 C   0  0  2  0  0  3  0  0  0  0  0  0
  158.5860  210.9910  155.6690 C   0  0  0  0  0  3  0  0  0  0  0  0
  158.6290  212.3070  155.8900 C   0  0  0  0  0  3  0  0  0  0  0  0
  157.7770  212.9230  156.9460 C   0  0  0  0  0  2  0  0  0  0  0  0
  157.1360  214.0570  156.4380 O   0  0  0  0  0  0  0  0  0  0  0  0
  154.5660  214.4500  156.8370 O   0  0  0  0  0  1  0  0  0  0  0  0
  155.3450  211.9680  156.6020 O   0  0  0  0  0  1  0  0  0  0  0  0
  155.5480  213.5690  156.0990 P   0  0  0  0  0  0  0  0  0  0  0  0
  155.2530  213.6680  154.4340 O   0  0  0  0  0  0  0  0  0  0  0  0
  161.6550  203.9480  151.0270 O   0  0  0  0  0  0  0  0  0  0  0  0
  160.8780  203.1510  148.9590 C   0  0  0  0  0  1  0  0  0  0  0  0
  161.1540  204.2290  149.9490 C   0  0  0  0  0  0  0  0  0  0  0  0
  161.2350  209.7380  149.1600 O   0  0  0  0  0  0  0  0  0  0  0  0
  162.3440  210.5160  148.7950 C   0  0  2  0  0  3  0  0  0  0  0  0
  163.0320  211.0700  150.0290 C   0  0  0  0  0  1  0  0  0  0  0  0
  159.9030  212.3720  146.8540 C   0  0  0  0  0  2  0  0  0  0  0  0
  159.5230  214.3250  148.2450 O   0  0  0  0  0  0  0  0  0  0  0  0
  162.7680  212.8890  148.0350 C   0  0  0  0  0  0  0  0  0  0  0  0
  164.0190  212.9540  147.8920 O   0  0  0  0  0  0  0  0  0  0  0  0
  160.0650  213.8640  147.0450 C   0  0  1  0  0  3  0  0  0  0  0  0
  160.5510  212.0610  148.1130 N   0  0  2  0  0  0  0  0  0  0  0  0
  160.6610  213.4990  148.3770 C   0  0  2  0  0  0  0  0  0  0  0  0
  161.9850  213.9820  148.3260 O   0  0  0  0  0  0  0  0  0  0  0  0
  161.9440  211.6490  147.8460 C   0  0  2  0  0  3  0  0  0  0  0  0
  1  6  1  0  0  0  0
  1  4  1  0  0  0  0
  2 28  1  1  0  0  0
  2  3  1  0  0  0  0
  4 29  1  6  0  0  0
  4  5  1  0  0  0  0
  5  3  2  0  0  0  0
  6  2  1  0  0  0  0
  7 10  1  0  0  0  0
  8 11  1  0  0  0  0
  9 14  1  0  0  0  0
  9 18  1  1  0  0  0
 10  9  1  0  0  0  0
 12  7  1  1  0  0  0
 12 17  1  0  0  0  0
 13  8  1  0  0  0  0
 14 11  1  6  0  0  0
 15 13  1  1  0  0  0
 15 14  1  0  0  0  0
 16  5  1  6  0  0  0
 16 12  1  0  0  0  0
 16 17  1  0  0  0  0
 17 15  1  0  0  0  0
 18 19  2  0  0  0  0
 19 20  1  0  0  0  0
 21 20  1  0  0  0  0
 24 21  1  0  0  0  0
 24 23  1  0  0  0  0
 24 22  1  0  0  0  0
 25 24  2  0  0  0  0
 27 28  1  0  0  0  0
 28 26  2  0  0  0  0
 30 29  1  0  0  0  0
 30 31  1  0  0  0  0
 32 36  1  0  0  0  0
 32 37  1  0  0  0  0
 33 38  1  0  0  0  0
 34 39  1  0  0  0  0
 35 34  2  0  0  0  0
 36 33  1  0  0  0  0
 36 38  1  0  0  0  0
 37 38  1  0  0  0  0
 39 38  1  0  0  0  0
 40 34  1  0  0  0  0
 40 37  1  0  0  0  0
 40 30  1  0  0  0  0
M  END
>  <MODEL>
6

>  <REMARK>
 VINA RESULT:      -5.7      3.334      8.817
  Name = 
  9 active torsions:
  status: ('A' for Active; 'I' for Inactive)
    1  A    between atoms: C_1  and  C_14
    2  A    between atoms: C_1  and  O_25
    3  A    between atoms: O_5  and  C_7
    4  A    between atoms: O_5  and  C_27
    5  A    between atoms: C_7  and  C_39
    6  A    between atoms: C_11  and  C_24
    7  A    between atoms: P_17  and  O_25
    8  A    between atoms: C_22  and  C_38
    9  A    between atoms: C_31  and  C_37
                            x       y       z     vdW  Elec       q    Type
                         _______ _______ _______ _____ _____    ______ ____

>  <TORSDO>
F 9

$$$$
=
 OpenBabel11052410343D

 40 46  0  0  1  0  0  0  0  0999 V2000
  161.7730  207.7370  151.2390 C   0  0  0  0  0  2  0  0  0  0  0  0
  161.9850  207.3000  148.8190 C   0  0  1  0  0  3  0  0  0  0  0  0
  162.0670  208.7880  148.5980 C   0  0  0  0  0  3  0  0  0  0  0  0
  161.6010  209.2430  151.0080 C   0  0  2  0  0  3  0  0  0  0  0  0
  162.0000  209.6810  149.6050 C   0  0  0  0  0  0  0  0  0  0  0  0
  161.1880  206.9590  150.0720 C   0  0  0  0  0  2  0  0  0  0  0  0
  163.2120  212.6540  147.8850 C   0  0  0  0  0  2  0  0  0  0  0  0
  158.3300  212.9110  147.5340 C   0  0  0  0  0  2  0  0  0  0  0  0
  161.6180  213.1420  145.9410 C   0  0  1  0  0  3  0  0  0  0  0  0
  163.0220  213.3410  146.5320 C   0  0  0  0  0  2  0  0  0  0  0  0
  159.1780  213.1150  146.3740 N   0  0  0  0  0  2  0  0  0  0  0  0
  162.5680  211.3390  147.9010 N   0  0  1  0  0  0  0  0  0  0  0  0
  159.2410  212.7300  148.7300 C   0  0  0  0  0  2  0  0  0  0  0  0
  160.4770  213.4590  146.9330 C   0  0  1  0  0  3  0  0  0  0  0  0
  160.6090  212.8150  148.2500 N   0  0  2  0  0  0  0  0  0  0  0  0
  162.0180  211.1450  149.2550 C   0  0  1  0  0  3  0  0  0  0  0  0
  161.1020  211.4290  148.1430 C   0  0  2  0  0  3  0  0  0  0  0  0
  161.4720  213.9170  144.6640 C   0  0  0  0  0  3  0  0  0  0  0  0
  161.3260  213.3120  143.4820 C   0  0  0  0  0  3  0  0  0  0  0  0
  161.1970  214.1160  142.2340 C   0  0  0  0  0  2  0  0  0  0  0  0
  161.0330  213.2660  141.1360 O   0  0  0  0  0  0  0  0  0  0  0  0
  163.4700  214.2420  140.9670 O   0  0  0  0  0  1  0  0  0  0  0  0
  162.0310  214.3110  138.7890 O   0  0  0  0  0  0  0  0  0  0  0  0
  162.4300  213.4620  140.1950 P   0  0  0  0  0  0  0  0  0  0  0  0
  163.0600  211.9500  139.7690 O   0  0  0  0  0  1  0  0  0  0  0  0
  160.2090  206.5780  147.4320 O   0  0  0  0  0  0  0  0  0  0  0  0
  162.3320  205.9690  146.6360 C   0  0  0  0  0  1  0  0  0  0  0  0
  161.4150  206.6140  147.6170 C   0  0  0  0  0  0  0  0  0  0  0  0
  162.3180  209.9490  151.9800 O   0  0  0  0  0  0  0  0  0  0  0  0
  161.5300  209.8860  153.1390 C   0  0  2  0  0  3  0  0  0  0  0  0
  160.4030  208.8870  152.9600 C   0  0  0  0  0  1  0  0  0  0  0  0
  159.5060  212.8250  152.4750 C   0  0  0  0  0  2  0  0  0  0  0  0
  157.5510  212.4210  153.8560 O   0  0  0  0  0  0  0  0  0  0  0  0
  160.7720  211.4320  154.9900 C   0  0  0  0  0  0  0  0  0  0  0  0
  161.6820  211.3520  155.8580 O   0  0  0  0  0  0  0  0  0  0  0  0
  158.6850  213.2150  153.6830 C   0  0  1  0  0  3  0  0  0  0  0  0
  159.6390  211.4480  152.9110 N   0  0  2  0  0  0  0  0  0  0  0  0
  158.7830  211.7620  154.0590 C   0  0  2  0  0  0  0  0  0  0  0  0
  159.4680  211.7510  155.2920 O   0  0  0  0  0  0  0  0  0  0  0  0
  160.9750  211.2640  153.5130 C   0  0  2  0  0  3  0  0  0  0  0  0
  2 28  1  6  0  0  0
  2  6  1  0  0  0  0
  3  2  1  0  0  0  0
  3  5  2  0  0  0  0
  4  1  1  0  0  0  0
  4 29  1  1  0  0  0
  5  4  1  0  0  0  0
  6  1  1  0  0  0  0
  8 13  1  0  0  0  0
  9 18  1  6  0  0  0
  9 10  1  0  0  0  0
  9 14  1  0  0  0  0
 10  7  1  0  0  0  0
 11  8  1  0  0  0  0
 12  7  1  1  0  0  0
 12 17  1  0  0  0  0
 12 16  1  0  0  0  0
 14 11  1  6  0  0  0
 14 15  1  0  0  0  0
 15 13  1  6  0  0  0
 16  5  1  6  0  0  0
 17 15  1  0  0  0  0
 17 16  1  0  0  0  0
 19 18  2  0  0  0  0
 20 19  1  0  0  0  0
 21 20  1  0  0  0  0
 23 24  2  0  0  0  0
 24 22  1  0  0  0  0
 24 21  1  0  0  0  0
 25 24  1  0  0  0  0
 26 28  2  0  0  0  0
 27 28  1  0  0  0  0
 29 30  1  0  0  0  0
 30 40  1  0  0  0  0
 31 30  1  0  0  0  0
 32 37  1  0  0  0  0
 32 36  1  0  0  0  0
 33 38  1  0  0  0  0
 34 39  1  0  0  0  0
 34 35  2  0  0  0  0
 36 33  1  0  0  0  0
 36 38  1  0  0  0  0
 37 40  1  0  0  0  0
 37 38  1  0  0  0  0
 38 39  1  0  0  0  0
 40 34  1  0  0  0  0
M  END
>  <MODEL>
7

>  <REMARK>
 VINA RESULT:      -5.5      4.180      7.908
  Name = 
  9 active torsions:
  status: ('A' for Active; 'I' for Inactive)
    1  A    between atoms: C_1  and  C_14
    2  A    between atoms: C_1  and  O_25
    3  A    between atoms: O_5  and  C_7
    4  A    between atoms: O_5  and  C_27
    5  A    between atoms: C_7  and  C_39
    6  A    between atoms: C_11  and  C_24
    7  A    between atoms: P_17  and  O_25
    8  A    between atoms: C_22  and  C_38
    9  A    between atoms: C_31  and  C_37
                            x       y       z     vdW  Elec       q    Type
                         _______ _______ _______ _____ _____    ______ ____

>  <TORSDO>
F 9

$$$$
=
 OpenBabel11052410343D

 40 46  0  0  1  0  0  0  0  0999 V2000
  161.0180  206.6490  151.8270 C   0  0  0  0  0  2  0  0  0  0  0  0
  160.6230  207.9160  153.9080 C   0  0  1  0  0  3  0  0  0  0  0  0
  160.9810  209.1750  153.1610 C   0  0  0  0  0  3  0  0  0  0  0  0
  161.6250  207.8730  151.1310 C   0  0  2  0  0  3  0  0  0  0  0  0
  161.3370  209.1780  151.8620 C   0  0  0  0  0  0  0  0  0  0  0  0
  161.3140  206.6940  153.3160 C   0  0  0  0  0  2  0  0  0  0  0  0
  162.5820  211.3300  149.2010 C   0  0  0  0  0  2  0  0  0  0  0  0
  158.7200  213.7240  151.0380 C   0  0  0  0  0  2  0  0  0  0  0  0
  160.5710  212.4980  148.1280 C   0  0  1  0  0  3  0  0  0  0  0  0
  162.0310  212.0480  147.9670 C   0  0  0  0  0  2  0  0  0  0  0  0
  158.8820  213.5470  149.6060 N   0  0  0  0  0  2  0  0  0  0  0  0
  161.5780  210.4350  149.7790 N   0  0  1  0  0  0  0  0  0  0  0  0
  159.9500  213.1430  151.7050 C   0  0  0  0  0  2  0  0  0  0  0  0
  160.3010  213.2730  149.4350 C   0  0  1  0  0  3  0  0  0  0  0  0
  160.8070  212.6210  150.6540 N   0  0  2  0  0  0  0  0  0  0  0  0
  161.7480  210.4880  151.2430 C   0  0  1  0  0  3  0  0  0  0  0  0
  160.5960  211.1610  150.6300 C   0  0  2  0  0  3  0  0  0  0  0  0
  160.1260  213.2730  146.9220 C   0  0  0  0  0  3  0  0  0  0  0  0
  160.9840  213.6730  145.9810 C   0  0  0  0  0  3  0  0  0  0  0  0
  160.5050  214.4530  144.8050 C   0  0  0  0  0  2  0  0  0  0  0  0
  159.3530  213.8600  144.2800 O   0  0  0  0  0  0  0  0  0  0  0  0
  160.1710  211.6060  143.2000 O   0  0  0  0  0  1  0  0  0  0  0  0
  161.2450  213.8000  142.2770 O   0  0  0  0  0  1  0  0  0  0  0  0
  159.8550  213.0490  142.8780 P   0  0  0  0  0  0  0  0  0  0  0  0
  158.6380  213.1120  141.7030 O   0  0  0  0  0  0  0  0  0  0  0  0
  161.7680  208.8550  155.7530 O   0  0  0  0  0  0  0  0  0  0  0  0
  160.2040  207.2100  156.3530 C   0  0  0  0  0  1  0  0  0  0  0  0
  160.9300  208.0550  155.3650 C   0  0  0  0  0  0  0  0  0  0  0  0
  161.1770  207.9270  149.8060 O   0  0  0  0  0  0  0  0  0  0  0  0
  161.9820  207.0170  149.1060 C   0  0  2  0  0  3  0  0  0  0  0  0
  163.0800  207.7490  148.3570 C   0  0  0  0  0  1  0  0  0  0  0  0
  160.5850  206.2910  145.8350 C   0  0  0  0  0  2  0  0  0  0  0  0
  162.0650  204.5470  145.0240 O   0  0  0  0  0  0  0  0  0  0  0  0
  161.2060  204.6960  148.4700 C   0  0  0  0  0  0  0  0  0  0  0  0
  160.8270  204.1840  149.5570 O   0  0  0  0  0  0  0  0  0  0  0  0
  160.7740  204.8380  145.4640 C   0  0  1  0  0  3  0  0  0  0  0  0
  161.6900  206.2770  146.7750 N   0  0  2  0  0  0  0  0  0  0  0  0
  161.9580  204.8880  146.3900 C   0  0  2  0  0  0  0  0  0  0  0  0
  161.6650  203.9540  147.4060 O   0  0  0  0  0  0  0  0  0  0  0  0
  161.1520  206.1600  148.1450 C   0  0  2  0  0  3  0  0  0  0  0  0
  1  6  1  0  0  0  0
  2 28  1  1  0  0  0
  3  2  1  0  0  0  0
  4 29  1  6  0  0  0
  4  1  1  0  0  0  0
  4  5  1  0  0  0  0
  5  3  2  0  0  0  0
  6  2  1  0  0  0  0
  8 13  1  0  0  0  0
  9 18  1  6  0  0  0
  9 14  1  0  0  0  0
 10  9  1  0  0  0  0
 10  7  1  0  0  0  0
 11  8  1  0  0  0  0
 12  7  1  6  0  0  0
 12 17  1  0  0  0  0
 12 16  1  0  0  0  0
 14 11  1  1  0  0  0
 14 15  1  0  0  0  0
 15 13  1  1  0  0  0
 16  5  1  1  0  0  0
 17 15  1  0  0  0  0
 17 16  1  0  0  0  0
 19 18  2  0  0  0  0
 20 19  1  0  0  0  0
 21 20  1  0  0  0  0
 23 24  1  0  0  0  0
 24 22  1  0  0  0  0
 24 21  1  0  0  0  0
 25 24  2  0  0  0  0
 28 26  2  0  0  0  0
 28 27  1  0  0  0  0
 30 29  1  0  0  0  0
 31 30  1  0  0  0  0
 32 37  1  0  0  0  0
 33 36  1  0  0  0  0
 33 38  1  0  0  0  0
 34 35  2  0  0  0  0
 36 32  1  0  0  0  0
 36 38  1  0  0  0  0
 37 40  1  0  0  0  0
 38 37  1  0  0  0  0
 38 39  1  0  0  0  0
 39 34  1  0  0  0  0
 40 34  1  0  0  0  0
 40 30  1  0  0  0  0
M  END
>  <MODEL>
8

>  <REMARK>
 VINA RESULT:      -5.1      3.587      9.398
  Name = 
  9 active torsions:
  status: ('A' for Active; 'I' for Inactive)
    1  A    between atoms: C_1  and  C_14
    2  A    between atoms: C_1  and  O_25
    3  A    between atoms: O_5  and  C_7
    4  A    between atoms: O_5  and  C_27
    5  A    between atoms: C_7  and  C_39
    6  A    between atoms: C_11  and  C_24
    7  A    between atoms: P_17  and  O_25
    8  A    between atoms: C_22  and  C_38
    9  A    between atoms: C_31  and  C_37
                            x       y       z     vdW  Elec       q    Type
                         _______ _______ _______ _____ _____    ______ ____

>  <TORSDO>
F 9

$$$$
=
 OpenBabel11052410343D

 40 46  0  0  1  0  0  0  0  0999 V2000
  161.3040  208.2130  151.4820 C   0  0  0  0  0  2  0  0  0  0  0  0
  160.4970  209.8860  153.1080 C   0  0  1  0  0  3  0  0  0  0  0  0
  160.8080  210.9590  152.0980 C   0  0  0  0  0  3  0  0  0  0  0  0
  161.8560  209.3010  150.5540 C   0  0  2  0  0  3  0  0  0  0  0  0
  161.3310  210.6910  150.8850 C   0  0  0  0  0  0  0  0  0  0  0  0
  161.3930  208.6660  152.9300 C   0  0  0  0  0  2  0  0  0  0  0  0
  162.6800  212.2760  147.8960 C   0  0  0  0  0  2  0  0  0  0  0  0
  158.3480  214.4530  148.6150 C   0  0  0  0  0  2  0  0  0  0  0  0
  160.7190  212.8300  146.3460 C   0  0  1  0  0  3  0  0  0  0  0  0
  162.2290  212.5750  146.4660 C   0  0  0  0  0  2  0  0  0  0  0  0
  158.7290  213.9520  147.3070 N   0  0  0  0  0  2  0  0  0  0  0  0
  161.7140  211.4140  148.5820 N   0  0  1  0  0  0  0  0  0  0  0  0
  159.5310  214.2440  149.5380 C   0  0  0  0  0  2  0  0  0  0  0  0
  160.1800  213.8570  147.3660 C   0  0  1  0  0  3  0  0  0  0  0  0
  160.5810  213.6100  148.7600 N   0  0  2  0  0  0  0  0  0  0  0  0
  161.6700  211.8520  149.9890 C   0  0  1  0  0  3  0  0  0  0  0  0
  160.5450  212.1750  149.1010 C   0  0  2  0  0  3  0  0  0  0  0  0
  160.3600  213.2070  144.9380 C   0  0  0  0  0  3  0  0  0  0  0  0
  160.7410  212.4730  143.8900 C   0  0  0  0  0  3  0  0  0  0  0  0
  160.3770  212.8890  142.5050 C   0  0  0  0  0  2  0  0  0  0  0  0
  159.9370  211.7790  141.7770 O   0  0  0  0  0  0  0  0  0  0  0  0
  160.1590  213.0900  139.5080 O   0  0  0  0  0  1  0  0  0  0  0  0
  160.3790  210.4910  139.3810 O   0  0  0  0  0  0  0  0  0  0  0  0
  160.6950  211.8970  140.2650 P   0  0  0  0  0  0  0  0  0  0  0  0
  162.3680  212.0610  140.4660 O   0  0  0  0  0  1  0  0  0  0  0  0
  161.1990  209.8100  155.3660 O   0  0  0  0  0  0  0  0  0  0  0  0
  159.9380  211.7180  154.8350 C   0  0  0  0  0  1  0  0  0  0  0  0
  160.5910  210.4220  154.5020 C   0  0  0  0  0  0  0  0  0  0  0  0
  161.5850  208.9610  149.2240 O   0  0  0  0  0  0  0  0  0  0  0  0
  162.0890  207.6630  149.0620 C   0  0  2  0  0  3  0  0  0  0  0  0
  163.4870  207.7060  148.4740 C   0  0  0  0  0  1  0  0  0  0  0  0
  160.7960  206.5780  145.8490 C   0  0  0  0  0  2  0  0  0  0  0  0
  161.9250  204.4520  145.5360 O   0  0  0  0  0  0  0  0  0  0  0  0
  160.8840  205.4580  148.7830 C   0  0  0  0  0  0  0  0  0  0  0  0
  160.3310  205.2590  149.8980 O   0  0  0  0  0  0  0  0  0  0  0  0
  160.6970  205.0710  145.7730 C   0  0  1  0  0  3  0  0  0  0  0  0
  161.8070  206.5390  146.8890 N   0  0  2  0  0  0  0  0  0  0  0  0
  161.8000  205.0760  146.7970 C   0  0  2  0  0  0  0  0  0  0  0  0
  161.2470  204.4420  147.9290 O   0  0  0  0  0  0  0  0  0  0  0  0
  161.1630  206.8080  148.1900 C   0  0  2  0  0  3  0  0  0  0  0  0
  1  6  1  0  0  0  0
  2 28  1  1  0  0  0
  3  2  1  0  0  0  0
  4 29  1  6  0  0  0
  4  5  1  0  0  0  0
  4  1  1  0  0  0  0
  5  3  2  0  0  0  0
  6  2  1  0  0  0  0
  8 13  1  0  0  0  0
  9 18  1  6  0  0  0
  9 10  1  0  0  0  0
  9 14  1  0  0  0  0
 10  7  1  0  0  0  0
 11  8  1  0  0  0  0
 12  7  1  6  0  0  0
 12 17  1  0  0  0  0
 12 16  1  0  0  0  0
 14 11  1  1  0  0  0
 14 15  1  0  0  0  0
 15 17  1  0  0  0  0
 15 13  1  1  0  0  0
 16  5  1  1  0  0  0
 17 16  1  0  0  0  0
 19 18  2  0  0  0  0
 20 19  1  0  0  0  0
 21 20  1  0  0  0  0
 22 24  1  0  0  0  0
 23 24  2  0  0  0  0
 24 25  1  0  0  0  0
 24 21  1  0  0  0  0
 28 27  1  0  0  0  0
 28 26  2  0  0  0  0
 30 29  1  0  0  0  0
 31 30  1  0  0  0  0
 32 37  1  0  0  0  0
 33 36  1  0  0  0  0
 33 38  1  0  0  0  0
 34 35  2  0  0  0  0
 36 32  1  0  0  0  0
 36 38  1  0  0  0  0
 37 40  1  0  0  0  0
 38 37  1  0  0  0  0
 38 39  1  0  0  0  0
 39 34  1  0  0  0  0
 40 34  1  0  0  0  0
 40 30  1  0  0  0  0
M  END
>  <MODEL>
9

>  <REMARK>
 VINA RESULT:      -4.9      4.133      9.273
  Name = 
  9 active torsions:
  status: ('A' for Active; 'I' for Inactive)
    1  A    between atoms: C_1  and  C_14
    2  A    between atoms: C_1  and  O_25
    3  A    between atoms: O_5  and  C_7
    4  A    between atoms: O_5  and  C_27
    5  A    between atoms: C_7  and  C_39
    6  A    between atoms: C_11  and  C_24
    7  A    between atoms: P_17  and  O_25
    8  A    between atoms: C_22  and  C_38
    9  A    between atoms: C_31  and  C_37
                            x       y       z     vdW  Elec       q    Type
                         _______ _______ _______ _____ _____    ______ ____

>  <TORSDO>
F 9

$$$$
