=
 OpenBabel11052409553D

 29 31  0  0  1  0  0  0  0  0999 V2000
  161.9640  208.7780  152.0430 N   0  0  0  0  0  2  0  0  0  0  0  0
  162.3690  207.9000  150.9560 C   0  0  1  0  0  3  0  0  0  0  0  0
  161.6220  206.5810  151.0480 C   0  0  0  0  0  2  0  0  0  0  0  0
  161.9940  208.5300  149.6290 C   0  0  0  0  0  2  0  0  0  0  0  0
  160.7780  206.4690  149.7920 C   0  0  1  0  0  3  0  0  0  0  0  0
  161.4030  207.4160  148.7960 C   0  0  0  0  0  2  0  0  0  0  0  0
  160.8060  205.0530  149.2500 C   0  0  0  0  0  2  0  0  0  0  0  0
  160.5410  203.8580  150.5940 S   0  0  0  0  0  0  0  0  0  0  0  0
  160.8740  201.3300  149.9850 O   0  0  0  0  0  0  0  0  0  0  0  0
  160.9600  202.4660  149.5480 C   0  0  0  0  0  0  0  0  0  0  0  0
  161.4320  202.6950  148.1530 C   0  0  0  0  0  2  0  0  0  0  0  0
  159.9720  201.0320  144.9800 C   0  0  0  0  0  1  0  0  0  0  0  0
  160.6480  202.0250  145.8550 C   0  0  0  0  0  0  0  0  0  0  0  0
  161.1060  203.0870  145.3560 O   0  0  0  0  0  0  0  0  0  0  0  0
  160.7720  201.7650  147.2530 N   0  0  0  0  0  2  0  0  0  0  0  0
  160.3380  207.7240  155.0850 O   0  0  0  0  0  0  0  0  0  0  0  0
  160.7610  208.5270  154.2120 C   0  0  0  0  0  0  0  0  0  0  0  0
  161.2510  208.0020  152.9710 N   0  0  0  0  0  2  0  0  0  0  0  0
  158.6820  212.5610  154.1670 C   0  0  1  0  0  3  0  0  0  0  0  0
  159.2390  210.6900  152.7950 N   0  0  0  0  0  2  0  0  0  0  0  0
  158.3170  211.8090  152.8790 C   0  0  0  0  0  2  0  0  0  0  0  0
  160.1270  212.1780  154.4620 C   0  0  2  0  0  3  0  0  0  0  0  0
  160.7720  209.9740  154.5100 C   0  0  2  0  0  3  0  0  0  0  0  0
  160.9750  210.5310  155.8760 C   0  0  2  0  0  3  0  0  0  0  0  0
  160.2620  210.9160  153.7460 C   0  0  1  0  0  3  0  0  0  0  0  0
  158.5550  214.3150  153.9070 Cl  0  0  0  0  0  0  0  0  0  0  0  0
  160.3420  211.8570  155.8740 N   0  0  0  0  0  2  0  0  0  0  0  0
  162.4080  210.6600  156.1670 C   0  0  0  0  0  0  0  0  0  0  0  0
  163.5380  210.7620  156.3960 N   0  0  0  0  0  0  0  0  0  0  0  0
  1 18  1  0  0  0  0
  2  3  1  0  0  0  0
  2  1  1  1  0  0  0
  4  2  1  0  0  0  0
  5  7  1  6  0  0  0
  5  3  1  0  0  0  0
  6  4  1  0  0  0  0
  6  5  1  0  0  0  0
  7  8  1  0  0  0  0
 10  9  2  0  0  0  0
 10  8  1  0  0  0  0
 11 10  1  0  0  0  0
 12 13  1  0  0  0  0
 13 15  1  0  0  0  0
 14 13  2  0  0  0  0
 15 11  1  0  0  0  0
 17 16  2  0  0  0  0
 18 17  1  0  0  0  0
 19 26  1  6  0  0  0
 19 22  1  0  0  0  0
 20 21  1  0  0  0  0
 21 19  1  0  0  0  0
 22 27  1  1  0  0  0
 23 17  1  1  0  0  0
 23 24  1  0  0  0  0
 24 28  1  6  0  0  0
 25 20  1  1  0  0  0
 25 22  1  0  0  0  0
 25 23  1  0  0  0  0
 27 24  1  0  0  0  0
 28 29  3  0  0  0  0
M  END
>  <MODEL>
1

>  <REMARK>
 VINA RESULT:      -7.0      0.000      0.000
  Name = 
  9 active torsions:
  status: ('A' for Active; 'I' for Inactive)
    1  A    between atoms: C_1  and  N_12
    2  A    between atoms: C_7  and  C_16
    3  A    between atoms: C_11  and  C_20
    4  A    between atoms: C_11  and  S_21
    5  A    between atoms: N_12  and  N_29
    6  A    between atoms: C_13  and  C_18
    7  A    between atoms: C_14  and  S_21
    8  A    between atoms: C_14  and  C_25
    9  A    between atoms: N_24  and  C_25
                            x       y       z     vdW  Elec       q    Type
                         _______ _______ _______ _____ _____    ______ ____

>  <TORSDO>
F 9

$$$$
=
 OpenBabel11052409553D

 29 31  0  0  1  0  0  0  0  0999 V2000
  160.6970  206.8540  152.5410 N   0  0  0  0  0  2  0  0  0  0  0  0
  161.5320  205.9180  151.8030 C   0  0  1  0  0  3  0  0  0  0  0  0
  161.0100  204.5030  151.9850 C   0  0  0  0  0  2  0  0  0  0  0  0
  161.4570  206.2310  150.3220 C   0  0  0  0  0  2  0  0  0  0  0  0
  160.5910  204.0130  150.6120 C   0  0  1  0  0  3  0  0  0  0  0  0
  161.3140  204.8970  149.6250 C   0  0  0  0  0  2  0  0  0  0  0  0
  160.9990  202.5670  150.4090 C   0  0  0  0  0  2  0  0  0  0  0  0
  159.7390  201.6870  149.4380 S   0  0  0  0  0  0  0  0  0  0  0  0
  161.7990  200.4540  148.3830 O   0  0  0  0  0  0  0  0  0  0  0  0
  160.9120  201.2600  148.1530 C   0  0  0  0  0  0  0  0  0  0  0  0
  160.8160  201.9010  146.8100 C   0  0  0  0  0  2  0  0  0  0  0  0
  162.2840  205.3260  145.7720 C   0  0  0  0  0  1  0  0  0  0  0  0
  161.4990  204.0660  145.7190 C   0  0  0  0  0  0  0  0  0  0  0  0
  160.7760  203.8230  144.7160 O   0  0  0  0  0  0  0  0  0  0  0  0
  161.5700  203.1440  146.8060 N   0  0  0  0  0  2  0  0  0  0  0  0
  161.7740  207.8000  155.8500 O   0  0  0  0  0  0  0  0  0  0  0  0
  161.2240  207.9330  154.7260 C   0  0  0  0  0  0  0  0  0  0  0  0
  161.0660  206.7760  153.8930 N   0  0  0  0  0  2  0  0  0  0  0  0
  159.4610  212.0010  155.6960 C   0  0  1  0  0  3  0  0  0  0  0  0
  159.0980  209.6570  155.9550 N   0  0  0  0  0  2  0  0  0  0  0  0
  158.7250  210.9400  156.5270 C   0  0  0  0  0  2  0  0  0  0  0  0
  159.7660  211.3300  154.3620 C   0  0  2  0  0  3  0  0  0  0  0  0
  160.7960  209.2780  154.2880 C   0  0  2  0  0  3  0  0  0  0  0  0
  161.7070  210.2600  153.6400 C   0  0  2  0  0  3  0  0  0  0  0  0
  159.7270  209.9160  154.7150 C   0  0  1  0  0  3  0  0  0  0  0  0
  158.4120  213.4140  155.4440 Cl  0  0  0  0  0  0  0  0  0  0  0  0
  161.1340  211.5870  153.9090 N   0  0  0  0  0  2  0  0  0  0  0  0
  161.7660  210.0240  152.1920 C   0  0  0  0  0  0  0  0  0  0  0  0
  161.8130  209.8380  151.0510 N   0  0  0  0  0  0  0  0  0  0  0  0
  1 18  1  0  0  0  0
  2  3  1  0  0  0  0
  2  1  1  1  0  0  0
  4  2  1  0  0  0  0
  5  7  1  6  0  0  0
  5  3  1  0  0  0  0
  6  4  1  0  0  0  0
  6  5  1  0  0  0  0
  8  7  1  0  0  0  0
 10  9  2  0  0  0  0
 10  8  1  0  0  0  0
 11 10  1  0  0  0  0
 13 12  1  0  0  0  0
 13 15  1  0  0  0  0
 14 13  2  0  0  0  0
 15 11  1  0  0  0  0
 17 16  2  0  0  0  0
 18 17  1  0  0  0  0
 19 26  1  6  0  0  0
 19 21  1  0  0  0  0
 20 21  1  0  0  0  0
 22 27  1  1  0  0  0
 22 25  1  0  0  0  0
 22 19  1  0  0  0  0
 23 25  1  0  0  0  0
 23 17  1  1  0  0  0
 24 28  1  6  0  0  0
 24 27  1  0  0  0  0
 24 23  1  0  0  0  0
 25 20  1  1  0  0  0
 29 28  3  0  0  0  0
M  END
>  <MODEL>
2

>  <REMARK>
 VINA RESULT:      -6.9      1.783      2.590
  Name = 
  9 active torsions:
  status: ('A' for Active; 'I' for Inactive)
    1  A    between atoms: C_1  and  N_12
    2  A    between atoms: C_7  and  C_16
    3  A    between atoms: C_11  and  C_20
    4  A    between atoms: C_11  and  S_21
    5  A    between atoms: N_12  and  N_29
    6  A    between atoms: C_13  and  C_18
    7  A    between atoms: C_14  and  S_21
    8  A    between atoms: C_14  and  C_25
    9  A    between atoms: N_24  and  C_25
                            x       y       z     vdW  Elec       q    Type
                         _______ _______ _______ _____ _____    ______ ____

>  <TORSDO>
F 9

$$$$
=
 OpenBabel11052409553D

 29 31  0  0  1  0  0  0  0  0999 V2000
  161.2490  208.5720  153.5450 N   0  0  0  0  0  2  0  0  0  0  0  0
  160.7560  207.9110  152.3460 C   0  0  1  0  0  3  0  0  0  0  0  0
  161.4380  208.4890  151.1180 C   0  0  0  0  0  2  0  0  0  0  0  0
  161.1110  206.4380  152.3980 C   0  0  0  0  0  2  0  0  0  0  0  0
  162.2250  207.3580  150.4830 C   0  0  1  0  0  3  0  0  0  0  0  0
  161.6110  206.0850  151.0160 C   0  0  0  0  0  2  0  0  0  0  0  0
  162.1020  207.4000  148.9720 C   0  0  0  0  0  2  0  0  0  0  0  0
  160.7000  206.3810  148.4240 S   0  0  0  0  0  0  0  0  0  0  0  0
  162.0510  206.2580  146.1810 O   0  0  0  0  0  0  0  0  0  0  0  0
  161.6660  205.6010  147.1340 C   0  0  0  0  0  0  0  0  0  0  0  0
  161.9830  204.1460  147.2140 C   0  0  0  0  0  2  0  0  0  0  0  0
  160.2870  201.6830  149.6670 C   0  0  0  0  0  1  0  0  0  0  0  0
  160.9070  202.2190  148.4280 C   0  0  0  0  0  0  0  0  0  0  0  0
  161.0300  201.4760  147.4180 O   0  0  0  0  0  0  0  0  0  0  0  0
  161.3590  203.5730  148.3950 N   0  0  0  0  0  2  0  0  0  0  0  0
  160.0820  207.9320  156.8960 O   0  0  0  0  0  0  0  0  0  0  0  0
  160.3920  208.6150  155.8850 C   0  0  0  0  0  0  0  0  0  0  0  0
  160.6630  207.9370  154.6510 N   0  0  0  0  0  2  0  0  0  0  0  0
  158.4390  212.6510  156.5860 C   0  0  1  0  0  3  0  0  0  0  0  0
  158.2790  210.6590  155.2830 N   0  0  0  0  0  2  0  0  0  0  0  0
  157.4900  211.7910  155.7380 C   0  0  0  0  0  2  0  0  0  0  0  0
  159.8420  212.2800  156.1240 C   0  0  2  0  0  3  0  0  0  0  0  0
  160.5010  210.0830  156.0140 C   0  0  2  0  0  3  0  0  0  0  0  0
  161.3580  210.7580  157.0280 C   0  0  2  0  0  3  0  0  0  0  0  0
  159.6360  210.9580  155.5480 C   0  0  1  0  0  3  0  0  0  0  0  0
  158.1310  214.3760  156.2850 Cl  0  0  0  0  0  0  0  0  0  0  0  0
  160.7650  212.0850  157.2440 N   0  0  0  0  0  2  0  0  0  0  0  0
  162.7300  210.8970  156.5260 C   0  0  0  0  0  0  0  0  0  0  0  0
  163.8120  211.0060  156.1300 N   0  0  0  0  0  0  0  0  0  0  0  0
  1 18  1  0  0  0  0
  2  4  1  0  0  0  0
  2  1  1  1  0  0  0
  3  2  1  0  0  0  0
  5  7  1  6  0  0  0
  5  6  1  0  0  0  0
  5  3  1  0  0  0  0
  6  4  1  0  0  0  0
  8  7  1  0  0  0  0
  9 10  2  0  0  0  0
 10 11  1  0  0  0  0
 10  8  1  0  0  0  0
 11 15  1  0  0  0  0
 13 12  1  0  0  0  0
 14 13  2  0  0  0  0
 15 13  1  0  0  0  0
 17 16  2  0  0  0  0
 18 17  1  0  0  0  0
 19 26  1  6  0  0  0
 20 21  1  0  0  0  0
 21 19  1  0  0  0  0
 22 19  1  0  0  0  0
 22 27  1  1  0  0  0
 23 17  1  1  0  0  0
 23 24  1  0  0  0  0
 24 28  1  6  0  0  0
 24 27  1  0  0  0  0
 25 20  1  1  0  0  0
 25 23  1  0  0  0  0
 25 22  1  0  0  0  0
 29 28  3  0  0  0  0
M  END
>  <MODEL>
3

>  <REMARK>
 VINA RESULT:      -6.9      1.950      2.646
  Name = 
  9 active torsions:
  status: ('A' for Active; 'I' for Inactive)
    1  A    between atoms: C_1  and  N_12
    2  A    between atoms: C_7  and  C_16
    3  A    between atoms: C_11  and  C_20
    4  A    between atoms: C_11  and  S_21
    5  A    between atoms: N_12  and  N_29
    6  A    between atoms: C_13  and  C_18
    7  A    between atoms: C_14  and  S_21
    8  A    between atoms: C_14  and  C_25
    9  A    between atoms: N_24  and  C_25
                            x       y       z     vdW  Elec       q    Type
                         _______ _______ _______ _____ _____    ______ ____

>  <TORSDO>
F 9

$$$$
=
 OpenBabel11052409553D

 29 31  0  0  1  0  0  0  0  0999 V2000
  161.1510  209.5810  152.4050 N   0  0  0  0  0  2  0  0  0  0  0  0
  160.5960  208.2380  152.4820 C   0  0  1  0  0  3  0  0  0  0  0  0
  161.2440  207.3470  151.4360 C   0  0  0  0  0  2  0  0  0  0  0  0
  160.9150  207.6350  153.8360 C   0  0  0  0  0  2  0  0  0  0  0  0
  161.9770  206.2530  152.1880 C   0  0  1  0  0  3  0  0  0  0  0  0
  161.3520  206.2140  153.5620 C   0  0  0  0  0  2  0  0  0  0  0  0
  161.7970  204.9140  151.4980 C   0  0  0  0  0  2  0  0  0  0  0  0
  160.7470  205.0990  150.0260 S   0  0  0  0  0  0  0  0  0  0  0  0
  160.6810  202.5160  150.4730 O   0  0  0  0  0  0  0  0  0  0  0  0
  160.8780  203.3610  149.6140 C   0  0  0  0  0  0  0  0  0  0  0  0
  161.2450  202.9470  148.2300 C   0  0  0  0  0  2  0  0  0  0  0  0
  162.4470  205.3500  145.4470 C   0  0  0  0  0  1  0  0  0  0  0  0
  161.8120  204.1800  146.1090 C   0  0  0  0  0  0  0  0  0  0  0  0
  161.2400  203.3020  145.4090 O   0  0  0  0  0  0  0  0  0  0  0  0
  161.8570  204.0640  147.5300 N   0  0  0  0  0  2  0  0  0  0  0  0
  161.2850  211.5610  155.4150 O   0  0  0  0  0  0  0  0  0  0  0  0
  160.8090  211.1160  154.3390 C   0  0  0  0  0  0  0  0  0  0  0  0
  161.4460  209.9940  153.7140 N   0  0  0  0  0  2  0  0  0  0  0  0
  156.7010  212.9910  154.7900 C   0  0  1  0  0  3  0  0  0  0  0  0
  157.9710  211.0390  155.3110 N   0  0  0  0  0  2  0  0  0  0  0  0
  156.7860  211.7730  155.7220 C   0  0  0  0  0  2  0  0  0  0  0  0
  157.5000  212.6080  153.5510 C   0  0  2  0  0  3  0  0  0  0  0  0
  159.6370  211.7860  153.7380 C   0  0  2  0  0  3  0  0  0  0  0  0
  159.7160  213.0770  153.0010 C   0  0  2  0  0  3  0  0  0  0  0  0
  158.3800  211.5660  154.0640 C   0  0  1  0  0  3  0  0  0  0  0  0
  155.0070  213.3060  154.3520 Cl  0  0  0  0  0  0  0  0  0  0  0  0
  158.3830  213.6860  153.1020 N   0  0  0  0  0  2  0  0  0  0  0  0
  160.0550  212.8400  151.5930 C   0  0  0  0  0  0  0  0  0  0  0  0
  160.3220  212.6540  150.4820 N   0  0  0  0  0  0  0  0  0  0  0  0
  1 18  1  0  0  0  0
  2  1  1  1  0  0  0
  2  4  1  0  0  0  0
  3  5  1  0  0  0  0
  3  2  1  0  0  0  0
  5  7  1  6  0  0  0
  5  6  1  0  0  0  0
  6  4  1  0  0  0  0
  8  7  1  0  0  0  0
 10  8  1  0  0  0  0
 10  9  2  0  0  0  0
 11 10  1  0  0  0  0
 12 13  1  0  0  0  0
 13 15  1  0  0  0  0
 14 13  2  0  0  0  0
 15 11  1  0  0  0  0
 17 16  2  0  0  0  0
 18 17  1  0  0  0  0
 19 26  1  6  0  0  0
 19 21  1  0  0  0  0
 20 21  1  0  0  0  0
 22 27  1  1  0  0  0
 22 25  1  0  0  0  0
 22 19  1  0  0  0  0
 23 25  1  0  0  0  0
 23 17  1  1  0  0  0
 24 28  1  6  0  0  0
 24 27  1  0  0  0  0
 24 23  1  0  0  0  0
 25 20  1  1  0  0  0
 29 28  3  0  0  0  0
M  END
>  <MODEL>
4

>  <REMARK>
 VINA RESULT:      -6.7      2.146      3.213
  Name = 
  9 active torsions:
  status: ('A' for Active; 'I' for Inactive)
    1  A    between atoms: C_1  and  N_12
    2  A    between atoms: C_7  and  C_16
    3  A    between atoms: C_11  and  C_20
    4  A    between atoms: C_11  and  S_21
    5  A    between atoms: N_12  and  N_29
    6  A    between atoms: C_13  and  C_18
    7  A    between atoms: C_14  and  S_21
    8  A    between atoms: C_14  and  C_25
    9  A    between atoms: N_24  and  C_25
                            x       y       z     vdW  Elec       q    Type
                         _______ _______ _______ _____ _____    ______ ____

>  <TORSDO>
F 9

$$$$
=
 OpenBabel11052409553D

 29 31  0  0  1  0  0  0  0  0999 V2000
  161.2640  207.7760  153.3360 N   0  0  0  0  0  2  0  0  0  0  0  0
  160.6320  206.7290  152.5470 C   0  0  1  0  0  3  0  0  0  0  0  0
  160.8310  207.0040  151.0660 C   0  0  0  0  0  2  0  0  0  0  0  0
  161.2970  205.3990  152.8440 C   0  0  0  0  0  2  0  0  0  0  0  0
  161.6510  205.8530  150.5160 C   0  0  1  0  0  3  0  0  0  0  0  0
  161.4860  204.7240  151.5040 C   0  0  0  0  0  2  0  0  0  0  0  0
  161.1360  205.4290  149.1540 C   0  0  0  0  0  2  0  0  0  0  0  0
  161.5210  206.6990  147.9110 S   0  0  0  0  0  0  0  0  0  0  0  0
  162.0720  205.8240  145.5010 O   0  0  0  0  0  0  0  0  0  0  0  0
  161.8890  205.4750  146.6570 C   0  0  0  0  0  0  0  0  0  0  0  0
  161.9530  204.0300  147.0180 C   0  0  0  0  0  2  0  0  0  0  0  0
  160.0940  201.1940  145.1580 C   0  0  0  0  0  1  0  0  0  0  0  0
  160.7430  201.9580  146.2550 C   0  0  0  0  0  0  0  0  0  0  0  0
  160.7830  201.4700  147.4160 O   0  0  0  0  0  0  0  0  0  0  0  0
  161.3150  203.2360  145.9820 N   0  0  0  0  0  2  0  0  0  0  0  0
  161.2010  211.0810  151.8950 O   0  0  0  0  0  0  0  0  0  0  0  0
  161.1520  210.2080  152.8010 C   0  0  0  0  0  0  0  0  0  0  0  0
  161.5160  208.8590  152.4800 N   0  0  0  0  0  2  0  0  0  0  0  0
  157.7530  211.0110  155.6990 C   0  0  1  0  0  3  0  0  0  0  0  0
  158.5640  211.5450  153.5190 N   0  0  0  0  0  2  0  0  0  0  0  0
  157.3470  211.5350  154.3140 C   0  0  0  0  0  2  0  0  0  0  0  0
  159.2500  211.2740  155.8080 C   0  0  2  0  0  3  0  0  0  0  0  0
  160.6860  210.5940  154.1490 C   0  0  2  0  0  3  0  0  0  0  0  0
  161.0480  209.8520  155.3880 C   0  0  2  0  0  3  0  0  0  0  0  0
  159.6480  211.3600  154.4090 C   0  0  1  0  0  3  0  0  0  0  0  0
  156.8820  211.9010  156.9680 Cl  0  0  0  0  0  0  0  0  0  0  0  0
  159.9780  210.1280  156.3560 N   0  0  0  0  0  2  0  0  0  0  0  0
  162.3340  210.3290  155.9110 C   0  0  0  0  0  0  0  0  0  0  0  0
  163.3470  210.7060  156.3230 N   0  0  0  0  0  0  0  0  0  0  0  0
  2  4  1  0  0  0  0
  2  1  1  1  0  0  0
  3  2  1  0  0  0  0
  5  7  1  6  0  0  0
  5  3  1  0  0  0  0
  5  6  1  0  0  0  0
  6  4  1  0  0  0  0
  8  7  1  0  0  0  0
  9 10  2  0  0  0  0
 10 11  1  0  0  0  0
 10  8  1  0  0  0  0
 12 13  1  0  0  0  0
 13 14  2  0  0  0  0
 15 13  1  0  0  0  0
 15 11  1  0  0  0  0
 16 17  2  0  0  0  0
 18 17  1  0  0  0  0
 18  1  1  0  0  0  0
 19 22  1  0  0  0  0
 19 26  1  1  0  0  0
 20 21  1  0  0  0  0
 21 19  1  0  0  0  0
 22 27  1  6  0  0  0
 23 17  1  6  0  0  0
 23 25  1  0  0  0  0
 23 24  1  0  0  0  0
 24 28  1  1  0  0  0
 24 27  1  0  0  0  0
 25 20  1  6  0  0  0
 25 22  1  0  0  0  0
 28 29  3  0  0  0  0
M  END
>  <MODEL>
5

>  <REMARK>
 VINA RESULT:      -6.5      2.057      2.657
  Name = 
  9 active torsions:
  status: ('A' for Active; 'I' for Inactive)
    1  A    between atoms: C_1  and  N_12
    2  A    between atoms: C_7  and  C_16
    3  A    between atoms: C_11  and  C_20
    4  A    between atoms: C_11  and  S_21
    5  A    between atoms: N_12  and  N_29
    6  A    between atoms: C_13  and  C_18
    7  A    between atoms: C_14  and  S_21
    8  A    between atoms: C_14  and  C_25
    9  A    between atoms: N_24  and  C_25
                            x       y       z     vdW  Elec       q    Type
                         _______ _______ _______ _____ _____    ______ ____

>  <TORSDO>
F 9

$$$$
=
 OpenBabel11052409553D

 29 31  0  0  1  0  0  0  0  0999 V2000
  160.4020  205.9540  149.9890 N   0  0  0  0  0  2  0  0  0  0  0  0
  160.8310  205.1970  148.8240 C   0  0  1  0  0  3  0  0  0  0  0  0
  160.0810  205.6730  147.5910 C   0  0  0  0  0  2  0  0  0  0  0  0
  162.3040  205.4490  148.5700 C   0  0  0  0  0  2  0  0  0  0  0  0
  161.1180  206.2420  146.6420 C   0  0  1  0  0  3  0  0  0  0  0  0
  162.4380  205.6520  147.0770 C   0  0  0  0  0  2  0  0  0  0  0  0
  160.8170  205.8390  145.2110 C   0  0  0  0  0  2  0  0  0  0  0  0
  161.8960  204.4680  144.7020 S   0  0  0  0  0  0  0  0  0  0  0  0
  159.4860  203.4780  144.4030 O   0  0  0  0  0  0  0  0  0  0  0  0
  160.5860  203.2610  144.8860 C   0  0  0  0  0  0  0  0  0  0  0  0
  160.8310  202.0010  145.6440 C   0  0  0  0  0  2  0  0  0  0  0  0
  160.8310  201.5890  149.4900 C   0  0  0  0  0  1  0  0  0  0  0  0
  161.0440  201.2890  148.0500 C   0  0  0  0  0  0  0  0  0  0  0  0
  161.5810  200.2010  147.7120 O   0  0  0  0  0  0  0  0  0  0  0  0
  160.6380  202.2380  147.0650 N   0  0  0  0  0  2  0  0  0  0  0  0
  162.6250  205.9210  152.8290 O   0  0  0  0  0  0  0  0  0  0  0  0
  161.7890  206.3930  152.0130 C   0  0  0  0  0  0  0  0  0  0  0  0
  161.1510  205.5030  151.0880 N   0  0  0  0  0  2  0  0  0  0  0  0
  161.2330  210.2820  154.2850 C   0  0  1  0  0  3  0  0  0  0  0  0
  160.5080  208.0100  154.1920 N   0  0  0  0  0  2  0  0  0  0  0  0
  160.5830  209.1480  155.0920 C   0  0  0  0  0  2  0  0  0  0  0  0
  160.9890  209.9280  152.8240 C   0  0  2  0  0  3  0  0  0  0  0  0
  161.5240  207.8460  152.0130 C   0  0  2  0  0  3  0  0  0  0  0  0
  162.3770  208.8380  151.3010 C   0  0  2  0  0  3  0  0  0  0  0  0
  160.7790  208.4880  152.8880 C   0  0  1  0  0  3  0  0  0  0  0  0
  160.4560  211.8320  154.6770 Cl  0  0  0  0  0  0  0  0  0  0  0  0
  162.1830  210.1170  151.9980 N   0  0  0  0  0  2  0  0  0  0  0  0
  161.9560  208.9600  149.9010 C   0  0  0  0  0  0  0  0  0  0  0  0
  161.6240  209.0570  148.7960 N   0  0  0  0  0  0  0  0  0  0  0  0
  1 18  1  0  0  0  0
  2  1  1  1  0  0  0
  3  2  1  0  0  0  0
  4  2  1  0  0  0  0
  5  7  1  6  0  0  0
  5  6  1  0  0  0  0
  5  3  1  0  0  0  0
  6  4  1  0  0  0  0
  8 10  1  0  0  0  0
  8  7  1  0  0  0  0
  9 10  2  0  0  0  0
 10 11  1  0  0  0  0
 11 15  1  0  0  0  0
 13 12  1  0  0  0  0
 14 13  2  0  0  0  0
 15 13  1  0  0  0  0
 17 16  2  0  0  0  0
 18 17  1  0  0  0  0
 19 26  1  1  0  0  0
 19 21  1  0  0  0  0
 20 21  1  0  0  0  0
 22 27  1  6  0  0  0
 22 25  1  0  0  0  0
 22 19  1  0  0  0  0
 23 17  1  1  0  0  0
 23 25  1  0  0  0  0
 24 28  1  6  0  0  0
 24 27  1  0  0  0  0
 24 23  1  0  0  0  0
 25 20  1  1  0  0  0
 29 28  3  0  0  0  0
M  END
>  <MODEL>
6

>  <REMARK>
 VINA RESULT:      -6.5      2.469      4.147
  Name = 
  9 active torsions:
  status: ('A' for Active; 'I' for Inactive)
    1  A    between atoms: C_1  and  N_12
    2  A    between atoms: C_7  and  C_16
    3  A    between atoms: C_11  and  C_20
    4  A    between atoms: C_11  and  S_21
    5  A    between atoms: N_12  and  N_29
    6  A    between atoms: C_13  and  C_18
    7  A    between atoms: C_14  and  S_21
    8  A    between atoms: C_14  and  C_25
    9  A    between atoms: N_24  and  C_25
                            x       y       z     vdW  Elec       q    Type
                         _______ _______ _______ _____ _____    ______ ____

>  <TORSDO>
F 9

$$$$
=
 OpenBabel11052409553D

 29 31  0  0  1  0  0  0  0  0999 V2000
  160.5320  209.2040  152.2590 N   0  0  0  0  0  2  0  0  0  0  0  0
  161.6080  208.6140  151.4770 C   0  0  1  0  0  3  0  0  0  0  0  0
  161.1430  207.3060  150.8590 C   0  0  0  0  0  2  0  0  0  0  0  0
  161.9710  209.5400  150.3330 C   0  0  0  0  0  2  0  0  0  0  0  0
  161.1940  207.4920  149.3550 C   0  0  1  0  0  3  0  0  0  0  0  0
  162.1300  208.6530  149.1190 C   0  0  0  0  0  2  0  0  0  0  0  0
  161.7320  206.2470  148.6770 C   0  0  0  0  0  2  0  0  0  0  0  0
  161.1880  206.1880  146.9430 S   0  0  0  0  0  0  0  0  0  0  0  0
  163.3460  204.8210  146.3520 O   0  0  0  0  0  0  0  0  0  0  0  0
  162.1560  204.7200  146.6050 C   0  0  0  0  0  0  0  0  0  0  0  0
  161.5060  203.3780  146.6120 C   0  0  0  0  0  2  0  0  0  0  0  0
  160.7750  201.2780  149.7780 C   0  0  0  0  0  1  0  0  0  0  0  0
  161.0760  201.6190  148.3630 C   0  0  0  0  0  0  0  0  0  0  0  0
  161.2190  200.6980  147.5160 O   0  0  0  0  0  0  0  0  0  0  0  0
  161.2020  202.9880  147.9790 N   0  0  0  0  0  2  0  0  0  0  0  0
  161.3550  211.0620  155.2380 O   0  0  0  0  0  0  0  0  0  0  0  0
  160.6790  210.7200  154.2320 C   0  0  0  0  0  0  0  0  0  0  0  0
  161.0560  209.5350  153.5190 N   0  0  0  0  0  2  0  0  0  0  0  0
  156.8670  212.9790  155.2130 C   0  0  1  0  0  3  0  0  0  0  0  0
  157.9380  210.8590  155.4460 N   0  0  0  0  0  2  0  0  0  0  0  0
  156.8840  211.6740  156.0240 C   0  0  0  0  0  2  0  0  0  0  0  0
  157.5150  212.6330  153.8790 C   0  0  2  0  0  3  0  0  0  0  0  0
  159.5500  211.5690  153.8010 C   0  0  2  0  0  3  0  0  0  0  0  0
  159.7200  212.9090  153.1750 C   0  0  2  0  0  3  0  0  0  0  0  0
  158.3060  211.4570  154.2180 C   0  0  1  0  0  3  0  0  0  0  0  0
  155.1920  213.5180  154.9580 Cl  0  0  0  0  0  0  0  0  0  0  0  0
  158.4790  213.6470  153.4480 N   0  0  0  0  0  2  0  0  0  0  0  0
  159.9160  212.7750  151.7270 C   0  0  0  0  0  0  0  0  0  0  0  0
  160.0710  212.6690  150.5850 N   0  0  0  0  0  0  0  0  0  0  0  0
  1 18  1  0  0  0  0
  2  1  1  6  0  0  0
  3  2  1  0  0  0  0
  4  2  1  0  0  0  0
  5  7  1  6  0  0  0
  5  3  1  0  0  0  0
  6  5  1  0  0  0  0
  6  4  1  0  0  0  0
  8  7  1  0  0  0  0
  9 10  2  0  0  0  0
 10 11  1  0  0  0  0
 10  8  1  0  0  0  0
 11 15  1  0  0  0  0
 13 12  1  0  0  0  0
 14 13  2  0  0  0  0
 15 13  1  0  0  0  0
 17 16  2  0  0  0  0
 18 17  1  0  0  0  0
 19 26  1  6  0  0  0
 19 21  1  0  0  0  0
 20 21  1  0  0  0  0
 22 27  1  1  0  0  0
 22 25  1  0  0  0  0
 22 19  1  0  0  0  0
 23 25  1  0  0  0  0
 23 17  1  1  0  0  0
 24 28  1  6  0  0  0
 24 27  1  0  0  0  0
 24 23  1  0  0  0  0
 25 20  1  1  0  0  0
 29 28  3  0  0  0  0
M  END
>  <MODEL>
7

>  <REMARK>
 VINA RESULT:      -6.5      2.176      3.243
  Name = 
  9 active torsions:
  status: ('A' for Active; 'I' for Inactive)
    1  A    between atoms: C_1  and  N_12
    2  A    between atoms: C_7  and  C_16
    3  A    between atoms: C_11  and  C_20
    4  A    between atoms: C_11  and  S_21
    5  A    between atoms: N_12  and  N_29
    6  A    between atoms: C_13  and  C_18
    7  A    between atoms: C_14  and  S_21
    8  A    between atoms: C_14  and  C_25
    9  A    between atoms: N_24  and  C_25
                            x       y       z     vdW  Elec       q    Type
                         _______ _______ _______ _____ _____    ______ ____

>  <TORSDO>
F 9

$$$$
=
 OpenBabel11052409553D

 29 31  0  0  1  0  0  0  0  0999 V2000
  162.3640  205.9600  151.3100 N   0  0  0  0  0  2  0  0  0  0  0  0
  162.3010  206.3060  152.7220 C   0  0  1  0  0  3  0  0  0  0  0  0
  161.9330  207.7720  152.8810 C   0  0  0  0  0  2  0  0  0  0  0  0
  161.2070  205.5000  153.3930 C   0  0  0  0  0  2  0  0  0  0  0  0
  160.6010  207.8110  153.6060 C   0  0  1  0  0  3  0  0  0  0  0  0
  160.4680  206.4700  154.2870 C   0  0  0  0  0  2  0  0  0  0  0  0
  160.5830  208.9210  154.6390 C   0  0  0  0  0  2  0  0  0  0  0  0
  161.5820  210.3290  154.0680 S   0  0  0  0  0  0  0  0  0  0  0  0
  161.5130  211.1910  156.5430 O   0  0  0  0  0  0  0  0  0  0  0  0
  161.0480  211.3640  155.4280 C   0  0  0  0  0  0  0  0  0  0  0  0
  160.0220  212.4220  155.2030 C   0  0  0  0  0  2  0  0  0  0  0  0
  156.4070  211.0580  155.3860 C   0  0  0  0  0  1  0  0  0  0  0  0
  157.7020  211.5200  154.8220 C   0  0  0  0  0  0  0  0  0  0  0  0
  157.8790  211.5100  153.5740 O   0  0  0  0  0  0  0  0  0  0  0  0
  158.7330  211.9700  155.7000 N   0  0  0  0  0  2  0  0  0  0  0  0
  160.2350  203.4070  149.9120 O   0  0  0  0  0  0  0  0  0  0  0  0
  161.0190  204.3920  149.9150 C   0  0  0  0  0  0  0  0  0  0  0  0
  161.6740  204.7490  151.1390 N   0  0  0  0  0  2  0  0  0  0  0  0
  160.8130  204.6600  145.3890 C   0  0  1  0  0  3  0  0  0  0  0  0
  161.6440  203.3220  147.1820 N   0  0  0  0  0  2  0  0  0  0  0  0
  161.2950  203.2530  145.7730 C   0  0  0  0  0  2  0  0  0  0  0  0
  161.4280  205.5940  146.4240 C   0  0  2  0  0  3  0  0  0  0  0  0
  161.2080  205.1660  148.6700 C   0  0  2  0  0  3  0  0  0  0  0  0
  160.5130  206.4520  148.3880 C   0  0  2  0  0  3  0  0  0  0  0  0
  161.6830  204.6900  147.5380 C   0  0  1  0  0  3  0  0  0  0  0  0
  161.3950  205.0810  143.7630 Cl  0  0  0  0  0  0  0  0  0  0  0  0
  160.4680  206.5790  146.9250 N   0  0  0  0  0  2  0  0  0  0  0  0
  161.2620  207.5740  148.9660 C   0  0  0  0  0  0  0  0  0  0  0  0
  161.8530  208.4590  149.4220 N   0  0  0  0  0  0  0  0  0  0  0  0
  2  1  1  6  0  0  0
  2  3  1  0  0  0  0
  2  4  1  0  0  0  0
  3  5  1  0  0  0  0
  4  6  1  0  0  0  0
  5  6  1  0  0  0  0
  5  7  1  1  0  0  0
  8  7  1  0  0  0  0
  8 10  1  0  0  0  0
 10  9  2  0  0  0  0
 11 10  1  0  0  0  0
 11 15  1  0  0  0  0
 13 12  1  0  0  0  0
 13 15  1  0  0  0  0
 14 13  2  0  0  0  0
 16 17  2  0  0  0  0
 17 18  1  0  0  0  0
 18  1  1  0  0  0  0
 19 26  1  6  0  0  0
 19 21  1  0  0  0  0
 19 22  1  0  0  0  0
 21 20  1  0  0  0  0
 22 27  1  1  0  0  0
 22 25  1  0  0  0  0
 23 17  1  6  0  0  0
 24 23  1  0  0  0  0
 24 28  1  1  0  0  0
 25 20  1  6  0  0  0
 25 23  1  0  0  0  0
 27 24  1  0  0  0  0
 28 29  3  0  0  0  0
M  END
>  <MODEL>
8

>  <REMARK>
 VINA RESULT:      -6.5      3.760      9.334
  Name = 
  9 active torsions:
  status: ('A' for Active; 'I' for Inactive)
    1  A    between atoms: C_1  and  N_12
    2  A    between atoms: C_7  and  C_16
    3  A    between atoms: C_11  and  C_20
    4  A    between atoms: C_11  and  S_21
    5  A    between atoms: N_12  and  N_29
    6  A    between atoms: C_13  and  C_18
    7  A    between atoms: C_14  and  S_21
    8  A    between atoms: C_14  and  C_25
    9  A    between atoms: N_24  and  C_25
                            x       y       z     vdW  Elec       q    Type
                         _______ _______ _______ _____ _____    ______ ____

>  <TORSDO>
F 9

$$$$
=
 OpenBabel11052409553D

 29 31  0  0  1  0  0  0  0  0999 V2000
  161.3410  205.2010  151.0810 N   0  0  0  0  0  2  0  0  0  0  0  0
  160.4810  204.0480  150.8610 C   0  0  1  0  0  3  0  0  0  0  0  0
  160.3800  203.7520  149.3740 C   0  0  0  0  0  2  0  0  0  0  0  0
  161.0960  202.8260  151.5140 C   0  0  0  0  0  2  0  0  0  0  0  0
  160.9790  202.3740  149.1620 C   0  0  1  0  0  3  0  0  0  0  0  0
  160.9460  201.7030  150.5130 C   0  0  0  0  0  2  0  0  0  0  0  0
  160.1560  201.5780  148.1670 C   0  0  0  0  0  2  0  0  0  0  0  0
  161.2450  200.6130  147.0780 S   0  0  0  0  0  0  0  0  0  0  0  0
  159.9260  200.4640  144.8170 O   0  0  0  0  0  0  0  0  0  0  0  0
  160.4540  201.2380  145.5980 C   0  0  0  0  0  0  0  0  0  0  0  0
  160.4560  202.7020  145.3110 C   0  0  0  0  0  2  0  0  0  0  0  0
  163.3080  205.0820  146.3910 C   0  0  0  0  0  1  0  0  0  0  0  0
  161.9400  204.5720  146.1130 C   0  0  0  0  0  0  0  0  0  0  0  0
  160.9420  205.3070  146.3380 O   0  0  0  0  0  0  0  0  0  0  0  0
  161.7710  203.2540  145.5920 N   0  0  0  0  0  2  0  0  0  0  0  0
  161.9860  206.6860  154.3030 O   0  0  0  0  0  0  0  0  0  0  0  0
  161.6230  206.6370  153.0980 C   0  0  0  0  0  0  0  0  0  0  0  0
  161.4960  205.3560  152.4670 N   0  0  0  0  0  2  0  0  0  0  0  0
  160.8140  211.1030  153.1380 C   0  0  1  0  0  3  0  0  0  0  0  0
  160.0810  209.0270  154.0570 N   0  0  0  0  0  2  0  0  0  0  0  0
  160.0490  210.4580  154.3030 C   0  0  0  0  0  2  0  0  0  0  0  0
  160.7640  210.0820  152.0080 C   0  0  2  0  0  3  0  0  0  0  0  0
  161.3770  207.8980  152.3680 C   0  0  2  0  0  3  0  0  0  0  0  0
  162.3290  208.4740  151.3790 C   0  0  2  0  0  3  0  0  0  0  0  0
  160.5290  208.8380  152.7290 C   0  0  1  0  0  3  0  0  0  0  0  0
  160.0110  212.6090  152.6390 Cl  0  0  0  0  0  0  0  0  0  0  0  0
  162.0600  209.9180  151.3470 N   0  0  0  0  0  2  0  0  0  0  0  0
  162.1000  207.8910  150.0510 C   0  0  0  0  0  0  0  0  0  0  0  0
  161.9200  207.4320  149.0050 N   0  0  0  0  0  0  0  0  0  0  0  0
  1 18  1  0  0  0  0
  2  1  1  6  0  0  0
  2  4  1  0  0  0  0
  3  2  1  0  0  0  0
  5  7  1  6  0  0  0
  5  3  1  0  0  0  0
  5  6  1  0  0  0  0
  6  4  1  0  0  0  0
  8  7  1  0  0  0  0
  9 10  2  0  0  0  0
 10  8  1  0  0  0  0
 11 15  1  0  0  0  0
 11 10  1  0  0  0  0
 13 14  2  0  0  0  0
 13 12  1  0  0  0  0
 15 13  1  0  0  0  0
 17 16  2  0  0  0  0
 18 17  1  0  0  0  0
 19 26  1  6  0  0  0
 19 21  1  0  0  0  0
 20 21  1  0  0  0  0
 22 27  1  1  0  0  0
 22 25  1  0  0  0  0
 22 19  1  0  0  0  0
 23 25  1  0  0  0  0
 23 17  1  1  0  0  0
 24 28  1  6  0  0  0
 24 23  1  0  0  0  0
 25 20  1  1  0  0  0
 27 24  1  0  0  0  0
 29 28  3  0  0  0  0
M  END
>  <MODEL>
9

>  <REMARK>
 VINA RESULT:      -6.5      2.379      4.203
  Name = 
  9 active torsions:
  status: ('A' for Active; 'I' for Inactive)
    1  A    between atoms: C_1  and  N_12
    2  A    between atoms: C_7  and  C_16
    3  A    between atoms: C_11  and  C_20
    4  A    between atoms: C_11  and  S_21
    5  A    between atoms: N_12  and  N_29
    6  A    between atoms: C_13  and  C_18
    7  A    between atoms: C_14  and  S_21
    8  A    between atoms: C_14  and  C_25
    9  A    between atoms: N_24  and  C_25
                            x       y       z     vdW  Elec       q    Type
                         _______ _______ _______ _____ _____    ______ ____

>  <TORSDO>
F 9

$$$$
