=
 OpenBabel11052409283D

 35 40  0  0  1  0  0  0  0  0999 V2000
  161.8060  203.3300  147.0840 N   0  0  0  0  0  2  0  0  0  0  0  0
  161.3050  207.2990  152.9200 C   0  0  0  0  0  0  0  0  0  0  0  0
  160.4620  204.3860  148.9810 N   0  0  0  0  0  0  0  0  0  0  0  0
  161.8660  202.4870  149.3270 C   0  0  0  0  0  3  0  0  0  0  0  0
  162.1420  205.8050  146.1900 C   0  0  0  0  0  2  0  0  0  0  0  0
  161.4220  207.5720  149.2530 C   0  0  0  0  0  3  0  0  0  0  0  0
  161.5920  202.5910  150.7740 C   0  0  0  0  0  0  0  0  0  0  0  0
  161.4600  206.0070  153.0640 C   0  0  0  0  0  0  0  0  0  0  0  0
  160.5360  207.0090  148.1890 C   0  0  2  0  0  3  0  0  0  0  0  0
  160.7320  203.5090  151.2490 C   0  0  0  0  0  0  0  0  0  0  0  0
  160.9750  207.5800  150.5100 C   0  0  0  0  0  3  0  0  0  0  0  0
  161.9720  203.8740  144.8270 O   0  0  0  0  0  0  0  0  0  0  0  0
  162.2890  201.7610  151.6440 O   0  0  0  0  0  1  0  0  0  0  0  0
  160.5890  205.6240  148.3520 C   0  0  0  0  0  0  0  0  0  0  0  0
  161.9320  204.3080  146.0070 C   0  0  0  0  0  0  0  0  0  0  0  0
  160.2910  207.9950  153.8020 C   0  0  0  0  0  2  0  0  0  0  0  0
  160.5850  203.7440  152.7210 C   0  0  0  0  0  2  0  0  0  0  0  0
  161.5910  211.6880  151.0930 C   0  0  0  0  0  2  0  0  0  0  0  0
  161.2530  206.2360  147.2660 C   0  0  0  0  0  0  0  0  0  0  0  0
  161.6090  204.7170  153.2170 C   0  0  0  0  0  3  0  0  0  0  0  0
  161.8380  209.4860  151.9070 C   0  0  2  0  0  3  0  0  0  0  0  0
  159.8640  204.3020  150.3110 C   0  0  0  0  0  2  0  0  0  0  0  0
  160.6300  211.3870  152.2450 C   0  0  2  0  0  3  0  0  0  0  0  0
  162.2540  210.3660  150.7550 C   0  0  0  0  0  2  0  0  0  0  0  0
  161.3580  203.3750  148.4700 C   0  0  0  0  0  0  0  0  0  0  0  0
  160.4050  209.5250  153.7290 C   0  0  0  0  0  2  0  0  0  0  0  0
  161.8340  207.9750  151.6720 C   0  0  1  0  0  3  0  0  0  0  0  0
  160.5310  209.9390  152.3390 N   0  0  2  0  0  0  0  0  0  0  0  0
  159.2580  211.9800  151.9590 C   0  0  0  0  0  2  0  0  0  0  0  0
  156.9660  212.0800  155.0830 C   0  0  0  0  0  0  0  0  0  0  0  0
  157.2350  213.1600  155.6720 O   0  0  0  0  0  0  0  0  0  0  0  0
  159.0190  213.5950  153.6890 O   0  0  0  0  0  0  0  0  0  0  0  0
  157.6300  211.7140  153.8690 N   0  0  0  0  0  2  0  0  0  0  0  0
  155.9400  211.1710  155.6560 C   0  0  0  0  0  1  0  0  0  0  0  0
  158.6350  212.4940  153.2120 C   0  0  0  0  0  0  0  0  0  0  0  0
  1 25  1  0  0  0  0
  2  8  2  0  0  0  0
  2 16  1  0  0  0  0
  3 22  1  0  0  0  0
  4  7  1  0  0  0  0
  5 19  1  0  0  0  0
  6 11  2  0  0  0  0
  7 10  2  0  0  0  0
  7 13  1  0  0  0  0
  8 20  2  0  0  0  0
  9 14  1  0  0  0  0
  9  6  1  1  0  0  0
 10 17  1  0  0  0  0
 12 15  2  0  0  0  0
 14  3  1  0  0  0  0
 15  5  1  0  0  0  0
 15  1  1  0  0  0  0
 17 20  1  0  0  0  0
 18 23  1  0  0  0  0
 19  9  1  0  0  0  0
 19 14  2  0  0  0  0
 21 24  1  6  0  0  0
 21 28  1  0  0  0  0
 22 10  1  0  0  0  0
 23 29  1  6  0  0  0
 23 28  1  0  0  0  0
 24 18  1  0  0  0  0
 25  3  1  0  0  0  0
 25  4  2  0  0  0  0
 26 16  1  0  0  0  0
 27 11  1  6  0  0  0
 27 21  1  0  0  0  0
 27  2  1  0  0  0  0
 28 26  1  1  0  0  0
 29 35  1  0  0  0  0
 30 34  1  0  0  0  0
 30 31  2  0  0  0  0
 33 30  1  0  0  0  0
 35 32  2  0  0  0  0
 35 33  1  0  0  0  0
M  END
>  <MODEL>
1

>  <REMARK>
 VINA RESULT:      -6.9      0.000      0.000
  Name = 
  2 active torsions:
  status: ('A' for Active; 'I' for Inactive)
    1  A    between atoms: C_27  and  C_32
    2  A    between atoms: C_29  and  C_32
                            x       y       z     vdW  Elec       q    Type
                         _______ _______ _______ _____ _____    ______ ____

>  <TORSDO>
F 2

$$$$
=
 OpenBabel11052409283D

 35 40  0  0  1  0  0  0  0  0999 V2000
  160.3290  210.7160  156.7640 N   0  0  0  0  0  2  0  0  0  0  0  0
  157.1410  214.2760  151.5460 C   0  0  0  0  0  0  0  0  0  0  0  0
  158.5640  210.9250  154.9310 N   0  0  0  0  0  0  0  0  0  0  0  0
  158.3600  212.0580  157.0210 C   0  0  0  0  0  3  0  0  0  0  0  0
  162.1050  210.6660  154.7940 C   0  0  0  0  0  2  0  0  0  0  0  0
  160.0660  212.1460  152.2110 C   0  0  0  0  0  3  0  0  0  0  0  0
  157.1610  212.7400  156.4960 C   0  0  0  0  0  0  0  0  0  0  0  0
  156.6360  214.3630  152.7510 C   0  0  0  0  0  0  0  0  0  0  0  0
  160.1760  210.7450  152.7210 C   0  0  2  0  0  3  0  0  0  0  0  0
  156.6780  212.4440  155.2760 C   0  0  0  0  0  0  0  0  0  0  0  0
  158.8800  212.5660  151.7670 C   0  0  0  0  0  3  0  0  0  0  0  0
  162.3210  209.5140  156.8540 O   0  0  0  0  0  0  0  0  0  0  0  0
  156.5760  213.7420  157.2610 O   0  0  0  0  0  1  0  0  0  0  0  0
  159.5670  210.7560  153.9770 C   0  0  0  0  0  0  0  0  0  0  0  0
  161.5720  210.2470  156.1580 C   0  0  0  0  0  0  0  0  0  0  0  0
  156.1850  214.0870  150.3880 C   0  0  0  0  0  2  0  0  0  0  0  0
  155.5770  213.2530  154.6620 C   0  0  0  0  0  2  0  0  0  0  0  0
  160.3040  213.7960  148.0180 C   0  0  0  0  0  2  0  0  0  0  0  0
  160.9730  210.6690  153.8710 C   0  0  0  0  0  0  0  0  0  0  0  0
  156.1220  214.4530  153.9500 C   0  0  0  0  0  3  0  0  0  0  0  0
  159.0070  214.2800  149.9300 C   0  0  2  0  0  3  0  0  0  0  0  0
  157.2070  211.2630  154.5100 C   0  0  0  0  0  2  0  0  0  0  0  0
  158.8030  213.7200  147.7310 C   0  0  2  0  0  3  0  0  0  0  0  0
  160.4270  213.9830  149.5180 C   0  0  0  0  0  2  0  0  0  0  0  0
  159.0590  211.2190  156.2550 C   0  0  0  0  0  0  0  0  0  0  0  0
  156.8710  214.2760  149.0260 C   0  0  0  0  0  2  0  0  0  0  0  0
  158.6190  213.9900  151.3800 C   0  0  1  0  0  3  0  0  0  0  0  0
  158.1400  213.5620  149.0170 N   0  0  2  0  0  0  0  0  0  0  0  0
  158.4930  212.5240  146.8420 C   0  0  0  0  0  2  0  0  0  0  0  0
  159.6290  212.5060  143.1360 C   0  0  0  0  0  0  0  0  0  0  0  0
  158.9240  213.3740  142.5570 O   0  0  0  0  0  0  0  0  0  0  0  0
  157.7730  213.7960  144.9650 O   0  0  0  0  0  0  0  0  0  0  0  0
  159.4800  212.2460  144.5360 N   0  0  0  0  0  2  0  0  0  0  0  0
  160.6330  211.7390  142.3550 C   0  0  0  0  0  1  0  0  0  0  0  0
  158.5540  212.9090  145.4030 C   0  0  0  0  0  0  0  0  0  0  0  0
  2  8  2  0  0  0  0
  3 25  1  0  0  0  0
  5 15  1  0  0  0  0
  7  4  1  0  0  0  0
  7 13  1  0  0  0  0
  8 20  2  0  0  0  0
  9  6  1  1  0  0  0
  9 19  1  0  0  0  0
  9 14  1  0  0  0  0
 10  7  2  0  0  0  0
 11  6  2  0  0  0  0
 14  3  1  0  0  0  0
 15  1  1  0  0  0  0
 15 12  2  0  0  0  0
 16  2  1  0  0  0  0
 17 10  1  0  0  0  0
 18 24  1  0  0  0  0
 19 14  2  0  0  0  0
 19  5  1  0  0  0  0
 20 17  1  0  0  0  0
 21 24  1  1  0  0  0
 21 27  1  0  0  0  0
 22  3  1  0  0  0  0
 22 10  1  0  0  0  0
 23 29  1  6  0  0  0
 23 18  1  0  0  0  0
 23 28  1  0  0  0  0
 25  1  1  0  0  0  0
 25  4  2  0  0  0  0
 26 16  1  0  0  0  0
 27  2  1  0  0  0  0
 27 11  1  6  0  0  0
 28 26  1  6  0  0  0
 28 21  1  0  0  0  0
 30 33  1  0  0  0  0
 31 30  2  0  0  0  0
 32 35  2  0  0  0  0
 33 35  1  0  0  0  0
 34 30  1  0  0  0  0
 35 29  1  0  0  0  0
M  END
>  <MODEL>
2

>  <REMARK>
 VINA RESULT:      -6.6      5.820      9.542
  Name = 
  2 active torsions:
  status: ('A' for Active; 'I' for Inactive)
    1  A    between atoms: C_27  and  C_32
    2  A    between atoms: C_29  and  C_32
                            x       y       z     vdW  Elec       q    Type
                         _______ _______ _______ _____ _____    ______ ____

>  <TORSDO>
F 2

$$$$
=
 OpenBabel11052409283D

 35 40  0  0  1  0  0  0  0  0999 V2000
  161.5240  203.0060  147.2410 N   0  0  0  0  0  2  0  0  0  0  0  0
  161.7710  208.2860  151.9440 C   0  0  0  0  0  0  0  0  0  0  0  0
  160.4170  204.5880  148.9110 N   0  0  0  0  0  0  0  0  0  0  0  0
  161.7310  202.7240  149.6120 C   0  0  0  0  0  3  0  0  0  0  0  0
  161.9250  205.1600  145.7450 C   0  0  0  0  0  2  0  0  0  0  0  0
  161.5810  207.6600  148.3240 C   0  0  0  0  0  3  0  0  0  0  0  0
  161.5920  203.1920  151.0050 C   0  0  0  0  0  0  0  0  0  0  0  0
  161.8620  207.0580  152.3900 C   0  0  0  0  0  0  0  0  0  0  0  0
  160.5730  206.9300  147.4960 C   0  0  2  0  0  3  0  0  0  0  0  0
  160.8330  204.2620  151.3000 C   0  0  0  0  0  0  0  0  0  0  0  0
  161.2470  208.0050  149.5690 C   0  0  0  0  0  3  0  0  0  0  0  0
  161.5230  202.9780  144.9130 O   0  0  0  0  0  0  0  0  0  0  0  0
  162.3130  202.5440  152.0010 O   0  0  0  0  0  1  0  0  0  0  0  0
  160.5600  205.6250  147.9900 C   0  0  0  0  0  0  0  0  0  0  0  0
  161.6120  203.6830  145.9500 C   0  0  0  0  0  0  0  0  0  0  0  0
  160.8810  209.2500  152.6980 C   0  0  0  0  0  2  0  0  0  0  0  0
  160.8290  204.8540  152.6760 C   0  0  0  0  0  2  0  0  0  0  0  0
  162.1520  212.0720  149.0800 C   0  0  0  0  0  2  0  0  0  0  0  0
  161.1600  205.9050  146.7420 C   0  0  0  0  0  0  0  0  0  0  0  0
  161.9480  205.8350  152.8440 C   0  0  0  0  0  3  0  0  0  0  0  0
  162.3400  210.1170  150.3900 C   0  0  2  0  0  3  0  0  0  0  0  0
  159.9340  204.8720  150.2600 C   0  0  0  0  0  2  0  0  0  0  0  0
  161.2800  212.1320  150.3360 C   0  0  2  0  0  3  0  0  0  0  0  0
  162.7040  210.6600  149.0310 C   0  0  0  0  0  2  0  0  0  0  0  0
  161.2030  203.4170  148.6020 C   0  0  0  0  0  0  0  0  0  0  0  0
  161.0770  210.7040  152.2440 C   0  0  0  0  0  2  0  0  0  0  0  0
  162.2270  208.5990  150.5340 C   0  0  1  0  0  3  0  0  0  0  0  0
  161.1050  210.7610  150.7890 N   0  0  2  0  0  0  0  0  0  0  0  0
  159.9250  212.7450  150.0120 C   0  0  0  0  0  2  0  0  0  0  0  0
  159.1070  213.3930  146.2790 C   0  0  0  0  0  0  0  0  0  0  0  0
  159.7420  214.4330  145.9640 O   0  0  0  0  0  0  0  0  0  0  0  0
  160.6330  214.4530  148.5150 O   0  0  0  0  0  0  0  0  0  0  0  0
  159.1830  212.8510  147.6020 N   0  0  0  0  0  2  0  0  0  0  0  0
  158.2650  212.7130  145.2610 C   0  0  0  0  0  1  0  0  0  0  0  0
  159.9530  213.4040  148.6760 C   0  0  0  0  0  0  0  0  0  0  0  0
  1 25  1  0  0  0  0
  2  8  2  0  0  0  0
  2 16  1  0  0  0  0
  3 22  1  0  0  0  0
  4  7  1  0  0  0  0
  5 15  1  0  0  0  0
  5 19  1  0  0  0  0
  6 11  2  0  0  0  0
  7 10  2  0  0  0  0
  7 13  1  0  0  0  0
  8 20  2  0  0  0  0
  9 14  1  0  0  0  0
  9  6  1  1  0  0  0
 10 17  1  0  0  0  0
 12 15  2  0  0  0  0
 14  3  1  0  0  0  0
 15  1  1  0  0  0  0
 17 20  1  0  0  0  0
 18 23  1  0  0  0  0
 19  9  1  0  0  0  0
 19 14  2  0  0  0  0
 21 24  1  6  0  0  0
 21 27  1  0  0  0  0
 21 28  1  0  0  0  0
 22 10  1  0  0  0  0
 23 29  1  6  0  0  0
 23 28  1  0  0  0  0
 24 18  1  0  0  0  0
 25  3  1  0  0  0  0
 25  4  2  0  0  0  0
 26 16  1  0  0  0  0
 27 11  1  6  0  0  0
 27  2  1  0  0  0  0
 28 26  1  1  0  0  0
 30 33  1  0  0  0  0
 31 30  2  0  0  0  0
 32 35  2  0  0  0  0
 33 35  1  0  0  0  0
 34 30  1  0  0  0  0
 35 29  1  0  0  0  0
M  END
>  <MODEL>
3

>  <REMARK>
 VINA RESULT:      -6.2      2.638      3.566
  Name = 
  2 active torsions:
  status: ('A' for Active; 'I' for Inactive)
    1  A    between atoms: C_27  and  C_32
    2  A    between atoms: C_29  and  C_32
                            x       y       z     vdW  Elec       q    Type
                         _______ _______ _______ _____ _____    ______ ____

>  <TORSDO>
F 2

$$$$
=
 OpenBabel11052409283D

 35 40  0  0  1  0  0  0  0  0999 V2000
  161.6810  203.3950  146.3940 N   0  0  0  0  0  2  0  0  0  0  0  0
  161.4260  206.2370  152.8680 C   0  0  0  0  0  0  0  0  0  0  0  0
  160.4010  204.2030  148.4500 N   0  0  0  0  0  0  0  0  0  0  0  0
  161.6120  202.1470  148.4390 C   0  0  0  0  0  3  0  0  0  0  0  0
  162.2670  205.9490  145.9820 C   0  0  0  0  0  2  0  0  0  0  0  0
  161.6490  207.1750  149.3180 C   0  0  0  0  0  3  0  0  0  0  0  0
  161.3180  202.0050  149.8780 C   0  0  0  0  0  0  0  0  0  0  0  0
  161.4560  204.9320  152.7680 C   0  0  0  0  0  0  0  0  0  0  0  0
  160.7370  206.9080  148.1640 C   0  0  2  0  0  3  0  0  0  0  0  0
  160.5370  202.8970  150.5140 C   0  0  0  0  0  0  0  0  0  0  0  0
  161.1760  206.9920  150.5530 C   0  0  0  0  0  3  0  0  0  0  0  0
  161.9480  204.3310  144.2790 O   0  0  0  0  0  0  0  0  0  0  0  0
  161.9150  200.9650  150.5810 O   0  0  0  0  0  1  0  0  0  0  0  0
  160.6570  205.5190  148.0640 C   0  0  0  0  0  0  0  0  0  0  0  0
  161.9220  204.5390  145.5200 C   0  0  0  0  0  0  0  0  0  0  0  0
  160.4620  206.8510  153.8610 C   0  0  0  0  0  2  0  0  0  0  0  0
  160.3800  202.8670  152.0030 C   0  0  0  0  0  2  0  0  0  0  0  0
  162.1620  210.8410  151.8980 C   0  0  0  0  0  2  0  0  0  0  0  0
  161.3990  206.2560  147.1150 C   0  0  0  0  0  0  0  0  0  0  0  0
  161.4800  203.6280  152.6780 C   0  0  0  0  0  3  0  0  0  0  0  0
  162.1840  208.5130  152.2850 C   0  0  2  0  0  3  0  0  0  0  0  0
  159.7690  203.9300  149.7380 C   0  0  0  0  0  2  0  0  0  0  0  0
  161.1520  210.4240  152.9690 C   0  0  2  0  0  3  0  0  0  0  0  0
  162.7050  209.5480  151.3210 C   0  0  0  0  0  2  0  0  0  0  0  0
  161.2100  203.2240  147.7620 C   0  0  0  0  0  0  0  0  0  0  0  0
  160.7200  208.3490  154.0770 C   0  0  0  0  0  2  0  0  0  0  0  0
  162.0440  207.0790  151.7710 C   0  0  1  0  0  3  0  0  0  0  0  0
  160.9160  209.0000  152.7890 N   0  0  2  0  0  0  0  0  0  0  0  0
  159.8480  211.1900  152.7940 C   0  0  0  0  0  2  0  0  0  0  0  0
  159.5040  212.7480  156.3260 C   0  0  0  0  0  0  0  0  0  0  0  0
  158.3800  212.3790  156.7570 O   0  0  0  0  0  0  0  0  0  0  0  0
  158.1010  211.0770  154.4040 O   0  0  0  0  0  0  0  0  0  0  0  0
  159.9710  212.3450  155.0340 N   0  0  0  0  0  2  0  0  0  0  0  0
  160.3630  213.6150  157.1740 C   0  0  0  0  0  1  0  0  0  0  0  0
  159.2470  211.5160  154.1180 C   0  0  0  0  0  0  0  0  0  0  0  0
  1 25  1  0  0  0  0
  2 16  1  0  0  0  0
  3 22  1  0  0  0  0
  4  7  1  0  0  0  0
  5 19  1  0  0  0  0
  6 11  2  0  0  0  0
  7 10  2  0  0  0  0
  7 13  1  0  0  0  0
  8  2  2  0  0  0  0
  9  6  1  1  0  0  0
 10 17  1  0  0  0  0
 12 15  2  0  0  0  0
 14  9  1  0  0  0  0
 14  3  1  0  0  0  0
 15  5  1  0  0  0  0
 15  1  1  0  0  0  0
 16 26  1  0  0  0  0
 17 20  1  0  0  0  0
 18 23  1  0  0  0  0
 19 14  2  0  0  0  0
 19  9  1  0  0  0  0
 20  8  2  0  0  0  0
 21 24  1  6  0  0  0
 21 28  1  0  0  0  0
 22 10  1  0  0  0  0
 23 29  1  6  0  0  0
 24 18  1  0  0  0  0
 25  4  2  0  0  0  0
 25  3  1  0  0  0  0
 27 11  1  6  0  0  0
 27 21  1  0  0  0  0
 27  2  1  0  0  0  0
 28 23  1  0  0  0  0
 28 26  1  1  0  0  0
 29 35  1  0  0  0  0
 30 31  2  0  0  0  0
 30 34  1  0  0  0  0
 33 30  1  0  0  0  0
 35 32  2  0  0  0  0
 35 33  1  0  0  0  0
M  END
>  <MODEL>
4

>  <REMARK>
 VINA RESULT:      -6.1      1.376      1.538
  Name = 
  2 active torsions:
  status: ('A' for Active; 'I' for Inactive)
    1  A    between atoms: C_27  and  C_32
    2  A    between atoms: C_29  and  C_32
                            x       y       z     vdW  Elec       q    Type
                         _______ _______ _______ _____ _____    ______ ____

>  <TORSDO>
F 2

$$$$
=
 OpenBabel11052409283D

 35 40  0  0  1  0  0  0  0  0999 V2000
  161.7460  202.8930  147.5120 N   0  0  0  0  0  2  0  0  0  0  0  0
  161.6330  208.0950  152.3060 C   0  0  0  0  0  0  0  0  0  0  0  0
  160.5190  204.4240  149.1450 N   0  0  0  0  0  0  0  0  0  0  0  0
  161.8310  202.5740  149.8860 C   0  0  0  0  0  3  0  0  0  0  0  0
  162.1840  205.0800  146.0750 C   0  0  0  0  0  2  0  0  0  0  0  0
  161.6520  207.5280  148.6710 C   0  0  0  0  0  3  0  0  0  0  0  0
  161.6070  203.0160  151.2760 C   0  0  0  0  0  0  0  0  0  0  0  0
  161.7240  206.8610  152.7360 C   0  0  0  0  0  0  0  0  0  0  0  0
  160.7050  206.7930  147.7790 C   0  0  2  0  0  3  0  0  0  0  0  0
  160.8120  204.0650  151.5470 C   0  0  0  0  0  0  0  0  0  0  0  0
  161.2440  207.8450  149.9020 C   0  0  0  0  0  3  0  0  0  0  0  0
  161.8720  202.9050  145.1870 O   0  0  0  0  0  0  0  0  0  0  0  0
  162.2860  202.3640  152.2990 O   0  0  0  0  0  1  0  0  0  0  0  0
  160.6910  205.4800  148.2490 C   0  0  0  0  0  0  0  0  0  0  0  0
  161.8910  203.5940  146.2390 C   0  0  0  0  0  0  0  0  0  0  0  0
  160.6850  209.0290  153.0260 C   0  0  0  0  0  2  0  0  0  0  0  0
  160.7220  204.6330  152.9300 C   0  0  0  0  0  2  0  0  0  0  0  0
  162.0930  211.9360  149.5290 C   0  0  0  0  0  2  0  0  0  0  0  0
  161.3520  205.7920  147.0410 C   0  0  0  0  0  0  0  0  0  0  0  0
  161.8110  205.6320  153.1750 C   0  0  0  0  0  3  0  0  0  0  0  0
  162.2490  209.9630  150.8150 C   0  0  2  0  0  3  0  0  0  0  0  0
  159.9580  204.6760  150.4700 C   0  0  0  0  0  2  0  0  0  0  0  0
  161.1530  211.9580  150.7370 C   0  0  2  0  0  3  0  0  0  0  0  0
  162.6750  210.5360  149.4880 C   0  0  0  0  0  2  0  0  0  0  0  0
  161.3450  203.2740  148.8600 C   0  0  0  0  0  0  0  0  0  0  0  0
  160.8760  210.4940  152.6080 C   0  0  0  0  0  2  0  0  0  0  0  0
  162.1590  208.4410  150.9290 C   0  0  1  0  0  3  0  0  0  0  0  0
  160.9820  210.5760  151.1570 N   0  0  2  0  0  0  0  0  0  0  0  0
  159.8060  212.5500  150.3490 C   0  0  0  0  0  2  0  0  0  0  0  0
  157.4680  213.2290  153.3650 C   0  0  0  0  0  0  0  0  0  0  0  0
  157.7990  214.3600  153.8090 O   0  0  0  0  0  0  0  0  0  0  0  0
  159.6450  214.4010  151.8350 O   0  0  0  0  0  0  0  0  0  0  0  0
  158.1290  212.6560  152.2310 N   0  0  0  0  0  2  0  0  0  0  0  0
  156.3720  212.4760  154.0280 C   0  0  0  0  0  1  0  0  0  0  0  0
  159.1970  213.2710  151.5020 C   0  0  0  0  0  0  0  0  0  0  0  0
  1 25  1  0  0  0  0
  2  8  2  0  0  0  0
  2 16  1  0  0  0  0
  3 22  1  0  0  0  0
  4  7  1  0  0  0  0
  5 15  1  0  0  0  0
  5 19  1  0  0  0  0
  6 11  2  0  0  0  0
  7 10  2  0  0  0  0
  7 13  1  0  0  0  0
  8 20  2  0  0  0  0
  9 14  1  0  0  0  0
  9  6  1  1  0  0  0
 10 17  1  0  0  0  0
 12 15  2  0  0  0  0
 14  3  1  0  0  0  0
 15  1  1  0  0  0  0
 17 20  1  0  0  0  0
 18 23  1  0  0  0  0
 19  9  1  0  0  0  0
 19 14  2  0  0  0  0
 21 24  1  6  0  0  0
 21 27  1  0  0  0  0
 21 28  1  0  0  0  0
 22 10  1  0  0  0  0
 23 29  1  6  0  0  0
 23 28  1  0  0  0  0
 24 18  1  0  0  0  0
 25  3  1  0  0  0  0
 25  4  2  0  0  0  0
 26 16  1  0  0  0  0
 27 11  1  6  0  0  0
 27  2  1  0  0  0  0
 28 26  1  1  0  0  0
 29 35  1  0  0  0  0
 30 31  2  0  0  0  0
 30 34  1  0  0  0  0
 33 30  1  0  0  0  0
 35 32  2  0  0  0  0
 35 33  1  0  0  0  0
M  END
>  <MODEL>
5

>  <REMARK>
 VINA RESULT:      -5.7      1.043      1.264
  Name = 
  2 active torsions:
  status: ('A' for Active; 'I' for Inactive)
    1  A    between atoms: C_27  and  C_32
    2  A    between atoms: C_29  and  C_32
                            x       y       z     vdW  Elec       q    Type
                         _______ _______ _______ _____ _____    ______ ____

>  <TORSDO>
F 2

$$$$
=
 OpenBabel11052409283D

 35 40  0  0  1  0  0  0  0  0999 V2000
  161.5500  203.5970  145.5630 N   0  0  0  0  0  2  0  0  0  0  0  0
  161.5930  205.3420  152.4200 C   0  0  0  0  0  0  0  0  0  0  0  0
  160.3770  203.9610  147.8020 N   0  0  0  0  0  0  0  0  0  0  0  0
  161.7240  202.0380  147.3760 C   0  0  0  0  0  3  0  0  0  0  0  0
  161.9240  206.2230  145.5400 C   0  0  0  0  0  2  0  0  0  0  0  0
  161.4790  206.8480  149.0650 C   0  0  0  0  0  3  0  0  0  0  0  0
  161.5510  201.6460  148.7880 C   0  0  0  0  0  0  0  0  0  0  0  0
  161.7050  204.0760  152.1050 C   0  0  0  0  0  0  0  0  0  0  0  0
  160.5020  206.6960  147.9440 C   0  0  2  0  0  3  0  0  0  0  0  0
  160.7610  202.3590  149.6100 C   0  0  0  0  0  0  0  0  0  0  0  0
  161.1160  206.4330  150.2810 C   0  0  0  0  0  3  0  0  0  0  0  0
  161.5880  204.8770  143.6190 O   0  0  0  0  0  0  0  0  0  0  0  0
  162.2700  200.5580  149.2700 O   0  0  0  0  0  1  0  0  0  0  0  0
  160.5110  205.3380  147.6230 C   0  0  0  0  0  0  0  0  0  0  0  0
  161.6440  204.8820  144.8760 C   0  0  0  0  0  0  0  0  0  0  0  0
  160.6680  205.7100  153.5600 C   0  0  0  0  0  2  0  0  0  0  0  0
  160.7210  202.0790  151.0810 C   0  0  0  0  0  2  0  0  0  0  0  0
  161.9320  210.0860  152.1750 C   0  0  0  0  0  2  0  0  0  0  0  0
  161.1260  206.2740  146.7620 C   0  0  0  0  0  0  0  0  0  0  0  0
  161.8140  202.8090  151.7990 C   0  0  0  0  0  3  0  0  0  0  0  0
  162.1450  207.7350  152.1720 C   0  0  2  0  0  3  0  0  0  0  0  0
  159.8660  203.4370  149.0650 C   0  0  0  0  0  2  0  0  0  0  0  0
  161.0380  209.4240  153.2260 C   0  0  2  0  0  3  0  0  0  0  0  0
  162.5180  208.9490  151.3600 C   0  0  0  0  0  2  0  0  0  0  0  0
  161.1970  203.1730  146.9120 C   0  0  0  0  0  0  0  0  0  0  0  0
  160.8370  207.1710  154.0030 C   0  0  0  0  0  2  0  0  0  0  0  0
  162.0650  206.3950  151.4400 C   0  0  1  0  0  3  0  0  0  0  0  0
  160.8880  208.0320  152.8300 N   0  0  2  0  0  0  0  0  0  0  0  0
  159.6750  210.0990  153.2630 C   0  0  0  0  0  2  0  0  0  0  0  0
  159.4410  213.3820  151.2160 C   0  0  0  0  0  0  0  0  0  0  0  0
  159.8630  214.2920  151.9770 O   0  0  0  0  0  0  0  0  0  0  0  0
  160.2310  212.3450  153.8150 O   0  0  0  0  0  0  0  0  0  0  0  0
  159.3930  212.0180  151.6490 N   0  0  0  0  0  2  0  0  0  0  0  0
  158.9880  213.7280  149.8440 C   0  0  0  0  0  1  0  0  0  0  0  0
  159.7970  211.5490  152.9400 C   0  0  0  0  0  0  0  0  0  0  0  0
  1 25  1  0  0  0  0
  2 16  1  0  0  0  0
  3 22  1  0  0  0  0
  4  7  1  0  0  0  0
  5 19  1  0  0  0  0
  6 11  2  0  0  0  0
  7 13  1  0  0  0  0
  7 10  2  0  0  0  0
  8  2  2  0  0  0  0
  9  6  1  1  0  0  0
 10 17  1  0  0  0  0
 12 15  2  0  0  0  0
 14  3  1  0  0  0  0
 14  9  1  0  0  0  0
 15  5  1  0  0  0  0
 15  1  1  0  0  0  0
 16 26  1  0  0  0  0
 17 20  1  0  0  0  0
 18 23  1  0  0  0  0
 19 14  2  0  0  0  0
 19  9  1  0  0  0  0
 20  8  2  0  0  0  0
 21 24  1  6  0  0  0
 21 28  1  0  0  0  0
 22 10  1  0  0  0  0
 23 29  1  6  0  0  0
 24 18  1  0  0  0  0
 25  4  2  0  0  0  0
 25  3  1  0  0  0  0
 27 11  1  6  0  0  0
 27 21  1  0  0  0  0
 27  2  1  0  0  0  0
 28 23  1  0  0  0  0
 28 26  1  1  0  0  0
 30 33  1  0  0  0  0
 30 31  2  0  0  0  0
 33 35  1  0  0  0  0
 34 30  1  0  0  0  0
 35 29  1  0  0  0  0
 35 32  2  0  0  0  0
M  END
>  <MODEL>
6

>  <REMARK>
 VINA RESULT:      -5.5      1.762      2.404
  Name = 
  2 active torsions:
  status: ('A' for Active; 'I' for Inactive)
    1  A    between atoms: C_27  and  C_32
    2  A    between atoms: C_29  and  C_32
                            x       y       z     vdW  Elec       q    Type
                         _______ _______ _______ _____ _____    ______ ____

>  <TORSDO>
F 2

$$$$
=
 OpenBabel11052409283D

 35 40  0  0  1  0  0  0  0  0999 V2000
  160.9400  203.2260  149.4790 N   0  0  0  0  0  2  0  0  0  0  0  0
  161.1860  209.7450  152.2190 C   0  0  0  0  0  0  0  0  0  0  0  0
  162.2190  205.2810  150.2920 N   0  0  0  0  0  0  0  0  0  0  0  0
  161.0720  205.2490  148.2000 C   0  0  0  0  0  3  0  0  0  0  0  0
  160.2710  202.8640  152.0210 C   0  0  0  0  0  2  0  0  0  0  0  0
  160.8910  206.2140  153.2090 C   0  0  0  0  0  3  0  0  0  0  0  0
  161.3870  206.6820  148.0430 C   0  0  0  0  0  0  0  0  0  0  0  0
  161.1950  209.6230  150.9160 C   0  0  0  0  0  0  0  0  0  0  0  0
  161.7970  205.0450  152.9900 C   0  0  2  0  0  3  0  0  0  0  0  0
  162.1480  207.3240  148.9480 C   0  0  0  0  0  0  0  0  0  0  0  0
  161.3840  207.4400  153.0200 C   0  0  0  0  0  3  0  0  0  0  0  0
  160.6200  201.1310  150.4420 O   0  0  0  0  0  0  0  0  0  0  0  0
  160.8310  207.3740  146.9740 O   0  0  0  0  0  1  0  0  0  0  0  0
  161.9190  204.9210  151.6060 C   0  0  0  0  0  0  0  0  0  0  0  0
  160.6540  202.3750  150.6300 C   0  0  0  0  0  0  0  0  0  0  0  0
  162.1420  210.7370  152.8460 C   0  0  0  0  0  2  0  0  0  0  0  0
  162.3240  208.8110  148.8980 C   0  0  0  0  0  2  0  0  0  0  0  0
  160.2970  208.8620  156.8140 C   0  0  0  0  0  2  0  0  0  0  0  0
  161.1430  203.9930  152.3350 C   0  0  0  0  0  0  0  0  0  0  0  0
  161.2090  209.5100  149.6130 C   0  0  0  0  0  3  0  0  0  0  0  0
  160.3510  209.2100  154.4800 C   0  0  2  0  0  3  0  0  0  0  0  0
  162.8750  206.5570  150.0170 C   0  0  0  0  0  2  0  0  0  0  0  0
  161.3320  209.9140  156.4110 C   0  0  2  0  0  3  0  0  0  0  0  0
  159.7870  208.2690  155.5140 C   0  0  0  0  0  2  0  0  0  0  0  0
  161.4330  204.5860  149.3000 C   0  0  0  0  0  0  0  0  0  0  0  0
  161.8410  210.9820  154.3320 C   0  0  0  0  0  2  0  0  0  0  0  0
  160.5290  208.6700  153.0600 C   0  0  1  0  0  3  0  0  0  0  0  0
  161.6100  209.7070  154.9980 N   0  0  2  0  0  0  0  0  0  0  0  0
  162.6100  209.7370  157.2190 C   0  0  0  0  0  2  0  0  0  0  0  0
  165.7000  212.0770  157.2520 C   0  0  0  0  0  0  0  0  0  0  0  0
  165.2430  213.2500  157.2560 O   0  0  0  0  0  0  0  0  0  0  0  0
  162.7930  212.1090  157.2360 O   0  0  0  0  0  0  0  0  0  0  0  0
  164.8270  210.9420  157.2460 N   0  0  0  0  0  2  0  0  0  0  0  0
  167.1710  211.8650  157.2530 C   0  0  0  0  0  1  0  0  0  0  0  0
  163.3970  211.0030  157.2430 C   0  0  0  0  0  0  0  0  0  0  0  0
  1 15  1  0  0  0  0
  2 16  1  0  0  0  0
  2 27  1  0  0  0  0
  3 14  1  0  0  0  0
  4 25  2  0  0  0  0
  5 19  1  0  0  0  0
  7  4  1  0  0  0  0
  7 10  2  0  0  0  0
  8  2  2  0  0  0  0
  9  6  1  6  0  0  0
 10 22  1  0  0  0  0
 11  6  2  0  0  0  0
 12 15  2  0  0  0  0
 13  7  1  0  0  0  0
 14 19  2  0  0  0  0
 14  9  1  0  0  0  0
 15  5  1  0  0  0  0
 16 26  1  0  0  0  0
 17 10  1  0  0  0  0
 17 20  1  0  0  0  0
 19  9  1  0  0  0  0
 20  8  2  0  0  0  0
 21 28  1  0  0  0  0
 21 24  1  1  0  0  0
 22  3  1  0  0  0  0
 23 18  1  0  0  0  0
 23 29  1  1  0  0  0
 24 18  1  0  0  0  0
 25  1  1  0  0  0  0
 25  3  1  0  0  0  0
 27 11  1  1  0  0  0
 27 21  1  0  0  0  0
 28 26  1  6  0  0  0
 28 23  1  0  0  0  0
 29 35  1  0  0  0  0
 30 34  1  0  0  0  0
 30 31  2  0  0  0  0
 32 35  2  0  0  0  0
 33 30  1  0  0  0  0
 35 33  1  0  0  0  0
M  END
>  <MODEL>
7

>  <REMARK>
 VINA RESULT:      -4.2      3.227      5.455
  Name = 
  2 active torsions:
  status: ('A' for Active; 'I' for Inactive)
    1  A    between atoms: C_27  and  C_32
    2  A    between atoms: C_29  and  C_32
                            x       y       z     vdW  Elec       q    Type
                         _______ _______ _______ _____ _____    ______ ____

>  <TORSDO>
F 2

$$$$
