=
 OpenBabel11052409313D

 38 41  0  0  1  0  0  0  0  0999 V2000
  160.2400  210.1610  153.1150 C   0  0  2  0  0  3  0  0  0  0  0  0
  162.2810  202.5090  151.5750 N   0  0  0  0  0  1  0  0  0  0  0  0
  160.7690  208.3180  151.5100 C   0  0  1  0  0  3  0  0  0  0  0  0
  161.8700  209.2410  149.4290 C   0  0  1  0  0  3  0  0  0  0  0  0
  160.7380  208.7340  152.9800 C   0  0  1  0  0  3  0  0  0  0  0  0
  160.7880  206.3160  149.9770 C   0  0  0  0  0  0  0  0  0  0  0  0
  161.7440  209.1550  150.8560 N   0  0  1  0  0  0  0  0  0  0  0  0
  161.4440  208.2930  148.5790 C   0  0  0  0  0  3  0  0  0  0  0  0
  160.5920  203.9390  150.5300 N   0  0  0  0  0  0  0  0  0  0  0  0
  161.7250  203.8060  151.4030 C   0  0  0  0  0  0  0  0  0  0  0  0
  160.1760  204.9910  149.8940 C   0  0  0  0  0  3  0  0  0  0  0  0
  162.3300  210.1290  151.7570 C   0  0  0  0  0  2  0  0  0  0  0  0
  162.2220  204.7930  152.1530 C   0  0  0  0  0  3  0  0  0  0  0  0
  161.8010  206.1990  152.2140 C   0  0  0  0  0  3  0  0  0  0  0  0
  160.8890  206.9930  148.8690 N   0  0  0  0  0  0  0  0  0  0  0  0
  161.7310  209.8750  153.1320 C   0  0  1  0  0  3  0  0  0  0  0  0
  161.1270  206.8840  151.2860 C   0  0  1  0  0  3  0  0  0  0  0  0
  162.4630  210.4140  148.8410 C   0  0  0  0  0  0  0  0  0  0  0  0
  162.9590  211.3940  148.3420 C   0  0  0  0  0  0  0  0  0  0  0  0
  163.5580  212.5820  147.7260 C   0  0  0  0  0  2  0  0  0  0  0  0
  162.4750  213.5110  147.2100 C   0  0  0  0  0  2  0  0  0  0  0  0
  162.1770  213.2080  145.8180 N   0  0  0  0  0  2  0  0  0  0  0  0
  159.7680  214.3130  145.8600 O   0  0  0  0  0  0  0  0  0  0  0  0
  160.4650  212.9920  145.6820 S   0  0  0  0  0  0  0  0  0  0  0  0
  159.9870  212.0290  146.7330 O   0  0  0  0  0  0  0  0  0  0  0  0
  160.0820  212.3300  144.0760 C   0  0  0  0  0  2  0  0  0  0  0  0
  161.0000  211.6930  141.8720 C   0  0  0  0  0  1  0  0  0  0  0  0
  161.3130  212.3600  143.1930 C   0  0  0  0  0  2  0  0  0  0  0  0
  159.7620  210.3920  154.5340 C   0  0  0  0  0  2  0  0  0  0  0  0
  158.7470  212.1680  155.7990 N   0  0  0  0  0  2  0  0  0  0  0  0
  159.2630  211.7870  154.6770 C   0  0  0  0  0  0  0  0  0  0  0  0
  159.2830  212.6620  153.5450 N   0  0  0  0  0  2  0  0  0  0  0  0
  158.7310  214.0090  153.5710 C   0  0  0  0  0  2  0  0  0  0  0  0
  158.0540  214.3190  152.2460 C   0  0  0  0  0  2  0  0  0  0  0  0
  158.3360  213.2170  151.2380 C   0  0  0  0  0  2  0  0  0  0  0  0
  159.1550  213.7410  150.0690 C   0  0  1  0  0  3  0  0  0  0  0  0
  160.2810  212.9560  149.9110 F   0  0  0  0  0  0  0  0  0  0  0  0
  158.3940  213.6960  148.9000 O   0  0  0  0  0  1  0  0  0  0  0  0
  1 16  1  0  0  0  0
  1 29  1  1  0  0  0
  3  5  1  0  0  0  0
  4  7  1  0  0  0  0
  5  1  1  0  0  0  0
  5 16  1  0  0  0  0
  6 17  1  0  0  0  0
  7  3  1  0  0  0  0
  7 12  1  0  0  0  0
  8 15  2  0  0  0  0
  8  4  1  0  0  0  0
  9 10  2  0  0  0  0
 10  2  1  0  0  0  0
 10 13  1  0  0  0  0
 11  6  2  0  0  0  0
 11  9  1  0  0  0  0
 12 16  1  0  0  0  0
 13 14  2  0  0  0  0
 15  6  1  0  0  0  0
 17  3  1  0  0  0  0
 17 14  1  0  0  0  0
 18  4  1  0  0  0  0
 19 18  3  0  0  0  0
 20 19  1  0  0  0  0
 21 20  1  0  0  0  0
 22 21  1  0  0  0  0
 24 22  1  0  0  0  0
 24 23  2  0  0  0  0
 24 25  2  0  0  0  0
 26 24  1  0  0  0  0
 27 28  1  0  0  0  0
 28 26  1  0  0  0  0
 29 31  1  0  0  0  0
 31 30  2  0  0  0  0
 32 33  1  0  0  0  0
 32 31  1  0  0  0  0
 34 33  1  0  0  0  0
 35 34  1  0  0  0  0
 36 35  1  0  0  0  0
 37 36  1  0  0  0  0
 38 36  1  0  0  0  0
M  END
>  <MODEL>
1

>  <REMARK>
 VINA RESULT:      -5.7      0.000      0.000
  Name = 
  13 active torsions:
  status: ('A' for Active; 'I' for Inactive)
    1  A    between atoms: C_1  and  C_23
    2  A    between atoms: C_2  and  S_13
    3  A    between atoms: C_2  and  C_37
    4  A    between atoms: C_5  and  C_27
    5  A    between atoms: C_11  and  C_14
    6  A    between atoms: S_13  and  N_31
    7  A    between atoms: C_14  and  C_36
    8  A    between atoms: C_18  and  C_28
    9  A    between atoms: C_18  and  C_32
   10  A    between atoms: C_23  and  C_29
   11  A    between atoms: C_26  and  N_35
   12  A    between atoms: C_26  and  C_36
   13  A    between atoms: N_31  and  C_32
                            x       y       z     vdW  Elec       q    Type
                         _______ _______ _______ _____ _____    ______ ____

>  <TORSDO>
F 13

$$$$
=
 OpenBabel11052409313D

 38 41  0  0  1  0  0  0  0  0999 V2000
  162.1700  209.9850  154.5460 C   0  0  2  0  0  3  0  0  0  0  0  0
  159.6150  214.2190  148.1720 N   0  0  0  0  0  1  0  0  0  0  0  0
  161.8330  210.2400  152.0820 C   0  0  1  0  0  3  0  0  0  0  0  0
  161.4240  207.9900  151.0020 C   0  0  1  0  0  3  0  0  0  0  0  0
  161.5430  210.8360  153.4590 C   0  0  1  0  0  3  0  0  0  0  0  0
  161.9440  210.7920  149.6240 C   0  0  0  0  0  0  0  0  0  0  0  0
  161.1720  208.9600  152.0310 N   0  0  1  0  0  0  0  0  0  0  0  0
  161.9260  208.2890  149.7940 C   0  0  0  0  0  3  0  0  0  0  0  0
  161.6840  212.9560  148.5090 N   0  0  0  0  0  0  0  0  0  0  0  0
  160.3600  213.2930  148.9510 C   0  0  0  0  0  0  0  0  0  0  0  0
  162.3810  211.8910  148.7640 C   0  0  0  0  0  3  0  0  0  0  0  0
  160.5070  208.6300  153.2760 C   0  0  0  0  0  2  0  0  0  0  0  0
  159.8210  212.8830  150.1020 C   0  0  0  0  0  3  0  0  0  0  0  0
  160.3910  211.9820  151.1120 C   0  0  0  0  0  3  0  0  0  0  0  0
  162.2170  209.5830  149.2240 N   0  0  0  0  0  0  0  0  0  0  0  0
  160.7000  209.8170  154.2080 C   0  0  1  0  0  3  0  0  0  0  0  0
  161.3600  211.0790  150.9380 C   0  0  1  0  0  3  0  0  0  0  0  0
  161.1570  206.5990  151.2620 C   0  0  0  0  0  0  0  0  0  0  0  0
  160.9350  205.4350  151.4870 C   0  0  0  0  0  0  0  0  0  0  0  0
  160.6610  204.0230  151.7710 C   0  0  0  0  0  2  0  0  0  0  0  0
  161.7190  203.1420  151.1300 C   0  0  0  0  0  2  0  0  0  0  0  0
  161.1750  201.8190  150.8660 N   0  0  0  0  0  2  0  0  0  0  0  0
  159.1920  201.4120  149.1540 O   0  0  0  0  0  0  0  0  0  0  0  0
  160.6470  201.7870  149.2170 S   0  0  0  0  0  0  0  0  0  0  0  0
  161.4570  200.7850  148.4420 O   0  0  0  0  0  0  0  0  0  0  0  0
  160.8770  203.3980  148.4960 C   0  0  0  0  0  2  0  0  0  0  0  0
  162.0530  204.6850  146.7450 C   0  0  0  0  0  1  0  0  0  0  0  0
  161.7590  203.2970  147.2670 C   0  0  0  0  0  2  0  0  0  0  0  0
  162.2980  210.8050  155.8130 C   0  0  0  0  0  2  0  0  0  0  0  0
  160.7540  209.6160  157.2240 N   0  0  0  0  0  2  0  0  0  0  0  0
  161.0390  210.7130  156.6030 C   0  0  0  0  0  0  0  0  0  0  0  0
  160.1200  211.8090  156.5940 N   0  0  0  0  0  2  0  0  0  0  0  0
  158.8260  211.7690  157.2600 C   0  0  0  0  0  2  0  0  0  0  0  0
  157.7420  212.2730  156.3230 C   0  0  0  0  0  2  0  0  0  0  0  0
  157.1770  211.1260  155.5010 C   0  0  0  0  0  2  0  0  0  0  0  0
  155.6570  211.1640  155.4820 C   0  0  1  0  0  3  0  0  0  0  0  0
  155.1780  210.0050  154.9010 F   0  0  0  0  0  0  0  0  0  0  0  0
  155.1700  211.2620  156.7850 O   0  0  0  0  0  1  0  0  0  0  0  0
  1 29  1  1  0  0  0
  2 10  1  0  0  0  0
  3  5  1  0  0  0  0
  4 18  1  0  0  0  0
  4  7  1  0  0  0  0
  5 16  1  0  0  0  0
  5  1  1  0  0  0  0
  6 17  1  0  0  0  0
  7  3  1  0  0  0  0
  7 12  1  0  0  0  0
  8  4  1  0  0  0  0
  9 11  1  0  0  0  0
  9 10  2  0  0  0  0
 10 13  1  0  0  0  0
 11  6  2  0  0  0  0
 12 16  1  0  0  0  0
 13 14  2  0  0  0  0
 15  6  1  0  0  0  0
 15  8  2  0  0  0  0
 16  1  1  0  0  0  0
 17 14  1  0  0  0  0
 17  3  1  0  0  0  0
 18 19  3  0  0  0  0
 19 20  1  0  0  0  0
 21 20  1  0  0  0  0
 22 21  1  0  0  0  0
 23 24  2  0  0  0  0
 24 22  1  0  0  0  0
 25 24  2  0  0  0  0
 26 24  1  0  0  0  0
 27 28  1  0  0  0  0
 28 26  1  0  0  0  0
 29 31  1  0  0  0  0
 31 30  2  0  0  0  0
 32 31  1  0  0  0  0
 32 33  1  0  0  0  0
 34 33  1  0  0  0  0
 35 34  1  0  0  0  0
 36 35  1  0  0  0  0
 36 38  1  0  0  0  0
 37 36  1  0  0  0  0
M  END
>  <MODEL>
2

>  <REMARK>
 VINA RESULT:      -5.3      4.440      7.339
  Name = 
  13 active torsions:
  status: ('A' for Active; 'I' for Inactive)
    1  A    between atoms: C_1  and  C_23
    2  A    between atoms: C_2  and  S_13
    3  A    between atoms: C_2  and  C_37
    4  A    between atoms: C_5  and  C_27
    5  A    between atoms: C_11  and  C_14
    6  A    between atoms: S_13  and  N_31
    7  A    between atoms: C_14  and  C_36
    8  A    between atoms: C_18  and  C_28
    9  A    between atoms: C_18  and  C_32
   10  A    between atoms: C_23  and  C_29
   11  A    between atoms: C_26  and  N_35
   12  A    between atoms: C_26  and  C_36
   13  A    between atoms: N_31  and  C_32
                            x       y       z     vdW  Elec       q    Type
                         _______ _______ _______ _____ _____    ______ ____

>  <TORSDO>
F 13

$$$$
=
 OpenBabel11052409313D

 38 41  0  0  1  0  0  0  0  0999 V2000
  160.2650  210.0560  153.2040 C   0  0  2  0  0  3  0  0  0  0  0  0
  162.3350  202.4260  151.5970 N   0  0  0  0  0  1  0  0  0  0  0  0
  160.7610  208.2180  151.5820 C   0  0  1  0  0  3  0  0  0  0  0  0
  161.7840  209.1530  149.4670 C   0  0  1  0  0  3  0  0  0  0  0  0
  160.7730  208.6350  153.0520 C   0  0  1  0  0  3  0  0  0  0  0  0
  160.7510  206.2170  150.0490 C   0  0  0  0  0  0  0  0  0  0  0  0
  161.7050  209.0660  150.8980 N   0  0  1  0  0  0  0  0  0  0  0  0
  161.3400  208.2010  148.6310 C   0  0  0  0  0  3  0  0  0  0  0  0
  160.5980  203.8380  150.6080 N   0  0  0  0  0  0  0  0  0  0  0  0
  161.7600  203.7160  151.4440 C   0  0  0  0  0  0  0  0  0  0  0  0
  160.1510  204.8850  149.9850 C   0  0  0  0  0  3  0  0  0  0  0  0
  162.3110  210.0460  151.7790 C   0  0  0  0  0  2  0  0  0  0  0  0
  162.2710  204.7090  152.1770 C   0  0  0  0  0  3  0  0  0  0  0  0
  161.8370  206.1100  152.2520 C   0  0  0  0  0  3  0  0  0  0  0  0
  160.8090  206.8940  148.9380 N   0  0  0  0  0  0  0  0  0  0  0  0
  161.7580  209.7860  153.1730 C   0  0  1  0  0  3  0  0  0  0  0  0
  161.1270  206.7880  151.3460 C   0  0  1  0  0  3  0  0  0  0  0  0
  162.3450  210.3320  148.8600 C   0  0  0  0  0  0  0  0  0  0  0  0
  162.8180  211.3220  148.3590 C   0  0  0  0  0  0  0  0  0  0  0  0
  163.4000  212.5250  147.7570 C   0  0  0  0  0  2  0  0  0  0  0  0
  162.3520  213.6170  147.6400 C   0  0  0  0  0  2  0  0  0  0  0  0
  161.9170  213.7470  146.2580 N   0  0  0  0  0  2  0  0  0  0  0  0
  159.9810  212.0260  145.6950 O   0  0  0  0  0  0  0  0  0  0  0  0
  160.2180  213.4190  146.2090 S   0  0  0  0  0  0  0  0  0  0  0  0
  159.5340  214.4080  145.3060 O   0  0  0  0  0  0  0  0  0  0  0  0
  159.5430  213.5710  147.8480 C   0  0  0  0  0  2  0  0  0  0  0  0
  157.4580  213.2480  149.1360 C   0  0  0  0  0  1  0  0  0  0  0  0
  158.0290  213.6210  147.7850 C   0  0  0  0  0  2  0  0  0  0  0  0
  159.8310  210.2820  154.6380 C   0  0  0  0  0  2  0  0  0  0  0  0
  160.2650  212.3730  155.7450 N   0  0  0  0  0  2  0  0  0  0  0  0
  159.5710  211.7300  154.8640 C   0  0  0  0  0  0  0  0  0  0  0  0
  158.5000  212.3710  154.1650 N   0  0  0  0  0  2  0  0  0  0  0  0
  158.1170  213.7570  154.3930 C   0  0  0  0  0  2  0  0  0  0  0  0
  156.8290  213.8140  155.1970 C   0  0  0  0  0  2  0  0  0  0  0  0
  155.9230  212.6500  154.8280 C   0  0  0  0  0  2  0  0  0  0  0  0
  155.8710  211.6220  155.9470 C   0  0  1  0  0  3  0  0  0  0  0  0
  154.9410  212.0180  156.8900 F   0  0  0  0  0  0  0  0  0  0  0  0
  155.5040  210.3790  155.4310 O   0  0  0  0  0  1  0  0  0  0  0  0
  1 29  1  1  0  0  0
  3  5  1  0  0  0  0
  4  7  1  0  0  0  0
  5 16  1  0  0  0  0
  5  1  1  0  0  0  0
  6 17  1  0  0  0  0
  7  3  1  0  0  0  0
  7 12  1  0  0  0  0
  8 15  2  0  0  0  0
  8  4  1  0  0  0  0
  9 10  2  0  0  0  0
 10  2  1  0  0  0  0
 10 13  1  0  0  0  0
 11  6  2  0  0  0  0
 11  9  1  0  0  0  0
 12 16  1  0  0  0  0
 13 14  2  0  0  0  0
 15  6  1  0  0  0  0
 16  1  1  0  0  0  0
 17  3  1  0  0  0  0
 17 14  1  0  0  0  0
 18  4  1  0  0  0  0
 19 18  3  0  0  0  0
 20 19  1  0  0  0  0
 21 20  1  0  0  0  0
 22 21  1  0  0  0  0
 23 24  2  0  0  0  0
 24 22  1  0  0  0  0
 24 26  1  0  0  0  0
 25 24  2  0  0  0  0
 28 26  1  0  0  0  0
 28 27  1  0  0  0  0
 29 31  1  0  0  0  0
 31 30  2  0  0  0  0
 32 33  1  0  0  0  0
 32 31  1  0  0  0  0
 33 34  1  0  0  0  0
 35 34  1  0  0  0  0
 35 36  1  0  0  0  0
 36 37  1  0  0  0  0
 38 36  1  0  0  0  0
M  END
>  <MODEL>
3

>  <REMARK>
 VINA RESULT:      -5.3      2.261      3.062
  Name = 
  13 active torsions:
  status: ('A' for Active; 'I' for Inactive)
    1  A    between atoms: C_1  and  C_23
    2  A    between atoms: C_2  and  S_13
    3  A    between atoms: C_2  and  C_37
    4  A    between atoms: C_5  and  C_27
    5  A    between atoms: C_11  and  C_14
    6  A    between atoms: S_13  and  N_31
    7  A    between atoms: C_14  and  C_36
    8  A    between atoms: C_18  and  C_28
    9  A    between atoms: C_18  and  C_32
   10  A    between atoms: C_23  and  C_29
   11  A    between atoms: C_26  and  N_35
   12  A    between atoms: C_26  and  C_36
   13  A    between atoms: N_31  and  C_32
                            x       y       z     vdW  Elec       q    Type
                         _______ _______ _______ _____ _____    ______ ____

>  <TORSDO>
F 13

$$$$
=
 OpenBabel11052409313D

 38 41  0  0  1  0  0  0  0  0999 V2000
  160.2330  210.1100  153.2300 C   0  0  2  0  0  3  0  0  0  0  0  0
  162.3010  202.4780  151.6260 N   0  0  0  0  0  1  0  0  0  0  0  0
  160.7480  208.2770  151.6090 C   0  0  1  0  0  3  0  0  0  0  0  0
  161.8100  209.2160  149.5150 C   0  0  1  0  0  3  0  0  0  0  0  0
  160.7380  208.6870  153.0810 C   0  0  1  0  0  3  0  0  0  0  0  0
  160.7570  206.2820  150.0680 C   0  0  0  0  0  0  0  0  0  0  0  0
  161.7070  209.1230  150.9440 N   0  0  1  0  0  0  0  0  0  0  0  0
  161.3770  208.2690  148.6680 C   0  0  0  0  0  3  0  0  0  0  0  0
  160.5860  203.9010  150.6140 N   0  0  0  0  0  0  0  0  0  0  0  0
  161.7330  203.7720  151.4680 C   0  0  0  0  0  0  0  0  0  0  0  0
  160.1520  204.9530  149.9880 C   0  0  0  0  0  3  0  0  0  0  0  0
  162.3020  210.0970  151.8390 C   0  0  0  0  0  2  0  0  0  0  0  0
  162.2350  204.7590  152.2140 C   0  0  0  0  0  3  0  0  0  0  0  0
  161.8050  206.1620  152.2880 C   0  0  0  0  0  3  0  0  0  0  0  0
  160.8350  206.9640  148.9610 N   0  0  0  0  0  0  0  0  0  0  0  0
  161.7260  209.8340  153.2230 C   0  0  1  0  0  3  0  0  0  0  0  0
  161.1130  206.8460  151.3730 C   0  0  1  0  0  3  0  0  0  0  0  0
  162.3860  210.3960  148.9230 C   0  0  0  0  0  0  0  0  0  0  0  0
  162.8740  211.3800  148.4260 C   0  0  0  0  0  0  0  0  0  0  0  0
  163.4750  212.5710  147.8170 C   0  0  0  0  0  2  0  0  0  0  0  0
  162.4110  213.4020  147.1240 C   0  0  0  0  0  2  0  0  0  0  0  0
  161.2600  212.5720  146.8000 N   0  0  0  0  0  2  0  0  0  0  0  0
  160.0310  214.3230  145.2350 O   0  0  0  0  0  0  0  0  0  0  0  0
  160.7390  212.9970  145.2050 S   0  0  0  0  0  0  0  0  0  0  0  0
  159.8050  211.9430  144.6760 O   0  0  0  0  0  0  0  0  0  0  0  0
  162.1550  213.1040  144.1330 C   0  0  0  0  0  2  0  0  0  0  0  0
  162.1260  212.0970  141.8760 C   0  0  0  0  0  1  0  0  0  0  0  0
  161.7070  213.2960  142.6970 C   0  0  0  0  0  2  0  0  0  0  0  0
  159.7760  210.3310  154.6580 C   0  0  0  0  0  2  0  0  0  0  0  0
  160.2710  212.4330  155.7190 N   0  0  0  0  0  2  0  0  0  0  0  0
  159.5260  211.7810  154.8880 C   0  0  0  0  0  0  0  0  0  0  0  0
  158.4110  212.4130  154.2510 N   0  0  0  0  0  2  0  0  0  0  0  0
  158.0380  213.7990  154.4920 C   0  0  0  0  0  2  0  0  0  0  0  0
  156.7080  213.8600  155.2230 C   0  0  0  0  0  2  0  0  0  0  0  0
  155.9960  212.5190  155.1390 C   0  0  0  0  0  2  0  0  0  0  0  0
  155.8480  211.8920  156.5160 C   0  0  1  0  0  3  0  0  0  0  0  0
  157.0610  211.9460  157.1760 F   0  0  0  0  0  0  0  0  0  0  0  0
  154.8900  212.5890  157.2530 O   0  0  0  0  0  1  0  0  0  0  0  0
  1 29  1  1  0  0  0
  3  5  1  0  0  0  0
  4  7  1  0  0  0  0
  5 16  1  0  0  0  0
  5  1  1  0  0  0  0
  6 17  1  0  0  0  0
  7  3  1  0  0  0  0
  7 12  1  0  0  0  0
  8 15  2  0  0  0  0
  8  4  1  0  0  0  0
  9 10  2  0  0  0  0
 10  2  1  0  0  0  0
 10 13  1  0  0  0  0
 11  6  2  0  0  0  0
 11  9  1  0  0  0  0
 12 16  1  0  0  0  0
 13 14  2  0  0  0  0
 15  6  1  0  0  0  0
 16  1  1  0  0  0  0
 17  3  1  0  0  0  0
 17 14  1  0  0  0  0
 18  4  1  0  0  0  0
 19 18  3  0  0  0  0
 20 19  1  0  0  0  0
 21 20  1  0  0  0  0
 22 21  1  0  0  0  0
 24 23  2  0  0  0  0
 24 22  1  0  0  0  0
 25 24  2  0  0  0  0
 26 24  1  0  0  0  0
 27 28  1  0  0  0  0
 28 26  1  0  0  0  0
 29 31  1  0  0  0  0
 31 30  2  0  0  0  0
 32 33  1  0  0  0  0
 32 31  1  0  0  0  0
 33 34  1  0  0  0  0
 35 34  1  0  0  0  0
 35 36  1  0  0  0  0
 36 37  1  0  0  0  0
 36 38  1  0  0  0  0
M  END
>  <MODEL>
4

>  <REMARK>
 VINA RESULT:      -5.1      2.285      2.594
  Name = 
  13 active torsions:
  status: ('A' for Active; 'I' for Inactive)
    1  A    between atoms: C_1  and  C_23
    2  A    between atoms: C_2  and  S_13
    3  A    between atoms: C_2  and  C_37
    4  A    between atoms: C_5  and  C_27
    5  A    between atoms: C_11  and  C_14
    6  A    between atoms: S_13  and  N_31
    7  A    between atoms: C_14  and  C_36
    8  A    between atoms: C_18  and  C_28
    9  A    between atoms: C_18  and  C_32
   10  A    between atoms: C_23  and  C_29
   11  A    between atoms: C_26  and  N_35
   12  A    between atoms: C_26  and  C_36
   13  A    between atoms: N_31  and  C_32
                            x       y       z     vdW  Elec       q    Type
                         _______ _______ _______ _____ _____    ______ ____

>  <TORSDO>
F 13

$$$$
=
 OpenBabel11052409313D

 38 41  0  0  1  0  0  0  0  0999 V2000
  160.9620  211.5000  149.5990 C   0  0  2  0  0  3  0  0  0  0  0  0
  163.2090  210.3320  157.2590 N   0  0  0  0  0  1  0  0  0  0  0  0
  161.0900  210.0730  151.6490 C   0  0  1  0  0  3  0  0  0  0  0  0
  161.2420  207.6280  151.0220 C   0  0  0  0  0  0  0  0  0  0  0  0
  161.5440  211.3770  150.9940 C   0  0  1  0  0  3  0  0  0  0  0  0
  160.7920  208.9260  153.8740 C   0  0  0  0  0  0  0  0  0  0  0  0
  161.6530  208.9960  150.8740 N   0  0  0  0  0  0  0  0  0  0  0  0
  160.6530  207.1350  152.1230 C   0  0  0  0  0  3  0  0  0  0  0  0
  161.0970  209.8220  156.1320 N   0  0  0  0  0  0  0  0  0  0  0  0
  162.4770  210.2130  156.0470 C   0  0  0  0  0  0  0  0  0  0  0  0
  160.3550  209.2560  155.2300 C   0  0  0  0  0  2  0  0  0  0  0  0
  162.4050  209.4710  149.7290 C   0  0  0  0  0  2  0  0  0  0  0  0
  163.0890  210.5820  154.9190 C   0  0  0  0  0  3  0  0  0  0  0  0
  162.5530  210.6100  153.5520 C   0  0  0  0  0  3  0  0  0  0  0  0
  160.4020  207.7820  153.3880 N   0  0  0  0  0  2  0  0  0  0  0  0
  162.3800  210.9910  149.7850 C   0  0  1  0  0  3  0  0  0  0  0  0
  161.5120  209.9220  153.0750 C   0  0  0  0  0  0  0  0  0  0  0  0
  161.4350  206.7100  149.9290 C   0  0  0  0  0  0  0  0  0  0  0  0
  161.5950  205.9470  149.0090 C   0  0  0  0  0  0  0  0  0  0  0  0
  161.7910  205.0270  147.8840 C   0  0  0  0  0  2  0  0  0  0  0  0
  162.5030  205.7330  146.7440 C   0  0  0  0  0  2  0  0  0  0  0  0
  162.5370  204.8760  145.5690 N   0  0  0  0  0  2  0  0  0  0  0  0
  161.5310  205.6240  143.2330 O   0  0  0  0  0  0  0  0  0  0  0  0
  161.1280  205.2230  144.6260 S   0  0  0  0  0  0  0  0  0  0  0  0
  160.3490  206.3400  145.2630 O   0  0  0  0  0  0  0  0  0  0  0  0
  160.0990  203.7720  144.5510 C   0  0  0  0  0  2  0  0  0  0  0  0
  160.0180  201.3520  145.0450 C   0  0  0  0  0  1  0  0  0  0  0  0
  160.7140  202.6550  145.3710 C   0  0  0  0  0  2  0  0  0  0  0  0
  161.0070  212.9500  149.1640 C   0  0  0  0  0  2  0  0  0  0  0  0
  159.9500  212.2620  147.1150 N   0  0  0  0  0  2  0  0  0  0  0  0
  160.8050  213.0410  147.6910 C   0  0  0  0  0  0  0  0  0  0  0  0
  161.6220  213.9290  146.9220 N   0  0  0  0  0  2  0  0  0  0  0  0
  161.5560  214.0130  145.4700 C   0  0  0  0  0  2  0  0  0  0  0  0
  162.8340  213.4640  144.8590 C   0  0  0  0  0  2  0  0  0  0  0  0
  162.5410  212.8120  143.5170 C   0  0  0  0  0  2  0  0  0  0  0  0
  161.0800  212.9890  143.1310 C   0  0  1  0  0  3  0  0  0  0  0  0
  161.0050  213.5930  141.8900 F   0  0  0  0  0  0  0  0  0  0  0  0
  160.4520  211.7440  143.0770 O   0  0  0  0  0  1  0  0  0  0  0  0
  1 29  1  6  0  0  0
  1 16  1  0  0  0  0
  1  5  1  0  0  0  0
  3 17  1  1  0  0  0
  4  8  2  0  0  0  0
  5  3  1  0  0  0  0
  6 11  1  0  0  0  0
  7  4  1  0  0  0  0
  7  3  1  0  0  0  0
  8 15  1  0  0  0  0
 10  9  2  0  0  0  0
 10  2  1  0  0  0  0
 11  9  1  0  0  0  0
 12 16  1  0  0  0  0
 12  7  1  0  0  0  0
 13 10  1  0  0  0  0
 14 13  2  0  0  0  0
 15  6  1  0  0  0  0
 16  5  1  0  0  0  0
 17 14  1  0  0  0  0
 17  6  2  0  0  0  0
 18  4  1  0  0  0  0
 19 18  3  0  0  0  0
 20 19  1  0  0  0  0
 21 20  1  0  0  0  0
 22 21  1  0  0  0  0
 23 24  2  0  0  0  0
 24 25  2  0  0  0  0
 24 22  1  0  0  0  0
 26 24  1  0  0  0  0
 26 28  1  0  0  0  0
 27 28  1  0  0  0  0
 30 31  2  0  0  0  0
 31 29  1  0  0  0  0
 32 31  1  0  0  0  0
 33 32  1  0  0  0  0
 34 33  1  0  0  0  0
 35 34  1  0  0  0  0
 36 35  1  0  0  0  0
 37 36  1  0  0  0  0
 38 36  1  0  0  0  0
M  END
>  <MODEL>
5

>  <REMARK>
 VINA RESULT:      -4.6      3.515      6.834
  Name = 
  13 active torsions:
  status: ('A' for Active; 'I' for Inactive)
    1  A    between atoms: C_1  and  C_23
    2  A    between atoms: C_2  and  S_13
    3  A    between atoms: C_2  and  C_37
    4  A    between atoms: C_5  and  C_27
    5  A    between atoms: C_11  and  C_14
    6  A    between atoms: S_13  and  N_31
    7  A    between atoms: C_14  and  C_36
    8  A    between atoms: C_18  and  C_28
    9  A    between atoms: C_18  and  C_32
   10  A    between atoms: C_23  and  C_29
   11  A    between atoms: C_26  and  N_35
   12  A    between atoms: C_26  and  C_36
   13  A    between atoms: N_31  and  C_32
                            x       y       z     vdW  Elec       q    Type
                         _______ _______ _______ _____ _____    ______ ____

>  <TORSDO>
F 13

$$$$
=
 OpenBabel11052409313D

 38 41  0  0  1  0  0  0  0  0999 V2000
  160.6250  204.4470  151.8310 C   0  0  2  0  0  3  0  0  0  0  0  0
  163.0480  204.8550  144.1470 N   0  0  0  0  0  1  0  0  0  0  0  0
  161.0380  205.7430  149.7330 C   0  0  1  0  0  3  0  0  0  0  0  0
  161.6900  208.1260  150.2750 C   0  0  0  0  0  0  0  0  0  0  0  0
  161.2170  204.3980  150.4360 C   0  0  1  0  0  3  0  0  0  0  0  0
  160.9780  206.8470  147.4680 C   0  0  0  0  0  0  0  0  0  0  0  0
  161.8120  206.7090  150.4730 N   0  0  0  0  0  0  0  0  0  0  0  0
  161.2130  208.6890  149.1540 C   0  0  0  0  0  3  0  0  0  0  0  0
  161.0880  205.8280  145.2440 N   0  0  0  0  0  0  0  0  0  0  0  0
  162.3580  205.1650  145.3510 C   0  0  0  0  0  0  0  0  0  0  0  0
  160.4800  206.5660  146.1220 C   0  0  0  0  0  3  0  0  0  0  0  0
  162.4530  206.1300  151.6380 C   0  0  0  0  0  2  0  0  0  0  0  0
  162.8840  204.7190  146.4940 C   0  0  0  0  0  3  0  0  0  0  0  0
  162.3570  204.8500  147.8580 C   0  0  0  0  0  3  0  0  0  0  0  0
  160.8320  208.0630  147.9110 N   0  0  0  0  0  2  0  0  0  0  0  0
  162.1160  204.6460  151.6350 C   0  0  1  0  0  3  0  0  0  0  0  0
  161.4800  205.7530  148.3050 C   0  0  1  0  0  3  0  0  0  0  0  0
  162.0700  209.0230  151.3360 C   0  0  0  0  0  0  0  0  0  0  0  0
  162.3830  209.7780  152.2220 C   0  0  0  0  0  0  0  0  0  0  0  0
  162.7550  210.7030  153.2980 C   0  0  0  0  0  2  0  0  0  0  0  0
  162.0330  210.3340  154.5810 C   0  0  0  0  0  2  0  0  0  0  0  0
  160.5960  210.4830  154.4080 N   0  0  0  0  0  2  0  0  0  0  0  0
  158.3570  210.3040  155.8160 O   0  0  0  0  0  0  0  0  0  0  0  0
  159.8530  210.2440  155.9530 S   0  0  0  0  0  0  0  0  0  0  0  0
  160.3100  211.3100  156.9100 O   0  0  0  0  0  0  0  0  0  0  0  0
  160.3270  208.6530  156.5940 C   0  0  0  0  0  2  0  0  0  0  0  0
  160.7440  206.9860  154.8170 C   0  0  0  0  0  1  0  0  0  0  0  0
  159.7050  207.5500  155.7610 C   0  0  0  0  0  2  0  0  0  0  0  0
  160.3720  203.0340  152.3180 C   0  0  0  0  0  2  0  0  0  0  0  0
  161.9730  201.4650  151.4460 N   0  0  0  0  0  2  0  0  0  0  0  0
  160.8350  202.0580  151.2940 C   0  0  0  0  0  0  0  0  0  0  0  0
  160.0550  201.8530  150.1120 N   0  0  0  0  0  2  0  0  0  0  0  0
  160.4770  200.9900  149.0190 C   0  0  0  0  0  2  0  0  0  0  0  0
  160.9830  201.8290  147.8580 C   0  0  0  0  0  2  0  0  0  0  0  0
  161.0000  201.0070  146.5790 C   0  0  0  0  0  2  0  0  0  0  0  0
  160.0800  201.6090  145.5290 C   0  0  1  0  0  3  0  0  0  0  0  0
  160.7350  202.6420  144.8850 F   0  0  0  0  0  0  0  0  0  0  0  0
  159.7260  200.6350  144.5960 O   0  0  0  0  0  1  0  0  0  0  0  0
  1 29  1  1  0  0  0
  2 10  1  0  0  0  0
  3  5  1  0  0  0  0
  3  7  1  1  0  0  0
  4  7  1  0  0  0  0
  4 18  1  0  0  0  0
  5 16  1  0  0  0  0
  5  1  1  0  0  0  0
  6 15  1  0  0  0  0
  6 17  1  0  0  0  0
  7 12  1  0  0  0  0
  8  4  2  0  0  0  0
  9 10  2  0  0  0  0
  9 11  1  0  0  0  0
 10 13  1  0  0  0  0
 11  6  2  0  0  0  0
 13 14  2  0  0  0  0
 14 17  1  0  0  0  0
 15  8  1  0  0  0  0
 16 12  1  0  0  0  0
 16  1  1  0  0  0  0
 17  3  1  0  0  0  0
 18 19  3  0  0  0  0
 19 20  1  0  0  0  0
 20 21  1  0  0  0  0
 22 21  1  0  0  0  0
 22 24  1  0  0  0  0
 23 24  2  0  0  0  0
 24 26  1  0  0  0  0
 24 25  2  0  0  0  0
 27 28  1  0  0  0  0
 28 26  1  0  0  0  0
 31 30  2  0  0  0  0
 31 29  1  0  0  0  0
 32 31  1  0  0  0  0
 33 32  1  0  0  0  0
 34 33  1  0  0  0  0
 35 34  1  0  0  0  0
 36 35  1  0  0  0  0
 37 36  1  0  0  0  0
 38 36  1  0  0  0  0
M  END
>  <MODEL>
6

>  <REMARK>
 VINA RESULT:      -4.2      4.925      8.768
  Name = 
  13 active torsions:
  status: ('A' for Active; 'I' for Inactive)
    1  A    between atoms: C_1  and  C_23
    2  A    between atoms: C_2  and  S_13
    3  A    between atoms: C_2  and  C_37
    4  A    between atoms: C_5  and  C_27
    5  A    between atoms: C_11  and  C_14
    6  A    between atoms: S_13  and  N_31
    7  A    between atoms: C_14  and  C_36
    8  A    between atoms: C_18  and  C_28
    9  A    between atoms: C_18  and  C_32
   10  A    between atoms: C_23  and  C_29
   11  A    between atoms: C_26  and  N_35
   12  A    between atoms: C_26  and  C_36
   13  A    between atoms: N_31  and  C_32
                            x       y       z     vdW  Elec       q    Type
                         _______ _______ _______ _____ _____    ______ ____

>  <TORSDO>
F 13

$$$$
=
 OpenBabel11052409313D

 38 41  0  0  1  0  0  0  0  0999 V2000
  161.3820  210.1280  149.6210 C   0  0  2  0  0  3  0  0  0  0  0  0
  163.7300  211.2320  157.2600 N   0  0  0  0  0  1  0  0  0  0  0  0
  161.3780  209.4580  152.0300 C   0  0  1  0  0  3  0  0  0  0  0  0
  161.1440  206.9500  152.2540 C   0  0  0  0  0  0  0  0  0  0  0  0
  161.9940  210.3870  150.9850 C   0  0  1  0  0  3  0  0  0  0  0  0
  161.0020  209.1700  154.5060 C   0  0  0  0  0  0  0  0  0  0  0  0
  161.7470  208.1130  151.6650 N   0  0  0  0  0  0  0  0  0  0  0  0
  160.5330  206.9440  153.4490 C   0  0  0  0  0  3  0  0  0  0  0  0
  161.5240  210.7050  156.3410 N   0  0  0  0  0  0  0  0  0  0  0  0
  162.9410  210.8310  156.1480 C   0  0  0  0  0  0  0  0  0  0  0  0
  160.6720  209.9920  155.6700 C   0  0  0  0  0  2  0  0  0  0  0  0
  162.5150  208.0630  150.4360 C   0  0  0  0  0  2  0  0  0  0  0  0
  163.5570  210.7090  154.9690 C   0  0  0  0  0  3  0  0  0  0  0  0
  162.9780  210.3650  153.6640 C   0  0  0  0  0  3  0  0  0  0  0  0
  160.4290  208.0030  154.4240 N   0  0  0  0  0  2  0  0  0  0  0  0
  162.7160  209.5010  149.9830 C   0  0  1  0  0  3  0  0  0  0  0  0
  161.8290  209.7250  153.4300 C   0  0  0  0  0  0  0  0  0  0  0  0
  161.1580  205.7040  151.5310 C   0  0  0  0  0  0  0  0  0  0  0  0
  161.1740  204.6640  150.9210 C   0  0  0  0  0  0  0  0  0  0  0  0
  161.2050  203.4010  150.1760 C   0  0  0  0  0  2  0  0  0  0  0  0
  161.1530  203.6690  148.6830 C   0  0  0  0  0  2  0  0  0  0  0  0
  160.6700  205.0190  148.4340 N   0  0  0  0  0  2  0  0  0  0  0  0
  162.7010  206.3900  147.4240 O   0  0  0  0  0  0  0  0  0  0  0  0
  161.4770  205.6130  147.0230 S   0  0  0  0  0  0  0  0  0  0  0  0
  160.5520  206.5040  146.2420 O   0  0  0  0  0  0  0  0  0  0  0  0
  161.9570  204.2390  145.9980 C   0  0  0  0  0  2  0  0  0  0  0  0
  160.5860  202.3190  145.2630 C   0  0  0  0  0  1  0  0  0  0  0  0
  160.7950  203.8100  145.1240 C   0  0  0  0  0  2  0  0  0  0  0  0
  161.6230  211.3280  148.7290 C   0  0  0  0  0  2  0  0  0  0  0  0
  161.2630  213.7040  148.8410 N   0  0  0  0  0  2  0  0  0  0  0  0
  160.9960  212.5380  149.3290 C   0  0  0  0  0  0  0  0  0  0  0  0
  160.1740  212.4010  150.4920 N   0  0  0  0  0  2  0  0  0  0  0  0
  159.5980  213.5370  151.1980 C   0  0  0  0  0  2  0  0  0  0  0  0
  158.3130  213.1200  151.8930 C   0  0  0  0  0  2  0  0  0  0  0  0
  158.5730  211.9510  152.8300 C   0  0  0  0  0  2  0  0  0  0  0  0
  158.1820  212.2970  154.2580 C   0  0  1  0  0  3  0  0  0  0  0  0
  157.7000  213.5920  154.2990 F   0  0  0  0  0  0  0  0  0  0  0  0
  157.1910  211.4220  154.7020 O   0  0  0  0  0  1  0  0  0  0  0  0
  1 29  1  6  0  0  0
  1 16  1  0  0  0  0
  1  5  1  0  0  0  0
  3 17  1  1  0  0  0
  4  8  2  0  0  0  0
  5  3  1  0  0  0  0
  6 11  1  0  0  0  0
  7  3  1  0  0  0  0
  7  4  1  0  0  0  0
  8 15  1  0  0  0  0
 10  9  2  0  0  0  0
 10  2  1  0  0  0  0
 11  9  1  0  0  0  0
 12  7  1  0  0  0  0
 13 10  1  0  0  0  0
 14 13  2  0  0  0  0
 15  6  1  0  0  0  0
 16 12  1  0  0  0  0
 16  5  1  0  0  0  0
 17 14  1  0  0  0  0
 17  6  2  0  0  0  0
 18  4  1  0  0  0  0
 19 18  3  0  0  0  0
 20 19  1  0  0  0  0
 21 20  1  0  0  0  0
 22 21  1  0  0  0  0
 24 23  2  0  0  0  0
 24 22  1  0  0  0  0
 25 24  2  0  0  0  0
 26 24  1  0  0  0  0
 28 27  1  0  0  0  0
 28 26  1  0  0  0  0
 29 31  1  0  0  0  0
 30 31  2  0  0  0  0
 31 32  1  0  0  0  0
 32 33  1  0  0  0  0
 33 34  1  0  0  0  0
 34 35  1  0  0  0  0
 35 36  1  0  0  0  0
 36 37  1  0  0  0  0
 36 38  1  0  0  0  0
M  END
>  <MODEL>
7

>  <REMARK>
 VINA RESULT:      -4.1      3.380      6.392
  Name = 
  13 active torsions:
  status: ('A' for Active; 'I' for Inactive)
    1  A    between atoms: C_1  and  C_23
    2  A    between atoms: C_2  and  S_13
    3  A    between atoms: C_2  and  C_37
    4  A    between atoms: C_5  and  C_27
    5  A    between atoms: C_11  and  C_14
    6  A    between atoms: S_13  and  N_31
    7  A    between atoms: C_14  and  C_36
    8  A    between atoms: C_18  and  C_28
    9  A    between atoms: C_18  and  C_32
   10  A    between atoms: C_23  and  C_29
   11  A    between atoms: C_26  and  N_35
   12  A    between atoms: C_26  and  C_36
   13  A    between atoms: N_31  and  C_32
                            x       y       z     vdW  Elec       q    Type
                         _______ _______ _______ _____ _____    ______ ____

>  <TORSDO>
F 13

$$$$
=
 OpenBabel11052409313D

 38 41  0  0  1  0  0  0  0  0999 V2000
  160.5740  204.3670  151.8290 C   0  0  2  0  0  3  0  0  0  0  0  0
  163.0840  204.8960  144.1800 N   0  0  0  0  0  1  0  0  0  0  0  0
  161.0130  205.6960  149.7570 C   0  0  1  0  0  3  0  0  0  0  0  0
  161.6620  208.0690  150.3450 C   0  0  1  0  0  3  0  0  0  0  0  0
  161.1820  204.3390  150.4390 C   0  0  1  0  0  3  0  0  0  0  0  0
  160.9800  206.8370  147.5090 C   0  0  0  0  0  0  0  0  0  0  0  0
  161.7800  206.6480  150.5200 N   0  0  1  0  0  0  0  0  0  0  0  0
  161.1990  208.6510  149.2280 C   0  0  0  0  0  3  0  0  0  0  0  0
  161.1130  205.8540  145.2710 N   0  0  0  0  0  0  0  0  0  0  0  0
  162.3810  205.1870  145.3800 C   0  0  0  0  0  0  0  0  0  0  0  0
  160.4960  206.5780  146.1530 C   0  0  0  0  0  3  0  0  0  0  0  0
  162.4070  206.0500  151.6830 C   0  0  0  0  0  2  0  0  0  0  0  0
  162.8930  204.7220  146.5220 C   0  0  0  0  0  3  0  0  0  0  0  0
  162.3510  204.8310  147.8820 C   0  0  0  0  0  3  0  0  0  0  0  0
  160.8300  208.0460  147.9700 N   0  0  0  0  0  0  0  0  0  0  0  0
  162.0680  204.5670  151.6530 C   0  0  1  0  0  3  0  0  0  0  0  0
  161.4700  205.7280  148.3340 C   0  0  1  0  0  3  0  0  0  0  0  0
  162.0320  208.9470  151.4240 C   0  0  0  0  0  0  0  0  0  0  0  0
  162.3340  209.6840  152.3290 C   0  0  0  0  0  0  0  0  0  0  0  0
  162.6920  210.5790  153.4350 C   0  0  0  0  0  2  0  0  0  0  0  0
  161.8160  210.2990  154.6430 C   0  0  0  0  0  2  0  0  0  0  0  0
  161.0300  211.4780  154.9740 N   0  0  0  0  0  2  0  0  0  0  0  0
  159.0250  211.5610  156.7060 O   0  0  0  0  0  0  0  0  0  0  0  0
  159.4390  210.9460  155.3980 S   0  0  0  0  0  0  0  0  0  0  0  0
  159.4180  209.4470  155.5210 O   0  0  0  0  0  0  0  0  0  0  0  0
  158.2960  211.4350  154.1240 C   0  0  0  0  0  2  0  0  0  0  0  0
  159.0650  212.7580  152.1830 C   0  0  0  0  0  1  0  0  0  0  0  0
  158.9680  211.3660  152.7670 C   0  0  0  0  0  2  0  0  0  0  0  0
  160.3140  202.9470  152.2900 C   0  0  0  0  0  2  0  0  0  0  0  0
  162.0760  201.4370  151.6550 N   0  0  0  0  0  2  0  0  0  0  0  0
  160.9480  201.9860  151.3450 C   0  0  0  0  0  0  0  0  0  0  0  0
  160.3430  201.7500  150.0700 N   0  0  0  0  0  2  0  0  0  0  0  0
  160.9420  200.9000  149.0510 C   0  0  0  0  0  2  0  0  0  0  0  0
  161.1540  201.6920  147.7720 C   0  0  0  0  0  2  0  0  0  0  0  0
  160.9170  200.8090  146.5570 C   0  0  0  0  0  2  0  0  0  0  0  0
  160.0820  201.5310  145.5110 C   0  0  1  0  0  3  0  0  0  0  0  0
  160.8300  202.5520  144.9550 F   0  0  0  0  0  0  0  0  0  0  0  0
  159.7040  200.6380  144.5090 O   0  0  0  0  0  1  0  0  0  0  0  0
  1 29  1  1  0  0  0
  2 10  1  0  0  0  0
  3  5  1  0  0  0  0
  3  7  1  0  0  0  0
  4  7  1  0  0  0  0
  4 18  1  0  0  0  0
  5 16  1  0  0  0  0
  5  1  1  0  0  0  0
  6 15  1  0  0  0  0
  6 17  1  0  0  0  0
  7 12  1  0  0  0  0
  8  4  1  0  0  0  0
  9 10  2  0  0  0  0
  9 11  1  0  0  0  0
 10 13  1  0  0  0  0
 11  6  2  0  0  0  0
 13 14  2  0  0  0  0
 14 17  1  0  0  0  0
 15  8  2  0  0  0  0
 16 12  1  0  0  0  0
 16  1  1  0  0  0  0
 17  3  1  0  0  0  0
 18 19  3  0  0  0  0
 19 20  1  0  0  0  0
 20 21  1  0  0  0  0
 21 22  1  0  0  0  0
 22 24  1  0  0  0  0
 24 25  2  0  0  0  0
 24 23  2  0  0  0  0
 26 24  1  0  0  0  0
 27 28  1  0  0  0  0
 28 26  1  0  0  0  0
 31 30  2  0  0  0  0
 31 29  1  0  0  0  0
 32 31  1  0  0  0  0
 33 32  1  0  0  0  0
 34 33  1  0  0  0  0
 35 34  1  0  0  0  0
 36 35  1  0  0  0  0
 37 36  1  0  0  0  0
 38 36  1  0  0  0  0
M  END
>  <MODEL>
8

>  <REMARK>
 VINA RESULT:      -4.0      4.555      8.431
  Name = 
  13 active torsions:
  status: ('A' for Active; 'I' for Inactive)
    1  A    between atoms: C_1  and  C_23
    2  A    between atoms: C_2  and  S_13
    3  A    between atoms: C_2  and  C_37
    4  A    between atoms: C_5  and  C_27
    5  A    between atoms: C_11  and  C_14
    6  A    between atoms: S_13  and  N_31
    7  A    between atoms: C_14  and  C_36
    8  A    between atoms: C_18  and  C_28
    9  A    between atoms: C_18  and  C_32
   10  A    between atoms: C_23  and  C_29
   11  A    between atoms: C_26  and  N_35
   12  A    between atoms: C_26  and  C_36
   13  A    between atoms: N_31  and  C_32
                            x       y       z     vdW  Elec       q    Type
                         _______ _______ _______ _____ _____    ______ ____

>  <TORSDO>
F 13

$$$$
=
 OpenBabel11052409313D

 38 41  0  0  1  0  0  0  0  0999 V2000
  162.5470  206.1590  145.9520 C   0  0  2  0  0  3  0  0  0  0  0  0
  160.0790  203.4360  153.1340 N   0  0  0  0  0  1  0  0  0  0  0  0
  162.2440  206.4520  148.4160 C   0  0  1  0  0  3  0  0  0  0  0  0
  161.8520  208.8860  148.9810 C   0  0  0  0  0  0  0  0  0  0  0  0
  161.9340  205.5690  147.2080 C   0  0  1  0  0  3  0  0  0  0  0  0
  162.3900  206.4520  150.9330 C   0  0  0  0  0  0  0  0  0  0  0  0
  161.5850  207.7140  148.1940 N   0  0  0  0  0  0  0  0  0  0  0  0
  162.3710  208.8570  150.2180 C   0  0  0  0  0  3  0  0  0  0  0  0
  162.1440  204.5870  152.5000 N   0  0  0  0  0  0  0  0  0  0  0  0
  160.8140  204.1670  152.1610 C   0  0  0  0  0  0  0  0  0  0  0  0
  162.8380  205.5670  152.0080 C   0  0  0  0  0  2  0  0  0  0  0  0
  160.9020  207.7660  146.9150 C   0  0  0  0  0  2  0  0  0  0  0  0
  160.2590  204.3150  150.9550 C   0  0  0  0  0  3  0  0  0  0  0  0
  160.8150  204.9710  149.7650 C   0  0  0  0  0  3  0  0  0  0  0  0
  162.6690  207.7190  151.0550 N   0  0  0  0  0  2  0  0  0  0  0  0
  161.0820  206.4020  146.2650 C   0  0  1  0  0  3  0  0  0  0  0  0
  161.7870  205.8860  149.7230 C   0  0  0  0  0  0  0  0  0  0  0  0
  161.5820  210.1870  148.4250 C   0  0  0  0  0  0  0  0  0  0  0  0
  161.3630  211.2770  147.9580 C   0  0  0  0  0  0  0  0  0  0  0  0
  161.1050  212.6010  147.3830 C   0  0  0  0  0  2  0  0  0  0  0  0
  159.6840  212.6780  146.8550 C   0  0  0  0  0  2  0  0  0  0  0  0
  159.4830  213.9290  146.1400 N   0  0  0  0  0  2  0  0  0  0  0  0
  158.4930  214.2730  143.7050 O   0  0  0  0  0  0  0  0  0  0  0  0
  159.6110  213.5920  144.4470 S   0  0  0  0  0  0  0  0  0  0  0  0
  159.5340  212.1090  144.2150 O   0  0  0  0  0  0  0  0  0  0  0  0
  161.1750  214.1910  143.8440 C   0  0  0  0  0  2  0  0  0  0  0  0
  163.4110  213.3180  144.4290 C   0  0  0  0  0  1  0  0  0  0  0  0
  162.1390  213.0360  143.6620 C   0  0  0  0  0  2  0  0  0  0  0  0
  162.6560  205.0800  144.8940 C   0  0  0  0  0  2  0  0  0  0  0  0
  160.3440  204.5570  144.4840 N   0  0  0  0  0  2  0  0  0  0  0  0
  161.4770  204.1740  144.9740 C   0  0  0  0  0  0  0  0  0  0  0  0
  161.5910  202.9280  145.6680 N   0  0  0  0  0  2  0  0  0  0  0  0
  160.4680  202.0260  145.8750 C   0  0  0  0  0  2  0  0  0  0  0  0
  160.8310  200.9700  146.9050 C   0  0  0  0  0  2  0  0  0  0  0  0
  161.2210  201.6260  148.2200 C   0  0  0  0  0  2  0  0  0  0  0  0
  160.5380  200.9430  149.3940 C   0  0  1  0  0  3  0  0  0  0  0  0
  161.1740  201.3040  150.5670 F   0  0  0  0  0  0  0  0  0  0  0  0
  159.2000  201.3350  149.4570 O   0  0  0  0  0  1  0  0  0  0  0  0
  1 29  1  6  0  0  0
  1 16  1  0  0  0  0
  1  5  1  0  0  0  0
  3 17  1  1  0  0  0
  4  8  2  0  0  0  0
  5  3  1  0  0  0  0
  6 15  1  0  0  0  0
  6 11  1  0  0  0  0
  7  3  1  0  0  0  0
  7  4  1  0  0  0  0
  8 15  1  0  0  0  0
 10  9  2  0  0  0  0
 10  2  1  0  0  0  0
 11  9  1  0  0  0  0
 12  7  1  0  0  0  0
 13 10  1  0  0  0  0
 14 13  2  0  0  0  0
 16 12  1  0  0  0  0
 16  5  1  0  0  0  0
 17 14  1  0  0  0  0
 17  6  2  0  0  0  0
 18  4  1  0  0  0  0
 19 18  3  0  0  0  0
 20 19  1  0  0  0  0
 21 20  1  0  0  0  0
 22 21  1  0  0  0  0
 23 24  2  0  0  0  0
 24 22  1  0  0  0  0
 25 24  2  0  0  0  0
 26 24  1  0  0  0  0
 28 26  1  0  0  0  0
 28 27  1  0  0  0  0
 29 31  1  0  0  0  0
 30 31  2  0  0  0  0
 31 32  1  0  0  0  0
 32 33  1  0  0  0  0
 33 34  1  0  0  0  0
 34 35  1  0  0  0  0
 35 36  1  0  0  0  0
 36 38  1  0  0  0  0
 36 37  1  0  0  0  0
M  END
>  <MODEL>
9

>  <REMARK>
 VINA RESULT:      -4.0      3.833      7.298
  Name = 
  13 active torsions:
  status: ('A' for Active; 'I' for Inactive)
    1  A    between atoms: C_1  and  C_23
    2  A    between atoms: C_2  and  S_13
    3  A    between atoms: C_2  and  C_37
    4  A    between atoms: C_5  and  C_27
    5  A    between atoms: C_11  and  C_14
    6  A    between atoms: S_13  and  N_31
    7  A    between atoms: C_14  and  C_36
    8  A    between atoms: C_18  and  C_28
    9  A    between atoms: C_18  and  C_32
   10  A    between atoms: C_23  and  C_29
   11  A    between atoms: C_26  and  N_35
   12  A    between atoms: C_26  and  C_36
   13  A    between atoms: N_31  and  C_32
                            x       y       z     vdW  Elec       q    Type
                         _______ _______ _______ _____ _____    ______ ____

>  <TORSDO>
F 13

$$$$
