=
 OpenBabel11042421383D

 45 52  0  0  1  0  0  0  0  0999 V2000
  160.7190  206.5410  153.8790 C   0  0  0  0  0  3  0  0  0  0  0  0
  161.7450  207.2600  149.7440 C   0  0  1  0  0  3  0  0  0  0  0  0
  161.0990  207.5000  148.4610 N   0  0  0  0  0  2  0  0  0  0  0  0
  160.5670  207.3630  154.9230 C   0  0  0  0  0  3  0  0  0  0  0  0
  161.7940  206.8240  152.8590 C   0  0  0  0  0  0  0  0  0  0  0  0
  162.2460  209.0180  151.5790 C   0  0  0  0  0  2  0  0  0  0  0  0
  162.0660  208.3130  152.7070 C   0  0  0  0  0  0  0  0  0  0  0  0
  162.1420  208.5640  150.2210 N   0  0  2  0  0  0  0  0  0  0  0  0
  160.2010  205.4720  150.0510 C   0  0  0  0  0  2  0  0  0  0  0  0
  161.7750  206.0270  151.6280 N   0  0  0  0  0  0  0  0  0  0  0  0
  162.1450  209.5130  149.1980 N   0  0  0  0  0  2  0  0  0  0  0  0
  160.2730  204.2930  150.9810 C   0  0  2  0  0  3  0  0  0  0  0  0
  161.4150  204.6340  151.8900 C   0  0  0  0  0  2  0  0  0  0  0  0
  162.0320  209.0830  153.9590 C   0  0  0  0  0  3  0  0  0  0  0  0
  161.3560  208.6210  155.0190 C   0  0  0  0  0  0  0  0  0  0  0  0
  160.8710  206.5860  150.7060 N   0  0  1  0  0  0  0  0  0  0  0  0
  161.6370  208.7930  148.0340 C   0  0  0  0  0  2  0  0  0  0  0  0
  160.5890  203.0900  150.2090 C   0  0  0  0  0  0  0  0  0  0  0  0
  160.8320  202.0860  149.5830 C   0  0  0  0  0  0  0  0  0  0  0  0
  161.1060  200.8450  148.8620 C   0  0  0  0  0  2  0  0  0  0  0  0
  161.9150  201.1350  147.6080 C   0  0  0  0  0  2  0  0  0  0  0  0
  161.0400  201.7580  146.5140 C   0  0  1  0  0  3  0  0  0  0  0  0
  159.7100  201.4140  146.7500 O   0  0  0  0  0  1  0  0  0  0  0  0
  161.6140  205.0400  144.5780 C   0  0  0  0  0  0  0  0  0  0  0  0
  159.7170  203.6130  144.5150 O   0  0  0  0  0  1  0  0  0  0  0  0
  162.5780  205.2890  146.8460 C   0  0  0  0  0  2  0  0  0  0  0  0
  162.5160  203.7670  146.9470 C   0  0  0  0  0  2  0  0  0  0  0  0
  161.4060  205.5520  143.3110 O   0  0  0  0  0  1  0  0  0  0  0  0
  161.0510  203.6770  144.9170 C   0  0  2  0  0  3  0  0  0  0  0  0
  161.1770  203.2810  146.3960 C   0  0  1  0  0  3  0  0  0  0  0  0
  162.3400  205.7460  145.4420 C   0  0  0  0  0  3  0  0  0  0  0  0
  161.3180  209.4260  156.1960 N   0  0  0  0  0  2  0  0  0  0  0  0
  160.3050  209.3060  157.1600 N   0  0  0  0  0  0  0  0  0  0  0  0
  159.3480  210.1800  157.2330 C   0  0  0  0  0  3  0  0  0  0  0  0
  157.7330  211.6710  154.8230 C   0  0  1  0  0  0  0  0  0  0  0  0
  159.2880  211.3430  156.2860 C   0  0  1  0  0  3  0  0  0  0  0  0
  156.9040  211.5190  157.0830 O   0  0  0  0  0  1  0  0  0  0  0  0
  157.6380  213.1240  155.2650 C   0  0  2  0  0  3  0  0  0  0  0  0
  159.0470  210.8950  154.8660 C   0  0  0  0  0  2  0  0  0  0  0  0
  157.9420  212.0620  156.3080 C   0  0  2  0  0  0  0  0  0  0  0  0
  156.5710  210.9060  154.6520 O   0  0  0  0  0  1  0  0  0  0  0  0
  156.2590  213.7740  155.4870 C   0  0  2  0  0  0  0  0  0  0  0  0
  155.6530  214.4430  154.3240 C   0  0  0  0  0  2  0  0  0  0  0  0
  155.9710  214.4530  156.8110 C   0  0  0  0  0  1  0  0  0  0  0  0
  155.1370  213.2460  154.8480 O   0  0  0  0  0  0  0  0  0  0  0  0
  1  4  1  0  0  0  0
  2  3  1  6  0  0  0
  2  8  1  0  0  0  0
  2 16  1  0  0  0  0
  4 15  2  0  0  0  0
  5  1  2  0  0  0  0
  6  7  1  0  0  0  0
  7  5  1  0  0  0  0
  7 14  2  0  0  0  0
  8  6  1  1  0  0  0
  9 12  1  0  0  0  0
 10 13  1  0  0  0  0
 10  5  1  0  0  0  0
 11  8  1  0  0  0  0
 12 18  1  6  0  0  0
 12 13  1  0  0  0  0
 14 15  1  0  0  0  0
 15 32  1  0  0  0  0
 16  9  1  6  0  0  0
 16 10  1  0  0  0  0
 17  3  1  0  0  0  0
 17 11  1  0  0  0  0
 19 18  3  0  0  0  0
 20 19  1  0  0  0  0
 21 20  1  0  0  0  0
 22 23  1  1  0  0  0
 22 21  1  0  0  0  0
 24 29  1  0  0  0  0
 24 31  2  0  0  0  0
 26 27  1  0  0  0  0
 28 24  1  0  0  0  0
 29 25  1  1  0  0  0
 29 30  1  0  0  0  0
 30 22  1  6  0  0  0
 30 27  1  0  0  0  0
 31 26  1  0  0  0  0
 32 33  1  0  0  0  0
 33 34  2  0  0  0  0
 35 41  1  6  0  0  0
 35 39  1  0  0  0  0
 35 38  1  0  0  0  0
 35 40  1  0  0  0  0
 36 40  1  0  0  0  0
 36 34  1  1  0  0  0
 38 42  1  1  0  0  0
 38 40  1  0  0  0  0
 39 36  1  0  0  0  0
 40 37  1  1  0  0  0
 42 44  1  1  0  0  0
 43 45  1  0  0  0  0
 43 42  1  0  0  0  0
 45 42  1  0  0  0  0
M  END
>  <MODEL>
1

>  <REMARK>
 VINA RESULT:      -7.8      0.000      0.000
  Name = 
  9 active torsions:
  status: ('A' for Active; 'I' for Inactive)
    1  A    between atoms: C_1  and  C_36
    2  A    between atoms: C_1  and  C_39
    3  A    between atoms: C_2  and  C_39
    4  A    between atoms: C_2  and  C_45
    5  A    between atoms: C_7  and  C_24
    6  A    between atoms: C_13  and  C_16
    7  A    between atoms: N_22  and  N_44
    8  A    between atoms: C_29  and  C_43
    9  A    between atoms: C_35  and  N_44
                            x       y       z     vdW  Elec       q    Type
                         _______ _______ _______ _____ _____    ______ ____

>  <TORSDO>
F 9

$$$$
=
 OpenBabel11042421383D

 45 52  0  0  1  0  0  0  0  0999 V2000
  161.5810  206.1340  153.2690 C   0  0  0  0  0  3  0  0  0  0  0  0
  161.4860  209.6570  150.7680 C   0  0  1  0  0  3  0  0  0  0  0  0
  162.3580  210.7400  150.3360 N   0  0  0  0  0  2  0  0  0  0  0  0
  161.8480  204.8520  153.0030 C   0  0  0  0  0  3  0  0  0  0  0  0
  160.8300  206.9640  152.2550 C   0  0  0  0  0  0  0  0  0  0  0  0
  161.3500  207.2790  149.7480 C   0  0  0  0  0  2  0  0  0  0  0  0
  161.1090  206.5190  150.8270 C   0  0  0  0  0  0  0  0  0  0  0  0
  161.4920  208.7060  149.6800 N   0  0  2  0  0  0  0  0  0  0  0  0
  162.2630  210.0740  152.9800 C   0  0  0  0  0  2  0  0  0  0  0  0
  160.7580  208.4090  152.4950 N   0  0  0  0  0  0  0  0  0  0  0  0
  161.9650  209.2740  148.4960 N   0  0  0  0  0  2  0  0  0  0  0  0
  161.6560  209.6820  154.2990 C   0  0  2  0  0  3  0  0  0  0  0  0
  160.5780  208.7150  153.9130 C   0  0  0  0  0  2  0  0  0  0  0  0
  161.2180  205.0650  150.6380 C   0  0  0  0  0  3  0  0  0  0  0  0
  161.5300  204.2700  151.6710 C   0  0  0  0  0  0  0  0  0  0  0  0
  161.9240  209.0350  152.0180 N   0  0  1  0  0  0  0  0  0  0  0  0
  162.3630  210.6260  148.8760 C   0  0  0  0  0  2  0  0  0  0  0  0
  161.0660  210.8660  154.9270 C   0  0  0  0  0  0  0  0  0  0  0  0
  160.5590  211.8290  155.4490 C   0  0  0  0  0  0  0  0  0  0  0  0
  159.9010  212.9790  156.0680 C   0  0  0  0  0  2  0  0  0  0  0  0
  158.7930  213.4960  155.1650 C   0  0  0  0  0  2  0  0  0  0  0  0
  158.6530  212.6330  153.9060 C   0  0  1  0  0  3  0  0  0  0  0  0
  157.4390  211.9510  153.9570 O   0  0  0  0  0  1  0  0  0  0  0  0
  157.3670  213.8330  150.4760 C   0  0  0  0  0  0  0  0  0  0  0  0
  156.5870  214.4500  152.6320 O   0  0  0  0  0  1  0  0  0  0  0  0
  159.8310  213.6040  150.3530 C   0  0  0  0  0  2  0  0  0  0  0  0
  159.7300  212.7560  151.6190 C   0  0  0  0  0  2  0  0  0  0  0  0
  156.1640  214.0920  149.8480 O   0  0  0  0  0  1  0  0  0  0  0  0
  157.3650  213.5120  151.9550 C   0  0  2  0  0  3  0  0  0  0  0  0
  158.7590  213.4210  152.5940 C   0  0  1  0  0  3  0  0  0  0  0  0
  158.4820  213.8310  149.7490 C   0  0  0  0  0  3  0  0  0  0  0  0
  161.6660  202.8710  151.4260 N   0  0  0  0  0  2  0  0  0  0  0  0
  160.5690  202.0460  151.1360 N   0  0  0  0  0  0  0  0  0  0  0  0
  160.4730  201.4450  149.9890 C   0  0  0  0  0  3  0  0  0  0  0  0
  161.1600  201.8290  146.8230 C   0  0  1  0  0  0  0  0  0  0  0  0
  161.5340  201.6060  148.9390 C   0  0  1  0  0  3  0  0  0  0  0  0
  160.0930  203.5240  148.1670 O   0  0  0  0  0  1  0  0  0  0  0  0
  162.1450  202.9870  146.7820 C   0  0  2  0  0  3  0  0  0  0  0  0
  161.3280  200.6560  147.7860 C   0  0  0  0  0  2  0  0  0  0  0  0
  161.2890  202.8020  148.0220 C   0  0  2  0  0  0  0  0  0  0  0  0
  159.9080  201.9410  146.2030 O   0  0  0  0  0  1  0  0  0  0  0  0
  161.7870  204.2770  146.0190 C   0  0  2  0  0  0  0  0  0  0  0  0
  162.1080  204.3030  144.5830 C   0  0  0  0  0  2  0  0  0  0  0  0
  161.9570  205.6140  146.7150 C   0  0  0  0  0  1  0  0  0  0  0  0
  160.7840  204.2500  145.0510 O   0  0  0  0  0  0  0  0  0  0  0  0
  2  3  1  6  0  0  0
  2 16  1  0  0  0  0
  4  1  1  0  0  0  0
  5 10  1  0  0  0  0
  5  1  2  0  0  0  0
  6  7  1  0  0  0  0
  7  5  1  0  0  0  0
  8  6  1  1  0  0  0
  8  2  1  0  0  0  0
  9 12  1  0  0  0  0
 10 13  1  0  0  0  0
 11 17  1  0  0  0  0
 11  8  1  0  0  0  0
 12 18  1  6  0  0  0
 13 12  1  0  0  0  0
 14  7  2  0  0  0  0
 14 15  1  0  0  0  0
 15  4  2  0  0  0  0
 16 10  1  0  0  0  0
 16  9  1  1  0  0  0
 17  3  1  0  0  0  0
 18 19  3  0  0  0  0
 19 20  1  0  0  0  0
 21 20  1  0  0  0  0
 22 23  1  1  0  0  0
 22 21  1  0  0  0  0
 24 29  1  0  0  0  0
 26 27  1  0  0  0  0
 27 30  1  0  0  0  0
 28 24  1  0  0  0  0
 29 30  1  0  0  0  0
 29 25  1  1  0  0  0
 30 22  1  1  0  0  0
 31 26  1  0  0  0  0
 31 24  2  0  0  0  0
 32 15  1  0  0  0  0
 33 32  1  0  0  0  0
 34 33  2  0  0  0  0
 35 41  1  6  0  0  0
 35 39  1  0  0  0  0
 35 40  1  0  0  0  0
 36 34  1  1  0  0  0
 38 42  1  6  0  0  0
 38 35  1  0  0  0  0
 38 40  1  0  0  0  0
 39 36  1  0  0  0  0
 40 37  1  1  0  0  0
 40 36  1  0  0  0  0
 42 44  1  1  0  0  0
 43 45  1  0  0  0  0
 43 42  1  0  0  0  0
 45 42  1  0  0  0  0
M  END
>  <MODEL>
2

>  <REMARK>
 VINA RESULT:      -7.6      2.295     10.114
  Name = 
  9 active torsions:
  status: ('A' for Active; 'I' for Inactive)
    1  A    between atoms: C_1  and  C_36
    2  A    between atoms: C_1  and  C_39
    3  A    between atoms: C_2  and  C_39
    4  A    between atoms: C_2  and  C_45
    5  A    between atoms: C_7  and  C_24
    6  A    between atoms: C_13  and  C_16
    7  A    between atoms: N_22  and  N_44
    8  A    between atoms: C_29  and  C_43
    9  A    between atoms: C_35  and  N_44
                            x       y       z     vdW  Elec       q    Type
                         _______ _______ _______ _____ _____    ______ ____

>  <TORSDO>
F 9

$$$$
=
 OpenBabel11042421383D

 45 52  0  0  1  0  0  0  0  0999 V2000
  162.0880  213.4350  147.6670 C   0  0  0  0  0  3  0  0  0  0  0  0
  157.8190  213.4850  148.3320 C   0  0  1  0  0  3  0  0  0  0  0  0
  156.7750  214.3850  148.8000 N   0  0  0  0  0  2  0  0  0  0  0  0
  162.8320  213.7010  146.5890 C   0  0  0  0  0  3  0  0  0  0  0  0
  160.7590  212.7380  147.5010 C   0  0  0  0  0  0  0  0  0  0  0  0
  158.8060  213.3710  145.9390 C   0  0  0  0  0  2  0  0  0  0  0  0
  160.0930  213.0750  146.1750 C   0  0  0  0  0  0  0  0  0  0  0  0
  157.7420  213.5300  146.8900 N   0  0  2  0  0  0  0  0  0  0  0  0
  159.0910  214.1670  150.2260 C   0  0  0  0  0  2  0  0  0  0  0  0
  159.8890  212.6690  148.6800 N   0  0  0  0  0  0  0  0  0  0  0  0
  156.5280  214.0600  146.4500 N   0  0  0  0  0  2  0  0  0  0  0  0
  160.2680  213.4980  150.8820 C   0  0  2  0  0  3  0  0  0  0  0  0
  160.6510  212.4290  149.9040 C   0  0  0  0  0  2  0  0  0  0  0  0
  161.0080  213.1790  145.0290 C   0  0  0  0  0  3  0  0  0  0  0  0
  162.3080  213.4380  145.2210 C   0  0  0  0  0  0  0  0  0  0  0  0
  159.1520  213.8610  148.8040 N   0  0  1  0  0  0  0  0  0  0  0  0
  155.8390  214.4530  147.6760 C   0  0  0  0  0  2  0  0  0  0  0  0
  159.8350  212.8920  152.1430 C   0  0  0  0  0  0  0  0  0  0  0  0
  159.4600  212.3820  153.1710 C   0  0  0  0  0  0  0  0  0  0  0  0
  158.9600  211.7640  154.3970 C   0  0  0  0  0  2  0  0  0  0  0  0
  159.7250  210.4830  154.6880 C   0  0  0  0  0  2  0  0  0  0  0  0
  161.0980  210.4890  154.0050 C   0  0  1  0  0  3  0  0  0  0  0  0
  162.0540  210.9340  154.9150 O   0  0  0  0  0  1  0  0  0  0  0  0
  161.2400  207.7990  151.2490 C   0  0  0  0  0  0  0  0  0  0  0  0
  162.3470  209.8980  151.3060 O   0  0  0  0  0  1  0  0  0  0  0  0
  161.1750  206.6640  153.4500 C   0  0  0  0  0  2  0  0  0  0  0  0
  160.6890  207.9910  154.0250 C   0  0  0  0  0  2  0  0  0  0  0  0
  161.2310  207.7190  149.8690 O   0  0  0  0  0  1  0  0  0  0  0  0
  161.3250  209.1610  151.9020 C   0  0  2  0  0  3  0  0  0  0  0  0
  161.5130  209.1310  153.4260 C   0  0  1  0  0  3  0  0  0  0  0  0
  161.1300  206.6760  151.9550 C   0  0  0  0  0  3  0  0  0  0  0  0
  163.1450  213.5720  144.0730 N   0  0  0  0  0  2  0  0  0  0  0  0
  162.7760  214.3360  142.9560 N   0  0  0  0  0  0  0  0  0  0  0  0
  162.4050  213.7640  141.8510 C   0  0  0  0  0  3  0  0  0  0  0  0
  160.7820  211.1590  140.7470 C   0  0  1  0  0  0  0  0  0  0  0  0
  162.3500  212.2690  141.7340 C   0  0  1  0  0  3  0  0  0  0  0  0
  161.8830  212.7490  139.3040 O   0  0  0  0  0  1  0  0  0  0  0  0
  161.8350  210.3230  140.0350 C   0  0  2  0  0  3  0  0  0  0  0  0
  161.0050  211.7250  142.1460 C   0  0  0  0  0  2  0  0  0  0  0  0
  162.1260  211.7900  140.3020 C   0  0  2  0  0  0  0  0  0  0  0  0
  159.7020  211.6960  140.0310 O   0  0  0  0  0  1  0  0  0  0  0  0
  161.6970  210.0260  138.5300 C   0  0  2  0  0  0  0  0  0  0  0  0
  161.2840  208.6610  138.1650 C   0  0  0  0  0  2  0  0  0  0  0  0
  162.6800  210.6540  137.5620 C   0  0  0  0  0  1  0  0  0  0  0  0
  160.4360  209.7680  137.9910 O   0  0  0  0  0  0  0  0  0  0  0  0
  2  3  1  1  0  0  0
  2 16  1  0  0  0  0
  4  1  2  0  0  0  0
  5  1  1  0  0  0  0
  5 10  1  0  0  0  0
  6  7  1  0  0  0  0
  7  5  2  0  0  0  0
  8  6  1  1  0  0  0
  8  2  1  0  0  0  0
  9 12  1  0  0  0  0
 10 16  1  0  0  0  0
 10 13  1  0  0  0  0
 11  8  1  0  0  0  0
 11 17  1  0  0  0  0
 12 18  1  1  0  0  0
 13 12  1  0  0  0  0
 14 15  2  0  0  0  0
 14  7  1  0  0  0  0
 15  4  1  0  0  0  0
 16  9  1  1  0  0  0
 17  3  1  0  0  0  0
 18 19  3  0  0  0  0
 19 20  1  0  0  0  0
 20 21  1  0  0  0  0
 22 21  1  0  0  0  0
 22 23  1  1  0  0  0
 24 29  1  0  0  0  0
 24 31  2  0  0  0  0
 26 27  1  0  0  0  0
 28 24  1  0  0  0  0
 29 25  1  6  0  0  0
 29 30  1  0  0  0  0
 30 22  1  1  0  0  0
 30 27  1  0  0  0  0
 31 26  1  0  0  0  0
 32 15  1  0  0  0  0
 33 32  1  0  0  0  0
 34 33  2  0  0  0  0
 35 41  1  6  0  0  0
 35 39  1  0  0  0  0
 36 34  1  6  0  0  0
 36 39  1  0  0  0  0
 38 42  1  6  0  0  0
 38 40  1  0  0  0  0
 38 35  1  0  0  0  0
 40 37  1  6  0  0  0
 40 35  1  0  0  0  0
 40 36  1  0  0  0  0
 42 44  1  6  0  0  0
 43 42  1  0  0  0  0
 45 43  1  0  0  0  0
 45 42  1  0  0  0  0
M  END
>  <MODEL>
3

>  <REMARK>
 VINA RESULT:      -7.1      5.728     11.888
  Name = 
  9 active torsions:
  status: ('A' for Active; 'I' for Inactive)
    1  A    between atoms: C_1  and  C_36
    2  A    between atoms: C_1  and  C_39
    3  A    between atoms: C_2  and  C_39
    4  A    between atoms: C_2  and  C_45
    5  A    between atoms: C_7  and  C_24
    6  A    between atoms: C_13  and  C_16
    7  A    between atoms: N_22  and  N_44
    8  A    between atoms: C_29  and  C_43
    9  A    between atoms: C_35  and  N_44
                            x       y       z     vdW  Elec       q    Type
                         _______ _______ _______ _____ _____    ______ ____

>  <TORSDO>
F 9

$$$$
=
 OpenBabel11042421383D

 45 52  0  0  1  0  0  0  0  0999 V2000
  162.2090  206.9380  149.5440 C   0  0  0  0  0  3  0  0  0  0  0  0
  160.9880  203.1210  147.9280 C   0  0  1  0  0  3  0  0  0  0  0  0
  161.5720  201.8890  147.4170 N   0  0  0  0  0  2  0  0  0  0  0  0
  162.4100  207.3590  150.7970 C   0  0  0  0  0  3  0  0  0  0  0  0
  161.0860  205.9710  149.2550 C   0  0  0  0  0  0  0  0  0  0  0  0
  160.5750  203.7230  150.4140 C   0  0  0  0  0  2  0  0  0  0  0  0
  160.8080  205.0450  150.4300 C   0  0  0  0  0  0  0  0  0  0  0  0
  160.6140  202.8280  149.2920 N   0  0  2  0  0  0  0  0  0  0  0  0
  162.5440  204.2890  146.5540 C   0  0  0  0  0  2  0  0  0  0  0  0
  161.0470  205.3720  147.9170 N   0  0  0  0  0  0  0  0  0  0  0  0
  160.5630  201.4540  149.5330 N   0  0  0  0  0  2  0  0  0  0  0  0
  162.5160  205.7130  146.0720 C   0  0  2  0  0  3  0  0  0  0  0  0
  161.4180  206.3340  146.8810 C   0  0  0  0  0  2  0  0  0  0  0  0
  160.9020  205.6740  151.7550 C   0  0  0  0  0  3  0  0  0  0  0  0
  161.6270  206.7880  151.9250 C   0  0  0  0  0  0  0  0  0  0  0  0
  161.9060  204.2590  147.8620 N   0  0  1  0  0  0  0  0  0  0  0  0
  161.0150  200.8500  148.2840 C   0  0  0  0  0  2  0  0  0  0  0  0
  162.1620  205.7320  144.6500 C   0  0  0  0  0  0  0  0  0  0  0  0
  161.8890  205.7630  143.4750 C   0  0  0  0  0  0  0  0  0  0  0  0
  161.5800  205.8450  142.0490 C   0  0  0  0  0  2  0  0  0  0  0  0
  161.8490  207.2500  141.5340 C   0  0  0  0  0  2  0  0  0  0  0  0
  162.5320  207.2180  140.1620 C   0  0  1  0  0  3  0  0  0  0  0  0
  162.3210  205.9690  139.5820 O   0  0  0  0  0  1  0  0  0  0  0  0
  160.9360  210.6260  139.3320 C   0  0  0  0  0  0  0  0  0  0  0  0
  163.0320  210.2020  140.3630 O   0  0  0  0  0  1  0  0  0  0  0  0
  160.4060  209.0450  137.5000 C   0  0  0  0  0  2  0  0  0  0  0  0
  160.7930  207.9290  138.4660 C   0  0  0  0  0  2  0  0  0  0  0  0
  160.7820  211.8730  139.9090 O   0  0  0  0  0  1  0  0  0  0  0  0
  161.8190  209.6070  140.0180 C   0  0  2  0  0  3  0  0  0  0  0  0
  162.0690  208.3260  139.2080 C   0  0  1  0  0  3  0  0  0  0  0  0
  160.2660  210.3520  138.2150 C   0  0  0  0  0  3  0  0  0  0  0  0
  161.7220  207.3350  153.2390 N   0  0  0  0  0  2  0  0  0  0  0  0
  160.6940  207.2070  154.1860 N   0  0  0  0  0  0  0  0  0  0  0  0
  160.1700  208.2540  154.7470 C   0  0  0  0  0  3  0  0  0  0  0  0
  159.3570  211.2630  153.7840 C   0  0  1  0  0  0  0  0  0  0  0  0
  160.6390  209.6360  154.3960 C   0  0  1  0  0  3  0  0  0  0  0  0
  158.7930  210.3620  155.9490 O   0  0  0  0  0  1  0  0  0  0  0  0
  160.0820  212.1850  154.7520 C   0  0  2  0  0  3  0  0  0  0  0  0
  160.0640  210.1060  153.0830 C   0  0  0  0  0  2  0  0  0  0  0  0
  159.8810  210.7310  155.1420 C   0  0  2  0  0  0  0  0  0  0  0  0
  157.9560  211.2490  153.7340 O   0  0  0  0  0  1  0  0  0  0  0  0
  159.2790  213.1420  155.6550 C   0  0  2  0  0  0  0  0  0  0  0  0
  158.8430  214.4090  155.0450 C   0  0  0  0  0  2  0  0  0  0  0  0
  159.6500  213.2550  157.1200 C   0  0  0  0  0  1  0  0  0  0  0  0
  157.9350  213.3880  155.3750 O   0  0  0  0  0  0  0  0  0  0  0  0
  1  4  1  0  0  0  0
  2  3  1  1  0  0  0
  2  8  1  0  0  0  0
  3 17  1  0  0  0  0
  4 15  2  0  0  0  0
  5  1  2  0  0  0  0
  5  7  1  0  0  0  0
  6  7  1  0  0  0  0
  7 14  2  0  0  0  0
  8 11  1  0  0  0  0
  8  6  1  1  0  0  0
 10  5  1  0  0  0  0
 12 18  1  6  0  0  0
 12  9  1  0  0  0  0
 12 13  1  0  0  0  0
 13 10  1  0  0  0  0
 14 15  1  0  0  0  0
 15 32  1  0  0  0  0
 16  9  1  6  0  0  0
 16 10  1  0  0  0  0
 16  2  1  0  0  0  0
 17 11  1  0  0  0  0
 19 18  3  0  0  0  0
 20 19  1  0  0  0  0
 21 20  1  0  0  0  0
 22 23  1  6  0  0  0
 22 21  1  0  0  0  0
 24 28  1  0  0  0  0
 24 29  1  0  0  0  0
 26 31  1  0  0  0  0
 26 27  1  0  0  0  0
 27 30  1  0  0  0  0
 29 25  1  6  0  0  0
 30 29  1  0  0  0  0
 30 22  1  1  0  0  0
 31 24  2  0  0  0  0
 32 33  1  0  0  0  0
 33 34  2  0  0  0  0
 35 41  1  6  0  0  0
 35 38  1  0  0  0  0
 35 40  1  0  0  0  0
 36 34  1  1  0  0  0
 36 40  1  0  0  0  0
 38 40  1  0  0  0  0
 38 42  1  1  0  0  0
 39 35  1  0  0  0  0
 39 36  1  0  0  0  0
 40 37  1  1  0  0  0
 42 44  1  1  0  0  0
 43 45  1  0  0  0  0
 43 42  1  0  0  0  0
 45 42  1  0  0  0  0
M  END
>  <MODEL>
4

>  <REMARK>
 VINA RESULT:      -7.1      3.748      5.910
  Name = 
  9 active torsions:
  status: ('A' for Active; 'I' for Inactive)
    1  A    between atoms: C_1  and  C_36
    2  A    between atoms: C_1  and  C_39
    3  A    between atoms: C_2  and  C_39
    4  A    between atoms: C_2  and  C_45
    5  A    between atoms: C_7  and  C_24
    6  A    between atoms: C_13  and  C_16
    7  A    between atoms: N_22  and  N_44
    8  A    between atoms: C_29  and  C_43
    9  A    between atoms: C_35  and  N_44
                            x       y       z     vdW  Elec       q    Type
                         _______ _______ _______ _____ _____    ______ ____

>  <TORSDO>
F 9

$$$$
=
 OpenBabel11042421383D

 45 52  0  0  1  0  0  0  0  0999 V2000
  162.1230  213.0450  145.2700 C   0  0  0  0  0  3  0  0  0  0  0  0
  158.5310  213.1000  147.6720 C   0  0  1  0  0  3  0  0  0  0  0  0
  157.9090  213.8870  148.7270 N   0  0  0  0  0  2  0  0  0  0  0  0
  162.4070  213.5580  144.0680 C   0  0  0  0  0  3  0  0  0  0  0  0
  160.7490  212.4770  145.5300 C   0  0  0  0  0  0  0  0  0  0  0  0
  158.4560  213.5890  145.1280 C   0  0  0  0  0  2  0  0  0  0  0  0
  159.6700  213.1850  144.7240 C   0  0  0  0  0  0  0  0  0  0  0  0
  157.8950  213.5330  146.4490 N   0  0  2  0  0  0  0  0  0  0  0  0
  160.5390  213.1940  148.9490 C   0  0  0  0  0  2  0  0  0  0  0  0
  160.4190  212.1320  146.9170 N   0  0  0  0  0  0  0  0  0  0  0  0
  156.7020  214.2140  146.6960 N   0  0  0  0  0  2  0  0  0  0  0  0
  161.7640  212.3240  148.8750 C   0  0  2  0  0  3  0  0  0  0  0  0
  161.5590  211.5400  147.6140 C   0  0  0  0  0  2  0  0  0  0  0  0
  160.0580  213.5530  143.3540 C   0  0  0  0  0  3  0  0  0  0  0  0
  161.3500  213.6940  143.0310 C   0  0  0  0  0  0  0  0  0  0  0  0
  159.9830  213.2780  147.6060 N   0  0  1  0  0  0  0  0  0  0  0  0
  156.6260  214.2940  148.1520 C   0  0  0  0  0  2  0  0  0  0  0  0
  161.7820  211.4210  150.0290 C   0  0  0  0  0  0  0  0  0  0  0  0
  161.8180  210.6700  150.9720 C   0  0  0  0  0  0  0  0  0  0  0  0
  161.8940  209.7310  152.0900 C   0  0  0  0  0  2  0  0  0  0  0  0
  160.9490  208.5630  151.8570 C   0  0  0  0  0  2  0  0  0  0  0  0
  161.5680  207.2440  152.3340 C   0  0  1  0  0  3  0  0  0  0  0  0
  160.7880  206.7250  153.3660 O   0  0  0  0  0  1  0  0  0  0  0  0
  161.0090  205.8320  148.7920 C   0  0  0  0  0  0  0  0  0  0  0  0
  162.3480  207.6830  149.4370 O   0  0  0  0  0  1  0  0  0  0  0  0
  161.1250  203.9360  150.3830 C   0  0  0  0  0  2  0  0  0  0  0  0
  160.8820  204.9590  151.4890 C   0  0  0  0  0  2  0  0  0  0  0  0
  160.7950  206.2940  147.5080 O   0  0  0  0  0  1  0  0  0  0  0  0
  161.3420  206.8260  149.8830 C   0  0  2  0  0  3  0  0  0  0  0  0
  161.7390  206.1970  151.2270 C   0  0  1  0  0  3  0  0  0  0  0  0
  160.8710  204.5300  149.0340 C   0  0  0  0  0  3  0  0  0  0  0  0
  161.6710  214.0930  141.6990 N   0  0  0  0  0  2  0  0  0  0  0  0
  160.6900  214.4430  140.7590 N   0  0  0  0  0  0  0  0  0  0  0  0
  160.6710  213.8970  139.5810 C   0  0  0  0  0  3  0  0  0  0  0  0
  161.8520  210.8920  140.0450 C   0  0  1  0  0  0  0  0  0  0  0  0
  161.6910  212.8680  139.1890 C   0  0  1  0  0  3  0  0  0  0  0  0
  159.6960  211.3350  139.0580 O   0  0  0  0  0  1  0  0  0  0  0  0
  161.9750  210.3070  138.6460 C   0  0  2  0  0  3  0  0  0  0  0  0
  162.3830  212.2790  140.3930 C   0  0  0  0  0  2  0  0  0  0  0  0
  161.0750  211.5120  138.8560 C   0  0  2  0  0  0  0  0  0  0  0  0
  160.9830  210.3130  140.9800 O   0  0  0  0  0  1  0  0  0  0  0  0
  161.1750  209.0480  138.2630 C   0  0  2  0  0  0  0  0  0  0  0  0
  161.9070  207.7710  138.2850 C   0  0  0  0  0  2  0  0  0  0  0  0
  160.1330  209.1440  137.1650 C   0  0  0  0  0  1  0  0  0  0  0  0
  160.9120  208.0770  139.2290 O   0  0  0  0  0  0  0  0  0  0  0  0
  1  5  1  0  0  0  0
  2  3  1  1  0  0  0
  4  1  2  0  0  0  0
  5 10  1  0  0  0  0
  7  6  1  0  0  0  0
  7  5  2  0  0  0  0
  8  6  1  1  0  0  0
  8 11  1  0  0  0  0
  8  2  1  0  0  0  0
 10 16  1  0  0  0  0
 10 13  1  0  0  0  0
 11 17  1  0  0  0  0
 12  9  1  0  0  0  0
 12 18  1  1  0  0  0
 13 12  1  0  0  0  0
 14  7  1  0  0  0  0
 15 14  2  0  0  0  0
 15  4  1  0  0  0  0
 16  2  1  0  0  0  0
 16  9  1  1  0  0  0
 17  3  1  0  0  0  0
 18 19  3  0  0  0  0
 19 20  1  0  0  0  0
 21 20  1  0  0  0  0
 21 22  1  0  0  0  0
 22 23  1  1  0  0  0
 24 31  2  0  0  0  0
 24 29  1  0  0  0  0
 26 27  1  0  0  0  0
 28 24  1  0  0  0  0
 29 25  1  6  0  0  0
 29 30  1  0  0  0  0
 30 27  1  0  0  0  0
 30 22  1  1  0  0  0
 31 26  1  0  0  0  0
 32 15  1  0  0  0  0
 33 32  1  0  0  0  0
 34 33  2  0  0  0  0
 35 39  1  0  0  0  0
 35 41  1  1  0  0  0
 36 34  1  1  0  0  0
 36 39  1  0  0  0  0
 38 42  1  1  0  0  0
 38 40  1  0  0  0  0
 38 35  1  0  0  0  0
 40 37  1  6  0  0  0
 40 36  1  0  0  0  0
 40 35  1  0  0  0  0
 42 44  1  6  0  0  0
 42 43  1  0  0  0  0
 42 45  1  0  0  0  0
 43 45  1  0  0  0  0
M  END
>  <MODEL>
5

>  <REMARK>
 VINA RESULT:      -7.0      5.908     11.808
  Name = 
  9 active torsions:
  status: ('A' for Active; 'I' for Inactive)
    1  A    between atoms: C_1  and  C_36
    2  A    between atoms: C_1  and  C_39
    3  A    between atoms: C_2  and  C_39
    4  A    between atoms: C_2  and  C_45
    5  A    between atoms: C_7  and  C_24
    6  A    between atoms: C_13  and  C_16
    7  A    between atoms: N_22  and  N_44
    8  A    between atoms: C_29  and  C_43
    9  A    between atoms: C_35  and  N_44
                            x       y       z     vdW  Elec       q    Type
                         _______ _______ _______ _____ _____    ______ ____

>  <TORSDO>
F 9

$$$$
=
 OpenBabel11042421383D

 45 52  0  0  1  0  0  0  0  0999 V2000
  162.6670  210.8590  148.6450 C   0  0  0  0  0  3  0  0  0  0  0  0
  160.1790  211.4200  152.1330 C   0  0  1  0  0  3  0  0  0  0  0  0
  160.3010  211.7400  153.5480 N   0  0  0  0  0  2  0  0  0  0  0  0
  163.0680  211.6980  147.6840 C   0  0  0  0  0  3  0  0  0  0  0  0
  161.2760  210.9930  149.2160 C   0  0  0  0  0  0  0  0  0  0  0  0
  160.1340  213.1030  150.1630 C   0  0  0  0  0  2  0  0  0  0  0  0
  160.7830  212.4330  149.2000 C   0  0  0  0  0  0  0  0  0  0  0  0
  159.8130  212.6620  151.4920 N   0  0  2  0  0  0  0  0  0  0  0  0
  161.9450  209.8550  152.4570 C   0  0  0  0  0  2  0  0  0  0  0  0
  160.9640  210.2010  150.4100 N   0  0  0  0  0  0  0  0  0  0  0  0
  159.3330  213.5990  152.4090 N   0  0  0  0  0  2  0  0  0  0  0  0
  162.3510  208.6800  151.6120 C   0  0  2  0  0  3  0  0  0  0  0  0
  161.5650  208.8700  150.3500 C   0  0  0  0  0  2  0  0  0  0  0  0
  161.1560  213.2040  148.0060 C   0  0  0  0  0  3  0  0  0  0  0  0
  162.2120  212.8400  147.2660 C   0  0  0  0  0  0  0  0  0  0  0  0
  161.4110  210.8720  151.5630 N   0  0  1  0  0  0  0  0  0  0  0  0
  159.4890  212.9490  153.7060 C   0  0  0  0  0  2  0  0  0  0  0  0
  161.9390  207.4420  152.2780 C   0  0  0  0  0  0  0  0  0  0  0  0
  161.5890  206.4150  152.8060 C   0  0  0  0  0  0  0  0  0  0  0  0
  161.1290  205.1680  153.4130 C   0  0  0  0  0  2  0  0  0  0  0  0
  160.4820  204.2810  152.3610 C   0  0  0  0  0  2  0  0  0  0  0  0
  161.4930  203.8660  151.2860 C   0  0  1  0  0  3  0  0  0  0  0  0
  161.8360  202.5290  151.4800 O   0  0  0  0  0  1  0  0  0  0  0  0
  161.1120  202.8860  147.5780 C   0  0  0  0  0  0  0  0  0  0  0  0
  160.0810  201.8900  149.4710 O   0  0  0  0  0  1  0  0  0  0  0  0
  161.2560  205.3550  147.7260 C   0  0  0  0  0  2  0  0  0  0  0  0
  161.8170  205.1530  149.1310 C   0  0  0  0  0  2  0  0  0  0  0  0
  161.0440  201.7430  146.8040 O   0  0  0  0  0  1  0  0  0  0  0  0
  161.1090  202.7500  149.0850 C   0  0  2  0  0  3  0  0  0  0  0  0
  161.0010  204.0790  149.8490 C   0  0  1  0  0  3  0  0  0  0  0  0
  161.2210  204.0650  146.9700 C   0  0  0  0  0  3  0  0  0  0  0  0
  162.5570  213.6470  146.1410 N   0  0  0  0  0  2  0  0  0  0  0  0
  161.6210  214.4530  145.4750 N   0  0  0  0  0  0  0  0  0  0  0  0
  161.1620  214.1150  144.3090 C   0  0  0  0  0  3  0  0  0  0  0  0
  160.7480  212.0310  141.8340 C   0  0  1  0  0  0  0  0  0  0  0  0
  161.6090  212.8490  143.6380 C   0  0  1  0  0  3  0  0  0  0  0  0
  161.6000  214.2710  141.5570 O   0  0  0  0  0  1  0  0  0  0  0  0
  162.1470  211.8130  141.2770 C   0  0  2  0  0  3  0  0  0  0  0  0
  160.4460  211.9400  143.3270 C   0  0  0  0  0  2  0  0  0  0  0  0
  161.8900  213.0300  142.1480 C   0  0  2  0  0  0  0  0  0  0  0  0
  159.7550  212.6210  141.0400 O   0  0  0  0  0  1  0  0  0  0  0  0
  162.4680  212.2010  139.8210 C   0  0  2  0  0  0  0  0  0  0  0  0
  162.3300  211.1380  138.8120 C   0  0  0  0  0  2  0  0  0  0  0  0
  163.6040  213.1670  139.5510 C   0  0  0  0  0  1  0  0  0  0  0  0
  161.4450  212.2270  138.8730 O   0  0  0  0  0  0  0  0  0  0  0  0
  1  5  1  0  0  0  0
  2  3  1  1  0  0  0
  3 17  1  0  0  0  0
  4  1  2  0  0  0  0
  5 10  1  0  0  0  0
  7  5  2  0  0  0  0
  7  6  1  0  0  0  0
  8  6  1  1  0  0  0
  8  2  1  0  0  0  0
  8 11  1  0  0  0  0
 10 16  1  0  0  0  0
 11 17  1  0  0  0  0
 12 18  1  1  0  0  0
 12  9  1  0  0  0  0
 13 10  1  0  0  0  0
 13 12  1  0  0  0  0
 14  7  1  0  0  0  0
 15  4  1  0  0  0  0
 15 14  2  0  0  0  0
 16  2  1  0  0  0  0
 16  9  1  1  0  0  0
 18 19  3  0  0  0  0
 19 20  1  0  0  0  0
 21 20  1  0  0  0  0
 22 23  1  6  0  0  0
 22 21  1  0  0  0  0
 24 29  1  0  0  0  0
 26 27  1  0  0  0  0
 27 30  1  0  0  0  0
 28 24  1  0  0  0  0
 29 25  1  6  0  0  0
 29 30  1  0  0  0  0
 30 22  1  1  0  0  0
 31 24  2  0  0  0  0
 31 26  1  0  0  0  0
 32 15  1  0  0  0  0
 33 32  1  0  0  0  0
 34 33  2  0  0  0  0
 35 41  1  6  0  0  0
 35 40  1  0  0  0  0
 35 39  1  0  0  0  0
 36 34  1  6  0  0  0
 38 42  1  6  0  0  0
 38 35  1  0  0  0  0
 38 40  1  0  0  0  0
 39 36  1  0  0  0  0
 40 37  1  6  0  0  0
 40 36  1  0  0  0  0
 42 44  1  6  0  0  0
 43 45  1  0  0  0  0
 43 42  1  0  0  0  0
 45 42  1  0  0  0  0
M  END
>  <MODEL>
6

>  <REMARK>
 VINA RESULT:      -6.9      4.762      9.464
  Name = 
  9 active torsions:
  status: ('A' for Active; 'I' for Inactive)
    1  A    between atoms: C_1  and  C_36
    2  A    between atoms: C_1  and  C_39
    3  A    between atoms: C_2  and  C_39
    4  A    between atoms: C_2  and  C_45
    5  A    between atoms: C_7  and  C_24
    6  A    between atoms: C_13  and  C_16
    7  A    between atoms: N_22  and  N_44
    8  A    between atoms: C_29  and  C_43
    9  A    between atoms: C_35  and  N_44
                            x       y       z     vdW  Elec       q    Type
                         _______ _______ _______ _____ _____    ______ ____

>  <TORSDO>
F 9

$$$$
=
 OpenBabel11042421383D

 45 52  0  0  1  0  0  0  0  0999 V2000
  161.3240  205.1050  152.9750 C   0  0  0  0  0  3  0  0  0  0  0  0
  161.3360  209.1500  151.4550 C   0  0  1  0  0  3  0  0  0  0  0  0
  162.2160  210.3060  151.3720 N   0  0  0  0  0  2  0  0  0  0  0  0
  161.6270  203.9320  152.4090 C   0  0  0  0  0  3  0  0  0  0  0  0
  160.6270  206.1670  152.1590 C   0  0  0  0  0  0  0  0  0  0  0  0
  161.3020  207.1110  149.8550 C   0  0  0  0  0  2  0  0  0  0  0  0
  161.0040  206.1010  150.6860 C   0  0  0  0  0  0  0  0  0  0  0  0
  161.4260  208.5080  150.1630 N   0  0  2  0  0  0  0  0  0  0  0  0
  161.9620  208.9860  153.7460 C   0  0  0  0  0  2  0  0  0  0  0  0
  160.5170  207.5030  152.7540 N   0  0  0  0  0  0  0  0  0  0  0  0
  161.9660  209.3590  149.1970 N   0  0  0  0  0  2  0  0  0  0  0  0
  161.2770  208.2710  154.8790 C   0  0  2  0  0  3  0  0  0  0  0  0
  160.2420  207.4370  154.1880 C   0  0  0  0  0  2  0  0  0  0  0  0
  161.1480  204.7440  150.1410 C   0  0  0  0  0  3  0  0  0  0  0  0
  161.4050  203.7110  150.9550 C   0  0  0  0  0  0  0  0  0  0  0  0
  161.7020  208.2280  152.5310 N   0  0  1  0  0  0  0  0  0  0  0  0
  162.3170  210.5680  149.9340 C   0  0  0  0  0  2  0  0  0  0  0  0
  160.6300  209.2560  155.7480 C   0  0  0  0  0  0  0  0  0  0  0  0
  160.0770  210.0680  156.4490 C   0  0  0  0  0  0  0  0  0  0  0  0
  159.3800  211.0640  157.2600 C   0  0  0  0  0  2  0  0  0  0  0  0
  160.1530  212.3740  157.2600 C   0  0  0  0  0  2  0  0  0  0  0  0
  159.2730  213.5380  156.7910 C   0  0  1  0  0  3  0  0  0  0  0  0
  160.0410  214.4010  156.0120 O   0  0  0  0  0  1  0  0  0  0  0  0
  156.7870  213.7190  153.8520 C   0  0  0  0  0  0  0  0  0  0  0  0
  159.0170  212.9050  153.8370 O   0  0  0  0  0  1  0  0  0  0  0  0
  155.5350  213.1120  155.9020 C   0  0  0  0  0  2  0  0  0  0  0  0
  156.7450  213.6110  156.6870 C   0  0  0  0  0  2  0  0  0  0  0  0
  156.7820  214.0470  152.5100 O   0  0  0  0  0  1  0  0  0  0  0  0
  158.1090  213.6540  154.5850 C   0  0  2  0  0  3  0  0  0  0  0  0
  158.0220  213.1040  156.0170 C   0  0  1  0  0  3  0  0  0  0  0  0
  155.6220  213.5140  154.4640 C   0  0  0  0  0  3  0  0  0  0  0  0
  161.5790  202.4210  150.3710 N   0  0  0  0  0  2  0  0  0  0  0  0
  160.4960  201.6230  149.9690 N   0  0  0  0  0  0  0  0  0  0  0  0
  160.3830  201.2250  148.7380 C   0  0  0  0  0  3  0  0  0  0  0  0
  160.9620  202.3300  145.7240 C   0  0  1  0  0  0  0  0  0  0  0  0
  161.4070  201.5990  147.7070 C   0  0  1  0  0  3  0  0  0  0  0  0
  160.0190  203.6890  147.4800 O   0  0  0  0  0  1  0  0  0  0  0  0
  161.9920  203.4340  145.9110 C   0  0  2  0  0  3  0  0  0  0  0  0
  161.1170  200.9580  146.3730 C   0  0  0  0  0  2  0  0  0  0  0  0
  161.1770  202.9850  147.1120 C   0  0  2  0  0  0  0  0  0  0  0  0
  159.6920  202.6270  145.2090 O   0  0  0  0  0  1  0  0  0  0  0  0
  161.6590  204.8790  145.4930 C   0  0  2  0  0  0  0  0  0  0  0  0
  161.7200  205.1780  144.0530 C   0  0  0  0  0  2  0  0  0  0  0  0
  162.1060  206.0230  146.3820 C   0  0  0  0  0  1  0  0  0  0  0  0
  160.5030  205.1350  144.7550 O   0  0  0  0  0  0  0  0  0  0  0  0
  2  3  1  6  0  0  0
  2 16  1  0  0  0  0
  4  1  1  0  0  0  0
  5 10  1  0  0  0  0
  5  1  2  0  0  0  0
  6  7  1  0  0  0  0
  7  5  1  0  0  0  0
  8  6  1  1  0  0  0
  8  2  1  0  0  0  0
  9 12  1  0  0  0  0
 10 13  1  0  0  0  0
 11 17  1  0  0  0  0
 11  8  1  0  0  0  0
 12 18  1  1  0  0  0
 13 12  1  0  0  0  0
 14  7  2  0  0  0  0
 14 15  1  0  0  0  0
 15  4  2  0  0  0  0
 16 10  1  0  0  0  0
 16  9  1  1  0  0  0
 17  3  1  0  0  0  0
 18 19  3  0  0  0  0
 19 20  1  0  0  0  0
 21 20  1  0  0  0  0
 22 23  1  6  0  0  0
 22 21  1  0  0  0  0
 24 31  2  0  0  0  0
 24 29  1  0  0  0  0
 26 27  1  0  0  0  0
 28 24  1  0  0  0  0
 29 25  1  6  0  0  0
 29 30  1  0  0  0  0
 30 27  1  0  0  0  0
 30 22  1  1  0  0  0
 31 26  1  0  0  0  0
 32 15  1  0  0  0  0
 33 32  1  0  0  0  0
 34 33  2  0  0  0  0
 35 41  1  6  0  0  0
 35 38  1  0  0  0  0
 35 39  1  0  0  0  0
 35 40  1  0  0  0  0
 36 34  1  1  0  0  0
 38 42  1  6  0  0  0
 38 40  1  0  0  0  0
 39 36  1  0  0  0  0
 40 37  1  1  0  0  0
 40 36  1  0  0  0  0
 42 44  1  1  0  0  0
 43 45  1  0  0  0  0
 43 42  1  0  0  0  0
 45 42  1  0  0  0  0
M  END
>  <MODEL>
7

>  <REMARK>
 VINA RESULT:      -6.3      1.782     10.848
  Name = 
  9 active torsions:
  status: ('A' for Active; 'I' for Inactive)
    1  A    between atoms: C_1  and  C_36
    2  A    between atoms: C_1  and  C_39
    3  A    between atoms: C_2  and  C_39
    4  A    between atoms: C_2  and  C_45
    5  A    between atoms: C_7  and  C_24
    6  A    between atoms: C_13  and  C_16
    7  A    between atoms: N_22  and  N_44
    8  A    between atoms: C_29  and  C_43
    9  A    between atoms: C_35  and  N_44
                            x       y       z     vdW  Elec       q    Type
                         _______ _______ _______ _____ _____    ______ ____

>  <TORSDO>
F 9

$$$$
=
 OpenBabel11042421383D

 45 52  0  0  1  0  0  0  0  0999 V2000
  161.4160  205.8830  149.8950 C   0  0  0  0  0  3  0  0  0  0  0  0
  161.5550  208.9540  152.9320 C   0  0  1  0  0  3  0  0  0  0  0  0
  160.7080  209.9860  153.5120 N   0  0  0  0  0  2  0  0  0  0  0  0
  161.0990  204.5850  149.9450 C   0  0  0  0  0  3  0  0  0  0  0  0
  162.1640  206.5110  151.0470 C   0  0  0  0  0  0  0  0  0  0  0  0
  161.5820  206.4400  153.5590 C   0  0  0  0  0  2  0  0  0  0  0  0
  161.8290  205.8540  152.3770 C   0  0  0  0  0  0  0  0  0  0  0  0
  161.4850  207.8420  153.8520 N   0  0  2  0  0  0  0  0  0  0  0  0
  160.8580  209.7480  150.7980 C   0  0  0  0  0  2  0  0  0  0  0  0
  162.2910  207.9720  151.0440 N   0  0  0  0  0  0  0  0  0  0  0  0
  160.9970  208.2310  155.1010 N   0  0  0  0  0  2  0  0  0  0  0  0
  161.4900  209.5500  149.4480 C   0  0  2  0  0  3  0  0  0  0  0  0
  162.5230  208.4940  149.6980 C   0  0  0  0  0  2  0  0  0  0  0  0
  161.6660  204.3940  152.3270 C   0  0  0  0  0  3  0  0  0  0  0  0
  161.3570  203.7870  151.1730 C   0  0  0  0  0  0  0  0  0  0  0  0
  161.1330  208.5570  151.5870 N   0  0  1  0  0  0  0  0  0  0  0  0
  160.6560  209.6400  154.9340 C   0  0  0  0  0  2  0  0  0  0  0  0
  162.1380  210.7960  149.0320 C   0  0  0  0  0  0  0  0  0  0  0  0
  162.6720  211.8150  148.6670 C   0  0  0  0  0  0  0  0  0  0  0  0
  163.3380  213.0250  148.1870 C   0  0  0  0  0  2  0  0  0  0  0  0
  162.3240  213.9640  147.5530 C   0  0  0  0  0  2  0  0  0  0  0  0
  161.3280  213.1960  146.6780 C   0  0  1  0  0  3  0  0  0  0  0  0
  160.0320  213.5260  147.0710 O   0  0  0  0  0  1  0  0  0  0  0  0
  161.0810  212.2070  142.9610 C   0  0  0  0  0  0  0  0  0  0  0  0
  159.3150  212.7350  144.4570 O   0  0  0  0  0  1  0  0  0  0  0  0
  163.0810  213.6380  143.2610 C   0  0  0  0  0  2  0  0  0  0  0  0
  162.9650  213.3410  144.7530 C   0  0  0  0  0  2  0  0  0  0  0  0
  160.2970  211.4160  142.1430 O   0  0  0  0  0  1  0  0  0  0  0  0
  160.6680  212.4030  144.4030 C   0  0  2  0  0  3  0  0  0  0  0  0
  161.4990  213.4410  145.1730 C   0  0  1  0  0  3  0  0  0  0  0  0
  162.1970  212.7350  142.4610 C   0  0  0  0  0  3  0  0  0  0  0  0
  161.1680  202.3730  151.1860 N   0  0  0  0  0  2  0  0  0  0  0  0
  160.0300  201.7590  150.6390 N   0  0  0  0  0  0  0  0  0  0  0  0
  160.0290  201.3290  149.4140 C   0  0  0  0  0  3  0  0  0  0  0  0
  161.2150  201.6880  146.3960 C   0  0  1  0  0  0  0  0  0  0  0  0
  161.2450  201.4670  148.5440 C   0  0  1  0  0  3  0  0  0  0  0  0
  159.9800  203.4080  147.5520 O   0  0  0  0  0  1  0  0  0  0  0  0
  162.2150  202.8280  146.5090 C   0  0  2  0  0  3  0  0  0  0  0  0
  161.2060  200.5160  147.3740 C   0  0  0  0  0  2  0  0  0  0  0  0
  161.1710  202.6630  147.5990 C   0  0  2  0  0  0  0  0  0  0  0  0
  160.0780  201.8210  145.5860 O   0  0  0  0  0  1  0  0  0  0  0  0
  162.0060  204.1220  145.6980 C   0  0  2  0  0  0  0  0  0  0  0  0
  162.3170  205.3850  146.3860 C   0  0  0  0  0  2  0  0  0  0  0  0
  160.8320  204.2090  144.7430 C   0  0  0  0  0  1  0  0  0  0  0  0
  163.1100  204.8940  145.3350 O   0  0  0  0  0  0  0  0  0  0  0  0
  1  4  2  0  0  0  0
  1  5  1  0  0  0  0
  2  3  1  1  0  0  0
  2  8  1  0  0  0  0
  3 17  1  0  0  0  0
  4 15  1  0  0  0  0
  5  7  2  0  0  0  0
  7  6  1  0  0  0  0
  8  6  1  6  0  0  0
  8 11  1  0  0  0  0
 10  5  1  0  0  0  0
 10 16  1  0  0  0  0
 12 18  1  1  0  0  0
 12 13  1  0  0  0  0
 12  9  1  0  0  0  0
 13 10  1  0  0  0  0
 14  7  1  0  0  0  0
 15 32  1  0  0  0  0
 15 14  2  0  0  0  0
 16  9  1  6  0  0  0
 16  2  1  0  0  0  0
 17 11  1  0  0  0  0
 19 18  3  0  0  0  0
 20 19  1  0  0  0  0
 21 20  1  0  0  0  0
 22 23  1  1  0  0  0
 22 21  1  0  0  0  0
 24 29  1  0  0  0  0
 26 27  1  0  0  0  0
 27 30  1  0  0  0  0
 28 24  1  0  0  0  0
 29 25  1  6  0  0  0
 29 30  1  0  0  0  0
 30 22  1  1  0  0  0
 31 24  2  0  0  0  0
 31 26  1  0  0  0  0
 33 32  1  0  0  0  0
 34 33  2  0  0  0  0
 35 41  1  6  0  0  0
 35 38  1  0  0  0  0
 35 39  1  0  0  0  0
 35 40  1  0  0  0  0
 36 34  1  1  0  0  0
 38 42  1  6  0  0  0
 38 40  1  0  0  0  0
 39 36  1  0  0  0  0
 40 37  1  1  0  0  0
 40 36  1  0  0  0  0
 42 44  1  6  0  0  0
 42 43  1  0  0  0  0
 45 42  1  0  0  0  0
 45 43  1  0  0  0  0
M  END
>  <MODEL>
8

>  <REMARK>
 VINA RESULT:      -6.2      3.587      9.626
  Name = 
  9 active torsions:
  status: ('A' for Active; 'I' for Inactive)
    1  A    between atoms: C_1  and  C_36
    2  A    between atoms: C_1  and  C_39
    3  A    between atoms: C_2  and  C_39
    4  A    between atoms: C_2  and  C_45
    5  A    between atoms: C_7  and  C_24
    6  A    between atoms: C_13  and  C_16
    7  A    between atoms: N_22  and  N_44
    8  A    between atoms: C_29  and  C_43
    9  A    between atoms: C_35  and  N_44
                            x       y       z     vdW  Elec       q    Type
                         _______ _______ _______ _____ _____    ______ ____

>  <TORSDO>
F 9

$$$$
=
 OpenBabel11042421383D

 45 52  0  0  1  0  0  0  0  0999 V2000
  162.3710  209.8110  149.2290 C   0  0  0  0  0  3  0  0  0  0  0  0
  160.8000  209.1650  153.2020 C   0  0  1  0  0  3  0  0  0  0  0  0
  161.2670  208.9180  154.5590 N   0  0  0  0  0  2  0  0  0  0  0  0
  162.6810  210.9240  148.5570 C   0  0  0  0  0  3  0  0  0  0  0  0
  161.1710  209.8050  150.1450 C   0  0  0  0  0  0  0  0  0  0  0  0
  160.5920  211.4670  152.0310 C   0  0  0  0  0  2  0  0  0  0  0  0
  160.9100  211.1710  150.7620 C   0  0  0  0  0  0  0  0  0  0  0  0
  160.4980  210.5770  153.1540 N   0  0  2  0  0  0  0  0  0  0  0  0
  162.3350  207.4870  152.4950 C   0  0  0  0  0  2  0  0  0  0  0  0
  161.0040  208.6410  151.0220 N   0  0  0  0  0  0  0  0  0  0  0  0
  160.3730  211.1260  154.4320 N   0  0  0  0  0  2  0  0  0  0  0  0
  162.3680  206.6960  151.2160 C   0  0  2  0  0  3  0  0  0  0  0  0
  161.3690  207.3970  150.3470 C   0  0  0  0  0  2  0  0  0  0  0  0
  161.1330  212.3120  149.8620 C   0  0  0  0  0  3  0  0  0  0  0  0
  161.9390  212.1900  148.7990 C   0  0  0  0  0  0  0  0  0  0  0  0
  161.7830  208.7970  152.1830 N   0  0  1  0  0  0  0  0  0  0  0  0
  160.7010  210.0250  155.3320 C   0  0  0  0  0  2  0  0  0  0  0  0
  161.9240  205.3260  151.4860 C   0  0  0  0  0  0  0  0  0  0  0  0
  161.5380  204.2070  151.7190 C   0  0  0  0  0  0  0  0  0  0  0  0
  161.0420  202.8690  152.0360 C   0  0  0  0  0  2  0  0  0  0  0  0
  160.3330  202.2730  150.8300 C   0  0  0  0  0  2  0  0  0  0  0  0
  161.3060  202.0550  149.6660 C   0  0  1  0  0  3  0  0  0  0  0  0
  161.3640  200.6940  149.3730 O   0  0  0  0  0  1  0  0  0  0  0  0
  160.8100  202.4720  145.8660 C   0  0  0  0  0  0  0  0  0  0  0  0
  159.4580  201.2620  147.3970 O   0  0  0  0  0  1  0  0  0  0  0  0
  161.6580  204.6110  146.7860 C   0  0  0  0  0  2  0  0  0  0  0  0
  162.0780  203.8160  148.0190 C   0  0  0  0  0  2  0  0  0  0  0  0
  160.4460  201.7100  144.7730 O   0  0  0  0  0  1  0  0  0  0  0  0
  160.7060  201.8670  147.2490 C   0  0  2  0  0  3  0  0  0  0  0  0
  160.9570  202.8510  148.4020 C   0  0  1  0  0  3  0  0  0  0  0  0
  161.2820  203.7000  145.6610 C   0  0  0  0  0  3  0  0  0  0  0  0
  162.1550  213.3390  147.9820 N   0  0  0  0  0  2  0  0  0  0  0  0
  161.1000  214.1150  147.4770 N   0  0  0  0  0  0  0  0  0  0  0  0
  160.6220  213.8970  146.2890 C   0  0  0  0  0  3  0  0  0  0  0  0
  160.2480  212.0680  143.6140 C   0  0  1  0  0  0  0  0  0  0  0  0
  161.1750  212.8040  145.4210 C   0  0  1  0  0  3  0  0  0  0  0  0
  160.7220  214.4330  143.5530 O   0  0  0  0  0  1  0  0  0  0  0  0
  161.5930  212.1430  142.9060 C   0  0  2  0  0  3  0  0  0  0  0  0
  160.1320  211.7610  145.1050 C   0  0  0  0  0  2  0  0  0  0  0  0
  161.2570  213.1960  143.9480 C   0  0  2  0  0  0  0  0  0  0  0  0
  159.0960  212.5770  142.9990 O   0  0  0  0  0  1  0  0  0  0  0  0
  161.6870  212.7410  141.4900 C   0  0  2  0  0  0  0  0  0  0  0  0
  161.6960  211.7830  140.3720 C   0  0  0  0  0  2  0  0  0  0  0  0
  162.5540  213.9640  141.2640 C   0  0  0  0  0  1  0  0  0  0  0  0
  160.6020  212.6290  140.6210 O   0  0  0  0  0  0  0  0  0  0  0  0
  1  5  1  0  0  0  0
  2  3  1  1  0  0  0
  3 17  1  0  0  0  0
  4 15  1  0  0  0  0
  4  1  2  0  0  0  0
  5  7  2  0  0  0  0
  5 10  1  0  0  0  0
  7  6  1  0  0  0  0
  8  6  1  1  0  0  0
  8  2  1  0  0  0  0
  8 11  1  0  0  0  0
 10 16  1  0  0  0  0
 11 17  1  0  0  0  0
 12 18  1  1  0  0  0
 12  9  1  0  0  0  0
 13 10  1  0  0  0  0
 13 12  1  0  0  0  0
 14  7  1  0  0  0  0
 15 14  2  0  0  0  0
 16  9  1  1  0  0  0
 16  2  1  0  0  0  0
 18 19  3  0  0  0  0
 19 20  1  0  0  0  0
 21 20  1  0  0  0  0
 22 23  1  6  0  0  0
 22 21  1  0  0  0  0
 24 29  1  0  0  0  0
 26 27  1  0  0  0  0
 27 30  1  0  0  0  0
 28 24  1  0  0  0  0
 29 25  1  1  0  0  0
 29 30  1  0  0  0  0
 30 22  1  1  0  0  0
 31 24  2  0  0  0  0
 31 26  1  0  0  0  0
 32 15  1  0  0  0  0
 33 32  1  0  0  0  0
 34 33  2  0  0  0  0
 35 41  1  6  0  0  0
 35 40  1  0  0  0  0
 35 39  1  0  0  0  0
 36 34  1  1  0  0  0
 38 42  1  6  0  0  0
 38 35  1  0  0  0  0
 38 40  1  0  0  0  0
 39 36  1  0  0  0  0
 40 37  1  6  0  0  0
 40 36  1  0  0  0  0
 42 44  1  6  0  0  0
 43 45  1  0  0  0  0
 43 42  1  0  0  0  0
 45 42  1  0  0  0  0
M  END
>  <MODEL>
9

>  <REMARK>
 VINA RESULT:      -6.1      4.167      8.038
  Name = 
  9 active torsions:
  status: ('A' for Active; 'I' for Inactive)
    1  A    between atoms: C_1  and  C_36
    2  A    between atoms: C_1  and  C_39
    3  A    between atoms: C_2  and  C_39
    4  A    between atoms: C_2  and  C_45
    5  A    between atoms: C_7  and  C_24
    6  A    between atoms: C_13  and  C_16
    7  A    between atoms: N_22  and  N_44
    8  A    between atoms: C_29  and  C_43
    9  A    between atoms: C_35  and  N_44
                            x       y       z     vdW  Elec       q    Type
                         _______ _______ _______ _____ _____    ______ ____

>  <TORSDO>
F 9

$$$$
