=
 OpenBabel11052411583D

 63 68  0  0  1  0  0  0  0  0999 V2000
  160.7930  206.2110  148.7880 C   0  0  2  0  0  3  0  0  0  0  0  0
  161.2590  207.2000  151.0370 C   0  0  0  0  0  3  0  0  0  0  0  0
  162.0060  209.4890  151.2920 C   0  0  0  0  0  3  0  0  0  0  0  0
  161.5450  208.6070  149.0890 C   0  0  0  0  0  3  0  0  0  0  0  0
  161.9440  209.6740  149.9090 C   0  0  0  0  0  0  0  0  0  0  0  0
  161.6590  208.2580  151.8600 C   0  0  0  0  0  0  0  0  0  0  0  0
  161.1980  207.3700  149.6510 C   0  0  0  0  0  0  0  0  0  0  0  0
  162.3150  210.9800  149.3490 C   0  0  0  0  0  3  0  0  0  0  0  0
  161.8930  211.3990  148.1610 C   0  0  0  0  0  2  0  0  0  0  0  0
  161.7640  208.0690  153.3380 C   0  0  0  0  0  2  0  0  0  0  0  0
  160.3960  208.1480  154.0070 C   0  0  0  0  0  2  0  0  0  0  0  0
  160.4090  209.1370  155.0740 N   0  0  0  0  0  2  0  0  0  0  0  0
  159.8830  210.3810  154.5360 C   0  0  1  0  0  3  0  0  0  0  0  0
  158.5570  213.2130  156.3460 C   0  0  0  0  0  2  0  0  0  0  0  0
  158.4550  210.6060  155.0390 C   0  0  0  0  0  2  0  0  0  0  0  0
  158.1180  213.1570  154.8710 C   0  0  2  0  0  3  0  0  0  0  0  0
  160.7360  211.8920  156.3830 C   0  0  0  0  0  2  0  0  0  0  0  0
  157.7530  211.7610  154.3250 C   0  0  2  0  0  3  0  0  0  0  0  0
  160.8230  211.5280  154.9050 C   0  0  0  0  0  2  0  0  0  0  0  0
  160.0760  213.2540  156.5580 C   0  0  0  0  0  2  0  0  0  0  0  0
  159.0020  213.9650  153.9220 C   0  0  0  0  0  2  0  0  0  0  0  0
  159.6800  212.9900  151.6940 N   0  0  0  0  0  1  0  0  0  0  0  0
  158.7010  213.6390  152.5000 C   0  0  0  0  0  0  0  0  0  0  0  0
  157.5790  213.9300  152.0100 O   0  0  0  0  0  0  0  0  0  0  0  0
  156.2490  211.5480  154.4290 C   0  0  0  0  0  2  0  0  0  0  0  0
  155.4660  211.6460  156.7930 C   0  0  0  0  0  1  0  0  0  0  0  0
  154.8360  209.8690  155.3480 O   0  0  0  0  0  1  0  0  0  0  0  0
  155.8870  210.7300  155.6590 C   0  0  1  0  0  3  0  0  0  0  0  0
  160.8060  203.7120  148.8520 C   0  0  1  0  0  3  0  0  0  0  0  0
  161.0060  204.1380  150.2930 C   0  0  2  0  0  3  0  0  0  0  0  0
  159.8140  204.6790  150.7830 O   0  0  0  0  0  1  0  0  0  0  0  0
  161.6030  204.9660  149.1520 C   0  0  2  0  0  3  0  0  0  0  0  0
  161.2060  201.3520  148.9180 O   0  0  0  0  0  0  0  0  0  0  0  0
  161.2780  201.5760  147.5290 C   0  0  2  0  0  3  0  0  0  0  0  0
  161.7720  202.5800  148.5210 C   0  0  1  0  0  3  0  0  0  0  0  0
  159.8750  201.8170  146.9830 C   0  0  0  0  0  2  0  0  0  0  0  0
  160.6970  202.6540  144.9160 O   0  0  0  0  0  1  0  0  0  0  0  0
  159.8870  201.6700  145.4750 C   0  0  0  0  0  2  0  0  0  0  0  0
  160.9660  206.5240  147.3020 C   0  0  0  0  0  2  0  0  0  0  0  0
  162.1920  205.8710  146.7420 C   0  0  0  0  0  0  0  0  0  0  0  0
  161.3190  205.8250  144.3520 C   0  0  0  0  0  0  0  0  0  0  0  0
  163.1600  205.6470  147.5180 O   0  0  0  0  0  0  0  0  0  0  0  0
  163.3920  204.7860  144.9740 O   0  0  0  0  0  1  0  0  0  0  0  0
  162.2940  205.4830  145.3570 N   0  0  0  0  0  0  0  0  0  0  0  0
  160.2760  206.4670  144.6430 O   0  0  0  0  0  0  0  0  0  0  0  0
  161.5410  205.4260  142.9300 C   0  0  0  0  0  2  0  0  0  0  0  0
  161.4450  206.5970  142.0750 N   0  0  0  0  0  2  0  0  0  0  0  0
  162.5180  206.5040  141.1010 C   0  0  0  0  0  2  0  0  0  0  0  0
  162.0090  206.9800  139.7530 C   0  0  0  0  0  2  0  0  0  0  0  0
  160.5040  208.6300  138.6910 C   0  0  0  0  0  2  0  0  0  0  0  0
  159.9070  211.0790  138.3700 N   0  0  2  0  0  0  0  0  0  0  0  0
  161.9680  211.6580  139.6220 C   0  0  1  0  0  3  0  0  0  0  0  0
  159.3690  211.1110  137.0110 C   0  0  0  0  0  2  0  0  0  0  0  0
  157.8370  211.1620  137.0380 C   0  0  0  0  0  2  0  0  0  0  0  0
  161.3490  211.3040  138.2680 C   0  0  0  0  0  2  0  0  0  0  0  0
  158.1080  209.3570  138.7690 C   0  0  0  0  0  2  0  0  0  0  0  0
  162.5350  209.3160  139.7970 O   0  0  0  0  0  0  0  0  0  0  0  0
  161.4750  208.3980  139.8470 C   0  0  2  0  0  3  0  0  0  0  0  0
  159.5610  209.7890  139.0260 C   0  0  1  0  0  3  0  0  0  0  0  0
  162.0960  210.4300  140.5260 C   0  0  0  0  0  2  0  0  0  0  0  0
  157.2540  210.5330  138.3070 C   0  0  0  0  0  2  0  0  0  0  0  0
  163.3180  212.2740  139.4250 C   0  0  0  0  0  3  0  0  0  0  0  0
  163.6680  212.6600  138.3230 O   0  0  0  0  0  0  0  0  0  0  0  0
  1 39  1  6  0  0  0
  1  7  1  0  0  0  0
  2  6  1  0  0  0  0
  3  6  2  0  0  0  0
  4  7  1  0  0  0  0
  4  5  2  0  0  0  0
  5  3  1  0  0  0  0
  6 10  1  0  0  0  0
  7  2  2  0  0  0  0
  8  5  1  0  0  0  0
  9  8  2  0  0  0  0
 10 11  1  0  0  0  0
 11 12  1  0  0  0  0
 13 19  1  0  0  0  0
 13 15  1  0  0  0  0
 13 12  1  1  0  0  0
 14 20  1  0  0  0  0
 16 21  1  6  0  0  0
 16 14  1  0  0  0  0
 17 20  1  0  0  0  0
 18 25  1  1  0  0  0
 18 16  1  0  0  0  0
 18 15  1  0  0  0  0
 19 17  1  0  0  0  0
 22 23  1  0  0  0  0
 23 21  1  0  0  0  0
 24 23  2  0  0  0  0
 25 28  1  0  0  0  0
 27 28  1  0  0  0  0
 28 26  1  1  0  0  0
 29 35  1  1  0  0  0
 29 32  1  0  0  0  0
 29 30  1  0  0  0  0
 30 31  1  6  0  0  0
 32  1  1  6  0  0  0
 32 30  1  0  0  0  0
 34 36  1  1  0  0  0
 34 35  1  0  0  0  0
 34 33  1  0  0  0  0
 35 33  1  1  0  0  0
 37 38  1  0  0  0  0
 38 36  1  0  0  0  0
 40 39  1  0  0  0  0
 40 42  2  0  0  0  0
 41 45  2  0  0  0  0
 41 44  1  0  0  0  0
 43 44  1  0  0  0  0
 44 40  1  0  0  0  0
 46 41  1  0  0  0  0
 47 46  1  0  0  0  0
 48 47  1  0  0  0  0
 49 48  1  0  0  0  0
 50 58  1  0  0  0  0
 51 53  1  6  0  0  0
 51 59  1  0  0  0  0
 52 62  1  6  0  0  0
 52 60  1  0  0  0  0
 53 54  1  0  0  0  0
 54 61  1  0  0  0  0
 55 51  1  0  0  0  0
 55 52  1  0  0  0  0
 56 59  1  0  0  0  0
 57 58  1  0  0  0  0
 57 60  1  0  0  0  0
 58 49  1  6  0  0  0
 59 50  1  6  0  0  0
 61 56  1  0  0  0  0
 63 62  2  0  0  0  0
M  END
>  <MODEL>
1

>  <REMARK>
 VINA RESULT:      -5.6      0.000      0.000
  Name = 
  22 active torsions:
  status: ('A' for Active; 'I' for Inactive)
    1  A    between atoms: C_1  and  C_50
    2  A    between atoms: C_2  and  N_8
    3  A    between atoms: C_4  and  C_17
    4  A    between atoms: C_4  and  C_54
    5  A    between atoms: C_6  and  C_43
    6  A    between atoms: C_7  and  C_31
    7  A    between atoms: N_8  and  C_59
    8  A    between atoms: C_12  and  C_48
    9  A    between atoms: C_14  and  C_46
   10  A    between atoms: C_14  and  C_61
   11  A    between atoms: C_16  and  C_40
   12  A    between atoms: C_19  and  C_42
   13  A    between atoms: C_24  and  C_27
   14  A    between atoms: C_24  and  C_38
   15  A    between atoms: C_27  and  N_53
   16  A    between atoms: C_33  and  C_51
   17  A    between atoms: C_33  and  C_59
   18  A    between atoms: C_35  and  C_42
   19  A    between atoms: C_43  and  N_53
   20  A    between atoms: C_50  and  C_60
   21  A    between atoms: C_55  and  C_60
   22  A    between atoms: C_58  and  C_60
                            x       y       z     vdW  Elec       q    Type
                         _______ _______ _______ _____ _____    ______ ____

>  <TORSDO>
F 22

$$$$
=
 OpenBabel11052411583D

 63 68  0  0  1  0  0  0  0  0999 V2000
  160.5120  212.5030  152.2050 C   0  0  2  0  0  3  0  0  0  0  0  0
  160.4040  210.0200  152.4770 C   0  0  0  0  0  3  0  0  0  0  0  0
  160.9340  208.9440  154.5810 C   0  0  0  0  0  3  0  0  0  0  0  0
  161.0310  211.3530  154.3970 C   0  0  0  0  0  3  0  0  0  0  0  0
  161.1710  210.1900  155.1690 C   0  0  0  0  0  0  0  0  0  0  0  0
  160.5460  208.8550  153.2410 C   0  0  0  0  0  0  0  0  0  0  0  0
  160.6430  211.2710  153.0520 C   0  0  0  0  0  0  0  0  0  0  0  0
  161.5760  210.2440  156.5790 C   0  0  0  0  0  3  0  0  0  0  0  0
  162.8480  210.2300  156.9630 C   0  0  0  0  0  2  0  0  0  0  0  0
  160.3300  207.5140  152.6200 C   0  0  0  0  0  2  0  0  0  0  0  0
  161.4210  206.5300  153.0260 C   0  0  0  0  0  2  0  0  0  0  0  0
  162.6570  206.8190  152.3130 N   0  0  0  0  0  2  0  0  0  0  0  0
  162.6330  206.0760  151.0620 C   0  0  1  0  0  3  0  0  0  0  0  0
  160.3240  206.4220  148.3050 C   0  0  0  0  0  2  0  0  0  0  0  0
  161.2670  205.4120  150.8750 C   0  0  0  0  0  2  0  0  0  0  0  0
  161.0700  205.0750  148.3270 C   0  0  2  0  0  3  0  0  0  0  0  0
  161.8650  207.9910  149.5910 C   0  0  0  0  0  2  0  0  0  0  0  0
  161.2480  204.4200  149.7120 C   0  0  2  0  0  3  0  0  0  0  0  0
  162.9920  207.0150  149.9120 C   0  0  0  0  0  2  0  0  0  0  0  0
  161.2360  207.6530  148.2460 C   0  0  0  0  0  2  0  0  0  0  0  0
  162.3410  205.0470  147.4780 C   0  0  0  0  0  2  0  0  0  0  0  0
  161.1370  203.9280  145.5630 N   0  0  0  0  0  1  0  0  0  0  0  0
  162.0160  204.9470  146.0280 C   0  0  0  0  0  0  0  0  0  0  0  0
  162.5120  205.7670  145.2130 O   0  0  0  0  0  0  0  0  0  0  0  0
  160.1270  203.4180  149.9520 C   0  0  0  0  0  2  0  0  0  0  0  0
  161.3650  201.2890  150.3320 C   0  0  0  0  0  1  0  0  0  0  0  0
  159.2930  201.3320  149.1720 O   0  0  0  0  0  1  0  0  0  0  0  0
  160.4670  202.0530  149.3770 C   0  0  1  0  0  3  0  0  0  0  0  0
  158.4040  212.7720  153.5220 C   0  0  1  0  0  3  0  0  0  0  0  0
  158.1590  213.5370  152.2360 C   0  0  2  0  0  3  0  0  0  0  0  0
  158.0180  212.6310  151.1810 O   0  0  0  0  0  1  0  0  0  0  0  0
  159.5560  213.5010  152.8600 C   0  0  2  0  0  3  0  0  0  0  0  0
  156.7390  214.2900  154.3320 O   0  0  0  0  0  0  0  0  0  0  0  0
  156.5640  213.2250  155.2380 C   0  0  2  0  0  3  0  0  0  0  0  0
  157.9100  213.6000  154.7030 C   0  0  1  0  0  3  0  0  0  0  0  0
  155.8680  212.0690  154.5300 C   0  0  0  0  0  2  0  0  0  0  0  0
  155.9900  211.2770  156.7670 O   0  0  0  0  0  1  0  0  0  0  0  0
  155.8260  210.8640  155.4480 C   0  0  0  0  0  2  0  0  0  0  0  0
  160.0260  212.1720  150.7940 C   0  0  0  0  0  2  0  0  0  0  0  0
  161.1720  211.9780  149.8490 C   0  0  0  0  0  0  0  0  0  0  0  0
  160.3060  213.6510  148.1390 C   0  0  0  0  0  0  0  0  0  0  0  0
  162.1070  211.2040  150.1910 O   0  0  0  0  0  0  0  0  0  0  0  0
  162.2470  212.2980  147.7320 O   0  0  0  0  0  1  0  0  0  0  0  0
  161.2330  212.6340  148.5670 N   0  0  0  0  0  0  0  0  0  0  0  0
  159.3410  214.0060  148.8670 O   0  0  0  0  0  0  0  0  0  0  0  0
  160.4850  214.3150  146.8140 C   0  0  0  0  0  2  0  0  0  0  0  0
  159.2070  214.3870  146.1280 N   0  0  0  0  0  2  0  0  0  0  0  0
  159.4880  214.4280  144.7030 C   0  0  0  0  0  2  0  0  0  0  0  0
  160.3770  213.2530  144.3380 C   0  0  0  0  0  2  0  0  0  0  0  0
  159.0860  213.0170  142.2420 C   0  0  0  0  0  2  0  0  0  0  0  0
  159.0710  212.2590  139.8170 N   0  0  2  0  0  0  0  0  0  0  0  0
  161.3350  211.3150  140.1870 C   0  0  1  0  0  3  0  0  0  0  0  0
  157.6890  211.8240  139.6170 C   0  0  0  0  0  2  0  0  0  0  0  0
  156.8920  212.8940  138.8620 C   0  0  0  0  0  2  0  0  0  0  0  0
  159.8240  211.0960  140.2900 C   0  0  0  0  0  2  0  0  0  0  0  0
  158.0170  214.4490  140.4860 C   0  0  0  0  0  2  0  0  0  0  0  0
  161.2400  211.9660  142.5120 O   0  0  0  0  0  0  0  0  0  0  0  0
  160.4920  213.1100  142.8310 C   0  0  2  0  0  3  0  0  0  0  0  0
  159.1140  213.4070  140.7610 C   0  0  1  0  0  3  0  0  0  0  0  0
  161.8490  212.2520  141.2820 C   0  0  0  0  0  2  0  0  0  0  0  0
  157.4540  214.3020  139.0770 C   0  0  0  0  0  2  0  0  0  0  0  0
  162.0510  210.0040  140.2780 C   0  0  0  0  0  3  0  0  0  0  0  0
  161.6320  209.0260  139.6830 O   0  0  0  0  0  0  0  0  0  0  0  0
  1 39  1  6  0  0  0
  1  7  1  0  0  0  0
  2  7  2  0  0  0  0
  2  6  1  0  0  0  0
  3  5  1  0  0  0  0
  4  5  2  0  0  0  0
  5  8  1  0  0  0  0
  6  3  2  0  0  0  0
  7  4  1  0  0  0  0
  8  9  2  0  0  0  0
 10 11  1  0  0  0  0
 10  6  1  0  0  0  0
 12 11  1  0  0  0  0
 13 12  1  1  0  0  0
 14 16  1  0  0  0  0
 15 13  1  0  0  0  0
 16 21  1  1  0  0  0
 16 18  1  0  0  0  0
 17 19  1  0  0  0  0
 18 25  1  1  0  0  0
 18 15  1  0  0  0  0
 19 13  1  0  0  0  0
 20 14  1  0  0  0  0
 20 17  1  0  0  0  0
 22 23  1  0  0  0  0
 23 21  1  0  0  0  0
 24 23  2  0  0  0  0
 27 28  1  0  0  0  0
 28 25  1  0  0  0  0
 28 26  1  1  0  0  0
 29 35  1  1  0  0  0
 30 31  1  6  0  0  0
 30 32  1  0  0  0  0
 30 29  1  0  0  0  0
 32  1  1  6  0  0  0
 32 29  1  0  0  0  0
 33 34  1  0  0  0  0
 34 36  1  6  0  0  0
 35 33  1  6  0  0  0
 35 34  1  0  0  0  0
 36 38  1  0  0  0  0
 38 37  1  0  0  0  0
 40 42  2  0  0  0  0
 40 39  1  0  0  0  0
 41 44  1  0  0  0  0
 41 45  2  0  0  0  0
 43 44  1  0  0  0  0
 44 40  1  0  0  0  0
 46 41  1  0  0  0  0
 47 46  1  0  0  0  0
 48 47  1  0  0  0  0
 49 48  1  0  0  0  0
 50 58  1  0  0  0  0
 51 53  1  1  0  0  0
 51 55  1  0  0  0  0
 51 59  1  0  0  0  0
 52 62  1  1  0  0  0
 52 55  1  0  0  0  0
 52 60  1  0  0  0  0
 54 61  1  0  0  0  0
 54 53  1  0  0  0  0
 57 58  1  0  0  0  0
 58 49  1  1  0  0  0
 59 56  1  6  0  0  0
 59 50  1  0  0  0  0
 60 57  1  0  0  0  0
 61 56  1  0  0  0  0
 63 62  2  0  0  0  0
M  END
>  <MODEL>
2

>  <REMARK>
 VINA RESULT:      -5.1      2.619      8.501
  Name = 
  22 active torsions:
  status: ('A' for Active; 'I' for Inactive)
    1  A    between atoms: C_1  and  C_50
    2  A    between atoms: C_2  and  N_8
    3  A    between atoms: C_4  and  C_17
    4  A    between atoms: C_4  and  C_54
    5  A    between atoms: C_6  and  C_43
    6  A    between atoms: C_7  and  C_31
    7  A    between atoms: N_8  and  C_59
    8  A    between atoms: C_12  and  C_48
    9  A    between atoms: C_14  and  C_46
   10  A    between atoms: C_14  and  C_61
   11  A    between atoms: C_16  and  C_40
   12  A    between atoms: C_19  and  C_42
   13  A    between atoms: C_24  and  C_27
   14  A    between atoms: C_24  and  C_38
   15  A    between atoms: C_27  and  N_53
   16  A    between atoms: C_33  and  C_51
   17  A    between atoms: C_33  and  C_59
   18  A    between atoms: C_35  and  C_42
   19  A    between atoms: C_43  and  N_53
   20  A    between atoms: C_50  and  C_60
   21  A    between atoms: C_55  and  C_60
   22  A    between atoms: C_58  and  C_60
                            x       y       z     vdW  Elec       q    Type
                         _______ _______ _______ _____ _____    ______ ____

>  <TORSDO>
F 22

$$$$
=
 OpenBabel11052411583D

 63 68  0  0  1  0  0  0  0  0999 V2000
  160.8600  211.8150  152.3040 C   0  0  2  0  0  3  0  0  0  0  0  0
  160.8120  209.3150  152.3380 C   0  0  0  0  0  3  0  0  0  0  0  0
  160.5330  208.0740  154.3980 C   0  0  0  0  0  3  0  0  0  0  0  0
  160.5410  210.4910  154.4350 C   0  0  0  0  0  3  0  0  0  0  0  0
  160.4380  209.2680  155.1160 C   0  0  0  0  0  0  0  0  0  0  0  0
  160.7140  208.0920  153.0110 C   0  0  0  0  0  0  0  0  0  0  0  0
  160.7240  210.5170  153.0450 C   0  0  0  0  0  0  0  0  0  0  0  0
  160.2480  209.2090  156.5710 C   0  0  0  0  0  3  0  0  0  0  0  0
  160.3160  208.0760  157.2610 C   0  0  0  0  0  2  0  0  0  0  0  0
  160.8470  206.8050  152.2650 C   0  0  0  0  0  2  0  0  0  0  0  0
  162.2850  206.2990  152.2810 C   0  0  0  0  0  2  0  0  0  0  0  0
  163.0330  206.8570  151.1640 N   0  0  0  0  0  2  0  0  0  0  0  0
  162.8360  205.9840  150.0160 C   0  0  1  0  0  3  0  0  0  0  0  0
  160.1090  205.9930  147.6460 C   0  0  0  0  0  2  0  0  0  0  0  0
  161.4810  205.2800  150.1210 C   0  0  0  0  0  2  0  0  0  0  0  0
  160.8940  204.6690  147.6860 C   0  0  2  0  0  3  0  0  0  0  0  0
  161.7800  207.7170  148.4990 C   0  0  0  0  0  2  0  0  0  0  0  0
  161.3120  204.1690  149.0850 C   0  0  2  0  0  3  0  0  0  0  0  0
  162.9760  206.8010  148.7320 C   0  0  0  0  0  2  0  0  0  0  0  0
  160.9570  207.2270  147.3140 C   0  0  0  0  0  2  0  0  0  0  0  0
  162.0150  204.5720  146.6510 C   0  0  0  0  0  2  0  0  0  0  0  0
  160.7540  203.0430  145.0890 N   0  0  0  0  0  1  0  0  0  0  0  0
  161.4720  204.2540  145.3010 C   0  0  0  0  0  0  0  0  0  0  0  0
  161.6410  205.0570  144.3480 O   0  0  0  0  0  0  0  0  0  0  0  0
  160.2780  203.1800  149.6050 C   0  0  0  0  0  2  0  0  0  0  0  0
  161.5290  201.2360  148.6750 C   0  0  0  0  0  1  0  0  0  0  0  0
  159.2240  201.0820  149.2250 O   0  0  0  0  0  1  0  0  0  0  0  0
  160.1910  201.9480  148.7180 C   0  0  1  0  0  3  0  0  0  0  0  0
  159.2440  212.3260  154.1420 C   0  0  1  0  0  3  0  0  0  0  0  0
  158.5070  212.6840  152.8660 C   0  0  2  0  0  3  0  0  0  0  0  0
  158.1810  211.5120  152.1780 O   0  0  0  0  0  1  0  0  0  0  0  0
  160.0180  212.9020  152.9730 C   0  0  2  0  0  3  0  0  0  0  0  0
  157.7500  213.9960  154.9860 O   0  0  0  0  0  0  0  0  0  0  0  0
  157.8970  213.1930  156.1340 C   0  0  2  0  0  3  0  0  0  0  0  0
  159.0230  213.4230  155.1770 C   0  0  1  0  0  3  0  0  0  0  0  0
  157.1220  211.8940  155.9450 C   0  0  0  0  0  2  0  0  0  0  0  0
  155.1120  212.8940  156.7250 O   0  0  0  0  0  1  0  0  0  0  0  0
  155.6700  212.2110  155.6490 C   0  0  0  0  0  2  0  0  0  0  0  0
  160.4520  211.6750  150.8380 C   0  0  0  0  0  2  0  0  0  0  0  0
  161.6160  211.2850  149.9780 C   0  0  0  0  0  0  0  0  0  0  0  0
  160.9320  212.7730  148.0300 C   0  0  0  0  0  0  0  0  0  0  0  0
  162.4800  210.5040  150.4580 O   0  0  0  0  0  0  0  0  0  0  0  0
  162.7870  211.2550  147.8880 O   0  0  0  0  0  1  0  0  0  0  0  0
  161.7690  211.7630  148.6260 N   0  0  0  0  0  0  0  0  0  0  0  0
  159.9690  213.2820  148.6620 O   0  0  0  0  0  0  0  0  0  0  0  0
  161.2060  213.2450  146.6400 C   0  0  0  0  0  2  0  0  0  0  0  0
  160.5750  212.3480  145.6880 N   0  0  0  0  0  2  0  0  0  0  0  0
  160.5790  213.0200  144.4000 C   0  0  0  0  0  2  0  0  0  0  0  0
  161.9410  212.8480  143.7540 C   0  0  0  0  0  2  0  0  0  0  0  0
  161.6530  211.7410  141.5620 C   0  0  0  0  0  2  0  0  0  0  0  0
  162.0140  211.8520  139.0500 N   0  0  2  0  0  0  0  0  0  0  0  0
  163.3290  213.9230  139.4160 C   0  0  1  0  0  3  0  0  0  0  0  0
  162.2010  210.4500  138.6820 C   0  0  0  0  0  2  0  0  0  0  0  0
  160.9210  209.8790  138.0620 C   0  0  0  0  0  2  0  0  0  0  0  0
  163.3340  212.3930  139.3730 C   0  0  0  0  0  2  0  0  0  0  0  0
  159.8220  211.0460  140.0000 C   0  0  0  0  0  2  0  0  0  0  0  0
  163.0410  213.6990  141.8040 O   0  0  0  0  0  0  0  0  0  0  0  0
  161.8630  213.0840  142.2570 C   0  0  2  0  0  3  0  0  0  0  0  0
  161.0450  211.9610  140.1740 C   0  0  1  0  0  3  0  0  0  0  0  0
  162.6610  214.4530  140.6860 C   0  0  0  0  0  2  0  0  0  0  0  0
  159.6620  210.6030  138.5500 C   0  0  0  0  0  2  0  0  0  0  0  0
  164.7300  214.4440  139.3360 C   0  0  0  0  0  3  0  0  0  0  0  0
  165.5040  214.0130  138.4990 O   0  0  0  0  0  0  0  0  0  0  0  0
  1 39  1  6  0  0  0
  1  7  1  0  0  0  0
  2  6  2  0  0  0  0
  2  7  1  0  0  0  0
  3  5  2  0  0  0  0
  4  5  1  0  0  0  0
  5  8  1  0  0  0  0
  6  3  1  0  0  0  0
  7  4  2  0  0  0  0
  8  9  2  0  0  0  0
 10 11  1  0  0  0  0
 10  6  1  0  0  0  0
 12 11  1  0  0  0  0
 13 15  1  0  0  0  0
 13 12  1  1  0  0  0
 14 16  1  0  0  0  0
 16 21  1  6  0  0  0
 16 18  1  0  0  0  0
 17 19  1  0  0  0  0
 18 25  1  1  0  0  0
 18 15  1  0  0  0  0
 19 13  1  0  0  0  0
 20 14  1  0  0  0  0
 20 17  1  0  0  0  0
 22 23  1  0  0  0  0
 23 21  1  0  0  0  0
 24 23  2  0  0  0  0
 28 26  1  1  0  0  0
 28 27  1  0  0  0  0
 28 25  1  0  0  0  0
 29 35  1  1  0  0  0
 30 31  1  6  0  0  0
 30 32  1  0  0  0  0
 30 29  1  0  0  0  0
 32  1  1  6  0  0  0
 32 29  1  0  0  0  0
 33 34  1  0  0  0  0
 34 36  1  6  0  0  0
 35 33  1  6  0  0  0
 35 34  1  0  0  0  0
 38 36  1  0  0  0  0
 38 37  1  0  0  0  0
 40 42  2  0  0  0  0
 40 39  1  0  0  0  0
 41 44  1  0  0  0  0
 41 45  2  0  0  0  0
 43 44  1  0  0  0  0
 44 40  1  0  0  0  0
 46 41  1  0  0  0  0
 47 46  1  0  0  0  0
 48 47  1  0  0  0  0
 49 48  1  0  0  0  0
 50 58  1  0  0  0  0
 51 53  1  1  0  0  0
 51 55  1  0  0  0  0
 51 59  1  0  0  0  0
 52 62  1  1  0  0  0
 52 60  1  0  0  0  0
 54 61  1  0  0  0  0
 54 53  1  0  0  0  0
 55 52  1  0  0  0  0
 57 58  1  0  0  0  0
 58 49  1  1  0  0  0
 59 56  1  6  0  0  0
 59 50  1  0  0  0  0
 60 57  1  0  0  0  0
 61 56  1  0  0  0  0
 63 62  2  0  0  0  0
M  END
>  <MODEL>
3

>  <REMARK>
 VINA RESULT:      -4.2      2.488      8.570
  Name = 
  22 active torsions:
  status: ('A' for Active; 'I' for Inactive)
    1  A    between atoms: C_1  and  C_50
    2  A    between atoms: C_2  and  N_8
    3  A    between atoms: C_4  and  C_17
    4  A    between atoms: C_4  and  C_54
    5  A    between atoms: C_6  and  C_43
    6  A    between atoms: C_7  and  C_31
    7  A    between atoms: N_8  and  C_59
    8  A    between atoms: C_12  and  C_48
    9  A    between atoms: C_14  and  C_46
   10  A    between atoms: C_14  and  C_61
   11  A    between atoms: C_16  and  C_40
   12  A    between atoms: C_19  and  C_42
   13  A    between atoms: C_24  and  C_27
   14  A    between atoms: C_24  and  C_38
   15  A    between atoms: C_27  and  N_53
   16  A    between atoms: C_33  and  C_51
   17  A    between atoms: C_33  and  C_59
   18  A    between atoms: C_35  and  C_42
   19  A    between atoms: C_43  and  N_53
   20  A    between atoms: C_50  and  C_60
   21  A    between atoms: C_55  and  C_60
   22  A    between atoms: C_58  and  C_60
                            x       y       z     vdW  Elec       q    Type
                         _______ _______ _______ _____ _____    ______ ____

>  <TORSDO>
F 22

$$$$
=
 OpenBabel11052411583D

 63 68  0  0  1  0  0  0  0  0999 V2000
  161.1150  211.0940  152.5790 C   0  0  2  0  0  3  0  0  0  0  0  0
  161.4450  208.6250  152.3600 C   0  0  0  0  0  3  0  0  0  0  0  0
  160.8190  207.0940  154.1270 C   0  0  0  0  0  3  0  0  0  0  0  0
  160.4440  209.4670  154.3960 C   0  0  0  0  0  3  0  0  0  0  0  0
  160.3520  208.1610  154.8990 C   0  0  0  0  0  0  0  0  0  0  0  0
  161.3590  207.3200  152.8580 C   0  0  0  0  0  0  0  0  0  0  0  0
  160.9870  209.7020  153.1240 C   0  0  0  0  0  0  0  0  0  0  0  0
  159.7910  207.8840  156.2280 C   0  0  0  0  0  3  0  0  0  0  0  0
  160.4630  207.2370  157.1730 C   0  0  0  0  0  2  0  0  0  0  0  0
  161.8850  206.1720  152.0610 C   0  0  0  0  0  2  0  0  0  0  0  0
  161.7350  206.4190  150.5630 C   0  0  0  0  0  2  0  0  0  0  0  0
  160.3510  206.2370  150.1540 N   0  0  0  0  0  2  0  0  0  0  0  0
  160.3100  205.1450  149.1940 C   0  0  1  0  0  3  0  0  0  0  0  0
  162.2660  202.1070  149.1830 C   0  0  0  0  0  2  0  0  0  0  0  0
  161.7040  204.9120  148.6070 C   0  0  0  0  0  2  0  0  0  0  0  0
  161.6560  202.4600  147.8130 C   0  0  2  0  0  3  0  0  0  0  0  0
  160.7300  203.2740  150.8490 C   0  0  0  0  0  2  0  0  0  0  0  0
  161.6910  203.9510  147.4190 C   0  0  2  0  0  3  0  0  0  0  0  0
  159.7420  203.8990  149.8710 C   0  0  0  0  0  2  0  0  0  0  0  0
  161.2410  201.9420  150.3120 C   0  0  0  0  0  2  0  0  0  0  0  0
  160.3100  201.7930  147.5340 C   0  0  0  0  0  2  0  0  0  0  0  0
  159.5200  201.6530  145.1410 N   0  0  0  0  0  1  0  0  0  0  0  0
  160.3080  201.1240  146.2030 C   0  0  0  0  0  0  0  0  0  0  0  0
  161.0070  200.0960  146.0120 O   0  0  0  0  0  0  0  0  0  0  0  0
  162.9210  204.2260  146.5640 C   0  0  0  0  0  2  0  0  0  0  0  0
  161.3260  204.4600  144.6640 C   0  0  0  0  0  1  0  0  0  0  0  0
  162.3320  206.3550  145.6820 O   0  0  0  0  0  1  0  0  0  0  0  0
  162.5680  205.0290  145.3230 C   0  0  1  0  0  3  0  0  0  0  0  0
  159.7340  211.3780  154.6440 C   0  0  1  0  0  3  0  0  0  0  0  0
  158.9320  212.0470  153.5450 C   0  0  2  0  0  3  0  0  0  0  0  0
  158.4180  211.0690  152.6890 O   0  0  0  0  0  1  0  0  0  0  0  0
  160.4620  212.1010  153.5270 C   0  0  2  0  0  3  0  0  0  0  0  0
  158.6670  213.1860  155.7940 O   0  0  0  0  0  0  0  0  0  0  0  0
  158.5120  212.1610  156.7480 C   0  0  2  0  0  3  0  0  0  0  0  0
  159.7280  212.2650  155.8840 C   0  0  1  0  0  3  0  0  0  0  0  0
  157.4420  211.1860  156.2720 C   0  0  0  0  0  2  0  0  0  0  0  0
  155.6290  211.8840  154.9020 O   0  0  0  0  0  1  0  0  0  0  0  0
  156.1030  211.8940  156.2110 C   0  0  0  0  0  2  0  0  0  0  0  0
  160.4950  211.2180  151.1880 C   0  0  0  0  0  2  0  0  0  0  0  0
  160.5630  212.6240  150.6780 C   0  0  0  0  0  0  0  0  0  0  0  0
  161.8760  212.0140  148.5850 C   0  0  0  0  0  0  0  0  0  0  0  0
  159.9690  213.5270  151.3260 O   0  0  0  0  0  0  0  0  0  0  0  0
  161.4000  214.2920  149.1740 O   0  0  0  0  0  1  0  0  0  0  0  0
  161.2920  212.9770  149.4840 N   0  0  0  0  0  0  0  0  0  0  0  0
  161.8140  210.7780  148.8180 O   0  0  0  0  0  0  0  0  0  0  0  0
  162.5640  212.4750  147.3420 C   0  0  0  0  0  2  0  0  0  0  0  0
  161.6410  213.2570  146.5370 N   0  0  0  0  0  2  0  0  0  0  0  0
  161.7120  212.7400  145.1810 C   0  0  0  0  0  2  0  0  0  0  0  0
  162.7630  213.5150  144.4080 C   0  0  0  0  0  2  0  0  0  0  0  0
  161.2500  212.7090  142.6260 C   0  0  0  0  0  2  0  0  0  0  0  0
  160.7610  212.5840  140.1360 N   0  0  2  0  0  0  0  0  0  0  0  0
  162.9710  213.6340  139.7340 C   0  0  1  0  0  3  0  0  0  0  0  0
  160.0850  211.2940  139.9980 C   0  0  0  0  0  2  0  0  0  0  0  0
  158.5700  211.4900  139.8720 C   0  0  0  0  0  2  0  0  0  0  0  0
  162.1950  212.3380  139.9770 C   0  0  0  0  0  2  0  0  0  0  0  0
  158.9200  213.0840  141.7850 C   0  0  0  0  0  2  0  0  0  0  0  0
  163.4220  213.6240  142.1080 O   0  0  0  0  0  0  0  0  0  0  0  0
  162.3230  213.7400  142.9730 C   0  0  2  0  0  3  0  0  0  0  0  0
  160.4140  213.2050  141.4420 C   0  0  1  0  0  3  0  0  0  0  0  0
  163.1250  214.4530  141.0170 C   0  0  0  0  0  2  0  0  0  0  0  0
  158.0900  212.7800  140.5440 C   0  0  0  0  0  2  0  0  0  0  0  0
  164.3250  213.3250  139.1770 C   0  0  0  0  0  3  0  0  0  0  0  0
  165.2120  214.1600  139.2030 O   0  0  0  0  0  0  0  0  0  0  0  0
  1 39  1  6  0  0  0
  1  7  1  0  0  0  0
  2  6  2  0  0  0  0
  2  7  1  0  0  0  0
  3  5  2  0  0  0  0
  4  5  1  0  0  0  0
  5  8  1  0  0  0  0
  6  3  1  0  0  0  0
  7  4  2  0  0  0  0
  8  9  2  0  0  0  0
 10  6  1  0  0  0  0
 11 10  1  0  0  0  0
 12 11  1  0  0  0  0
 13 19  1  0  0  0  0
 13 12  1  1  0  0  0
 14 20  1  0  0  0  0
 15 13  1  0  0  0  0
 16 21  1  1  0  0  0
 16 14  1  0  0  0  0
 18 25  1  1  0  0  0
 18 16  1  0  0  0  0
 18 15  1  0  0  0  0
 19 17  1  0  0  0  0
 20 17  1  0  0  0  0
 22 23  1  0  0  0  0
 23 21  1  0  0  0  0
 24 23  2  0  0  0  0
 28 26  1  1  0  0  0
 28 27  1  0  0  0  0
 28 25  1  0  0  0  0
 29 35  1  1  0  0  0
 30 31  1  6  0  0  0
 30 29  1  0  0  0  0
 32  1  1  6  0  0  0
 32 30  1  0  0  0  0
 32 29  1  0  0  0  0
 33 34  1  0  0  0  0
 34 36  1  6  0  0  0
 35 33  1  6  0  0  0
 35 34  1  0  0  0  0
 37 38  1  0  0  0  0
 38 36  1  0  0  0  0
 40 39  1  0  0  0  0
 40 42  2  0  0  0  0
 41 45  2  0  0  0  0
 41 44  1  0  0  0  0
 43 44  1  0  0  0  0
 44 40  1  0  0  0  0
 46 41  1  0  0  0  0
 47 46  1  0  0  0  0
 48 47  1  0  0  0  0
 49 48  1  0  0  0  0
 50 58  1  0  0  0  0
 51 55  1  1  0  0  0
 51 59  1  0  0  0  0
 52 62  1  1  0  0  0
 52 55  1  0  0  0  0
 52 60  1  0  0  0  0
 53 51  1  0  0  0  0
 54 53  1  0  0  0  0
 54 61  1  0  0  0  0
 57 58  1  0  0  0  0
 58 49  1  1  0  0  0
 59 56  1  1  0  0  0
 59 50  1  0  0  0  0
 60 57  1  0  0  0  0
 61 56  1  0  0  0  0
 62 63  2  0  0  0  0
M  END
>  <MODEL>
4

>  <REMARK>
 VINA RESULT:      -3.3      2.551      9.153
  Name = 
  22 active torsions:
  status: ('A' for Active; 'I' for Inactive)
    1  A    between atoms: C_1  and  C_50
    2  A    between atoms: C_2  and  N_8
    3  A    between atoms: C_4  and  C_17
    4  A    between atoms: C_4  and  C_54
    5  A    between atoms: C_6  and  C_43
    6  A    between atoms: C_7  and  C_31
    7  A    between atoms: N_8  and  C_59
    8  A    between atoms: C_12  and  C_48
    9  A    between atoms: C_14  and  C_46
   10  A    between atoms: C_14  and  C_61
   11  A    between atoms: C_16  and  C_40
   12  A    between atoms: C_19  and  C_42
   13  A    between atoms: C_24  and  C_27
   14  A    between atoms: C_24  and  C_38
   15  A    between atoms: C_27  and  N_53
   16  A    between atoms: C_33  and  C_51
   17  A    between atoms: C_33  and  C_59
   18  A    between atoms: C_35  and  C_42
   19  A    between atoms: C_43  and  N_53
   20  A    between atoms: C_50  and  C_60
   21  A    between atoms: C_55  and  C_60
   22  A    between atoms: C_58  and  C_60
                            x       y       z     vdW  Elec       q    Type
                         _______ _______ _______ _____ _____    ______ ____

>  <TORSDO>
F 22

$$$$
