=
 OpenBabel11052410533D

 28 30  0  0  1  0  0  0  0  0999 V2000
  162.1270  207.7000  149.3830 C   0  0  0  0  0  0  0  0  0  0  0  0
  162.4270  209.0610  149.2640 C   0  0  0  0  0  3  0  0  0  0  0  0
  161.2210  209.5390  151.2330 C   0  0  0  0  0  0  0  0  0  0  0  0
  160.7490  210.4840  152.1840 N   0  0  0  0  0  1  0  0  0  0  0  0
  161.3570  207.2870  150.4910 C   0  0  0  0  0  0  0  0  0  0  0  0
  161.9780  209.9500  150.1850 N   0  0  0  0  0  0  0  0  0  0  0  0
  160.9150  208.2240  151.3740 N   0  0  0  0  0  0  0  0  0  0  0  0
  160.2130  206.3130  145.6750 N   0  0  0  0  0  2  0  0  0  0  0  0
  160.6650  206.8700  146.8730 N   0  0  0  0  0  0  0  0  0  0  0  0
  161.2120  205.3970  145.2680 C   0  0  0  0  0  0  0  0  0  0  0  0
  161.1360  204.7080  144.2170 O   0  0  0  0  0  0  0  0  0  0  0  0
  161.8150  206.3720  147.2030 C   0  0  0  0  0  0  0  0  0  0  0  0
  162.5370  206.7600  148.3780 N   0  0  0  0  0  2  0  0  0  0  0  0
  162.3390  205.3630  146.2310 C   0  0  0  0  0  2  0  0  0  0  0  0
  160.0330  205.3950  150.0340 O   0  0  0  0  0  0  0  0  0  0  0  0
  160.9710  205.8760  150.7300 C   0  0  0  0  0  0  0  0  0  0  0  0
  163.0210  205.1010  151.6690 O   0  0  0  0  0  1  0  0  0  0  0  0
  161.6310  204.9970  151.7810 C   0  0  1  0  0  0  0  0  0  0  0  0
  161.2370  205.4850  153.1660 C   0  0  0  0  0  1  0  0  0  0  0  0
  161.2060  203.5460  151.6450 C   0  0  0  0  0  0  0  0  0  0  0  0
  160.3740  203.0610  152.4590 O   0  0  0  0  0  0  0  0  0  0  0  0
  161.7380  202.6960  150.6670 O   0  0  0  0  0  0  0  0  0  0  0  0
  161.1970  201.0470  149.0150 C   0  0  2  0  0  3  0  0  0  0  0  0
  159.9090  201.6890  149.4970 C   0  0  0  0  0  2  0  0  0  0  0  0
  161.1670  202.5210  149.3780 C   0  0  1  0  0  3  0  0  0  0  0  0
  161.5590  199.8220  146.9990 O   0  0  0  0  0  1  0  0  0  0  0  0
  160.7520  201.9480  146.7260 O   0  0  0  0  0  0  0  0  0  0  0  0
  161.1680  200.8940  147.5300 C   0  0  0  0  0  0  0  0  0  0  0  0
  1  5  1  0  0  0  0
  2  1  2  0  0  0  0
  2  6  1  0  0  0  0
  3  7  1  0  0  0  0
  3  4  1  0  0  0  0
  5 16  1  0  0  0  0
  5  7  2  0  0  0  0
  6  3  2  0  0  0  0
  8  9  1  0  0  0  0
  9 12  2  0  0  0  0
 10  8  1  0  0  0  0
 10 14  1  0  0  0  0
 11 10  2  0  0  0  0
 12 13  1  0  0  0  0
 13  1  1  0  0  0  0
 14 12  1  0  0  0  0
 15 16  2  0  0  0  0
 16 18  1  0  0  0  0
 17 18  1  0  0  0  0
 18 19  1  1  0  0  0
 20 18  1  0  0  0  0
 20 21  2  0  0  0  0
 22 20  1  0  0  0  0
 23 28  1  6  0  0  0
 23 25  1  0  0  0  0
 23 24  1  0  0  0  0
 25 24  1  0  0  0  0
 25 22  1  1  0  0  0
 26 28  1  0  0  0  0
 27 28  2  0  0  0  0
M  END
>  <MODEL>
1

>  <REMARK>
 VINA RESULT:      -7.2      0.000      0.000
  Name = 
  7 active torsions:
  status: ('A' for Active; 'I' for Inactive)
    1  A    between atoms: O_1  and  C_17
    2  A    between atoms: O_1  and  C_20
    3  A    between atoms: C_2  and  C_22
    4  A    between atoms: C_3  and  N_27
    5  A    between atoms: C_10  and  C_17
    6  A    between atoms: C_10  and  C_26
    7  A    between atoms: C_18  and  C_26
                            x       y       z     vdW  Elec       q    Type
                         _______ _______ _______ _____ _____    ______ ____

>  <TORSDO>
F 7

$$$$
=
 OpenBabel11052410533D

 28 30  0  0  1  0  0  0  0  0999 V2000
  161.5180  205.3920  150.2320 C   0  0  0  0  0  0  0  0  0  0  0  0
  161.5910  204.5880  151.3740 C   0  0  0  0  0  3  0  0  0  0  0  0
  160.7640  202.7370  150.1710 C   0  0  0  0  0  0  0  0  0  0  0  0
  160.3700  201.3710  150.1390 N   0  0  0  0  0  1  0  0  0  0  0  0
  161.0600  204.8010  149.0350 C   0  0  0  0  0  0  0  0  0  0  0  0
  161.2220  203.2840  151.3240 N   0  0  0  0  0  0  0  0  0  0  0  0
  160.6820  203.4930  149.0470 N   0  0  0  0  0  0  0  0  0  0  0  0
  160.8910  208.4510  153.3280 N   0  0  0  0  0  2  0  0  0  0  0  0
  161.0090  207.3550  152.4720 N   0  0  0  0  0  0  0  0  0  0  0  0
  161.4490  209.5510  152.6350 C   0  0  0  0  0  0  0  0  0  0  0  0
  161.5130  210.7130  153.1130 O   0  0  0  0  0  0  0  0  0  0  0  0
  161.5710  207.7040  151.3580 C   0  0  0  0  0  0  0  0  0  0  0  0
  161.8390  206.7910  150.2870 N   0  0  0  0  0  2  0  0  0  0  0  0
  161.9400  209.1520  151.2940 C   0  0  0  0  0  2  0  0  0  0  0  0
  159.9500  206.3250  147.6250 O   0  0  0  0  0  0  0  0  0  0  0  0
  160.9340  205.5440  147.7580 C   0  0  0  0  0  0  0  0  0  0  0  0
  162.4050  206.6530  146.2450 O   0  0  0  0  0  1  0  0  0  0  0  0
  161.9140  205.3950  146.6050 C   0  0  1  0  0  0  0  0  0  0  0  0
  163.0940  204.5460  147.0550 C   0  0  0  0  0  1  0  0  0  0  0  0
  161.2700  204.7240  145.4060 C   0  0  0  0  0  0  0  0  0  0  0  0
  161.4000  205.2350  144.2610 O   0  0  0  0  0  0  0  0  0  0  0  0
  160.4870  203.5680  145.5220 O   0  0  0  0  0  0  0  0  0  0  0  0
  160.3210  201.3530  146.4190 C   0  0  2  0  0  3  0  0  0  0  0  0
  159.8960  201.3190  144.9630 C   0  0  0  0  0  2  0  0  0  0  0  0
  161.0030  202.2510  145.4020 C   0  0  1  0  0  3  0  0  0  0  0  0
  161.8690  200.1600  147.7890 O   0  0  0  0  0  1  0  0  0  0  0  0
  161.3100  199.1370  145.8180 O   0  0  0  0  0  0  0  0  0  0  0  0
  161.1970  200.1830  146.7250 C   0  0  0  0  0  0  0  0  0  0  0  0
  1 13  1  0  0  0  0
  1  2  2  0  0  0  0
  3  6  2  0  0  0  0
  4  3  1  0  0  0  0
  5  7  2  0  0  0  0
  5  1  1  0  0  0  0
  6  2  1  0  0  0  0
  7  3  1  0  0  0  0
  9  8  1  0  0  0  0
 10 11  2  0  0  0  0
 10  8  1  0  0  0  0
 12  9  2  0  0  0  0
 13 12  1  0  0  0  0
 14 12  1  0  0  0  0
 14 10  1  0  0  0  0
 15 16  2  0  0  0  0
 16  5  1  0  0  0  0
 17 18  1  0  0  0  0
 18 19  1  1  0  0  0
 18 16  1  0  0  0  0
 20 22  1  0  0  0  0
 20 18  1  0  0  0  0
 21 20  2  0  0  0  0
 23 28  1  6  0  0  0
 24 25  1  0  0  0  0
 24 23  1  0  0  0  0
 25 22  1  1  0  0  0
 25 23  1  0  0  0  0
 27 28  2  0  0  0  0
 28 26  1  0  0  0  0
M  END
>  <MODEL>
2

>  <REMARK>
 VINA RESULT:      -6.9      2.497      5.696
  Name = 
  7 active torsions:
  status: ('A' for Active; 'I' for Inactive)
    1  A    between atoms: O_1  and  C_17
    2  A    between atoms: O_1  and  C_20
    3  A    between atoms: C_2  and  C_22
    4  A    between atoms: C_3  and  N_27
    5  A    between atoms: C_10  and  C_17
    6  A    between atoms: C_10  and  C_26
    7  A    between atoms: C_18  and  C_26
                            x       y       z     vdW  Elec       q    Type
                         _______ _______ _______ _____ _____    ______ ____

>  <TORSDO>
F 7

$$$$
=
 OpenBabel11052410533D

 28 30  0  0  1  0  0  0  0  0999 V2000
  161.1300  202.3780  147.9450 C   0  0  0  0  0  0  0  0  0  0  0  0
  161.2070  201.1060  148.5230 C   0  0  0  0  0  3  0  0  0  0  0  0
  161.2370  200.0980  146.3910 C   0  0  0  0  0  0  0  0  0  0  0  0
  161.2870  198.9260  145.5890 N   0  0  0  0  0  1  0  0  0  0  0  0
  161.1240  202.4660  146.5370 C   0  0  0  0  0  0  0  0  0  0  0  0
  161.2650  199.9980  147.7430 N   0  0  0  0  0  0  0  0  0  0  0  0
  161.1620  201.3200  145.8030 N   0  0  0  0  0  0  0  0  0  0  0  0
  161.2530  202.9960  152.2980 N   0  0  0  0  0  2  0  0  0  0  0  0
  161.2490  202.6110  150.9550 N   0  0  0  0  0  0  0  0  0  0  0  0
  161.0280  204.3930  152.3050 C   0  0  0  0  0  0  0  0  0  0  0  0
  160.9700  205.0820  153.3570 O   0  0  0  0  0  0  0  0  0  0  0  0
  161.0420  203.6350  150.1880 C   0  0  0  0  0  0  0  0  0  0  0  0
  160.9970  203.5550  148.7580 N   0  0  0  0  0  2  0  0  0  0  0  0
  160.8740  204.9230  150.9290 C   0  0  0  0  0  2  0  0  0  0  0  0
  160.1510  203.8710  144.9170 O   0  0  0  0  0  0  0  0  0  0  0  0
  161.0430  203.7520  145.8040 C   0  0  0  0  0  0  0  0  0  0  0  0
  163.1280  204.4550  146.7200 O   0  0  0  0  0  1  0  0  0  0  0  0
  161.9890  204.9160  146.0550 C   0  0  1  0  0  0  0  0  0  0  0  0
  162.4330  205.4990  144.7220 C   0  0  0  0  0  1  0  0  0  0  0  0
  161.3230  206.0150  146.8620 C   0  0  0  0  0  0  0  0  0  0  0  0
  160.2650  206.5510  146.4330 O   0  0  0  0  0  0  0  0  0  0  0  0
  161.8650  206.5010  148.0590 O   0  0  0  0  0  0  0  0  0  0  0  0
  162.3680  208.0780  149.7910 C   0  0  2  0  0  3  0  0  0  0  0  0
  162.2230  208.8290  148.4800 C   0  0  0  0  0  2  0  0  0  0  0  0
  161.3510  207.6250  148.7580 C   0  0  1  0  0  3  0  0  0  0  0  0
  161.8290  210.0660  150.9970 O   0  0  0  0  0  0  0  0  0  0  0  0
  160.8960  208.1400  151.8110 O   0  0  0  0  0  1  0  0  0  0  0  0
  161.6760  208.8220  150.8850 C   0  0  0  0  0  0  0  0  0  0  0  0
  1  2  2  0  0  0  0
  1 13  1  0  0  0  0
  3  6  2  0  0  0  0
  4  3  1  0  0  0  0
  5  1  1  0  0  0  0
  6  2  1  0  0  0  0
  7  3  1  0  0  0  0
  7  5  2  0  0  0  0
  8 10  1  0  0  0  0
  9  8  1  0  0  0  0
 10 11  2  0  0  0  0
 12 14  1  0  0  0  0
 12  9  2  0  0  0  0
 13 12  1  0  0  0  0
 14 10  1  0  0  0  0
 15 16  2  0  0  0  0
 16 18  1  0  0  0  0
 16  5  1  0  0  0  0
 18 19  1  6  0  0  0
 18 17  1  0  0  0  0
 18 20  1  0  0  0  0
 20 22  1  0  0  0  0
 21 20  2  0  0  0  0
 23 28  1  1  0  0  0
 24 25  1  0  0  0  0
 24 23  1  0  0  0  0
 25 22  1  6  0  0  0
 25 23  1  0  0  0  0
 28 26  2  0  0  0  0
 28 27  1  0  0  0  0
M  END
>  <MODEL>
3

>  <REMARK>
 VINA RESULT:      -6.6      3.197      7.490
  Name = 
  7 active torsions:
  status: ('A' for Active; 'I' for Inactive)
    1  A    between atoms: O_1  and  C_17
    2  A    between atoms: O_1  and  C_20
    3  A    between atoms: C_2  and  C_22
    4  A    between atoms: C_3  and  N_27
    5  A    between atoms: C_10  and  C_17
    6  A    between atoms: C_10  and  C_26
    7  A    between atoms: C_18  and  C_26
                            x       y       z     vdW  Elec       q    Type
                         _______ _______ _______ _____ _____    ______ ____

>  <TORSDO>
F 7

$$$$
=
 OpenBabel11052410533D

 28 30  0  0  1  0  0  0  0  0999 V2000
  161.8470  209.4890  152.2310 C   0  0  0  0  0  0  0  0  0  0  0  0
  161.9430  210.4690  153.2240 C   0  0  0  0  0  3  0  0  0  0  0  0
  160.8730  209.0550  154.7770 C   0  0  0  0  0  0  0  0  0  0  0  0
  160.3650  208.8310  156.0860 N   0  0  0  0  0  1  0  0  0  0  0  0
  161.2490  208.2570  152.5720 C   0  0  0  0  0  0  0  0  0  0  0  0
  161.4630  210.2370  154.4710 N   0  0  0  0  0  0  0  0  0  0  0  0
  160.7660  208.0850  153.8330 N   0  0  0  0  0  0  0  0  0  0  0  0
  160.8760  212.6770  149.3610 N   0  0  0  0  0  2  0  0  0  0  0  0
  161.0650  211.7590  150.3960 N   0  0  0  0  0  0  0  0  0  0  0  0
  161.6780  212.2260  148.2860 C   0  0  0  0  0  0  0  0  0  0  0  0
  161.7530  212.8200  147.1790 O   0  0  0  0  0  0  0  0  0  0  0  0
  161.8870  210.8250  150.0330 C   0  0  0  0  0  0  0  0  0  0  0  0
  162.2880  209.7470  150.8880 N   0  0  0  0  0  2  0  0  0  0  0  0
  162.4040  210.9830  148.6390 C   0  0  0  0  0  2  0  0  0  0  0  0
  160.4030  207.3520  150.5710 O   0  0  0  0  0  0  0  0  0  0  0  0
  161.0860  207.1400  151.6120 C   0  0  0  0  0  0  0  0  0  0  0  0
  163.0720  205.8550  151.9070 O   0  0  0  0  0  1  0  0  0  0  0  0
  161.6800  205.7570  151.8320 C   0  0  1  0  0  0  0  0  0  0  0  0
  161.1800  205.1990  153.1550 C   0  0  0  0  0  1  0  0  0  0  0  0
  161.2850  204.7960  150.7260 C   0  0  0  0  0  0  0  0  0  0  0  0
  160.4840  203.8540  150.9740 O   0  0  0  0  0  0  0  0  0  0  0  0
  161.8130  204.8820  149.4320 O   0  0  0  0  0  0  0  0  0  0  0  0
  161.9730  204.7290  147.0460 C   0  0  2  0  0  3  0  0  0  0  0  0
  161.5340  203.3820  147.5890 C   0  0  0  0  0  2  0  0  0  0  0  0
  161.0550  204.6530  148.2530 C   0  0  1  0  0  3  0  0  0  0  0  0
  160.7210  206.2400  145.6860 O   0  0  0  0  0  1  0  0  0  0  0  0
  160.8980  204.1050  144.8760 O   0  0  0  0  0  0  0  0  0  0  0  0
  161.1770  205.0750  145.8300 C   0  0  0  0  0  0  0  0  0  0  0  0
  1  5  1  0  0  0  0
  1  2  2  0  0  0  0
  2  6  1  0  0  0  0
  3  4  1  0  0  0  0
  5  7  2  0  0  0  0
  6  3  2  0  0  0  0
  7  3  1  0  0  0  0
  8  9  1  0  0  0  0
 10 14  1  0  0  0  0
 10  8  1  0  0  0  0
 11 10  2  0  0  0  0
 12  9  2  0  0  0  0
 12 13  1  0  0  0  0
 13  1  1  0  0  0  0
 14 12  1  0  0  0  0
 15 16  2  0  0  0  0
 16 18  1  0  0  0  0
 16  5  1  0  0  0  0
 18 17  1  0  0  0  0
 18 19  1  1  0  0  0
 20 21  2  0  0  0  0
 20 18  1  0  0  0  0
 22 20  1  0  0  0  0
 23 28  1  6  0  0  0
 23 24  1  0  0  0  0
 23 25  1  0  0  0  0
 24 25  1  0  0  0  0
 25 22  1  1  0  0  0
 26 28  1  0  0  0  0
 27 28  2  0  0  0  0
M  END
>  <MODEL>
4

>  <REMARK>
 VINA RESULT:      -6.3      2.580      4.299
  Name = 
  7 active torsions:
  status: ('A' for Active; 'I' for Inactive)
    1  A    between atoms: O_1  and  C_17
    2  A    between atoms: O_1  and  C_20
    3  A    between atoms: C_2  and  C_22
    4  A    between atoms: C_3  and  N_27
    5  A    between atoms: C_10  and  C_17
    6  A    between atoms: C_10  and  C_26
    7  A    between atoms: C_18  and  C_26
                            x       y       z     vdW  Elec       q    Type
                         _______ _______ _______ _____ _____    ______ ____

>  <TORSDO>
F 7

$$$$
=
 OpenBabel11052410533D

 28 30  0  0  1  0  0  0  0  0999 V2000
  161.4940  206.9220  152.2650 C   0  0  0  0  0  0  0  0  0  0  0  0
  161.1610  206.1780  153.4010 C   0  0  0  0  0  3  0  0  0  0  0  0
  161.2300  204.1760  152.1580 C   0  0  0  0  0  0  0  0  0  0  0  0
  161.0900  202.7620  152.0990 N   0  0  0  0  0  1  0  0  0  0  0  0
  161.7080  206.2250  151.0570 C   0  0  0  0  0  0  0  0  0  0  0  0
  161.0410  204.8290  153.3310 N   0  0  0  0  0  0  0  0  0  0  0  0
  161.5540  204.8730  151.0380 N   0  0  0  0  0  0  0  0  0  0  0  0
  160.2730  209.8430  155.3180 N   0  0  0  0  0  2  0  0  0  0  0  0
  160.6020  208.7790  154.4750 N   0  0  0  0  0  0  0  0  0  0  0  0
  160.6340  211.0200  154.6200 C   0  0  0  0  0  0  0  0  0  0  0  0
  160.4780  212.1780  155.0860 O   0  0  0  0  0  0  0  0  0  0  0  0
  161.1090  209.2150  153.3660 C   0  0  0  0  0  0  0  0  0  0  0  0
  161.5550  208.3570  152.3090 N   0  0  0  0  0  2  0  0  0  0  0  0
  161.2100  210.7050  153.2910 C   0  0  0  0  0  2  0  0  0  0  0  0
  163.1090  207.6040  149.7610 O   0  0  0  0  0  0  0  0  0  0  0  0
  162.0630  206.8970  149.7830 C   0  0  0  0  0  0  0  0  0  0  0  0
  159.8810  206.5940  148.8710 O   0  0  0  0  0  1  0  0  0  0  0  0
  161.2210  206.7910  148.5220 C   0  0  1  0  0  0  0  0  0  0  0  0
  161.3110  208.0960  147.7450 C   0  0  0  0  0  1  0  0  0  0  0  0
  161.6960  205.6650  147.6230 C   0  0  0  0  0  0  0  0  0  0  0  0
  162.7330  205.8200  146.9220 O   0  0  0  0  0  0  0  0  0  0  0  0
  160.9990  204.4560  147.5010 O   0  0  0  0  0  0  0  0  0  0  0  0
  160.5740  202.1050  147.6890 C   0  0  2  0  0  3  0  0  0  0  0  0
  161.1210  202.3890  146.3020 C   0  0  0  0  0  2  0  0  0  0  0  0
  161.6260  203.1820  147.4860 C   0  0  1  0  0  3  0  0  0  0  0  0
  161.5860  199.9540  147.4790 O   0  0  0  0  0  0  0  0  0  0  0  0
  161.3570  200.7270  149.6230 O   0  0  0  0  0  1  0  0  0  0  0  0
  161.2120  200.8770  148.2490 C   0  0  0  0  0  0  0  0  0  0  0  0
  1 13  1  0  0  0  0
  1  2  2  0  0  0  0
  3  6  2  0  0  0  0
  4  3  1  0  0  0  0
  5  1  1  0  0  0  0
  6  2  1  0  0  0  0
  7  5  2  0  0  0  0
  7  3  1  0  0  0  0
  9  8  1  0  0  0  0
 10 11  2  0  0  0  0
 10  8  1  0  0  0  0
 12  9  2  0  0  0  0
 13 12  1  0  0  0  0
 14 12  1  0  0  0  0
 14 10  1  0  0  0  0
 15 16  2  0  0  0  0
 16  5  1  0  0  0  0
 18 19  1  6  0  0  0
 18 17  1  0  0  0  0
 18 16  1  0  0  0  0
 20 18  1  0  0  0  0
 21 20  2  0  0  0  0
 22 20  1  0  0  0  0
 23 28  1  1  0  0  0
 24 25  1  0  0  0  0
 24 23  1  0  0  0  0
 25 22  1  6  0  0  0
 25 23  1  0  0  0  0
 26 28  2  0  0  0  0
 28 27  1  0  0  0  0
M  END
>  <MODEL>
5

>  <REMARK>
 VINA RESULT:      -6.3      2.857      5.912
  Name = 
  7 active torsions:
  status: ('A' for Active; 'I' for Inactive)
    1  A    between atoms: O_1  and  C_17
    2  A    between atoms: O_1  and  C_20
    3  A    between atoms: C_2  and  C_22
    4  A    between atoms: C_3  and  N_27
    5  A    between atoms: C_10  and  C_17
    6  A    between atoms: C_10  and  C_26
    7  A    between atoms: C_18  and  C_26
                            x       y       z     vdW  Elec       q    Type
                         _______ _______ _______ _____ _____    ______ ____

>  <TORSDO>
F 7

$$$$
=
 OpenBabel11052410533D

 28 30  0  0  1  0  0  0  0  0999 V2000
  162.4100  207.9340  149.1880 C   0  0  0  0  0  0  0  0  0  0  0  0
  162.1840  209.2200  148.6880 C   0  0  0  0  0  3  0  0  0  0  0  0
  161.6570  210.0080  150.8460 C   0  0  0  0  0  0  0  0  0  0  0  0
  161.2630  211.0730  151.7020 N   0  0  0  0  0  1  0  0  0  0  0  0
  162.2570  207.7270  150.5750 C   0  0  0  0  0  0  0  0  0  0  0  0
  161.8190  210.2290  149.5180 N   0  0  0  0  0  0  0  0  0  0  0  0
  161.8690  208.7690  151.3600 N   0  0  0  0  0  0  0  0  0  0  0  0
  160.2610  206.1450  145.7930 N   0  0  0  0  0  2  0  0  0  0  0  0
  160.7940  206.8390  146.8810 N   0  0  0  0  0  0  0  0  0  0  0  0
  161.1960  205.1300  145.4800 C   0  0  0  0  0  0  0  0  0  0  0  0
  161.0390  204.3070  144.5410 O   0  0  0  0  0  0  0  0  0  0  0  0
  161.9340  206.3320  147.2320 C   0  0  0  0  0  0  0  0  0  0  0  0
  162.7280  206.8420  148.3100 N   0  0  0  0  0  2  0  0  0  0  0  0
  162.3640  205.1720  146.3920 C   0  0  0  0  0  2  0  0  0  0  0  0
  163.6500  206.0670  151.4960 O   0  0  0  0  0  0  0  0  0  0  0  0
  162.4650  206.4120  151.2280 C   0  0  0  0  0  0  0  0  0  0  0  0
  160.2350  205.7260  150.7360 O   0  0  0  0  0  1  0  0  0  0  0  0
  161.3290  205.4590  151.5650 C   0  0  1  0  0  0  0  0  0  0  0  0
  161.7750  204.0290  151.3010 C   0  0  0  0  0  1  0  0  0  0  0  0
  160.9180  205.5710  153.0220 C   0  0  0  0  0  0  0  0  0  0  0  0
  160.8670  204.5340  153.7380 O   0  0  0  0  0  0  0  0  0  0  0  0
  160.5420  206.7890  153.6040 O   0  0  0  0  0  0  0  0  0  0  0  0
  160.7000  208.7920  154.9090 C   0  0  2  0  0  3  0  0  0  0  0  0
  160.2420  207.6620  155.8110 C   0  0  0  0  0  2  0  0  0  0  0  0
  161.2260  207.3830  154.6980 C   0  0  1  0  0  3  0  0  0  0  0  0
  161.9980  209.4020  156.8160 O   0  0  0  0  0  1  0  0  0  0  0  0
  162.3730  210.6500  154.9320 O   0  0  0  0  0  0  0  0  0  0  0  0
  161.7330  209.6160  155.6040 C   0  0  0  0  0  0  0  0  0  0  0  0
  1  5  1  0  0  0  0
  2  1  2  0  0  0  0
  2  6  1  0  0  0  0
  3  7  1  0  0  0  0
  3  4  1  0  0  0  0
  5 16  1  0  0  0  0
  5  7  2  0  0  0  0
  6  3  2  0  0  0  0
  8  9  1  0  0  0  0
  9 12  2  0  0  0  0
 10  8  1  0  0  0  0
 10 14  1  0  0  0  0
 11 10  2  0  0  0  0
 12 13  1  0  0  0  0
 13  1  1  0  0  0  0
 14 12  1  0  0  0  0
 16 15  2  0  0  0  0
 16 18  1  0  0  0  0
 17 18  1  0  0  0  0
 18 19  1  6  0  0  0
 18 20  1  0  0  0  0
 20 22  1  0  0  0  0
 20 21  2  0  0  0  0
 23 28  1  1  0  0  0
 23 24  1  0  0  0  0
 25 22  1  6  0  0  0
 25 23  1  0  0  0  0
 25 24  1  0  0  0  0
 27 28  2  0  0  0  0
 28 26  1  0  0  0  0
M  END
>  <MODEL>
6

>  <REMARK>
 VINA RESULT:      -6.2      2.450      5.258
  Name = 
  7 active torsions:
  status: ('A' for Active; 'I' for Inactive)
    1  A    between atoms: O_1  and  C_17
    2  A    between atoms: O_1  and  C_20
    3  A    between atoms: C_2  and  C_22
    4  A    between atoms: C_3  and  N_27
    5  A    between atoms: C_10  and  C_17
    6  A    between atoms: C_10  and  C_26
    7  A    between atoms: C_18  and  C_26
                            x       y       z     vdW  Elec       q    Type
                         _______ _______ _______ _____ _____    ______ ____

>  <TORSDO>
F 7

$$$$
=
 OpenBabel11052410533D

 28 30  0  0  1  0  0  0  0  0999 V2000
  161.3090  206.2630  153.3130 C   0  0  0  0  0  0  0  0  0  0  0  0
  160.6680  206.5630  154.5190 C   0  0  0  0  0  3  0  0  0  0  0  0
  160.6920  208.8640  154.0050 C   0  0  0  0  0  0  0  0  0  0  0  0
  160.3800  210.2040  154.3620 N   0  0  0  0  0  1  0  0  0  0  0  0
  161.6200  207.3320  152.4460 C   0  0  0  0  0  0  0  0  0  0  0  0
  160.3670  207.8460  154.8410 N   0  0  0  0  0  0  0  0  0  0  0  0
  161.3150  208.6030  152.8280 N   0  0  0  0  0  0  0  0  0  0  0  0
  160.0210  203.4880  150.1540 N   0  0  0  0  0  2  0  0  0  0  0  0
  160.3070  204.4980  151.0760 N   0  0  0  0  0  0  0  0  0  0  0  0
  160.8310  202.3860  150.5170 C   0  0  0  0  0  0  0  0  0  0  0  0
  160.8320  201.2910  149.8970 O   0  0  0  0  0  0  0  0  0  0  0  0
  161.1920  204.0960  151.9330 C   0  0  0  0  0  0  0  0  0  0  0  0
  161.6960  204.9170  152.9930 N   0  0  0  0  0  2  0  0  0  0  0  0
  161.6620  202.6940  151.7060 C   0  0  0  0  0  2  0  0  0  0  0  0
  163.4330  206.5890  151.1400 O   0  0  0  0  0  0  0  0  0  0  0  0
  162.3000  207.1480  151.1410 C   0  0  0  0  0  0  0  0  0  0  0  0
  160.3290  207.4060  149.8250 O   0  0  0  0  0  1  0  0  0  0  0  0
  161.7120  207.6170  149.8200 C   0  0  1  0  0  0  0  0  0  0  0  0
  161.9540  209.1100  149.6620 C   0  0  0  0  0  1  0  0  0  0  0  0
  162.3430  206.9010  148.6400 C   0  0  0  0  0  0  0  0  0  0  0  0
  163.0820  207.5410  147.8440 O   0  0  0  0  0  0  0  0  0  0  0  0
  162.1010  205.5490  148.3660 O   0  0  0  0  0  0  0  0  0  0  0  0
  162.1410  204.7240  146.1160 C   0  0  2  0  0  3  0  0  0  0  0  0
  161.5760  203.6420  147.0180 C   0  0  0  0  0  2  0  0  0  0  0  0
  161.2720  205.0950  147.3050 C   0  0  1  0  0  3  0  0  0  0  0  0
  161.4340  205.8280  144.1210 O   0  0  0  0  0  0  0  0  0  0  0  0
  160.4510  203.7990  144.5230 O   0  0  0  0  0  1  0  0  0  0  0  0
  161.3380  204.8130  144.8600 C   0  0  0  0  0  0  0  0  0  0  0  0
  1  2  2  0  0  0  0
  2  6  1  0  0  0  0
  3  4  1  0  0  0  0
  3  6  2  0  0  0  0
  5  7  2  0  0  0  0
  5  1  1  0  0  0  0
  7  3  1  0  0  0  0
  8 10  1  0  0  0  0
  8  9  1  0  0  0  0
  9 12  2  0  0  0  0
 10 14  1  0  0  0  0
 11 10  2  0  0  0  0
 12 13  1  0  0  0  0
 13  1  1  0  0  0  0
 14 12  1  0  0  0  0
 15 16  2  0  0  0  0
 16  5  1  0  0  0  0
 18 19  1  6  0  0  0
 18 17  1  0  0  0  0
 18 16  1  0  0  0  0
 20 18  1  0  0  0  0
 21 20  2  0  0  0  0
 22 20  1  0  0  0  0
 23 28  1  6  0  0  0
 23 24  1  0  0  0  0
 23 25  1  0  0  0  0
 24 25  1  0  0  0  0
 25 22  1  1  0  0  0
 26 28  2  0  0  0  0
 27 28  1  0  0  0  0
M  END
>  <MODEL>
7

>  <REMARK>
 VINA RESULT:      -6.2      2.346      4.640
  Name = 
  7 active torsions:
  status: ('A' for Active; 'I' for Inactive)
    1  A    between atoms: O_1  and  C_17
    2  A    between atoms: O_1  and  C_20
    3  A    between atoms: C_2  and  C_22
    4  A    between atoms: C_3  and  N_27
    5  A    between atoms: C_10  and  C_17
    6  A    between atoms: C_10  and  C_26
    7  A    between atoms: C_18  and  C_26
                            x       y       z     vdW  Elec       q    Type
                         _______ _______ _______ _____ _____    ______ ____

>  <TORSDO>
F 7

$$$$
=
 OpenBabel11052410533D

 28 30  0  0  1  0  0  0  0  0999 V2000
  161.8560  209.1810  151.0150 C   0  0  0  0  0  0  0  0  0  0  0  0
  162.1190  209.9350  149.8670 C   0  0  0  0  0  3  0  0  0  0  0  0
  161.6000  208.0920  148.4920 C   0  0  0  0  0  0  0  0  0  0  0  0
  161.4730  207.5270  147.1930 N   0  0  0  0  0  1  0  0  0  0  0  0
  161.4380  207.8440  150.8480 C   0  0  0  0  0  0  0  0  0  0  0  0
  161.9830  209.3850  148.6350 N   0  0  0  0  0  0  0  0  0  0  0  0
  161.3380  207.3360  149.5890 N   0  0  0  0  0  0  0  0  0  0  0  0
  159.2620  211.5170  153.6900 N   0  0  0  0  0  2  0  0  0  0  0  0
  159.9330  210.7720  152.7180 N   0  0  0  0  0  0  0  0  0  0  0  0
  160.1780  211.6870  154.7550 C   0  0  0  0  0  0  0  0  0  0  0  0
  159.9060  212.3160  155.8110 O   0  0  0  0  0  0  0  0  0  0  0  0
  161.1380  210.4960  153.1070 C   0  0  0  0  0  0  0  0  0  0  0  0
  162.0640  209.7300  152.3270 N   0  0  0  0  0  2  0  0  0  0  0  0
  161.4750  211.0320  154.4610 C   0  0  0  0  0  2  0  0  0  0  0  0
  160.4560  207.4080  152.9430 O   0  0  0  0  0  0  0  0  0  0  0  0
  161.1310  206.9410  151.9830 C   0  0  0  0  0  0  0  0  0  0  0  0
  163.0000  205.4620  151.9640 O   0  0  0  0  0  1  0  0  0  0  0  0
  161.6050  205.4980  152.0530 C   0  0  1  0  0  0  0  0  0  0  0  0
  161.2100  204.9020  153.3950 C   0  0  0  0  0  1  0  0  0  0  0  0
  160.9910  204.6520  150.9530 C   0  0  0  0  0  0  0  0  0  0  0  0
  159.9280  204.0120  151.1770 O   0  0  0  0  0  0  0  0  0  0  0  0
  161.5860  204.5120  149.6930 O   0  0  0  0  0  0  0  0  0  0  0  0
  161.9190  203.5810  147.5100 C   0  0  2  0  0  3  0  0  0  0  0  0
  161.2070  202.5540  148.3710 C   0  0  0  0  0  2  0  0  0  0  0  0
  160.9020  204.0240  148.5480 C   0  0  1  0  0  3  0  0  0  0  0  0
  160.8280  202.5770  145.6390 O   0  0  0  0  0  1  0  0  0  0  0  0
  161.2880  204.8110  145.4260 O   0  0  0  0  0  0  0  0  0  0  0  0
  161.3020  203.6260  146.1510 C   0  0  0  0  0  0  0  0  0  0  0  0
  1 13  1  0  0  0  0
  2  1  2  0  0  0  0
  3  6  2  0  0  0  0
  3  7  1  0  0  0  0
  4  3  1  0  0  0  0
  5  1  1  0  0  0  0
  5 16  1  0  0  0  0
  6  2  1  0  0  0  0
  7  5  2  0  0  0  0
  8 10  1  0  0  0  0
  9 12  2  0  0  0  0
  9  8  1  0  0  0  0
 10 11  2  0  0  0  0
 12 14  1  0  0  0  0
 13 12  1  0  0  0  0
 14 10  1  0  0  0  0
 16 18  1  0  0  0  0
 16 15  2  0  0  0  0
 17 18  1  0  0  0  0
 18 19  1  1  0  0  0
 20 21  2  0  0  0  0
 20 18  1  0  0  0  0
 22 20  1  0  0  0  0
 23 28  1  6  0  0  0
 23 24  1  0  0  0  0
 23 25  1  0  0  0  0
 24 25  1  0  0  0  0
 25 22  1  1  0  0  0
 26 28  1  0  0  0  0
 27 28  2  0  0  0  0
M  END
>  <MODEL>
8

>  <REMARK>
 VINA RESULT:      -6.1      2.486      5.252
  Name = 
  7 active torsions:
  status: ('A' for Active; 'I' for Inactive)
    1  A    between atoms: O_1  and  C_17
    2  A    between atoms: O_1  and  C_20
    3  A    between atoms: C_2  and  C_22
    4  A    between atoms: C_3  and  N_27
    5  A    between atoms: C_10  and  C_17
    6  A    between atoms: C_10  and  C_26
    7  A    between atoms: C_18  and  C_26
                            x       y       z     vdW  Elec       q    Type
                         _______ _______ _______ _____ _____    ______ ____

>  <TORSDO>
F 7

$$$$
=
 OpenBabel11052410533D

 28 30  0  0  1  0  0  0  0  0999 V2000
  161.9160  209.5430  151.6920 C   0  0  0  0  0  0  0  0  0  0  0  0
  161.4430  210.3800  152.7080 C   0  0  0  0  0  3  0  0  0  0  0  0
  160.8340  208.5140  154.0150 C   0  0  0  0  0  0  0  0  0  0  0  0
  160.2720  207.9820  155.2070 N   0  0  0  0  0  1  0  0  0  0  0  0
  161.8390  208.1480  151.8950 C   0  0  0  0  0  0  0  0  0  0  0  0
  160.9190  209.8570  153.8450 N   0  0  0  0  0  0  0  0  0  0  0  0
  161.2850  207.6770  153.0450 N   0  0  0  0  0  0  0  0  0  0  0  0
  160.7290  213.0460  149.3130 N   0  0  0  0  0  2  0  0  0  0  0  0
  160.9670  211.9900  150.1950 N   0  0  0  0  0  0  0  0  0  0  0  0
  161.6540  212.8880  148.2540 C   0  0  0  0  0  0  0  0  0  0  0  0
  161.7240  213.6710  147.2710 O   0  0  0  0  0  0  0  0  0  0  0  0
  161.9270  211.2380  149.7570 C   0  0  0  0  0  0  0  0  0  0  0  0
  162.4070  210.0820  150.4550 N   0  0  0  0  0  2  0  0  0  0  0  0
  162.5120  211.6970  148.4600 C   0  0  0  0  0  2  0  0  0  0  0  0
  163.3800  206.5400  151.1320 O   0  0  0  0  0  0  0  0  0  0  0  0
  162.3030  207.1560  150.8950 C   0  0  0  0  0  0  0  0  0  0  0  0
  160.5200  207.7870  149.4440 O   0  0  0  0  0  1  0  0  0  0  0  0
  161.5600  206.8650  149.6010 C   0  0  1  0  0  0  0  0  0  0  0  0
  162.5100  207.0330  148.4260 C   0  0  0  0  0  1  0  0  0  0  0  0
  161.0100  205.4510  149.5760 C   0  0  0  0  0  0  0  0  0  0  0  0
  160.6040  204.9200  150.6460 O   0  0  0  0  0  0  0  0  0  0  0  0
  160.9760  204.6790  148.4080 O   0  0  0  0  0  0  0  0  0  0  0  0
  160.5400  202.3300  148.2220 C   0  0  2  0  0  3  0  0  0  0  0  0
  161.2270  202.7970  146.9520 C   0  0  0  0  0  2  0  0  0  0  0  0
  161.6040  203.4120  148.2810 C   0  0  1  0  0  3  0  0  0  0  0  0
  161.5170  200.1900  147.8180 O   0  0  0  0  0  0  0  0  0  0  0  0
  161.1820  200.7180  150.0210 O   0  0  0  0  0  1  0  0  0  0  0  0
  161.1190  201.0290  148.6690 C   0  0  0  0  0  0  0  0  0  0  0  0
  1  5  1  0  0  0  0
  1  2  2  0  0  0  0
  2  6  1  0  0  0  0
  3  4  1  0  0  0  0
  5  7  2  0  0  0  0
  6  3  2  0  0  0  0
  7  3  1  0  0  0  0
  8  9  1  0  0  0  0
 10 14  1  0  0  0  0
 10  8  1  0  0  0  0
 11 10  2  0  0  0  0
 12  9  2  0  0  0  0
 12 13  1  0  0  0  0
 13  1  1  0  0  0  0
 14 12  1  0  0  0  0
 16 15  2  0  0  0  0
 16  5  1  0  0  0  0
 17 18  1  0  0  0  0
 18 19  1  6  0  0  0
 18 16  1  0  0  0  0
 20 18  1  0  0  0  0
 20 21  2  0  0  0  0
 22 20  1  0  0  0  0
 23 25  1  0  0  0  0
 23 28  1  1  0  0  0
 24 23  1  0  0  0  0
 24 25  1  0  0  0  0
 25 22  1  6  0  0  0
 26 28  2  0  0  0  0
 28 27  1  0  0  0  0
M  END
>  <MODEL>
9

>  <REMARK>
 VINA RESULT:      -5.9      2.637      4.369
  Name = 
  7 active torsions:
  status: ('A' for Active; 'I' for Inactive)
    1  A    between atoms: O_1  and  C_17
    2  A    between atoms: O_1  and  C_20
    3  A    between atoms: C_2  and  C_22
    4  A    between atoms: C_3  and  N_27
    5  A    between atoms: C_10  and  C_17
    6  A    between atoms: C_10  and  C_26
    7  A    between atoms: C_18  and  C_26
                            x       y       z     vdW  Elec       q    Type
                         _______ _______ _______ _____ _____    ______ ____

>  <TORSDO>
F 7

$$$$
