=
 OpenBabel11052412123D

 56 60  0  0  1  0  0  0  0  0999 V2000
  159.6810  213.7910  150.5670 C   0  0  0  0  0  3  0  0  0  0  0  0
  159.0000  212.8240  151.4680 C   0  0  0  0  0  2  0  0  0  0  0  0
  160.9610  211.4280  152.0130 C   0  0  0  0  0  3  0  0  0  0  0  0
  160.6690  213.4470  149.7350 C   0  0  0  0  0  0  0  0  0  0  0  0
  159.9770  212.2250  152.4380 C   0  0  0  0  0  0  0  0  0  0  0  0
  161.1570  212.0550  149.6070 C   0  0  0  0  0  3  0  0  0  0  0  0
  161.2510  211.1350  150.5910 C   0  0  0  0  0  0  0  0  0  0  0  0
  160.3490  209.5930  156.1080 C   0  0  0  0  0  0  0  0  0  0  0  0
  157.5430  211.6110  154.5080 C   0  0  0  0  0  2  0  0  0  0  0  0
  161.3990  210.3140  156.3470 N   0  0  0  0  0  0  0  0  0  0  0  0
  161.3840  211.4390  155.5190 N   0  0  0  0  0  0  0  0  0  0  0  0
  158.4280  212.8530  154.3090 C   0  0  0  0  0  2  0  0  0  0  0  0
  158.1640  210.6420  155.5160 C   0  0  0  0  0  2  0  0  0  0  0  0
  159.8670  212.5090  153.9030 C   0  0  1  0  0  3  0  0  0  0  0  0
  160.3580  211.3680  154.7390 C   0  0  0  0  0  0  0  0  0  0  0  0
  159.5210  210.1690  155.0130 C   0  0  1  0  0  3  0  0  0  0  0  0
  160.0930  208.2950  156.7830 C   0  0  0  0  0  2  0  0  0  0  0  0
  160.8900  207.2990  156.2180 O   0  0  0  0  0  0  0  0  0  0  0  0
  160.2420  206.9380  155.0330 C   0  0  0  0  0  2  0  0  0  0  0  0
  161.2650  206.7290  153.9300 C   0  0  0  0  0  2  0  0  0  0  0  0
  161.1780  205.3740  153.4140 N   0  0  0  0  0  2  0  0  0  0  0  0
  161.3500  205.4550  151.9690 C   0  0  1  0  0  3  0  0  0  0  0  0
  162.6970  206.0710  151.6410 C   0  0  0  0  0  1  0  0  0  0  0  0
  160.7600  202.6220  147.8940 C   0  0  0  0  0  1  0  0  0  0  0  0
  160.9200  201.5720  150.1580 C   0  0  0  0  0  3  0  0  0  0  0  0
  161.2030  202.9310  152.1440 C   0  0  0  0  0  3  0  0  0  0  0  0
  161.0640  201.6730  151.5460 C   0  0  0  0  0  3  0  0  0  0  0  0
  161.0510  203.9880  149.9680 C   0  0  0  0  0  3  0  0  0  0  0  0
  160.9120  202.7300  149.3710 C   0  0  0  0  0  0  0  0  0  0  0  0
  161.2020  204.0940  151.3530 C   0  0  0  0  0  0  0  0  0  0  0  0
  161.6950  209.7310  150.2640 C   0  0  2  0  0  3  0  0  0  0  0  0
  162.6820  209.2400  151.2160 N   0  0  0  0  0  1  0  0  0  0  0  0
  160.3520  207.3900  149.3680 O   0  0  0  0  0  0  0  0  0  0  0  0
  162.0380  208.4040  148.0860 N   0  0  0  0  0  2  0  0  0  0  0  0
  162.2220  209.6080  148.8460 C   0  0  0  0  0  0  0  0  0  0  0  0
  162.8360  210.5750  148.2960 O   0  0  0  0  0  0  0  0  0  0  0  0
  161.1780  207.3020  148.4170 C   0  0  0  0  0  0  0  0  0  0  0  0
  161.2080  206.1280  147.6600 O   0  0  0  0  0  0  0  0  0  0  0  0
  160.8600  206.1160  146.2810 C   0  0  0  0  0  2  0  0  0  0  0  0
  161.2580  204.2460  144.8470 O   0  0  0  0  0  1  0  0  0  0  0  0
  161.8800  205.3290  145.4680 C   0  0  2  0  0  3  0  0  0  0  0  0
  164.0190  204.2760  145.5350 O   0  0  0  0  0  1  0  0  0  0  0  0
  163.0230  204.8320  146.3350 C   0  0  0  0  0  2  0  0  0  0  0  0
  161.1770  214.4530  148.7460 C   0  0  0  0  0  2  0  0  0  0  0  0
  161.9950  213.7130  146.4180 C   0  0  0  0  0  3  0  0  0  0  0  0
  160.8800  214.0550  147.3390 C   0  0  0  0  0  0  0  0  0  0  0  0
  159.6060  214.0170  146.9220 C   0  0  0  0  0  3  0  0  0  0  0  0
  158.0940  213.6980  145.1260 O   0  0  0  0  0  0  0  0  0  0  0  0
  159.2890  213.6720  145.5210 C   0  0  0  0  0  0  0  0  0  0  0  0
  160.3930  213.3430  144.5940 C   0  0  0  0  0  0  0  0  0  0  0  0
  161.7700  213.3780  145.1290 C   0  0  0  0  0  3  0  0  0  0  0  0
  160.1260  213.0200  143.3580 N   0  0  0  0  0  0  0  0  0  0  0  0
  160.7640  211.3740  141.3990 O   0  0  0  0  0  0  0  0  0  0  0  0
  161.4300  213.9500  140.9560 C   0  0  0  0  0  1  0  0  0  0  0  0
  162.6270  212.2800  142.7030 O   0  0  0  0  0  0  0  0  0  0  0  0
  161.2740  212.5940  142.1220 S   0  0  0  0  0  0  0  0  0  0  0  0
  1  2  1  0  0  0  0
  2  5  1  0  0  0  0
  3  5  2  0  0  0  0
  4  1  2  0  0  0  0
  6  4  1  0  0  0  0
  6  7  2  0  0  0  0
  7  3  1  0  0  0  0
  8 10  2  0  0  0  0
  8 17  1  0  0  0  0
  9 13  1  0  0  0  0
 11 10  1  0  0  0  0
 12  9  1  0  0  0  0
 14  5  1  6  0  0  0
 14 12  1  0  0  0  0
 14 15  1  0  0  0  0
 15 16  1  0  0  0  0
 15 11  2  0  0  0  0
 16 13  1  1  0  0  0
 16  8  1  0  0  0  0
 18 17  1  0  0  0  0
 19 18  1  0  0  0  0
 20 19  1  0  0  0  0
 21 20  1  0  0  0  0
 22 23  1  1  0  0  0
 22 21  1  0  0  0  0
 24 29  1  0  0  0  0
 25 27  1  0  0  0  0
 27 26  2  0  0  0  0
 28 30  2  0  0  0  0
 29 28  1  0  0  0  0
 29 25  2  0  0  0  0
 30 22  1  0  0  0  0
 30 26  1  0  0  0  0
 31  7  1  0  0  0  0
 31 32  1  1  0  0  0
 34 37  1  0  0  0  0
 34 35  1  0  0  0  0
 35 31  1  0  0  0  0
 36 35  2  0  0  0  0
 37 33  2  0  0  0  0
 38 37  1  0  0  0  0
 39 38  1  0  0  0  0
 41 40  1  1  0  0  0
 41 39  1  0  0  0  0
 41 43  1  0  0  0  0
 42 43  1  0  0  0  0
 44  4  1  0  0  0  0
 45 46  1  0  0  0  0
 46 44  1  0  0  0  0
 47 46  2  0  0  0  0
 48 49  2  0  0  0  0
 49 47  1  0  0  0  0
 50 51  1  0  0  0  0
 50 49  1  0  0  0  0
 51 45  2  0  0  0  0
 52 50  2  0  0  0  0
 53 56  2  0  0  0  0
 54 56  1  0  0  0  0
 56 55  2  0  0  0  0
 56 52  1  0  0  0  0
M  END
>  <MODEL>
1

>  <REMARK>
 VINA RESULT:      -7.3      0.000      0.000
  Name = 
  17 active torsions:
  status: ('A' for Active; 'I' for Inactive)
    1  A    between atoms: C_5  and  C_43
    2  A    between atoms: C_7  and  N_32
    3  A    between atoms: C_7  and  C_52
    4  A    between atoms: C_9  and  C_34
    5  A    between atoms: C_9  and  C_48
    6  A    between atoms: C_17  and  C_33
    7  A    between atoms: C_17  and  C_46
    8  A    between atoms: C_18  and  C_55
    9  A    between atoms: C_25  and  C_44
   10  A    between atoms: C_25  and  O_47
   11  A    between atoms: C_27  and  C_55
   12  A    between atoms: N_32  and  C_44
   13  A    between atoms: C_34  and  O_51
   14  A    between atoms: S_35  and  N_56
   15  A    between atoms: C_38  and  C_39
   16  A    between atoms: C_43  and  O_47
   17  A    between atoms: O_51  and  C_53
                            x       y       z     vdW  Elec       q    Type
                         _______ _______ _______ _____ _____    ______ ____

>  <TORSDO>
F 17

$$$$
=
 OpenBabel11052412123D

 56 60  0  0  1  0  0  0  0  0999 V2000
  160.8740  204.8020  151.1620 C   0  0  0  0  0  3  0  0  0  0  0  0
  160.4520  204.7970  149.7370 C   0  0  0  0  0  2  0  0  0  0  0  0
  162.0470  206.4850  148.9030 C   0  0  0  0  0  3  0  0  0  0  0  0
  161.2760  205.9030  151.8040 C   0  0  0  0  0  0  0  0  0  0  0  0
  161.5800  205.2350  148.8480 C   0  0  0  0  0  0  0  0  0  0  0  0
  161.3030  207.2370  151.1610 C   0  0  0  0  0  3  0  0  0  0  0  0
  161.5970  207.5100  149.8720 C   0  0  0  0  0  0  0  0  0  0  0  0
  161.7980  205.1570  144.3220 C   0  0  0  0  0  0  0  0  0  0  0  0
  160.2000  202.9520  146.9840 C   0  0  0  0  0  2  0  0  0  0  0  0
  163.0670  205.3260  144.5200 N   0  0  0  0  0  0  0  0  0  0  0  0
  163.3600  205.0880  145.8650 N   0  0  0  0  0  0  0  0  0  0  0  0
  161.4670  202.9330  147.8580 C   0  0  0  0  0  2  0  0  0  0  0  0
  160.5140  203.4130  145.5600 C   0  0  0  0  0  2  0  0  0  0  0  0
  162.2030  204.2790  147.8800 C   0  0  1  0  0  3  0  0  0  0  0  0
  162.2600  204.8350  146.4920 C   0  0  0  0  0  0  0  0  0  0  0  0
  161.0820  204.8250  145.5850 C   0  0  1  0  0  3  0  0  0  0  0  0
  161.1510  205.3890  143.0060 C   0  0  0  0  0  2  0  0  0  0  0  0
  161.7080  206.5090  142.3910 O   0  0  0  0  0  0  0  0  0  0  0  0
  162.1300  206.0670  141.1330 C   0  0  0  0  0  2  0  0  0  0  0  0
  162.4610  207.2600  140.2520 C   0  0  0  0  0  2  0  0  0  0  0  0
  161.3110  208.1420  140.1500 N   0  0  0  0  0  2  0  0  0  0  0  0
  161.4150  208.8330  138.8710 C   0  0  1  0  0  3  0  0  0  0  0  0
  160.2130  208.5050  138.0060 C   0  0  0  0  0  1  0  0  0  0  0  0
  164.2870  212.9220  138.9670 C   0  0  0  0  0  1  0  0  0  0  0  0
  161.8460  213.0720  139.4910 C   0  0  0  0  0  3  0  0  0  0  0  0
  160.4410  211.0980  139.4520 C   0  0  0  0  0  3  0  0  0  0  0  0
  160.5900  212.4770  139.6510 C   0  0  0  0  0  3  0  0  0  0  0  0
  162.8020  210.9100  138.9390 C   0  0  0  0  0  3  0  0  0  0  0  0
  162.9510  212.2880  139.1370 C   0  0  0  0  0  0  0  0  0  0  0  0
  161.5490  210.3120  139.0900 C   0  0  0  0  0  0  0  0  0  0  0  0
  161.4960  208.9260  149.3640 C   0  0  2  0  0  3  0  0  0  0  0  0
  161.9590  209.0430  147.9890 N   0  0  0  0  0  1  0  0  0  0  0  0
  160.6460  211.4100  148.2690 O   0  0  0  0  0  0  0  0  0  0  0  0
  162.3300  211.3000  149.9020 N   0  0  0  0  0  2  0  0  0  0  0  0
  162.2290  209.9120  150.2550 C   0  0  0  0  0  0  0  0  0  0  0  0
  162.7680  209.5290  151.3400 O   0  0  0  0  0  0  0  0  0  0  0  0
  161.6020  211.9790  148.8670 C   0  0  0  0  0  0  0  0  0  0  0  0
  161.9080  213.3010  148.5350 O   0  0  0  0  0  0  0  0  0  0  0  0
  162.7300  213.6230  147.4190 C   0  0  0  0  0  2  0  0  0  0  0  0
  162.9370  213.3690  145.0520 O   0  0  0  0  0  1  0  0  0  0  0  0
  162.0330  213.2740  146.1100 C   0  0  2  0  0  3  0  0  0  0  0  0
  159.6920  213.4190  145.6760 O   0  0  0  0  0  1  0  0  0  0  0  0
  160.8450  214.1820  145.8490 C   0  0  0  0  0  2  0  0  0  0  0  0
  161.5200  205.8420  153.2830 C   0  0  0  0  0  2  0  0  0  0  0  0
  160.8080  208.3170  153.2450 C   0  0  0  0  0  3  0  0  0  0  0  0
  160.9870  207.0430  153.9890 C   0  0  0  0  0  0  0  0  0  0  0  0
  160.6820  206.9580  155.2920 C   0  0  0  0  0  3  0  0  0  0  0  0
  159.9720  208.0690  157.2600 O   0  0  0  0  0  0  0  0  0  0  0  0
  160.1980  208.1460  156.0240 C   0  0  0  0  0  0  0  0  0  0  0  0
  160.0290  209.4210  155.2940 C   0  0  0  0  0  0  0  0  0  0  0  0
  160.3580  209.4350  153.8540 C   0  0  0  0  0  3  0  0  0  0  0  0
  159.5850  210.4740  155.9250 N   0  0  0  0  0  0  0  0  0  0  0  0
  157.8520  212.1700  154.8890 O   0  0  0  0  0  0  0  0  0  0  0  0
  159.7200  213.3070  156.4690 C   0  0  0  0  0  1  0  0  0  0  0  0
  160.1340  212.2800  154.0100 O   0  0  0  0  0  0  0  0  0  0  0  0
  159.3100  212.0540  155.2490 S   0  0  0  0  0  0  0  0  0  0  0  0
  1  4  2  0  0  0  0
  2  1  1  0  0  0  0
  3  7  1  0  0  0  0
  4 44  1  0  0  0  0
  5  3  2  0  0  0  0
  5  2  1  0  0  0  0
  6  4  1  0  0  0  0
  7  6  2  0  0  0  0
  8 10  2  0  0  0  0
  8 16  1  0  0  0  0
  9 12  1  0  0  0  0
 10 11  1  0  0  0  0
 11 15  2  0  0  0  0
 12 14  1  0  0  0  0
 13  9  1  0  0  0  0
 14  5  1  1  0  0  0
 15 14  1  0  0  0  0
 16 13  1  6  0  0  0
 16 15  1  0  0  0  0
 17  8  1  0  0  0  0
 18 17  1  0  0  0  0
 19 18  1  0  0  0  0
 20 19  1  0  0  0  0
 21 20  1  0  0  0  0
 22 23  1  6  0  0  0
 22 30  1  0  0  0  0
 22 21  1  0  0  0  0
 24 29  1  0  0  0  0
 25 27  1  0  0  0  0
 26 27  2  0  0  0  0
 28 30  2  0  0  0  0
 28 29  1  0  0  0  0
 29 25  2  0  0  0  0
 30 26  1  0  0  0  0
 31 32  1  6  0  0  0
 31  7  1  0  0  0  0
 31 35  1  0  0  0  0
 33 37  2  0  0  0  0
 34 35  1  0  0  0  0
 35 36  2  0  0  0  0
 37 34  1  0  0  0  0
 38 37  1  0  0  0  0
 39 38  1  0  0  0  0
 41 40  1  6  0  0  0
 41 39  1  0  0  0  0
 42 43  1  0  0  0  0
 43 41  1  0  0  0  0
 44 46  1  0  0  0  0
 45 51  2  0  0  0  0
 45 46  1  0  0  0  0
 46 47  2  0  0  0  0
 47 49  1  0  0  0  0
 49 48  2  0  0  0  0
 50 52  2  0  0  0  0
 50 49  1  0  0  0  0
 51 50  1  0  0  0  0
 53 56  2  0  0  0  0
 55 56  2  0  0  0  0
 56 52  1  0  0  0  0
 56 54  1  0  0  0  0
M  END
>  <MODEL>
2

>  <REMARK>
 VINA RESULT:      -4.3      3.337     11.038
  Name = 
  17 active torsions:
  status: ('A' for Active; 'I' for Inactive)
    1  A    between atoms: C_5  and  C_43
    2  A    between atoms: C_7  and  N_32
    3  A    between atoms: C_7  and  C_52
    4  A    between atoms: C_9  and  C_34
    5  A    between atoms: C_9  and  C_48
    6  A    between atoms: C_17  and  C_33
    7  A    between atoms: C_17  and  C_46
    8  A    between atoms: C_18  and  C_55
    9  A    between atoms: C_25  and  C_44
   10  A    between atoms: C_25  and  O_47
   11  A    between atoms: C_27  and  C_55
   12  A    between atoms: N_32  and  C_44
   13  A    between atoms: C_34  and  O_51
   14  A    between atoms: S_35  and  N_56
   15  A    between atoms: C_38  and  C_39
   16  A    between atoms: C_43  and  O_47
   17  A    between atoms: O_51  and  C_53
                            x       y       z     vdW  Elec       q    Type
                         _______ _______ _______ _____ _____    ______ ____

>  <TORSDO>
F 17

$$$$
