=
 OpenBabel11052410253D

 36 40  0  0  1  0  0  0  0  0999 V2000
  162.2390  209.2130  150.3630 C   0  0  0  0  0  3  0  0  0  0  0  0
  161.5970  207.4260  152.4040 C   0  0  0  0  0  3  0  0  0  0  0  0
  161.9440  206.9350  151.1370 C   0  0  0  0  0  0  0  0  0  0  0  0
  161.5760  208.8040  152.6540 C   0  0  0  0  0  0  0  0  0  0  0  0
  162.2670  207.8340  150.1080 C   0  0  0  0  0  0  0  0  0  0  0  0
  161.8930  209.6950  151.6270 C   0  0  0  0  0  3  0  0  0  0  0  0
  162.6200  207.3160  148.8150 N   0  0  0  0  0  2  0  0  0  0  0  0
  161.7260  206.8570  147.7900 C   0  0  0  0  0  0  0  0  0  0  0  0
  160.4800  206.8770  147.9720 O   0  0  0  0  0  0  0  0  0  0  0  0
  162.2150  206.3820  146.5670 O   0  0  0  0  0  0  0  0  0  0  0  0
  161.7890  204.3690  145.4870 O   0  0  0  0  0  1  0  0  0  0  0  0
  160.4450  206.1400  144.9560 O   0  0  0  0  0  0  0  0  0  0  0  0
  161.5010  205.5830  145.6650 C   0  0  0  0  0  0  0  0  0  0  0  0
  161.1880  209.3410  153.9970 C   0  0  2  0  0  3  0  0  0  0  0  0
  160.6500  208.3310  154.8000 O   0  0  0  0  0  1  0  0  0  0  0  0
  158.5380  212.6880  153.6320 C   0  0  0  0  0  0  0  0  0  0  0  0
  160.2510  211.5390  154.8190 C   0  0  0  0  0  0  0  0  0  0  0  0
  160.2370  210.4980  153.8760 C   0  0  0  0  0  0  0  0  0  0  0  0
  161.0420  211.5060  155.8000 O   0  0  0  0  0  0  0  0  0  0  0  0
  158.4890  211.6710  152.6750 C   0  0  0  0  0  2  0  0  0  0  0  0
  159.4040  212.5950  154.6790 N   0  0  0  0  0  0  0  0  0  0  0  0
  159.3470  210.5780  152.7970 C   0  0  0  0  0  3  0  0  0  0  0  0
  156.3030  213.5350  154.1630 C   0  0  2  0  0  3  0  0  0  0  0  0
  157.2730  214.3060  154.8250 O   0  0  0  0  0  0  0  0  0  0  0  0
  157.6060  213.8530  153.5340 C   0  0  1  0  0  3  0  0  0  0  0  0
  155.2330  214.4520  153.6110 C   0  0  0  0  0  1  0  0  0  0  0  0
  161.9670  205.5590  150.8740 O   0  0  0  0  0  0  0  0  0  0  0  0
  160.8160  204.7220  150.9760 C   0  0  2  0  0  3  0  0  0  0  0  0
  160.8630  202.6190  149.7800 C   0  0  1  0  0  0  0  0  0  0  0  0
  161.7380  203.5140  148.9360 C   0  0  0  0  0  2  0  0  0  0  0  0
  161.0520  203.6050  151.9850 C   0  0  0  0  0  2  0  0  0  0  0  0
  161.3160  202.3390  151.1960 C   0  0  0  0  0  2  0  0  0  0  0  0
  160.4950  204.0780  149.6290 C   0  0  2  0  0  3  0  0  0  0  0  0
  159.9500  201.6770  149.0700 C   0  0  0  0  0  0  0  0  0  0  0  0
  158.8950  201.2740  149.6270 O   0  0  0  0  0  1  0  0  0  0  0  0
  160.2800  201.2120  147.8030 O   0  0  0  0  0  0  0  0  0  0  0  0
  1  6  1  0  0  0  0
  2  4  1  0  0  0  0
  3  2  2  0  0  0  0
  4 14  1  0  0  0  0
  5  1  2  0  0  0  0
  5  3  1  0  0  0  0
  6  4  2  0  0  0  0
  7  5  1  0  0  0  0
  8  9  2  0  0  0  0
  8  7  1  0  0  0  0
 10  8  1  0  0  0  0
 11 13  1  0  0  0  0
 12 13  2  0  0  0  0
 13 10  1  0  0  0  0
 14 15  1  1  0  0  0
 16 21  2  0  0  0  0
 17 19  2  0  0  0  0
 18 14  1  0  0  0  0
 18 17  1  0  0  0  0
 20 22  1  0  0  0  0
 20 16  1  0  0  0  0
 21 17  1  0  0  0  0
 22 18  2  0  0  0  0
 23 26  1  6  0  0  0
 23 24  1  0  0  0  0
 25 16  1  1  0  0  0
 25 23  1  0  0  0  0
 25 24  1  0  0  0  0
 27  3  1  0  0  0  0
 28 27  1  6  0  0  0
 28 31  1  0  0  0  0
 29 34  1  6  0  0  0
 29 32  1  0  0  0  0
 30 29  1  0  0  0  0
 32 31  1  0  0  0  0
 33 30  1  6  0  0  0
 33 29  1  0  0  0  0
 33 28  1  0  0  0  0
 34 35  1  0  0  0  0
 36 34  2  0  0  0  0
M  END
>  <MODEL>
1

>  <REMARK>
 VINA RESULT:      -8.3      0.000      0.000
  Name = 
  9 active torsions:
  status: ('A' for Active; 'I' for Inactive)
    1  A    between atoms: C_3  and  C_5
    2  A    between atoms: N_4  and  C_23
    3  A    between atoms: C_6  and  O_26
    4  A    between atoms: C_10  and  C_12
    5  A    between atoms: C_10  and  C_21
    6  A    between atoms: C_13  and  O_26
    7  A    between atoms: C_14  and  C_15
    8  A    between atoms: C_22  and  O_25
    9  A    between atoms: O_25  and  C_35
                            x       y       z     vdW  Elec       q    Type
                         _______ _______ _______ _____ _____    ______ ____

>  <TORSDO>
F 9

$$$$
=
 OpenBabel11052410253D

 36 40  0  0  1  0  0  0  0  0999 V2000
  162.0860  209.4350  151.2730 C   0  0  0  0  0  3  0  0  0  0  0  0
  161.9310  210.0160  148.5500 C   0  0  0  0  0  3  0  0  0  0  0  0
  162.1450  208.6930  148.9660 C   0  0  0  0  0  0  0  0  0  0  0  0
  161.7900  211.0450  149.4900 C   0  0  0  0  0  0  0  0  0  0  0  0
  162.2230  208.4000  150.3360 C   0  0  0  0  0  0  0  0  0  0  0  0
  161.8730  210.7500  150.8520 C   0  0  0  0  0  3  0  0  0  0  0  0
  162.4430  207.0410  150.7470 N   0  0  0  0  0  2  0  0  0  0  0  0
  161.7890  206.3390  151.8150 C   0  0  0  0  0  0  0  0  0  0  0  0
  160.9150  206.9140  152.5160 O   0  0  0  0  0  0  0  0  0  0  0  0
  162.1020  205.0040  152.0990 O   0  0  0  0  0  0  0  0  0  0  0  0
  160.1750  204.0190  151.2510 O   0  0  0  0  0  0  0  0  0  0  0  0
  161.9010  202.6260  151.8010 O   0  0  0  0  0  1  0  0  0  0  0  0
  161.3450  203.8940  151.7020 C   0  0  0  0  0  0  0  0  0  0  0  0
  161.5810  212.4630  149.0590 C   0  0  2  0  0  3  0  0  0  0  0  0
  160.5820  213.0740  149.8220 O   0  0  0  0  0  1  0  0  0  0  0  0
  160.7400  212.6590  144.8610 C   0  0  0  0  0  0  0  0  0  0  0  0
  162.2530  212.9620  146.6740 C   0  0  0  0  0  0  0  0  0  0  0  0
  161.2710  212.5540  147.5910 C   0  0  1  0  0  3  0  0  0  0  0  0
  163.4050  213.2850  147.0690 O   0  0  0  0  0  0  0  0  0  0  0  0
  159.7340  212.2540  145.7420 C   0  0  0  0  0  3  0  0  0  0  0  0
  161.9640  213.0100  145.3450 N   0  0  0  0  0  0  0  0  0  0  0  0
  160.0050  212.1960  147.1090 C   0  0  0  0  0  3  0  0  0  0  0  0
  161.5420  212.1140  142.6140 C   0  0  2  0  0  3  0  0  0  0  0  0
  160.3200  211.4640  142.8530 O   0  0  0  0  0  0  0  0  0  0  0  0
  160.4600  212.7550  143.3960 C   0  0  1  0  0  3  0  0  0  0  0  0
  161.5430  212.6620  141.2020 C   0  0  0  0  0  1  0  0  0  0  0  0
  162.2910  207.6560  148.0350 O   0  0  0  0  0  0  0  0  0  0  0  0
  161.1870  206.9790  147.4360 C   0  0  2  0  0  3  0  0  0  0  0  0
  161.5720  204.7370  146.6120 C   0  0  1  0  0  0  0  0  0  0  0  0
  162.9200  205.3980  146.4550 C   0  0  0  0  0  2  0  0  0  0  0  0
  160.5630  205.9970  148.4190 C   0  0  0  0  0  2  0  0  0  0  0  0
  161.0200  204.6100  148.0140 C   0  0  0  0  0  2  0  0  0  0  0  0
  161.6360  206.1930  146.2070 C   0  0  2  0  0  3  0  0  0  0  0  0
  161.1250  203.8160  145.5280 C   0  0  0  0  0  0  0  0  0  0  0  0
  160.7170  204.2780  144.4300 O   0  0  0  0  0  0  0  0  0  0  0  0
  161.1220  202.4430  145.7410 O   0  0  0  0  0  1  0  0  0  0  0  0
  2  3  2  0  0  0  0
  2  4  1  0  0  0  0
  3  5  1  0  0  0  0
  4  6  2  0  0  0  0
  5  7  1  0  0  0  0
  5  1  2  0  0  0  0
  6  1  1  0  0  0  0
  7  8  1  0  0  0  0
  8 10  1  0  0  0  0
  8  9  2  0  0  0  0
 11 13  2  0  0  0  0
 13 12  1  0  0  0  0
 13 10  1  0  0  0  0
 14  4  1  0  0  0  0
 14 15  1  1  0  0  0
 16 21  2  0  0  0  0
 16 20  1  0  0  0  0
 17 19  2  0  0  0  0
 17 18  1  0  0  0  0
 18 14  1  6  0  0  0
 20 22  2  0  0  0  0
 21 17  1  0  0  0  0
 22 18  1  0  0  0  0
 23 26  1  6  0  0  0
 23 24  1  0  0  0  0
 23 25  1  0  0  0  0
 24 25  1  0  0  0  0
 25 16  1  1  0  0  0
 27  3  1  0  0  0  0
 28 27  1  1  0  0  0
 28 31  1  0  0  0  0
 29 34  1  6  0  0  0
 29 32  1  0  0  0  0
 30 29  1  0  0  0  0
 32 31  1  0  0  0  0
 33 30  1  1  0  0  0
 33 29  1  0  0  0  0
 33 28  1  0  0  0  0
 34 36  1  0  0  0  0
 35 34  2  0  0  0  0
M  END
>  <MODEL>
2

>  <REMARK>
 VINA RESULT:      -8.1      3.983      6.682
  Name = 
  9 active torsions:
  status: ('A' for Active; 'I' for Inactive)
    1  A    between atoms: C_3  and  C_5
    2  A    between atoms: N_4  and  C_23
    3  A    between atoms: C_6  and  O_26
    4  A    between atoms: C_10  and  C_12
    5  A    between atoms: C_10  and  C_21
    6  A    between atoms: C_13  and  O_26
    7  A    between atoms: C_14  and  C_15
    8  A    between atoms: C_22  and  O_25
    9  A    between atoms: O_25  and  C_35
                            x       y       z     vdW  Elec       q    Type
                         _______ _______ _______ _____ _____    ______ ____

>  <TORSDO>
F 9

$$$$
=
 OpenBabel11052410253D

 36 40  0  0  1  0  0  0  0  0999 V2000
  161.4100  206.5660  153.3700 C   0  0  0  0  0  3  0  0  0  0  0  0
  162.0280  208.6930  151.6760 C   0  0  0  0  0  3  0  0  0  0  0  0
  162.1620  207.3750  151.2120 C   0  0  0  0  0  0  0  0  0  0  0  0
  161.5830  208.9480  152.9790 C   0  0  0  0  0  0  0  0  0  0  0  0
  161.8510  206.3040  152.0650 C   0  0  0  0  0  0  0  0  0  0  0  0
  161.2790  207.8800  153.8250 C   0  0  0  0  0  3  0  0  0  0  0  0
  161.9930  204.9600  151.5760 N   0  0  0  0  0  2  0  0  0  0  0  0
  160.9440  204.0620  151.1860 C   0  0  0  0  0  0  0  0  0  0  0  0
  159.7380  204.4200  151.2540 O   0  0  0  0  0  0  0  0  0  0  0  0
  161.2330  202.7740  150.7190 O   0  0  0  0  0  0  0  0  0  0  0  0
  161.2170  202.4640  148.4160 O   0  0  0  0  0  0  0  0  0  0  0  0
  159.6470  201.3310  149.6290 O   0  0  0  0  0  1  0  0  0  0  0  0
  160.7220  202.2060  149.5450 C   0  0  0  0  0  0  0  0  0  0  0  0
  161.4550  210.3490  153.4910 C   0  0  2  0  0  3  0  0  0  0  0  0
  162.4370  210.6200  154.4490 O   0  0  0  0  0  1  0  0  0  0  0  0
  157.5060  211.0560  154.9980 C   0  0  0  0  0  0  0  0  0  0  0  0
  159.1380  211.3390  153.2890 C   0  0  0  0  0  0  0  0  0  0  0  0
  160.0810  210.6150  154.0380 C   0  0  1  0  0  3  0  0  0  0  0  0
  159.4390  211.8020  152.1560 O   0  0  0  0  0  0  0  0  0  0  0  0
  158.4160  210.3360  155.7770 C   0  0  0  0  0  3  0  0  0  0  0  0
  157.8890  211.5450  153.7860 N   0  0  0  0  0  0  0  0  0  0  0  0
  159.7030  210.1110  155.2900 C   0  0  0  0  0  3  0  0  0  0  0  0
  156.1140  212.5800  156.3130 C   0  0  2  0  0  3  0  0  0  0  0  0
  155.6580  212.5470  154.9850 O   0  0  0  0  0  0  0  0  0  0  0  0
  156.1310  211.3320  155.5160 C   0  0  1  0  0  3  0  0  0  0  0  0
  154.9220  212.5710  157.2460 C   0  0  0  0  0  1  0  0  0  0  0  0
  162.6090  207.1070  149.9120 O   0  0  0  0  0  0  0  0  0  0  0  0
  161.8630  207.4380  148.7420 C   0  0  2  0  0  3  0  0  0  0  0  0
  161.5210  205.6860  147.1080 C   0  0  1  0  0  0  0  0  0  0  0  0
  162.8440  205.3200  147.7350 C   0  0  0  0  0  2  0  0  0  0  0  0
  160.4270  206.9470  148.8650 C   0  0  0  0  0  2  0  0  0  0  0  0
  160.3060  205.7030  148.0100 C   0  0  0  0  0  2  0  0  0  0  0  0
  162.4780  206.7880  147.5060 C   0  0  2  0  0  3  0  0  0  0  0  0
  161.3770  205.4960  145.6370 C   0  0  0  0  0  0  0  0  0  0  0  0
  162.1240  204.6880  145.0250 O   0  0  0  0  0  1  0  0  0  0  0  0
  160.4400  206.2380  144.9280 O   0  0  0  0  0  0  0  0  0  0  0  0
  1  6  1  0  0  0  0
  2  4  1  0  0  0  0
  3  2  2  0  0  0  0
  3  5  1  0  0  0  0
  4 14  1  0  0  0  0
  4  6  2  0  0  0  0
  5  1  2  0  0  0  0
  7  5  1  0  0  0  0
  8  9  2  0  0  0  0
  8  7  1  0  0  0  0
 10  8  1  0  0  0  0
 11 13  2  0  0  0  0
 13 12  1  0  0  0  0
 13 10  1  0  0  0  0
 14 15  1  1  0  0  0
 16 20  1  0  0  0  0
 17 21  1  0  0  0  0
 17 18  1  0  0  0  0
 18 14  1  6  0  0  0
 18 22  1  0  0  0  0
 19 17  2  0  0  0  0
 21 16  2  0  0  0  0
 22 20  2  0  0  0  0
 23 26  1  1  0  0  0
 24 25  1  0  0  0  0
 24 23  1  0  0  0  0
 25 16  1  6  0  0  0
 25 23  1  0  0  0  0
 27  3  1  0  0  0  0
 28 31  1  0  0  0  0
 28 27  1  1  0  0  0
 29 34  1  6  0  0  0
 29 33  1  0  0  0  0
 29 30  1  0  0  0  0
 29 32  1  0  0  0  0
 32 31  1  0  0  0  0
 33 30  1  1  0  0  0
 33 28  1  0  0  0  0
 35 34  1  0  0  0  0
 36 34  2  0  0  0  0
M  END
>  <MODEL>
3

>  <REMARK>
 VINA RESULT:      -7.5      1.885      3.743
  Name = 
  9 active torsions:
  status: ('A' for Active; 'I' for Inactive)
    1  A    between atoms: C_3  and  C_5
    2  A    between atoms: N_4  and  C_23
    3  A    between atoms: C_6  and  O_26
    4  A    between atoms: C_10  and  C_12
    5  A    between atoms: C_10  and  C_21
    6  A    between atoms: C_13  and  O_26
    7  A    between atoms: C_14  and  C_15
    8  A    between atoms: C_22  and  O_25
    9  A    between atoms: O_25  and  C_35
                            x       y       z     vdW  Elec       q    Type
                         _______ _______ _______ _____ _____    ______ ____

>  <TORSDO>
F 9

$$$$
=
 OpenBabel11052410253D

 36 40  0  0  1  0  0  0  0  0999 V2000
  160.9160  205.2240  153.1620 C   0  0  0  0  0  3  0  0  0  0  0  0
  161.9550  207.7240  152.4960 C   0  0  0  0  0  3  0  0  0  0  0  0
  162.0280  206.6730  151.5690 C   0  0  0  0  0  0  0  0  0  0  0  0
  161.3620  207.5280  153.7490 C   0  0  0  0  0  0  0  0  0  0  0  0
  161.5050  205.4140  151.9030 C   0  0  0  0  0  0  0  0  0  0  0  0
  160.8470  206.2730  154.0800 C   0  0  0  0  0  3  0  0  0  0  0  0
  161.5870  204.3480  150.9440 N   0  0  0  0  0  2  0  0  0  0  0  0
  161.2140  202.9760  151.1370 C   0  0  0  0  0  0  0  0  0  0  0  0
  160.7580  202.5860  152.2440 O   0  0  0  0  0  0  0  0  0  0  0  0
  161.3430  202.0410  150.1020 O   0  0  0  0  0  0  0  0  0  0  0  0
  159.2950  201.4500  149.1750 O   0  0  0  0  0  1  0  0  0  0  0  0
  160.8800  202.2790  147.7530 O   0  0  0  0  0  0  0  0  0  0  0  0
  160.4610  201.9020  149.0220 C   0  0  0  0  0  0  0  0  0  0  0  0
  161.2960  208.6360  154.7550 C   0  0  2  0  0  3  0  0  0  0  0  0
  160.6320  208.2200  155.9120 O   0  0  0  0  0  1  0  0  0  0  0  0
  159.5440  212.1790  153.0990 C   0  0  0  0  0  0  0  0  0  0  0  0
  160.7090  211.0920  154.8670 C   0  0  0  0  0  0  0  0  0  0  0  0
  160.6570  209.8680  154.1790 C   0  0  0  0  0  0  0  0  0  0  0  0
  161.2690  211.1710  155.9930 O   0  0  0  0  0  0  0  0  0  0  0  0
  159.4660  210.9800  152.3850 C   0  0  0  0  0  2  0  0  0  0  0  0
  160.1500  212.2040  154.3170 N   0  0  0  0  0  0  0  0  0  0  0  0
  160.0300  209.8250  152.9270 C   0  0  0  0  0  3  0  0  0  0  0  0
  157.5180  213.5490  153.0080 C   0  0  2  0  0  3  0  0  0  0  0  0
  158.5590  214.2800  153.6030 O   0  0  0  0  0  0  0  0  0  0  0  0
  158.9190  213.4200  152.5470 C   0  0  1  0  0  3  0  0  0  0  0  0
  156.7530  214.4530  152.0660 C   0  0  0  0  0  1  0  0  0  0  0  0
  162.6210  206.8560  150.3120 O   0  0  0  0  0  0  0  0  0  0  0  0
  161.9440  207.4440  149.2030 C   0  0  2  0  0  3  0  0  0  0  0  0
  161.3690  205.9910  147.3550 C   0  0  1  0  0  0  0  0  0  0  0  0
  162.6180  205.3570  147.9160 C   0  0  0  0  0  2  0  0  0  0  0  0
  160.4500  207.1550  149.2720 C   0  0  0  0  0  2  0  0  0  0  0  0
  160.1600  206.0650  148.2610 C   0  0  0  0  0  2  0  0  0  0  0  0
  162.4720  206.8800  147.8860 C   0  0  2  0  0  3  0  0  0  0  0  0
  161.2150  206.0200  145.8720 C   0  0  0  0  0  0  0  0  0  0  0  0
  160.0810  206.2010  145.3560 O   0  0  0  0  0  1  0  0  0  0  0  0
  162.3180  205.8130  145.0550 O   0  0  0  0  0  0  0  0  0  0  0  0
  1  6  1  0  0  0  0
  2  4  1  0  0  0  0
  3  5  1  0  0  0  0
  3  2  2  0  0  0  0
  4  6  2  0  0  0  0
  4 14  1  0  0  0  0
  5  1  2  0  0  0  0
  7  8  1  0  0  0  0
  7  5  1  0  0  0  0
  8  9  2  0  0  0  0
 10  8  1  0  0  0  0
 12 13  2  0  0  0  0
 13 11  1  0  0  0  0
 13 10  1  0  0  0  0
 14 15  1  1  0  0  0
 16 21  2  0  0  0  0
 17 19  2  0  0  0  0
 18 14  1  0  0  0  0
 18 17  1  0  0  0  0
 20 22  1  0  0  0  0
 20 16  1  0  0  0  0
 21 17  1  0  0  0  0
 22 18  2  0  0  0  0
 23 26  1  6  0  0  0
 23 24  1  0  0  0  0
 25 23  1  0  0  0  0
 25 16  1  1  0  0  0
 25 24  1  0  0  0  0
 27  3  1  0  0  0  0
 28 31  1  0  0  0  0
 28 27  1  1  0  0  0
 29 34  1  6  0  0  0
 29 33  1  0  0  0  0
 29 30  1  0  0  0  0
 29 32  1  0  0  0  0
 32 31  1  0  0  0  0
 33 30  1  1  0  0  0
 33 28  1  0  0  0  0
 35 34  1  0  0  0  0
 36 34  2  0  0  0  0
M  END
>  <MODEL>
4

>  <REMARK>
 VINA RESULT:      -7.0      1.521      3.612
  Name = 
  9 active torsions:
  status: ('A' for Active; 'I' for Inactive)
    1  A    between atoms: C_3  and  C_5
    2  A    between atoms: N_4  and  C_23
    3  A    between atoms: C_6  and  O_26
    4  A    between atoms: C_10  and  C_12
    5  A    between atoms: C_10  and  C_21
    6  A    between atoms: C_13  and  O_26
    7  A    between atoms: C_14  and  C_15
    8  A    between atoms: C_22  and  O_25
    9  A    between atoms: O_25  and  C_35
                            x       y       z     vdW  Elec       q    Type
                         _______ _______ _______ _____ _____    ______ ____

>  <TORSDO>
F 9

$$$$
=
 OpenBabel11052410253D

 36 40  0  0  1  0  0  0  0  0999 V2000
  162.3040  209.1050  150.0590 C   0  0  0  0  0  3  0  0  0  0  0  0
  160.7860  208.7750  152.3740 C   0  0  0  0  0  3  0  0  0  0  0  0
  160.9700  210.0610  151.8430 C   0  0  0  0  0  0  0  0  0  0  0  0
  161.3540  207.6580  151.7490 C   0  0  0  0  0  0  0  0  0  0  0  0
  161.7340  210.2280  150.6780 C   0  0  0  0  0  0  0  0  0  0  0  0
  162.1170  207.8280  150.5930 C   0  0  0  0  0  3  0  0  0  0  0  0
  161.9130  211.5500  150.1450 N   0  0  0  0  0  2  0  0  0  0  0  0
  161.7850  211.9600  148.7760 C   0  0  0  0  0  0  0  0  0  0  0  0
  161.4870  211.1230  147.8830 O   0  0  0  0  0  0  0  0  0  0  0  0
  161.9840  213.2940  148.4010 O   0  0  0  0  0  0  0  0  0  0  0  0
  162.5390  214.0800  146.2850 O   0  0  0  0  0  0  0  0  0  0  0  0
  160.3290  214.1210  146.8640 O   0  0  0  0  0  1  0  0  0  0  0  0
  161.6570  213.8410  147.1530 C   0  0  0  0  0  0  0  0  0  0  0  0
  161.1820  206.2830  152.3180 C   0  0  2  0  0  3  0  0  0  0  0  0
  162.2220  205.9760  153.2000 O   0  0  0  0  0  1  0  0  0  0  0  0
  160.7790  203.3240  149.2450 C   0  0  0  0  0  0  0  0  0  0  0  0
  160.8100  203.9030  151.5540 C   0  0  0  0  0  0  0  0  0  0  0  0
  161.0680  205.2470  151.2360 C   0  0  0  0  0  0  0  0  0  0  0  0
  160.6990  203.5380  152.7540 O   0  0  0  0  0  0  0  0  0  0  0  0
  161.0400  204.6500  148.8880 C   0  0  0  0  0  2  0  0  0  0  0  0
  160.6810  202.9830  150.5600 N   0  0  0  0  0  0  0  0  0  0  0  0
  161.1780  205.6120  149.8880 C   0  0  0  0  0  3  0  0  0  0  0  0
  161.2460  200.9960  148.6510 C   0  0  2  0  0  3  0  0  0  0  0  0
  159.8580  201.2150  148.6610 O   0  0  0  0  0  0  0  0  0  0  0  0
  160.6570  202.2740  148.1890 C   0  0  1  0  0  3  0  0  0  0  0  0
  161.6040  200.1380  147.4570 C   0  0  0  0  0  1  0  0  0  0  0  0
  160.4080  211.1860  152.4600 O   0  0  0  0  0  0  0  0  0  0  0  0
  159.0110  211.3290  152.7090 C   0  0  2  0  0  3  0  0  0  0  0  0
  158.3520  212.6780  154.6070 C   0  0  1  0  0  0  0  0  0  0  0  0
  159.6880  212.1180  155.0300 C   0  0  0  0  0  2  0  0  0  0  0  0
  158.5070  212.6690  152.1880 C   0  0  0  0  0  2  0  0  0  0  0  0
  158.3290  213.5760  153.3890 C   0  0  0  0  0  2  0  0  0  0  0  0
  158.7190  211.2670  154.2060 C   0  0  2  0  0  3  0  0  0  0  0  0
  157.2810  212.7670  155.6400 C   0  0  0  0  0  0  0  0  0  0  0  0
  157.5330  213.2530  156.7750 O   0  0  0  0  0  1  0  0  0  0  0  0
  156.0090  212.2800  155.3670 O   0  0  0  0  0  0  0  0  0  0  0  0
  1  6  2  0  0  0  0
  1  5  1  0  0  0  0
  3  2  1  0  0  0  0
  3 27  1  0  0  0  0
  4 14  1  0  0  0  0
  4  2  2  0  0  0  0
  5  3  2  0  0  0  0
  6  4  1  0  0  0  0
  7  5  1  0  0  0  0
  8  7  1  0  0  0  0
  9  8  2  0  0  0  0
 10  8  1  0  0  0  0
 11 13  2  0  0  0  0
 12 13  1  0  0  0  0
 13 10  1  0  0  0  0
 14 15  1  1  0  0  0
 16 21  2  0  0  0  0
 17 19  2  0  0  0  0
 18 17  1  0  0  0  0
 18 14  1  0  0  0  0
 20 16  1  0  0  0  0
 20 22  1  0  0  0  0
 21 17  1  0  0  0  0
 22 18  2  0  0  0  0
 23 26  1  6  0  0  0
 23 24  1  0  0  0  0
 25 23  1  0  0  0  0
 25 24  1  0  0  0  0
 25 16  1  1  0  0  0
 28 27  1  1  0  0  0
 28 33  1  0  0  0  0
 29 30  1  0  0  0  0
 29 34  1  1  0  0  0
 31 28  1  0  0  0  0
 31 32  1  0  0  0  0
 32 29  1  0  0  0  0
 33 29  1  0  0  0  0
 33 30  1  1  0  0  0
 34 35  1  0  0  0  0
 36 34  2  0  0  0  0
M  END
>  <MODEL>
5

>  <REMARK>
 VINA RESULT:      -6.9      3.045      9.122
  Name = 
  9 active torsions:
  status: ('A' for Active; 'I' for Inactive)
    1  A    between atoms: C_3  and  C_5
    2  A    between atoms: N_4  and  C_23
    3  A    between atoms: C_6  and  O_26
    4  A    between atoms: C_10  and  C_12
    5  A    between atoms: C_10  and  C_21
    6  A    between atoms: C_13  and  O_26
    7  A    between atoms: C_14  and  C_15
    8  A    between atoms: C_22  and  O_25
    9  A    between atoms: O_25  and  C_35
                            x       y       z     vdW  Elec       q    Type
                         _______ _______ _______ _____ _____    ______ ____

>  <TORSDO>
F 9

$$$$
=
 OpenBabel11052410253D

 36 40  0  0  1  0  0  0  0  0999 V2000
  162.3310  208.3650  148.6620 C   0  0  0  0  0  3  0  0  0  0  0  0
  161.3070  209.9080  150.7460 C   0  0  0  0  0  3  0  0  0  0  0  0
  161.3370  208.5110  150.8680 C   0  0  0  0  0  0  0  0  0  0  0  0
  161.7910  210.5330  149.5900 C   0  0  0  0  0  0  0  0  0  0  0  0
  161.8520  207.7330  149.8190 C   0  0  0  0  0  0  0  0  0  0  0  0
  162.2990  209.7560  148.5470 C   0  0  0  0  0  3  0  0  0  0  0  0
  161.8770  206.3030  149.9580 N   0  0  0  0  0  2  0  0  0  0  0  0
  161.1860  205.3400  149.1490 C   0  0  0  0  0  0  0  0  0  0  0  0
  160.4560  205.7140  148.1930 O   0  0  0  0  0  0  0  0  0  0  0  0
  161.3090  203.9680  149.3980 O   0  0  0  0  0  0  0  0  0  0  0  0
  160.4510  203.9450  151.5570 O   0  0  0  0  0  1  0  0  0  0  0  0
  160.8310  201.9210  150.5670 O   0  0  0  0  0  0  0  0  0  0  0  0
  160.8510  203.3090  150.5460 C   0  0  0  0  0  0  0  0  0  0  0  0
  161.7450  212.0230  149.4400 C   0  0  2  0  0  3  0  0  0  0  0  0
  160.7140  212.5690  150.2110 O   0  0  0  0  0  1  0  0  0  0  0  0
  161.4220  213.1220  145.3110 C   0  0  0  0  0  0  0  0  0  0  0  0
  162.7120  212.9700  147.3060 C   0  0  0  0  0  0  0  0  0  0  0  0
  161.6160  212.4300  148.0000 C   0  0  0  0  0  0  0  0  0  0  0  0
  163.8140  213.1490  147.8880 O   0  0  0  0  0  0  0  0  0  0  0  0
  160.3070  212.5920  145.9670 C   0  0  0  0  0  2  0  0  0  0  0  0
  162.5860  213.3050  145.9930 N   0  0  0  0  0  0  0  0  0  0  0  0
  160.4100  212.2400  147.3120 C   0  0  0  0  0  3  0  0  0  0  0  0
  162.0520  212.5780  143.0090 C   0  0  2  0  0  3  0  0  0  0  0  0
  160.6540  212.5330  143.1430 O   0  0  0  0  0  0  0  0  0  0  0  0
  161.3220  213.5310  143.8770 C   0  0  1  0  0  3  0  0  0  0  0  0
  162.4030  213.2480  141.6980 C   0  0  0  0  0  1  0  0  0  0  0  0
  160.8530  207.8730  152.0190 O   0  0  0  0  0  0  0  0  0  0  0  0
  161.6350  207.6820  153.1960 C   0  0  2  0  0  3  0  0  0  0  0  0
  160.6870  208.4280  155.2940 C   0  0  1  0  0  0  0  0  0  0  0  0
  160.0810  209.3740  154.2860 C   0  0  0  0  0  2  0  0  0  0  0  0
  161.1570  206.4570  153.9650 C   0  0  0  0  0  2  0  0  0  0  0  0
  160.3590  206.9570  155.1510 C   0  0  0  0  0  2  0  0  0  0  0  0
  161.5240  208.8910  154.1220 C   0  0  2  0  0  3  0  0  0  0  0  0
  161.1020  208.9930  156.6090 C   0  0  0  0  0  0  0  0  0  0  0  0
  162.1250  208.5490  157.1960 O   0  0  0  0  0  0  0  0  0  0  0  0
  160.3420  209.9880  157.2100 O   0  0  0  0  0  1  0  0  0  0  0  0
  1  5  1  0  0  0  0
  2  3  1  0  0  0  0
  3 27  1  0  0  0  0
  4  2  2  0  0  0  0
  5  7  1  0  0  0  0
  5  3  2  0  0  0  0
  6  1  2  0  0  0  0
  6  4  1  0  0  0  0
  8 10  1  0  0  0  0
  8  7  1  0  0  0  0
  9  8  2  0  0  0  0
 10 13  1  0  0  0  0
 13 12  2  0  0  0  0
 13 11  1  0  0  0  0
 14  4  1  0  0  0  0
 14 15  1  1  0  0  0
 16 20  1  0  0  0  0
 16 21  2  0  0  0  0
 17 19  2  0  0  0  0
 17 18  1  0  0  0  0
 18 14  1  0  0  0  0
 20 22  1  0  0  0  0
 21 17  1  0  0  0  0
 22 18  2  0  0  0  0
 23 26  1  6  0  0  0
 23 24  1  0  0  0  0
 23 25  1  0  0  0  0
 24 25  1  0  0  0  0
 25 16  1  1  0  0  0
 28 27  1  6  0  0  0
 28 31  1  0  0  0  0
 28 33  1  0  0  0  0
 29 34  1  1  0  0  0
 30 29  1  0  0  0  0
 31 32  1  0  0  0  0
 32 29  1  0  0  0  0
 33 30  1  6  0  0  0
 33 29  1  0  0  0  0
 34 35  2  0  0  0  0
 34 36  1  0  0  0  0
M  END
>  <MODEL>
6

>  <REMARK>
 VINA RESULT:      -6.8      4.038      7.315
  Name = 
  9 active torsions:
  status: ('A' for Active; 'I' for Inactive)
    1  A    between atoms: C_3  and  C_5
    2  A    between atoms: N_4  and  C_23
    3  A    between atoms: C_6  and  O_26
    4  A    between atoms: C_10  and  C_12
    5  A    between atoms: C_10  and  C_21
    6  A    between atoms: C_13  and  O_26
    7  A    between atoms: C_14  and  C_15
    8  A    between atoms: C_22  and  O_25
    9  A    between atoms: O_25  and  C_35
                            x       y       z     vdW  Elec       q    Type
                         _______ _______ _______ _____ _____    ______ ____

>  <TORSDO>
F 9

$$$$
=
 OpenBabel11052410253D

 36 40  0  0  1  0  0  0  0  0999 V2000
  161.0370  204.9550  153.2910 C   0  0  0  0  0  3  0  0  0  0  0  0
  161.1360  207.3210  151.8190 C   0  0  0  0  0  3  0  0  0  0  0  0
  160.8480  206.1110  151.1690 C   0  0  0  0  0  0  0  0  0  0  0  0
  161.3690  207.3500  153.2000 C   0  0  0  0  0  0  0  0  0  0  0  0
  160.7980  204.9190  151.9090 C   0  0  0  0  0  0  0  0  0  0  0  0
  161.3230  206.1620  153.9320 C   0  0  0  0  0  3  0  0  0  0  0  0
  160.5030  203.6880  151.2300 N   0  0  0  0  0  2  0  0  0  0  0  0
  161.2370  202.4580  151.3040 C   0  0  0  0  0  0  0  0  0  0  0  0
  162.2680  202.3700  152.0220 O   0  0  0  0  0  0  0  0  0  0  0  0
  160.8250  201.3270  150.5870 O   0  0  0  0  0  0  0  0  0  0  0  0
  161.4030  201.0000  148.3600 O   0  0  0  0  0  0  0  0  0  0  0  0
  159.2430  201.6050  148.7960 O   0  0  0  0  0  1  0  0  0  0  0  0
  160.5310  201.3000  149.2170 C   0  0  0  0  0  0  0  0  0  0  0  0
  161.6960  208.6320  153.9010 C   0  0  2  0  0  3  0  0  0  0  0  0
  161.3870  208.5480  155.2620 O   0  0  0  0  0  1  0  0  0  0  0  0
  159.7110  211.9290  152.0160 C   0  0  0  0  0  0  0  0  0  0  0  0
  161.5710  210.4500  152.1490 C   0  0  0  0  0  0  0  0  0  0  0  0
  161.0070  209.8040  153.2620 C   0  0  0  0  0  0  0  0  0  0  0  0
  162.6820  210.0750  151.6860 O   0  0  0  0  0  0  0  0  0  0  0  0
  159.1180  211.3160  153.1230 C   0  0  0  0  0  2  0  0  0  0  0  0
  160.9190  211.4910  151.5640 N   0  0  0  0  0  0  0  0  0  0  0  0
  159.7670  210.2480  153.7410 C   0  0  0  0  0  3  0  0  0  0  0  0
  157.7430  212.6920  150.7780 C   0  0  2  0  0  3  0  0  0  0  0  0
  157.8260  213.3710  152.0050 O   0  0  0  0  0  0  0  0  0  0  0  0
  159.0450  213.0940  151.3590 C   0  0  1  0  0  3  0  0  0  0  0  0
  157.3430  213.6720  149.6960 C   0  0  0  0  0  1  0  0  0  0  0  0
  160.6160  206.0680  149.7870 O   0  0  0  0  0  0  0  0  0  0  0  0
  161.5950  206.4330  148.8160 C   0  0  2  0  0  3  0  0  0  0  0  0
  161.4820  205.3400  146.6600 C   0  0  1  0  0  0  0  0  0  0  0  0
  160.9220  204.3020  147.6020 C   0  0  0  0  0  2  0  0  0  0  0  0
  161.0130  207.4190  147.8120 C   0  0  0  0  0  2  0  0  0  0  0  0
  160.7300  206.6470  146.5400 C   0  0  0  0  0  2  0  0  0  0  0  0
  162.0750  205.2060  148.0450 C   0  0  2  0  0  3  0  0  0  0  0  0
  162.3710  204.8670  145.5600 C   0  0  0  0  0  0  0  0  0  0  0  0
  161.9140  204.7110  144.3970 O   0  0  0  0  0  0  0  0  0  0  0  0
  163.7000  204.5610  145.8240 O   0  0  0  0  0  1  0  0  0  0  0  0
  1  6  1  0  0  0  0
  2  4  1  0  0  0  0
  3  2  2  0  0  0  0
  3  5  1  0  0  0  0
  4 14  1  0  0  0  0
  4  6  2  0  0  0  0
  5  1  2  0  0  0  0
  7  8  1  0  0  0  0
  7  5  1  0  0  0  0
  8  9  2  0  0  0  0
 10  8  1  0  0  0  0
 11 13  2  0  0  0  0
 12 13  1  0  0  0  0
 13 10  1  0  0  0  0
 14 15  1  1  0  0  0
 16 20  1  0  0  0  0
 17 18  1  0  0  0  0
 18 22  2  0  0  0  0
 18 14  1  0  0  0  0
 19 17  2  0  0  0  0
 20 22  1  0  0  0  0
 21 16  2  0  0  0  0
 21 17  1  0  0  0  0
 23 26  1  6  0  0  0
 23 25  1  0  0  0  0
 23 24  1  0  0  0  0
 25 24  1  0  0  0  0
 25 16  1  1  0  0  0
 27  3  1  0  0  0  0
 28 27  1  1  0  0  0
 29 34  1  6  0  0  0
 29 30  1  0  0  0  0
 29 33  1  0  0  0  0
 31 28  1  0  0  0  0
 32 29  1  0  0  0  0
 32 31  1  0  0  0  0
 33 30  1  1  0  0  0
 33 28  1  0  0  0  0
 34 36  1  0  0  0  0
 35 34  2  0  0  0  0
M  END
>  <MODEL>
7

>  <REMARK>
 VINA RESULT:      -6.8      2.058      4.124
  Name = 
  9 active torsions:
  status: ('A' for Active; 'I' for Inactive)
    1  A    between atoms: C_3  and  C_5
    2  A    between atoms: N_4  and  C_23
    3  A    between atoms: C_6  and  O_26
    4  A    between atoms: C_10  and  C_12
    5  A    between atoms: C_10  and  C_21
    6  A    between atoms: C_13  and  O_26
    7  A    between atoms: C_14  and  C_15
    8  A    between atoms: C_22  and  O_25
    9  A    between atoms: O_25  and  C_35
                            x       y       z     vdW  Elec       q    Type
                         _______ _______ _______ _____ _____    ______ ____

>  <TORSDO>
F 9

$$$$
=
 OpenBabel11052410253D

 36 40  0  0  1  0  0  0  0  0999 V2000
  162.3430  208.3040  149.6690 C   0  0  0  0  0  3  0  0  0  0  0  0
  160.7810  207.7070  151.9000 C   0  0  0  0  0  3  0  0  0  0  0  0
  161.0760  209.0460  151.5980 C   0  0  0  0  0  0  0  0  0  0  0  0
  161.2590  206.6720  151.0880 C   0  0  0  0  0  0  0  0  0  0  0  0
  161.8630  209.3470  150.4750 C   0  0  0  0  0  0  0  0  0  0  0  0
  162.0450  206.9750  149.9750 C   0  0  0  0  0  3  0  0  0  0  0  0
  162.1570  210.7220  150.1790 N   0  0  0  0  0  2  0  0  0  0  0  0
  161.9860  211.3950  148.9230 C   0  0  0  0  0  0  0  0  0  0  0  0
  161.5340  210.7780  147.9230 O   0  0  0  0  0  0  0  0  0  0  0  0
  162.3110  212.7500  148.7810 O   0  0  0  0  0  0  0  0  0  0  0  0
  160.5180  214.2070  148.5340 O   0  0  0  0  0  1  0  0  0  0  0  0
  161.9930  214.0670  146.7940 O   0  0  0  0  0  0  0  0  0  0  0  0
  161.5640  213.6900  148.0600 C   0  0  0  0  0  0  0  0  0  0  0  0
  160.9670  205.2390  151.4110 C   0  0  2  0  0  3  0  0  0  0  0  0
  161.8170  204.7730  152.4190 O   0  0  0  0  0  1  0  0  0  0  0  0
  161.1300  202.7410  147.9330 C   0  0  0  0  0  0  0  0  0  0  0  0
  160.9410  202.9720  150.2950 C   0  0  0  0  0  0  0  0  0  0  0  0
  161.0510  204.3680  150.1900 C   0  0  0  0  0  0  0  0  0  0  0  0
  160.7990  202.4230  151.4200 O   0  0  0  0  0  0  0  0  0  0  0  0
  161.2480  204.1250  147.7870 C   0  0  0  0  0  2  0  0  0  0  0  0
  160.9900  202.2000  149.1750 N   0  0  0  0  0  0  0  0  0  0  0  0
  161.2010  204.9380  148.9190 C   0  0  0  0  0  3  0  0  0  0  0  0
  160.1120  202.1600  145.7840 C   0  0  2  0  0  3  0  0  0  0  0  0
  161.4210  202.6270  145.5800 O   0  0  0  0  0  0  0  0  0  0  0  0
  161.2060  201.8510  146.7340 C   0  0  1  0  0  3  0  0  0  0  0  0
  159.8660  200.9670  144.8860 C   0  0  0  0  0  1  0  0  0  0  0  0
  160.6050  210.0910  152.4040 O   0  0  0  0  0  0  0  0  0  0  0  0
  161.2060  210.4560  153.6450 C   0  0  2  0  0  3  0  0  0  0  0  0
  159.7230  210.9940  155.4810 C   0  0  1  0  0  0  0  0  0  0  0  0
  158.9260  211.3980  154.2640 C   0  0  0  0  0  2  0  0  0  0  0  0
  161.1980  209.2790  154.6120 C   0  0  0  0  0  2  0  0  0  0  0  0
  160.0930  209.5340  155.6160 C   0  0  0  0  0  2  0  0  0  0  0  0
  160.4420  211.6050  154.2980 C   0  0  2  0  0  3  0  0  0  0  0  0
  159.6490  211.8780  156.6800 C   0  0  0  0  0  0  0  0  0  0  0  0
  160.7010  212.3450  157.1900 O   0  0  0  0  0  0  0  0  0  0  0  0
  158.4190  212.1590  157.2610 O   0  0  0  0  0  1  0  0  0  0  0  0
  1  6  2  0  0  0  0
  1  5  1  0  0  0  0
  3  2  1  0  0  0  0
  3 27  1  0  0  0  0
  4 14  1  0  0  0  0
  4  2  2  0  0  0  0
  5  3  2  0  0  0  0
  6  4  1  0  0  0  0
  7  5  1  0  0  0  0
  8  7  1  0  0  0  0
  9  8  2  0  0  0  0
 10  8  1  0  0  0  0
 12 13  2  0  0  0  0
 13 11  1  0  0  0  0
 13 10  1  0  0  0  0
 14 15  1  1  0  0  0
 16 21  2  0  0  0  0
 17 19  2  0  0  0  0
 18 17  1  0  0  0  0
 18 14  1  0  0  0  0
 20 16  1  0  0  0  0
 20 22  1  0  0  0  0
 21 17  1  0  0  0  0
 22 18  2  0  0  0  0
 23 26  1  6  0  0  0
 23 25  1  0  0  0  0
 24 23  1  0  0  0  0
 24 25  1  0  0  0  0
 25 16  1  1  0  0  0
 28 27  1  6  0  0  0
 28 33  1  0  0  0  0
 28 31  1  0  0  0  0
 29 32  1  0  0  0  0
 29 34  1  1  0  0  0
 30 29  1  0  0  0  0
 31 32  1  0  0  0  0
 33 30  1  6  0  0  0
 33 29  1  0  0  0  0
 34 35  2  0  0  0  0
 34 36  1  0  0  0  0
M  END
>  <MODEL>
8

>  <REMARK>
 VINA RESULT:      -6.7      3.032      9.179
  Name = 
  9 active torsions:
  status: ('A' for Active; 'I' for Inactive)
    1  A    between atoms: C_3  and  C_5
    2  A    between atoms: N_4  and  C_23
    3  A    between atoms: C_6  and  O_26
    4  A    between atoms: C_10  and  C_12
    5  A    between atoms: C_10  and  C_21
    6  A    between atoms: C_13  and  O_26
    7  A    between atoms: C_14  and  C_15
    8  A    between atoms: C_22  and  O_25
    9  A    between atoms: O_25  and  C_35
                            x       y       z     vdW  Elec       q    Type
                         _______ _______ _______ _____ _____    ______ ____

>  <TORSDO>
F 9

$$$$
=
 OpenBabel11052410253D

 36 40  0  0  1  0  0  0  0  0999 V2000
  161.9760  206.6420  152.4770 C   0  0  0  0  0  3  0  0  0  0  0  0
  161.5980  208.6530  150.5830 C   0  0  0  0  0  3  0  0  0  0  0  0
  161.4510  208.9490  151.9470 C   0  0  0  0  0  0  0  0  0  0  0  0
  161.9370  207.3600  150.1660 C   0  0  0  0  0  0  0  0  0  0  0  0
  161.6420  207.9370  152.9010 C   0  0  0  0  0  0  0  0  0  0  0  0
  162.1210  206.3550  151.1180 C   0  0  0  0  0  3  0  0  0  0  0  0
  161.4880  208.2540  154.2940 N   0  0  0  0  0  2  0  0  0  0  0  0
  160.6840  207.5610  155.2590 C   0  0  0  0  0  0  0  0  0  0  0  0
  160.0070  206.5540  154.9220 O   0  0  0  0  0  0  0  0  0  0  0  0
  160.6360  207.9820  156.5940 O   0  0  0  0  0  0  0  0  0  0  0  0
  159.8780  210.0750  157.2580 O   0  0  0  0  0  1  0  0  0  0  0  0
  162.1380  209.7440  157.2430 O   0  0  0  0  0  0  0  0  0  0  0  0
  160.8410  209.2950  157.0370 C   0  0  0  0  0  0  0  0  0  0  0  0
  162.0760  207.0280  148.7130 C   0  0  2  0  0  3  0  0  0  0  0  0
  161.3500  207.9280  147.9250 O   0  0  0  0  0  1  0  0  0  0  0  0
  160.9880  202.9640  147.9020 C   0  0  0  0  0  0  0  0  0  0  0  0
  161.9300  205.0260  147.1780 C   0  0  0  0  0  0  0  0  0  0  0  0
  161.6670  205.6110  148.4280 C   0  0  1  0  0  3  0  0  0  0  0  0
  162.4870  205.6900  146.2640 O   0  0  0  0  0  0  0  0  0  0  0  0
  160.7050  203.5100  149.1570 C   0  0  0  0  0  3  0  0  0  0  0  0
  161.5800  203.7310  146.9470 N   0  0  0  0  0  0  0  0  0  0  0  0
  161.0530  204.8350  149.4190 C   0  0  0  0  0  3  0  0  0  0  0  0
  161.7960  200.7040  147.4220 C   0  0  2  0  0  3  0  0  0  0  0  0
  161.0530  200.6990  148.6140 O   0  0  0  0  0  0  0  0  0  0  0  0
  160.5960  201.5540  147.5930 C   0  0  1  0  0  3  0  0  0  0  0  0
  161.4400  199.4760  146.6120 C   0  0  0  0  0  1  0  0  0  0  0  0
  161.1100  210.2390  152.3760 O   0  0  0  0  0  0  0  0  0  0  0  0
  159.7660  210.7070  152.4610 C   0  0  2  0  0  3  0  0  0  0  0  0
  159.3190  212.5340  153.9840 C   0  0  1  0  0  0  0  0  0  0  0  0
  160.4820  211.8210  154.6320 C   0  0  0  0  0  2  0  0  0  0  0  0
  159.5880  211.9780  151.6410 C   0  0  0  0  0  2  0  0  0  0  0  0
  159.5500  213.1370  152.6160 C   0  0  0  0  0  2  0  0  0  0  0  0
  159.3940  211.0250  153.9070 C   0  0  2  0  0  3  0  0  0  0  0  0
  158.2430  213.0530  154.8760 C   0  0  0  0  0  0  0  0  0  0  0  0
  158.5160  213.8820  155.7840 O   0  0  0  0  0  1  0  0  0  0  0  0
  156.9400  212.5950  154.7310 O   0  0  0  0  0  0  0  0  0  0  0  0
  1  5  1  0  0  0  0
  2  3  1  0  0  0  0
  3 27  1  0  0  0  0
  3  5  2  0  0  0  0
  4  2  2  0  0  0  0
  4  6  1  0  0  0  0
  5  7  1  0  0  0  0
  6  1  2  0  0  0  0
  7  8  1  0  0  0  0
  8 10  1  0  0  0  0
  9  8  2  0  0  0  0
 10 13  1  0  0  0  0
 13 12  2  0  0  0  0
 13 11  1  0  0  0  0
 14 15  1  6  0  0  0
 14  4  1  0  0  0  0
 16 20  1  0  0  0  0
 17 18  1  0  0  0  0
 18 14  1  1  0  0  0
 18 22  1  0  0  0  0
 19 17  2  0  0  0  0
 20 22  2  0  0  0  0
 21 17  1  0  0  0  0
 21 16  2  0  0  0  0
 23 26  1  6  0  0  0
 23 25  1  0  0  0  0
 23 24  1  0  0  0  0
 25 16  1  1  0  0  0
 25 24  1  0  0  0  0
 28 27  1  1  0  0  0
 28 33  1  0  0  0  0
 29 30  1  0  0  0  0
 29 34  1  1  0  0  0
 31 28  1  0  0  0  0
 31 32  1  0  0  0  0
 32 29  1  0  0  0  0
 33 29  1  0  0  0  0
 33 30  1  1  0  0  0
 34 35  1  0  0  0  0
 36 34  2  0  0  0  0
M  END
>  <MODEL>
9

>  <REMARK>
 VINA RESULT:      -6.3      1.993     10.053
  Name = 
  9 active torsions:
  status: ('A' for Active; 'I' for Inactive)
    1  A    between atoms: C_3  and  C_5
    2  A    between atoms: N_4  and  C_23
    3  A    between atoms: C_6  and  O_26
    4  A    between atoms: C_10  and  C_12
    5  A    between atoms: C_10  and  C_21
    6  A    between atoms: C_13  and  O_26
    7  A    between atoms: C_14  and  C_15
    8  A    between atoms: C_22  and  O_25
    9  A    between atoms: O_25  and  C_35
                            x       y       z     vdW  Elec       q    Type
                         _______ _______ _______ _____ _____    ______ ____

>  <TORSDO>
F 9

$$$$
