=
 OpenBabel11042420503D

 41 46  0  0  1  0  0  0  0  0999 V2000
  160.2750  212.4010  151.2790 C   0  0  0  0  0  0  0  0  0  0  0  0
  159.2170  212.2820  153.4450 N   0  0  0  0  0  0  0  0  0  0  0  0
  160.0970  214.0100  149.4140 N   0  0  0  0  0  0  0  0  0  0  0  0
  158.8870  211.7770  154.6640 C   0  0  0  0  0  0  0  0  0  0  0  0
  161.4410  213.5560  149.0070 C   0  0  0  0  0  2  0  0  0  0  0  0
  161.1410  211.6210  150.5460 C   0  0  0  0  0  0  0  0  0  0  0  0
  160.7740  210.5260  152.4800 C   0  0  0  0  0  0  0  0  0  0  0  0
  159.8390  213.7710  150.8460 C   0  0  0  0  0  2  0  0  0  0  0  0
  159.3640  210.5750  155.2060 C   0  0  0  0  0  3  0  0  0  0  0  0
  161.4210  210.4620  151.2580 C   0  0  0  0  0  0  0  0  0  0  0  0
  160.0230  211.7770  152.4830 C   0  0  0  0  0  0  0  0  0  0  0  0
  161.6630  212.0450  149.2120 C   0  0  0  0  0  2  0  0  0  0  0  0
  160.8670  209.5700  153.4710 C   0  0  0  0  0  3  0  0  0  0  0  0
  160.2280  209.6090  154.6980 C   0  0  0  0  0  3  0  0  0  0  0  0
  158.1320  213.8070  155.6550 O   0  0  0  0  0  0  0  0  0  0  0  0
  157.9560  212.5700  155.4850 C   0  0  0  0  0  0  0  0  0  0  0  0
  156.8870  211.9680  156.0680 F   0  0  0  0  0  0  0  0  0  0  0  0
  159.0690  213.3390  148.6200 C   0  0  0  0  0  2  0  0  0  0  0  0
  159.1720  213.7710  147.1680 C   0  0  0  0  0  2  0  0  0  0  0  0
  159.3810  212.6580  146.3540 O   0  0  0  0  0  0  0  0  0  0  0  0
  159.8680  213.1650  145.1480 C   0  0  1  0  0  3  0  0  0  0  0  0
  161.3820  213.4070  145.2760 C   0  0  0  0  0  2  0  0  0  0  0  0
  163.4170  213.0710  144.1000 O   0  0  0  0  0  0  0  0  0  0  0  0
  160.0430  212.7920  142.7150 C   0  0  0  0  0  2  0  0  0  0  0  0
  161.5040  212.8910  142.7630 N   0  0  0  0  0  0  0  0  0  0  0  0
  159.5170  212.2090  144.0140 C   0  0  0  0  0  2  0  0  0  0  0  0
  162.1650  213.1330  144.0200 C   0  0  0  0  0  0  0  0  0  0  0  0
  161.7510  211.1430  141.0560 C   0  0  0  0  0  2  0  0  0  0  0  0
  161.3680  212.4290  140.3620 C   0  0  0  0  0  2  0  0  0  0  0  0
  162.2730  212.4740  141.5870 C   0  0  0  0  0  3  0  0  0  0  0  0
  162.3310  209.4240  150.8720 N   0  0  0  0  0  2  0  0  0  0  0  0
  161.1300  206.1010  149.7930 N   0  0  0  0  0  0  0  0  0  0  0  0
  161.7220  207.3420  147.8750 N   0  0  0  0  0  0  0  0  0  0  0  0
  161.5010  207.1410  150.5860 C   0  0  0  0  0  3  0  0  0  0  0  0
  161.2430  206.2000  148.4360 C   0  0  0  0  0  0  0  0  0  0  0  0
  162.0970  208.3950  148.6420 C   0  0  0  0  0  3  0  0  0  0  0  0
  160.8980  205.2410  147.6920 O   0  0  0  0  0  0  0  0  0  0  0  0
  162.0080  208.3120  150.0280 C   0  0  0  0  0  0  0  0  0  0  0  0
  160.6090  204.8890  150.4170 C   0  0  0  0  0  2  0  0  0  0  0  0
  161.5780  204.3430  151.4510 C   0  0  0  0  0  2  0  0  0  0  0  0
  161.3030  202.8850  151.7300 C   0  0  0  0  0  1  0  0  0  0  0  0
  1 11  1  0  0  0  0
  2  4  1  0  0  0  0
  3  8  1  0  0  0  0
  4  9  2  0  0  0  0
  4 16  1  0  0  0  0
  5 12  1  0  0  0  0
  5  3  1  0  0  0  0
  6 10  1  0  0  0  0
  6  1  2  0  0  0  0
  7 11  1  0  0  0  0
  7 13  1  0  0  0  0
  8  1  1  0  0  0  0
 10  7  2  0  0  0  0
 11  2  2  0  0  0  0
 12  6  1  0  0  0  0
 13 14  2  0  0  0  0
 14  9  1  0  0  0  0
 16 15  2  0  0  0  0
 16 17  1  0  0  0  0
 18  3  1  0  0  0  0
 19 18  1  0  0  0  0
 20 19  1  0  0  0  0
 21 22  1  0  0  0  0
 21 20  1  1  0  0  0
 24 25  1  0  0  0  0
 24 26  1  0  0  0  0
 25 27  1  0  0  0  0
 26 21  1  0  0  0  0
 27 23  2  0  0  0  0
 27 22  1  0  0  0  0
 28 30  1  0  0  0  0
 29 28  1  0  0  0  0
 29 30  1  0  0  0  0
 30 25  1  0  0  0  0
 31 10  1  0  0  0  0
 32 39  1  0  0  0  0
 32 34  1  0  0  0  0
 33 35  1  0  0  0  0
 33 36  2  0  0  0  0
 35 32  1  0  0  0  0
 36 38  1  0  0  0  0
 37 35  2  0  0  0  0
 38 34  2  0  0  0  0
 38 31  1  0  0  0  0
 39 40  1  0  0  0  0
 40 41  1  0  0  0  0
M  END
>  <MODEL>
1

>  <REMARK>
 VINA RESULT:      -7.1      0.000      0.000
  Name = 
  10 active torsions:
  status: ('A' for Active; 'I' for Inactive)
    1  A    between atoms: C_1  and  O_13
    2  A    between atoms: N_2  and  C_32
    3  A    between atoms: C_3  and  N_15
    4  A    between atoms: C_3  and  C_37
    5  A    between atoms: C_10  and  C_32
    6  A    between atoms: O_13  and  C_37
    7  A    between atoms: N_17  and  C_29
    8  A    between atoms: N_17  and  C_40
    9  A    between atoms: C_18  and  C_22
   10  A    between atoms: N_23  and  C_39
                            x       y       z     vdW  Elec       q    Type
                         _______ _______ _______ _____ _____    ______ ____

>  <TORSDO>
F 10

$$$$
=
 OpenBabel11042420503D

 41 46  0  0  1  0  0  0  0  0999 V2000
  161.1640  208.5280  152.7680 C   0  0  0  0  0  0  0  0  0  0  0  0
  161.4320  210.0140  150.8860 N   0  0  0  0  0  0  0  0  0  0  0  0
  160.4070  208.8870  155.0910 N   0  0  0  0  0  0  0  0  0  0  0  0
  161.7660  210.4140  149.6300 C   0  0  0  0  0  0  0  0  0  0  0  0
  160.0480  207.4550  155.1060 C   0  0  0  0  0  2  0  0  0  0  0  0
  161.4100  207.2010  153.0360 C   0  0  0  0  0  0  0  0  0  0  0  0
  162.0760  207.5600  150.9150 C   0  0  0  0  0  0  0  0  0  0  0  0
  160.4470  209.4370  153.7240 C   0  0  0  0  0  2  0  0  0  0  0  0
  162.3050  209.5950  148.6280 C   0  0  0  0  0  3  0  0  0  0  0  0
  161.9970  206.6140  151.9220 C   0  0  0  0  0  0  0  0  0  0  0  0
  161.5470  208.8000  151.4720 C   0  0  0  0  0  0  0  0  0  0  0  0
  161.0500  206.5680  154.3410 C   0  0  0  0  0  2  0  0  0  0  0  0
  162.5570  207.3180  149.6440 C   0  0  0  0  0  3  0  0  0  0  0  0
  162.6500  208.2470  148.6210 C   0  0  0  0  0  3  0  0  0  0  0  0
  162.1530  212.3870  148.3530 O   0  0  0  0  0  0  0  0  0  0  0  0
  161.5290  211.8300  149.2960 C   0  0  0  0  0  0  0  0  0  0  0  0
  160.6260  212.5510  150.0100 F   0  0  0  0  0  0  0  0  0  0  0  0
  161.7040  209.0950  155.7340 C   0  0  0  0  0  2  0  0  0  0  0  0
  161.9290  210.5760  155.9800 C   0  0  0  0  0  2  0  0  0  0  0  0
  161.4780  210.9200  157.2550 O   0  0  0  0  0  0  0  0  0  0  0  0
  160.4320  211.8200  157.0490 C   0  0  1  0  0  3  0  0  0  0  0  0
  160.5620  212.4340  155.6450 C   0  0  0  0  0  2  0  0  0  0  0  0
  159.2640  212.9740  153.7310 O   0  0  0  0  0  0  0  0  0  0  0  0
  157.9800  212.1120  157.0470 C   0  0  0  0  0  2  0  0  0  0  0  0
  157.9980  212.5990  155.6660 N   0  0  0  0  0  0  0  0  0  0  0  0
  159.1000  211.1090  157.2610 C   0  0  0  0  0  2  0  0  0  0  0  0
  159.2490  212.7020  154.9570 C   0  0  0  0  0  0  0  0  0  0  0  0
  155.9340  211.4140  155.0640 C   0  0  0  0  0  2  0  0  0  0  0  0
  155.5630  212.5990  155.9240 C   0  0  0  0  0  2  0  0  0  0  0  0
  156.7270  212.7110  154.9460 C   0  0  0  0  0  3  0  0  0  0  0  0
  162.3460  205.2320  151.7710 N   0  0  0  0  0  2  0  0  0  0  0  0
  161.1160  203.3610  148.8320 N   0  0  0  0  0  0  0  0  0  0  0  0
  160.2710  202.3340  150.7810 N   0  0  0  0  0  0  0  0  0  0  0  0
  161.7410  204.3010  149.5920 C   0  0  0  0  0  3  0  0  0  0  0  0
  160.3790  202.3780  149.4260 C   0  0  0  0  0  0  0  0  0  0  0  0
  160.8850  203.2560  151.5630 C   0  0  0  0  0  3  0  0  0  0  0  0
  159.7990  201.5020  148.7290 O   0  0  0  0  0  0  0  0  0  0  0  0
  161.6280  204.2780  150.9800 C   0  0  0  0  0  0  0  0  0  0  0  0
  161.2540  203.4230  147.3800 C   0  0  0  0  0  2  0  0  0  0  0  0
  161.6450  204.8190  146.9250 C   0  0  0  0  0  2  0  0  0  0  0  0
  162.5630  204.7560  145.7270 C   0  0  0  0  0  1  0  0  0  0  0  0
  1  6  1  0  0  0  0
  1  8  1  0  0  0  0
  2 11  1  0  0  0  0
  3  5  1  0  0  0  0
  3 18  1  0  0  0  0
  4  2  2  0  0  0  0
  6 12  1  0  0  0  0
  7 11  1  0  0  0  0
  7 10  1  0  0  0  0
  8  3  1  0  0  0  0
  9  4  1  0  0  0  0
 10  6  2  0  0  0  0
 11  1  2  0  0  0  0
 12  5  1  0  0  0  0
 13  7  2  0  0  0  0
 14  9  2  0  0  0  0
 14 13  1  0  0  0  0
 15 16  2  0  0  0  0
 16  4  1  0  0  0  0
 16 17  1  0  0  0  0
 18 19  1  0  0  0  0
 19 20  1  0  0  0  0
 21 20  1  6  0  0  0
 21 26  1  0  0  0  0
 22 21  1  0  0  0  0
 23 27  2  0  0  0  0
 24 26  1  0  0  0  0
 25 24  1  0  0  0  0
 27 22  1  0  0  0  0
 27 25  1  0  0  0  0
 28 29  1  0  0  0  0
 30 28  1  0  0  0  0
 30 25  1  0  0  0  0
 30 29  1  0  0  0  0
 31 10  1  0  0  0  0
 32 35  1  0  0  0  0
 32 34  1  0  0  0  0
 33 36  2  0  0  0  0
 34 38  2  0  0  0  0
 35 33  1  0  0  0  0
 37 35  2  0  0  0  0
 38 36  1  0  0  0  0
 38 31  1  0  0  0  0
 39 32  1  0  0  0  0
 40 39  1  0  0  0  0
 41 40  1  0  0  0  0
M  END
>  <MODEL>
2

>  <REMARK>
 VINA RESULT:      -7.0      3.970      8.484
  Name = 
  10 active torsions:
  status: ('A' for Active; 'I' for Inactive)
    1  A    between atoms: C_1  and  O_13
    2  A    between atoms: N_2  and  C_32
    3  A    between atoms: C_3  and  N_15
    4  A    between atoms: C_3  and  C_37
    5  A    between atoms: C_10  and  C_32
    6  A    between atoms: O_13  and  C_37
    7  A    between atoms: N_17  and  C_29
    8  A    between atoms: N_17  and  C_40
    9  A    between atoms: C_18  and  C_22
   10  A    between atoms: N_23  and  C_39
                            x       y       z     vdW  Elec       q    Type
                         _______ _______ _______ _____ _____    ______ ____

>  <TORSDO>
F 10

$$$$
=
 OpenBabel11042420503D

 41 46  0  0  1  0  0  0  0  0999 V2000
  161.5180  208.4680  151.9990 C   0  0  0  0  0  0  0  0  0  0  0  0
  161.6050  210.2840  150.4120 N   0  0  0  0  0  0  0  0  0  0  0  0
  162.2050  206.0990  151.8730 N   0  0  0  0  0  0  0  0  0  0  0  0
  161.4100  211.5320  149.9090 C   0  0  0  0  0  0  0  0  0  0  0  0
  162.3120  206.1400  153.3440 C   0  0  0  0  0  2  0  0  0  0  0  0
  161.0350  208.2780  153.2730 C   0  0  0  0  0  0  0  0  0  0  0  0
  160.5510  210.4050  152.7170 C   0  0  0  0  0  0  0  0  0  0  0  0
  162.3300  207.4380  151.2680 C   0  0  0  0  0  2  0  0  0  0  0  0
  160.7900  212.5960  150.5800 C   0  0  0  0  0  3  0  0  0  0  0  0
  160.4150  209.4440  153.7030 C   0  0  0  0  0  0  0  0  0  0  0  0
  161.2540  209.7650  151.6110 C   0  0  0  0  0  0  0  0  0  0  0  0
  161.2150  206.9910  154.0120 C   0  0  0  0  0  2  0  0  0  0  0  0
  160.1010  211.7060  152.8190 C   0  0  0  0  0  3  0  0  0  0  0  0
  160.2210  212.6850  151.8470 C   0  0  0  0  0  3  0  0  0  0  0  0
  161.1230  211.7320  147.5520 O   0  0  0  0  0  0  0  0  0  0  0  0
  161.9010  211.7850  148.5430 C   0  0  0  0  0  0  0  0  0  0  0  0
  163.2110  212.0820  148.3400 F   0  0  0  0  0  0  0  0  0  0  0  0
  160.9310  205.5040  151.4700 C   0  0  0  0  0  2  0  0  0  0  0  0
  161.0430  203.9900  151.4690 C   0  0  0  0  0  2  0  0  0  0  0  0
  160.3350  203.4620  150.3890 O   0  0  0  0  0  0  0  0  0  0  0  0
  161.2270  203.4780  149.3160 C   0  0  1  0  0  3  0  0  0  0  0  0
  161.0020  202.2260  148.4520 C   0  0  0  0  0  2  0  0  0  0  0  0
  160.7960  201.5540  146.1830 O   0  0  0  0  0  0  0  0  0  0  0  0
  162.0480  204.7750  147.3830 C   0  0  0  0  0  2  0  0  0  0  0  0
  161.7550  203.6710  146.4650 N   0  0  0  0  0  0  0  0  0  0  0  0
  161.0570  204.7750  148.5330 C   0  0  0  0  0  2  0  0  0  0  0  0
  161.1900  202.4470  146.9740 C   0  0  0  0  0  0  0  0  0  0  0  0
  160.4890  204.5950  144.5760 C   0  0  0  0  0  2  0  0  0  0  0  0
  161.7330  205.4330  144.7640 C   0  0  0  0  0  2  0  0  0  0  0  0
  161.7870  203.9310  145.0240 C   0  0  0  0  0  3  0  0  0  0  0  0
  159.8430  209.6780  154.9960 N   0  0  0  0  0  2  0  0  0  0  0  0
  157.7890  212.6110  155.9080 N   0  0  0  0  0  0  0  0  0  0  0  0
  159.9530  212.9060  156.8020 N   0  0  0  0  0  0  0  0  0  0  0  0
  158.1710  211.4240  155.3620 C   0  0  0  0  0  3  0  0  0  0  0  0
  158.6800  213.3530  156.6270 C   0  0  0  0  0  0  0  0  0  0  0  0
  160.3600  211.7270  156.2690 C   0  0  0  0  0  3  0  0  0  0  0  0
  158.3340  214.4520  157.1390 O   0  0  0  0  0  0  0  0  0  0  0  0
  159.4740  210.9600  155.5190 C   0  0  0  0  0  0  0  0  0  0  0  0
  156.4150  213.0650  155.7160 C   0  0  0  0  0  2  0  0  0  0  0  0
  155.9480  212.8160  154.2920 C   0  0  0  0  0  2  0  0  0  0  0  0
  156.2800  213.9920  153.4040 C   0  0  0  0  0  1  0  0  0  0  0  0
  1  6  1  0  0  0  0
  2 11  1  0  0  0  0
  3  5  1  0  0  0  0
  4  2  2  0  0  0  0
  4  9  1  0  0  0  0
  5 12  1  0  0  0  0
  6 10  2  0  0  0  0
  6 12  1  0  0  0  0
  7 13  2  0  0  0  0
  7 10  1  0  0  0  0
  8  3  1  0  0  0  0
  8  1  1  0  0  0  0
  9 14  2  0  0  0  0
 10 31  1  0  0  0  0
 11  1  2  0  0  0  0
 11  7  1  0  0  0  0
 14 13  1  0  0  0  0
 15 16  2  0  0  0  0
 16  4  1  0  0  0  0
 17 16  1  0  0  0  0
 18  3  1  0  0  0  0
 19 18  1  0  0  0  0
 20 19  1  0  0  0  0
 21 20  1  1  0  0  0
 22 21  1  0  0  0  0
 23 27  2  0  0  0  0
 24 26  1  0  0  0  0
 25 27  1  0  0  0  0
 25 24  1  0  0  0  0
 26 21  1  0  0  0  0
 27 22  1  0  0  0  0
 28 29  1  0  0  0  0
 28 30  1  0  0  0  0
 29 30  1  0  0  0  0
 30 25  1  0  0  0  0
 31 38  1  0  0  0  0
 32 35  1  0  0  0  0
 34 38  2  0  0  0  0
 34 32  1  0  0  0  0
 35 33  1  0  0  0  0
 35 37  2  0  0  0  0
 36 33  2  0  0  0  0
 38 36  1  0  0  0  0
 39 32  1  0  0  0  0
 40 39  1  0  0  0  0
 41 40  1  0  0  0  0
M  END
>  <MODEL>
3

>  <REMARK>
 VINA RESULT:      -6.9      3.766      8.551
  Name = 
  10 active torsions:
  status: ('A' for Active; 'I' for Inactive)
    1  A    between atoms: C_1  and  O_13
    2  A    between atoms: N_2  and  C_32
    3  A    between atoms: C_3  and  N_15
    4  A    between atoms: C_3  and  C_37
    5  A    between atoms: C_10  and  C_32
    6  A    between atoms: O_13  and  C_37
    7  A    between atoms: N_17  and  C_29
    8  A    between atoms: N_17  and  C_40
    9  A    between atoms: C_18  and  C_22
   10  A    between atoms: N_23  and  C_39
                            x       y       z     vdW  Elec       q    Type
                         _______ _______ _______ _____ _____    ______ ____

>  <TORSDO>
F 10

$$$$
=
 OpenBabel11042420503D

 41 46  0  0  1  0  0  0  0  0999 V2000
  160.4410  212.3140  151.0860 C   0  0  0  0  0  0  0  0  0  0  0  0
  159.4200  212.4040  153.2700 N   0  0  0  0  0  0  0  0  0  0  0  0
  160.3260  213.8040  149.1200 N   0  0  0  0  0  0  0  0  0  0  0  0
  159.0840  212.0020  154.5260 C   0  0  0  0  0  0  0  0  0  0  0  0
  161.6320  213.2410  148.7230 C   0  0  0  0  0  2  0  0  0  0  0  0
  161.2430  211.4350  150.3940 C   0  0  0  0  0  0  0  0  0  0  0  0
  160.8480  210.4950  152.4010 C   0  0  0  0  0  0  0  0  0  0  0  0
  160.0820  213.6770  150.5690 C   0  0  0  0  0  2  0  0  0  0  0  0
  159.4970  210.8110  155.1400 C   0  0  0  0  0  3  0  0  0  0  0  0
  161.4660  210.3090  151.1770 C   0  0  0  0  0  0  0  0  0  0  0  0
  160.1750  211.7870  152.3330 C   0  0  0  0  0  0  0  0  0  0  0  0
  161.7640  211.7360  149.0260 C   0  0  0  0  0  2  0  0  0  0  0  0
  160.9010  209.6020  153.4530 C   0  0  0  0  0  3  0  0  0  0  0  0
  160.2900  209.7620  154.6850 C   0  0  0  0  0  3  0  0  0  0  0  0
  158.0450  214.1020  154.9530 O   0  0  0  0  0  0  0  0  0  0  0  0
  158.2190  212.9050  155.3060 C   0  0  0  0  0  0  0  0  0  0  0  0
  157.5960  212.4470  156.4220 F   0  0  0  0  0  0  0  0  0  0  0  0
  159.2430  213.1470  148.3880 C   0  0  0  0  0  2  0  0  0  0  0  0
  159.1390  213.7260  146.9880 C   0  0  0  0  0  2  0  0  0  0  0  0
  159.3270  212.7180  146.0420 O   0  0  0  0  0  0  0  0  0  0  0  0
  159.8970  213.3490  144.9350 C   0  0  1  0  0  3  0  0  0  0  0  0
  161.4210  213.4290  145.1280 C   0  0  0  0  0  2  0  0  0  0  0  0
  163.4570  213.0820  143.9560 O   0  0  0  0  0  0  0  0  0  0  0  0
  160.1190  213.3190  142.4770 C   0  0  0  0  0  2  0  0  0  0  0  0
  161.5810  213.2760  142.5680 N   0  0  0  0  0  0  0  0  0  0  0  0
  159.5010  212.6040  143.6660 C   0  0  0  0  0  2  0  0  0  0  0  0
  162.2190  213.2700  143.8610 C   0  0  0  0  0  0  0  0  0  0  0  0
  162.2290  211.4830  141.0210 C   0  0  0  0  0  2  0  0  0  0  0  0
  161.4120  212.4950  140.2530 C   0  0  0  0  0  2  0  0  0  0  0  0
  162.3490  212.9650  141.3600 C   0  0  0  0  0  3  0  0  0  0  0  0
  162.3020  209.1930  150.8470 N   0  0  0  0  0  2  0  0  0  0  0  0
  161.1900  206.4430  148.6450 N   0  0  0  0  0  0  0  0  0  0  0  0
  161.3480  205.6190  150.8510 N   0  0  0  0  0  0  0  0  0  0  0  0
  161.5710  207.6770  149.0740 C   0  0  0  0  0  3  0  0  0  0  0  0
  161.0770  205.4130  149.5340 C   0  0  0  0  0  0  0  0  0  0  0  0
  161.7310  206.8380  151.3050 C   0  0  0  0  0  3  0  0  0  0  0  0
  160.7280  204.2650  149.1450 O   0  0  0  0  0  0  0  0  0  0  0  0
  161.8370  207.9070  150.4210 C   0  0  0  0  0  0  0  0  0  0  0  0
  160.9140  206.2440  147.2260 C   0  0  0  0  0  2  0  0  0  0  0  0
  162.1950  206.0080  146.4450 C   0  0  0  0  0  2  0  0  0  0  0  0
  162.2980  204.5680  146.0010 C   0  0  0  0  0  1  0  0  0  0  0  0
  1 11  1  0  0  0  0
  2  4  1  0  0  0  0
  3  8  1  0  0  0  0
  4  9  2  0  0  0  0
  4 16  1  0  0  0  0
  5 12  1  0  0  0  0
  5  3  1  0  0  0  0
  6  1  2  0  0  0  0
  6 10  1  0  0  0  0
  7 13  1  0  0  0  0
  8  1  1  0  0  0  0
 10  7  2  0  0  0  0
 11  7  1  0  0  0  0
 11  2  2  0  0  0  0
 12  6  1  0  0  0  0
 13 14  2  0  0  0  0
 14  9  1  0  0  0  0
 15 16  2  0  0  0  0
 16 17  1  0  0  0  0
 18  3  1  0  0  0  0
 19 18  1  0  0  0  0
 20 19  1  0  0  0  0
 21 22  1  0  0  0  0
 21 20  1  1  0  0  0
 24 25  1  0  0  0  0
 24 26  1  0  0  0  0
 25 27  1  0  0  0  0
 26 21  1  0  0  0  0
 27 23  2  0  0  0  0
 27 22  1  0  0  0  0
 28 30  1  0  0  0  0
 29 28  1  0  0  0  0
 29 30  1  0  0  0  0
 30 25  1  0  0  0  0
 31 10  1  0  0  0  0
 32 34  1  0  0  0  0
 32 35  1  0  0  0  0
 33 36  2  0  0  0  0
 34 38  2  0  0  0  0
 35 33  1  0  0  0  0
 37 35  2  0  0  0  0
 38 31  1  0  0  0  0
 38 36  1  0  0  0  0
 39 32  1  0  0  0  0
 40 39  1  0  0  0  0
 41 40  1  0  0  0  0
M  END
>  <MODEL>
4

>  <REMARK>
 VINA RESULT:      -6.9      0.886      1.658
  Name = 
  10 active torsions:
  status: ('A' for Active; 'I' for Inactive)
    1  A    between atoms: C_1  and  O_13
    2  A    between atoms: N_2  and  C_32
    3  A    between atoms: C_3  and  N_15
    4  A    between atoms: C_3  and  C_37
    5  A    between atoms: C_10  and  C_32
    6  A    between atoms: O_13  and  C_37
    7  A    between atoms: N_17  and  C_29
    8  A    between atoms: N_17  and  C_40
    9  A    between atoms: C_18  and  C_22
   10  A    between atoms: N_23  and  C_39
                            x       y       z     vdW  Elec       q    Type
                         _______ _______ _______ _____ _____    ______ ____

>  <TORSDO>
F 10

$$$$
=
 OpenBabel11042420503D

 41 46  0  0  1  0  0  0  0  0999 V2000
  160.7160  212.4660  150.4470 C   0  0  0  0  0  0  0  0  0  0  0  0
  159.4560  212.8640  152.4660 N   0  0  0  0  0  0  0  0  0  0  0  0
  160.9050  213.7040  148.3200 N   0  0  0  0  0  0  0  0  0  0  0  0
  158.9560  212.6330  153.7100 C   0  0  0  0  0  0  0  0  0  0  0  0
  162.2170  213.0480  148.1530 C   0  0  0  0  0  2  0  0  0  0  0  0
  161.5450  211.4780  149.9660 C   0  0  0  0  0  0  0  0  0  0  0  0
  160.8730  210.8100  152.0090 C   0  0  0  0  0  0  0  0  0  0  0  0
  160.4890  213.7660  149.7330 C   0  0  0  0  0  2  0  0  0  0  0  0
  159.2330  211.5130  154.5070 C   0  0  0  0  0  3  0  0  0  0  0  0
  161.6180  210.4510  150.8990 C   0  0  0  0  0  0  0  0  0  0  0  0
  160.2810  212.1080  151.7060 C   0  0  0  0  0  0  0  0  0  0  0  0
  162.2360  211.5880  148.6450 C   0  0  0  0  0  2  0  0  0  0  0  0
  160.7590  210.0530  153.1580 C   0  0  0  0  0  3  0  0  0  0  0  0
  160.0180  210.3860  154.2780 C   0  0  0  0  0  3  0  0  0  0  0  0
  157.0590  214.0700  153.6150 O   0  0  0  0  0  0  0  0  0  0  0  0
  158.0550  213.6570  154.2680 C   0  0  0  0  0  0  0  0  0  0  0  0
  158.2930  214.1670  155.5040 F   0  0  0  0  0  0  0  0  0  0  0  0
  159.8820  213.0030  147.5450 C   0  0  0  0  0  2  0  0  0  0  0  0
  159.4920  213.8300  146.3330 C   0  0  0  0  0  2  0  0  0  0  0  0
  160.6330  214.1790  145.6090 O   0  0  0  0  0  0  0  0  0  0  0  0
  160.7720  213.1900  144.6350 C   0  0  1  0  0  3  0  0  0  0  0  0
  159.4820  213.1170  143.8000 C   0  0  0  0  0  2  0  0  0  0  0  0
  158.7370  212.9650  141.5500 O   0  0  0  0  0  0  0  0  0  0  0  0
  162.1440  212.3800  142.7490 C   0  0  0  0  0  2  0  0  0  0  0  0
  160.9880  212.3920  141.8490 N   0  0  0  0  0  0  0  0  0  0  0  0
  162.0070  213.4780  143.7890 C   0  0  0  0  0  2  0  0  0  0  0  0
  159.6990  212.8070  142.3420 C   0  0  0  0  0  0  0  0  0  0  0  0
  162.1220  213.3640  139.9010 C   0  0  0  0  0  2  0  0  0  0  0  0
  162.6990  211.9900  140.1440 C   0  0  0  0  0  2  0  0  0  0  0  0
  161.2200  212.2460  140.4100 C   0  0  0  0  0  3  0  0  0  0  0  0
  162.4280  209.2730  150.8070 N   0  0  0  0  0  2  0  0  0  0  0  0
  161.1500  205.9200  149.9270 N   0  0  0  0  0  0  0  0  0  0  0  0
  161.9160  206.9690  147.9570 N   0  0  0  0  0  0  0  0  0  0  0  0
  161.5160  207.0090  150.6550 C   0  0  0  0  0  3  0  0  0  0  0  0
  161.3510  205.8990  148.5770 C   0  0  0  0  0  0  0  0  0  0  0  0
  162.2890  208.0680  148.6590 C   0  0  0  0  0  3  0  0  0  0  0  0
  161.0120  204.8950  147.8930 O   0  0  0  0  0  0  0  0  0  0  0  0
  162.1100  208.1070  150.0380 C   0  0  0  0  0  0  0  0  0  0  0  0
  160.5360  204.7870  150.6120 C   0  0  0  0  0  2  0  0  0  0  0  0
  161.4930  204.1700  151.6180 C   0  0  0  0  0  2  0  0  0  0  0  0
  161.2960  202.6750  151.7010 C   0  0  0  0  0  1  0  0  0  0  0  0
  1 11  1  0  0  0  0
  2  4  1  0  0  0  0
  3  8  1  0  0  0  0
  4 16  1  0  0  0  0
  4  9  2  0  0  0  0
  5  3  1  0  0  0  0
  5 12  1  0  0  0  0
  6  1  2  0  0  0  0
  6 10  1  0  0  0  0
  7 13  1  0  0  0  0
  8  1  1  0  0  0  0
 10  7  2  0  0  0  0
 11  7  1  0  0  0  0
 11  2  2  0  0  0  0
 12  6  1  0  0  0  0
 13 14  2  0  0  0  0
 14  9  1  0  0  0  0
 15 16  2  0  0  0  0
 16 17  1  0  0  0  0
 18  3  1  0  0  0  0
 19 18  1  0  0  0  0
 20 19  1  0  0  0  0
 21 20  1  1  0  0  0
 22 21  1  0  0  0  0
 23 27  2  0  0  0  0
 24 26  1  0  0  0  0
 25 27  1  0  0  0  0
 25 24  1  0  0  0  0
 26 21  1  0  0  0  0
 27 22  1  0  0  0  0
 28 29  1  0  0  0  0
 28 30  1  0  0  0  0
 29 30  1  0  0  0  0
 30 25  1  0  0  0  0
 31 10  1  0  0  0  0
 32 39  1  0  0  0  0
 32 34  1  0  0  0  0
 33 35  1  0  0  0  0
 33 36  2  0  0  0  0
 35 32  1  0  0  0  0
 36 38  1  0  0  0  0
 37 35  2  0  0  0  0
 38 34  2  0  0  0  0
 38 31  1  0  0  0  0
 39 40  1  0  0  0  0
 40 41  1  0  0  0  0
M  END
>  <MODEL>
5

>  <REMARK>
 VINA RESULT:      -6.7      1.280      1.613
  Name = 
  10 active torsions:
  status: ('A' for Active; 'I' for Inactive)
    1  A    between atoms: C_1  and  O_13
    2  A    between atoms: N_2  and  C_32
    3  A    between atoms: C_3  and  N_15
    4  A    between atoms: C_3  and  C_37
    5  A    between atoms: C_10  and  C_32
    6  A    between atoms: O_13  and  C_37
    7  A    between atoms: N_17  and  C_29
    8  A    between atoms: N_17  and  C_40
    9  A    between atoms: C_18  and  C_22
   10  A    between atoms: N_23  and  C_39
                            x       y       z     vdW  Elec       q    Type
                         _______ _______ _______ _____ _____    ______ ____

>  <TORSDO>
F 10

$$$$
=
 OpenBabel11042420503D

 41 46  0  0  1  0  0  0  0  0999 V2000
  161.3820  208.2110  152.3540 C   0  0  0  0  0  0  0  0  0  0  0  0
  161.0650  206.1760  151.0960 N   0  0  0  0  0  0  0  0  0  0  0  0
  161.0110  208.7890  154.7250 N   0  0  0  0  0  0  0  0  0  0  0  0
  161.0270  205.3520  150.0150 C   0  0  0  0  0  0  0  0  0  0  0  0
  162.0090  209.8590  154.5330 C   0  0  0  0  0  2  0  0  0  0  0  0
  161.7610  209.5050  152.0800 C   0  0  0  0  0  0  0  0  0  0  0  0
  161.7750  208.4060  150.1150 C   0  0  0  0  0  0  0  0  0  0  0  0
  161.1690  207.6970  153.7480 C   0  0  0  0  0  2  0  0  0  0  0  0
  161.3520  205.7140  148.7000 C   0  0  0  0  0  3  0  0  0  0  0  0
  161.9690  209.6380  150.7130 C   0  0  0  0  0  0  0  0  0  0  0  0
  161.3820  207.4880  151.1790 C   0  0  0  0  0  0  0  0  0  0  0  0
  161.9200  210.5350  153.1520 C   0  0  0  0  0  2  0  0  0  0  0  0
  161.9470  208.1470  148.7700 C   0  0  0  0  0  3  0  0  0  0  0  0
  161.7560  206.9260  148.1470 C   0  0  0  0  0  3  0  0  0  0  0  0
  160.8360  203.0600  149.3940 O   0  0  0  0  0  0  0  0  0  0  0  0
  160.6190  203.9560  150.2540 C   0  0  0  0  0  0  0  0  0  0  0  0
  160.0000  203.6220  151.4160 F   0  0  0  0  0  0  0  0  0  0  0  0
  159.6560  209.3320  154.6280 C   0  0  0  0  0  2  0  0  0  0  0  0
  159.2010  209.8350  155.9860 C   0  0  0  0  0  2  0  0  0  0  0  0
  160.1070  210.7780  156.4720 O   0  0  0  0  0  0  0  0  0  0  0  0
  159.4100  211.9870  156.4890 C   0  0  1  0  0  3  0  0  0  0  0  0
  159.7860  212.8050  155.2430 C   0  0  0  0  0  2  0  0  0  0  0  0
  158.8070  214.1170  153.5220 O   0  0  0  0  0  0  0  0  0  0  0  0
  157.1820  213.0410  156.6180 C   0  0  0  0  0  2  0  0  0  0  0  0
  157.4100  213.7730  155.3700 N   0  0  0  0  0  0  0  0  0  0  0  0
  157.9140  211.7110  156.5850 C   0  0  0  0  0  2  0  0  0  0  0  0
  158.6570  213.6160  154.6640 C   0  0  0  0  0  0  0  0  0  0  0  0
  155.4450  213.4180  153.9420 C   0  0  0  0  0  2  0  0  0  0  0  0
  154.9650  213.8880  155.2950 C   0  0  0  0  0  2  0  0  0  0  0  0
  156.2710  214.4320  154.7260 C   0  0  0  0  0  3  0  0  0  0  0  0
  162.4360  210.8090  150.0320 N   0  0  0  0  0  2  0  0  0  0  0  0
  159.9490  213.3730  149.0870 N   0  0  0  0  0  0  0  0  0  0  0  0
  161.0890  212.6830  147.1400 N   0  0  0  0  0  0  0  0  0  0  0  0
  160.6780  212.4970  149.8300 C   0  0  0  0  0  3  0  0  0  0  0  0
  160.1530  213.4650  147.7410 C   0  0  0  0  0  0  0  0  0  0  0  0
  161.8310  211.8020  147.8570 C   0  0  0  0  0  3  0  0  0  0  0  0
  159.4840  214.2760  147.0440 O   0  0  0  0  0  0  0  0  0  0  0  0
  161.6290  211.6780  149.2280 C   0  0  0  0  0  0  0  0  0  0  0  0
  158.9570  214.2090  149.7550 C   0  0  0  0  0  2  0  0  0  0  0  0
  157.7630  213.3880  150.2100 C   0  0  0  0  0  2  0  0  0  0  0  0
  156.6400  214.2840  150.6770 C   0  0  0  0  0  1  0  0  0  0  0  0
  1  8  1  0  0  0  0
  2 11  1  0  0  0  0
  4 16  1  0  0  0  0
  4  2  2  0  0  0  0
  5  3  1  0  0  0  0
  6  1  1  0  0  0  0
  6 12  1  0  0  0  0
  7 10  1  0  0  0  0
  7 11  1  0  0  0  0
  8  3  1  0  0  0  0
  9  4  1  0  0  0  0
 10  6  2  0  0  0  0
 11  1  2  0  0  0  0
 12  5  1  0  0  0  0
 13  7  2  0  0  0  0
 14  9  2  0  0  0  0
 14 13  1  0  0  0  0
 15 16  2  0  0  0  0
 16 17  1  0  0  0  0
 18  3  1  0  0  0  0
 18 19  1  0  0  0  0
 19 20  1  0  0  0  0
 21 20  1  6  0  0  0
 21 26  1  0  0  0  0
 22 21  1  0  0  0  0
 23 27  2  0  0  0  0
 25 24  1  0  0  0  0
 26 24  1  0  0  0  0
 27 22  1  0  0  0  0
 27 25  1  0  0  0  0
 28 30  1  0  0  0  0
 28 29  1  0  0  0  0
 30 29  1  0  0  0  0
 30 25  1  0  0  0  0
 31 10  1  0  0  0  0
 32 39  1  0  0  0  0
 32 34  1  0  0  0  0
 33 35  1  0  0  0  0
 33 36  2  0  0  0  0
 35 32  1  0  0  0  0
 36 38  1  0  0  0  0
 37 35  2  0  0  0  0
 38 34  2  0  0  0  0
 38 31  1  0  0  0  0
 39 40  1  0  0  0  0
 40 41  1  0  0  0  0
M  END
>  <MODEL>
6

>  <REMARK>
 VINA RESULT:      -6.6      3.277      9.148
  Name = 
  10 active torsions:
  status: ('A' for Active; 'I' for Inactive)
    1  A    between atoms: C_1  and  O_13
    2  A    between atoms: N_2  and  C_32
    3  A    between atoms: C_3  and  N_15
    4  A    between atoms: C_3  and  C_37
    5  A    between atoms: C_10  and  C_32
    6  A    between atoms: O_13  and  C_37
    7  A    between atoms: N_17  and  C_29
    8  A    between atoms: N_17  and  C_40
    9  A    between atoms: C_18  and  C_22
   10  A    between atoms: N_23  and  C_39
                            x       y       z     vdW  Elec       q    Type
                         _______ _______ _______ _____ _____    ______ ____

>  <TORSDO>
F 10

$$$$
=
 OpenBabel11042420503D

 41 46  0  0  1  0  0  0  0  0999 V2000
  161.4430  208.1010  152.1370 C   0  0  0  0  0  0  0  0  0  0  0  0
  161.0720  205.9870  151.0360 N   0  0  0  0  0  0  0  0  0  0  0  0
  161.1600  208.8440  154.4750 N   0  0  0  0  0  0  0  0  0  0  0  0
  160.9920  205.0900  150.0160 C   0  0  0  0  0  0  0  0  0  0  0  0
  162.1560  209.8910  154.1740 C   0  0  0  0  0  2  0  0  0  0  0  0
  161.8180  209.3710  151.7610 C   0  0  0  0  0  0  0  0  0  0  0  0
  161.7570  208.1380  149.8780 C   0  0  0  0  0  0  0  0  0  0  0  0
  161.2790  207.6860  153.5710 C   0  0  0  0  0  2  0  0  0  0  0  0
  161.2700  205.3590  148.6680 C   0  0  0  0  0  3  0  0  0  0  0  0
  161.9770  209.4080  150.3820 C   0  0  0  0  0  0  0  0  0  0  0  0
  161.3980  207.2990  151.0160 C   0  0  0  0  0  0  0  0  0  0  0  0
  162.0200  210.4710  152.7530 C   0  0  0  0  0  2  0  0  0  0  0  0
  161.8790  207.7860  148.5480 C   0  0  0  0  0  3  0  0  0  0  0  0
  161.6600  206.5260  148.0190 C   0  0  0  0  0  3  0  0  0  0  0  0
  160.6810  203.2930  151.5490 O   0  0  0  0  0  0  0  0  0  0  0  0
  160.5860  203.7170  150.3650 C   0  0  0  0  0  0  0  0  0  0  0  0
  160.0990  202.8910  149.4040 F   0  0  0  0  0  0  0  0  0  0  0  0
  159.8060  209.3880  154.3890 C   0  0  0  0  0  2  0  0  0  0  0  0
  159.2780  209.6890  155.7810 C   0  0  0  0  0  2  0  0  0  0  0  0
  160.1550  210.5460  156.4460 O   0  0  0  0  0  0  0  0  0  0  0  0
  159.4740  211.7600  156.5570 C   0  0  1  0  0  3  0  0  0  0  0  0
  159.8850  212.6790  155.3950 C   0  0  0  0  0  2  0  0  0  0  0  0
  158.9550  214.1510  153.7790 O   0  0  0  0  0  0  0  0  0  0  0  0
  157.2570  212.8310  156.7390 C   0  0  0  0  0  2  0  0  0  0  0  0
  157.5190  213.6660  155.5640 N   0  0  0  0  0  0  0  0  0  0  0  0
  157.9730  211.4990  156.6010 C   0  0  0  0  0  2  0  0  0  0  0  0
  158.7770  213.5530  154.8700 C   0  0  0  0  0  0  0  0  0  0  0  0
  155.5210  213.4470  154.1540 C   0  0  0  0  0  2  0  0  0  0  0  0
  155.0810  213.8890  155.5290 C   0  0  0  0  0  2  0  0  0  0  0  0
  156.4010  214.3960  154.9600 C   0  0  0  0  0  3  0  0  0  0  0  0
  162.4250  210.5260  149.6050 N   0  0  0  0  0  2  0  0  0  0  0  0
  160.6530  212.7720  147.2680 N   0  0  0  0  0  0  0  0  0  0  0  0
  159.9690  213.2900  149.4670 N   0  0  0  0  0  0  0  0  0  0  0  0
  161.4900  211.8130  147.7490 C   0  0  0  0  0  3  0  0  0  0  0  0
  159.8930  213.5120  148.1270 C   0  0  0  0  0  0  0  0  0  0  0  0
  160.7940  212.3390  149.9730 C   0  0  0  0  0  3  0  0  0  0  0  0
  159.1120  214.4010  147.6900 O   0  0  0  0  0  0  0  0  0  0  0  0
  161.5910  211.5840  149.1180 C   0  0  0  0  0  0  0  0  0  0  0  0
  160.5800  212.9860  145.8260 C   0  0  0  0  0  2  0  0  0  0  0  0
  161.6240  213.9900  145.3670 C   0  0  0  0  0  2  0  0  0  0  0  0
  162.6680  213.3220  144.5030 C   0  0  0  0  0  1  0  0  0  0  0  0
  1  8  1  0  0  0  0
  4 16  1  0  0  0  0
  4  2  2  0  0  0  0
  5  3  1  0  0  0  0
  6  1  1  0  0  0  0
  6 12  1  0  0  0  0
  7 10  1  0  0  0  0
  7 11  1  0  0  0  0
  8  3  1  0  0  0  0
  9  4  1  0  0  0  0
 10  6  2  0  0  0  0
 11  2  1  0  0  0  0
 11  1  2  0  0  0  0
 12  5  1  0  0  0  0
 13  7  2  0  0  0  0
 14 13  1  0  0  0  0
 14  9  2  0  0  0  0
 16 15  2  0  0  0  0
 17 16  1  0  0  0  0
 18  3  1  0  0  0  0
 18 19  1  0  0  0  0
 19 20  1  0  0  0  0
 21 20  1  6  0  0  0
 21 26  1  0  0  0  0
 22 21  1  0  0  0  0
 23 27  2  0  0  0  0
 25 24  1  0  0  0  0
 26 24  1  0  0  0  0
 27 22  1  0  0  0  0
 27 25  1  0  0  0  0
 28 30  1  0  0  0  0
 28 29  1  0  0  0  0
 30 29  1  0  0  0  0
 30 25  1  0  0  0  0
 31 10  1  0  0  0  0
 32 34  1  0  0  0  0
 32 35  1  0  0  0  0
 33 36  2  0  0  0  0
 34 38  2  0  0  0  0
 35 33  1  0  0  0  0
 37 35  2  0  0  0  0
 38 31  1  0  0  0  0
 38 36  1  0  0  0  0
 39 32  1  0  0  0  0
 40 39  1  0  0  0  0
 41 40  1  0  0  0  0
M  END
>  <MODEL>
7

>  <REMARK>
 VINA RESULT:      -6.6      2.902      9.293
  Name = 
  10 active torsions:
  status: ('A' for Active; 'I' for Inactive)
    1  A    between atoms: C_1  and  O_13
    2  A    between atoms: N_2  and  C_32
    3  A    between atoms: C_3  and  N_15
    4  A    between atoms: C_3  and  C_37
    5  A    between atoms: C_10  and  C_32
    6  A    between atoms: O_13  and  C_37
    7  A    between atoms: N_17  and  C_29
    8  A    between atoms: N_17  and  C_40
    9  A    between atoms: C_18  and  C_22
   10  A    between atoms: N_23  and  C_39
                            x       y       z     vdW  Elec       q    Type
                         _______ _______ _______ _____ _____    ______ ____

>  <TORSDO>
F 10

$$$$
=
 OpenBabel11042420503D

 41 46  0  0  1  0  0  0  0  0999 V2000
  161.6740  208.8710  148.9450 C   0  0  0  0  0  0  0  0  0  0  0  0
  161.2370  207.1070  147.3590 N   0  0  0  0  0  0  0  0  0  0  0  0
  161.8410  211.3250  148.7180 N   0  0  0  0  0  0  0  0  0  0  0  0
  161.0830  205.8400  146.8880 C   0  0  0  0  0  0  0  0  0  0  0  0
  161.4980  211.3960  150.1520 C   0  0  0  0  0  2  0  0  0  0  0  0
  161.9880  208.9570  150.2830 C   0  0  0  0  0  0  0  0  0  0  0  0
  161.8190  206.7630  149.8050 C   0  0  0  0  0  0  0  0  0  0  0  0
  161.3750  210.0720  148.0950 C   0  0  0  0  0  2  0  0  0  0  0  0
  161.2020  204.6670  147.6480 C   0  0  0  0  0  3  0  0  0  0  0  0
  162.1110  207.6750  150.8030 C   0  0  0  0  0  0  0  0  0  0  0  0
  161.5500  207.5420  148.6010 C   0  0  0  0  0  0  0  0  0  0  0  0
  162.1330  210.2670  150.9880 C   0  0  0  0  0  2  0  0  0  0  0  0
  161.7900  205.3930  149.9730 C   0  0  0  0  0  3  0  0  0  0  0  0
  161.5050  204.4610  148.9910 C   0  0  0  0  0  3  0  0  0  0  0  0
  161.5810  205.1900  144.6510 O   0  0  0  0  0  0  0  0  0  0  0  0
  160.7550  205.6940  145.4600 C   0  0  0  0  0  0  0  0  0  0  0  0
  159.5450  206.1040  144.9990 F   0  0  0  0  0  0  0  0  0  0  0  0
  163.2860  211.4470  148.5320 C   0  0  0  0  0  2  0  0  0  0  0  0
  163.5960  212.6490  147.6570 C   0  0  0  0  0  2  0  0  0  0  0  0
  162.7330  213.7000  147.9700 O   0  0  0  0  0  0  0  0  0  0  0  0
  162.3000  214.2030  146.7420 C   0  0  1  0  0  3  0  0  0  0  0  0
  163.1840  213.6310  145.6210 C   0  0  0  0  0  2  0  0  0  0  0  0
  163.0360  212.6680  143.4550 O   0  0  0  0  0  0  0  0  0  0  0  0
  160.3740  214.4530  145.2190 C   0  0  0  0  0  2  0  0  0  0  0  0
  161.1040  213.8090  144.1240 N   0  0  0  0  0  0  0  0  0  0  0  0
  160.8230  213.8810  146.5520 C   0  0  0  0  0  2  0  0  0  0  0  0
  162.4550  213.3530  144.3330 C   0  0  0  0  0  0  0  0  0  0  0  0
  159.6560  212.0670  143.1770 C   0  0  0  0  0  2  0  0  0  0  0  0
  158.8660  213.3530  143.2410 C   0  0  0  0  0  2  0  0  0  0  0  0
  160.3580  213.3980  142.9320 C   0  0  0  0  0  3  0  0  0  0  0  0
  162.3640  207.3310  152.1710 N   0  0  0  0  0  2  0  0  0  0  0  0
  160.7220  209.5880  154.5920 N   0  0  0  0  0  0  0  0  0  0  0  0
  160.0890  207.3700  155.0890 N   0  0  0  0  0  0  0  0  0  0  0  0
  161.4990  209.1430  153.5690 C   0  0  0  0  0  3  0  0  0  0  0  0
  160.0180  208.7020  155.3540 C   0  0  0  0  0  0  0  0  0  0  0  0
  160.8550  206.8980  154.0740 C   0  0  0  0  0  3  0  0  0  0  0  0
  159.2920  209.1060  156.3030 O   0  0  0  0  0  0  0  0  0  0  0  0
  161.5960  207.7810  153.2940 C   0  0  0  0  0  0  0  0  0  0  0  0
  160.6530  211.0230  154.8520 C   0  0  0  0  0  2  0  0  0  0  0  0
  160.1730  211.7810  153.6270 C   0  0  0  0  0  2  0  0  0  0  0  0
  158.7570  211.3920  153.2740 C   0  0  0  0  0  1  0  0  0  0  0  0
  1  6  1  0  0  0  0
  2 11  1  0  0  0  0
  3  5  1  0  0  0  0
  4  2  2  0  0  0  0
  4  9  1  0  0  0  0
  5 12  1  0  0  0  0
  6 10  2  0  0  0  0
  6 12  1  0  0  0  0
  7 13  2  0  0  0  0
  7 10  1  0  0  0  0
  8  3  1  0  0  0  0
  8  1  1  0  0  0  0
  9 14  2  0  0  0  0
 10 31  1  0  0  0  0
 11  1  2  0  0  0  0
 11  7  1  0  0  0  0
 14 13  1  0  0  0  0
 15 16  2  0  0  0  0
 16  4  1  0  0  0  0
 17 16  1  0  0  0  0
 18  3  1  0  0  0  0
 19 20  1  0  0  0  0
 19 18  1  0  0  0  0
 21 20  1  1  0  0  0
 22 21  1  0  0  0  0
 23 27  2  0  0  0  0
 24 26  1  0  0  0  0
 25 27  1  0  0  0  0
 25 24  1  0  0  0  0
 26 21  1  0  0  0  0
 27 22  1  0  0  0  0
 28 29  1  0  0  0  0
 30 28  1  0  0  0  0
 30 29  1  0  0  0  0
 30 25  1  0  0  0  0
 31 38  1  0  0  0  0
 32 39  1  0  0  0  0
 32 35  1  0  0  0  0
 33 35  1  0  0  0  0
 34 32  1  0  0  0  0
 35 37  2  0  0  0  0
 36 33  2  0  0  0  0
 38 34  2  0  0  0  0
 38 36  1  0  0  0  0
 40 39  1  0  0  0  0
 41 40  1  0  0  0  0
M  END
>  <MODEL>
8

>  <REMARK>
 VINA RESULT:      -5.8      2.917      6.343
  Name = 
  10 active torsions:
  status: ('A' for Active; 'I' for Inactive)
    1  A    between atoms: C_1  and  O_13
    2  A    between atoms: N_2  and  C_32
    3  A    between atoms: C_3  and  N_15
    4  A    between atoms: C_3  and  C_37
    5  A    between atoms: C_10  and  C_32
    6  A    between atoms: O_13  and  C_37
    7  A    between atoms: N_17  and  C_29
    8  A    between atoms: N_17  and  C_40
    9  A    between atoms: C_18  and  C_22
   10  A    between atoms: N_23  and  C_39
                            x       y       z     vdW  Elec       q    Type
                         _______ _______ _______ _____ _____    ______ ____

>  <TORSDO>
F 10

$$$$
=
 OpenBabel11042420503D

 41 46  0  0  1  0  0  0  0  0999 V2000
  161.3220  210.3970  151.7370 C   0  0  0  0  0  0  0  0  0  0  0  0
  161.6570  211.6590  149.7080 N   0  0  0  0  0  0  0  0  0  0  0  0
  161.9730  208.1140  152.4160 N   0  0  0  0  0  0  0  0  0  0  0  0
  161.5560  212.6960  148.8340 C   0  0  0  0  0  0  0  0  0  0  0  0
  161.8820  208.5940  153.8090 C   0  0  0  0  0  2  0  0  0  0  0  0
  160.6690  210.5850  152.9340 C   0  0  0  0  0  0  0  0  0  0  0  0
  160.3060  212.4400  151.7090 C   0  0  0  0  0  0  0  0  0  0  0  0
  162.2040  209.2140  151.4620 C   0  0  0  0  0  2  0  0  0  0  0  0
  160.8730  213.8990  149.0680 C   0  0  0  0  0  3  0  0  0  0  0  0
  160.0190  211.8130  152.9090 C   0  0  0  0  0  0  0  0  0  0  0  0
  161.1380  211.5140  150.9480 C   0  0  0  0  0  0  0  0  0  0  0  0
  160.7220  209.5810  154.0400 C   0  0  0  0  0  2  0  0  0  0  0  0
  159.8720  213.7020  151.3560 C   0  0  0  0  0  3  0  0  0  0  0  0
  160.1410  214.3480  150.1620 C   0  0  0  0  0  3  0  0  0  0  0  0
  161.5750  212.5300  146.4570 O   0  0  0  0  0  0  0  0  0  0  0  0
  162.2320  212.5410  147.5330 C   0  0  0  0  0  0  0  0  0  0  0  0
  163.5820  212.4080  147.4850 F   0  0  0  0  0  0  0  0  0  0  0  0
  160.7530  207.3990  152.0430 C   0  0  0  0  0  2  0  0  0  0  0  0
  160.8230  206.9810  150.5850 C   0  0  0  0  0  2  0  0  0  0  0  0
  160.5460  205.6190  150.4670 O   0  0  0  0  0  0  0  0  0  0  0  0
  161.3740  205.1590  149.4410 C   0  0  1  0  0  3  0  0  0  0  0  0
  161.1600  203.6470  149.2580 C   0  0  0  0  0  2  0  0  0  0  0  0
  160.8570  202.0120  147.5620 O   0  0  0  0  0  0  0  0  0  0  0  0
  162.0220  205.4460  147.0770 C   0  0  0  0  0  2  0  0  0  0  0  0
  161.7300  204.0400  146.7840 N   0  0  0  0  0  0  0  0  0  0  0  0
  161.0990  205.9530  148.1700 C   0  0  0  0  0  2  0  0  0  0  0  0
  161.2530  203.1730  147.8310 C   0  0  0  0  0  0  0  0  0  0  0  0
  160.2200  203.5720  144.9050 C   0  0  0  0  0  2  0  0  0  0  0  0
  161.1000  204.7390  144.5230 C   0  0  0  0  0  2  0  0  0  0  0  0
  161.6680  203.6160  145.3830 C   0  0  0  0  0  3  0  0  0  0  0  0
  159.2840  212.4100  153.9840 N   0  0  0  0  0  2  0  0  0  0  0  0
  156.1650  213.7140  152.4930 N   0  0  0  0  0  0  0  0  0  0  0  0
  155.9530  213.7730  154.8420 N   0  0  0  0  0  0  0  0  0  0  0  0
  157.4260  213.2160  152.6140 C   0  0  0  0  0  3  0  0  0  0  0  0
  155.4290  213.9940  153.6070 C   0  0  0  0  0  0  0  0  0  0  0  0
  157.2060  213.2760  154.9920 C   0  0  0  0  0  3  0  0  0  0  0  0
  154.2590  214.4530  153.5040 O   0  0  0  0  0  0  0  0  0  0  0  0
  157.9830  212.9980  153.8720 C   0  0  0  0  0  0  0  0  0  0  0  0
  155.6200  213.9340  151.1570 C   0  0  0  0  0  2  0  0  0  0  0  0
  156.7280  214.0610  150.1260 C   0  0  0  0  0  2  0  0  0  0  0  0
  156.1660  214.4450  148.7770 C   0  0  0  0  0  1  0  0  0  0  0  0
  1  6  1  0  0  0  0
  2 11  1  0  0  0  0
  3  5  1  0  0  0  0
  4  9  1  0  0  0  0
  4  2  2  0  0  0  0
  5 12  1  0  0  0  0
  6 12  1  0  0  0  0
  7 10  1  0  0  0  0
  8  1  1  0  0  0  0
  8  3  1  0  0  0  0
  9 14  2  0  0  0  0
 10  6  2  0  0  0  0
 10 31  1  0  0  0  0
 11  7  1  0  0  0  0
 11  1  2  0  0  0  0
 13  7  2  0  0  0  0
 14 13  1  0  0  0  0
 15 16  2  0  0  0  0
 16  4  1  0  0  0  0
 17 16  1  0  0  0  0
 18  3  1  0  0  0  0
 19 18  1  0  0  0  0
 20 19  1  0  0  0  0
 21 20  1  1  0  0  0
 22 21  1  0  0  0  0
 23 27  2  0  0  0  0
 24 26  1  0  0  0  0
 25 24  1  0  0  0  0
 25 27  1  0  0  0  0
 26 21  1  0  0  0  0
 27 22  1  0  0  0  0
 28 30  1  0  0  0  0
 29 28  1  0  0  0  0
 29 30  1  0  0  0  0
 30 25  1  0  0  0  0
 32 34  1  0  0  0  0
 32 35  1  0  0  0  0
 33 36  2  0  0  0  0
 34 38  2  0  0  0  0
 35 33  1  0  0  0  0
 37 35  2  0  0  0  0
 38 31  1  0  0  0  0
 38 36  1  0  0  0  0
 39 32  1  0  0  0  0
 40 39  1  0  0  0  0
 41 40  1  0  0  0  0
M  END
>  <MODEL>
9

>  <REMARK>
 VINA RESULT:      -5.8      3.504      8.381
  Name = 
  10 active torsions:
  status: ('A' for Active; 'I' for Inactive)
    1  A    between atoms: C_1  and  O_13
    2  A    between atoms: N_2  and  C_32
    3  A    between atoms: C_3  and  N_15
    4  A    between atoms: C_3  and  C_37
    5  A    between atoms: C_10  and  C_32
    6  A    between atoms: O_13  and  C_37
    7  A    between atoms: N_17  and  C_29
    8  A    between atoms: N_17  and  C_40
    9  A    between atoms: C_18  and  C_22
   10  A    between atoms: N_23  and  C_39
                            x       y       z     vdW  Elec       q    Type
                         _______ _______ _______ _____ _____    ______ ____

>  <TORSDO>
F 10

$$$$
