=
 OpenBabel11052410053D

 33 34  0  0  1  0  0  0  0  0999 V2000
  161.9770  209.7190  154.9940 O   0  0  0  0  0  0  0  0  0  0  0  0
  160.5570  208.6380  153.4810 N   0  0  0  0  0  2  0  0  0  0  0  0
  160.8410  209.6460  154.4580 C   0  0  0  0  0  0  0  0  0  0  0  0
  161.4680  207.5680  153.0890 C   0  0  1  0  0  3  0  0  0  0  0  0
  161.9250  207.8220  149.4910 O   0  0  0  0  0  0  0  0  0  0  0  0
  160.9070  204.9300  151.2000 C   0  0  1  0  0  3  0  0  0  0  0  0
  161.5010  207.3150  150.5620 C   0  0  0  0  0  0  0  0  0  0  0  0
  160.8750  206.1810  153.3560 C   0  0  0  0  0  2  0  0  0  0  0  0
  162.0070  207.7950  151.7790 O   0  0  0  0  0  0  0  0  0  0  0  0
  161.5840  205.1030  152.5560 C   0  0  0  0  0  2  0  0  0  0  0  0
  160.4850  206.2170  150.4780 C   0  0  0  0  0  2  0  0  0  0  0  0
  161.5300  203.8440  150.3140 C   0  0  0  0  0  2  0  0  0  0  0  0
  160.9510  203.6640  148.9070 C   0  0  1  0  0  3  0  0  0  0  0  0
  161.8050  204.1670  147.9220 O   0  0  0  0  0  1  0  0  0  0  0  0
  160.4750  202.2420  148.5990 C   0  0  2  0  0  3  0  0  0  0  0  0
  160.6380  201.3940  149.6990 O   0  0  0  0  0  1  0  0  0  0  0  0
  161.1740  201.6760  147.3640 C   0  0  2  0  0  3  0  0  0  0  0  0
  160.3400  201.7990  146.2520 O   0  0  0  0  0  1  0  0  0  0  0  0
  161.5700  200.2190  147.5420 C   0  0  0  0  0  1  0  0  0  0  0  0
  159.7780  210.6170  154.8710 C   0  0  2  0  0  3  0  0  0  0  0  0
  158.7760  213.2820  151.6320 C   0  0  0  0  0  0  0  0  0  0  0  0
  158.1150  212.1660  153.7010 C   0  0  0  0  0  0  0  0  0  0  0  0
  156.6220  213.6610  152.5390 F   0  0  0  0  0  0  0  0  0  0  0  0
  160.3210  211.7910  152.7270 C   0  0  0  0  0  3  0  0  0  0  0  0
  160.0180  212.6550  151.6790 C   0  0  0  0  0  3  0  0  0  0  0  0
  159.3860  211.5330  153.7420 C   0  0  0  0  0  0  0  0  0  0  0  0
  158.4890  214.1200  150.6050 F   0  0  0  0  0  0  0  0  0  0  0  0
  157.8290  213.0460  152.6320 C   0  0  0  0  0  0  0  0  0  0  0  0
  156.2730  210.9710  154.6370 O   0  0  0  0  0  0  0  0  0  0  0  0
  157.0870  211.9260  154.7490 C   0  0  0  0  0  0  0  0  0  0  0  0
  157.0120  212.7340  155.8770 O   0  0  0  0  0  1  0  0  0  0  0  0
  159.7520  211.0240  157.1980 O   0  0  0  0  0  0  0  0  0  0  0  0
  160.1540  211.3810  156.1030 C   0  0  0  0  0  3  0  0  0  0  0  0
  2  3  1  0  0  0  0
  3 20  1  0  0  0  0
  3  1  2  0  0  0  0
  4  8  1  0  0  0  0
  4  2  1  6  0  0  0
  5  7  2  0  0  0  0
  6 12  1  6  0  0  0
  6 10  1  0  0  0  0
  7  9  1  0  0  0  0
  9  4  1  0  0  0  0
 10  8  1  0  0  0  0
 11  7  1  0  0  0  0
 11  6  1  0  0  0  0
 13 14  1  6  0  0  0
 13 12  1  0  0  0  0
 15 13  1  0  0  0  0
 15 16  1  1  0  0  0
 17 19  1  1  0  0  0
 17 15  1  0  0  0  0
 18 17  1  0  0  0  0
 20 33  1  1  0  0  0
 21 25  2  0  0  0  0
 21 28  1  0  0  0  0
 22 26  1  0  0  0  0
 22 30  1  0  0  0  0
 23 28  1  0  0  0  0
 24 26  2  0  0  0  0
 25 24  1  0  0  0  0
 26 20  1  0  0  0  0
 27 21  1  0  0  0  0
 28 22  2  0  0  0  0
 29 30  2  0  0  0  0
 30 31  1  0  0  0  0
 33 32  2  0  0  0  0
M  END
>  <MODEL>
1

>  <REMARK>
 VINA RESULT:      -7.0      0.000      0.000
  Name = 
  9 active torsions:
  status: ('A' for Active; 'I' for Inactive)
    1  A    between atoms: C_1  and  N_12
    2  A    between atoms: C_2  and  C_5
    3  A    between atoms: C_2  and  C_8
    4  A    between atoms: C_5  and  C_27
    5  A    between atoms: C_6  and  C_27
    6  A    between atoms: C_9  and  C_24
    7  A    between atoms: C_11  and  C_15
    8  A    between atoms: C_15  and  C_17
    9  A    between atoms: C_15  and  C_26
                            x       y       z     vdW  Elec       q    Type
                         _______ _______ _______ _____ _____    ______ ____

>  <TORSDO>
F 9

$$$$
=
 OpenBabel11052410053D

 33 34  0  0  1  0  0  0  0  0999 V2000
  162.2370  209.7990  153.7640 O   0  0  0  0  0  0  0  0  0  0  0  0
  160.6050  208.3310  152.9540 N   0  0  0  0  0  2  0  0  0  0  0  0
  161.0220  209.4790  153.7020 C   0  0  0  0  0  0  0  0  0  0  0  0
  161.5010  207.3850  152.2980 C   0  0  1  0  0  3  0  0  0  0  0  0
  162.0360  208.6000  148.9130 O   0  0  0  0  0  0  0  0  0  0  0  0
  160.9240  205.3790  149.7520 C   0  0  1  0  0  3  0  0  0  0  0  0
  161.5810  207.8320  149.7990 C   0  0  0  0  0  0  0  0  0  0  0  0
  160.8740  205.9940  152.1670 C   0  0  0  0  0  2  0  0  0  0  0  0
  162.0720  207.9480  151.1070 O   0  0  0  0  0  0  0  0  0  0  0  0
  161.5780  205.1580  151.1130 C   0  0  0  0  0  2  0  0  0  0  0  0
  160.5440  206.8240  149.4040 C   0  0  0  0  0  2  0  0  0  0  0  0
  161.5430  204.5610  148.6120 C   0  0  0  0  0  2  0  0  0  0  0  0
  161.6820  205.2440  147.2480 C   0  0  1  0  0  3  0  0  0  0  0  0
  162.8240  206.0470  147.1790 O   0  0  0  0  0  1  0  0  0  0  0  0
  161.5600  204.2970  146.0520 C   0  0  2  0  0  3  0  0  0  0  0  0
  162.8140  203.8870  145.5890 O   0  0  0  0  0  1  0  0  0  0  0  0
  160.7390  204.9230  144.9260 C   0  0  2  0  0  3  0  0  0  0  0  0
  161.5580  205.1630  143.8220 O   0  0  0  0  0  1  0  0  0  0  0  0
  160.0710  206.2210  145.3530 C   0  0  0  0  0  1  0  0  0  0  0  0
  160.0140  210.3050  154.4410 C   0  0  2  0  0  3  0  0  0  0  0  0
  158.4640  213.4510  151.9320 C   0  0  0  0  0  0  0  0  0  0  0  0
  158.1890  212.0040  153.8790 C   0  0  0  0  0  0  0  0  0  0  0  0
  156.5300  213.6500  153.2840 F   0  0  0  0  0  0  0  0  0  0  0  0
  160.1610  211.8200  152.4530 C   0  0  0  0  0  3  0  0  0  0  0  0
  159.6800  212.8400  151.6370 C   0  0  0  0  0  3  0  0  0  0  0  0
  159.4320  211.3890  153.5730 C   0  0  0  0  0  0  0  0  0  0  0  0
  158.0030  214.4420  151.1290 F   0  0  0  0  0  0  0  0  0  0  0  0
  157.7210  213.0430  153.0430 C   0  0  0  0  0  0  0  0  0  0  0  0
  157.4340  212.2270  156.1330 O   0  0  0  0  0  1  0  0  0  0  0  0
  157.3750  211.5830  155.0520 C   0  0  0  0  0  0  0  0  0  0  0  0
  156.5250  210.4860  154.9770 O   0  0  0  0  0  0  0  0  0  0  0  0
  160.7680  212.0490  155.8460 O   0  0  0  0  0  0  0  0  0  0  0  0
  160.5600  210.8530  155.7250 C   0  0  0  0  0  3  0  0  0  0  0  0
  2  3  1  0  0  0  0
  3  1  2  0  0  0  0
  3 20  1  0  0  0  0
  4  2  1  6  0  0  0
  5  7  2  0  0  0  0
  6 12  1  6  0  0  0
  6 10  1  0  0  0  0
  7  9  1  0  0  0  0
  8  4  1  0  0  0  0
  9  4  1  0  0  0  0
 10  8  1  0  0  0  0
 11  6  1  0  0  0  0
 11  7  1  0  0  0  0
 13 14  1  1  0  0  0
 13 12  1  0  0  0  0
 15 16  1  6  0  0  0
 15 13  1  0  0  0  0
 17 19  1  1  0  0  0
 17 15  1  0  0  0  0
 18 17  1  0  0  0  0
 20 33  1  1  0  0  0
 21 28  1  0  0  0  0
 22 30  1  0  0  0  0
 24 26  2  0  0  0  0
 25 21  2  0  0  0  0
 25 24  1  0  0  0  0
 26 22  1  0  0  0  0
 26 20  1  0  0  0  0
 27 21  1  0  0  0  0
 28 23  1  0  0  0  0
 28 22  2  0  0  0  0
 30 29  1  0  0  0  0
 31 30  2  0  0  0  0
 33 32  2  0  0  0  0
M  END
>  <MODEL>
2

>  <REMARK>
 VINA RESULT:      -7.0      1.744      2.227
  Name = 
  9 active torsions:
  status: ('A' for Active; 'I' for Inactive)
    1  A    between atoms: C_1  and  N_12
    2  A    between atoms: C_2  and  C_5
    3  A    between atoms: C_2  and  C_8
    4  A    between atoms: C_5  and  C_27
    5  A    between atoms: C_6  and  C_27
    6  A    between atoms: C_9  and  C_24
    7  A    between atoms: C_11  and  C_15
    8  A    between atoms: C_15  and  C_17
    9  A    between atoms: C_15  and  C_26
                            x       y       z     vdW  Elec       q    Type
                         _______ _______ _______ _____ _____    ______ ____

>  <TORSDO>
F 9

$$$$
=
 OpenBabel11052410053D

 33 34  0  0  1  0  0  0  0  0999 V2000
  163.1020  206.0760  148.0640 O   0  0  0  0  0  0  0  0  0  0  0  0
  161.4150  207.0110  149.3890 N   0  0  0  0  0  2  0  0  0  0  0  0
  161.8720  206.2060  148.2950 C   0  0  0  0  0  0  0  0  0  0  0  0
  162.2700  207.8170  150.2530 C   0  0  1  0  0  3  0  0  0  0  0  0
  161.9730  206.4560  153.6120 O   0  0  0  0  0  0  0  0  0  0  0  0
  161.4440  209.8140  152.7370 C   0  0  1  0  0  3  0  0  0  0  0  0
  161.7980  207.3000  152.6950 C   0  0  0  0  0  0  0  0  0  0  0  0
  161.8010  209.2730  150.3300 C   0  0  0  0  0  2  0  0  0  0  0  0
  162.5210  207.1550  151.5020 O   0  0  0  0  0  0  0  0  0  0  0  0
  162.3770  209.9850  151.5410 C   0  0  0  0  0  2  0  0  0  0  0  0
  160.8310  208.4210  152.9310 C   0  0  0  0  0  2  0  0  0  0  0  0
  161.9180  210.5170  154.0150 C   0  0  0  0  0  2  0  0  0  0  0  0
  161.3800  209.9910  155.3500 C   0  0  1  0  0  3  0  0  0  0  0  0
  162.3950  209.8340  156.2970 O   0  0  0  0  0  1  0  0  0  0  0  0
  160.1820  210.7710  155.8980 C   0  0  2  0  0  3  0  0  0  0  0  0
  158.9970  210.0350  155.7960 O   0  0  0  0  0  1  0  0  0  0  0  0
  160.0430  212.1300  155.2150 C   0  0  2  0  0  3  0  0  0  0  0  0
  160.1370  213.1480  156.1650 O   0  0  0  0  0  1  0  0  0  0  0  0
  158.7320  212.2630  154.4580 C   0  0  0  0  0  1  0  0  0  0  0  0
  160.8860  205.5240  147.3970 C   0  0  2  0  0  3  0  0  0  0  0  0
  161.2490  201.2270  147.3980 C   0  0  0  0  0  0  0  0  0  0  0  0
  160.9780  203.3020  148.6560 C   0  0  0  0  0  0  0  0  0  0  0  0
  161.0540  201.1580  149.7570 F   0  0  0  0  0  0  0  0  0  0  0  0
  161.1960  203.3330  146.2260 C   0  0  0  0  0  3  0  0  0  0  0  0
  161.3070  201.9460  146.2070 C   0  0  0  0  0  3  0  0  0  0  0  0
  161.0340  204.0270  147.4360 C   0  0  0  0  0  0  0  0  0  0  0  0
  161.3610  199.8760  147.3690 F   0  0  0  0  0  0  0  0  0  0  0  0
  161.0840  201.8930  148.6160 C   0  0  0  0  0  0  0  0  0  0  0  0
  159.7110  204.5240  150.2690 O   0  0  0  0  0  0  0  0  0  0  0  0
  160.8100  203.9880  149.9670 C   0  0  0  0  0  0  0  0  0  0  0  0
  161.8500  204.0380  150.8870 O   0  0  0  0  0  1  0  0  0  0  0  0
  159.9050  206.2710  145.3810 O   0  0  0  0  0  0  0  0  0  0  0  0
  160.9360  206.0520  145.9950 C   0  0  0  0  0  3  0  0  0  0  0  0
  1  3  2  0  0  0  0
  3  2  1  0  0  0  0
  4  2  1  1  0  0  0
  4  8  1  0  0  0  0
  4  9  1  0  0  0  0
  6 11  1  0  0  0  0
  6 12  1  1  0  0  0
  7 11  1  0  0  0  0
  7  5  2  0  0  0  0
  8 10  1  0  0  0  0
  9  7  1  0  0  0  0
 10  6  1  0  0  0  0
 12 13  1  0  0  0  0
 13 15  1  0  0  0  0
 13 14  1  1  0  0  0
 15 16  1  6  0  0  0
 17 19  1  1  0  0  0
 17 15  1  0  0  0  0
 17 18  1  0  0  0  0
 20 33  1  6  0  0  0
 20 26  1  0  0  0  0
 20  3  1  0  0  0  0
 21 28  1  0  0  0  0
 22 30  1  0  0  0  0
 24 26  2  0  0  0  0
 25 24  1  0  0  0  0
 25 21  2  0  0  0  0
 26 22  1  0  0  0  0
 27 21  1  0  0  0  0
 28 22  2  0  0  0  0
 28 23  1  0  0  0  0
 30 29  2  0  0  0  0
 30 31  1  0  0  0  0
 32 33  2  0  0  0  0
M  END
>  <MODEL>
3

>  <REMARK>
 VINA RESULT:      -7.0      4.019      9.852
  Name = 
  9 active torsions:
  status: ('A' for Active; 'I' for Inactive)
    1  A    between atoms: C_1  and  N_12
    2  A    between atoms: C_2  and  C_5
    3  A    between atoms: C_2  and  C_8
    4  A    between atoms: C_5  and  C_27
    5  A    between atoms: C_6  and  C_27
    6  A    between atoms: C_9  and  C_24
    7  A    between atoms: C_11  and  C_15
    8  A    between atoms: C_15  and  C_17
    9  A    between atoms: C_15  and  C_26
                            x       y       z     vdW  Elec       q    Type
                         _______ _______ _______ _____ _____    ______ ____

>  <TORSDO>
F 9

$$$$
=
 OpenBabel11052410053D

 33 34  0  0  1  0  0  0  0  0999 V2000
  161.3670  211.4660  156.0150 O   0  0  0  0  0  0  0  0  0  0  0  0
  160.0360  209.8780  154.9260 N   0  0  0  0  0  2  0  0  0  0  0  0
  160.2170  211.0890  155.6690 C   0  0  0  0  0  0  0  0  0  0  0  0
  161.0950  208.9330  154.5920 C   0  0  1  0  0  3  0  0  0  0  0  0
  162.1990  209.7190  151.2180 O   0  0  0  0  0  0  0  0  0  0  0  0
  161.1370  206.5580  152.3110 C   0  0  1  0  0  3  0  0  0  0  0  0
  161.6280  209.0410  152.1100 C   0  0  0  0  0  0  0  0  0  0  0  0
  160.5880  207.4880  154.5580 C   0  0  0  0  0  2  0  0  0  0  0  0
  161.8500  209.3750  153.4540 O   0  0  0  0  0  0  0  0  0  0  0  0
  161.5280  206.5800  153.7860 C   0  0  0  0  0  2  0  0  0  0  0  0
  160.7460  207.9050  151.6880 C   0  0  0  0  0  2  0  0  0  0  0  0
  162.0090  205.6480  151.4380 C   0  0  0  0  0  2  0  0  0  0  0  0
  161.5310  204.2090  151.2210 C   0  0  1  0  0  3  0  0  0  0  0  0
  160.7950  203.7330  152.3080 O   0  0  0  0  0  1  0  0  0  0  0  0
  160.8210  203.9750  149.8850 C   0  0  2  0  0  3  0  0  0  0  0  0
  160.9020  202.6370  149.4860 O   0  0  0  0  0  1  0  0  0  0  0  0
  161.3590  204.9030  148.7980 C   0  0  2  0  0  3  0  0  0  0  0  0
  160.4810  205.9710  148.6120 O   0  0  0  0  0  1  0  0  0  0  0  0
  161.5680  204.1830  147.4760 C   0  0  0  0  0  1  0  0  0  0  0  0
  159.0310  211.9160  156.0630 C   0  0  2  0  0  3  0  0  0  0  0  0
  157.2380  213.8380  152.6430 C   0  0  0  0  0  0  0  0  0  0  0  0
  156.9600  212.6000  154.7300 C   0  0  0  0  0  0  0  0  0  0  0  0
  155.0640  213.3050  153.4170 F   0  0  0  0  0  0  0  0  0  0  0  0
  159.1840  213.1560  153.8920 C   0  0  0  0  0  3  0  0  0  0  0  0
  158.6220  213.7870  152.7870 C   0  0  0  0  0  3  0  0  0  0  0  0
  158.3730  212.5570  154.8700 C   0  0  0  0  0  0  0  0  0  0  0  0
  156.7010  214.4520  151.5610 F   0  0  0  0  0  0  0  0  0  0  0  0
  156.4080  213.2530  153.6040 C   0  0  0  0  0  0  0  0  0  0  0  0
  155.7760  210.7520  155.6700 O   0  0  0  0  0  0  0  0  0  0  0  0
  156.0550  211.9790  155.7350 C   0  0  0  0  0  0  0  0  0  0  0  0
  155.5130  212.7290  156.7710 O   0  0  0  0  0  1  0  0  0  0  0  0
  158.8540  214.0300  157.1040 O   0  0  0  0  0  0  0  0  0  0  0  0
  159.3670  212.9230  157.1200 C   0  0  0  0  0  3  0  0  0  0  0  0
  2  3  1  0  0  0  0
  3  1  2  0  0  0  0
  3 20  1  0  0  0  0
  4  2  1  6  0  0  0
  5  7  2  0  0  0  0
  6 12  1  6  0  0  0
  6 10  1  0  0  0  0
  7  9  1  0  0  0  0
  8  4  1  0  0  0  0
  9  4  1  0  0  0  0
 10  8  1  0  0  0  0
 11  7  1  0  0  0  0
 11  6  1  0  0  0  0
 13 12  1  0  0  0  0
 13 14  1  1  0  0  0
 15 16  1  6  0  0  0
 15 13  1  0  0  0  0
 17 19  1  6  0  0  0
 17 15  1  0  0  0  0
 18 17  1  0  0  0  0
 20 33  1  1  0  0  0
 21 25  2  0  0  0  0
 21 28  1  0  0  0  0
 22 26  1  0  0  0  0
 22 30  1  0  0  0  0
 23 28  1  0  0  0  0
 24 26  2  0  0  0  0
 25 24  1  0  0  0  0
 26 20  1  0  0  0  0
 27 21  1  0  0  0  0
 28 22  2  0  0  0  0
 29 30  2  0  0  0  0
 30 31  1  0  0  0  0
 32 33  2  0  0  0  0
M  END
>  <MODEL>
4

>  <REMARK>
 VINA RESULT:      -6.9      1.804      2.407
  Name = 
  9 active torsions:
  status: ('A' for Active; 'I' for Inactive)
    1  A    between atoms: C_1  and  N_12
    2  A    between atoms: C_2  and  C_5
    3  A    between atoms: C_2  and  C_8
    4  A    between atoms: C_5  and  C_27
    5  A    between atoms: C_6  and  C_27
    6  A    between atoms: C_9  and  C_24
    7  A    between atoms: C_11  and  C_15
    8  A    between atoms: C_15  and  C_17
    9  A    between atoms: C_15  and  C_26
                            x       y       z     vdW  Elec       q    Type
                         _______ _______ _______ _____ _____    ______ ____

>  <TORSDO>
F 9

$$$$
=
 OpenBabel11052410053D

 33 34  0  0  1  0  0  0  0  0999 V2000
  163.4820  212.0410  148.3460 O   0  0  0  0  0  0  0  0  0  0  0  0
  161.6350  210.6120  148.5120 N   0  0  0  0  0  2  0  0  0  0  0  0
  162.2440  211.8700  148.1950 C   0  0  0  0  0  0  0  0  0  0  0  0
  162.3220  209.4760  149.1160 C   0  0  1  0  0  3  0  0  0  0  0  0
  162.0450  206.7020  146.7800 O   0  0  0  0  0  0  0  0  0  0  0  0
  161.0950  206.6030  150.1570 C   0  0  1  0  0  3  0  0  0  0  0  0
  161.8010  207.3450  147.8340 C   0  0  0  0  0  0  0  0  0  0  0  0
  161.6490  209.0200  150.4140 C   0  0  0  0  0  2  0  0  0  0  0  0
  162.5990  208.4570  148.1430 O   0  0  0  0  0  0  0  0  0  0  0  0
  162.0550  207.6060  150.7900 C   0  0  0  0  0  2  0  0  0  0  0  0
  160.6750  206.8810  148.7080 C   0  0  0  0  0  2  0  0  0  0  0  0
  161.3980  205.1380  150.4930 C   0  0  0  0  0  2  0  0  0  0  0  0
  160.8280  204.0670  149.5560 C   0  0  1  0  0  3  0  0  0  0  0  0
  161.6660  203.8300  148.4630 O   0  0  0  0  0  1  0  0  0  0  0  0
  160.4030  202.7750  150.2590 C   0  0  2  0  0  3  0  0  0  0  0  0
  161.3260  202.3950  151.2390 O   0  0  0  0  0  1  0  0  0  0  0  0
  160.1730  201.6460  149.2560 C   0  0  2  0  0  3  0  0  0  0  0  0
  158.9020  201.1030  149.4410 O   0  0  0  0  0  1  0  0  0  0  0  0
  161.2170  200.5470  149.3770 C   0  0  0  0  0  1  0  0  0  0  0  0
  161.4070  213.0080  147.6980 C   0  0  2  0  0  3  0  0  0  0  0  0
  161.7630  213.5040  143.4280 C   0  0  0  0  0  0  0  0  0  0  0  0
  160.3320  213.2500  145.3910 C   0  0  0  0  0  0  0  0  0  0  0  0
  159.4080  213.5050  143.1790 F   0  0  0  0  0  0  0  0  0  0  0  0
  162.7630  213.2400  145.6050 C   0  0  0  0  0  3  0  0  0  0  0  0
  162.8960  213.4080  144.2300 C   0  0  0  0  0  3  0  0  0  0  0  0
  161.4950  213.1570  146.2020 C   0  0  0  0  0  0  0  0  0  0  0  0
  161.9030  213.6640  142.0890 F   0  0  0  0  0  0  0  0  0  0  0  0
  160.4880  213.4280  143.9980 C   0  0  0  0  0  0  0  0  0  0  0  0
  158.2170  212.1880  145.7020 O   0  0  0  0  0  0  0  0  0  0  0  0
  158.9650  213.1650  145.9720 C   0  0  0  0  0  0  0  0  0  0  0  0
  158.4910  214.1470  146.8330 O   0  0  0  0  0  1  0  0  0  0  0  0
  161.3950  214.4520  149.5690 O   0  0  0  0  0  0  0  0  0  0  0  0
  161.7190  214.2930  148.4030 C   0  0  0  0  0  3  0  0  0  0  0  0
  3  1  2  0  0  0  0
  3  2  1  0  0  0  0
  4  2  1  6  0  0  0
  4  8  1  0  0  0  0
  5  7  2  0  0  0  0
  6 12  1  6  0  0  0
  6 10  1  0  0  0  0
  7  9  1  0  0  0  0
  7 11  1  0  0  0  0
  8 10  1  0  0  0  0
  9  4  1  0  0  0  0
 11  6  1  0  0  0  0
 13 14  1  6  0  0  0
 13 15  1  0  0  0  0
 13 12  1  0  0  0  0
 15 16  1  1  0  0  0
 17 19  1  1  0  0  0
 17 18  1  0  0  0  0
 17 15  1  0  0  0  0
 20  3  1  0  0  0  0
 20 33  1  1  0  0  0
 21 28  2  0  0  0  0
 21 25  1  0  0  0  0
 22 30  1  0  0  0  0
 22 26  2  0  0  0  0
 23 28  1  0  0  0  0
 24 26  1  0  0  0  0
 25 24  2  0  0  0  0
 26 20  1  0  0  0  0
 27 21  1  0  0  0  0
 28 22  1  0  0  0  0
 29 30  2  0  0  0  0
 30 31  1  0  0  0  0
 33 32  2  0  0  0  0
M  END
>  <MODEL>
5

>  <REMARK>
 VINA RESULT:      -6.6      4.887      6.274
  Name = 
  9 active torsions:
  status: ('A' for Active; 'I' for Inactive)
    1  A    between atoms: C_1  and  N_12
    2  A    between atoms: C_2  and  C_5
    3  A    between atoms: C_2  and  C_8
    4  A    between atoms: C_5  and  C_27
    5  A    between atoms: C_6  and  C_27
    6  A    between atoms: C_9  and  C_24
    7  A    between atoms: C_11  and  C_15
    8  A    between atoms: C_15  and  C_17
    9  A    between atoms: C_15  and  C_26
                            x       y       z     vdW  Elec       q    Type
                         _______ _______ _______ _____ _____    ______ ____

>  <TORSDO>
F 9

$$$$
=
 OpenBabel11052410053D

 33 34  0  0  1  0  0  0  0  0999 V2000
  162.7060  207.1110  147.8990 O   0  0  0  0  0  0  0  0  0  0  0  0
  161.5460  206.6850  149.8860 N   0  0  0  0  0  2  0  0  0  0  0  0
  161.7520  206.5290  148.4770 C   0  0  0  0  0  0  0  0  0  0  0  0
  162.3120  207.5730  150.7530 C   0  0  1  0  0  3  0  0  0  0  0  0
  161.4220  206.7430  154.1800 O   0  0  0  0  0  0  0  0  0  0  0  0
  161.2540  209.9520  152.7690 C   0  0  1  0  0  3  0  0  0  0  0  0
  161.4440  207.4470  153.1370 C   0  0  0  0  0  0  0  0  0  0  0  0
  161.9340  209.0430  150.5490 C   0  0  0  0  0  2  0  0  0  0  0  0
  162.3270  207.0950  152.1070 O   0  0  0  0  0  0  0  0  0  0  0  0
  162.3660  209.9020  151.7250 C   0  0  0  0  0  2  0  0  0  0  0  0
  160.5290  208.6320  153.0580 C   0  0  0  0  0  2  0  0  0  0  0  0
  161.5760  210.8170  153.9950 C   0  0  0  0  0  2  0  0  0  0  0  0
  161.0070  210.3660  155.3450 C   0  0  1  0  0  3  0  0  0  0  0  0
  162.0010  210.2590  156.3210 O   0  0  0  0  0  1  0  0  0  0  0  0
  159.8000  211.1760  155.8230 C   0  0  2  0  0  3  0  0  0  0  0  0
  158.6160  210.4360  155.7380 O   0  0  0  0  0  1  0  0  0  0  0  0
  159.6780  212.4940  155.0610 C   0  0  2  0  0  3  0  0  0  0  0  0
  159.8450  213.5650  155.9400 O   0  0  0  0  0  1  0  0  0  0  0  0
  158.3410  212.6270  154.3500 C   0  0  0  0  0  1  0  0  0  0  0  0
  160.8170  205.6840  147.6670 C   0  0  2  0  0  3  0  0  0  0  0  0
  161.0150  201.5730  148.9560 C   0  0  0  0  0  0  0  0  0  0  0  0
  161.1910  203.2090  147.1520 C   0  0  0  0  0  0  0  0  0  0  0  0
  161.5480  200.8560  146.7630 F   0  0  0  0  0  0  0  0  0  0  0  0
  160.6290  203.9070  149.4220 C   0  0  0  0  0  3  0  0  0  0  0  0
  160.6970  202.5870  149.8560 C   0  0  0  0  0  3  0  0  0  0  0  0
  160.8700  204.2370  148.0780 C   0  0  0  0  0  0  0  0  0  0  0  0
  161.0750  200.2900  149.3890 F   0  0  0  0  0  0  0  0  0  0  0  0
  161.2630  201.8750  147.6140 C   0  0  0  0  0  0  0  0  0  0  0  0
  160.5470  203.3380  144.8560 O   0  0  0  0  0  0  0  0  0  0  0  0
  161.4520  203.5030  145.7160 C   0  0  0  0  0  0  0  0  0  0  0  0
  162.6890  203.9790  145.2970 O   0  0  0  0  0  1  0  0  0  0  0  0
  160.2920  206.5720  145.5410 O   0  0  0  0  0  0  0  0  0  0  0  0
  161.0310  205.8530  146.1940 C   0  0  0  0  0  3  0  0  0  0  0  0
  1  3  2  0  0  0  0
  3  2  1  0  0  0  0
  4  2  1  6  0  0  0
  4  9  1  0  0  0  0
  6 11  1  0  0  0  0
  6 12  1  1  0  0  0
  7  5  2  0  0  0  0
  8  4  1  0  0  0  0
  8 10  1  0  0  0  0
  9  7  1  0  0  0  0
 10  6  1  0  0  0  0
 11  7  1  0  0  0  0
 12 13  1  0  0  0  0
 13 15  1  0  0  0  0
 13 14  1  1  0  0  0
 15 16  1  6  0  0  0
 17 19  1  1  0  0  0
 17 15  1  0  0  0  0
 17 18  1  0  0  0  0
 20 33  1  6  0  0  0
 20 26  1  0  0  0  0
 20  3  1  0  0  0  0
 21 27  1  0  0  0  0
 21 25  1  0  0  0  0
 22 28  1  0  0  0  0
 22 26  2  0  0  0  0
 23 28  1  0  0  0  0
 24 25  2  0  0  0  0
 26 24  1  0  0  0  0
 28 21  2  0  0  0  0
 29 30  2  0  0  0  0
 30 22  1  0  0  0  0
 31 30  1  0  0  0  0
 32 33  2  0  0  0  0
M  END
>  <MODEL>
6

>  <REMARK>
 VINA RESULT:      -6.5      4.074     10.197
  Name = 
  9 active torsions:
  status: ('A' for Active; 'I' for Inactive)
    1  A    between atoms: C_1  and  N_12
    2  A    between atoms: C_2  and  C_5
    3  A    between atoms: C_2  and  C_8
    4  A    between atoms: C_5  and  C_27
    5  A    between atoms: C_6  and  C_27
    6  A    between atoms: C_9  and  C_24
    7  A    between atoms: C_11  and  C_15
    8  A    between atoms: C_15  and  C_17
    9  A    between atoms: C_15  and  C_26
                            x       y       z     vdW  Elec       q    Type
                         _______ _______ _______ _____ _____    ______ ____

>  <TORSDO>
F 9

$$$$
=
 OpenBabel11052410053D

 33 34  0  0  1  0  0  0  0  0999 V2000
  162.8870  206.8540  151.5310 O   0  0  0  0  0  0  0  0  0  0  0  0
  161.0390  208.2000  152.0320 N   0  0  0  0  0  2  0  0  0  0  0  0
  161.7480  207.2750  151.1990 C   0  0  0  0  0  0  0  0  0  0  0  0
  161.5670  208.8130  153.2450 C   0  0  1  0  0  3  0  0  0  0  0  0
  159.7640  207.3560  156.0470 O   0  0  0  0  0  0  0  0  0  0  0  0
  160.0730  210.7940  155.4100 C   0  0  1  0  0  3  0  0  0  0  0  0
  160.0860  208.2610  155.2330 C   0  0  0  0  0  0  0  0  0  0  0  0
  161.3000  210.3200  153.2920 C   0  0  0  0  0  2  0  0  0  0  0  0
  161.2040  208.0590  154.4120 O   0  0  0  0  0  0  0  0  0  0  0  0
  161.4240  210.8690  154.7030 C   0  0  0  0  0  2  0  0  0  0  0  0
  159.2600  209.5110  155.1940 C   0  0  0  0  0  2  0  0  0  0  0  0
  160.0760  211.3470  156.8410 C   0  0  0  0  0  2  0  0  0  0  0  0
  159.5650  212.7770  157.0440 C   0  0  1  0  0  3  0  0  0  0  0  0
  160.6090  213.6810  157.2590 O   0  0  0  0  0  1  0  0  0  0  0  0
  158.5870  213.2560  155.9690 C   0  0  2  0  0  3  0  0  0  0  0  0
  159.0390  214.4240  155.3450 O   0  0  0  0  0  1  0  0  0  0  0  0
  157.1830  213.4490  156.5380 C   0  0  2  0  0  3  0  0  0  0  0  0
  156.8050  212.3140  157.2560 O   0  0  0  0  0  1  0  0  0  0  0  0
  156.1540  213.7280  155.4540 C   0  0  0  0  0  1  0  0  0  0  0  0
  161.1490  206.8120  149.9070 C   0  0  2  0  0  3  0  0  0  0  0  0
  160.8780  202.5080  149.8480 C   0  0  0  0  0  0  0  0  0  0  0  0
  161.1830  204.6000  148.6260 C   0  0  0  0  0  0  0  0  0  0  0  0
  161.2200  202.4650  147.5050 F   0  0  0  0  0  0  0  0  0  0  0  0
  160.8140  204.6040  151.0380 C   0  0  0  0  0  3  0  0  0  0  0  0
  160.7320  203.2150  151.0390 C   0  0  0  0  0  3  0  0  0  0  0  0
  161.0360  205.3120  149.8460 C   0  0  0  0  0  0  0  0  0  0  0  0
  160.7940  201.1550  149.8590 F   0  0  0  0  0  0  0  0  0  0  0  0
  161.1040  203.1890  148.6480 C   0  0  0  0  0  0  0  0  0  0  0  0
  162.5260  205.2030  146.7470 O   0  0  0  0  0  1  0  0  0  0  0  0
  161.4170  205.3020  147.3340 C   0  0  0  0  0  0  0  0  0  0  0  0
  160.4170  206.0650  146.7430 O   0  0  0  0  0  0  0  0  0  0  0  0
  162.1870  208.5420  148.6760 O   0  0  0  0  0  0  0  0  0  0  0  0
  161.8730  207.3640  148.7160 C   0  0  0  0  0  3  0  0  0  0  0  0
  3  1  2  0  0  0  0
  3  2  1  0  0  0  0
  4  2  1  6  0  0  0
  4  8  1  0  0  0  0
  4  9  1  0  0  0  0
  6 12  1  1  0  0  0
  7  5  2  0  0  0  0
  8 10  1  0  0  0  0
  9  7  1  0  0  0  0
 10  6  1  0  0  0  0
 11  7  1  0  0  0  0
 11  6  1  0  0  0  0
 12 13  1  0  0  0  0
 13 14  1  6  0  0  0
 15 16  1  1  0  0  0
 15 17  1  0  0  0  0
 15 13  1  0  0  0  0
 17 19  1  6  0  0  0
 17 18  1  0  0  0  0
 20 33  1  6  0  0  0
 20  3  1  0  0  0  0
 21 27  1  0  0  0  0
 21 25  1  0  0  0  0
 22 28  1  0  0  0  0
 22 26  2  0  0  0  0
 23 28  1  0  0  0  0
 24 25  2  0  0  0  0
 26 20  1  0  0  0  0
 26 24  1  0  0  0  0
 28 21  2  0  0  0  0
 29 30  1  0  0  0  0
 30 22  1  0  0  0  0
 31 30  2  0  0  0  0
 32 33  2  0  0  0  0
M  END
>  <MODEL>
7

>  <REMARK>
 VINA RESULT:      -6.2      3.852     10.023
  Name = 
  9 active torsions:
  status: ('A' for Active; 'I' for Inactive)
    1  A    between atoms: C_1  and  N_12
    2  A    between atoms: C_2  and  C_5
    3  A    between atoms: C_2  and  C_8
    4  A    between atoms: C_5  and  C_27
    5  A    between atoms: C_6  and  C_27
    6  A    between atoms: C_9  and  C_24
    7  A    between atoms: C_11  and  C_15
    8  A    between atoms: C_15  and  C_17
    9  A    between atoms: C_15  and  C_26
                            x       y       z     vdW  Elec       q    Type
                         _______ _______ _______ _____ _____    ______ ____

>  <TORSDO>
F 9

$$$$
=
 OpenBabel11052410053D

 33 34  0  0  1  0  0  0  0  0999 V2000
  163.2560  206.0080  151.6460 O   0  0  0  0  0  0  0  0  0  0  0  0
  161.1030  206.7660  152.1650 N   0  0  0  0  0  2  0  0  0  0  0  0
  162.0130  205.8100  151.6070 C   0  0  0  0  0  0  0  0  0  0  0  0
  161.4810  208.0610  152.7180 C   0  0  1  0  0  3  0  0  0  0  0  0
  161.4840  207.7130  156.3370 O   0  0  0  0  0  0  0  0  0  0  0  0
  159.7100  210.1530  154.5430 C   0  0  1  0  0  3  0  0  0  0  0  0
  161.0580  208.1110  155.2220 C   0  0  0  0  0  0  0  0  0  0  0  0
  160.4560  209.1500  152.3860 C   0  0  0  0  0  2  0  0  0  0  0  0
  161.8750  207.9470  154.0940 O   0  0  0  0  0  0  0  0  0  0  0  0
  160.5890  210.3470  153.3100 C   0  0  0  0  0  2  0  0  0  0  0  0
  159.7030  208.7490  155.1620 C   0  0  0  0  0  2  0  0  0  0  0  0
  159.7490  211.3200  155.5380 C   0  0  0  0  0  2  0  0  0  0  0  0
  158.5680  212.2970  155.5240 C   0  0  1  0  0  3  0  0  0  0  0  0
  158.9860  213.6190  155.3490 O   0  0  0  0  0  1  0  0  0  0  0  0
  157.4390  211.9080  154.5680 C   0  0  2  0  0  3  0  0  0  0  0  0
  157.2870  212.8460  153.5410 O   0  0  0  0  0  1  0  0  0  0  0  0
  156.1230  211.6980  155.3150 C   0  0  2  0  0  3  0  0  0  0  0  0
  156.3370  211.8140  156.6890 O   0  0  0  0  0  1  0  0  0  0  0  0
  155.4970  210.3470  155.0110 C   0  0  0  0  0  1  0  0  0  0  0  0
  161.4940  204.5680  150.9500 C   0  0  2  0  0  3  0  0  0  0  0  0
  161.2370  205.0990  146.6780 C   0  0  0  0  0  0  0  0  0  0  0  0
  161.1580  203.6040  148.6070 C   0  0  0  0  0  0  0  0  0  0  0  0
  160.8310  202.7870  146.3620 F   0  0  0  0  0  0  0  0  0  0  0  0
  161.5880  205.9890  148.8910 C   0  0  0  0  0  3  0  0  0  0  0  0
  161.5000  206.1800  147.5150 C   0  0  0  0  0  3  0  0  0  0  0  0
  161.4220  204.7130  149.4540 C   0  0  0  0  0  0  0  0  0  0  0  0
  161.1570  205.2950  145.3390 F   0  0  0  0  0  0  0  0  0  0  0  0
  161.0640  203.8190  147.2130 C   0  0  0  0  0  0  0  0  0  0  0  0
  161.9770  201.5400  149.4860 O   0  0  0  0  0  1  0  0  0  0  0  0
  160.9770  202.2300  149.1520 C   0  0  0  0  0  0  0  0  0  0  0  0
  159.7090  201.6870  149.3180 O   0  0  0  0  0  0  0  0  0  0  0  0
  160.1520  203.2560  152.3860 O   0  0  0  0  0  0  0  0  0  0  0  0
  160.1850  204.1250  151.5300 C   0  0  0  0  0  3  0  0  0  0  0  0
  3  1  2  0  0  0  0
  3  2  1  0  0  0  0
  4  2  1  1  0  0  0
  4  9  1  0  0  0  0
  6 11  1  0  0  0  0
  6 12  1  1  0  0  0
  7  5  2  0  0  0  0
  8  4  1  0  0  0  0
  8 10  1  0  0  0  0
  9  7  1  0  0  0  0
 10  6  1  0  0  0  0
 11  7  1  0  0  0  0
 13 14  1  6  0  0  0
 13 12  1  0  0  0  0
 15 16  1  6  0  0  0
 15 17  1  0  0  0  0
 15 13  1  0  0  0  0
 17 19  1  1  0  0  0
 17 18  1  0  0  0  0
 20 33  1  1  0  0  0
 20  3  1  0  0  0  0
 21 28  2  0  0  0  0
 21 25  1  0  0  0  0
 22 30  1  0  0  0  0
 22 26  2  0  0  0  0
 23 28  1  0  0  0  0
 24 26  1  0  0  0  0
 25 24  2  0  0  0  0
 26 20  1  0  0  0  0
 27 21  1  0  0  0  0
 28 22  1  0  0  0  0
 30 31  2  0  0  0  0
 30 29  1  0  0  0  0
 33 32  2  0  0  0  0
M  END
>  <MODEL>
8

>  <REMARK>
 VINA RESULT:      -6.0      3.385      9.501
  Name = 
  9 active torsions:
  status: ('A' for Active; 'I' for Inactive)
    1  A    between atoms: C_1  and  N_12
    2  A    between atoms: C_2  and  C_5
    3  A    between atoms: C_2  and  C_8
    4  A    between atoms: C_5  and  C_27
    5  A    between atoms: C_6  and  C_27
    6  A    between atoms: C_9  and  C_24
    7  A    between atoms: C_11  and  C_15
    8  A    between atoms: C_15  and  C_17
    9  A    between atoms: C_15  and  C_26
                            x       y       z     vdW  Elec       q    Type
                         _______ _______ _______ _____ _____    ______ ____

>  <TORSDO>
F 9

$$$$
=
 OpenBabel11052410053D

 33 34  0  0  1  0  0  0  0  0999 V2000
  160.0710  208.6200  151.8230 O   0  0  0  0  0  0  0  0  0  0  0  0
  162.4080  208.6300  151.9370 N   0  0  0  0  0  2  0  0  0  0  0  0
  161.1260  209.2440  152.1110 C   0  0  0  0  0  0  0  0  0  0  0  0
  162.6380  207.3190  151.3390 C   0  0  1  0  0  3  0  0  0  0  0  0
  162.4170  207.7400  147.7340 O   0  0  0  0  0  0  0  0  0  0  0  0
  160.5770  205.4170  149.6140 C   0  0  1  0  0  3  0  0  0  0  0  0
  162.0390  207.3560  148.8710 C   0  0  0  0  0  0  0  0  0  0  0  0
  161.5520  206.3120  151.7270 C   0  0  0  0  0  2  0  0  0  0  0  0
  162.9430  207.4300  149.9410 O   0  0  0  0  0  0  0  0  0  0  0  0
  161.5200  205.1270  150.7780 C   0  0  0  0  0  2  0  0  0  0  0  0
  160.6440  206.8290  149.0170 C   0  0  0  0  0  2  0  0  0  0  0  0
  160.4490  204.2720  148.6010 C   0  0  0  0  0  2  0  0  0  0  0  0
  161.7200  203.4860  148.2620 C   0  0  1  0  0  3  0  0  0  0  0  0
  161.5980  202.1310  148.5790 O   0  0  0  0  0  1  0  0  0  0  0  0
  162.2380  203.7100  146.8390 C   0  0  2  0  0  3  0  0  0  0  0  0
  163.0860  204.8200  146.7670 O   0  0  0  0  0  1  0  0  0  0  0  0
  161.0880  203.8340  145.8410 C   0  0  2  0  0  3  0  0  0  0  0  0
  160.8280  202.5920  145.2620 O   0  0  0  0  0  1  0  0  0  0  0  0
  161.3800  204.8510  144.7490 C   0  0  0  0  0  1  0  0  0  0  0  0
  161.0250  210.6490  152.6190 C   0  0  2  0  0  3  0  0  0  0  0  0
  157.9580  211.1520  155.6080 C   0  0  0  0  0  0  0  0  0  0  0  0
  160.1920  210.3630  155.0180 C   0  0  0  0  0  0  0  0  0  0  0  0
  159.3300  210.1550  157.2610 F   0  0  0  0  0  0  0  0  0  0  0  0
  158.7430  211.3830  153.3410 C   0  0  0  0  0  3  0  0  0  0  0  0
  157.7450  211.5610  154.2950 C   0  0  0  0  0  3  0  0  0  0  0  0
  159.9680  210.7870  153.6820 C   0  0  0  0  0  0  0  0  0  0  0  0
  156.9780  211.3270  156.5290 F   0  0  0  0  0  0  0  0  0  0  0  0
  159.1700  210.5590  155.9750 C   0  0  0  0  0  0  0  0  0  0  0  0
  162.4470  210.4290  155.8000 O   0  0  0  0  0  1  0  0  0  0  0  0
  161.4710  209.7230  155.4320 C   0  0  0  0  0  0  0  0  0  0  0  0
  161.6100  208.3410  155.4370 O   0  0  0  0  0  0  0  0  0  0  0  0
  161.3710  211.4690  150.4300 O   0  0  0  0  0  0  0  0  0  0  0  0
  160.8340  211.6410  151.5120 C   0  0  0  0  0  3  0  0  0  0  0  0
  1  3  2  0  0  0  0
  2  3  1  0  0  0  0
  3 20  1  0  0  0  0
  4  8  1  0  0  0  0
  4  2  1  6  0  0  0
  5  7  2  0  0  0  0
  6 12  1  6  0  0  0
  6 10  1  0  0  0  0
  7 11  1  0  0  0  0
  7  9  1  0  0  0  0
  9  4  1  0  0  0  0
 10  8  1  0  0  0  0
 11  6  1  0  0  0  0
 13 14  1  6  0  0  0
 13 12  1  0  0  0  0
 15 16  1  1  0  0  0
 15 13  1  0  0  0  0
 17 19  1  6  0  0  0
 17 15  1  0  0  0  0
 18 17  1  0  0  0  0
 20 33  1  6  0  0  0
 20 26  1  0  0  0  0
 21 28  1  0  0  0  0
 21 27  1  0  0  0  0
 22 30  1  0  0  0  0
 22 28  2  0  0  0  0
 24 26  2  0  0  0  0
 24 25  1  0  0  0  0
 25 21  2  0  0  0  0
 26 22  1  0  0  0  0
 28 23  1  0  0  0  0
 30 31  2  0  0  0  0
 30 29  1  0  0  0  0
 32 33  2  0  0  0  0
M  END
>  <MODEL>
9

>  <REMARK>
 VINA RESULT:      -5.9      2.543      3.781
  Name = 
  9 active torsions:
  status: ('A' for Active; 'I' for Inactive)
    1  A    between atoms: C_1  and  N_12
    2  A    between atoms: C_2  and  C_5
    3  A    between atoms: C_2  and  C_8
    4  A    between atoms: C_5  and  C_27
    5  A    between atoms: C_6  and  C_27
    6  A    between atoms: C_9  and  C_24
    7  A    between atoms: C_11  and  C_15
    8  A    between atoms: C_15  and  C_17
    9  A    between atoms: C_15  and  C_26
                            x       y       z     vdW  Elec       q    Type
                         _______ _______ _______ _____ _____    ______ ____

>  <TORSDO>
F 9

$$$$
