=
 OpenBabel11042420143D

 25 29  0  0  1  0  0  0  0  0999 V2000
  161.6010  202.7880  151.7140 C   0  0  0  0  0  2  0  0  0  0  0  0
  161.0050  200.1910  147.7000 C   0  0  0  0  0  3  0  0  0  0  0  0
  161.7530  202.6570  147.5530 C   0  0  2  0  0  3  0  0  0  0  0  0
  161.4400  207.0870  153.9700 N   0  0  0  0  0  1  0  0  0  0  0  0
  162.1590  206.3470  145.0210 O   0  0  0  0  0  0  0  0  0  0  0  0
  160.7290  207.0790  151.5430 C   0  0  0  0  0  2  0  0  0  0  0  0
  160.4330  204.1500  149.1950 C   0  0  0  0  0  2  0  0  0  0  0  0
  162.0820  205.3290  147.5790 C   0  0  2  0  0  3  0  0  0  0  0  0
  160.6900  200.2190  146.4050 C   0  0  0  0  0  3  0  0  0  0  0  0
  161.2160  206.3320  150.3090 C   0  0  1  0  0  3  0  0  0  0  0  0
  163.9370  204.4220  145.5240 N   0  0  0  0  0  1  0  0  0  0  0  0
  161.1170  202.6330  146.1680 C   0  0  0  0  0  0  0  0  0  0  0  0
  161.1550  201.5230  149.6770 C   0  0  0  0  0  0  0  0  0  0  0  0
  162.3310  205.0630  145.7990 P   0  0  2  0  0  0  0  0  0  0  0  0
  161.0970  203.8400  145.2760 C   0  0  0  0  0  2  0  0  0  0  0  0
  161.3890  201.4280  148.3910 C   0  0  0  0  0  0  0  0  0  0  0  0
  161.2270  206.3580  152.7680 C   0  0  0  0  0  0  0  0  0  0  0  0
  161.1910  204.2480  151.5870 C   0  0  1  0  0  3  0  0  0  0  0  0
  161.6460  204.0180  148.2930 C   0  0  2  0  0  3  0  0  0  0  0  0
  160.6860  201.4810  145.6430 C   0  0  0  0  0  3  0  0  0  0  0  0
  161.1610  206.5190  147.8070 C   0  0  0  0  0  3  0  0  0  0  0  0
  161.4200  205.0690  152.7510 N   0  0  0  0  0  0  0  0  0  0  0  0
  160.8730  204.8660  150.4240 C   0  0  2  0  0  3  0  0  0  0  0  0
  160.7770  206.9720  149.0170 C   0  0  0  0  0  3  0  0  0  0  0  0
  160.8570  201.7490  150.9290 C   0  0  0  0  0  3  0  0  0  0  0  0
  2 16  1  0  0  0  0
  3 12  1  6  0  0  0
  3 19  1  0  0  0  0
  3 16  1  0  0  0  0
  6 17  1  0  0  0  0
  8 21  1  6  0  0  0
  8 19  1  0  0  0  0
  9  2  2  0  0  0  0
 10 24  1  6  0  0  0
 10 23  1  0  0  0  0
 10  6  1  0  0  0  0
 11 14  1  0  0  0  0
 13 25  2  0  0  0  0
 14  5  2  6  0  0  0
 14  8  1  0  0  0  0
 15 14  1  0  0  0  0
 15 12  1  0  0  0  0
 16 13  2  0  0  0  0
 17  4  1  0  0  0  0
 18  1  1  6  0  0  0
 18 22  1  0  0  0  0
 19  7  1  6  0  0  0
 20 12  2  0  0  0  0
 20  9  1  0  0  0  0
 21 24  2  0  0  0  0
 22 17  2  0  0  0  0
 23  7  1  6  0  0  0
 23 18  1  0  0  0  0
 25  1  1  0  0  0  0
M  END
>  <MODEL>
1

>  <REMARK>
 VINA RESULT:      -9.9      0.000      0.000
  Name = 
  0 active torsions:
  status: ('A' for Active; 'I' for Inactive)
                            x       y       z     vdW  Elec       q    Type
                         _______ _______ _______ _____ _____    ______ ____

>  <TORSDO>
F 0

$$$$
=
 OpenBabel11042420143D

 25 29  0  0  1  0  0  0  0  0999 V2000
  161.4860  204.3650  152.2760 C   0  0  0  0  0  2  0  0  0  0  0  0
  160.7910  200.9030  148.9980 C   0  0  0  0  0  3  0  0  0  0  0  0
  161.7610  203.1880  148.2900 C   0  0  2  0  0  3  0  0  0  0  0  0
  161.6350  209.0900  153.3930 N   0  0  0  0  0  1  0  0  0  0  0  0
  162.5750  206.0860  144.9540 O   0  0  0  0  0  0  0  0  0  0  0  0
  161.0060  208.5320  151.0090 C   0  0  0  0  0  2  0  0  0  0  0  0
  160.5260  205.1420  149.4410 C   0  0  0  0  0  2  0  0  0  0  0  0
  162.3250  205.7480  147.6760 C   0  0  2  0  0  3  0  0  0  0  0  0
  160.5220  200.6310  147.7220 C   0  0  0  0  0  3  0  0  0  0  0  0
  161.4640  207.4650  150.0250 C   0  0  1  0  0  3  0  0  0  0  0  0
  164.1570  204.2140  146.0100 N   0  0  0  0  0  1  0  0  0  0  0  0
  161.1700  202.8690  146.9220 C   0  0  0  0  0  0  0  0  0  0  0  0
  160.9950  202.6700  150.5920 C   0  0  0  0  0  0  0  0  0  0  0  0
  162.6070  205.0260  146.0320 P   0  0  2  0  0  0  0  0  0  0  0  0
  161.2870  203.8120  145.7610 C   0  0  0  0  0  2  0  0  0  0  0  0
  161.2610  202.2390  149.3840 C   0  0  0  0  0  0  0  0  0  0  0  0
  161.3970  208.1030  152.3980 C   0  0  0  0  0  0  0  0  0  0  0  0
  161.2120  205.7740  151.7730 C   0  0  1  0  0  3  0  0  0  0  0  0
  161.7510  204.6940  148.6660 C   0  0  2  0  0  3  0  0  0  0  0  0
  160.6550  201.6600  146.6730 C   0  0  0  0  0  3  0  0  0  0  0  0
  161.5070  207.0250  147.5540 C   0  0  0  0  0  3  0  0  0  0  0  0
  161.4750  206.8390  152.7090 N   0  0  0  0  0  0  0  0  0  0  0  0
  160.9880  206.1050  150.4780 C   0  0  2  0  0  3  0  0  0  0  0  0
  161.1260  207.7950  148.5930 C   0  0  0  0  0  3  0  0  0  0  0  0
  160.6770  203.2240  151.7330 C   0  0  0  0  0  3  0  0  0  0  0  0
  2 16  1  0  0  0  0
  3 12  1  6  0  0  0
  3 19  1  0  0  0  0
  3 16  1  0  0  0  0
  6 17  1  0  0  0  0
  8 21  1  6  0  0  0
  8 19  1  0  0  0  0
  9  2  2  0  0  0  0
 10 24  1  6  0  0  0
 10 23  1  0  0  0  0
 10  6  1  0  0  0  0
 11 14  1  0  0  0  0
 13 25  2  0  0  0  0
 14  5  2  6  0  0  0
 14  8  1  0  0  0  0
 15 14  1  0  0  0  0
 15 12  1  0  0  0  0
 16 13  2  0  0  0  0
 17 22  2  0  0  0  0
 17  4  1  0  0  0  0
 18  1  1  6  0  0  0
 18 22  1  0  0  0  0
 19  7  1  6  0  0  0
 20 12  2  0  0  0  0
 20  9  1  0  0  0  0
 21 24  2  0  0  0  0
 23  7  1  6  0  0  0
 23 18  1  0  0  0  0
 25  1  1  0  0  0  0
M  END
>  <MODEL>
2

>  <REMARK>
 VINA RESULT:      -9.8      0.999      1.250
  Name = 
  0 active torsions:
  status: ('A' for Active; 'I' for Inactive)
                            x       y       z     vdW  Elec       q    Type
                         _______ _______ _______ _____ _____    ______ ____

>  <TORSDO>
F 0

$$$$
=
 OpenBabel11042420143D

 25 29  0  0  1  0  0  0  0  0999 V2000
  160.7770  205.0070  151.6190 C   0  0  0  0  0  2  0  0  0  0  0  0
  160.8730  206.9540  156.0250 C   0  0  0  0  0  3  0  0  0  0  0  0
  160.4560  208.4400  153.9560 C   0  0  2  0  0  3  0  0  0  0  0  0
  161.5950  205.4250  146.8490 N   0  0  0  0  0  1  0  0  0  0  0  0
  160.4560  212.5780  152.2040 O   0  0  0  0  0  0  0  0  0  0  0  0
  162.2090  207.4310  148.2610 C   0  0  0  0  0  2  0  0  0  0  0  0
  162.0240  207.8110  152.0030 C   0  0  0  0  0  2  0  0  0  0  0  0
  160.4900  209.8750  151.6780 C   0  0  2  0  0  3  0  0  0  0  0  0
  161.1410  208.0440  156.7440 C   0  0  0  0  0  3  0  0  0  0  0  0
  161.5810  208.0850  149.4840 C   0  0  1  0  0  3  0  0  0  0  0  0
  158.4560  211.1900  153.2970 N   0  0  0  0  0  1  0  0  0  0  0  0
  161.0330  209.5650  154.8080 C   0  0  0  0  0  0  0  0  0  0  0  0
  160.9750  206.0170  153.8300 C   0  0  0  0  0  0  0  0  0  0  0  0
  160.1420  211.2380  152.8280 P   0  0  2  0  0  0  0  0  0  0  0  0
  161.1810  210.9650  154.2900 C   0  0  0  0  0  2  0  0  0  0  0  0
  160.6830  207.0570  154.5730 C   0  0  0  0  0  0  0  0  0  0  0  0
  161.6650  206.0330  148.1330 C   0  0  0  0  0  0  0  0  0  0  0  0
  161.3740  205.8840  150.5290 C   0  0  1  0  0  3  0  0  0  0  0  0
  160.7720  208.5480  152.4400 C   0  0  2  0  0  3  0  0  0  0  0  0
  161.2860  209.3660  156.1070 C   0  0  0  0  0  3  0  0  0  0  0  0
  161.5690  210.2870  150.6880 C   0  0  0  0  0  3  0  0  0  0  0  0
  161.3000  205.3590  149.1880 N   0  0  0  0  0  0  0  0  0  0  0  0
  161.7290  207.1830  150.6860 C   0  0  2  0  0  3  0  0  0  0  0  0
  162.0540  209.4990  149.7080 C   0  0  0  0  0  3  0  0  0  0  0  0
  161.3460  205.0740  153.0050 C   0  0  0  0  0  3  0  0  0  0  0  0
  1 25  1  0  0  0  0
  2  9  2  0  0  0  0
  3 16  1  1  0  0  0
  3 12  1  0  0  0  0
  4 17  1  0  0  0  0
  8 21  1  1  0  0  0
  8 19  1  0  0  0  0
  8 14  1  0  0  0  0
 10  6  1  6  0  0  0
 10 24  1  0  0  0  0
 10 23  1  0  0  0  0
 12 20  2  0  0  0  0
 13 16  2  0  0  0  0
 14  5  2  6  0  0  0
 14 11  1  0  0  0  0
 14 15  1  0  0  0  0
 15 12  1  0  0  0  0
 16  2  1  0  0  0  0
 17  6  1  0  0  0  0
 17 22  2  0  0  0  0
 18 23  1  0  0  0  0
 18  1  1  6  0  0  0
 19  7  1  1  0  0  0
 19  3  1  0  0  0  0
 20  9  1  0  0  0  0
 22 18  1  0  0  0  0
 23  7  1  1  0  0  0
 24 21  2  0  0  0  0
 25 13  2  0  0  0  0
M  END
>  <MODEL>
3

>  <REMARK>
 VINA RESULT:      -8.5      4.227      7.709
  Name = 
  0 active torsions:
  status: ('A' for Active; 'I' for Inactive)
                            x       y       z     vdW  Elec       q    Type
                         _______ _______ _______ _____ _____    ______ ____

>  <TORSDO>
F 0

$$$$
=
 OpenBabel11042420143D

 25 29  0  0  1  0  0  0  0  0999 V2000
  160.8310  208.1100  149.8760 C   0  0  0  0  0  2  0  0  0  0  0  0
  161.6730  205.6040  145.8480 C   0  0  0  0  0  3  0  0  0  0  0  0
  160.8620  204.4000  147.9820 C   0  0  2  0  0  3  0  0  0  0  0  0
  160.7720  208.3210  154.7290 N   0  0  0  0  0  1  0  0  0  0  0  0
  160.4600  200.5270  150.2240 O   0  0  0  0  0  0  0  0  0  0  0  0
  161.5860  206.1490  153.7220 C   0  0  0  0  0  2  0  0  0  0  0  0
  162.0670  205.2830  150.0880 C   0  0  0  0  0  2  0  0  0  0  0  0
  160.4560  203.2750  150.3950 C   0  0  2  0  0  3  0  0  0  0  0  0
  162.0430  204.4300  145.3370 C   0  0  0  0  0  3  0  0  0  0  0  0
  161.1740  205.3390  152.5000 C   0  0  1  0  0  3  0  0  0  0  0  0
  158.7180  201.7550  148.6190 N   0  0  0  0  0  1  0  0  0  0  0  0
  161.5580  203.1760  147.4000 C   0  0  0  0  0  0  0  0  0  0  0  0
  161.4000  206.8200  147.8860 C   0  0  0  0  0  0  0  0  0  0  0  0
  160.2920  201.7730  149.3860 P   0  0  2  0  0  0  0  0  0  0  0  0
  161.5810  201.8550  148.1120 C   0  0  0  0  0  2  0  0  0  0  0  0
  161.2250  205.6920  147.2430 C   0  0  0  0  0  0  0  0  0  0  0  0
  161.0580  207.5500  153.5680 C   0  0  0  0  0  0  0  0  0  0  0  0
  161.2040  207.3840  151.1600 C   0  0  1  0  0  3  0  0  0  0  0  0
  160.8980  204.4920  149.5320 C   0  0  2  0  0  3  0  0  0  0  0  0
  162.0430  203.2030  146.1540 C   0  0  0  0  0  3  0  0  0  0  0  0
  161.3320  202.9990  151.6080 C   0  0  0  0  0  3  0  0  0  0  0  0
  160.9020  208.0800  152.3870 N   0  0  0  0  0  0  0  0  0  0  0  0
  161.5540  206.0770  151.2390 C   0  0  2  0  0  3  0  0  0  0  0  0
  161.6500  203.9100  152.5490 C   0  0  0  0  0  3  0  0  0  0  0  0
  161.6380  207.8640  148.6360 C   0  0  0  0  0  3  0  0  0  0  0  0
  2 16  1  0  0  0  0
  3 16  1  6  0  0  0
  3 19  1  0  0  0  0
  8 21  1  1  0  0  0
  9  2  2  0  0  0  0
  9 20  1  0  0  0  0
 10 24  1  1  0  0  0
 10  6  1  0  0  0  0
 12  3  1  0  0  0  0
 12 15  1  0  0  0  0
 13 25  2  0  0  0  0
 14 11  1  6  0  0  0
 14  5  2  0  0  0  0
 14  8  1  0  0  0  0
 15 14  1  0  0  0  0
 16 13  2  0  0  0  0
 17  6  1  0  0  0  0
 17  4  1  0  0  0  0
 18  1  1  6  0  0  0
 18 23  1  0  0  0  0
 18 22  1  0  0  0  0
 19  7  1  6  0  0  0
 19  8  1  0  0  0  0
 20 12  2  0  0  0  0
 21 24  2  0  0  0  0
 22 17  2  0  0  0  0
 23  7  1  6  0  0  0
 23 10  1  0  0  0  0
 25  1  1  0  0  0  0
M  END
>  <MODEL>
4

>  <REMARK>
 VINA RESULT:      -8.0      2.679      4.240
  Name = 
  0 active torsions:
  status: ('A' for Active; 'I' for Inactive)
                            x       y       z     vdW  Elec       q    Type
                         _______ _______ _______ _____ _____    ______ ____

>  <TORSDO>
F 0

$$$$
=
 OpenBabel11042420143D

 25 29  0  0  1  0  0  0  0  0999 V2000
  162.4980  204.7730  146.4920 C   0  0  0  0  0  2  0  0  0  0  0  0
  162.2950  209.1020  148.5970 C   0  0  0  0  0  3  0  0  0  0  0  0
  162.1580  206.9560  150.0240 C   0  0  2  0  0  3  0  0  0  0  0  0
  161.2060  200.0910  146.4380 N   0  0  0  0  0  1  0  0  0  0  0  0
  160.9910  205.0780  153.9360 O   0  0  0  0  0  0  0  0  0  0  0  0
  160.2370  201.4880  148.3090 C   0  0  0  0  0  2  0  0  0  0  0  0
  160.6350  205.1820  148.9270 C   0  0  0  0  0  2  0  0  0  0  0  0
  161.5810  204.6460  151.2810 C   0  0  2  0  0  3  0  0  0  0  0  0
  161.8270  209.8070  149.6270 C   0  0  0  0  0  3  0  0  0  0  0  0
  160.7840  202.6240  149.1620 C   0  0  1  0  0  3  0  0  0  0  0  0
  163.3560  206.0220  153.1360 N   0  0  0  0  0  1  0  0  0  0  0  0
  161.3950  207.8220  151.0200 C   0  0  0  0  0  0  0  0  0  0  0  0
  162.2430  206.9590  147.5440 C   0  0  0  0  0  0  0  0  0  0  0  0
  161.6760  205.7140  152.7480 P   0  0  2  0  0  0  0  0  0  0  0  0
  160.8630  207.2750  152.3120 C   0  0  0  0  0  2  0  0  0  0  0  0
  162.3310  207.6360  148.6630 C   0  0  0  0  0  0  0  0  0  0  0  0
  161.0970  201.3550  147.0800 C   0  0  0  0  0  0  0  0  0  0  0  0
  161.6150  203.7160  147.1380 C   0  0  1  0  0  3  0  0  0  0  0  0
  161.6990  205.4740  149.9690 C   0  0  2  0  0  3  0  0  0  0  0  0
  161.3080  209.1440  150.8370 C   0  0  0  0  0  3  0  0  0  0  0  0
  160.3540  203.7500  151.3640 C   0  0  0  0  0  3  0  0  0  0  0  0
  161.7030  202.3920  146.5740 N   0  0  0  0  0  0  0  0  0  0  0  0
  160.9640  203.8640  148.3180 C   0  0  2  0  0  3  0  0  0  0  0  0
  159.9980  202.8460  150.4290 C   0  0  0  0  0  3  0  0  0  0  0  0
  162.0480  206.2040  146.4950 C   0  0  0  0  0  3  0  0  0  0  0  0
  1 25  1  0  0  0  0
  2 16  1  0  0  0  0
  2  9  2  0  0  0  0
  3 16  1  6  0  0  0
  3 12  1  0  0  0  0
  4 17  1  0  0  0  0
  8 21  1  6  0  0  0
  8 14  1  0  0  0  0
  9 20  1  0  0  0  0
 10  6  1  6  0  0  0
 10 24  1  0  0  0  0
 12 15  1  0  0  0  0
 13 16  2  0  0  0  0
 14 11  1  1  0  0  0
 14  5  2  0  0  0  0
 15 14  1  0  0  0  0
 17  6  1  0  0  0  0
 18  1  1  1  0  0  0
 18 23  1  0  0  0  0
 19  7  1  1  0  0  0
 19  3  1  0  0  0  0
 19  8  1  0  0  0  0
 20 12  2  0  0  0  0
 22 17  2  0  0  0  0
 22 18  1  0  0  0  0
 23  7  1  1  0  0  0
 23 10  1  0  0  0  0
 24 21  2  0  0  0  0
 25 13  2  0  0  0  0
M  END
>  <MODEL>
5

>  <REMARK>
 VINA RESULT:      -7.4      2.959      6.636
  Name = 
  0 active torsions:
  status: ('A' for Active; 'I' for Inactive)
                            x       y       z     vdW  Elec       q    Type
                         _______ _______ _______ _____ _____    ______ ____

>  <TORSDO>
F 0

$$$$
