=
 OpenBabel11042421213D

 39 42  0  0  1  0  0  0  0  0999 V2000
  160.7800  211.0280  153.1860 C   0  0  0  0  0  2  0  0  0  0  0  0
  162.1320  210.5540  149.3370 N   0  0  0  0  0  0  0  0  0  0  0  0
  160.1470  211.8810  152.1040 C   0  0  0  0  0  2  0  0  0  0  0  0
  161.6040  209.4150  151.4100 C   0  0  1  0  0  3  0  0  0  0  0  0
  161.5420  210.6180  150.4940 C   0  0  0  0  0  0  0  0  0  0  0  0
  160.7880  209.5780  152.7080 C   0  0  1  0  0  3  0  0  0  0  0  0
  160.9180  211.8030  150.9110 O   0  0  0  0  0  0  0  0  0  0  0  0
  161.0690  211.8170  147.5050 N   0  0  0  0  0  2  0  0  0  0  0  0
  162.1950  211.6000  148.3570 C   0  0  0  0  0  0  0  0  0  0  0  0
  163.2220  212.3240  148.2410 O   0  0  0  0  0  0  0  0  0  0  0  0
  159.7130  212.8560  145.7910 C   0  0  0  0  0  2  0  0  0  0  0  0
  160.0280  213.8970  146.8440 C   0  0  0  0  0  2  0  0  0  0  0  0
  161.0610  212.8500  146.4830 C   0  0  0  0  0  3  0  0  0  0  0  0
  162.9980  206.9310  151.2750 O   0  0  0  0  0  0  0  0  0  0  0  0
  161.1450  208.2260  150.7020 N   0  0  0  0  0  2  0  0  0  0  0  0
  161.9030  207.0140  150.6520 C   0  0  0  0  0  0  0  0  0  0  0  0
  161.3930  205.8620  149.8840 C   0  0  0  0  0  0  0  0  0  0  0  0
  161.5040  205.8680  148.5480 C   0  0  0  0  0  3  0  0  0  0  0  0
  161.1250  203.4010  150.3660 C   0  0  0  0  0  2  0  0  0  0  0  0
  160.6120  204.8070  150.6170 C   0  0  0  0  0  2  0  0  0  0  0  0
  160.6380  202.9160  149.0130 C   0  0  2  0  0  3  0  0  0  0  0  0
  160.7050  201.4040  148.9770 C   0  0  0  0  0  1  0  0  0  0  0  0
  161.4870  203.4550  147.9640 N   0  0  0  0  0  2  0  0  0  0  0  0
  161.0990  204.7810  147.7070 N   0  0  0  0  0  2  0  0  0  0  0  0
  160.6410  207.4440  153.8490 O   0  0  0  0  0  1  0  0  0  0  0  0
  161.3210  208.6650  153.8230 C   0  0  2  0  0  3  0  0  0  0  0  0
  161.2430  209.3250  155.2000 C   0  0  0  0  0  2  0  0  0  0  0  0
  159.9720  208.9350  155.9440 C   0  0  0  0  0  2  0  0  0  0  0  0
  159.7430  209.8560  157.0430 N   0  0  0  0  0  2  0  0  0  0  0  0
  156.1530  211.1000  155.1650 C   0  0  0  0  0  0  0  0  0  0  0  0
  155.9670  212.4560  154.5510 C   0  0  0  0  0  2  0  0  0  0  0  0
  159.6130  211.1350  156.4840 N   0  0  0  0  0  2  0  0  0  0  0  0
  157.1900  213.3190  154.6810 C   0  0  0  0  0  3  0  0  0  0  0  0
  158.3190  212.9110  155.2790 C   0  0  0  0  0  0  0  0  0  0  0  0
  158.4030  211.5520  155.8510 C   0  0  0  0  0  0  0  0  0  0  0  0
  157.3920  210.7380  155.7860 N   0  0  0  0  0  0  0  0  0  0  0  0
  155.2080  210.2700  155.1330 O   0  0  0  0  0  0  0  0  0  0  0  0
  159.7800  214.4530  156.5630 C   0  0  0  0  0  1  0  0  0  0  0  0
  159.4330  213.7540  155.3740 O   0  0  0  0  0  0  0  0  0  0  0  0
  2  5  2  0  0  0  0
  3  1  1  0  0  0  0
  4 15  1  6  0  0  0
  4  6  1  0  0  0  0
  5  7  1  0  0  0  0
  5  4  1  0  0  0  0
  6  1  1  0  0  0  0
  6 26  1  1  0  0  0
  7  3  1  0  0  0  0
  8  9  1  0  0  0  0
  9  2  1  0  0  0  0
 10  9  2  0  0  0  0
 11 13  1  0  0  0  0
 11 12  1  0  0  0  0
 13 12  1  0  0  0  0
 13  8  1  0  0  0  0
 16 15  1  0  0  0  0
 16 14  2  0  0  0  0
 17 20  1  0  0  0  0
 17 16  1  0  0  0  0
 18 17  2  0  0  0  0
 19 20  1  0  0  0  0
 21 22  1  1  0  0  0
 21 19  1  0  0  0  0
 23 21  1  0  0  0  0
 24 23  1  0  0  0  0
 24 18  1  0  0  0  0
 26 25  1  1  0  0  0
 26 27  1  0  0  0  0
 27 28  1  0  0  0  0
 28 29  1  0  0  0  0
 30 36  1  0  0  0  0
 31 33  1  0  0  0  0
 31 30  1  0  0  0  0
 32 29  1  0  0  0  0
 33 34  2  0  0  0  0
 34 39  1  0  0  0  0
 34 35  1  0  0  0  0
 35 32  1  0  0  0  0
 36 35  2  0  0  0  0
 37 30  2  0  0  0  0
 39 38  1  0  0  0  0
M  END
>  <MODEL>
1

>  <REMARK>
 VINA RESULT:      -7.7      0.000      0.000
  Name = 
  10 active torsions:
  status: ('A' for Active; 'I' for Inactive)
    1  A    between atoms: N_1  and  C_26
    2  A    between atoms: C_3  and  C_21
    3  A    between atoms: C_6  and  C_22
    4  A    between atoms: C_6  and  C_33
    5  A    between atoms: N_9  and  C_19
    6  A    between atoms: N_12  and  N_36
    7  A    between atoms: C_14  and  N_16
    8  A    between atoms: C_22  and  N_36
    9  A    between atoms: C_24  and  C_33
   10  A    between atoms: C_25  and  O_37
                            x       y       z     vdW  Elec       q    Type
                         _______ _______ _______ _____ _____    ______ ____

>  <TORSDO>
F 10

$$$$
=
 OpenBabel11042421213D

 39 42  0  0  1  0  0  0  0  0999 V2000
  161.0630  209.9640  152.8670 C   0  0  0  0  0  2  0  0  0  0  0  0
  162.2280  210.4210  148.9550 N   0  0  0  0  0  0  0  0  0  0  0  0
  160.4120  211.0700  152.0600 C   0  0  0  0  0  2  0  0  0  0  0  0
  161.7540  208.8190  150.7120 C   0  0  1  0  0  3  0  0  0  0  0  0
  161.6920  210.2120  150.1220 C   0  0  0  0  0  0  0  0  0  0  0  0
  161.0010  208.6760  152.0500 C   0  0  1  0  0  3  0  0  0  0  0  0
  161.1270  211.2710  150.8470 O   0  0  0  0  0  0  0  0  0  0  0  0
  161.1260  212.1220  147.5520 N   0  0  0  0  0  2  0  0  0  0  0  0
  162.2830  211.6740  148.2590 C   0  0  0  0  0  0  0  0  0  0  0  0
  163.3300  212.3780  148.2660 O   0  0  0  0  0  0  0  0  0  0  0  0
  161.0250  213.0810  145.3310 C   0  0  0  0  0  2  0  0  0  0  0  0
  159.7850  213.5050  146.0890 C   0  0  0  0  0  2  0  0  0  0  0  0
  161.1070  213.3750  146.8150 C   0  0  0  0  0  3  0  0  0  0  0  0
  163.3070  207.3020  148.8620 O   0  0  0  0  0  0  0  0  0  0  0  0
  161.2240  207.8510  149.7590 N   0  0  0  0  0  2  0  0  0  0  0  0
  162.0550  207.1370  148.8380 C   0  0  0  0  0  0  0  0  0  0  0  0
  161.4460  206.1990  147.8760 C   0  0  0  0  0  0  0  0  0  0  0  0
  161.1010  206.6450  146.6600 C   0  0  0  0  0  3  0  0  0  0  0  0
  161.6220  203.7150  147.4810 C   0  0  0  0  0  2  0  0  0  0  0  0
  161.0730  204.8250  148.3580 C   0  0  0  0  0  2  0  0  0  0  0  0
  160.7660  203.5820  146.2360 C   0  0  2  0  0  3  0  0  0  0  0  0
  160.9800  202.2090  145.6340 C   0  0  0  0  0  1  0  0  0  0  0  0
  161.1520  204.5930  145.2650 N   0  0  0  0  0  2  0  0  0  0  0  0
  160.5590  205.8140  145.6270 N   0  0  0  0  0  2  0  0  0  0  0  0
  160.9210  206.3030  152.5440 O   0  0  0  0  0  1  0  0  0  0  0  0
  161.5520  207.5060  152.8790 C   0  0  2  0  0  3  0  0  0  0  0  0
  161.4230  207.7490  154.3830 C   0  0  0  0  0  2  0  0  0  0  0  0
  160.3790  206.8400  155.0170 C   0  0  0  0  0  2  0  0  0  0  0  0
  159.6000  207.5880  155.9890 N   0  0  0  0  0  2  0  0  0  0  0  0
  158.2300  211.5500  155.3700 C   0  0  0  0  0  0  0  0  0  0  0  0
  159.0190  212.7670  155.7520 C   0  0  0  0  0  2  0  0  0  0  0  0
  160.3720  208.6970  156.3650 N   0  0  0  0  0  2  0  0  0  0  0  0
  160.3400  212.4240  156.3790 C   0  0  0  0  0  3  0  0  0  0  0  0
  160.7600  211.1640  156.5690 C   0  0  0  0  0  0  0  0  0  0  0  0
  159.9080  210.0310  156.1550 C   0  0  0  0  0  0  0  0  0  0  0  0
  158.7480  210.2350  155.6060 N   0  0  0  0  0  0  0  0  0  0  0  0
  157.0990  211.6860  154.8360 O   0  0  0  0  0  0  0  0  0  0  0  0
  163.2120  210.8130  156.4200 C   0  0  0  0  0  1  0  0  0  0  0  0
  162.0010  210.8960  157.1590 O   0  0  0  0  0  0  0  0  0  0  0  0
  2  5  2  0  0  0  0
  3  1  1  0  0  0  0
  4 15  1  6  0  0  0
  4  6  1  0  0  0  0
  5  4  1  0  0  0  0
  5  7  1  0  0  0  0
  6  1  1  0  0  0  0
  6 26  1  1  0  0  0
  7  3  1  0  0  0  0
  8  9  1  0  0  0  0
  9 10  2  0  0  0  0
  9  2  1  0  0  0  0
 11 12  1  0  0  0  0
 11 13  1  0  0  0  0
 12 13  1  0  0  0  0
 13  8  1  0  0  0  0
 16 14  2  0  0  0  0
 16 15  1  0  0  0  0
 17 20  1  0  0  0  0
 17 16  1  0  0  0  0
 18 17  2  0  0  0  0
 19 20  1  0  0  0  0
 21 22  1  6  0  0  0
 21 19  1  0  0  0  0
 23 24  1  0  0  0  0
 23 21  1  0  0  0  0
 24 18  1  0  0  0  0
 26 25  1  6  0  0  0
 26 27  1  0  0  0  0
 27 28  1  0  0  0  0
 28 29  1  0  0  0  0
 29 32  1  0  0  0  0
 30 36  1  0  0  0  0
 30 31  1  0  0  0  0
 31 33  1  0  0  0  0
 33 34  2  0  0  0  0
 34 39  1  0  0  0  0
 35 32  1  0  0  0  0
 35 34  1  0  0  0  0
 36 35  2  0  0  0  0
 37 30  2  0  0  0  0
 38 39  1  0  0  0  0
M  END
>  <MODEL>
2

>  <REMARK>
 VINA RESULT:      -7.1      1.778      2.251
  Name = 
  10 active torsions:
  status: ('A' for Active; 'I' for Inactive)
    1  A    between atoms: N_1  and  C_26
    2  A    between atoms: C_3  and  C_21
    3  A    between atoms: C_6  and  C_22
    4  A    between atoms: C_6  and  C_33
    5  A    between atoms: N_9  and  C_19
    6  A    between atoms: N_12  and  N_36
    7  A    between atoms: C_14  and  N_16
    8  A    between atoms: C_22  and  N_36
    9  A    between atoms: C_24  and  C_33
   10  A    between atoms: C_25  and  O_37
                            x       y       z     vdW  Elec       q    Type
                         _______ _______ _______ _____ _____    ______ ____

>  <TORSDO>
F 10

$$$$
=
 OpenBabel11042421213D

 39 42  0  0  1  0  0  0  0  0999 V2000
  160.6820  206.5530  154.6370 C   0  0  0  0  0  2  0  0  0  0  0  0
  161.4880  210.5700  154.9210 N   0  0  0  0  0  0  0  0  0  0  0  0
  159.7660  207.3990  155.5000 C   0  0  0  0  0  2  0  0  0  0  0  0
  161.4670  208.6490  153.4430 C   0  0  1  0  0  3  0  0  0  0  0  0
  161.0790  209.3510  154.7270 C   0  0  0  0  0  0  0  0  0  0  0  0
  160.8430  207.2480  153.2870 C   0  0  1  0  0  3  0  0  0  0  0  0
  160.3490  208.6780  155.7170 O   0  0  0  0  0  0  0  0  0  0  0  0
  160.0550  212.1750  156.1240 N   0  0  0  0  0  2  0  0  0  0  0  0
  161.2370  211.3750  156.0810 C   0  0  0  0  0  0  0  0  0  0  0  0
  162.0400  211.3840  157.0550 O   0  0  0  0  0  0  0  0  0  0  0  0
  160.1240  214.4530  156.9400 C   0  0  0  0  0  2  0  0  0  0  0  0
  158.6750  214.0240  156.8510 C   0  0  0  0  0  2  0  0  0  0  0  0
  159.7360  213.0240  157.2600 C   0  0  0  0  0  3  0  0  0  0  0  0
  163.2570  210.2590  151.9150 O   0  0  0  0  0  0  0  0  0  0  0  0
  161.0960  209.4690  152.2960 N   0  0  0  0  0  2  0  0  0  0  0  0
  162.0390  210.2750  151.5840 C   0  0  0  0  0  0  0  0  0  0  0  0
  161.5850  211.1090  150.4540 C   0  0  0  0  0  0  0  0  0  0  0  0
  160.7890  212.1590  150.6980 C   0  0  0  0  0  3  0  0  0  0  0  0
  162.5530  211.7090  148.2050 C   0  0  0  0  0  2  0  0  0  0  0  0
  161.8900  210.6430  149.0580 C   0  0  0  0  0  2  0  0  0  0  0  0
  161.5070  212.6950  147.7190 C   0  0  2  0  0  3  0  0  0  0  0  0
  162.0430  213.4270  146.5070 C   0  0  0  0  0  1  0  0  0  0  0  0
  161.2180  213.6590  148.7670 N   0  0  0  0  0  2  0  0  0  0  0  0
  160.3370  213.0710  149.6900 N   0  0  0  0  0  2  0  0  0  0  0  0
  161.5800  206.8060  151.0200 O   0  0  0  0  0  1  0  0  0  0  0  0
  161.6760  206.3660  152.3440 C   0  0  2  0  0  3  0  0  0  0  0  0
  161.2770  204.8920  152.4240 C   0  0  0  0  0  2  0  0  0  0  0  0
  161.5700  204.1540  151.1250 C   0  0  0  0  0  2  0  0  0  0  0  0
  160.3250  203.8130  150.4610 N   0  0  0  0  0  2  0  0  0  0  0  0
  162.0000  206.1440  147.3430 C   0  0  0  0  0  0  0  0  0  0  0  0
  162.3750  205.5860  146.0020 C   0  0  0  0  0  2  0  0  0  0  0  0
  160.6630  203.2470  149.2230 N   0  0  0  0  0  2  0  0  0  0  0  0
  162.0950  204.1140  145.8930 C   0  0  0  0  0  3  0  0  0  0  0  0
  161.5640  203.3890  146.8890 C   0  0  0  0  0  0  0  0  0  0  0  0
  161.2270  204.0350  148.1740 C   0  0  0  0  0  0  0  0  0  0  0  0
  161.4370  205.3040  148.3570 N   0  0  0  0  0  0  0  0  0  0  0  0
  162.1820  207.3660  147.5790 O   0  0  0  0  0  0  0  0  0  0  0  0
  160.4180  201.4900  145.7770 C   0  0  0  0  0  1  0  0  0  0  0  0
  161.3230  202.0180  146.7370 O   0  0  0  0  0  0  0  0  0  0  0  0
  1  3  1  0  0  0  0
  2  9  1  0  0  0  0
  3  7  1  0  0  0  0
  4 15  1  6  0  0  0
  4  5  1  0  0  0  0
  5  2  2  0  0  0  0
  5  7  1  0  0  0  0
  6 26  1  6  0  0  0
  6  4  1  0  0  0  0
  6  1  1  0  0  0  0
  8 13  1  0  0  0  0
  9  8  1  0  0  0  0
  9 10  2  0  0  0  0
 11 13  1  0  0  0  0
 12 11  1  0  0  0  0
 12 13  1  0  0  0  0
 16 14  2  0  0  0  0
 16 15  1  0  0  0  0
 17 18  2  0  0  0  0
 17 16  1  0  0  0  0
 19 20  1  0  0  0  0
 20 17  1  0  0  0  0
 21 22  1  6  0  0  0
 21 19  1  0  0  0  0
 21 23  1  0  0  0  0
 23 24  1  0  0  0  0
 24 18  1  0  0  0  0
 26 25  1  6  0  0  0
 26 27  1  0  0  0  0
 28 27  1  0  0  0  0
 29 28  1  0  0  0  0
 30 37  2  0  0  0  0
 30 36  1  0  0  0  0
 31 30  1  0  0  0  0
 32 29  1  0  0  0  0
 33 31  1  0  0  0  0
 33 34  2  0  0  0  0
 34 35  1  0  0  0  0
 35 36  2  0  0  0  0
 35 32  1  0  0  0  0
 38 39  1  0  0  0  0
 39 34  1  0  0  0  0
M  END
>  <MODEL>
3

>  <REMARK>
 VINA RESULT:      -6.8      2.351      8.946
  Name = 
  10 active torsions:
  status: ('A' for Active; 'I' for Inactive)
    1  A    between atoms: N_1  and  C_26
    2  A    between atoms: C_3  and  C_21
    3  A    between atoms: C_6  and  C_22
    4  A    between atoms: C_6  and  C_33
    5  A    between atoms: N_9  and  C_19
    6  A    between atoms: N_12  and  N_36
    7  A    between atoms: C_14  and  N_16
    8  A    between atoms: C_22  and  N_36
    9  A    between atoms: C_24  and  C_33
   10  A    between atoms: C_25  and  O_37
                            x       y       z     vdW  Elec       q    Type
                         _______ _______ _______ _____ _____    ______ ____

>  <TORSDO>
F 10

$$$$
=
 OpenBabel11042421213D

 39 42  0  0  1  0  0  0  0  0999 V2000
  161.5560  207.3470  147.7650 C   0  0  0  0  0  2  0  0  0  0  0  0
  161.2760  204.7090  150.9010 N   0  0  0  0  0  0  0  0  0  0  0  0
  160.5300  206.2350  147.6650 C   0  0  0  0  0  2  0  0  0  0  0  0
  161.6360  207.0250  150.2800 C   0  0  1  0  0  3  0  0  0  0  0  0
  161.1930  205.6110  149.9680 C   0  0  0  0  0  0  0  0  0  0  0  0
  161.4000  208.0200  149.1270 C   0  0  1  0  0  3  0  0  0  0  0  0
  160.7650  205.2650  148.6780 O   0  0  0  0  0  0  0  0  0  0  0  0
  160.7110  202.7810  149.4720 N   0  0  0  0  0  2  0  0  0  0  0  0
  160.9250  203.3240  150.7760 C   0  0  0  0  0  0  0  0  0  0  0  0
  160.8050  202.5870  151.7930 O   0  0  0  0  0  0  0  0  0  0  0  0
  160.3960  201.0750  147.7840 C   0  0  0  0  0  2  0  0  0  0  0  0
  161.5290  200.6440  148.6900 C   0  0  0  0  0  2  0  0  0  0  0  0
  160.3440  201.3900  149.2650 C   0  0  0  0  0  3  0  0  0  0  0  0
  162.6130  206.7840  152.9480 O   0  0  0  0  0  0  0  0  0  0  0  0
  160.9550  207.5060  151.4760 N   0  0  0  0  0  2  0  0  0  0  0  0
  161.4880  207.3340  152.7920 C   0  0  0  0  0  0  0  0  0  0  0  0
  160.7250  207.8150  153.9600 C   0  0  0  0  0  0  0  0  0  0  0  0
  160.4820  206.9710  154.9720 C   0  0  0  0  0  3  0  0  0  0  0  0
  160.4440  210.0560  155.0820 C   0  0  0  0  0  2  0  0  0  0  0  0
  160.1010  209.1800  153.8900 C   0  0  0  0  0  2  0  0  0  0  0  0
  159.5910  209.6540  156.2700 C   0  0  2  0  0  3  0  0  0  0  0  0
  159.5540  210.7980  157.2610 C   0  0  0  0  0  1  0  0  0  0  0  0
  160.1660  208.4850  156.9140 N   0  0  0  0  0  2  0  0  0  0  0  0
  159.8050  207.3430  156.1790 N   0  0  0  0  0  2  0  0  0  0  0  0
  162.3710  209.7510  150.5190 O   0  0  0  0  0  1  0  0  0  0  0  0
  162.3490  209.2240  149.2240 C   0  0  2  0  0  3  0  0  0  0  0  0
  161.9910  210.3270  148.2280 C   0  0  0  0  0  2  0  0  0  0  0  0
  162.7060  211.6340  148.5480 C   0  0  0  0  0  2  0  0  0  0  0  0
  161.7690  212.7410  148.4670 N   0  0  0  0  0  2  0  0  0  0  0  0
  157.6130  213.0950  147.7160 C   0  0  0  0  0  0  0  0  0  0  0  0
  157.0190  213.1070  146.3390 C   0  0  0  0  0  2  0  0  0  0  0  0
  161.2580  212.7500  147.1610 N   0  0  0  0  0  2  0  0  0  0  0  0
  158.0600  212.9850  145.2620 C   0  0  0  0  0  3  0  0  0  0  0  0
  159.3720  212.8740  145.5160 C   0  0  0  0  0  0  0  0  0  0  0  0
  159.8570  212.8690  146.9110 C   0  0  0  0  0  0  0  0  0  0  0  0
  159.0270  212.9730  147.9050 N   0  0  0  0  0  0  0  0  0  0  0  0
  156.8580  213.1940  148.7180 O   0  0  0  0  0  0  0  0  0  0  0  0
  160.1390  211.8760  143.3770 C   0  0  0  0  0  1  0  0  0  0  0  0
  160.3030  212.7620  144.4760 O   0  0  0  0  0  0  0  0  0  0  0  0
  1  6  1  0  0  0  0
  3  1  1  0  0  0  0
  3  7  1  0  0  0  0
  4 15  1  1  0  0  0
  5  4  1  0  0  0  0
  5  2  2  0  0  0  0
  6 26  1  6  0  0  0
  6  4  1  0  0  0  0
  7  5  1  0  0  0  0
  8  9  1  0  0  0  0
  9  2  1  0  0  0  0
  9 10  2  0  0  0  0
 11 12  1  0  0  0  0
 11 13  1  0  0  0  0
 12 13  1  0  0  0  0
 13  8  1  0  0  0  0
 15 16  1  0  0  0  0
 16 14  2  0  0  0  0
 16 17  1  0  0  0  0
 17 18  2  0  0  0  0
 18 24  1  0  0  0  0
 19 21  1  0  0  0  0
 20 17  1  0  0  0  0
 20 19  1  0  0  0  0
 21 23  1  0  0  0  0
 21 22  1  1  0  0  0
 24 23  1  0  0  0  0
 26 25  1  1  0  0  0
 27 28  1  0  0  0  0
 27 26  1  0  0  0  0
 29 28  1  0  0  0  0
 30 36  1  0  0  0  0
 30 37  2  0  0  0  0
 31 30  1  0  0  0  0
 32 29  1  0  0  0  0
 33 34  2  0  0  0  0
 33 31  1  0  0  0  0
 34 35  1  0  0  0  0
 35 32  1  0  0  0  0
 35 36  2  0  0  0  0
 38 39  1  0  0  0  0
 39 34  1  0  0  0  0
M  END
>  <MODEL>
4

>  <REMARK>
 VINA RESULT:      -6.8      2.743      8.391
  Name = 
  10 active torsions:
  status: ('A' for Active; 'I' for Inactive)
    1  A    between atoms: N_1  and  C_26
    2  A    between atoms: C_3  and  C_21
    3  A    between atoms: C_6  and  C_22
    4  A    between atoms: C_6  and  C_33
    5  A    between atoms: N_9  and  C_19
    6  A    between atoms: N_12  and  N_36
    7  A    between atoms: C_14  and  N_16
    8  A    between atoms: C_22  and  N_36
    9  A    between atoms: C_24  and  C_33
   10  A    between atoms: C_25  and  O_37
                            x       y       z     vdW  Elec       q    Type
                         _______ _______ _______ _____ _____    ______ ____

>  <TORSDO>
F 10

$$$$
=
 OpenBabel11042421213D

 39 42  0  0  1  0  0  0  0  0999 V2000
  161.5580  207.3620  147.6920 C   0  0  0  0  0  2  0  0  0  0  0  0
  161.3580  204.7580  150.8620 N   0  0  0  0  0  0  0  0  0  0  0  0
  160.5510  206.2310  147.6160 C   0  0  0  0  0  2  0  0  0  0  0  0
  161.6700  207.0720  150.2100 C   0  0  1  0  0  3  0  0  0  0  0  0
  161.2500  205.6470  149.9190 C   0  0  0  0  0  0  0  0  0  0  0  0
  161.4030  208.0490  149.0470 C   0  0  1  0  0  3  0  0  0  0  0  0
  160.8150  205.2770  148.6380 O   0  0  0  0  0  0  0  0  0  0  0  0
  160.7650  202.8140  149.4660 N   0  0  0  0  0  2  0  0  0  0  0  0
  161.0320  203.3650  150.7570 C   0  0  0  0  0  0  0  0  0  0  0  0
  160.9790  202.6290  151.7800 O   0  0  0  0  0  0  0  0  0  0  0  0
  160.3830  201.1020  147.7980 C   0  0  0  0  0  2  0  0  0  0  0  0
  161.5820  200.6970  148.6280 C   0  0  0  0  0  2  0  0  0  0  0  0
  160.4180  201.4140  149.2800 C   0  0  0  0  0  3  0  0  0  0  0  0
  162.6100  206.7540  152.8830 O   0  0  0  0  0  0  0  0  0  0  0  0
  160.9920  207.5550  151.4070 N   0  0  0  0  0  2  0  0  0  0  0  0
  161.5050  207.3430  152.7250 C   0  0  0  0  0  0  0  0  0  0  0  0
  160.7460  207.8290  153.8940 C   0  0  0  0  0  0  0  0  0  0  0  0
  160.4420  206.9700  154.8770 C   0  0  0  0  0  3  0  0  0  0  0  0
  160.5570  210.0490  155.0750 C   0  0  0  0  0  2  0  0  0  0  0  0
  160.1920  209.2260  153.8530 C   0  0  0  0  0  2  0  0  0  0  0  0
  159.6630  209.6570  156.2360 C   0  0  2  0  0  3  0  0  0  0  0  0
  159.6650  210.7730  157.2590 C   0  0  0  0  0  1  0  0  0  0  0  0
  160.1670  208.4430  156.8560 N   0  0  0  0  0  2  0  0  0  0  0  0
  159.7630  207.3420  156.0820 N   0  0  0  0  0  2  0  0  0  0  0  0
  162.4620  209.7330  150.4340 O   0  0  0  0  0  1  0  0  0  0  0  0
  162.3310  209.2720  149.1210 C   0  0  2  0  0  3  0  0  0  0  0  0
  161.8570  210.4140  148.2220 C   0  0  0  0  0  2  0  0  0  0  0  0
  162.6300  211.7000  148.4830 C   0  0  0  0  0  2  0  0  0  0  0  0
  161.8170  212.8460  148.1200 N   0  0  0  0  0  2  0  0  0  0  0  0
  157.6140  213.2930  147.8150 C   0  0  0  0  0  0  0  0  0  0  0  0
  156.7310  213.6320  148.9800 C   0  0  0  0  0  2  0  0  0  0  0  0
  161.0310  213.1600  149.2380 N   0  0  0  0  0  2  0  0  0  0  0  0
  157.5010  213.7870  150.2600 C   0  0  0  0  0  3  0  0  0  0  0  0
  158.8330  213.6430  150.3400 C   0  0  0  0  0  0  0  0  0  0  0  0
  159.6140  213.3110  149.1320 C   0  0  0  0  0  0  0  0  0  0  0  0
  159.0300  213.1560  147.9820 N   0  0  0  0  0  0  0  0  0  0  0  0
  157.1030  213.1300  146.6770 O   0  0  0  0  0  0  0  0  0  0  0  0
  159.3240  212.9230  152.6640 C   0  0  0  0  0  1  0  0  0  0  0  0
  159.5050  213.7980  151.5590 O   0  0  0  0  0  0  0  0  0  0  0  0
  1  6  1  0  0  0  0
  3  1  1  0  0  0  0
  3  7  1  0  0  0  0
  4 15  1  1  0  0  0
  5  4  1  0  0  0  0
  5  2  2  0  0  0  0
  6 26  1  6  0  0  0
  6  4  1  0  0  0  0
  7  5  1  0  0  0  0
  8  9  1  0  0  0  0
  9  2  1  0  0  0  0
  9 10  2  0  0  0  0
 11 12  1  0  0  0  0
 11 13  1  0  0  0  0
 12 13  1  0  0  0  0
 13  8  1  0  0  0  0
 15 16  1  0  0  0  0
 16 14  2  0  0  0  0
 16 17  1  0  0  0  0
 17 18  2  0  0  0  0
 18 24  1  0  0  0  0
 19 21  1  0  0  0  0
 20 17  1  0  0  0  0
 20 19  1  0  0  0  0
 21 23  1  0  0  0  0
 21 22  1  1  0  0  0
 24 23  1  0  0  0  0
 26 25  1  1  0  0  0
 27 28  1  0  0  0  0
 27 26  1  0  0  0  0
 29 28  1  0  0  0  0
 29 32  1  0  0  0  0
 30 36  1  0  0  0  0
 30 31  1  0  0  0  0
 31 33  1  0  0  0  0
 33 34  2  0  0  0  0
 34 39  1  0  0  0  0
 35 32  1  0  0  0  0
 35 34  1  0  0  0  0
 36 35  2  0  0  0  0
 37 30  2  0  0  0  0
 39 38  1  0  0  0  0
M  END
>  <MODEL>
5

>  <REMARK>
 VINA RESULT:      -6.7      2.502      7.612
  Name = 
  10 active torsions:
  status: ('A' for Active; 'I' for Inactive)
    1  A    between atoms: N_1  and  C_26
    2  A    between atoms: C_3  and  C_21
    3  A    between atoms: C_6  and  C_22
    4  A    between atoms: C_6  and  C_33
    5  A    between atoms: N_9  and  C_19
    6  A    between atoms: N_12  and  N_36
    7  A    between atoms: C_14  and  N_16
    8  A    between atoms: C_22  and  N_36
    9  A    between atoms: C_24  and  C_33
   10  A    between atoms: C_25  and  O_37
                            x       y       z     vdW  Elec       q    Type
                         _______ _______ _______ _____ _____    ______ ____

>  <TORSDO>
F 10

$$$$
=
 OpenBabel11042421213D

 39 42  0  0  1  0  0  0  0  0999 V2000
  160.6760  210.7460  153.3520 C   0  0  0  0  0  2  0  0  0  0  0  0
  162.0240  210.5530  149.4770 N   0  0  0  0  0  0  0  0  0  0  0  0
  160.0210  211.6530  152.3290 C   0  0  0  0  0  2  0  0  0  0  0  0
  161.5290  209.2700  151.4740 C   0  0  1  0  0  3  0  0  0  0  0  0
  161.4370  210.5280  150.6380 C   0  0  0  0  0  0  0  0  0  0  0  0
  160.7140  209.3300  152.7810 C   0  0  1  0  0  3  0  0  0  0  0  0
  160.7890  211.6690  151.1320 O   0  0  0  0  0  0  0  0  0  0  0  0
  160.9480  211.8770  147.6980 N   0  0  0  0  0  2  0  0  0  0  0  0
  162.0600  211.6610  148.5670 C   0  0  0  0  0  0  0  0  0  0  0  0
  163.0520  212.4390  148.5270 O   0  0  0  0  0  0  0  0  0  0  0  0
  160.0480  212.5800  145.5640 C   0  0  0  0  0  2  0  0  0  0  0  0
  159.4980  213.4950  146.6360 C   0  0  0  0  0  2  0  0  0  0  0  0
  160.9140  212.9720  146.7430 C   0  0  0  0  0  3  0  0  0  0  0  0
  163.2450  207.2800  150.3660 O   0  0  0  0  0  0  0  0  0  0  0  0
  161.0930  208.1200  150.6910 N   0  0  0  0  0  2  0  0  0  0  0  0
  162.0080  207.1660  150.1420 C   0  0  0  0  0  0  0  0  0  0  0  0
  161.4980  206.0460  149.3270 C   0  0  0  0  0  0  0  0  0  0  0  0
  161.5930  206.1140  147.9920 C   0  0  0  0  0  3  0  0  0  0  0  0
  161.2540  203.5640  149.6990 C   0  0  0  0  0  2  0  0  0  0  0  0
  160.7330  204.9530  150.0190 C   0  0  0  0  0  2  0  0  0  0  0  0
  160.7550  203.1380  148.3310 C   0  0  2  0  0  3  0  0  0  0  0  0
  160.8330  201.6300  148.2250 C   0  0  0  0  0  1  0  0  0  0  0  0
  161.5880  203.7310  147.2980 N   0  0  0  0  0  2  0  0  0  0  0  0
  161.1870  205.0640  147.1070 N   0  0  0  0  0  2  0  0  0  0  0  0
  161.6540  207.1460  153.2530 O   0  0  0  0  0  1  0  0  0  0  0  0
  161.2720  208.3590  153.8330 C   0  0  2  0  0  3  0  0  0  0  0  0
  160.2770  208.0960  154.9640 C   0  0  0  0  0  2  0  0  0  0  0  0
  160.9340  208.2070  156.3340 C   0  0  0  0  0  2  0  0  0  0  0  0
  160.6510  209.5080  156.9120 N   0  0  0  0  0  2  0  0  0  0  0  0
  159.4840  213.5600  156.4810 C   0  0  0  0  0  0  0  0  0  0  0  0
  158.1090  213.9850  156.0610 C   0  0  0  0  0  2  0  0  0  0  0  0
  159.3530  209.8590  156.5140 N   0  0  0  0  0  2  0  0  0  0  0  0
  157.1980  212.8170  155.8070 C   0  0  0  0  0  3  0  0  0  0  0  0
  157.5820  211.5390  155.9480 C   0  0  0  0  0  0  0  0  0  0  0  0
  158.9620  211.2250  156.3700 C   0  0  0  0  0  0  0  0  0  0  0  0
  159.8180  212.1730  156.6090 N   0  0  0  0  0  0  0  0  0  0  0  0
  160.3560  214.4340  156.7240 O   0  0  0  0  0  0  0  0  0  0  0  0
  155.4790  210.6460  154.9800 C   0  0  0  0  0  1  0  0  0  0  0  0
  156.6950  210.4850  155.6990 O   0  0  0  0  0  0  0  0  0  0  0  0
  2  5  2  0  0  0  0
  3  1  1  0  0  0  0
  4 15  1  6  0  0  0
  4  6  1  0  0  0  0
  5  7  1  0  0  0  0
  5  4  1  0  0  0  0
  6  1  1  0  0  0  0
  6 26  1  1  0  0  0
  7  3  1  0  0  0  0
  8  9  1  0  0  0  0
  9  2  1  0  0  0  0
 10  9  2  0  0  0  0
 11 12  1  0  0  0  0
 11 13  1  0  0  0  0
 12 13  1  0  0  0  0
 13  8  1  0  0  0  0
 16 14  2  0  0  0  0
 16 15  1  0  0  0  0
 17 20  1  0  0  0  0
 17 16  1  0  0  0  0
 18 17  2  0  0  0  0
 19 20  1  0  0  0  0
 21 22  1  1  0  0  0
 21 19  1  0  0  0  0
 23 21  1  0  0  0  0
 24 23  1  0  0  0  0
 24 18  1  0  0  0  0
 26 25  1  6  0  0  0
 26 27  1  0  0  0  0
 27 28  1  0  0  0  0
 28 29  1  0  0  0  0
 30 36  1  0  0  0  0
 30 37  2  0  0  0  0
 31 30  1  0  0  0  0
 32 29  1  0  0  0  0
 33 34  2  0  0  0  0
 33 31  1  0  0  0  0
 34 35  1  0  0  0  0
 35 32  1  0  0  0  0
 35 36  2  0  0  0  0
 38 39  1  0  0  0  0
 39 34  1  0  0  0  0
M  END
>  <MODEL>
6

>  <REMARK>
 VINA RESULT:      -6.7      0.924      2.006
  Name = 
  10 active torsions:
  status: ('A' for Active; 'I' for Inactive)
    1  A    between atoms: N_1  and  C_26
    2  A    between atoms: C_3  and  C_21
    3  A    between atoms: C_6  and  C_22
    4  A    between atoms: C_6  and  C_33
    5  A    between atoms: N_9  and  C_19
    6  A    between atoms: N_12  and  N_36
    7  A    between atoms: C_14  and  N_16
    8  A    between atoms: C_22  and  N_36
    9  A    between atoms: C_24  and  C_33
   10  A    between atoms: C_25  and  O_37
                            x       y       z     vdW  Elec       q    Type
                         _______ _______ _______ _____ _____    ______ ____

>  <TORSDO>
F 10

$$$$
=
 OpenBabel11042421213D

 39 42  0  0  1  0  0  0  0  0999 V2000
  160.9700  206.3430  153.8330 C   0  0  0  0  0  2  0  0  0  0  0  0
  161.7320  210.3260  154.4850 N   0  0  0  0  0  0  0  0  0  0  0  0
  160.0840  207.0810  154.8180 C   0  0  0  0  0  2  0  0  0  0  0  0
  161.6680  208.5620  152.8220 C   0  0  1  0  0  3  0  0  0  0  0  0
  161.3310  209.1250  154.1870 C   0  0  0  0  0  0  0  0  0  0  0  0
  161.0570  207.1720  152.5540 C   0  0  1  0  0  3  0  0  0  0  0  0
  160.6590  208.3420  155.1360 O   0  0  0  0  0  0  0  0  0  0  0  0
  160.3620  211.8210  155.8880 N   0  0  0  0  0  2  0  0  0  0  0  0
  161.5240  211.0050  155.7310 C   0  0  0  0  0  0  0  0  0  0  0  0
  162.3470  210.8910  156.6800 O   0  0  0  0  0  0  0  0  0  0  0  0
  159.4970  213.9000  156.7740 C   0  0  0  0  0  2  0  0  0  0  0  0
  158.5960  212.7750  157.2360 C   0  0  0  0  0  2  0  0  0  0  0  0
  160.0880  212.5470  157.1160 C   0  0  0  0  0  3  0  0  0  0  0  0
  163.3460  210.4160  151.4500 O   0  0  0  0  0  0  0  0  0  0  0  0
  161.2320  209.4860  151.7820 N   0  0  0  0  0  2  0  0  0  0  0  0
  162.1200  210.4100  151.1470 C   0  0  0  0  0  0  0  0  0  0  0  0
  161.6010  211.3420  150.1270 C   0  0  0  0  0  0  0  0  0  0  0  0
  160.7410  212.3010  150.4970 C   0  0  0  0  0  3  0  0  0  0  0  0
  162.5050  212.2720  147.9640 C   0  0  0  0  0  2  0  0  0  0  0  0
  161.9210  211.0690  148.6840 C   0  0  0  0  0  2  0  0  0  0  0  0
  161.3920  213.2370  147.6030 C   0  0  2  0  0  3  0  0  0  0  0  0
  161.8660  214.1430  146.4870 C   0  0  0  0  0  1  0  0  0  0  0  0
  161.0510  214.0480  148.7610 N   0  0  0  0  0  2  0  0  0  0  0  0
  160.2200  213.2950  149.6080 N   0  0  0  0  0  2  0  0  0  0  0  0
  162.9790  205.7840  152.0470 O   0  0  0  0  0  1  0  0  0  0  0  0
  161.8570  206.4060  151.4900 C   0  0  2  0  0  3  0  0  0  0  0  0
  162.2920  207.3050  150.3320 C   0  0  0  0  0  2  0  0  0  0  0  0
  161.2620  207.3230  149.2100 C   0  0  0  0  0  2  0  0  0  0  0  0
  160.4940  206.0900  149.2260 N   0  0  0  0  0  2  0  0  0  0  0  0
  160.7560  201.8650  149.4200 C   0  0  0  0  0  0  0  0  0  0  0  0
  161.2050  201.0100  148.2720 C   0  0  0  0  0  2  0  0  0  0  0  0
  160.9170  205.3310  148.1260 N   0  0  0  0  0  2  0  0  0  0  0  0
  161.5440  201.8170  147.0510 C   0  0  0  0  0  3  0  0  0  0  0  0
  161.4560  203.1550  147.0060 C   0  0  0  0  0  0  0  0  0  0  0  0
  161.0050  203.9070  148.1940 C   0  0  0  0  0  0  0  0  0  0  0  0
  160.6880  203.2900  149.2920 N   0  0  0  0  0  0  0  0  0  0  0  0
  160.4350  201.3220  150.5080 O   0  0  0  0  0  0  0  0  0  0  0  0
  160.8270  204.2270  144.8570 C   0  0  0  0  0  1  0  0  0  0  0  0
  161.7850  203.8620  145.8420 O   0  0  0  0  0  0  0  0  0  0  0  0
  1  3  1  0  0  0  0
  2  9  1  0  0  0  0
  3  7  1  0  0  0  0
  4 15  1  6  0  0  0
  4  5  1  0  0  0  0
  5  2  2  0  0  0  0
  5  7  1  0  0  0  0
  6 26  1  6  0  0  0
  6  4  1  0  0  0  0
  6  1  1  0  0  0  0
  8 13  1  0  0  0  0
  9  8  1  0  0  0  0
  9 10  2  0  0  0  0
 11 13  1  0  0  0  0
 11 12  1  0  0  0  0
 13 12  1  0  0  0  0
 16 14  2  0  0  0  0
 16 15  1  0  0  0  0
 17 18  2  0  0  0  0
 17 16  1  0  0  0  0
 19 20  1  0  0  0  0
 20 17  1  0  0  0  0
 21 22  1  6  0  0  0
 21 19  1  0  0  0  0
 21 23  1  0  0  0  0
 23 24  1  0  0  0  0
 24 18  1  0  0  0  0
 26 25  1  1  0  0  0
 27 26  1  0  0  0  0
 28 29  1  0  0  0  0
 28 27  1  0  0  0  0
 30 37  2  0  0  0  0
 31 30  1  0  0  0  0
 32 35  1  0  0  0  0
 32 29  1  0  0  0  0
 33 31  1  0  0  0  0
 34 33  2  0  0  0  0
 34 35  1  0  0  0  0
 35 36  2  0  0  0  0
 36 30  1  0  0  0  0
 38 39  1  0  0  0  0
 39 34  1  0  0  0  0
M  END
>  <MODEL>
7

>  <REMARK>
 VINA RESULT:      -6.5      2.342      9.036
  Name = 
  10 active torsions:
  status: ('A' for Active; 'I' for Inactive)
    1  A    between atoms: N_1  and  C_26
    2  A    between atoms: C_3  and  C_21
    3  A    between atoms: C_6  and  C_22
    4  A    between atoms: C_6  and  C_33
    5  A    between atoms: N_9  and  C_19
    6  A    between atoms: N_12  and  N_36
    7  A    between atoms: C_14  and  N_16
    8  A    between atoms: C_22  and  N_36
    9  A    between atoms: C_24  and  C_33
   10  A    between atoms: C_25  and  O_37
                            x       y       z     vdW  Elec       q    Type
                         _______ _______ _______ _____ _____    ______ ____

>  <TORSDO>
F 10

$$$$
=
 OpenBabel11042421213D

 39 42  0  0  1  0  0  0  0  0999 V2000
  161.5550  207.4910  147.8280 C   0  0  0  0  0  2  0  0  0  0  0  0
  161.3010  204.8890  150.9960 N   0  0  0  0  0  0  0  0  0  0  0  0
  160.5360  206.3710  147.7430 C   0  0  0  0  0  2  0  0  0  0  0  0
  161.6440  207.2000  150.3460 C   0  0  1  0  0  3  0  0  0  0  0  0
  161.2100  205.7790  150.0520 C   0  0  0  0  0  0  0  0  0  0  0  0
  161.3980  208.1790  149.1810 C   0  0  1  0  0  3  0  0  0  0  0  0
  160.7810  205.4150  148.7680 O   0  0  0  0  0  0  0  0  0  0  0  0
  160.6110  202.9720  149.6080 N   0  0  0  0  0  2  0  0  0  0  0  0
  160.9590  203.5000  150.8880 C   0  0  0  0  0  0  0  0  0  0  0  0
  160.9630  202.7480  151.9010 O   0  0  0  0  0  0  0  0  0  0  0  0
  160.4520  201.1980  147.9680 C   0  0  0  0  0  2  0  0  0  0  0  0
  161.4710  200.7920  149.0110 C   0  0  0  0  0  2  0  0  0  0  0  0
  160.2430  201.5780  149.4200 C   0  0  0  0  0  3  0  0  0  0  0  0
  162.5170  206.8000  153.0310 O   0  0  0  0  0  0  0  0  0  0  0  0
  160.9630  207.6910  151.5370 N   0  0  0  0  0  2  0  0  0  0  0  0
  161.4410  207.4370  152.8620 C   0  0  0  0  0  0  0  0  0  0  0  0
  160.6790  207.9340  154.0240 C   0  0  0  0  0  0  0  0  0  0  0  0
  160.4590  207.1130  155.0600 C   0  0  0  0  0  3  0  0  0  0  0  0
  160.3660  210.1980  155.0890 C   0  0  0  0  0  2  0  0  0  0  0  0
  160.0290  209.2860  153.9230 C   0  0  0  0  0  2  0  0  0  0  0  0
  159.5300  209.8130  156.2940 C   0  0  2  0  0  3  0  0  0  0  0  0
  159.4800  210.9820  157.2550 C   0  0  0  0  0  1  0  0  0  0  0  0
  160.1320  208.6710  156.9640 N   0  0  0  0  0  2  0  0  0  0  0  0
  159.7860  207.5040  156.2620 N   0  0  0  0  0  2  0  0  0  0  0  0
  162.4420  209.8690  150.5720 O   0  0  0  0  0  1  0  0  0  0  0  0
  162.3390  209.3910  149.2620 C   0  0  2  0  0  3  0  0  0  0  0  0
  161.9040  210.5260  148.3350 C   0  0  0  0  0  2  0  0  0  0  0  0
  162.9700  211.6090  148.2260 C   0  0  0  0  0  2  0  0  0  0  0  0
  162.3380  212.9080  148.0750 N   0  0  0  0  0  2  0  0  0  0  0  0
  162.8160  213.6050  143.9220 C   0  0  0  0  0  0  0  0  0  0  0  0
  161.7090  213.4460  142.9230 C   0  0  0  0  0  2  0  0  0  0  0  0
  161.2740  212.7430  147.1770 N   0  0  0  0  0  2  0  0  0  0  0  0
  160.4190  213.0080  143.5590 C   0  0  0  0  0  3  0  0  0  0  0  0
  160.2840  212.7920  144.8750 C   0  0  0  0  0  0  0  0  0  0  0  0
  161.4370  212.9800  145.7780 C   0  0  0  0  0  0  0  0  0  0  0  0
  162.5920  213.3540  145.3140 N   0  0  0  0  0  0  0  0  0  0  0  0
  163.9560  213.9650  143.5310 O   0  0  0  0  0  0  0  0  0  0  0  0
  158.1930  213.2600  146.1280 C   0  0  0  0  0  1  0  0  0  0  0  0
  159.0590  212.3840  145.4190 O   0  0  0  0  0  0  0  0  0  0  0  0
  1  6  1  0  0  0  0
  3  1  1  0  0  0  0
  3  7  1  0  0  0  0
  4 15  1  1  0  0  0
  5  4  1  0  0  0  0
  5  2  2  0  0  0  0
  6 26  1  6  0  0  0
  6  4  1  0  0  0  0
  7  5  1  0  0  0  0
  8  9  1  0  0  0  0
  9  2  1  0  0  0  0
  9 10  2  0  0  0  0
 11 12  1  0  0  0  0
 11 13  1  0  0  0  0
 12 13  1  0  0  0  0
 13  8  1  0  0  0  0
 15 16  1  0  0  0  0
 16 14  2  0  0  0  0
 16 17  1  0  0  0  0
 17 18  2  0  0  0  0
 18 24  1  0  0  0  0
 19 21  1  0  0  0  0
 20 17  1  0  0  0  0
 20 19  1  0  0  0  0
 21 23  1  0  0  0  0
 21 22  1  1  0  0  0
 24 23  1  0  0  0  0
 26 25  1  1  0  0  0
 27 26  1  0  0  0  0
 28 27  1  0  0  0  0
 29 28  1  0  0  0  0
 30 36  1  0  0  0  0
 31 33  1  0  0  0  0
 31 30  1  0  0  0  0
 32 29  1  0  0  0  0
 33 34  2  0  0  0  0
 34 39  1  0  0  0  0
 34 35  1  0  0  0  0
 35 32  1  0  0  0  0
 36 35  2  0  0  0  0
 37 30  2  0  0  0  0
 39 38  1  0  0  0  0
M  END
>  <MODEL>
8

>  <REMARK>
 VINA RESULT:      -6.4      2.796      9.080
  Name = 
  10 active torsions:
  status: ('A' for Active; 'I' for Inactive)
    1  A    between atoms: N_1  and  C_26
    2  A    between atoms: C_3  and  C_21
    3  A    between atoms: C_6  and  C_22
    4  A    between atoms: C_6  and  C_33
    5  A    between atoms: N_9  and  C_19
    6  A    between atoms: N_12  and  N_36
    7  A    between atoms: C_14  and  N_16
    8  A    between atoms: C_22  and  N_36
    9  A    between atoms: C_24  and  C_33
   10  A    between atoms: C_25  and  O_37
                            x       y       z     vdW  Elec       q    Type
                         _______ _______ _______ _____ _____    ______ ____

>  <TORSDO>
F 10

$$$$
=
 OpenBabel11042421213D

 39 42  0  0  1  0  0  0  0  0999 V2000
  161.4770  209.5610  152.7180 C   0  0  0  0  0  2  0  0  0  0  0  0
  162.0650  210.3430  148.7290 N   0  0  0  0  0  0  0  0  0  0  0  0
  160.6700  210.6820  152.0900 C   0  0  0  0  0  2  0  0  0  0  0  0
  161.9130  208.6030  150.4100 C   0  0  1  0  0  3  0  0  0  0  0  0
  161.7060  210.0270  149.9380 C   0  0  0  0  0  0  0  0  0  0  0  0
  161.3600  208.3300  151.8230 C   0  0  1  0  0  3  0  0  0  0  0  0
  161.2000  211.0020  150.8090 O   0  0  0  0  0  0  0  0  0  0  0  0
  160.9460  211.8740  147.1540 N   0  0  0  0  0  2  0  0  0  0  0  0
  161.9660  211.6410  148.1260 C   0  0  0  0  0  0  0  0  0  0  0  0
  162.7600  212.5690  148.4430 O   0  0  0  0  0  0  0  0  0  0  0  0
  160.2010  212.9420  145.1130 C   0  0  0  0  0  2  0  0  0  0  0  0
  159.3160  213.4140  146.2470 C   0  0  0  0  0  2  0  0  0  0  0  0
  160.7880  213.1590  146.4920 C   0  0  0  0  0  3  0  0  0  0  0  0
  163.2920  207.1840  148.3560 O   0  0  0  0  0  0  0  0  0  0  0  0
  161.3010  207.6740  149.4680 N   0  0  0  0  0  2  0  0  0  0  0  0
  162.0450  207.0090  148.4430 C   0  0  0  0  0  0  0  0  0  0  0  0
  161.3520  206.1090  147.5010 C   0  0  0  0  0  0  0  0  0  0  0  0
  160.9840  206.5790  146.3010 C   0  0  0  0  0  3  0  0  0  0  0  0
  161.3870  203.6210  147.0890 C   0  0  0  0  0  2  0  0  0  0  0  0
  160.9290  204.7520  147.9920 C   0  0  0  0  0  2  0  0  0  0  0  0
  160.4780  203.5390  145.8770 C   0  0  2  0  0  3  0  0  0  0  0  0
  160.5990  202.1610  145.2620 C   0  0  0  0  0  1  0  0  0  0  0  0
  160.8770  204.5350  144.8960 N   0  0  0  0  0  2  0  0  0  0  0  0
  160.3610  205.7830  145.2870 N   0  0  0  0  0  2  0  0  0  0  0  0
  163.0900  206.6380  151.6610 O   0  0  0  0  0  1  0  0  0  0  0  0
  162.0740  207.1390  152.4820 C   0  0  2  0  0  3  0  0  0  0  0  0
  161.1070  206.0120  152.8450 C   0  0  0  0  0  2  0  0  0  0  0  0
  160.4560  206.2400  154.2030 C   0  0  0  0  0  2  0  0  0  0  0  0
  161.2260  207.2090  154.9620 N   0  0  0  0  0  2  0  0  0  0  0  0
  162.6150  210.7020  156.9190 C   0  0  0  0  0  0  0  0  0  0  0  0
  161.7320  211.8660  157.2600 C   0  0  0  0  0  2  0  0  0  0  0  0
  160.3640  208.2750  155.2590 N   0  0  0  0  0  2  0  0  0  0  0  0
  160.3090  211.6560  156.8270 C   0  0  0  0  0  3  0  0  0  0  0  0
  159.8850  210.5440  156.2080 C   0  0  0  0  0  0  0  0  0  0  0  0
  160.8340  209.4510  155.9190 C   0  0  0  0  0  0  0  0  0  0  0  0
  162.0850  209.5480  156.2560 N   0  0  0  0  0  0  0  0  0  0  0  0
  163.8360  210.7410  157.2210 O   0  0  0  0  0  0  0  0  0  0  0  0
  157.5950  211.4500  155.8980 C   0  0  0  0  0  1  0  0  0  0  0  0
  158.5460  210.3960  155.8230 O   0  0  0  0  0  0  0  0  0  0  0  0
  2  5  2  0  0  0  0
  3  1  1  0  0  0  0
  4 15  1  6  0  0  0
  4  6  1  0  0  0  0
  5  4  1  0  0  0  0
  5  7  1  0  0  0  0
  6 26  1  1  0  0  0
  6  1  1  0  0  0  0
  7  3  1  0  0  0  0
  8  9  1  0  0  0  0
  9 10  2  0  0  0  0
  9  2  1  0  0  0  0
 11 12  1  0  0  0  0
 11 13  1  0  0  0  0
 12 13  1  0  0  0  0
 13  8  1  0  0  0  0
 14 16  2  0  0  0  0
 16 15  1  0  0  0  0
 17 20  1  0  0  0  0
 17 16  1  0  0  0  0
 18 17  2  0  0  0  0
 19 20  1  0  0  0  0
 21 22  1  6  0  0  0
 21 19  1  0  0  0  0
 23 24  1  0  0  0  0
 23 21  1  0  0  0  0
 24 18  1  0  0  0  0
 26 25  1  6  0  0  0
 26 27  1  0  0  0  0
 27 28  1  0  0  0  0
 28 29  1  0  0  0  0
 29 32  1  0  0  0  0
 30 37  2  0  0  0  0
 30 31  1  0  0  0  0
 32 35  1  0  0  0  0
 33 31  1  0  0  0  0
 34 33  2  0  0  0  0
 35 34  1  0  0  0  0
 35 36  2  0  0  0  0
 36 30  1  0  0  0  0
 39 38  1  0  0  0  0
 39 34  1  0  0  0  0
M  END
>  <MODEL>
9

>  <REMARK>
 VINA RESULT:      -6.2      2.191      3.280
  Name = 
  10 active torsions:
  status: ('A' for Active; 'I' for Inactive)
    1  A    between atoms: N_1  and  C_26
    2  A    between atoms: C_3  and  C_21
    3  A    between atoms: C_6  and  C_22
    4  A    between atoms: C_6  and  C_33
    5  A    between atoms: N_9  and  C_19
    6  A    between atoms: N_12  and  N_36
    7  A    between atoms: C_14  and  N_16
    8  A    between atoms: C_22  and  N_36
    9  A    between atoms: C_24  and  C_33
   10  A    between atoms: C_25  and  O_37
                            x       y       z     vdW  Elec       q    Type
                         _______ _______ _______ _____ _____    ______ ____

>  <TORSDO>
F 10

$$$$
