=
 OpenBabel11052410503D

 28 29  0  0  1  0  0  0  0  0999 V2000
  162.7480  206.7210  151.5090 C   0  0  1  0  0  3  0  0  0  0  0  0
  162.1040  205.8880  153.7700 O   0  0  0  0  0  1  0  0  0  0  0  0
  162.5990  207.9100  150.7900 O   0  0  0  0  0  1  0  0  0  0  0  0
  161.7380  206.6430  152.6530 C   0  0  2  0  0  0  0  0  0  0  0  0
  161.4920  205.8450  151.3810 C   0  0  2  0  0  0  0  0  0  0  0  0
  161.7100  204.0470  151.5220 S   0  0  0  0  0  3  0  0  0  0  0  0
  160.5490  203.6110  152.4050 O   0  0  0  0  0  0  0  0  0  0  0  0
  160.4280  206.3310  150.5970 O   0  0  0  0  0  0  0  0  0  0  0  0
  160.3090  205.4770  149.4950 C   0  0  0  0  0  2  0  0  0  0  0  0
  160.8030  206.1860  148.2480 C   0  0  0  0  0  2  0  0  0  0  0  0
  161.7270  205.2780  147.4530 C   0  0  1  0  0  3  0  0  0  0  0  0
  161.5570  203.8280  147.8800 C   0  0  0  0  0  1  0  0  0  0  0  0
  160.3130  206.2180  145.4750 C   0  0  0  0  0  1  0  0  0  0  0  0
  162.2660  204.8630  145.1490 N   0  0  0  0  0  2  0  0  0  0  0  0
  161.4730  205.4240  145.9840 C   0  0  0  0  0  0  0  0  0  0  0  0
  160.8260  207.7750  152.8620 N   0  0  0  0  0  2  0  0  0  0  0  0
  160.7640  208.2420  154.2570 C   0  0  1  0  0  3  0  0  0  0  0  0
  160.5750  211.0650  152.3510 N   0  0  0  0  0  2  0  0  0  0  0  0
  162.6930  210.2180  152.7830 O   0  0  0  0  0  0  0  0  0  0  0  0
  159.8100  210.4270  155.0170 C   0  0  0  0  0  3  0  0  0  0  0  0
  161.0560  209.7460  154.4880 C   0  0  1  0  0  0  0  0  0  0  0  0
  158.9780  211.1470  154.2630 C   0  0  0  0  0  3  0  0  0  0  0  0
  162.0700  209.9040  155.4350 O   0  0  0  0  0  1  0  0  0  0  0  0
  159.2830  211.3970  152.8530 C   0  0  0  0  0  0  0  0  0  0  0  0
  161.5060  210.3660  153.1790 C   0  0  0  0  0  0  0  0  0  0  0  0
  158.4450  212.0380  152.1110 N   0  0  0  0  0  2  0  0  0  0  0  0
  159.7230  207.5410  155.1470 C   0  0  0  0  0  2  0  0  0  0  0  0
  160.2760  207.1320  156.5010 C   0  0  0  0  0  1  0  0  0  0  0  0
  1  3  1  6  0  0  0
  1  4  1  0  0  0  0
  4 16  1  0  0  0  0
  4  2  1  1  0  0  0
  5  8  1  6  0  0  0
  5  1  1  0  0  0  0
  5  6  1  0  0  0  0
  5  4  1  0  0  0  0
  6  7  2  0  0  0  0
  9  8  1  0  0  0  0
 10  9  1  0  0  0  0
 11 12  1  1  0  0  0
 11 10  1  0  0  0  0
 13 15  1  0  0  0  0
 14 15  2  0  0  0  0
 15 11  1  0  0  0  0
 16 17  1  0  0  0  0
 17 21  1  0  0  0  0
 17 27  1  6  0  0  0
 18 24  1  0  0  0  0
 18 25  1  0  0  0  0
 19 25  2  0  0  0  0
 21 20  1  0  0  0  0
 21 23  1  1  0  0  0
 22 20  2  0  0  0  0
 24 22  1  0  0  0  0
 25 21  1  0  0  0  0
 26 24  2  0  0  0  0
 27 28  1  0  0  0  0
M  END
>  <MODEL>
1

>  <REMARK>
 VINA RESULT:      -6.4      0.000      0.000
  Name = 
  10 active torsions:
  status: ('A' for Active; 'I' for Inactive)
    1  A    between atoms: C_2  and  O_9
    2  A    between atoms: C_2  and  C_24
    3  A    between atoms: C_3  and  C_24
    4  A    between atoms: C_3  and  C_27
    5  A    between atoms: C_5  and  C_20
    6  A    between atoms: O_9  and  C_28
    7  A    between atoms: S_10  and  C_28
    8  A    between atoms: C_12  and  C_20
    9  A    between atoms: N_15  and  C_20
   10  A    between atoms: N_15  and  C_23
                            x       y       z     vdW  Elec       q    Type
                         _______ _______ _______ _____ _____    ______ ____

>  <TORSDO>
F 10

$$$$
=
 OpenBabel11052410503D

 28 29  0  0  1  0  0  0  0  0999 V2000
  162.7440  206.5960  151.5800 C   0  0  1  0  0  3  0  0  0  0  0  0
  161.9130  205.8730  153.8170 O   0  0  0  0  0  1  0  0  0  0  0  0
  162.6650  207.7520  150.7980 O   0  0  0  0  0  1  0  0  0  0  0  0
  161.6450  206.5780  152.6410 C   0  0  2  0  0  0  0  0  0  0  0  0
  161.4940  205.7230  151.3910 C   0  0  2  0  0  0  0  0  0  0  0  0
  161.6820  203.9330  151.6310 S   0  0  0  0  0  3  0  0  0  0  0  0
  160.4450  203.5440  152.4290 O   0  0  0  0  0  0  0  0  0  0  0  0
  160.5010  206.1800  150.5030 O   0  0  0  0  0  0  0  0  0  0  0  0
  160.4460  205.2640  149.4470 C   0  0  0  0  0  2  0  0  0  0  0  0
  160.9090  205.9370  148.1680 C   0  0  0  0  0  2  0  0  0  0  0  0
  161.6630  204.9480  147.2920 C   0  0  1  0  0  3  0  0  0  0  0  0
  161.5480  203.5380  147.8490 C   0  0  0  0  0  1  0  0  0  0  0  0
  160.3950  206.1820  145.3780 C   0  0  0  0  0  1  0  0  0  0  0  0
  161.3800  204.0120  145.0980 N   0  0  0  0  0  2  0  0  0  0  0  0
  161.1550  204.9980  145.8840 C   0  0  0  0  0  0  0  0  0  0  0  0
  160.7300  207.7240  152.7240 N   0  0  0  0  0  2  0  0  0  0  0  0
  160.8500  208.4940  153.9740 C   0  0  1  0  0  3  0  0  0  0  0  0
  159.6240  211.4950  155.0400 N   0  0  0  0  0  2  0  0  0  0  0  0
  159.3500  210.9750  152.7940 O   0  0  0  0  0  0  0  0  0  0  0  0
  162.2250  210.3400  154.9560 C   0  0  0  0  0  3  0  0  0  0  0  0
  161.2850  209.9750  153.8260 C   0  0  1  0  0  0  0  0  0  0  0  0
  161.8520  211.0090  156.0490 C   0  0  0  0  0  3  0  0  0  0  0  0
  161.9640  210.1630  152.6200 O   0  0  0  0  0  1  0  0  0  0  0  0
  160.4840  211.5160  156.1760 C   0  0  0  0  0  0  0  0  0  0  0  0
  160.0480  210.8520  153.8350 C   0  0  0  0  0  0  0  0  0  0  0  0
  160.1090  212.1050  157.2610 N   0  0  0  0  0  2  0  0  0  0  0  0
  159.8540  208.1190  155.0830 C   0  0  0  0  0  2  0  0  0  0  0  0
  160.5210  207.4990  156.2990 C   0  0  0  0  0  1  0  0  0  0  0  0
  1  3  1  6  0  0  0
  1  4  1  0  0  0  0
  4 16  1  0  0  0  0
  4  2  1  1  0  0  0
  5  8  1  6  0  0  0
  5  1  1  0  0  0  0
  5  6  1  0  0  0  0
  5  4  1  0  0  0  0
  6  7  2  0  0  0  0
  9  8  1  0  0  0  0
 10  9  1  0  0  0  0
 11 12  1  1  0  0  0
 11 10  1  0  0  0  0
 13 15  1  0  0  0  0
 14 15  2  0  0  0  0
 15 11  1  0  0  0  0
 16 17  1  0  0  0  0
 17 27  1  6  0  0  0
 18 24  1  0  0  0  0
 19 25  2  0  0  0  0
 20 22  2  0  0  0  0
 21 23  1  6  0  0  0
 21 25  1  0  0  0  0
 21 17  1  0  0  0  0
 21 20  1  0  0  0  0
 22 24  1  0  0  0  0
 24 26  2  0  0  0  0
 25 18  1  0  0  0  0
 27 28  1  0  0  0  0
M  END
>  <MODEL>
2

>  <REMARK>
 VINA RESULT:      -6.4      1.473      1.829
  Name = 
  10 active torsions:
  status: ('A' for Active; 'I' for Inactive)
    1  A    between atoms: C_2  and  O_9
    2  A    between atoms: C_2  and  C_24
    3  A    between atoms: C_3  and  C_24
    4  A    between atoms: C_3  and  C_27
    5  A    between atoms: C_5  and  C_20
    6  A    between atoms: O_9  and  C_28
    7  A    between atoms: S_10  and  C_28
    8  A    between atoms: C_12  and  C_20
    9  A    between atoms: N_15  and  C_20
   10  A    between atoms: N_15  and  C_23
                            x       y       z     vdW  Elec       q    Type
                         _______ _______ _______ _____ _____    ______ ____

>  <TORSDO>
F 10

$$$$
=
 OpenBabel11052410503D

 28 29  0  0  1  0  0  0  0  0999 V2000
  162.8260  204.5190  145.5810 C   0  0  1  0  0  3  0  0  0  0  0  0
  160.6330  203.3500  145.7950 O   0  0  0  0  0  1  0  0  0  0  0  0
  164.0280  204.5500  146.2930 O   0  0  0  0  0  1  0  0  0  0  0  0
  161.6880  203.9880  146.4520 C   0  0  2  0  0  0  0  0  0  0  0  0
  161.8020  205.4840  146.1980 C   0  0  2  0  0  0  0  0  0  0  0  0
  160.5510  206.1950  145.0890 S   0  0  0  0  0  3  0  0  0  0  0  0
  161.1050  205.9200  143.6970 O   0  0  0  0  0  0  0  0  0  0  0  0
  162.1960  206.2280  147.3270 O   0  0  0  0  0  0  0  0  0  0  0  0
  161.1510  207.1110  147.6190 C   0  0  0  0  0  2  0  0  0  0  0  0
  161.0850  207.3420  149.1180 C   0  0  0  0  0  2  0  0  0  0  0  0
  162.0820  208.4130  149.5320 C   0  0  1  0  0  3  0  0  0  0  0  0
  162.0000  209.6140  148.6020 C   0  0  0  0  0  1  0  0  0  0  0  0
  160.8660  208.1080  151.8170 C   0  0  0  0  0  1  0  0  0  0  0  0
  162.4930  209.8270  151.4300 N   0  0  0  0  0  2  0  0  0  0  0  0
  161.8430  208.8330  150.9500 C   0  0  0  0  0  0  0  0  0  0  0  0
  161.9930  203.5670  147.8250 N   0  0  0  0  0  2  0  0  0  0  0  0
  161.3420  202.3070  148.2210 C   0  0  1  0  0  3  0  0  0  0  0  0
  161.7370  202.6260  151.5950 N   0  0  0  0  0  2  0  0  0  0  0  0
  161.1270  200.5350  150.7930 O   0  0  0  0  0  0  0  0  0  0  0  0
  160.0010  203.8290  149.6870 C   0  0  0  0  0  3  0  0  0  0  0  0
  160.3850  202.3850  149.4380 C   0  0  1  0  0  0  0  0  0  0  0  0
  160.5590  204.5970  150.6240 C   0  0  0  0  0  3  0  0  0  0  0  0
  159.2160  201.6650  149.1830 O   0  0  0  0  0  1  0  0  0  0  0  0
  161.5460  204.0380  151.5500 C   0  0  0  0  0  0  0  0  0  0  0  0
  161.0770  201.7850  150.6470 C   0  0  0  0  0  0  0  0  0  0  0  0
  162.1310  204.7980  152.4120 N   0  0  0  0  0  2  0  0  0  0  0  0
  161.0060  201.3430  147.0710 C   0  0  0  0  0  2  0  0  0  0  0  0
  161.5940  199.9560  147.2660 C   0  0  0  0  0  1  0  0  0  0  0  0
  1  5  1  0  0  0  0
  1  3  1  1  0  0  0
  1  4  1  0  0  0  0
  4  2  1  6  0  0  0
  4 16  1  0  0  0  0
  5  6  1  6  0  0  0
  5  4  1  0  0  0  0
  5  8  1  0  0  0  0
  7  6  2  0  0  0  0
  8  9  1  0  0  0  0
  9 10  1  0  0  0  0
 10 11  1  0  0  0  0
 11 12  1  6  0  0  0
 11 15  1  0  0  0  0
 15 14  2  0  0  0  0
 15 13  1  0  0  0  0
 16 17  1  0  0  0  0
 17 27  1  6  0  0  0
 17 21  1  0  0  0  0
 20 22  2  0  0  0  0
 21 23  1  6  0  0  0
 21 20  1  0  0  0  0
 21 25  1  0  0  0  0
 22 24  1  0  0  0  0
 24 18  1  0  0  0  0
 24 26  2  0  0  0  0
 25 19  2  0  0  0  0
 25 18  1  0  0  0  0
 27 28  1  0  0  0  0
M  END
>  <MODEL>
3

>  <REMARK>
 VINA RESULT:      -5.5      3.918      7.630
  Name = 
  10 active torsions:
  status: ('A' for Active; 'I' for Inactive)
    1  A    between atoms: C_2  and  O_9
    2  A    between atoms: C_2  and  C_24
    3  A    between atoms: C_3  and  C_24
    4  A    between atoms: C_3  and  C_27
    5  A    between atoms: C_5  and  C_20
    6  A    between atoms: O_9  and  C_28
    7  A    between atoms: S_10  and  C_28
    8  A    between atoms: C_12  and  C_20
    9  A    between atoms: N_15  and  C_20
   10  A    between atoms: N_15  and  C_23
                            x       y       z     vdW  Elec       q    Type
                         _______ _______ _______ _____ _____    ______ ____

>  <TORSDO>
F 10

$$$$
=
 OpenBabel11052410503D

 28 29  0  0  1  0  0  0  0  0999 V2000
  161.1580  210.7570  155.1060 C   0  0  1  0  0  3  0  0  0  0  0  0
  159.6080  210.2620  156.9960 O   0  0  0  0  0  1  0  0  0  0  0  0
  161.0930  211.4700  153.9060 O   0  0  0  0  0  1  0  0  0  0  0  0
  159.7590  210.4140  155.6160 C   0  0  2  0  0  0  0  0  0  0  0  0
  160.5910  209.3400  154.9310 C   0  0  2  0  0  0  0  0  0  0  0  0
  161.2470  208.0380  156.0150 S   0  0  0  0  0  3  0  0  0  0  0  0
  160.0820  207.0670  156.1580 O   0  0  0  0  0  0  0  0  0  0  0  0
  160.1160  208.9750  153.6570 O   0  0  0  0  0  0  0  0  0  0  0  0
  161.0370  208.0640  153.1240 C   0  0  0  0  0  2  0  0  0  0  0  0
  161.3590  208.4490  151.6910 C   0  0  0  0  0  2  0  0  0  0  0  0
  162.1320  207.3330  151.0060 C   0  0  1  0  0  3  0  0  0  0  0  0
  162.3910  206.1850  151.9680 C   0  0  0  0  0  1  0  0  0  0  0  0
  160.5910  205.5850  149.8380 C   0  0  0  0  0  1  0  0  0  0  0  0
  161.4430  207.5240  148.7120 N   0  0  0  0  0  2  0  0  0  0  0  0
  161.3920  206.8460  149.7970 C   0  0  0  0  0  0  0  0  0  0  0  0
  158.5980  210.8830  154.8480 N   0  0  0  0  0  2  0  0  0  0  0  0
  157.7020  211.7730  155.6060 C   0  0  1  0  0  3  0  0  0  0  0  0
  156.3540  213.7520  153.1760 N   0  0  0  0  0  2  0  0  0  0  0  0
  158.6090  213.2340  152.9910 O   0  0  0  0  0  0  0  0  0  0  0  0
  156.6800  214.0240  155.9910 C   0  0  0  0  0  3  0  0  0  0  0  0
  157.7720  213.2800  155.2510 C   0  0  1  0  0  0  0  0  0  0  0  0
  155.5220  214.3900  155.4380 C   0  0  0  0  0  3  0  0  0  0  0  0
  159.0010  213.8140  155.6430 O   0  0  0  0  0  1  0  0  0  0  0  0
  155.2740  214.1580  154.0140 C   0  0  0  0  0  0  0  0  0  0  0  0
  157.6250  213.4380  153.7500 C   0  0  0  0  0  0  0  0  0  0  0  0
  154.1300  214.4530  153.4980 N   0  0  0  0  0  2  0  0  0  0  0  0
  156.3460  211.1650  156.0060 C   0  0  0  0  0  2  0  0  0  0  0  0
  155.6130  210.5260  154.8390 C   0  0  0  0  0  1  0  0  0  0  0  0
  1  3  1  6  0  0  0
  1  4  1  0  0  0  0
  4  2  1  1  0  0  0
  5  8  1  6  0  0  0
  5  1  1  0  0  0  0
  5  4  1  0  0  0  0
  5  6  1  0  0  0  0
  6  7  2  0  0  0  0
  9  8  1  0  0  0  0
 10  9  1  0  0  0  0
 11 10  1  0  0  0  0
 11 12  1  1  0  0  0
 14 15  2  0  0  0  0
 15 13  1  0  0  0  0
 15 11  1  0  0  0  0
 16 17  1  0  0  0  0
 16  4  1  0  0  0  0
 17 27  1  6  0  0  0
 18 25  1  0  0  0  0
 18 24  1  0  0  0  0
 19 25  2  0  0  0  0
 21 17  1  0  0  0  0
 21 23  1  1  0  0  0
 21 20  1  0  0  0  0
 22 20  2  0  0  0  0
 24 22  1  0  0  0  0
 25 21  1  0  0  0  0
 26 24  2  0  0  0  0
 28 27  1  0  0  0  0
M  END
>  <MODEL>
4

>  <REMARK>
 VINA RESULT:      -4.9      3.261      4.948
  Name = 
  10 active torsions:
  status: ('A' for Active; 'I' for Inactive)
    1  A    between atoms: C_2  and  O_9
    2  A    between atoms: C_2  and  C_24
    3  A    between atoms: C_3  and  C_24
    4  A    between atoms: C_3  and  C_27
    5  A    between atoms: C_5  and  C_20
    6  A    between atoms: O_9  and  C_28
    7  A    between atoms: S_10  and  C_28
    8  A    between atoms: C_12  and  C_20
    9  A    between atoms: N_15  and  C_20
   10  A    between atoms: N_15  and  C_23
                            x       y       z     vdW  Elec       q    Type
                         _______ _______ _______ _____ _____    ______ ____

>  <TORSDO>
F 10

$$$$
=
 OpenBabel11052410503D

 28 29  0  0  1  0  0  0  0  0999 V2000
  161.7260  210.5990  153.4330 C   0  0  1  0  0  3  0  0  0  0  0  0
  160.4370  211.6030  155.3170 O   0  0  0  0  0  1  0  0  0  0  0  0
  161.5890  210.5180  152.0440 O   0  0  0  0  0  1  0  0  0  0  0  0
  160.3890  210.9240  154.0970 C   0  0  2  0  0  0  0  0  0  0  0  0
  160.9130  209.4960  154.1270 C   0  0  2  0  0  0  0  0  0  0  0  0
  161.5100  208.9060  155.7380 S   0  0  0  0  0  3  0  0  0  0  0  0
  160.2310  208.6730  156.5320 O   0  0  0  0  0  0  0  0  0  0  0  0
  160.1870  208.6040  153.3140 O   0  0  0  0  0  0  0  0  0  0  0  0
  160.7380  207.3320  153.5110 C   0  0  0  0  0  2  0  0  0  0  0  0
  161.6880  207.0100  152.3720 C   0  0  0  0  0  2  0  0  0  0  0  0
  160.9080  206.6980  151.1040 C   0  0  1  0  0  3  0  0  0  0  0  0
  161.3420  207.6080  149.9670 C   0  0  0  0  0  1  0  0  0  0  0  0
  161.5490  204.2460  151.7120 C   0  0  0  0  0  1  0  0  0  0  0  0
  160.8200  204.8940  149.5200 N   0  0  0  0  0  2  0  0  0  0  0  0
  161.0820  205.2610  150.7190 C   0  0  0  0  0  0  0  0  0  0  0  0
  159.2140  211.1370  153.2420 N   0  0  0  0  0  2  0  0  0  0  0  0
  158.2320  212.0810  153.8020 C   0  0  1  0  0  3  0  0  0  0  0  0
  157.8940  213.5260  150.7300 N   0  0  0  0  0  2  0  0  0  0  0  0
  160.0390  213.3890  151.6060 O   0  0  0  0  0  0  0  0  0  0  0  0
  156.9080  214.1500  153.3260 C   0  0  0  0  0  3  0  0  0  0  0  0
  158.2890  213.5300  153.2570 C   0  0  1  0  0  0  0  0  0  0  0  0
  156.0820  214.2500  152.2830 C   0  0  0  0  0  3  0  0  0  0  0  0
  159.1510  214.3080  154.0320 O   0  0  0  0  0  1  0  0  0  0  0  0
  156.5180  213.8270  150.9510 C   0  0  0  0  0  0  0  0  0  0  0  0
  158.8050  213.4990  151.8310 C   0  0  0  0  0  0  0  0  0  0  0  0
  155.6960  213.8630  149.9570 N   0  0  0  0  0  2  0  0  0  0  0  0
  156.8660  211.4780  154.1690 C   0  0  0  0  0  2  0  0  0  0  0  0
  156.6990  211.2470  155.6610 C   0  0  0  0  0  1  0  0  0  0  0  0
  1  3  1  6  0  0  0
  1  4  1  0  0  0  0
  1  5  1  0  0  0  0
  4  5  1  0  0  0  0
  4  2  1  1  0  0  0
  5  8  1  6  0  0  0
  5  6  1  0  0  0  0
  6  7  2  0  0  0  0
  8  9  1  0  0  0  0
 10  9  1  0  0  0  0
 11 12  1  6  0  0  0
 11 10  1  0  0  0  0
 14 15  2  0  0  0  0
 15 11  1  0  0  0  0
 15 13  1  0  0  0  0
 16 17  1  0  0  0  0
 16  4  1  0  0  0  0
 17 27  1  6  0  0  0
 18 24  1  0  0  0  0
 18 25  1  0  0  0  0
 19 25  2  0  0  0  0
 21 20  1  0  0  0  0
 21 17  1  0  0  0  0
 21 23  1  1  0  0  0
 22 20  2  0  0  0  0
 24 22  1  0  0  0  0
 25 21  1  0  0  0  0
 26 24  2  0  0  0  0
 27 28  1  0  0  0  0
M  END
>  <MODEL>
5

>  <REMARK>
 VINA RESULT:      -4.7      2.955      4.800
  Name = 
  10 active torsions:
  status: ('A' for Active; 'I' for Inactive)
    1  A    between atoms: C_2  and  O_9
    2  A    between atoms: C_2  and  C_24
    3  A    between atoms: C_3  and  C_24
    4  A    between atoms: C_3  and  C_27
    5  A    between atoms: C_5  and  C_20
    6  A    between atoms: O_9  and  C_28
    7  A    between atoms: S_10  and  C_28
    8  A    between atoms: C_12  and  C_20
    9  A    between atoms: N_15  and  C_20
   10  A    between atoms: N_15  and  C_23
                            x       y       z     vdW  Elec       q    Type
                         _______ _______ _______ _____ _____    ______ ____

>  <TORSDO>
F 10

$$$$
=
 OpenBabel11052410503D

 28 29  0  0  1  0  0  0  0  0999 V2000
  161.1050  206.5740  146.7000 C   0  0  1  0  0  3  0  0  0  0  0  0
  162.9450  207.2350  148.2480 O   0  0  0  0  0  1  0  0  0  0  0  0
  159.7090  206.5280  146.7520 O   0  0  0  0  0  1  0  0  0  0  0  0
  161.7030  206.6120  148.1060 C   0  0  2  0  0  0  0  0  0  0  0  0
  161.7160  205.3080  147.3210 C   0  0  2  0  0  0  0  0  0  0  0  0
  163.3380  204.7740  146.7020 S   0  0  0  0  0  3  0  0  0  0  0  0
  163.0520  204.3390  145.2710 O   0  0  0  0  0  0  0  0  0  0  0  0
  160.8350  204.3310  147.8220 O   0  0  0  0  0  0  0  0  0  0  0  0
  161.5810  203.1590  147.9950 C   0  0  0  0  0  2  0  0  0  0  0  0
  160.7160  201.9550  147.6730 C   0  0  0  0  0  2  0  0  0  0  0  0
  161.2000  201.2810  146.3990 C   0  0  1  0  0  3  0  0  0  0  0  0
  161.3320  199.7800  146.5990 C   0  0  0  0  0  1  0  0  0  0  0  0
  159.9960  202.9830  144.8330 C   0  0  0  0  0  1  0  0  0  0  0  0
  159.7060  200.6090  144.6420 N   0  0  0  0  0  2  0  0  0  0  0  0
  160.2700  201.5770  145.2610 C   0  0  0  0  0  0  0  0  0  0  0  0
  160.7910  206.6350  149.2560 N   0  0  0  0  0  2  0  0  0  0  0  0
  161.3000  205.9150  150.4360 C   0  0  1  0  0  3  0  0  0  0  0  0
  160.7460  208.2900  152.8220 N   0  0  0  0  0  2  0  0  0  0  0  0
  161.6520  209.0030  150.8060 O   0  0  0  0  0  0  0  0  0  0  0  0
  162.3770  205.9600  152.6940 C   0  0  0  0  0  3  0  0  0  0  0  0
  162.1940  206.7310  151.4030 C   0  0  1  0  0  0  0  0  0  0  0  0
  161.6900  206.2050  153.8110 C   0  0  0  0  0  3  0  0  0  0  0  0
  163.4560  206.9370  150.8400 O   0  0  0  0  0  1  0  0  0  0  0  0
  160.7530  207.3280  153.8740 C   0  0  0  0  0  0  0  0  0  0  0  0
  161.5440  208.0780  151.6550 C   0  0  0  0  0  0  0  0  0  0  0  0
  160.0430  207.5220  154.9330 N   0  0  0  0  0  2  0  0  0  0  0  0
  160.3610  204.8440  151.0170 C   0  0  0  0  0  2  0  0  0  0  0  0
  161.0490  203.5100  151.2470 C   0  0  0  0  0  1  0  0  0  0  0  0
  1  3  1  1  0  0  0
  1  5  1  0  0  0  0
  1  4  1  0  0  0  0
  4  2  1  1  0  0  0
  4 16  1  0  0  0  0
  5  6  1  6  0  0  0
  5  8  1  0  0  0  0
  5  4  1  0  0  0  0
  7  6  2  0  0  0  0
  8  9  1  0  0  0  0
 10  9  1  0  0  0  0
 11 12  1  1  0  0  0
 11 10  1  0  0  0  0
 13 15  1  0  0  0  0
 14 15  2  0  0  0  0
 15 11  1  0  0  0  0
 16 17  1  0  0  0  0
 17 27  1  1  0  0  0
 17 21  1  0  0  0  0
 18 24  1  0  0  0  0
 19 25  2  0  0  0  0
 20 22  2  0  0  0  0
 21 23  1  6  0  0  0
 21 25  1  0  0  0  0
 21 20  1  0  0  0  0
 22 24  1  0  0  0  0
 24 26  2  0  0  0  0
 25 18  1  0  0  0  0
 27 28  1  0  0  0  0
M  END
>  <MODEL>
6

>  <REMARK>
 VINA RESULT:      -4.7      2.871      4.719
  Name = 
  10 active torsions:
  status: ('A' for Active; 'I' for Inactive)
    1  A    between atoms: C_2  and  O_9
    2  A    between atoms: C_2  and  C_24
    3  A    between atoms: C_3  and  C_24
    4  A    between atoms: C_3  and  C_27
    5  A    between atoms: C_5  and  C_20
    6  A    between atoms: O_9  and  C_28
    7  A    between atoms: S_10  and  C_28
    8  A    between atoms: C_12  and  C_20
    9  A    between atoms: N_15  and  C_20
   10  A    between atoms: N_15  and  C_23
                            x       y       z     vdW  Elec       q    Type
                         _______ _______ _______ _____ _____    ______ ____

>  <TORSDO>
F 10

$$$$
=
 OpenBabel11052410503D

 28 29  0  0  1  0  0  0  0  0999 V2000
  162.6590  206.8160  151.3340 C   0  0  1  0  0  3  0  0  0  0  0  0
  162.0660  206.1750  153.6710 O   0  0  0  0  0  1  0  0  0  0  0  0
  162.3710  207.8790  150.4740 O   0  0  0  0  0  1  0  0  0  0  0  0
  161.6350  206.7340  152.4650 C   0  0  2  0  0  0  0  0  0  0  0  0
  161.5400  205.7640  151.2960 C   0  0  2  0  0  0  0  0  0  0  0  0
  161.9980  204.0450  151.6580 S   0  0  0  0  0  3  0  0  0  0  0  0
  160.8000  203.5070  152.4280 O   0  0  0  0  0  0  0  0  0  0  0  0
  160.4440  206.0010  150.4440 O   0  0  0  0  0  0  0  0  0  0  0  0
  160.3680  204.9140  149.5660 C   0  0  0  0  0  2  0  0  0  0  0  0
  160.8730  205.3320  148.1970 C   0  0  0  0  0  2  0  0  0  0  0  0
  161.7120  204.2230  147.5820 C   0  0  1  0  0  3  0  0  0  0  0  0
  161.3040  202.8670  148.1360 C   0  0  0  0  0  1  0  0  0  0  0  0
  161.9650  205.4430  145.2920 C   0  0  0  0  0  1  0  0  0  0  0  0
  161.1540  203.1940  145.4840 N   0  0  0  0  0  2  0  0  0  0  0  0
  161.5870  204.2360  146.0880 C   0  0  0  0  0  0  0  0  0  0  0  0
  160.5700  207.7440  152.5220 N   0  0  0  0  0  2  0  0  0  0  0  0
  160.8420  208.8460  153.4600 C   0  0  1  0  0  3  0  0  0  0  0  0
  161.2560  210.4050  156.4670 N   0  0  0  0  0  2  0  0  0  0  0  0
  162.0650  208.2370  156.2760 O   0  0  0  0  0  0  0  0  0  0  0  0
  158.9830  209.6580  154.9260 C   0  0  0  0  0  3  0  0  0  0  0  0
  160.1810  208.7330  154.8580 C   0  0  1  0  0  0  0  0  0  0  0  0
  159.0000  210.8580  155.5080 C   0  0  0  0  0  3  0  0  0  0  0  0
  159.7330  207.4290  155.0800 O   0  0  0  0  0  1  0  0  0  0  0  0
  160.1970  211.3240  156.2100 C   0  0  0  0  0  0  0  0  0  0  0  0
  161.2080  209.0860  155.9160 C   0  0  0  0  0  0  0  0  0  0  0  0
  160.2330  212.5100  156.7150 N   0  0  0  0  0  2  0  0  0  0  0  0
  162.2350  209.4870  153.3460 C   0  0  0  0  0  2  0  0  0  0  0  0
  162.2780  210.6490  152.3690 C   0  0  0  0  0  1  0  0  0  0  0  0
  1  3  1  6  0  0  0
  1  4  1  0  0  0  0
  4 16  1  0  0  0  0
  4  2  1  1  0  0  0
  5  8  1  6  0  0  0
  5  1  1  0  0  0  0
  5  6  1  0  0  0  0
  5  4  1  0  0  0  0
  6  7  2  0  0  0  0
  9  8  1  0  0  0  0
 10  9  1  0  0  0  0
 11 12  1  1  0  0  0
 11 10  1  0  0  0  0
 13 15  1  0  0  0  0
 14 15  2  0  0  0  0
 15 11  1  0  0  0  0
 16 17  1  0  0  0  0
 17 27  1  1  0  0  0
 17 21  1  0  0  0  0
 20 22  2  0  0  0  0
 21 20  1  0  0  0  0
 21 23  1  1  0  0  0
 21 25  1  0  0  0  0
 22 24  1  0  0  0  0
 24 18  1  0  0  0  0
 24 26  2  0  0  0  0
 25 19  2  0  0  0  0
 25 18  1  0  0  0  0
 28 27  1  0  0  0  0
M  END
>  <MODEL>
7

>  <REMARK>
 VINA RESULT:      -4.7      1.703      2.373
  Name = 
  10 active torsions:
  status: ('A' for Active; 'I' for Inactive)
    1  A    between atoms: C_2  and  O_9
    2  A    between atoms: C_2  and  C_24
    3  A    between atoms: C_3  and  C_24
    4  A    between atoms: C_3  and  C_27
    5  A    between atoms: C_5  and  C_20
    6  A    between atoms: O_9  and  C_28
    7  A    between atoms: S_10  and  C_28
    8  A    between atoms: C_12  and  C_20
    9  A    between atoms: N_15  and  C_20
   10  A    between atoms: N_15  and  C_23
                            x       y       z     vdW  Elec       q    Type
                         _______ _______ _______ _____ _____    ______ ____

>  <TORSDO>
F 10

$$$$
=
 OpenBabel11052410503D

 28 29  0  0  1  0  0  0  0  0999 V2000
  160.9020  211.0310  155.1970 C   0  0  1  0  0  3  0  0  0  0  0  0
  159.3360  210.5520  157.0780 O   0  0  0  0  0  1  0  0  0  0  0  0
  160.8550  211.7550  154.0030 O   0  0  0  0  0  1  0  0  0  0  0  0
  159.4950  210.7130  155.7000 C   0  0  2  0  0  0  0  0  0  0  0  0
  160.3080  209.6270  155.0090 C   0  0  2  0  0  0  0  0  0  0  0  0
  160.9340  208.3040  156.0840 S   0  0  0  0  0  3  0  0  0  0  0  0
  159.7030  207.4530  156.3630 O   0  0  0  0  0  0  0  0  0  0  0  0
  159.8300  209.2820  153.7300 O   0  0  0  0  0  0  0  0  0  0  0  0
  160.5530  208.1580  153.3140 C   0  0  0  0  0  2  0  0  0  0  0  0
  161.1890  208.4350  151.9640 C   0  0  0  0  0  2  0  0  0  0  0  0
  161.8850  207.1890  151.4410 C   0  0  1  0  0  3  0  0  0  0  0  0
  161.5440  205.9810  152.2980 C   0  0  0  0  0  1  0  0  0  0  0  0
  160.8640  205.6580  149.5950 C   0  0  0  0  0  1  0  0  0  0  0  0
  161.7480  207.8400  149.1330 N   0  0  0  0  0  2  0  0  0  0  0  0
  161.5130  206.9380  150.0120 C   0  0  0  0  0  0  0  0  0  0  0  0
  158.3460  211.2110  154.9330 N   0  0  0  0  0  2  0  0  0  0  0  0
  157.3410  211.9100  155.7500 C   0  0  1  0  0  3  0  0  0  0  0  0
  158.6200  214.1130  153.4810 N   0  0  0  0  0  2  0  0  0  0  0  0
  159.3650  214.2960  155.6720 O   0  0  0  0  0  0  0  0  0  0  0  0
  155.9990  213.5760  154.4510 C   0  0  0  0  0  3  0  0  0  0  0  0
  157.1340  213.4150  155.4410 C   0  0  1  0  0  0  0  0  0  0  0  0
  156.1730  213.7740  153.1430 C   0  0  0  0  0  3  0  0  0  0  0  0
  156.7930  214.1070  156.6050 O   0  0  0  0  0  1  0  0  0  0  0  0
  157.5200  213.9380  152.5920 C   0  0  0  0  0  0  0  0  0  0  0  0
  158.4270  213.9850  154.8920 C   0  0  0  0  0  0  0  0  0  0  0  0
  157.6890  214.0640  151.3200 N   0  0  0  0  0  2  0  0  0  0  0  0
  156.1280  211.0660  156.1780 C   0  0  0  0  0  2  0  0  0  0  0  0
  155.4710  210.3380  155.0190 C   0  0  0  0  0  1  0  0  0  0  0  0
  1  3  1  6  0  0  0
  1  4  1  0  0  0  0
  4  2  1  1  0  0  0
  5  8  1  6  0  0  0
  5  1  1  0  0  0  0
  5  4  1  0  0  0  0
  5  6  1  0  0  0  0
  6  7  2  0  0  0  0
  9  8  1  0  0  0  0
 10  9  1  0  0  0  0
 11 10  1  0  0  0  0
 11 12  1  1  0  0  0
 13 15  1  0  0  0  0
 14 15  2  0  0  0  0
 15 11  1  0  0  0  0
 16  4  1  0  0  0  0
 16 17  1  0  0  0  0
 17 27  1  6  0  0  0
 18 25  1  0  0  0  0
 20 21  1  0  0  0  0
 21 17  1  0  0  0  0
 21 23  1  1  0  0  0
 22 20  2  0  0  0  0
 24 22  1  0  0  0  0
 24 18  1  0  0  0  0
 25 21  1  0  0  0  0
 25 19  2  0  0  0  0
 26 24  2  0  0  0  0
 28 27  1  0  0  0  0
M  END
>  <MODEL>
8

>  <REMARK>
 VINA RESULT:      -4.5      3.211      5.067
  Name = 
  10 active torsions:
  status: ('A' for Active; 'I' for Inactive)
    1  A    between atoms: C_2  and  O_9
    2  A    between atoms: C_2  and  C_24
    3  A    between atoms: C_3  and  C_24
    4  A    between atoms: C_3  and  C_27
    5  A    between atoms: C_5  and  C_20
    6  A    between atoms: O_9  and  C_28
    7  A    between atoms: S_10  and  C_28
    8  A    between atoms: C_12  and  C_20
    9  A    between atoms: N_15  and  C_20
   10  A    between atoms: N_15  and  C_23
                            x       y       z     vdW  Elec       q    Type
                         _______ _______ _______ _____ _____    ______ ____

>  <TORSDO>
F 10

$$$$
=
 OpenBabel11052410503D

 28 29  0  0  1  0  0  0  0  0999 V2000
  161.6690  209.7600  156.3610 C   0  0  1  0  0  3  0  0  0  0  0  0
  159.3100  210.3810  156.8810 O   0  0  0  0  0  1  0  0  0  0  0  0
  162.7320  210.3310  155.6560 O   0  0  0  0  0  1  0  0  0  0  0  0
  160.3370  210.3730  155.9340 C   0  0  2  0  0  0  0  0  0  0  0  0
  160.7310  208.9990  155.4130 C   0  0  2  0  0  0  0  0  0  0  0  0
  159.8040  207.5970  156.1020 S   0  0  0  0  0  3  0  0  0  0  0  0
  160.7600  207.0010  157.1260 O   0  0  0  0  0  0  0  0  0  0  0  0
  161.0560  208.9780  154.0430 O   0  0  0  0  0  0  0  0  0  0  0  0
  160.8500  207.6690  153.5940 C   0  0  0  0  0  2  0  0  0  0  0  0
  161.8180  207.3600  152.4670 C   0  0  0  0  0  2  0  0  0  0  0  0
  161.2180  207.7630  151.1290 C   0  0  1  0  0  3  0  0  0  0  0  0
  162.0500  208.8510  150.4700 C   0  0  0  0  0  1  0  0  0  0  0  0
  161.1910  205.1820  150.7640 C   0  0  0  0  0  1  0  0  0  0  0  0
  160.9190  206.7520  148.9700 N   0  0  0  0  0  2  0  0  0  0  0  0
  161.1030  206.5730  150.2250 C   0  0  0  0  0  0  0  0  0  0  0  0
  160.3480  211.4450  154.9290 N   0  0  0  0  0  2  0  0  0  0  0  0
  159.7960  212.7220  155.4120 C   0  0  1  0  0  3  0  0  0  0  0  0
  157.1330  211.1800  153.9370 N   0  0  0  0  0  2  0  0  0  0  0  0
  158.6580  212.2330  152.5380 O   0  0  0  0  0  0  0  0  0  0  0  0
  157.3970  213.3280  155.7870 C   0  0  0  0  0  3  0  0  0  0  0  0
  158.4840  213.1990  154.7390 C   0  0  1  0  0  0  0  0  0  0  0  0
  156.4500  212.4120  155.9950 C   0  0  0  0  0  3  0  0  0  0  0  0
  158.6680  214.4510  154.1500 O   0  0  0  0  0  1  0  0  0  0  0  0
  156.3580  211.2330  155.1320 C   0  0  0  0  0  0  0  0  0  0  0  0
  158.0940  212.2030  153.6640 C   0  0  0  0  0  0  0  0  0  0  0  0
  155.4820  210.3170  155.3760 N   0  0  0  0  0  2  0  0  0  0  0  0
  160.0150  213.0170  156.9060 C   0  0  0  0  0  2  0  0  0  0  0  0
  160.4570  214.4460  157.1710 C   0  0  0  0  0  1  0  0  0  0  0  0
  1  3  1  6  0  0  0
  4  1  1  0  0  0  0
  4  2  1  1  0  0  0
  5  8  1  6  0  0  0
  5  4  1  0  0  0  0
  5  6  1  0  0  0  0
  5  1  1  0  0  0  0
  6  7  2  0  0  0  0
  9  8  1  0  0  0  0
 10  9  1  0  0  0  0
 11 12  1  6  0  0  0
 11 10  1  0  0  0  0
 14 15  2  0  0  0  0
 15 13  1  0  0  0  0
 15 11  1  0  0  0  0
 16 17  1  0  0  0  0
 16  4  1  0  0  0  0
 17 27  1  1  0  0  0
 18 24  1  0  0  0  0
 19 25  2  0  0  0  0
 20 22  2  0  0  0  0
 21 23  1  6  0  0  0
 21 17  1  0  0  0  0
 21 20  1  0  0  0  0
 24 26  2  0  0  0  0
 24 22  1  0  0  0  0
 25 18  1  0  0  0  0
 25 21  1  0  0  0  0
 27 28  1  0  0  0  0
M  END
>  <MODEL>
9

>  <REMARK>
 VINA RESULT:      -4.5      3.078      5.001
  Name = 
  10 active torsions:
  status: ('A' for Active; 'I' for Inactive)
    1  A    between atoms: C_2  and  O_9
    2  A    between atoms: C_2  and  C_24
    3  A    between atoms: C_3  and  C_24
    4  A    between atoms: C_3  and  C_27
    5  A    between atoms: C_5  and  C_20
    6  A    between atoms: O_9  and  C_28
    7  A    between atoms: S_10  and  C_28
    8  A    between atoms: C_12  and  C_20
    9  A    between atoms: N_15  and  C_20
   10  A    between atoms: N_15  and  C_23
                            x       y       z     vdW  Elec       q    Type
                         _______ _______ _______ _____ _____    ______ ____

>  <TORSDO>
F 10

$$$$
