=
 OpenBabel11052411023D

 37 42  0  0  1  0  0  0  0  0999 V2000
  161.6960  210.9840  155.4450 N   0  0  0  0  0  2  0  0  0  0  0  0
  160.7980  209.9510  153.4570 C   0  0  1  0  0  0  0  0  0  0  0  0
  159.9180  209.5960  154.6400 C   0  0  0  0  0  2  0  0  0  0  0  0
  160.7020  210.0150  155.8690 C   0  0  0  0  0  2  0  0  0  0  0  0
  162.0160  210.6260  154.0720 C   0  0  0  0  0  2  0  0  0  0  0  0
  161.8160  206.9810  148.7680 C   0  0  0  0  0  3  0  0  0  0  0  0
  161.0260  204.3450  149.6340 C   0  0  0  0  0  0  0  0  0  0  0  0
  161.0740  204.6610  148.1540 C   0  0  1  0  0  3  0  0  0  0  0  0
  161.4960  206.6500  152.3370 C   0  0  0  0  0  0  0  0  0  0  0  0
  161.4730  206.0920  147.8130 C   0  0  0  0  0  0  0  0  0  0  0  0
  161.9020  207.3640  151.2940 C   0  0  0  0  0  0  0  0  0  0  0  0
  161.1880  208.6740  152.7480 C   0  0  0  0  0  0  0  0  0  0  0  0
  160.9980  207.4360  153.3010 N   0  0  0  0  0  0  0  0  0  0  0  0
  161.8090  206.5790  150.1840 C   0  0  0  0  0  0  0  0  0  0  0  0
  161.6950  208.6670  151.4770 N   0  0  0  0  0  2  0  0  0  0  0  0
  161.3830  205.3610  150.5840 N   0  0  0  0  0  0  0  0  0  0  0  0
  161.1220  205.3870  151.9210 C   0  0  0  0  0  3  0  0  0  0  0  0
  160.6470  203.2080  150.0120 O   0  0  0  0  0  0  0  0  0  0  0  0
  161.9540  203.7270  147.4580 N   0  0  0  0  0  1  0  0  0  0  0  0
  161.4480  206.4700  146.4590 O   0  0  0  0  0  0  0  0  0  0  0  0
  160.3410  206.2380  145.6030 C   0  0  0  0  0  1  0  0  0  0  0  0
  160.7670  211.4220  151.5920 O   0  0  0  0  0  0  0  0  0  0  0  0
  160.1310  210.9480  152.5220 C   0  0  0  0  0  0  0  0  0  0  0  0
  158.7360  211.4660  152.8280 C   0  0  2  0  0  3  0  0  0  0  0  0
  158.4050  212.8340  152.2250 C   0  0  1  0  0  3  0  0  0  0  0  0
  158.7340  212.7090  153.7010 C   0  0  0  0  0  2  0  0  0  0  0  0
  159.5310  213.4580  151.5320 N   0  0  0  0  0  2  0  0  0  0  0  0
  158.9530  214.3100  150.5080 C   0  0  0  0  0  2  0  0  0  0  0  0
  159.8900  214.3690  149.3100 C   0  0  0  0  0  2  0  0  0  0  0  0
  162.4830  213.6360  148.4760 O   0  0  0  0  0  0  0  0  0  0  0  0
  161.6920  211.2720  148.0460 O   0  0  0  0  0  0  0  0  0  0  0  0
  161.3890  212.7410  147.9600 S   0  0  0  0  0  0  0  0  0  0  0  0
  159.8190  213.1180  148.5670 N   0  0  0  0  0  0  0  0  0  0  0  0
  159.3260  213.4390  147.2170 C   0  0  1  0  0  3  0  0  0  0  0  0
  160.6360  213.2190  146.4480 C   0  0  0  0  0  2  0  0  0  0  0  0
  157.1800  213.1870  146.7030 C   0  0  0  0  0  1  0  0  0  0  0  0
  158.3920  212.4760  146.8310 O   0  0  0  0  0  0  0  0  0  0  0  0
  1  4  1  0  0  0  0
  2 23  1  6  0  0  0
  2  5  1  0  0  0  0
  2  3  1  0  0  0  0
  3  4  1  0  0  0  0
  5  1  1  0  0  0  0
  6 14  1  0  0  0  0
  7 18  2  0  0  0  0
  7 16  1  0  0  0  0
  8 19  1  6  0  0  0
  8  7  1  0  0  0  0
  9 13  1  0  0  0  0
 10  8  1  0  0  0  0
 10  6  2  0  0  0  0
 11 15  1  0  0  0  0
 11  9  1  0  0  0  0
 12 13  2  0  0  0  0
 12  2  1  0  0  0  0
 14 16  1  0  0  0  0
 14 11  2  0  0  0  0
 15 12  1  0  0  0  0
 16 17  1  0  0  0  0
 17  9  2  0  0  0  0
 20 10  1  0  0  0  0
 21 20  1  0  0  0  0
 22 23  2  0  0  0  0
 24 23  1  6  0  0  0
 24 26  1  0  0  0  0
 25 27  1  6  0  0  0
 25 24  1  0  0  0  0
 25 26  1  0  0  0  0
 28 27  1  0  0  0  0
 29 28  1  0  0  0  0
 32 31  2  0  0  0  0
 32 30  2  0  0  0  0
 32 33  1  0  0  0  0
 33 29  1  0  0  0  0
 34 37  1  6  0  0  0
 34 33  1  0  0  0  0
 35 34  1  0  0  0  0
 35 32  1  0  0  0  0
 36 37  1  0  0  0  0
M  END
>  <MODEL>
1

>  <REMARK>
 VINA RESULT:      -7.6      0.000      0.000
  Name = 
  9 active torsions:
  status: ('A' for Active; 'I' for Inactive)
    1  A    between atoms: C_6  and  C_35
    2  A    between atoms: C_7  and  N_14
    3  A    between atoms: C_7  and  C_22
    4  A    between atoms: C_8  and  C_18
    5  A    between atoms: C_8  and  C_35
    6  A    between atoms: C_9  and  N_33
    7  A    between atoms: C_13  and  O_17
    8  A    between atoms: C_20  and  O_28
    9  A    between atoms: C_22  and  N_33
                            x       y       z     vdW  Elec       q    Type
                         _______ _______ _______ _____ _____    ______ ____

>  <TORSDO>
F 9

$$$$
=
 OpenBabel11052411023D

 37 42  0  0  1  0  0  0  0  0999 V2000
  159.3710  214.0990  148.0500 N   0  0  0  0  0  2  0  0  0  0  0  0
  161.1570  212.4940  147.7940 C   0  0  1  0  0  0  0  0  0  0  0  0
  159.9700  212.0510  146.9600 C   0  0  0  0  0  2  0  0  0  0  0  0
  158.8120  212.9230  147.4080 C   0  0  0  0  0  2  0  0  0  0  0  0
  160.6300  213.6540  148.6280 C   0  0  0  0  0  2  0  0  0  0  0  0
  161.4820  206.9830  148.9590 C   0  0  0  0  0  3  0  0  0  0  0  0
  161.4300  207.0510  151.8430 C   0  0  0  0  0  0  0  0  0  0  0  0
  161.0440  205.7780  151.1200 C   0  0  1  0  0  3  0  0  0  0  0  0
  162.1400  210.2340  150.3550 C   0  0  0  0  0  0  0  0  0  0  0  0
  161.0770  205.8650  149.5980 C   0  0  0  0  0  0  0  0  0  0  0  0
  162.1320  209.4310  149.2970 C   0  0  0  0  0  0  0  0  0  0  0  0
  161.5810  211.3430  148.6760 C   0  0  0  0  0  0  0  0  0  0  0  0
  161.7660  211.4780  150.0270 N   0  0  0  0  0  0  0  0  0  0  0  0
  161.9060  208.1600  149.7330 C   0  0  0  0  0  0  0  0  0  0  0  0
  161.7440  210.0720  148.1960 N   0  0  0  0  0  2  0  0  0  0  0  0
  161.8240  208.2030  151.0810 N   0  0  0  0  0  0  0  0  0  0  0  0
  161.9090  209.4970  151.5010 C   0  0  0  0  0  3  0  0  0  0  0  0
  161.3730  207.0920  153.0970 O   0  0  0  0  0  0  0  0  0  0  0  0
  161.8750  204.6630  151.5650 N   0  0  0  0  0  1  0  0  0  0  0  0
  160.6420  204.7430  148.8720 O   0  0  0  0  0  0  0  0  0  0  0  0
  161.4750  204.0130  147.9870 C   0  0  0  0  0  1  0  0  0  0  0  0
  163.3810  212.4420  146.9600 O   0  0  0  0  0  0  0  0  0  0  0  0
  162.3000  213.0140  146.9370 C   0  0  0  0  0  0  0  0  0  0  0  0
  162.1500  214.3190  146.1740 C   0  0  2  0  0  3  0  0  0  0  0  0
  161.6610  214.1740  144.7290 C   0  0  1  0  0  3  0  0  0  0  0  0
  163.1250  214.4530  145.0160 C   0  0  0  0  0  2  0  0  0  0  0  0
  161.5120  212.7860  144.2970 N   0  0  0  0  0  2  0  0  0  0  0  0
  160.9990  212.8380  142.9390 C   0  0  0  0  0  2  0  0  0  0  0  0
  161.8260  211.9200  142.0500 C   0  0  0  0  0  2  0  0  0  0  0  0
  163.3530  210.5380  140.1220 O   0  0  0  0  0  0  0  0  0  0  0  0
  161.4440  208.9220  139.7480 O   0  0  0  0  0  0  0  0  0  0  0  0
  161.8670  210.3420  139.9930 S   0  0  0  0  0  0  0  0  0  0  0  0
  160.9410  211.0890  141.2430 N   0  0  0  0  0  0  0  0  0  0  0  0
  160.2710  211.9750  140.2770 C   0  0  1  0  0  3  0  0  0  0  0  0
  161.0060  211.5150  139.0110 C   0  0  0  0  0  2  0  0  0  0  0  0
  158.2220  212.8230  140.4040 C   0  0  0  0  0  1  0  0  0  0  0  0
  158.9240  211.6190  140.1890 O   0  0  0  0  0  0  0  0  0  0  0  0
  1  5  1  0  0  0  0
  2 23  1  6  0  0  0
  2  5  1  0  0  0  0
  2 12  1  0  0  0  0
  3  4  1  0  0  0  0
  3  2  1  0  0  0  0
  4  1  1  0  0  0  0
  6 10  2  0  0  0  0
  6 14  1  0  0  0  0
  7 18  2  0  0  0  0
  8 19  1  1  0  0  0
  8  7  1  0  0  0  0
  9 17  2  0  0  0  0
 10  8  1  0  0  0  0
 11 14  2  0  0  0  0
 11  9  1  0  0  0  0
 12 13  2  0  0  0  0
 13  9  1  0  0  0  0
 14 16  1  0  0  0  0
 15 12  1  0  0  0  0
 15 11  1  0  0  0  0
 16 17  1  0  0  0  0
 16  7  1  0  0  0  0
 20 10  1  0  0  0  0
 21 20  1  0  0  0  0
 23 22  2  0  0  0  0
 24 23  1  1  0  0  0
 25 27  1  1  0  0  0
 25 26  1  0  0  0  0
 25 24  1  0  0  0  0
 26 24  1  0  0  0  0
 28 27  1  0  0  0  0
 29 28  1  0  0  0  0
 31 32  2  0  0  0  0
 32 30  2  0  0  0  0
 32 33  1  0  0  0  0
 33 29  1  0  0  0  0
 34 37  1  6  0  0  0
 34 33  1  0  0  0  0
 35 32  1  0  0  0  0
 35 34  1  0  0  0  0
 37 36  1  0  0  0  0
M  END
>  <MODEL>
2

>  <REMARK>
 VINA RESULT:      -7.1      4.014      6.299
  Name = 
  9 active torsions:
  status: ('A' for Active; 'I' for Inactive)
    1  A    between atoms: C_6  and  C_35
    2  A    between atoms: C_7  and  N_14
    3  A    between atoms: C_7  and  C_22
    4  A    between atoms: C_8  and  C_18
    5  A    between atoms: C_8  and  C_35
    6  A    between atoms: C_9  and  N_33
    7  A    between atoms: C_13  and  O_17
    8  A    between atoms: C_20  and  O_28
    9  A    between atoms: C_22  and  N_33
                            x       y       z     vdW  Elec       q    Type
                         _______ _______ _______ _____ _____    ______ ____

>  <TORSDO>
F 9

$$$$
=
 OpenBabel11052411023D

 37 42  0  0  1  0  0  0  0  0999 V2000
  161.2160  210.8410  156.3700 N   0  0  0  0  0  2  0  0  0  0  0  0
  160.5860  209.8810  154.2460 C   0  0  1  0  0  0  0  0  0  0  0  0
  159.5220  209.5490  155.2750 C   0  0  0  0  0  2  0  0  0  0  0  0
  160.1280  209.9130  156.6170 C   0  0  0  0  0  2  0  0  0  0  0  0
  161.7250  210.4890  155.0540 C   0  0  0  0  0  2  0  0  0  0  0  0
  161.1860  206.6070  149.6900 C   0  0  0  0  0  3  0  0  0  0  0  0
  160.9370  203.9920  150.8850 C   0  0  0  0  0  0  0  0  0  0  0  0
  160.6830  204.1620  149.4020 C   0  0  1  0  0  3  0  0  0  0  0  0
  161.5390  206.5980  153.2710 C   0  0  0  0  0  0  0  0  0  0  0  0
  160.8120  205.5900  148.8850 C   0  0  0  0  0  0  0  0  0  0  0  0
  161.6530  207.2490  152.1190 C   0  0  0  0  0  0  0  0  0  0  0  0
  161.0240  208.5980  153.5760 C   0  0  0  0  0  0  0  0  0  0  0  0
  161.1090  207.4080  154.2480 N   0  0  0  0  0  0  0  0  0  0  0  0
  161.4810  206.3510  151.1090 C   0  0  0  0  0  0  0  0  0  0  0  0
  161.2990  208.5270  152.2380 N   0  0  0  0  0  2  0  0  0  0  0  0
  161.3070  205.1350  151.6720 N   0  0  0  0  0  0  0  0  0  0  0  0
  161.2800  205.2630  153.0290 C   0  0  0  0  0  3  0  0  0  0  0  0
  160.7940  202.8610  151.4120 O   0  0  0  0  0  0  0  0  0  0  0  0
  161.5520  203.2810  148.6280 N   0  0  0  0  0  1  0  0  0  0  0  0
  160.4990  205.8250  147.5350 O   0  0  0  0  0  0  0  0  0  0  0  0
  161.3700  206.4870  146.6330 C   0  0  0  0  0  1  0  0  0  0  0  0
  160.8930  211.3490  152.4040 O   0  0  0  0  0  0  0  0  0  0  0  0
  160.1140  210.9220  153.2440 C   0  0  0  0  0  0  0  0  0  0  0  0
  158.7310  211.5370  153.3760 C   0  0  2  0  0  3  0  0  0  0  0  0
  158.4240  212.6640  152.3850 C   0  0  1  0  0  3  0  0  0  0  0  0
  158.7600  212.9870  153.8290 C   0  0  0  0  0  2  0  0  0  0  0  0
  159.5590  213.0230  151.5360 N   0  0  0  0  0  2  0  0  0  0  0  0
  159.0800  214.0620  150.6400 C   0  0  0  0  0  2  0  0  0  0  0  0
  158.4610  213.4210  149.4060 C   0  0  0  0  0  2  0  0  0  0  0  0
  157.2390  212.2800  147.1340 O   0  0  0  0  0  0  0  0  0  0  0  0
  158.1060  214.1730  145.6980 O   0  0  0  0  0  0  0  0  0  0  0  0
  158.3760  213.2140  146.8230 S   0  0  0  0  0  0  0  0  0  0  0  0
  159.0440  214.0040  148.2040 N   0  0  0  0  0  0  0  0  0  0  0  0
  160.3510  213.3580  147.9960 C   0  0  1  0  0  3  0  0  0  0  0  0
  159.9800  212.5040  146.7760 C   0  0  0  0  0  2  0  0  0  0  0  0
  162.5100  213.8570  148.1360 C   0  0  0  0  0  1  0  0  0  0  0  0
  161.2840  214.3260  147.6210 O   0  0  0  0  0  0  0  0  0  0  0  0
  1  4  1  0  0  0  0
  2 23  1  6  0  0  0
  2  5  1  0  0  0  0
  2  3  1  0  0  0  0
  3  4  1  0  0  0  0
  5  1  1  0  0  0  0
  6 14  1  0  0  0  0
  7 18  2  0  0  0  0
  7 16  1  0  0  0  0
  8 19  1  6  0  0  0
  8  7  1  0  0  0  0
  9 13  1  0  0  0  0
 10  8  1  0  0  0  0
 10  6  2  0  0  0  0
 11 15  1  0  0  0  0
 11  9  1  0  0  0  0
 12  2  1  0  0  0  0
 12 13  2  0  0  0  0
 14 16  1  0  0  0  0
 14 11  2  0  0  0  0
 15 12  1  0  0  0  0
 16 17  1  0  0  0  0
 17  9  2  0  0  0  0
 20 10  1  0  0  0  0
 21 20  1  0  0  0  0
 22 23  2  0  0  0  0
 24 23  1  6  0  0  0
 24 26  1  0  0  0  0
 25 27  1  6  0  0  0
 25 24  1  0  0  0  0
 25 26  1  0  0  0  0
 28 27  1  0  0  0  0
 29 28  1  0  0  0  0
 31 32  2  0  0  0  0
 32 30  2  0  0  0  0
 32 33  1  0  0  0  0
 33 29  1  0  0  0  0
 34 37  1  6  0  0  0
 34 33  1  0  0  0  0
 35 32  1  0  0  0  0
 35 34  1  0  0  0  0
 37 36  1  0  0  0  0
M  END
>  <MODEL>
3

>  <REMARK>
 VINA RESULT:      -7.1      1.329      2.001
  Name = 
  9 active torsions:
  status: ('A' for Active; 'I' for Inactive)
    1  A    between atoms: C_6  and  C_35
    2  A    between atoms: C_7  and  N_14
    3  A    between atoms: C_7  and  C_22
    4  A    between atoms: C_8  and  C_18
    5  A    between atoms: C_8  and  C_35
    6  A    between atoms: C_9  and  N_33
    7  A    between atoms: C_13  and  O_17
    8  A    between atoms: C_20  and  O_28
    9  A    between atoms: C_22  and  N_33
                            x       y       z     vdW  Elec       q    Type
                         _______ _______ _______ _____ _____    ______ ____

>  <TORSDO>
F 9

$$$$
=
 OpenBabel11052411023D

 37 42  0  0  1  0  0  0  0  0999 V2000
  161.7590  213.1900  145.9750 N   0  0  0  0  0  2  0  0  0  0  0  0
  161.2190  212.4800  148.2180 C   0  0  1  0  0  0  0  0  0  0  0  0
  162.3450  213.4950  148.2770 C   0  0  0  0  0  2  0  0  0  0  0  0
  162.8230  213.6540  146.8460 C   0  0  0  0  0  2  0  0  0  0  0  0
  161.0630  212.1650  146.7360 C   0  0  0  0  0  2  0  0  0  0  0  0
  161.5610  206.8830  148.8520 C   0  0  0  0  0  3  0  0  0  0  0  0
  161.4780  206.6740  151.7280 C   0  0  0  0  0  0  0  0  0  0  0  0
  161.1070  205.4740  150.8820 C   0  0  1  0  0  3  0  0  0  0  0  0
  162.1870  209.9880  150.5610 C   0  0  0  0  0  0  0  0  0  0  0  0
  161.1550  205.7070  149.3770 C   0  0  0  0  0  0  0  0  0  0  0  0
  162.1940  209.2910  149.4300 C   0  0  0  0  0  0  0  0  0  0  0  0
  161.6400  211.2500  148.9910 C   0  0  0  0  0  0  0  0  0  0  0  0
  161.8110  211.2560  150.3500 N   0  0  0  0  0  0  0  0  0  0  0  0
  161.9710  207.9830  149.7400 C   0  0  0  0  0  0  0  0  0  0  0  0
  161.8140  210.0320  148.3920 N   0  0  0  0  0  2  0  0  0  0  0  0
  161.8750  207.8950  151.0850 N   0  0  0  0  0  0  0  0  0  0  0  0
  161.9480  209.1430  151.6280 C   0  0  0  0  0  3  0  0  0  0  0  0
  161.4080  206.5930  152.9800 O   0  0  0  0  0  0  0  0  0  0  0  0
  161.9380  204.3260  151.2270 N   0  0  0  0  0  1  0  0  0  0  0  0
  160.7330  204.6590  148.5420 O   0  0  0  0  0  0  0  0  0  0  0  0
  161.5390  204.1040  147.5150 C   0  0  0  0  0  1  0  0  0  0  0  0
  158.8550  212.7040  148.1920 O   0  0  0  0  0  0  0  0  0  0  0  0
  159.9030  213.0510  148.7190 C   0  0  0  0  0  0  0  0  0  0  0  0
  159.8970  214.1550  149.7630 C   0  0  2  0  0  3  0  0  0  0  0  0
  159.5140  213.7090  151.1770 C   0  0  1  0  0  3  0  0  0  0  0  0
  158.5120  214.4530  150.3130 C   0  0  0  0  0  2  0  0  0  0  0  0
  159.1240  212.3030  151.2640 N   0  0  0  0  0  2  0  0  0  0  0  0
  158.5290  212.1290  152.5770 C   0  0  0  0  0  2  0  0  0  0  0  0
  159.3440  211.1200  153.3740 C   0  0  0  0  0  2  0  0  0  0  0  0
  160.9030  209.2510  154.8000 O   0  0  0  0  0  0  0  0  0  0  0  0
  161.9800  211.1270  156.1100 O   0  0  0  0  0  0  0  0  0  0  0  0
  160.7260  210.5720  155.4980 S   0  0  0  0  0  0  0  0  0  0  0  0
  159.8750  211.7550  154.5740 N   0  0  0  0  0  0  0  0  0  0  0  0
  158.7830  211.8040  155.5610 C   0  0  1  0  0  3  0  0  0  0  0  0
  159.3090  210.7310  156.5230 C   0  0  0  0  0  2  0  0  0  0  0  0
  157.4970  213.5590  156.0080 C   0  0  0  0  0  1  0  0  0  0  0  0
  158.7980  213.0470  156.1960 O   0  0  0  0  0  0  0  0  0  0  0  0
  1  5  1  0  0  0  0
  1  4  1  0  0  0  0
  2  3  1  0  0  0  0
  2 23  1  1  0  0  0
  2 12  1  0  0  0  0
  4  3  1  0  0  0  0
  5  2  1  0  0  0  0
  6 10  2  0  0  0  0
  6 14  1  0  0  0  0
  7 18  2  0  0  0  0
  8 19  1  6  0  0  0
  8  7  1  0  0  0  0
  9 17  2  0  0  0  0
 10  8  1  0  0  0  0
 11 14  2  0  0  0  0
 11  9  1  0  0  0  0
 12 13  2  0  0  0  0
 13  9  1  0  0  0  0
 14 16  1  0  0  0  0
 15 12  1  0  0  0  0
 15 11  1  0  0  0  0
 16 17  1  0  0  0  0
 16  7  1  0  0  0  0
 20 10  1  0  0  0  0
 21 20  1  0  0  0  0
 22 23  2  0  0  0  0
 24 23  1  6  0  0  0
 24 26  1  0  0  0  0
 24 25  1  0  0  0  0
 25 27  1  6  0  0  0
 26 25  1  0  0  0  0
 27 28  1  0  0  0  0
 28 29  1  0  0  0  0
 29 33  1  0  0  0  0
 30 32  2  0  0  0  0
 32 31  2  0  0  0  0
 32 35  1  0  0  0  0
 33 32  1  0  0  0  0
 33 34  1  0  0  0  0
 34 37  1  1  0  0  0
 34 35  1  0  0  0  0
 36 37  1  0  0  0  0
M  END
>  <MODEL>
4

>  <REMARK>
 VINA RESULT:      -6.9      2.663      5.733
  Name = 
  9 active torsions:
  status: ('A' for Active; 'I' for Inactive)
    1  A    between atoms: C_6  and  C_35
    2  A    between atoms: C_7  and  N_14
    3  A    between atoms: C_7  and  C_22
    4  A    between atoms: C_8  and  C_18
    5  A    between atoms: C_8  and  C_35
    6  A    between atoms: C_9  and  N_33
    7  A    between atoms: C_13  and  O_17
    8  A    between atoms: C_20  and  O_28
    9  A    between atoms: C_22  and  N_33
                            x       y       z     vdW  Elec       q    Type
                         _______ _______ _______ _____ _____    ______ ____

>  <TORSDO>
F 9

$$$$
=
 OpenBabel11052411023D

 37 42  0  0  1  0  0  0  0  0999 V2000
  161.0110  213.1460  145.6310 N   0  0  0  0  0  2  0  0  0  0  0  0
  161.3280  212.8780  148.0090 C   0  0  1  0  0  0  0  0  0  0  0  0
  162.6180  213.3830  147.3910 C   0  0  0  0  0  2  0  0  0  0  0  0
  162.4360  213.2320  145.8920 C   0  0  0  0  0  2  0  0  0  0  0  0
  160.4420  212.5320  146.8210 C   0  0  0  0  0  2  0  0  0  0  0  0
  161.5970  207.2800  148.6650 C   0  0  0  0  0  3  0  0  0  0  0  0
  161.1010  207.0580  151.4980 C   0  0  0  0  0  0  0  0  0  0  0  0
  160.8600  205.8610  150.6030 C   0  0  1  0  0  3  0  0  0  0  0  0
  161.9570  210.3790  150.4580 C   0  0  0  0  0  0  0  0  0  0  0  0
  161.1240  206.1010  149.1210 C   0  0  0  0  0  0  0  0  0  0  0  0
  162.1300  209.6870  149.3380 C   0  0  0  0  0  0  0  0  0  0  0  0
  161.6380  211.6470  148.8300 C   0  0  0  0  0  0  0  0  0  0  0  0
  161.6100  211.6470  150.1990 N   0  0  0  0  0  0  0  0  0  0  0  0
  161.8700  208.3770  149.6070 C   0  0  0  0  0  0  0  0  0  0  0  0
  161.9020  210.4320  148.2580 N   0  0  0  0  0  2  0  0  0  0  0  0
  161.5810  208.2830  150.9230 N   0  0  0  0  0  0  0  0  0  0  0  0
  161.5700  209.5290  151.4760 C   0  0  0  0  0  3  0  0  0  0  0  0
  160.8510  206.9720  152.7260 O   0  0  0  0  0  0  0  0  0  0  0  0
  161.6380  204.7140  151.0600 N   0  0  0  0  0  1  0  0  0  0  0  0
  160.8320  205.0540  148.2300 O   0  0  0  0  0  0  0  0  0  0  0  0
  161.8210  204.3520  147.4950 C   0  0  0  0  0  1  0  0  0  0  0  0
  161.1920  214.4530  149.7820 O   0  0  0  0  0  0  0  0  0  0  0  0
  160.6230  213.9500  148.8240 C   0  0  0  0  0  0  0  0  0  0  0  0
  159.1680  214.2880  148.5450 C   0  0  2  0  0  3  0  0  0  0  0  0
  158.2260  214.1400  149.7440 C   0  0  1  0  0  3  0  0  0  0  0  0
  158.2420  213.0870  148.6510 C   0  0  0  0  0  2  0  0  0  0  0  0
  158.8750  213.6030  150.9380 N   0  0  0  0  0  2  0  0  0  0  0  0
  157.8100  213.0910  151.7830 C   0  0  0  0  0  2  0  0  0  0  0  0
  158.2440  213.1530  153.2400 C   0  0  0  0  0  2  0  0  0  0  0  0
  155.8130  213.2260  154.6700 O   0  0  0  0  0  0  0  0  0  0  0  0
  155.7750  210.6990  154.7610 O   0  0  0  0  0  0  0  0  0  0  0  0
  156.5970  211.9540  154.8430 S   0  0  0  0  0  0  0  0  0  0  0  0
  158.0220  211.8610  153.8750 N   0  0  0  0  0  0  0  0  0  0  0  0
  158.8820  211.8070  155.0690 C   0  0  1  0  0  3  0  0  0  0  0  0
  157.7850  211.9360  156.1340 C   0  0  0  0  0  2  0  0  0  0  0  0
  160.8510  210.7800  155.0100 C   0  0  0  0  0  1  0  0  0  0  0  0
  159.4680  210.5430  155.1540 O   0  0  0  0  0  0  0  0  0  0  0  0
  1  4  1  0  0  0  0
  1  5  1  0  0  0  0
  2 23  1  1  0  0  0
  2 12  1  0  0  0  0
  3  2  1  0  0  0  0
  4  3  1  0  0  0  0
  5  2  1  0  0  0  0
  6 10  2  0  0  0  0
  6 14  1  0  0  0  0
  7 18  2  0  0  0  0
  8 19  1  1  0  0  0
  8  7  1  0  0  0  0
  9 17  2  0  0  0  0
 10  8  1  0  0  0  0
 11 14  2  0  0  0  0
 11  9  1  0  0  0  0
 12 13  2  0  0  0  0
 13  9  1  0  0  0  0
 14 16  1  0  0  0  0
 15 12  1  0  0  0  0
 15 11  1  0  0  0  0
 16 17  1  0  0  0  0
 16  7  1  0  0  0  0
 20 10  1  0  0  0  0
 21 20  1  0  0  0  0
 23 22  2  0  0  0  0
 24 26  1  0  0  0  0
 24 23  1  1  0  0  0
 24 25  1  0  0  0  0
 25 27  1  1  0  0  0
 26 25  1  0  0  0  0
 27 28  1  0  0  0  0
 28 29  1  0  0  0  0
 29 33  1  0  0  0  0
 30 32  2  0  0  0  0
 31 32  2  0  0  0  0
 32 35  1  0  0  0  0
 33 32  1  0  0  0  0
 33 34  1  0  0  0  0
 34 37  1  1  0  0  0
 34 35  1  0  0  0  0
 36 37  1  0  0  0  0
M  END
>  <MODEL>
5

>  <REMARK>
 VINA RESULT:      -6.4      2.837      5.922
  Name = 
  9 active torsions:
  status: ('A' for Active; 'I' for Inactive)
    1  A    between atoms: C_6  and  C_35
    2  A    between atoms: C_7  and  N_14
    3  A    between atoms: C_7  and  C_22
    4  A    between atoms: C_8  and  C_18
    5  A    between atoms: C_8  and  C_35
    6  A    between atoms: C_9  and  N_33
    7  A    between atoms: C_13  and  O_17
    8  A    between atoms: C_20  and  O_28
    9  A    between atoms: C_22  and  N_33
                            x       y       z     vdW  Elec       q    Type
                         _______ _______ _______ _____ _____    ______ ____

>  <TORSDO>
F 9

$$$$
=
 OpenBabel11052411023D

 37 42  0  0  1  0  0  0  0  0999 V2000
  161.4140  208.2040  156.9880 N   0  0  0  0  0  2  0  0  0  0  0  0
  160.7320  207.9130  154.6910 C   0  0  1  0  0  0  0  0  0  0  0  0
  159.6660  207.3330  155.6020 C   0  0  0  0  0  2  0  0  0  0  0  0
  160.2970  207.2780  156.9810 C   0  0  0  0  0  2  0  0  0  0  0  0
  161.8990  208.2290  155.6170 C   0  0  0  0  0  2  0  0  0  0  0  0
  161.8410  206.2840  149.4030 C   0  0  0  0  0  3  0  0  0  0  0  0
  160.9660  203.5370  149.5050 C   0  0  0  0  0  0  0  0  0  0  0  0
  161.0700  204.2380  148.1670 C   0  0  1  0  0  3  0  0  0  0  0  0
  161.3960  205.0150  152.7420 C   0  0  0  0  0  0  0  0  0  0  0  0
  161.5110  205.6950  148.2350 C   0  0  0  0  0  0  0  0  0  0  0  0
  161.8520  205.9710  151.9400 C   0  0  0  0  0  0  0  0  0  0  0  0
  161.1180  206.8630  153.6740 C   0  0  0  0  0  0  0  0  0  0  0  0
  160.8830  205.5270  153.8690 N   0  0  0  0  0  0  0  0  0  0  0  0
  161.7790  205.5170  150.6580 C   0  0  0  0  0  0  0  0  0  0  0  0
  161.6670  207.1820  152.4630 N   0  0  0  0  0  2  0  0  0  0  0  0
  161.3140  204.2490  150.7030 N   0  0  0  0  0  0  0  0  0  0  0  0
  161.0080  203.9230  151.9910 C   0  0  0  0  0  3  0  0  0  0  0  0
  160.5510  202.3520  149.5530 O   0  0  0  0  0  0  0  0  0  0  0  0
  161.9520  203.5000  147.2690 N   0  0  0  0  0  1  0  0  0  0  0  0
  161.5390  206.4240  147.0340 O   0  0  0  0  0  0  0  0  0  0  0  0
  160.4180  206.5600  146.1750 C   0  0  0  0  0  1  0  0  0  0  0  0
  159.1410  209.3190  153.6260 O   0  0  0  0  0  0  0  0  0  0  0  0
  160.2870  209.2110  154.0370 C   0  0  0  0  0  0  0  0  0  0  0  0
  161.2980  210.3120  153.7600 C   0  0  2  0  0  3  0  0  0  0  0  0
  161.1140  211.5860  154.5900 C   0  0  1  0  0  3  0  0  0  0  0  0
  160.6790  211.5510  153.1360 C   0  0  0  0  0  2  0  0  0  0  0  0
  159.9300  211.5620  155.4470 N   0  0  0  0  0  2  0  0  0  0  0  0
  159.2730  212.8440  155.2650 C   0  0  0  0  0  2  0  0  0  0  0  0
  158.2000  213.0200  156.3300 C   0  0  0  0  0  2  0  0  0  0  0  0
  155.7990  211.8670  157.2600 O   0  0  0  0  0  0  0  0  0  0  0  0
  154.5250  213.9480  156.5940 O   0  0  0  0  0  0  0  0  0  0  0  0
  155.6090  212.9660  156.2510 S   0  0  0  0  0  0  0  0  0  0  0  0
  157.0690  213.7520  155.7730 N   0  0  0  0  0  0  0  0  0  0  0  0
  156.9040  213.3050  154.3790 C   0  0  1  0  0  3  0  0  0  0  0  0
  155.6190  212.4870  154.5620 C   0  0  0  0  0  2  0  0  0  0  0  0
  157.7010  214.4400  152.6440 C   0  0  0  0  0  1  0  0  0  0  0  0
  156.6400  214.4140  153.5730 O   0  0  0  0  0  0  0  0  0  0  0  0
  2 23  1  6  0  0  0
  2  3  1  0  0  0  0
  2  5  1  0  0  0  0
  3  4  1  0  0  0  0
  4  1  1  0  0  0  0
  5  1  1  0  0  0  0
  6 14  1  0  0  0  0
  7 18  2  0  0  0  0
  7 16  1  0  0  0  0
  8 19  1  6  0  0  0
  8 10  1  0  0  0  0
  8  7  1  0  0  0  0
  9 13  1  0  0  0  0
 10  6  2  0  0  0  0
 11 15  1  0  0  0  0
 11  9  1  0  0  0  0
 12 13  2  0  0  0  0
 12  2  1  0  0  0  0
 14 16  1  0  0  0  0
 14 11  2  0  0  0  0
 15 12  1  0  0  0  0
 16 17  1  0  0  0  0
 17  9  2  0  0  0  0
 20 10  1  0  0  0  0
 21 20  1  0  0  0  0
 22 23  2  0  0  0  0
 24 23  1  1  0  0  0
 24 25  1  0  0  0  0
 25 27  1  1  0  0  0
 26 24  1  0  0  0  0
 26 25  1  0  0  0  0
 28 27  1  0  0  0  0
 28 29  1  0  0  0  0
 32 31  2  0  0  0  0
 32 30  2  0  0  0  0
 33 32  1  0  0  0  0
 33 29  1  0  0  0  0
 34 37  1  6  0  0  0
 34 35  1  0  0  0  0
 34 33  1  0  0  0  0
 35 32  1  0  0  0  0
 36 37  1  0  0  0  0
M  END
>  <MODEL>
6

>  <REMARK>
 VINA RESULT:      -6.4      3.611      4.833
  Name = 
  9 active torsions:
  status: ('A' for Active; 'I' for Inactive)
    1  A    between atoms: C_6  and  C_35
    2  A    between atoms: C_7  and  N_14
    3  A    between atoms: C_7  and  C_22
    4  A    between atoms: C_8  and  C_18
    5  A    between atoms: C_8  and  C_35
    6  A    between atoms: C_9  and  N_33
    7  A    between atoms: C_13  and  O_17
    8  A    between atoms: C_20  and  O_28
    9  A    between atoms: C_22  and  N_33
                            x       y       z     vdW  Elec       q    Type
                         _______ _______ _______ _____ _____    ______ ____

>  <TORSDO>
F 9

$$$$
=
 OpenBabel11052411023D

 37 42  0  0  1  0  0  0  0  0999 V2000
  161.4800  208.7340  156.9470 N   0  0  0  0  0  2  0  0  0  0  0  0
  160.7360  208.1860  154.7170 C   0  0  1  0  0  0  0  0  0  0  0  0
  159.7060  207.6970  155.7170 C   0  0  0  0  0  2  0  0  0  0  0  0
  160.3770  207.7990  157.0730 C   0  0  0  0  0  2  0  0  0  0  0  0
  161.9240  208.6150  155.5670 C   0  0  0  0  0  2  0  0  0  0  0  0
  161.4640  205.9320  149.5950 C   0  0  0  0  0  3  0  0  0  0  0  0
  160.8320  203.1710  150.1410 C   0  0  0  0  0  0  0  0  0  0  0  0
  160.7490  203.6890  148.7200 C   0  0  1  0  0  3  0  0  0  0  0  0
  161.4470  205.1030  153.0970 C   0  0  0  0  0  0  0  0  0  0  0  0
  161.0730  205.1680  148.5530 C   0  0  0  0  0  0  0  0  0  0  0  0
  161.7430  205.9700  152.1350 C   0  0  0  0  0  0  0  0  0  0  0  0
  161.1070  207.0360  153.8080 C   0  0  0  0  0  0  0  0  0  0  0  0
  161.0030  205.7270  154.1960 N   0  0  0  0  0  0  0  0  0  0  0  0
  161.5850  205.3410  150.9370 C   0  0  0  0  0  0  0  0  0  0  0  0
  161.5090  207.2250  152.5140 N   0  0  0  0  0  2  0  0  0  0  0  0
  161.2330  204.0620  151.1930 N   0  0  0  0  0  0  0  0  0  0  0  0
  161.0800  203.8940  152.5370 C   0  0  0  0  0  3  0  0  0  0  0  0
  160.5220  201.9780  150.3840 O   0  0  0  0  0  0  0  0  0  0  0  0
  161.5990  202.8980  147.8360 N   0  0  0  0  0  1  0  0  0  0  0  0
  160.9250  205.7270  147.2720 O   0  0  0  0  0  0  0  0  0  0  0  0
  162.0180  206.1060  146.4520 C   0  0  0  0  0  1  0  0  0  0  0  0
  160.5410  209.5150  152.7570 O   0  0  0  0  0  0  0  0  0  0  0  0
  160.2530  209.4000  153.9400 C   0  0  0  0  0  0  0  0  0  0  0  0
  159.5450  210.5360  154.6600 C   0  0  2  0  0  3  0  0  0  0  0  0
  158.9850  211.6330  153.7500 C   0  0  1  0  0  3  0  0  0  0  0  0
  160.2640  211.8680  154.5320 C   0  0  0  0  0  2  0  0  0  0  0  0
  159.3130  211.4480  152.3370 N   0  0  0  0  0  2  0  0  0  0  0  0
  159.8790  212.7070  151.8840 C   0  0  0  0  0  2  0  0  0  0  0  0
  159.8000  212.7810  150.3660 C   0  0  0  0  0  2  0  0  0  0  0  0
  159.9150  214.4520  148.0960 O   0  0  0  0  0  0  0  0  0  0  0  0
  162.4420  214.4430  148.1990 O   0  0  0  0  0  0  0  0  0  0  0  0
  161.1680  213.6600  148.3470 S   0  0  0  0  0  0  0  0  0  0  0  0
  161.1420  212.7300  149.8010 N   0  0  0  0  0  0  0  0  0  0  0  0
  161.2510  211.4690  149.0480 C   0  0  1  0  0  3  0  0  0  0  0  0
  161.2370  212.0580  147.6310 C   0  0  0  0  0  2  0  0  0  0  0  0
  162.2140  209.5380  149.5730 C   0  0  0  0  0  1  0  0  0  0  0  0
  162.4970  210.8930  149.3010 O   0  0  0  0  0  0  0  0  0  0  0  0
  1  4  1  0  0  0  0
  2 23  1  6  0  0  0
  2  5  1  0  0  0  0
  2  3  1  0  0  0  0
  3  4  1  0  0  0  0
  5  1  1  0  0  0  0
  6 14  1  0  0  0  0
  7 18  2  0  0  0  0
  7 16  1  0  0  0  0
  8 19  1  6  0  0  0
  8  7  1  0  0  0  0
  9 13  1  0  0  0  0
 10  8  1  0  0  0  0
 10  6  2  0  0  0  0
 11 15  1  0  0  0  0
 11  9  1  0  0  0  0
 12 13  2  0  0  0  0
 12  2  1  0  0  0  0
 14 16  1  0  0  0  0
 14 11  2  0  0  0  0
 15 12  1  0  0  0  0
 16 17  1  0  0  0  0
 17  9  2  0  0  0  0
 20 10  1  0  0  0  0
 21 20  1  0  0  0  0
 22 23  2  0  0  0  0
 24 23  1  6  0  0  0
 25 27  1  6  0  0  0
 25 26  1  0  0  0  0
 25 24  1  0  0  0  0
 26 24  1  0  0  0  0
 28 27  1  0  0  0  0
 29 28  1  0  0  0  0
 30 32  2  0  0  0  0
 31 32  2  0  0  0  0
 32 33  1  0  0  0  0
 33 29  1  0  0  0  0
 34 37  1  1  0  0  0
 34 33  1  0  0  0  0
 35 32  1  0  0  0  0
 35 34  1  0  0  0  0
 37 36  1  0  0  0  0
M  END
>  <MODEL>
7

>  <REMARK>
 VINA RESULT:      -6.1      1.728      2.393
  Name = 
  9 active torsions:
  status: ('A' for Active; 'I' for Inactive)
    1  A    between atoms: C_6  and  C_35
    2  A    between atoms: C_7  and  N_14
    3  A    between atoms: C_7  and  C_22
    4  A    between atoms: C_8  and  C_18
    5  A    between atoms: C_8  and  C_35
    6  A    between atoms: C_9  and  N_33
    7  A    between atoms: C_13  and  O_17
    8  A    between atoms: C_20  and  O_28
    9  A    between atoms: C_22  and  N_33
                            x       y       z     vdW  Elec       q    Type
                         _______ _______ _______ _____ _____    ______ ____

>  <TORSDO>
F 9

$$$$
=
 OpenBabel11052411023D

 37 42  0  0  1  0  0  0  0  0999 V2000
  160.9540  205.0020  151.7110 N   0  0  0  0  0  2  0  0  0  0  0  0
  161.6440  207.2180  151.0480 C   0  0  1  0  0  0  0  0  0  0  0  0
  162.7740  206.5550  151.8120 C   0  0  0  0  0  2  0  0  0  0  0  0
  162.1660  205.3190  152.4450 C   0  0  0  0  0  2  0  0  0  0  0  0
  160.4580  206.2800  151.2250 C   0  0  0  0  0  2  0  0  0  0  0  0
  158.9280  210.5240  154.7270 C   0  0  0  0  0  3  0  0  0  0  0  0
  158.8740  213.0080  153.2610 C   0  0  0  0  0  0  0  0  0  0  0  0
  157.8750  212.7780  154.3760 C   0  0  1  0  0  3  0  0  0  0  0  0
  161.2110  210.6300  151.9470 C   0  0  0  0  0  0  0  0  0  0  0  0
  157.9740  211.4190  155.0600 C   0  0  0  0  0  0  0  0  0  0  0  0
  160.7900  210.0210  153.0500 C   0  0  0  0  0  0  0  0  0  0  0  0
  161.3660  208.5660  151.6740 C   0  0  0  0  0  0  0  0  0  0  0  0
  161.5730  209.7450  151.0090 N   0  0  0  0  0  0  0  0  0  0  0  0
  159.9080  210.8480  153.6780 C   0  0  0  0  0  0  0  0  0  0  0  0
  160.8260  208.6960  152.9250 N   0  0  0  0  0  2  0  0  0  0  0  0
  159.8390  211.9890  152.9580 N   0  0  0  0  0  0  0  0  0  0  0  0
  160.6010  211.8640  151.8340 C   0  0  0  0  0  3  0  0  0  0  0  0
  158.8270  214.0750  152.6000 O   0  0  0  0  0  0  0  0  0  0  0  0
  157.9660  213.8380  155.3740 N   0  0  0  0  0  1  0  0  0  0  0  0
  157.0160  211.1120  156.0400 O   0  0  0  0  0  0  0  0  0  0  0  0
  155.6370  210.9310  155.7580 C   0  0  0  0  0  1  0  0  0  0  0  0
  163.0700  207.6030  149.1870 O   0  0  0  0  0  0  0  0  0  0  0  0
  161.9390  207.3250  149.5610 C   0  0  0  0  0  0  0  0  0  0  0  0
  160.8090  207.2370  148.5490 C   0  0  2  0  0  3  0  0  0  0  0  0
  160.9940  206.1780  147.4590 C   0  0  1  0  0  3  0  0  0  0  0  0
  161.2250  207.6440  147.1460 C   0  0  0  0  0  2  0  0  0  0  0  0
  162.2830  205.4900  147.5210 N   0  0  0  0  0  2  0  0  0  0  0  0
  161.9850  204.0690  147.4930 C   0  0  0  0  0  2  0  0  0  0  0  0
  161.2060  203.6880  148.7430 C   0  0  0  0  0  2  0  0  0  0  0  0
  161.5790  201.7560  150.7640 O   0  0  0  0  0  0  0  0  0  0  0  0
  159.4360  200.6020  150.0760 O   0  0  0  0  0  0  0  0  0  0  0  0
  160.6860  201.3110  149.6390 S   0  0  0  0  0  0  0  0  0  0  0  0
  160.3610  202.5340  148.4650 N   0  0  0  0  0  0  0  0  0  0  0  0
  161.0230  201.7540  147.4050 C   0  0  1  0  0  3  0  0  0  0  0  0
  161.4760  200.5640  148.2610 C   0  0  0  0  0  2  0  0  0  0  0  0
  160.4560  201.9150  145.2640 C   0  0  0  0  0  1  0  0  0  0  0  0
  160.0640  201.3280  146.4850 O   0  0  0  0  0  0  0  0  0  0  0  0
  1  4  1  0  0  0  0
  2 23  1  6  0  0  0
  2  5  1  0  0  0  0
  2 12  1  0  0  0  0
  2  3  1  0  0  0  0
  3  4  1  0  0  0  0
  5  1  1  0  0  0  0
  6 10  2  0  0  0  0
  7  8  1  0  0  0  0
  8 10  1  0  0  0  0
  8 19  1  1  0  0  0
  9 11  1  0  0  0  0
 10 20  1  0  0  0  0
 11 14  2  0  0  0  0
 12 15  1  0  0  0  0
 13 12  2  0  0  0  0
 13  9  1  0  0  0  0
 14  6  1  0  0  0  0
 15 11  1  0  0  0  0
 16  7  1  0  0  0  0
 16 14  1  0  0  0  0
 17  9  2  0  0  0  0
 17 16  1  0  0  0  0
 18  7  2  0  0  0  0
 21 20  1  0  0  0  0
 22 23  2  0  0  0  0
 24 23  1  1  0  0  0
 25 27  1  1  0  0  0
 25 24  1  0  0  0  0
 26 25  1  0  0  0  0
 26 24  1  0  0  0  0
 28 27  1  0  0  0  0
 28 29  1  0  0  0  0
 32 31  2  0  0  0  0
 32 30  2  0  0  0  0
 33 29  1  0  0  0  0
 33 32  1  0  0  0  0
 34 37  1  6  0  0  0
 34 35  1  0  0  0  0
 34 33  1  0  0  0  0
 35 32  1  0  0  0  0
 36 37  1  0  0  0  0
M  END
>  <MODEL>
8

>  <REMARK>
 VINA RESULT:      -6.0      3.425      8.892
  Name = 
  9 active torsions:
  status: ('A' for Active; 'I' for Inactive)
    1  A    between atoms: C_6  and  C_35
    2  A    between atoms: C_7  and  N_14
    3  A    between atoms: C_7  and  C_22
    4  A    between atoms: C_8  and  C_18
    5  A    between atoms: C_8  and  C_35
    6  A    between atoms: C_9  and  N_33
    7  A    between atoms: C_13  and  O_17
    8  A    between atoms: C_20  and  O_28
    9  A    between atoms: C_22  and  N_33
                            x       y       z     vdW  Elec       q    Type
                         _______ _______ _______ _____ _____    ______ ____

>  <TORSDO>
F 9

$$$$
=
 OpenBabel11052411023D

 37 42  0  0  1  0  0  0  0  0999 V2000
  162.4050  207.7750  149.4460 N   0  0  0  0  0  2  0  0  0  0  0  0
  161.6260  207.1740  151.6500 C   0  0  1  0  0  0  0  0  0  0  0  0
  160.5100  206.9400  150.6500 C   0  0  0  0  0  2  0  0  0  0  0  0
  160.9640  207.6160  149.3700 C   0  0  0  0  0  2  0  0  0  0  0  0
  162.6990  207.9150  150.8630 C   0  0  0  0  0  2  0  0  0  0  0  0
  159.0820  211.8310  153.5710 C   0  0  0  0  0  3  0  0  0  0  0  0
  160.3570  212.1020  156.1450 C   0  0  0  0  0  0  0  0  0  0  0  0
  159.7040  213.3090  155.5050 C   0  0  1  0  0  3  0  0  0  0  0  0
  160.8070  208.8680  154.6660 C   0  0  0  0  0  0  0  0  0  0  0  0
  159.0900  213.0580  154.1320 C   0  0  0  0  0  0  0  0  0  0  0  0
  159.9680  209.4450  153.8140 C   0  0  0  0  0  0  0  0  0  0  0  0
  161.0910  208.0320  152.7740 C   0  0  0  0  0  0  0  0  0  0  0  0
  161.5810  207.9640  154.0510 N   0  0  0  0  0  0  0  0  0  0  0  0
  159.6780  210.6900  154.2860 C   0  0  0  0  0  0  0  0  0  0  0  0
  160.1270  208.9820  152.5760 N   0  0  0  0  0  2  0  0  0  0  0  0
  160.3230  210.8380  155.4640 N   0  0  0  0  0  0  0  0  0  0  0  0
  161.0870  209.7350  155.7050 C   0  0  0  0  0  3  0  0  0  0  0  0
  160.9420  212.2280  157.2490 O   0  0  0  0  0  0  0  0  0  0  0  0
  158.6990  213.8810  156.3940 N   0  0  0  0  0  1  0  0  0  0  0  0
  158.5510  214.1610  153.4490 O   0  0  0  0  0  0  0  0  0  0  0  0
  157.1790  214.2760  153.1080 C   0  0  0  0  0  1  0  0  0  0  0  0
  163.4250  205.6650  152.0110 O   0  0  0  0  0  0  0  0  0  0  0  0
  162.2290  205.8740  152.1560 C   0  0  0  0  0  0  0  0  0  0  0  0
  161.3300  204.7770  152.7020 C   0  0  2  0  0  3  0  0  0  0  0  0
  161.1960  203.5420  151.8070 C   0  0  1  0  0  3  0  0  0  0  0  0
  160.0740  204.5620  151.8740 C   0  0  0  0  0  2  0  0  0  0  0  0
  161.8850  203.6690  150.5240 N   0  0  0  0  0  2  0  0  0  0  0  0
  160.8970  203.3700  149.5020 C   0  0  0  0  0  2  0  0  0  0  0  0
  161.1180  204.2800  148.3020 C   0  0  0  0  0  2  0  0  0  0  0  0
  162.3010  206.1380  146.5400 O   0  0  0  0  0  0  0  0  0  0  0  0
  163.8500  204.3420  145.6630 O   0  0  0  0  0  0  0  0  0  0  0  0
  162.4680  204.7010  146.1290 S   0  0  0  0  0  0  0  0  0  0  0  0
  161.8500  203.5610  147.2670 N   0  0  0  0  0  0  0  0  0  0  0  0
  160.8590  203.0640  146.2980 C   0  0  1  0  0  3  0  0  0  0  0  0
  161.1890  204.0160  145.1410 C   0  0  0  0  0  2  0  0  0  0  0  0
  160.0580  201.2790  145.2460 C   0  0  0  0  0  1  0  0  0  0  0  0
  161.1920  201.7570  145.9350 O   0  0  0  0  0  0  0  0  0  0  0  0
  1  5  1  0  0  0  0
  2 23  1  1  0  0  0
  2 12  1  0  0  0  0
  3  2  1  0  0  0  0
  4  1  1  0  0  0  0
  4  3  1  0  0  0  0
  5  2  1  0  0  0  0
  6 10  2  0  0  0  0
  6 14  1  0  0  0  0
  7 18  2  0  0  0  0
  8  7  1  0  0  0  0
  8 19  1  1  0  0  0
  9 17  2  0  0  0  0
 10  8  1  0  0  0  0
 11 14  2  0  0  0  0
 11  9  1  0  0  0  0
 12 13  2  0  0  0  0
 13  9  1  0  0  0  0
 14 16  1  0  0  0  0
 15 12  1  0  0  0  0
 15 11  1  0  0  0  0
 16 17  1  0  0  0  0
 16  7  1  0  0  0  0
 20 10  1  0  0  0  0
 21 20  1  0  0  0  0
 22 23  2  0  0  0  0
 24 23  1  6  0  0  0
 25 27  1  6  0  0  0
 25 26  1  0  0  0  0
 25 24  1  0  0  0  0
 26 24  1  0  0  0  0
 28 27  1  0  0  0  0
 29 28  1  0  0  0  0
 31 32  2  0  0  0  0
 32 30  2  0  0  0  0
 32 33  1  0  0  0  0
 33 29  1  0  0  0  0
 34 37  1  6  0  0  0
 34 33  1  0  0  0  0
 35 32  1  0  0  0  0
 35 34  1  0  0  0  0
 36 37  1  0  0  0  0
M  END
>  <MODEL>
9

>  <REMARK>
 VINA RESULT:      -5.9      3.560      8.445
  Name = 
  9 active torsions:
  status: ('A' for Active; 'I' for Inactive)
    1  A    between atoms: C_6  and  C_35
    2  A    between atoms: C_7  and  N_14
    3  A    between atoms: C_7  and  C_22
    4  A    between atoms: C_8  and  C_18
    5  A    between atoms: C_8  and  C_35
    6  A    between atoms: C_9  and  N_33
    7  A    between atoms: C_13  and  O_17
    8  A    between atoms: C_20  and  O_28
    9  A    between atoms: C_22  and  N_33
                            x       y       z     vdW  Elec       q    Type
                         _______ _______ _______ _____ _____    ______ ____

>  <TORSDO>
F 9

$$$$
