=
 OpenBabel11042422483D

 38 40  0  0  1  0  0  0  0  0999 V2000
  161.9710  211.4440  148.2260 C   0  0  0  0  0  0  0  0  0  0  0  0
  161.0270  211.5310  147.3270 N   0  0  0  0  0  0  0  0  0  0  0  0
  162.7220  213.9110  147.8990 C   0  0  0  0  0  2  0  0  0  0  0  0
  163.0590  212.4970  148.3920 C   0  0  0  0  0  2  0  0  0  0  0  0
  160.8610  212.6340  146.3830 C   0  0  2  0  0  3  0  0  0  0  0  0
  160.4450  213.9410  147.1110 C   0  0  2  0  0  3  0  0  0  0  0  0
  161.3460  214.2490  148.2390 N   0  0  0  0  0  2  0  0  0  0  0  0
  162.2400  209.2440  151.2450 N   0  0  0  0  0  0  0  0  0  0  0  0
  162.0720  208.0300  150.7240 N   0  0  0  0  0  0  0  0  0  0  0  0
  161.8350  208.9660  148.5580 C   0  0  0  0  0  3  0  0  0  0  0  0
  162.0090  210.2440  149.0940 C   0  0  0  0  0  0  0  0  0  0  0  0
  161.8750  207.8410  149.3870 C   0  0  0  0  0  0  0  0  0  0  0  0
  162.2220  210.3610  150.4720 C   0  0  0  0  0  3  0  0  0  0  0  0
  161.4200  203.9170  147.6650 C   0  0  0  0  0  0  0  0  0  0  0  0
  161.1700  205.3750  149.5890 C   0  0  0  0  0  0  0  0  0  0  0  0
  162.1310  206.2200  147.5270 C   0  0  0  0  0  3  0  0  0  0  0  0
  161.9770  204.9660  146.9360 C   0  0  0  0  0  3  0  0  0  0  0  0
  160.7370  205.5240  150.9390 N   0  0  0  0  0  1  0  0  0  0  0  0
  161.0240  204.1200  148.9860 C   0  0  0  0  0  3  0  0  0  0  0  0
  161.7300  206.4550  148.8540 C   0  0  0  0  0  0  0  0  0  0  0  0
  161.2380  202.6450  147.0570 N   0  0  0  0  0  1  0  0  0  0  0  0
  158.9720  213.8910  147.5910 C   0  0  2  0  0  3  0  0  0  0  0  0
  156.9070  213.6600  146.6290 C   0  0  0  0  0  1  0  0  0  0  0  0
  158.0690  214.4440  146.6570 O   0  0  0  0  0  0  0  0  0  0  0  0
  158.7380  214.4050  149.0170 C   0  0  0  0  0  2  0  0  0  0  0  0
  158.2760  213.3220  149.8630 N   0  0  0  0  0  2  0  0  0  0  0  0
  159.2070  213.1610  150.8300 O   0  0  0  0  0  0  0  0  0  0  0  0
  158.4750  212.7960  151.9600 C   0  0  0  0  0  2  0  0  0  0  0  0
  159.3900  212.6460  153.1230 C   0  0  0  0  0  0  0  0  0  0  0  0
  160.3630  211.8470  153.0660 O   0  0  0  0  0  0  0  0  0  0  0  0
  159.1910  213.4200  154.2600 O   0  0  0  0  0  1  0  0  0  0  0  0
  159.9290  212.2290  145.2470 C   0  0  0  0  0  2  0  0  0  0  0  0
  160.3730  212.8550  143.9330 C   0  0  1  0  0  3  0  0  0  0  0  0
  162.9930  212.9730  143.8360 N   0  0  0  0  0  0  0  0  0  0  0  0
  161.8370  212.9200  143.8770 C   0  0  0  0  0  0  0  0  0  0  0  0
  159.8870  212.0460  142.8270 N   0  0  0  0  0  2  0  0  0  0  0  0
  159.7100  212.9240  141.6820 C   0  0  0  0  0  2  0  0  0  0  0  0
  159.0650  212.2010  140.6010 N   0  0  0  0  0  1  0  0  0  0  0  0
  1  4  1  0  0  0  0
  1 11  1  0  0  0  0
  2  1  2  0  0  0  0
  3  7  1  0  0  0  0
  3  4  1  0  0  0  0
  5 32  1  6  0  0  0
  5  6  1  0  0  0  0
  5  2  1  0  0  0  0
  6 22  1  1  0  0  0
  6  7  1  0  0  0  0
  9  8  1  0  0  0  0
 10 11  2  0  0  0  0
 10 12  1  0  0  0  0
 11 13  1  0  0  0  0
 12  9  2  0  0  0  0
 13  8  2  0  0  0  0
 14 19  1  0  0  0  0
 15 18  1  0  0  0  0
 16 20  2  0  0  0  0
 17 16  1  0  0  0  0
 17 14  2  0  0  0  0
 19 15  2  0  0  0  0
 20 12  1  0  0  0  0
 20 15  1  0  0  0  0
 21 14  1  0  0  0  0
 22 25  1  1  0  0  0
 23 24  1  0  0  0  0
 24 22  1  0  0  0  0
 25 26  1  0  0  0  0
 26 27  1  0  0  0  0
 27 28  1  0  0  0  0
 28 29  1  0  0  0  0
 29 31  1  0  0  0  0
 30 29  2  0  0  0  0
 33 35  1  1  0  0  0
 33 32  1  0  0  0  0
 34 35  3  0  0  0  0
 36 33  1  0  0  0  0
 37 36  1  0  0  0  0
 38 37  1  0  0  0  0
M  END
>  <MODEL>
1

>  <REMARK>
 VINA RESULT:      -6.4      0.000      0.000
  Name = 
  14 active torsions:
  status: ('A' for Active; 'I' for Inactive)
    1  A    between atoms: N_3  and  C_7
    2  A    between atoms: N_3  and  C_36
    3  A    between atoms: C_5  and  C_6
    4  A    between atoms: C_5  and  O_27
    5  A    between atoms: C_8  and  C_9
    6  A    between atoms: C_8  and  N_37
    7  A    between atoms: C_9  and  O_19
    8  A    between atoms: C_9  and  C_29
    9  A    between atoms: C_12  and  C_36
   10  A    between atoms: C_16  and  C_30
   11  A    between atoms: C_22  and  C_28
   12  A    between atoms: C_22  and  C_36
   13  A    between atoms: O_27  and  N_37
   14  A    between atoms: C_33  and  C_34
                            x       y       z     vdW  Elec       q    Type
                         _______ _______ _______ _____ _____    ______ ____

>  <TORSDO>
F 14

$$$$
=
 OpenBabel11042422483D

 38 40  0  0  1  0  0  0  0  0999 V2000
  161.1180  208.2630  152.0140 C   0  0  0  0  0  0  0  0  0  0  0  0
  160.2440  208.9500  152.6980 N   0  0  0  0  0  0  0  0  0  0  0  0
  162.5240  210.3650  151.4070 C   0  0  0  0  0  2  0  0  0  0  0  0
  162.1460  208.9100  151.0940 C   0  0  0  0  0  2  0  0  0  0  0  0
  160.1350  210.4070  152.7060 C   0  0  2  0  0  3  0  0  0  0  0  0
  161.3610  211.0620  153.3990 C   0  0  2  0  0  3  0  0  0  0  0  0
  162.6340  210.5580  152.8470 N   0  0  0  0  0  2  0  0  0  0  0  0
  161.0600  204.7820  153.3930 N   0  0  0  0  0  0  0  0  0  0  0  0
  160.9980  204.0430  152.2870 N   0  0  0  0  0  0  0  0  0  0  0  0
  161.0160  206.0000  150.9490 C   0  0  0  0  0  3  0  0  0  0  0  0
  161.0800  206.7850  152.1030 C   0  0  0  0  0  0  0  0  0  0  0  0
  160.9830  204.6050  151.0450 C   0  0  0  0  0  0  0  0  0  0  0  0
  161.1090  206.1380  153.3430 C   0  0  0  0  0  3  0  0  0  0  0  0
  160.9530  201.9140  147.6790 C   0  0  0  0  0  0  0  0  0  0  0  0
  161.2650  204.1670  148.5250 C   0  0  0  0  0  0  0  0  0  0  0  0
  160.6330  202.3700  150.0280 C   0  0  0  0  0  3  0  0  0  0  0  0
  160.6360  201.4710  148.9610 C   0  0  0  0  0  3  0  0  0  0  0  0
  161.5980  205.5250  148.2440 N   0  0  0  0  0  1  0  0  0  0  0  0
  161.2600  203.2560  147.4620 C   0  0  0  0  0  3  0  0  0  0  0  0
  160.9500  203.7260  149.8390 C   0  0  0  0  0  0  0  0  0  0  0  0
  160.9820  200.9960  146.5940 N   0  0  0  0  0  1  0  0  0  0  0  0
  161.3230  210.8700  154.9380 C   0  0  2  0  0  3  0  0  0  0  0  0
  161.0230  211.8690  156.9760 C   0  0  0  0  0  1  0  0  0  0  0  0
  160.7060  211.9460  155.6120 O   0  0  0  0  0  0  0  0  0  0  0  0
  162.6590  210.4610  155.5710 C   0  0  0  0  0  2  0  0  0  0  0  0
  162.4290  209.5010  156.6320 N   0  0  0  0  0  2  0  0  0  0  0  0
  162.0020  208.3630  156.0400 O   0  0  0  0  0  0  0  0  0  0  0  0
  161.0980  207.8160  156.9500 C   0  0  0  0  0  2  0  0  0  0  0  0
  159.7240  207.8620  156.3810 C   0  0  0  0  0  0  0  0  0  0  0  0
  159.1490  208.9690  156.2020 O   0  0  0  0  0  1  0  0  0  0  0  0
  159.0920  206.6810  156.0110 O   0  0  0  0  0  0  0  0  0  0  0  0
  158.7900  210.8400  153.2780 C   0  0  0  0  0  2  0  0  0  0  0  0
  158.6200  212.3490  153.1810 C   0  0  1  0  0  3  0  0  0  0  0  0
  158.0260  213.0310  150.7170 N   0  0  0  0  0  0  0  0  0  0  0  0
  158.2860  212.7290  151.8040 C   0  0  0  0  0  0  0  0  0  0  0  0
  157.5460  212.7690  154.0670 N   0  0  0  0  0  2  0  0  0  0  0  0
  156.8730  211.5720  154.5430 C   0  0  0  0  0  2  0  0  0  0  0  0
  155.9370  211.9190  155.5970 N   0  0  0  0  0  1  0  0  0  0  0  0
  1 11  1  0  0  0  0
  1  2  2  0  0  0  0
  2  5  1  0  0  0  0
  3  7  1  0  0  0  0
  4  3  1  0  0  0  0
  4  1  1  0  0  0  0
  5 32  1  1  0  0  0
  5  6  1  0  0  0  0
  6 22  1  1  0  0  0
  7  6  1  0  0  0  0
  9  8  2  0  0  0  0
 10 12  2  0  0  0  0
 10 11  1  0  0  0  0
 11 13  2  0  0  0  0
 12  9  1  0  0  0  0
 13  8  1  0  0  0  0
 14 17  1  0  0  0  0
 15 20  2  0  0  0  0
 17 16  2  0  0  0  0
 18 15  1  0  0  0  0
 19 14  2  0  0  0  0
 19 15  1  0  0  0  0
 20 16  1  0  0  0  0
 20 12  1  0  0  0  0
 21 14  1  0  0  0  0
 22 25  1  1  0  0  0
 22 24  1  0  0  0  0
 24 23  1  0  0  0  0
 25 26  1  0  0  0  0
 27 26  1  0  0  0  0
 27 28  1  0  0  0  0
 29 28  1  0  0  0  0
 30 29  1  0  0  0  0
 31 29  2  0  0  0  0
 33 35  1  6  0  0  0
 33 32  1  0  0  0  0
 33 36  1  0  0  0  0
 34 35  3  0  0  0  0
 36 37  1  0  0  0  0
 37 38  1  0  0  0  0
M  END
>  <MODEL>
2

>  <REMARK>
 VINA RESULT:      -6.3      4.935      7.139
  Name = 
  14 active torsions:
  status: ('A' for Active; 'I' for Inactive)
    1  A    between atoms: N_3  and  C_7
    2  A    between atoms: N_3  and  C_36
    3  A    between atoms: C_5  and  C_6
    4  A    between atoms: C_5  and  O_27
    5  A    between atoms: C_8  and  C_9
    6  A    between atoms: C_8  and  N_37
    7  A    between atoms: C_9  and  O_19
    8  A    between atoms: C_9  and  C_29
    9  A    between atoms: C_12  and  C_36
   10  A    between atoms: C_16  and  C_30
   11  A    between atoms: C_22  and  C_28
   12  A    between atoms: C_22  and  C_36
   13  A    between atoms: O_27  and  N_37
   14  A    between atoms: C_33  and  C_34
                            x       y       z     vdW  Elec       q    Type
                         _______ _______ _______ _____ _____    ______ ____

>  <TORSDO>
F 14

$$$$
=
 OpenBabel11042422483D

 38 40  0  0  1  0  0  0  0  0999 V2000
  161.1450  208.2440  151.9760 C   0  0  0  0  0  0  0  0  0  0  0  0
  160.2570  208.9410  152.6320 N   0  0  0  0  0  0  0  0  0  0  0  0
  162.5800  210.3320  151.3930 C   0  0  0  0  0  2  0  0  0  0  0  0
  162.2020  208.8770  151.0810 C   0  0  0  0  0  2  0  0  0  0  0  0
  160.1560  210.3990  152.6250 C   0  0  2  0  0  3  0  0  0  0  0  0
  161.3670  211.0510  153.3470 C   0  0  2  0  0  3  0  0  0  0  0  0
  162.6520  210.5360  152.8340 N   0  0  0  0  0  2  0  0  0  0  0  0
  161.0560  204.7720  153.3800 N   0  0  0  0  0  0  0  0  0  0  0  0
  160.9920  204.0260  152.2780 N   0  0  0  0  0  0  0  0  0  0  0  0
  161.0280  205.9740  150.9260 C   0  0  0  0  0  3  0  0  0  0  0  0
  161.0950  206.7670  152.0750 C   0  0  0  0  0  0  0  0  0  0  0  0
  160.9830  204.5810  151.0320 C   0  0  0  0  0  0  0  0  0  0  0  0
  161.1150  206.1280  153.3200 C   0  0  0  0  0  3  0  0  0  0  0  0
  160.9440  201.8680  147.6840 C   0  0  0  0  0  0  0  0  0  0  0  0
  161.2570  204.1260  148.5140 C   0  0  0  0  0  0  0  0  0  0  0  0
  160.6330  202.3390  150.0310 C   0  0  0  0  0  3  0  0  0  0  0  0
  160.6320  201.4320  148.9700 C   0  0  0  0  0  3  0  0  0  0  0  0
  161.5880  205.4820  148.2230 N   0  0  0  0  0  1  0  0  0  0  0  0
  161.2490  203.2090  147.4570 C   0  0  0  0  0  3  0  0  0  0  0  0
  160.9470  203.6930  149.8320 C   0  0  0  0  0  0  0  0  0  0  0  0
  160.9700  200.9420  146.6050 N   0  0  0  0  0  1  0  0  0  0  0  0
  161.2860  210.8710  154.8860 C   0  0  2  0  0  3  0  0  0  0  0  0
  161.0500  212.0360  156.8430 C   0  0  0  0  0  1  0  0  0  0  0  0
  160.5840  211.9150  155.5260 O   0  0  0  0  0  0  0  0  0  0  0  0
  162.6200  210.5470  155.5700 C   0  0  0  0  0  2  0  0  0  0  0  0
  162.4200  209.5340  156.5870 N   0  0  0  0  0  2  0  0  0  0  0  0
  161.9770  208.4260  155.9500 O   0  0  0  0  0  0  0  0  0  0  0  0
  161.1130  207.8230  156.8630 C   0  0  0  0  0  2  0  0  0  0  0  0
  159.7210  207.8610  156.3370 C   0  0  0  0  0  0  0  0  0  0  0  0
  159.1530  208.9660  156.1280 O   0  0  0  0  0  1  0  0  0  0  0  0
  159.0640  206.6730  156.0410 O   0  0  0  0  0  0  0  0  0  0  0  0
  158.7990  210.8440  153.1570 C   0  0  0  0  0  2  0  0  0  0  0  0
  158.3430  212.1250  152.4730 C   0  0  1  0  0  3  0  0  0  0  0  0
  157.5740  213.8780  154.2690 N   0  0  0  0  0  0  0  0  0  0  0  0
  157.9130  213.1040  153.4780 C   0  0  0  0  0  0  0  0  0  0  0  0
  159.4450  212.6790  151.7050 N   0  0  0  0  0  2  0  0  0  0  0  0
  158.8780  213.4720  150.6270 C   0  0  0  0  0  2  0  0  0  0  0  0
  159.9030  213.7740  149.6440 N   0  0  0  0  0  1  0  0  0  0  0  0
  1 11  1  0  0  0  0
  1  2  2  0  0  0  0
  3  7  1  0  0  0  0
  4  3  1  0  0  0  0
  4  1  1  0  0  0  0
  5  2  1  0  0  0  0
  5 32  1  1  0  0  0
  5  6  1  0  0  0  0
  6 22  1  1  0  0  0
  7  6  1  0  0  0  0
  9  8  2  0  0  0  0
 10 12  2  0  0  0  0
 10 11  1  0  0  0  0
 11 13  2  0  0  0  0
 12  9  1  0  0  0  0
 13  8  1  0  0  0  0
 14 17  1  0  0  0  0
 15 20  2  0  0  0  0
 17 16  2  0  0  0  0
 18 15  1  0  0  0  0
 19 14  2  0  0  0  0
 19 15  1  0  0  0  0
 20 16  1  0  0  0  0
 20 12  1  0  0  0  0
 21 14  1  0  0  0  0
 22 24  1  0  0  0  0
 22 25  1  1  0  0  0
 24 23  1  0  0  0  0
 25 26  1  0  0  0  0
 27 26  1  0  0  0  0
 27 28  1  0  0  0  0
 29 28  1  0  0  0  0
 30 29  1  0  0  0  0
 31 29  2  0  0  0  0
 33 32  1  1  0  0  0
 33 35  1  0  0  0  0
 35 34  3  0  0  0  0
 36 33  1  0  0  0  0
 37 36  1  0  0  0  0
 38 37  1  0  0  0  0
M  END
>  <MODEL>
3

>  <REMARK>
 VINA RESULT:      -6.2      4.341      6.716
  Name = 
  14 active torsions:
  status: ('A' for Active; 'I' for Inactive)
    1  A    between atoms: N_3  and  C_7
    2  A    between atoms: N_3  and  C_36
    3  A    between atoms: C_5  and  C_6
    4  A    between atoms: C_5  and  O_27
    5  A    between atoms: C_8  and  C_9
    6  A    between atoms: C_8  and  N_37
    7  A    between atoms: C_9  and  O_19
    8  A    between atoms: C_9  and  C_29
    9  A    between atoms: C_12  and  C_36
   10  A    between atoms: C_16  and  C_30
   11  A    between atoms: C_22  and  C_28
   12  A    between atoms: C_22  and  C_36
   13  A    between atoms: O_27  and  N_37
   14  A    between atoms: C_33  and  C_34
                            x       y       z     vdW  Elec       q    Type
                         _______ _______ _______ _____ _____    ______ ____

>  <TORSDO>
F 14

$$$$
=
 OpenBabel11042422483D

 38 40  0  0  1  0  0  0  0  0999 V2000
  161.2080  208.1950  152.0350 C   0  0  0  0  0  0  0  0  0  0  0  0
  160.2690  208.8610  152.6520 N   0  0  0  0  0  0  0  0  0  0  0  0
  162.7090  210.2970  151.7290 C   0  0  0  0  0  2  0  0  0  0  0  0
  162.3490  208.8720  151.2850 C   0  0  0  0  0  2  0  0  0  0  0  0
  160.1830  210.3170  152.7360 C   0  0  2  0  0  3  0  0  0  0  0  0
  161.3270  210.9010  153.6090 C   0  0  2  0  0  3  0  0  0  0  0  0
  162.6490  210.4020  153.1810 N   0  0  0  0  0  2  0  0  0  0  0  0
  161.0640  204.6340  153.1860 N   0  0  0  0  0  0  0  0  0  0  0  0
  160.9930  203.9700  152.0340 N   0  0  0  0  0  0  0  0  0  0  0  0
  161.0630  206.0080  150.8250 C   0  0  0  0  0  3  0  0  0  0  0  0
  161.1360  206.7160  152.0280 C   0  0  0  0  0  0  0  0  0  0  0  0
  160.9980  204.6120  150.8310 C   0  0  0  0  0  0  0  0  0  0  0  0
  161.1420  205.9900  153.2240 C   0  0  0  0  0  3  0  0  0  0  0  0
  160.9250  202.1440  147.2990 C   0  0  0  0  0  0  0  0  0  0  0  0
  161.3220  204.3200  148.2950 C   0  0  0  0  0  0  0  0  0  0  0  0
  160.5680  202.4650  149.6650 C   0  0  0  0  0  3  0  0  0  0  0  0
  160.5540  201.6360  148.5420 C   0  0  0  0  0  3  0  0  0  0  0  0
  161.7270  205.6750  148.1090 N   0  0  0  0  0  1  0  0  0  0  0  0
  161.3010  203.4800  147.1760 C   0  0  0  0  0  3  0  0  0  0  0  0
  160.9540  203.8130  149.5700 C   0  0  0  0  0  0  0  0  0  0  0  0
  160.9370  201.2950  146.1580 N   0  0  0  0  0  1  0  0  0  0  0  0
  161.1040  210.6190  155.1170 C   0  0  2  0  0  3  0  0  0  0  0  0
  161.4980  208.5500  156.0160 C   0  0  0  0  0  1  0  0  0  0  0  0
  160.5460  209.3450  155.3620 O   0  0  0  0  0  0  0  0  0  0  0  0
  160.3880  211.7370  155.8850 C   0  0  0  0  0  2  0  0  0  0  0  0
  159.4480  211.1650  156.8280 N   0  0  0  0  0  2  0  0  0  0  0  0
  158.2150  211.3290  156.2970 O   0  0  0  0  0  0  0  0  0  0  0  0
  157.5170  212.0590  157.2580 C   0  0  0  0  0  2  0  0  0  0  0  0
  156.1020  212.2260  156.8300 C   0  0  0  0  0  0  0  0  0  0  0  0
  155.7820  213.1650  156.0520 O   0  0  0  0  0  0  0  0  0  0  0  0
  155.1400  211.3210  157.2600 O   0  0  0  0  0  1  0  0  0  0  0  0
  158.7860  210.7450  153.1710 C   0  0  0  0  0  2  0  0  0  0  0  0
  158.3600  212.0170  152.4510 C   0  0  1  0  0  3  0  0  0  0  0  0
  158.3300  214.0330  154.1310 N   0  0  0  0  0  0  0  0  0  0  0  0
  158.3450  213.1430  153.3900 C   0  0  0  0  0  0  0  0  0  0  0  0
  159.3010  212.3000  151.3790 N   0  0  0  0  0  2  0  0  0  0  0  0
  158.8050  213.4570  150.6510 C   0  0  0  0  0  2  0  0  0  0  0  0
  159.6660  213.7300  149.5150 N   0  0  0  0  0  1  0  0  0  0  0  0
  1  2  2  0  0  0  0
  2  5  1  0  0  0  0
  3  7  1  0  0  0  0
  4  3  1  0  0  0  0
  4  1  1  0  0  0  0
  5 32  1  1  0  0  0
  5  6  1  0  0  0  0
  6 22  1  1  0  0  0
  7  6  1  0  0  0  0
  8 13  1  0  0  0  0
  9  8  2  0  0  0  0
 10 12  2  0  0  0  0
 10 11  1  0  0  0  0
 11  1  1  0  0  0  0
 11 13  2  0  0  0  0
 12  9  1  0  0  0  0
 14 17  1  0  0  0  0
 15 20  2  0  0  0  0
 17 16  2  0  0  0  0
 18 15  1  0  0  0  0
 19 14  2  0  0  0  0
 19 15  1  0  0  0  0
 20 16  1  0  0  0  0
 20 12  1  0  0  0  0
 21 14  1  0  0  0  0
 22 24  1  0  0  0  0
 22 25  1  6  0  0  0
 24 23  1  0  0  0  0
 25 26  1  0  0  0  0
 27 26  1  0  0  0  0
 27 28  1  0  0  0  0
 29 28  1  0  0  0  0
 29 31  1  0  0  0  0
 30 29  2  0  0  0  0
 33 32  1  1  0  0  0
 33 35  1  0  0  0  0
 35 34  3  0  0  0  0
 36 33  1  0  0  0  0
 37 36  1  0  0  0  0
 38 37  1  0  0  0  0
M  END
>  <MODEL>
4

>  <REMARK>
 VINA RESULT:      -6.0      4.418      6.549
  Name = 
  14 active torsions:
  status: ('A' for Active; 'I' for Inactive)
    1  A    between atoms: N_3  and  C_7
    2  A    between atoms: N_3  and  C_36
    3  A    between atoms: C_5  and  C_6
    4  A    between atoms: C_5  and  O_27
    5  A    between atoms: C_8  and  C_9
    6  A    between atoms: C_8  and  N_37
    7  A    between atoms: C_9  and  O_19
    8  A    between atoms: C_9  and  C_29
    9  A    between atoms: C_12  and  C_36
   10  A    between atoms: C_16  and  C_30
   11  A    between atoms: C_22  and  C_28
   12  A    between atoms: C_22  and  C_36
   13  A    between atoms: O_27  and  N_37
   14  A    between atoms: C_33  and  C_34
                            x       y       z     vdW  Elec       q    Type
                         _______ _______ _______ _____ _____    ______ ____

>  <TORSDO>
F 14

$$$$
=
 OpenBabel11042422483D

 38 40  0  0  1  0  0  0  0  0999 V2000
  161.1830  208.1980  152.6390 C   0  0  0  0  0  0  0  0  0  0  0  0
  160.5230  208.7040  153.6460 N   0  0  0  0  0  0  0  0  0  0  0  0
  162.4400  210.4220  152.1480 C   0  0  0  0  0  2  0  0  0  0  0  0
  161.9640  209.0510  151.6460 C   0  0  0  0  0  2  0  0  0  0  0  0
  160.4520  210.1250  153.9800 C   0  0  2  0  0  3  0  0  0  0  0  0
  161.8260  210.6600  154.4660 C   0  0  2  0  0  3  0  0  0  0  0  0
  162.9100  210.3190  153.5230 N   0  0  0  0  0  2  0  0  0  0  0  0
  161.0770  204.5110  153.2900 N   0  0  0  0  0  0  0  0  0  0  0  0
  161.0360  204.0100  152.0560 N   0  0  0  0  0  0  0  0  0  0  0  0
  161.0940  206.1960  151.1390 C   0  0  0  0  0  3  0  0  0  0  0  0
  161.1360  206.7330  152.4280 C   0  0  0  0  0  0  0  0  0  0  0  0
  161.0510  204.8110  150.9520 C   0  0  0  0  0  0  0  0  0  0  0  0
  161.1330  205.8500  153.5140 C   0  0  0  0  0  3  0  0  0  0  0  0
  161.0860  202.8510  147.1150 C   0  0  0  0  0  0  0  0  0  0  0  0
  161.3800  204.8870  148.4020 C   0  0  0  0  0  0  0  0  0  0  0  0
  160.7230  202.8260  149.5010 C   0  0  0  0  0  3  0  0  0  0  0  0
  160.7460  202.1590  148.2750 C   0  0  0  0  0  3  0  0  0  0  0  0
  161.7170  206.2720  148.4050 N   0  0  0  0  0  1  0  0  0  0  0  0
  161.3960  204.2080  147.1780 C   0  0  0  0  0  3  0  0  0  0  0  0
  161.0420  204.1920  149.5940 C   0  0  0  0  0  0  0  0  0  0  0  0
  161.1360  202.1690  145.8680 N   0  0  0  0  0  1  0  0  0  0  0  0
  162.1700  210.1560  155.8920 C   0  0  2  0  0  3  0  0  0  0  0  0
  161.8020  208.1070  156.8460 C   0  0  0  0  0  1  0  0  0  0  0  0
  161.1860  209.2930  156.4220 O   0  0  0  0  0  0  0  0  0  0  0  0
  162.5940  211.2490  156.8800 C   0  0  0  0  0  2  0  0  0  0  0  0
  163.9810  211.0620  157.2580 N   0  0  0  0  0  2  0  0  0  0  0  0
  164.7190  211.8260  156.4210 O   0  0  0  0  0  0  0  0  0  0  0  0
  165.7860  212.2670  157.2030 C   0  0  0  0  0  2  0  0  0  0  0  0
  166.8700  212.7850  156.3250 C   0  0  0  0  0  0  0  0  0  0  0  0
  166.6930  212.8680  155.0800 O   0  0  0  0  0  0  0  0  0  0  0  0
  168.0650  213.2150  156.8880 O   0  0  0  0  0  1  0  0  0  0  0  0
  159.3020  210.3900  154.9450 C   0  0  0  0  0  2  0  0  0  0  0  0
  158.9550  211.8710  154.9810 C   0  0  1  0  0  3  0  0  0  0  0  0
  158.7820  212.8130  152.5370 N   0  0  0  0  0  0  0  0  0  0  0  0
  158.8600  212.3970  153.6150 C   0  0  0  0  0  0  0  0  0  0  0  0
  157.6780  212.0490  155.6520 N   0  0  0  0  0  2  0  0  0  0  0  0
  156.8340  210.9180  155.3030 C   0  0  0  0  0  2  0  0  0  0  0  0
  155.5800  211.3930  154.7460 N   0  0  0  0  0  1  0  0  0  0  0  0
  1  2  2  0  0  0  0
  2  5  1  0  0  0  0
  3  7  1  0  0  0  0
  4  3  1  0  0  0  0
  4  1  1  0  0  0  0
  5  6  1  0  0  0  0
  5 32  1  1  0  0  0
  6 22  1  1  0  0  0
  7  6  1  0  0  0  0
  8 13  1  0  0  0  0
  9  8  2  0  0  0  0
 10 11  1  0  0  0  0
 11  1  1  0  0  0  0
 11 13  2  0  0  0  0
 12 10  2  0  0  0  0
 12  9  1  0  0  0  0
 14 19  2  0  0  0  0
 14 17  1  0  0  0  0
 15 18  1  0  0  0  0
 15 20  2  0  0  0  0
 16 20  1  0  0  0  0
 17 16  2  0  0  0  0
 19 15  1  0  0  0  0
 20 12  1  0  0  0  0
 21 14  1  0  0  0  0
 22 24  1  0  0  0  0
 22 25  1  1  0  0  0
 24 23  1  0  0  0  0
 25 26  1  0  0  0  0
 27 28  1  0  0  0  0
 27 26  1  0  0  0  0
 29 31  1  0  0  0  0
 29 28  1  0  0  0  0
 30 29  2  0  0  0  0
 32 33  1  0  0  0  0
 33 35  1  6  0  0  0
 33 36  1  0  0  0  0
 34 35  3  0  0  0  0
 37 36  1  0  0  0  0
 38 37  1  0  0  0  0
M  END
>  <MODEL>
5

>  <REMARK>
 VINA RESULT:      -5.9      5.549      7.938
  Name = 
  14 active torsions:
  status: ('A' for Active; 'I' for Inactive)
    1  A    between atoms: N_3  and  C_7
    2  A    between atoms: N_3  and  C_36
    3  A    between atoms: C_5  and  C_6
    4  A    between atoms: C_5  and  O_27
    5  A    between atoms: C_8  and  C_9
    6  A    between atoms: C_8  and  N_37
    7  A    between atoms: C_9  and  O_19
    8  A    between atoms: C_9  and  C_29
    9  A    between atoms: C_12  and  C_36
   10  A    between atoms: C_16  and  C_30
   11  A    between atoms: C_22  and  C_28
   12  A    between atoms: C_22  and  C_36
   13  A    between atoms: O_27  and  N_37
   14  A    between atoms: C_33  and  C_34
                            x       y       z     vdW  Elec       q    Type
                         _______ _______ _______ _____ _____    ______ ____

>  <TORSDO>
F 14

$$$$
=
 OpenBabel11042422483D

 38 40  0  0  1  0  0  0  0  0999 V2000
  160.8460  209.7870  153.4000 C   0  0  0  0  0  0  0  0  0  0  0  0
  159.9890  210.4130  152.6390 N   0  0  0  0  0  0  0  0  0  0  0  0
  161.0540  211.7720  155.0650 C   0  0  0  0  0  2  0  0  0  0  0  0
  161.6530  210.4820  154.4890 C   0  0  0  0  0  2  0  0  0  0  0  0
  159.6640  211.8350  152.7280 C   0  0  2  0  0  3  0  0  0  0  0  0
  158.9050  212.1590  154.0440 C   0  0  2  0  0  3  0  0  0  0  0  0
  159.6120  211.6300  155.2270 N   0  0  0  0  0  2  0  0  0  0  0  0
  161.5440  206.1530  153.9800 N   0  0  0  0  0  0  0  0  0  0  0  0
  161.4910  205.6570  152.7450 N   0  0  0  0  0  0  0  0  0  0  0  0
  161.0230  207.8110  151.8720 C   0  0  0  0  0  3  0  0  0  0  0  0
  161.0750  208.3420  153.1630 C   0  0  0  0  0  0  0  0  0  0  0  0
  161.2420  206.4460  151.6610 C   0  0  0  0  0  0  0  0  0  0  0  0
  161.3510  207.4750  154.2260 C   0  0  0  0  0  3  0  0  0  0  0  0
  161.2980  204.5350  147.7990 C   0  0  0  0  0  0  0  0  0  0  0  0
  161.4220  206.5810  149.0980 C   0  0  0  0  0  0  0  0  0  0  0  0
  161.0690  204.4490  150.2010 C   0  0  0  0  0  3  0  0  0  0  0  0
  161.1030  203.7990  148.9660 C   0  0  0  0  0  3  0  0  0  0  0  0
  161.5950  207.9960  149.1030 N   0  0  0  0  0  1  0  0  0  0  0  0
  161.4510  205.9190  147.8650 C   0  0  0  0  0  3  0  0  0  0  0  0
  161.2320  205.8410  150.2960 C   0  0  0  0  0  0  0  0  0  0  0  0
  161.3590  203.8740  146.5420 N   0  0  0  0  0  1  0  0  0  0  0  0
  157.4440  211.6410  154.0100 C   0  0  2  0  0  3  0  0  0  0  0  0
  157.0200  213.8900  153.9540 C   0  0  0  0  0  1  0  0  0  0  0  0
  156.5200  212.6280  153.6030 O   0  0  0  0  0  0  0  0  0  0  0  0
  156.9940  210.8900  155.2690 C   0  0  0  0  0  2  0  0  0  0  0  0
  155.5500  210.7620  155.2780 N   0  0  0  0  0  2  0  0  0  0  0  0
  155.1030  211.4880  156.3270 O   0  0  0  0  0  0  0  0  0  0  0  0
  156.2560  211.8260  157.0340 C   0  0  0  0  0  2  0  0  0  0  0  0
  156.3720  213.3070  157.1260 C   0  0  0  0  0  0  0  0  0  0  0  0
  155.3400  214.0160  157.2610 O   0  0  0  0  0  1  0  0  0  0  0  0
  157.6270  213.9020  157.1030 O   0  0  0  0  0  0  0  0  0  0  0  0
  158.9500  212.3000  151.4650 C   0  0  0  0  0  2  0  0  0  0  0  0
  159.6250  213.5330  150.8830 C   0  0  1  0  0  3  0  0  0  0  0  0
  161.1870  212.8420  148.8900 N   0  0  0  0  0  0  0  0  0  0  0  0
  160.5000  213.1470  149.7700 C   0  0  0  0  0  0  0  0  0  0  0  0
  158.6100  214.4530  150.3970 N   0  0  0  0  0  2  0  0  0  0  0  0
  157.5210  213.6600  149.8500 C   0  0  0  0  0  2  0  0  0  0  0  0
  156.2570  214.3380  150.0730 N   0  0  0  0  0  1  0  0  0  0  0  0
  1  4  1  0  0  0  0
  2  5  1  0  0  0  0
  2  1  2  0  0  0  0
  3  7  1  0  0  0  0
  4  3  1  0  0  0  0
  5 32  1  6  0  0  0
  5  6  1  0  0  0  0
  6 22  1  6  0  0  0
  6  7  1  0  0  0  0
  8 13  1  0  0  0  0
  9  8  2  0  0  0  0
 10 11  1  0  0  0  0
 11  1  1  0  0  0  0
 11 13  2  0  0  0  0
 12 10  2  0  0  0  0
 12  9  1  0  0  0  0
 14 19  2  0  0  0  0
 14 17  1  0  0  0  0
 15 18  1  0  0  0  0
 15 20  2  0  0  0  0
 16 20  1  0  0  0  0
 17 16  2  0  0  0  0
 19 15  1  0  0  0  0
 20 12  1  0  0  0  0
 21 14  1  0  0  0  0
 22 25  1  1  0  0  0
 24 23  1  0  0  0  0
 24 22  1  0  0  0  0
 25 26  1  0  0  0  0
 26 27  1  0  0  0  0
 27 28  1  0  0  0  0
 28 29  1  0  0  0  0
 29 30  1  0  0  0  0
 31 29  2  0  0  0  0
 33 35  1  6  0  0  0
 33 32  1  0  0  0  0
 34 35  3  0  0  0  0
 36 33  1  0  0  0  0
 37 38  1  0  0  0  0
 37 36  1  0  0  0  0
M  END
>  <MODEL>
6

>  <REMARK>
 VINA RESULT:      -5.7      3.685      5.763
  Name = 
  14 active torsions:
  status: ('A' for Active; 'I' for Inactive)
    1  A    between atoms: N_3  and  C_7
    2  A    between atoms: N_3  and  C_36
    3  A    between atoms: C_5  and  C_6
    4  A    between atoms: C_5  and  O_27
    5  A    between atoms: C_8  and  C_9
    6  A    between atoms: C_8  and  N_37
    7  A    between atoms: C_9  and  O_19
    8  A    between atoms: C_9  and  C_29
    9  A    between atoms: C_12  and  C_36
   10  A    between atoms: C_16  and  C_30
   11  A    between atoms: C_22  and  C_28
   12  A    between atoms: C_22  and  C_36
   13  A    between atoms: O_27  and  N_37
   14  A    between atoms: C_33  and  C_34
                            x       y       z     vdW  Elec       q    Type
                         _______ _______ _______ _____ _____    ______ ____

>  <TORSDO>
F 14

$$$$
=
 OpenBabel11042422483D

 38 40  0  0  1  0  0  0  0  0999 V2000
  161.1910  209.3130  152.6270 C   0  0  0  0  0  0  0  0  0  0  0  0
  160.0930  209.9920  152.4340 N   0  0  0  0  0  0  0  0  0  0  0  0
  162.3200  211.2270  153.9760 C   0  0  0  0  0  2  0  0  0  0  0  0
  162.4760  209.9430  153.1500 C   0  0  0  0  0  2  0  0  0  0  0  0
  159.9240  211.4180  152.7040 C   0  0  2  0  0  3  0  0  0  0  0  0
  159.9730  211.7130  154.2280 C   0  0  2  0  0  3  0  0  0  0  0  0
  161.1680  211.1190  154.8620 N   0  0  0  0  0  2  0  0  0  0  0  0
  161.1360  205.5800  152.9290 N   0  0  0  0  0  0  0  0  0  0  0  0
  161.2040  205.1950  151.6550 N   0  0  0  0  0  0  0  0  0  0  0  0
  161.2720  207.4570  150.9480 C   0  0  0  0  0  3  0  0  0  0  0  0
  161.2000  207.8730  152.2800 C   0  0  0  0  0  0  0  0  0  0  0  0
  161.2820  206.0940  150.6340 C   0  0  0  0  0  0  0  0  0  0  0  0
  161.1380  206.8930  153.2770 C   0  0  0  0  0  3  0  0  0  0  0  0
  161.6980  204.5140  146.6460 C   0  0  0  0  0  0  0  0  0  0  0  0
  161.6030  206.4500  148.1060 C   0  0  0  0  0  0  0  0  0  0  0  0
  161.3350  204.2170  149.0140 C   0  0  0  0  0  3  0  0  0  0  0  0
  161.4860  203.6740  147.7370 C   0  0  0  0  0  3  0  0  0  0  0  0
  161.6770  207.8690  148.2320 N   0  0  0  0  0  1  0  0  0  0  0  0
  161.7500  205.8950  146.8290 C   0  0  0  0  0  3  0  0  0  0  0  0
  161.3940  205.6040  149.2280 C   0  0  0  0  0  0  0  0  0  0  0  0
  161.8790  203.9640  145.3480 N   0  0  0  0  0  1  0  0  0  0  0  0
  158.6850  211.2390  154.9490 C   0  0  2  0  0  3  0  0  0  0  0  0
  156.4950  211.8800  155.1400 C   0  0  0  0  0  1  0  0  0  0  0  0
  157.8230  212.3030  155.2920 O   0  0  0  0  0  0  0  0  0  0  0  0
  158.9150  210.2650  156.1110 C   0  0  0  0  0  2  0  0  0  0  0  0
  159.0290  208.9110  155.6060 N   0  0  0  0  0  2  0  0  0  0  0  0
  159.6310  208.1840  156.5740 O   0  0  0  0  0  0  0  0  0  0  0  0
  160.4770  209.0900  157.2140 C   0  0  0  0  0  2  0  0  0  0  0  0
  161.8940  208.6900  157.0010 C   0  0  0  0  0  0  0  0  0  0  0  0
  162.1690  207.5430  156.5590 O   0  0  0  0  0  0  0  0  0  0  0  0
  162.9120  209.6010  157.2560 O   0  0  0  0  0  1  0  0  0  0  0  0
  158.6790  211.9510  152.0050 C   0  0  0  0  0  2  0  0  0  0  0  0
  158.9460  213.3180  151.3900 C   0  0  1  0  0  3  0  0  0  0  0  0
  160.7100  213.1060  149.4580 N   0  0  0  0  0  0  0  0  0  0  0  0
  159.9320  213.1980  150.3110 C   0  0  0  0  0  0  0  0  0  0  0  0
  157.7070  213.8510  150.8490 N   0  0  0  0  0  2  0  0  0  0  0  0
  157.6050  213.4140  149.4660 C   0  0  0  0  0  2  0  0  0  0  0  0
  156.3950  213.9500  148.8680 N   0  0  0  0  0  1  0  0  0  0  0  0
  1  4  1  0  0  0  0
  2  1  2  0  0  0  0
  2  5  1  0  0  0  0
  3  7  1  0  0  0  0
  4  3  1  0  0  0  0
  5 32  1  1  0  0  0
  5  6  1  0  0  0  0
  6  7  1  0  0  0  0
  6 22  1  1  0  0  0
  8 13  1  0  0  0  0
  9  8  2  0  0  0  0
 10 11  1  0  0  0  0
 11  1  1  0  0  0  0
 11 13  2  0  0  0  0
 12 10  2  0  0  0  0
 12  9  1  0  0  0  0
 14 19  2  0  0  0  0
 14 17  1  0  0  0  0
 15 18  1  0  0  0  0
 15 20  2  0  0  0  0
 16 20  1  0  0  0  0
 17 16  2  0  0  0  0
 19 15  1  0  0  0  0
 20 12  1  0  0  0  0
 21 14  1  0  0  0  0
 22 24  1  0  0  0  0
 22 25  1  1  0  0  0
 23 24  1  0  0  0  0
 26 25  1  0  0  0  0
 26 27  1  0  0  0  0
 27 28  1  0  0  0  0
 29 28  1  0  0  0  0
 29 31  1  0  0  0  0
 30 29  2  0  0  0  0
 33 35  1  6  0  0  0
 33 32  1  0  0  0  0
 34 35  3  0  0  0  0
 36 33  1  0  0  0  0
 37 36  1  0  0  0  0
 38 37  1  0  0  0  0
M  END
>  <MODEL>
7

>  <REMARK>
 VINA RESULT:      -5.1      3.973      5.964
  Name = 
  14 active torsions:
  status: ('A' for Active; 'I' for Inactive)
    1  A    between atoms: N_3  and  C_7
    2  A    between atoms: N_3  and  C_36
    3  A    between atoms: C_5  and  C_6
    4  A    between atoms: C_5  and  O_27
    5  A    between atoms: C_8  and  C_9
    6  A    between atoms: C_8  and  N_37
    7  A    between atoms: C_9  and  O_19
    8  A    between atoms: C_9  and  C_29
    9  A    between atoms: C_12  and  C_36
   10  A    between atoms: C_16  and  C_30
   11  A    between atoms: C_22  and  C_28
   12  A    between atoms: C_22  and  C_36
   13  A    between atoms: O_27  and  N_37
   14  A    between atoms: C_33  and  C_34
                            x       y       z     vdW  Elec       q    Type
                         _______ _______ _______ _____ _____    ______ ____

>  <TORSDO>
F 14

$$$$
=
 OpenBabel11042422483D

 38 40  0  0  1  0  0  0  0  0999 V2000
  161.2860  209.1300  152.8260 C   0  0  0  0  0  0  0  0  0  0  0  0
  160.8590  209.9210  151.8800 N   0  0  0  0  0  0  0  0  0  0  0  0
  161.6190  211.0800  154.5150 C   0  0  0  0  0  2  0  0  0  0  0  0
  161.9560  209.6420  154.0960 C   0  0  0  0  0  2  0  0  0  0  0  0
  160.9350  211.3800  151.9000 C   0  0  2  0  0  3  0  0  0  0  0  0
  159.9930  211.9790  152.9800 C   0  0  2  0  0  3  0  0  0  0  0  0
  160.2040  211.3490  154.2990 N   0  0  0  0  0  2  0  0  0  0  0  0
  160.8140  205.4810  153.5260 N   0  0  0  0  0  0  0  0  0  0  0  0
  160.8880  204.9500  152.3070 N   0  0  0  0  0  0  0  0  0  0  0  0
  161.2290  207.0990  151.3640 C   0  0  0  0  0  3  0  0  0  0  0  0
  161.1510  207.6680  152.6380 C   0  0  0  0  0  0  0  0  0  0  0  0
  161.1020  205.7170  151.1990 C   0  0  0  0  0  0  0  0  0  0  0  0
  160.9460  206.8180  153.7310 C   0  0  0  0  0  3  0  0  0  0  0  0
  161.3350  203.9900  147.2580 C   0  0  0  0  0  0  0  0  0  0  0  0
  161.0940  203.6630  149.6500 C   0  0  0  0  0  0  0  0  0  0  0  0
  161.4020  205.8920  148.7430 C   0  0  0  0  0  3  0  0  0  0  0  0
  161.4610  205.3640  147.4520 C   0  0  0  0  0  3  0  0  0  0  0  0
  160.9000  202.7490  150.7270 N   0  0  0  0  0  1  0  0  0  0  0  0
  161.1580  203.1440  148.3510 C   0  0  0  0  0  3  0  0  0  0  0  0
  161.2140  205.0630  149.8620 C   0  0  0  0  0  0  0  0  0  0  0  0
  161.3680  203.4510  145.9420 N   0  0  0  0  0  1  0  0  0  0  0  0
  158.5030  211.8820  152.5650 C   0  0  2  0  0  3  0  0  0  0  0  0
  157.6160  213.6500  151.4120 C   0  0  0  0  0  1  0  0  0  0  0  0
  158.2550  212.4090  151.2790 O   0  0  0  0  0  0  0  0  0  0  0  0
  157.5040  212.3840  153.6140 C   0  0  0  0  0  2  0  0  0  0  0  0
  157.1750  211.3150  154.5350 N   0  0  0  0  0  2  0  0  0  0  0  0
  155.8370  211.1350  154.4600 O   0  0  0  0  0  0  0  0  0  0  0  0
  155.4660  210.7370  155.7430 C   0  0  0  0  0  2  0  0  0  0  0  0
  155.8350  211.7940  156.7230 C   0  0  0  0  0  0  0  0  0  0  0  0
  156.9920  211.8210  157.2210 O   0  0  0  0  0  1  0  0  0  0  0  0
  154.9110  212.7760  157.0570 O   0  0  0  0  0  0  0  0  0  0  0  0
  160.7200  211.9470  150.5020 C   0  0  0  0  0  2  0  0  0  0  0  0
  161.9590  211.7490  149.6400 C   0  0  1  0  0  3  0  0  0  0  0  0
  161.9540  209.3390  148.6020 N   0  0  0  0  0  0  0  0  0  0  0  0
  161.9550  210.4030  149.0580 C   0  0  0  0  0  0  0  0  0  0  0  0
  161.9620  212.7330  148.5700 N   0  0  0  0  0  2  0  0  0  0  0  0
  160.6590  213.3790  148.5600 C   0  0  0  0  0  2  0  0  0  0  0  0
  159.9070  212.9530  147.3940 N   0  0  0  0  0  1  0  0  0  0  0  0
  1  4  1  0  0  0  0
  2  5  1  0  0  0  0
  2  1  2  0  0  0  0
  4  3  1  0  0  0  0
  5 32  1  6  0  0  0
  5  6  1  0  0  0  0
  6 22  1  6  0  0  0
  6  7  1  0  0  0  0
  7  3  1  0  0  0  0
  8 13  1  0  0  0  0
  9  8  2  0  0  0  0
 10 11  1  0  0  0  0
 11  1  1  0  0  0  0
 11 13  2  0  0  0  0
 12 10  2  0  0  0  0
 12  9  1  0  0  0  0
 14 17  2  0  0  0  0
 14 19  1  0  0  0  0
 15 20  1  0  0  0  0
 15 18  1  0  0  0  0
 16 20  2  0  0  0  0
 17 16  1  0  0  0  0
 19 15  2  0  0  0  0
 20 12  1  0  0  0  0
 21 14  1  0  0  0  0
 22 25  1  1  0  0  0
 24 23  1  0  0  0  0
 24 22  1  0  0  0  0
 25 26  1  0  0  0  0
 27 26  1  0  0  0  0
 27 28  1  0  0  0  0
 28 29  1  0  0  0  0
 29 31  2  0  0  0  0
 29 30  1  0  0  0  0
 33 35  1  6  0  0  0
 33 32  1  0  0  0  0
 34 35  3  0  0  0  0
 36 33  1  0  0  0  0
 37 36  1  0  0  0  0
 38 37  1  0  0  0  0
M  END
>  <MODEL>
8

>  <REMARK>
 VINA RESULT:      -4.9      2.951      4.920
  Name = 
  14 active torsions:
  status: ('A' for Active; 'I' for Inactive)
    1  A    between atoms: N_3  and  C_7
    2  A    between atoms: N_3  and  C_36
    3  A    between atoms: C_5  and  C_6
    4  A    between atoms: C_5  and  O_27
    5  A    between atoms: C_8  and  C_9
    6  A    between atoms: C_8  and  N_37
    7  A    between atoms: C_9  and  O_19
    8  A    between atoms: C_9  and  C_29
    9  A    between atoms: C_12  and  C_36
   10  A    between atoms: C_16  and  C_30
   11  A    between atoms: C_22  and  C_28
   12  A    between atoms: C_22  and  C_36
   13  A    between atoms: O_27  and  N_37
   14  A    between atoms: C_33  and  C_34
                            x       y       z     vdW  Elec       q    Type
                         _______ _______ _______ _____ _____    ______ ____

>  <TORSDO>
F 14

$$$$
=
 OpenBabel11042422483D

 38 40  0  0  1  0  0  0  0  0999 V2000
  161.3200  208.2930  152.5300 C   0  0  0  0  0  0  0  0  0  0  0  0
  160.4840  208.8180  153.3850 N   0  0  0  0  0  0  0  0  0  0  0  0
  162.7070  210.4810  152.3090 C   0  0  0  0  0  2  0  0  0  0  0  0
  162.3070  209.1220  151.7180 C   0  0  0  0  0  2  0  0  0  0  0  0
  160.3840  210.2400  153.7030 C   0  0  2  0  0  3  0  0  0  0  0  0
  161.6460  210.7400  154.4580 C   0  0  2  0  0  3  0  0  0  0  0  0
  162.8880  210.3690  153.7510 N   0  0  0  0  0  2  0  0  0  0  0  0
  161.1950  204.6020  153.1560 N   0  0  0  0  0  0  0  0  0  0  0  0
  161.1870  204.1080  151.9190 N   0  0  0  0  0  0  0  0  0  0  0  0
  161.2700  206.2990  151.0160 C   0  0  0  0  0  3  0  0  0  0  0  0
  161.2770  206.8290  152.3100 C   0  0  0  0  0  0  0  0  0  0  0  0
  161.2320  204.9160  150.8200 C   0  0  0  0  0  0  0  0  0  0  0  0
  161.2460  205.9390  153.3890 C   0  0  0  0  0  3  0  0  0  0  0  0
  161.2380  203.3260  146.8150 C   0  0  0  0  0  0  0  0  0  0  0  0
  160.9710  202.9380  149.1950 C   0  0  0  0  0  0  0  0  0  0  0  0
  161.5400  205.1480  148.3700 C   0  0  0  0  0  3  0  0  0  0  0  0
  161.5290  204.6670  147.0600 C   0  0  0  0  0  3  0  0  0  0  0  0
  160.6730  202.0140  150.2390 N   0  0  0  0  0  1  0  0  0  0  0  0
  160.9660  202.4660  147.8770 C   0  0  0  0  0  3  0  0  0  0  0  0
  161.2580  204.3050  149.4590 C   0  0  0  0  0  0  0  0  0  0  0  0
  161.2010  202.8390  145.4800 N   0  0  0  0  0  1  0  0  0  0  0  0
  161.6820  210.2300  155.9210 C   0  0  2  0  0  3  0  0  0  0  0  0
  160.6750  212.2410  156.3510 C   0  0  0  0  0  1  0  0  0  0  0  0
  160.7680  210.9030  156.7610 O   0  0  0  0  0  0  0  0  0  0  0  0
  163.0830  210.1240  156.5350 C   0  0  0  0  0  2  0  0  0  0  0  0
  163.8220  211.3470  156.2940 N   0  0  0  0  0  2  0  0  0  0  0  0
  164.9370  211.2840  157.0570 O   0  0  0  0  0  0  0  0  0  0  0  0
  165.3270  212.6140  157.2120 C   0  0  0  0  0  2  0  0  0  0  0  0
  166.6400  212.8320  156.5460 C   0  0  0  0  0  0  0  0  0  0  0  0
  167.5610  211.9810  156.6660 O   0  0  0  0  0  1  0  0  0  0  0  0
  166.8340  213.9610  155.7590 O   0  0  0  0  0  0  0  0  0  0  0  0
  159.0710  210.5370  154.4170 C   0  0  0  0  0  2  0  0  0  0  0  0
  158.1740  211.4180  153.5590 C   0  0  1  0  0  3  0  0  0  0  0  0
  156.0170  212.0770  154.9020 N   0  0  0  0  0  0  0  0  0  0  0  0
  156.9690  211.7880  154.3090 C   0  0  0  0  0  0  0  0  0  0  0  0
  158.8970  212.6240  153.1890 N   0  0  0  0  0  2  0  0  0  0  0  0
  157.9150  213.6290  152.8130 C   0  0  0  0  0  2  0  0  0  0  0  0
  157.9140  213.8020  151.3720 N   0  0  0  0  0  1  0  0  0  0  0  0
  1  2  2  0  0  0  0
  2  5  1  0  0  0  0
  3  7  1  0  0  0  0
  4  3  1  0  0  0  0
  4  1  1  0  0  0  0
  5 32  1  1  0  0  0
  5  6  1  0  0  0  0
  6 22  1  1  0  0  0
  7  6  1  0  0  0  0
  8 13  1  0  0  0  0
  9  8  2  0  0  0  0
 10 11  1  0  0  0  0
 11  1  1  0  0  0  0
 11 13  2  0  0  0  0
 12 10  2  0  0  0  0
 12  9  1  0  0  0  0
 14 17  2  0  0  0  0
 14 19  1  0  0  0  0
 15 20  1  0  0  0  0
 15 18  1  0  0  0  0
 16 20  2  0  0  0  0
 17 16  1  0  0  0  0
 19 15  2  0  0  0  0
 20 12  1  0  0  0  0
 21 14  1  0  0  0  0
 22 25  1  1  0  0  0
 22 24  1  0  0  0  0
 23 24  1  0  0  0  0
 26 25  1  0  0  0  0
 26 27  1  0  0  0  0
 27 28  1  0  0  0  0
 29 30  1  0  0  0  0
 29 28  1  0  0  0  0
 31 29  2  0  0  0  0
 33 35  1  1  0  0  0
 33 32  1  0  0  0  0
 35 34  3  0  0  0  0
 36 33  1  0  0  0  0
 37 36  1  0  0  0  0
 38 37  1  0  0  0  0
M  END
>  <MODEL>
9

>  <REMARK>
 VINA RESULT:      -4.7      5.471      7.498
  Name = 
  14 active torsions:
  status: ('A' for Active; 'I' for Inactive)
    1  A    between atoms: N_3  and  C_7
    2  A    between atoms: N_3  and  C_36
    3  A    between atoms: C_5  and  C_6
    4  A    between atoms: C_5  and  O_27
    5  A    between atoms: C_8  and  C_9
    6  A    between atoms: C_8  and  N_37
    7  A    between atoms: C_9  and  O_19
    8  A    between atoms: C_9  and  C_29
    9  A    between atoms: C_12  and  C_36
   10  A    between atoms: C_16  and  C_30
   11  A    between atoms: C_22  and  C_28
   12  A    between atoms: C_22  and  C_36
   13  A    between atoms: O_27  and  N_37
   14  A    between atoms: C_33  and  C_34
                            x       y       z     vdW  Elec       q    Type
                         _______ _______ _______ _____ _____    ______ ____

>  <TORSDO>
F 14

$$$$
