=
 OpenBabel11042421113D

 28 31  0  0  1  0  0  0  0  0999 V2000
  161.0340  202.8170  148.4240 C   0  0  0  0  0  0  0  0  0  0  0  0
  161.0790  206.0090  150.3480 N   0  0  0  0  0  0  0  0  0  0  0  0
  161.3040  207.2830  150.2170 C   0  0  0  0  0  0  0  0  0  0  0  0
  162.1340  210.3340  148.6390 O   0  0  0  0  0  0  0  0  0  0  0  0
  161.3870  203.2670  147.1900 N   0  0  0  0  0  0  0  0  0  0  0  0
  161.8350  206.9610  147.6950 C   0  0  0  0  0  2  0  0  0  0  0  0
  161.5490  205.5160  147.9800 C   0  0  0  0  0  0  0  0  0  0  0  0
  161.9190  209.1220  148.7670 C   0  0  0  0  0  0  0  0  0  0  0  0
  160.9280  203.7280  149.4870 C   0  0  0  0  0  3  0  0  0  0  0  0
  161.1870  205.0800  149.2640 C   0  0  0  0  0  0  0  0  0  0  0  0
  161.6430  204.5810  146.9480 C   0  0  0  0  0  3  0  0  0  0  0  0
  161.1750  208.1460  151.3510 N   0  0  0  0  0  0  0  0  0  0  0  0
  161.6930  207.8440  148.9020 C   0  0  0  0  0  0  0  0  0  0  0  0
  161.5080  209.7310  153.8260 N   0  0  0  0  0  0  0  0  0  0  0  0
  160.6150  207.8620  154.9040 O   0  0  0  0  0  0  0  0  0  0  0  0
  161.8780  210.3320  152.6690 O   0  0  0  0  0  1  0  0  0  0  0  0
  160.8090  207.6480  152.6090 N   0  0  0  0  0  0  0  0  0  0  0  0
  160.9660  208.3980  153.8190 C   0  0  0  0  0  0  0  0  0  0  0  0
  161.6530  210.4370  155.1000 C   0  0  0  0  0  2  0  0  0  0  0  0
  158.2450  211.6220  156.5880 N   0  0  0  0  0  0  0  0  0  0  0  0
  159.5520  210.9010  156.3680 C   0  0  1  0  0  0  0  0  0  0  0  0
  158.4170  210.7900  155.4260 C   0  0  0  0  0  2  0  0  0  0  0  0
  158.2630  212.8970  156.1160 O   0  0  0  0  0  1  0  0  0  0  0  0
  160.5420  211.4530  155.3240 C   0  0  1  0  0  3  0  0  0  0  0  0
  160.6210  211.9700  156.6970 C   0  0  0  0  0  2  0  0  0  0  0  0
  160.7840  201.4520  148.6010 O   0  0  0  0  0  0  0  0  0  0  0  0
  161.6010  199.6870  146.9850 N   0  0  0  0  0  0  0  0  0  0  0  0
  161.2280  200.4950  147.7250 C   0  0  0  0  0  0  0  0  0  0  0  0
  1 26  1  0  0  0  0
  1  9  1  0  0  0  0
  3  2  2  0  0  0  0
  3 12  1  0  0  0  0
  4  8  2  0  0  0  0
  5  1  2  0  0  0  0
  6  7  1  0  0  0  0
  6 13  1  0  0  0  0
  7 10  1  0  0  0  0
  8 13  2  0  0  0  0
 10  9  2  0  0  0  0
 10  2  1  0  0  0  0
 11  5  1  0  0  0  0
 11  7  2  0  0  0  0
 12 17  2  0  0  0  0
 13  3  1  0  0  0  0
 14 19  1  0  0  0  0
 16 14  1  0  0  0  0
 17 18  1  0  0  0  0
 18 14  1  0  0  0  0
 18 15  2  0  0  0  0
 21 22  1  1  0  0  0
 21 20  1  0  0  0  0
 21 25  1  0  0  0  0
 22 20  1  0  0  0  0
 23 20  1  0  0  0  0
 24 19  1  1  0  0  0
 24 21  1  0  0  0  0
 24 25  1  0  0  0  0
 27 28  3  0  0  0  0
 28 26  1  0  0  0  0
M  END
>  <MODEL>
1

>  <REMARK>
 VINA RESULT:      -8.2      0.000      0.000
  Name = 
  5 active torsions:
  status: ('A' for Active; 'I' for Inactive)
    1  A    between atoms: N_1  and  C_14
    2  A    between atoms: C_2  and  O_19
    3  A    between atoms: C_14  and  C_23
    4  A    between atoms: C_15  and  O_19
    5  A    between atoms: N_24  and  N_25
                            x       y       z     vdW  Elec       q    Type
                         _______ _______ _______ _____ _____    ______ ____

>  <TORSDO>
F 5

$$$$
=
 OpenBabel11042421113D

 28 31  0  0  1  0  0  0  0  0999 V2000
  161.2520  203.6000  147.0530 C   0  0  0  0  0  0  0  0  0  0  0  0
  161.6790  206.2380  149.6520 N   0  0  0  0  0  0  0  0  0  0  0  0
  161.6280  206.4310  150.9360 C   0  0  0  0  0  0  0  0  0  0  0  0
  161.1930  205.6820  154.3630 O   0  0  0  0  0  0  0  0  0  0  0  0
  160.9410  202.5310  147.8350 N   0  0  0  0  0  0  0  0  0  0  0  0
  161.0110  203.9360  151.3170 C   0  0  0  0  0  2  0  0  0  0  0  0
  161.1030  203.8480  149.8220 C   0  0  0  0  0  0  0  0  0  0  0  0
  161.2430  205.5020  153.1390 C   0  0  0  0  0  0  0  0  0  0  0  0
  161.5000  204.8440  147.6530 C   0  0  0  0  0  3  0  0  0  0  0  0
  161.4250  204.9690  149.0400 C   0  0  0  0  0  0  0  0  0  0  0  0
  160.8620  202.6280  149.1890 C   0  0  0  0  0  3  0  0  0  0  0  0
  161.8940  207.7310  151.4690 N   0  0  0  0  0  2  0  0  0  0  0  0
  161.2950  205.3120  151.8490 C   0  0  0  0  0  0  0  0  0  0  0  0
  160.8510  210.4550  151.9580 N   0  0  0  0  0  0  0  0  0  0  0  0
  162.0480  211.0410  150.0410 O   0  0  0  0  0  0  0  0  0  0  0  0
  160.4890  209.5010  152.8510 O   0  0  0  0  0  1  0  0  0  0  0  0
  162.2110  208.8110  150.6340 N   0  0  0  0  0  2  0  0  0  0  0  0
  161.7140  210.1360  150.8520 C   0  0  0  0  0  0  0  0  0  0  0  0
  160.3670  211.8280  152.1150 C   0  0  0  0  0  2  0  0  0  0  0  0
  157.7300  212.7080  154.8540 N   0  0  0  0  0  0  0  0  0  0  0  0
  158.9630  212.7060  153.9850 C   0  0  1  0  0  0  0  0  0  0  0  0
  158.6110  211.5690  154.8630 C   0  0  0  0  0  2  0  0  0  0  0  0
  156.6190  212.2910  154.1910 O   0  0  0  0  0  1  0  0  0  0  0  0
  158.9570  211.8790  152.6830 C   0  0  1  0  0  3  0  0  0  0  0  0
  158.4580  213.2610  152.6320 C   0  0  0  0  0  2  0  0  0  0  0  0
  161.3160  203.4290  145.6660 O   0  0  0  0  0  0  0  0  0  0  0  0
  161.3210  205.3690  144.0450 N   0  0  0  0  0  0  0  0  0  0  0  0
  161.3180  204.4810  144.7870 C   0  0  0  0  0  0  0  0  0  0  0  0
  1  9  1  0  0  0  0
  1  5  2  0  0  0  0
  2  3  2  0  0  0  0
  3 12  1  0  0  0  0
  3 13  1  0  0  0  0
  5 11  1  0  0  0  0
  6 13  1  0  0  0  0
  7  6  1  0  0  0  0
  8  4  2  0  0  0  0
  9 10  2  0  0  0  0
 10  2  1  0  0  0  0
 10  7  1  0  0  0  0
 11  7  2  0  0  0  0
 13  8  2  0  0  0  0
 14 19  1  0  0  0  0
 14 16  1  0  0  0  0
 15 18  2  0  0  0  0
 17 18  1  0  0  0  0
 17 12  1  0  0  0  0
 18 14  1  0  0  0  0
 20 22  1  0  0  0  0
 21 25  1  1  0  0  0
 21 20  1  0  0  0  0
 21 22  1  0  0  0  0
 23 20  1  0  0  0  0
 24 19  1  6  0  0  0
 24 21  1  0  0  0  0
 25 24  1  0  0  0  0
 26  1  1  0  0  0  0
 27 28  3  0  0  0  0
 28 26  1  0  0  0  0
M  END
>  <MODEL>
2

>  <REMARK>
 VINA RESULT:      -8.1      2.166      3.591
  Name = 
  5 active torsions:
  status: ('A' for Active; 'I' for Inactive)
    1  A    between atoms: N_1  and  C_14
    2  A    between atoms: C_2  and  O_19
    3  A    between atoms: C_14  and  C_23
    4  A    between atoms: C_15  and  O_19
    5  A    between atoms: N_24  and  N_25
                            x       y       z     vdW  Elec       q    Type
                         _______ _______ _______ _____ _____    ______ ____

>  <TORSDO>
F 5

$$$$
=
 OpenBabel11042421113D

 28 31  0  0  1  0  0  0  0  0999 V2000
  160.2790  211.3040  156.3460 C   0  0  0  0  0  0  0  0  0  0  0  0
  161.0890  209.2400  153.3490 N   0  0  0  0  0  0  0  0  0  0  0  0
  161.1970  208.0080  152.9510 C   0  0  0  0  0  0  0  0  0  0  0  0
  161.1570  204.4780  153.1220 O   0  0  0  0  0  0  0  0  0  0  0  0
  160.0350  210.3270  157.2600 N   0  0  0  0  0  0  0  0  0  0  0  0
  160.5610  207.1550  155.3210 C   0  0  0  0  0  2  0  0  0  0  0  0
  160.4700  208.6150  155.6510 C   0  0  0  0  0  0  0  0  0  0  0  0
  161.0540  205.6520  153.4980 C   0  0  0  0  0  0  0  0  0  0  0  0
  160.6320  210.9490  155.0350 C   0  0  0  0  0  3  0  0  0  0  0  0
  160.7280  209.6020  154.6870 C   0  0  0  0  0  0  0  0  0  0  0  0
  160.1220  209.0070  156.9450 C   0  0  0  0  0  3  0  0  0  0  0  0
  161.5620  207.7290  151.5970 N   0  0  0  0  0  0  0  0  0  0  0  0
  160.9460  206.8910  153.8940 C   0  0  0  0  0  0  0  0  0  0  0  0
  161.9220  207.2120  148.7060 N   0  0  0  0  0  0  0  0  0  0  0  0
  162.2120  209.5230  148.5350 O   0  0  0  0  0  0  0  0  0  0  0  0
  161.6670  206.1330  149.4860 O   0  0  0  0  0  1  0  0  0  0  0  0
  161.8080  208.7610  150.6800 N   0  0  0  0  0  0  0  0  0  0  0  0
  161.9880  208.5310  149.2790 C   0  0  0  0  0  0  0  0  0  0  0  0
  162.1280  207.0460  147.2670 C   0  0  0  0  0  2  0  0  0  0  0  0
  161.4220  204.3780  144.5080 N   0  0  0  0  0  0  0  0  0  0  0  0
  161.9780  205.5560  145.2680 C   0  0  1  0  0  0  0  0  0  0  0  0
  160.5570  205.4700  144.8690 C   0  0  0  0  0  2  0  0  0  0  0  0
  161.0560  203.3530  145.3220 O   0  0  0  0  0  1  0  0  0  0  0  0
  161.6890  205.6740  146.7780 C   0  0  1  0  0  3  0  0  0  0  0  0
  162.8680  204.9050  146.3540 C   0  0  0  0  0  2  0  0  0  0  0  0
  160.1710  212.6420  156.7400 O   0  0  0  0  0  0  0  0  0  0  0  0
  159.0170  214.3960  155.3310 N   0  0  0  0  0  0  0  0  0  0  0  0
  159.5460  213.5930  155.9750 C   0  0  0  0  0  0  0  0  0  0  0  0
  1 26  1  0  0  0  0
  1  5  2  0  0  0  0
  2 10  1  0  0  0  0
  3  2  2  0  0  0  0
  3 13  1  0  0  0  0
  4  8  2  0  0  0  0
  6  7  1  0  0  0  0
  7 11  2  0  0  0  0
  8 13  2  0  0  0  0
  9  1  1  0  0  0  0
 10  9  2  0  0  0  0
 10  7  1  0  0  0  0
 11  5  1  0  0  0  0
 12  3  1  0  0  0  0
 13  6  1  0  0  0  0
 14 18  1  0  0  0  0
 14 16  1  0  0  0  0
 15 18  2  0  0  0  0
 17 12  2  0  0  0  0
 18 17  1  0  0  0  0
 19 14  1  0  0  0  0
 20 22  1  0  0  0  0
 20 21  1  0  0  0  0
 20 23  1  0  0  0  0
 21 22  1  6  0  0  0
 21 25  1  0  0  0  0
 21 24  1  0  0  0  0
 24 19  1  1  0  0  0
 25 24  1  0  0  0  0
 27 28  3  0  0  0  0
 28 26  1  0  0  0  0
M  END
>  <MODEL>
3

>  <REMARK>
 VINA RESULT:      -7.8      2.470      9.905
  Name = 
  5 active torsions:
  status: ('A' for Active; 'I' for Inactive)
    1  A    between atoms: N_1  and  C_14
    2  A    between atoms: C_2  and  O_19
    3  A    between atoms: C_14  and  C_23
    4  A    between atoms: C_15  and  O_19
    5  A    between atoms: N_24  and  N_25
                            x       y       z     vdW  Elec       q    Type
                         _______ _______ _______ _____ _____    ______ ____

>  <TORSDO>
F 5

$$$$
=
 OpenBabel11042421113D

 28 31  0  0  1  0  0  0  0  0999 V2000
  161.1720  205.3830  148.3680 C   0  0  0  0  0  0  0  0  0  0  0  0
  161.0000  208.0000  151.0170 N   0  0  0  0  0  0  0  0  0  0  0  0
  160.9880  208.1540  152.3080 C   0  0  0  0  0  0  0  0  0  0  0  0
  161.0380  207.2700  155.7300 O   0  0  0  0  0  0  0  0  0  0  0  0
  161.2430  204.2610  149.1340 N   0  0  0  0  0  0  0  0  0  0  0  0
  161.1520  205.5840  152.6470 C   0  0  0  0  0  2  0  0  0  0  0  0
  161.1570  205.5440  151.1470 C   0  0  0  0  0  0  0  0  0  0  0  0
  161.0490  207.1270  154.5010 C   0  0  0  0  0  0  0  0  0  0  0  0
  161.0910  206.6390  148.9910 C   0  0  0  0  0  3  0  0  0  0  0  0
  161.0830  206.7190  150.3820 C   0  0  0  0  0  0  0  0  0  0  0  0
  161.2370  204.3140  150.4930 C   0  0  0  0  0  3  0  0  0  0  0  0
  160.9020  209.4700  152.8640 N   0  0  0  0  0  2  0  0  0  0  0  0
  161.0610  206.9760  153.2040 C   0  0  0  0  0  0  0  0  0  0  0  0
  159.4700  211.9200  153.6970 N   0  0  0  0  0  0  0  0  0  0  0  0
  160.1240  212.7650  151.6210 O   0  0  0  0  0  0  0  0  0  0  0  0
  159.4870  210.8980  154.5870 O   0  0  0  0  0  1  0  0  0  0  0  0
  160.8310  210.6050  152.0460 N   0  0  0  0  0  2  0  0  0  0  0  0
  160.1400  211.7990  152.4290 C   0  0  0  0  0  0  0  0  0  0  0  0
  158.7720  213.1640  154.0210 C   0  0  0  0  0  2  0  0  0  0  0  0
  155.0480  214.3240  154.1600 N   0  0  0  0  0  0  0  0  0  0  0  0
  156.5520  214.2820  154.2690 C   0  0  1  0  0  0  0  0  0  0  0  0
  155.6760  213.3870  155.0540 C   0  0  0  0  0  2  0  0  0  0  0  0
  154.5730  213.5700  153.1330 O   0  0  0  0  0  1  0  0  0  0  0  0
  157.3190  213.1430  153.5690 C   0  0  1  0  0  3  0  0  0  0  0  0
  157.0270  214.3600  152.7980 C   0  0  0  0  0  2  0  0  0  0  0  0
  161.1830  205.2550  146.9750 O   0  0  0  0  0  0  0  0  0  0  0  0
  163.2700  204.6790  145.6690 N   0  0  0  0  0  0  0  0  0  0  0  0
  162.3150  204.9430  146.2670 C   0  0  0  0  0  0  0  0  0  0  0  0
  1  9  1  0  0  0  0
  1  5  2  0  0  0  0
  2  3  2  0  0  0  0
  3 12  1  0  0  0  0
  3 13  1  0  0  0  0
  5 11  1  0  0  0  0
  6 13  1  0  0  0  0
  7  6  1  0  0  0  0
  8  4  2  0  0  0  0
  9 10  2  0  0  0  0
 10  2  1  0  0  0  0
 10  7  1  0  0  0  0
 11  7  2  0  0  0  0
 13  8  2  0  0  0  0
 14 19  1  0  0  0  0
 14 16  1  0  0  0  0
 15 18  2  0  0  0  0
 17 18  1  0  0  0  0
 17 12  1  0  0  0  0
 18 14  1  0  0  0  0
 20 21  1  0  0  0  0
 20 22  1  0  0  0  0
 21 25  1  1  0  0  0
 21 22  1  0  0  0  0
 23 20  1  0  0  0  0
 24 19  1  1  0  0  0
 24 21  1  0  0  0  0
 25 24  1  0  0  0  0
 26  1  1  0  0  0  0
 27 28  3  0  0  0  0
 28 26  1  0  0  0  0
M  END
>  <MODEL>
4

>  <REMARK>
 VINA RESULT:      -7.5      2.765      4.248
  Name = 
  5 active torsions:
  status: ('A' for Active; 'I' for Inactive)
    1  A    between atoms: N_1  and  C_14
    2  A    between atoms: C_2  and  O_19
    3  A    between atoms: C_14  and  C_23
    4  A    between atoms: C_15  and  O_19
    5  A    between atoms: N_24  and  N_25
                            x       y       z     vdW  Elec       q    Type
                         _______ _______ _______ _____ _____    ______ ____

>  <TORSDO>
F 5

$$$$
=
 OpenBabel11042421113D

 28 31  0  0  1  0  0  0  0  0999 V2000
  161.3370  203.3410  148.0450 C   0  0  0  0  0  0  0  0  0  0  0  0
  161.2940  206.3500  150.2460 N   0  0  0  0  0  0  0  0  0  0  0  0
  161.4640  207.6380  150.2260 C   0  0  0  0  0  0  0  0  0  0  0  0
  162.1350  210.8500  148.9110 O   0  0  0  0  0  0  0  0  0  0  0  0
  161.6450  203.9130  146.8500 N   0  0  0  0  0  0  0  0  0  0  0  0
  161.9530  207.5640  147.6750 C   0  0  0  0  0  2  0  0  0  0  0  0
  161.7320  206.0880  147.8350 C   0  0  0  0  0  0  0  0  0  0  0  0
  161.9720  209.6230  148.9340 C   0  0  0  0  0  0  0  0  0  0  0  0
  161.2180  204.1490  149.1870 C   0  0  0  0  0  3  0  0  0  0  0  0
  161.4160  205.5250  149.0810 C   0  0  0  0  0  0  0  0  0  0  0  0
  161.8420  205.2530  146.7230 C   0  0  0  0  0  3  0  0  0  0  0  0
  161.3240  208.3910  151.4340 N   0  0  0  0  0  0  0  0  0  0  0  0
  161.8010  208.3290  148.9590 C   0  0  0  0  0  0  0  0  0  0  0  0
  160.7150  209.9380  153.8800 N   0  0  0  0  0  0  0  0  0  0  0  0
  160.4460  207.8510  154.8910 O   0  0  0  0  0  0  0  0  0  0  0  0
  160.9860  210.6560  152.7630 O   0  0  0  0  0  1  0  0  0  0  0  0
  161.0070  207.7690  152.6490 N   0  0  0  0  0  0  0  0  0  0  0  0
  160.7130  208.4990  153.8440 C   0  0  0  0  0  0  0  0  0  0  0  0
  160.4180  210.6230  155.1390 C   0  0  0  0  0  2  0  0  0  0  0  0
  157.2050  212.4510  156.3890 N   0  0  0  0  0  0  0  0  0  0  0  0
  158.5850  212.1610  155.8530 C   0  0  1  0  0  0  0  0  0  0  0  0
  158.1670  211.7700  157.2160 C   0  0  0  0  0  2  0  0  0  0  0  0
  156.2970  211.4990  156.0460 O   0  0  0  0  0  1  0  0  0  0  0  0
  158.9230  210.7270  155.3980 C   0  0  1  0  0  3  0  0  0  0  0  0
  158.3190  211.6430  154.4190 C   0  0  0  0  0  2  0  0  0  0  0  0
  161.1470  201.9560  148.1040 O   0  0  0  0  0  0  0  0  0  0  0  0
  160.2560  200.7830  150.1580 N   0  0  0  0  0  0  0  0  0  0  0  0
  160.6640  201.3190  149.2180 C   0  0  0  0  0  0  0  0  0  0  0  0
  1 26  1  0  0  0  0
  1  9  1  0  0  0  0
  3  2  2  0  0  0  0
  3 12  1  0  0  0  0
  4  8  2  0  0  0  0
  5  1  2  0  0  0  0
  6  7  1  0  0  0  0
  6 13  1  0  0  0  0
  7 10  1  0  0  0  0
  8 13  2  0  0  0  0
 10  9  2  0  0  0  0
 10  2  1  0  0  0  0
 11  5  1  0  0  0  0
 11  7  2  0  0  0  0
 12 17  2  0  0  0  0
 13  3  1  0  0  0  0
 14 19  1  0  0  0  0
 16 14  1  0  0  0  0
 17 18  1  0  0  0  0
 18 14  1  0  0  0  0
 18 15  2  0  0  0  0
 20 22  1  0  0  0  0
 21 25  1  6  0  0  0
 21 20  1  0  0  0  0
 21 22  1  0  0  0  0
 23 20  1  0  0  0  0
 24 19  1  6  0  0  0
 24 21  1  0  0  0  0
 25 24  1  0  0  0  0
 26 28  1  0  0  0  0
 28 27  3  0  0  0  0
M  END
>  <MODEL>
5

>  <REMARK>
 VINA RESULT:      -7.3      1.178      1.376
  Name = 
  5 active torsions:
  status: ('A' for Active; 'I' for Inactive)
    1  A    between atoms: N_1  and  C_14
    2  A    between atoms: C_2  and  O_19
    3  A    between atoms: C_14  and  C_23
    4  A    between atoms: C_15  and  O_19
    5  A    between atoms: N_24  and  N_25
                            x       y       z     vdW  Elec       q    Type
                         _______ _______ _______ _____ _____    ______ ____

>  <TORSDO>
F 5

$$$$
=
 OpenBabel11042421113D

 28 31  0  0  1  0  0  0  0  0999 V2000
  161.6110  204.5560  147.1510 C   0  0  0  0  0  0  0  0  0  0  0  0
  161.8820  208.0080  148.5340 N   0  0  0  0  0  0  0  0  0  0  0  0
  161.7260  208.6890  149.6300 C   0  0  0  0  0  0  0  0  0  0  0  0
  160.9790  209.3410  153.0230 O   0  0  0  0  0  0  0  0  0  0  0  0
  161.2070  203.8780  148.2580 N   0  0  0  0  0  0  0  0  0  0  0  0
  161.0140  206.5380  150.9020 C   0  0  0  0  0  2  0  0  0  0  0  0
  161.2310  205.8710  149.5750 C   0  0  0  0  0  0  0  0  0  0  0  0
  161.1290  208.6950  151.9780 C   0  0  0  0  0  0  0  0  0  0  0  0
  161.8390  205.9390  147.2350 C   0  0  0  0  0  3  0  0  0  0  0  0
  161.6490  206.5970  148.4490 C   0  0  0  0  0  0  0  0  0  0  0  0
  161.0140  204.4980  149.4530 C   0  0  0  0  0  3  0  0  0  0  0  0
  161.9790  210.0970  149.6330 N   0  0  0  0  0  2  0  0  0  0  0  0
  161.2870  208.0150  150.8750 C   0  0  0  0  0  0  0  0  0  0  0  0
  161.1550  212.8750  149.0390 N   0  0  0  0  0  0  0  0  0  0  0  0
  162.4230  212.6220  147.0950 O   0  0  0  0  0  0  0  0  0  0  0  0
  160.7050  212.3470  150.2040 O   0  0  0  0  0  1  0  0  0  0  0  0
  162.3950  210.7650  148.4730 N   0  0  0  0  0  2  0  0  0  0  0  0
  162.0040  212.1080  148.1660 C   0  0  0  0  0  0  0  0  0  0  0  0
  160.7830  214.2380  148.6590 C   0  0  0  0  0  2  0  0  0  0  0  0
  157.7460  212.6390  146.8020 N   0  0  0  0  0  0  0  0  0  0  0  0
  158.9400  212.8530  147.6980 C   0  0  1  0  0  0  0  0  0  0  0  0
  159.0310  212.9330  146.2240 C   0  0  0  0  0  2  0  0  0  0  0  0
  157.0120  213.7700  146.6270 O   0  0  0  0  0  1  0  0  0  0  0  0
  159.4410  214.2900  147.9440 C   0  0  1  0  0  3  0  0  0  0  0  0
  158.3940  213.7580  148.8280 C   0  0  0  0  0  2  0  0  0  0  0  0
  161.7900  203.8550  145.9540 O   0  0  0  0  0  0  0  0  0  0  0  0
  160.4100  201.8310  145.3310 N   0  0  0  0  0  0  0  0  0  0  0  0
  161.0410  202.7570  145.6170 C   0  0  0  0  0  0  0  0  0  0  0  0
  1  9  1  0  0  0  0
  1  5  2  0  0  0  0
  2  3  2  0  0  0  0
  3 12  1  0  0  0  0
  3 13  1  0  0  0  0
  5 11  1  0  0  0  0
  7  6  1  0  0  0  0
  8  4  2  0  0  0  0
  9 10  2  0  0  0  0
 10  2  1  0  0  0  0
 10  7  1  0  0  0  0
 11  7  2  0  0  0  0
 13  6  1  0  0  0  0
 13  8  2  0  0  0  0
 14 16  1  0  0  0  0
 15 18  2  0  0  0  0
 17 12  1  0  0  0  0
 18 17  1  0  0  0  0
 18 14  1  0  0  0  0
 19 14  1  0  0  0  0
 20 21  1  0  0  0  0
 21 22  1  1  0  0  0
 21 24  1  0  0  0  0
 21 25  1  0  0  0  0
 22 20  1  0  0  0  0
 23 20  1  0  0  0  0
 24 19  1  1  0  0  0
 24 25  1  0  0  0  0
 26  1  1  0  0  0  0
 27 28  3  0  0  0  0
 28 26  1  0  0  0  0
M  END
>  <MODEL>
6

>  <REMARK>
 VINA RESULT:      -7.3      3.618      5.619
  Name = 
  5 active torsions:
  status: ('A' for Active; 'I' for Inactive)
    1  A    between atoms: N_1  and  C_14
    2  A    between atoms: C_2  and  O_19
    3  A    between atoms: C_14  and  C_23
    4  A    between atoms: C_15  and  O_19
    5  A    between atoms: N_24  and  N_25
                            x       y       z     vdW  Elec       q    Type
                         _______ _______ _______ _____ _____    ______ ____

>  <TORSDO>
F 5

$$$$
=
 OpenBabel11042421113D

 28 31  0  0  1  0  0  0  0  0999 V2000
  161.0050  201.5430  148.1040 C   0  0  0  0  0  0  0  0  0  0  0  0
  161.2670  205.0410  149.3670 N   0  0  0  0  0  0  0  0  0  0  0  0
  161.2820  205.7370  150.4650 C   0  0  0  0  0  0  0  0  0  0  0  0
  161.1920  206.4190  153.9320 O   0  0  0  0  0  0  0  0  0  0  0  0
  160.8920  200.8650  149.2780 N   0  0  0  0  0  0  0  0  0  0  0  0
  161.0240  203.5710  151.8770 C   0  0  0  0  0  2  0  0  0  0  0  0
  161.0210  202.8880  150.5420 C   0  0  0  0  0  0  0  0  0  0  0  0
  161.1780  205.7600  152.8850 C   0  0  0  0  0  0  0  0  0  0  0  0
  161.1310  202.9410  148.1250 C   0  0  0  0  0  3  0  0  0  0  0  0
  161.1390  203.6150  149.3460 C   0  0  0  0  0  0  0  0  0  0  0  0
  160.8970  201.5000  150.4810 C   0  0  0  0  0  3  0  0  0  0  0  0
  161.4140  207.1600  150.4010 N   0  0  0  0  0  0  0  0  0  0  0  0
  161.1630  205.0640  151.7800 C   0  0  0  0  0  0  0  0  0  0  0  0
  161.9060  210.0720  150.2360 N   0  0  0  0  0  0  0  0  0  0  0  0
  161.8430  209.7470  147.9240 O   0  0  0  0  0  0  0  0  0  0  0  0
  161.8370  209.5400  151.4810 O   0  0  0  0  0  1  0  0  0  0  0  0
  161.5290  207.8270  149.1740 N   0  0  0  0  0  0  0  0  0  0  0  0
  161.7630  209.2360  149.0730 C   0  0  0  0  0  0  0  0  0  0  0  0
  162.1310  211.5070  150.0610 C   0  0  0  0  0  2  0  0  0  0  0  0
  160.8330  214.1660  147.5160 N   0  0  0  0  0  0  0  0  0  0  0  0
  161.4620  213.5030  148.7160 C   0  0  1  0  0  0  0  0  0  0  0  0
  160.0200  213.3830  148.4090 C   0  0  0  0  0  2  0  0  0  0  0  0
  160.9390  213.4180  146.3860 O   0  0  0  0  0  1  0  0  0  0  0  0
  161.7370  211.9860  148.6720 C   0  0  1  0  0  3  0  0  0  0  0  0
  162.7700  212.8960  148.1560 C   0  0  0  0  0  2  0  0  0  0  0  0
  160.9930  200.8260  146.9030 O   0  0  0  0  0  0  0  0  0  0  0  0
  159.8970  201.6980  144.7990 N   0  0  0  0  0  0  0  0  0  0  0  0
  160.3990  201.2980  145.7620 C   0  0  0  0  0  0  0  0  0  0  0  0
  1  9  1  0  0  0  0
  1  5  2  0  0  0  0
  2  3  2  0  0  0  0
  3 13  1  0  0  0  0
  5 11  1  0  0  0  0
  7  6  1  0  0  0  0
  8  4  2  0  0  0  0
  9 10  2  0  0  0  0
 10  2  1  0  0  0  0
 10  7  1  0  0  0  0
 11  7  2  0  0  0  0
 12  3  1  0  0  0  0
 13  6  1  0  0  0  0
 13  8  2  0  0  0  0
 14 16  1  0  0  0  0
 15 18  2  0  0  0  0
 17 12  2  0  0  0  0
 18 17  1  0  0  0  0
 18 14  1  0  0  0  0
 19 14  1  0  0  0  0
 20 22  1  0  0  0  0
 20 21  1  0  0  0  0
 21 25  1  1  0  0  0
 22 21  1  0  0  0  0
 23 20  1  0  0  0  0
 24 21  1  0  0  0  0
 24 19  1  1  0  0  0
 25 24  1  0  0  0  0
 26  1  1  0  0  0  0
 27 28  3  0  0  0  0
 28 26  1  0  0  0  0
M  END
>  <MODEL>
7

>  <REMARK>
 VINA RESULT:      -7.1      3.612      5.278
  Name = 
  5 active torsions:
  status: ('A' for Active; 'I' for Inactive)
    1  A    between atoms: N_1  and  C_14
    2  A    between atoms: C_2  and  O_19
    3  A    between atoms: C_14  and  C_23
    4  A    between atoms: C_15  and  O_19
    5  A    between atoms: N_24  and  N_25
                            x       y       z     vdW  Elec       q    Type
                         _______ _______ _______ _____ _____    ______ ____

>  <TORSDO>
F 5

$$$$
=
 OpenBabel11042421113D

 28 31  0  0  1  0  0  0  0  0999 V2000
  160.9480  202.3750  148.7430 C   0  0  0  0  0  0  0  0  0  0  0  0
  161.4570  205.9330  149.7320 N   0  0  0  0  0  0  0  0  0  0  0  0
  161.4890  206.7150  150.7690 C   0  0  0  0  0  0  0  0  0  0  0  0
  161.3250  207.6910  154.1620 O   0  0  0  0  0  0  0  0  0  0  0  0
  160.7320  201.8090  149.9620 N   0  0  0  0  0  0  0  0  0  0  0  0
  160.9940  204.7040  152.3380 C   0  0  0  0  0  2  0  0  0  0  0  0
  160.9840  203.9140  151.0630 C   0  0  0  0  0  0  0  0  0  0  0  0
  161.2950  206.9490  153.1720 C   0  0  0  0  0  0  0  0  0  0  0  0
  161.1910  203.7550  148.6580 C   0  0  0  0  0  3  0  0  0  0  0  0
  161.2090  204.5250  149.8190 C   0  0  0  0  0  0  0  0  0  0  0  0
  160.7450  202.5400  151.1090 C   0  0  0  0  0  3  0  0  0  0  0  0
  161.7440  208.1120  150.5970 N   0  0  0  0  0  0  0  0  0  0  0  0
  161.2630  206.1670  152.1280 C   0  0  0  0  0  0  0  0  0  0  0  0
  161.6120  211.0250  150.1030 N   0  0  0  0  0  0  0  0  0  0  0  0
  162.1010  210.4690  147.8890 O   0  0  0  0  0  0  0  0  0  0  0  0
  161.4050  210.6190  151.3800 O   0  0  0  0  0  1  0  0  0  0  0  0
  161.9610  208.6630  149.3270 N   0  0  0  0  0  0  0  0  0  0  0  0
  161.8980  210.0690  149.0670 C   0  0  0  0  0  0  0  0  0  0  0  0
  161.5500  212.4480  149.7660 C   0  0  0  0  0  2  0  0  0  0  0  0
  158.4960  214.4260  151.1810 N   0  0  0  0  0  0  0  0  0  0  0  0
  159.8980  213.9550  150.8800 C   0  0  1  0  0  0  0  0  0  0  0  0
  158.9130  213.1090  151.5860 C   0  0  0  0  0  2  0  0  0  0  0  0
  157.6400  214.2230  150.1450 O   0  0  0  0  0  1  0  0  0  0  0  0
  160.1190  212.9660  149.7180 C   0  0  1  0  0  3  0  0  0  0  0  0
  160.1290  214.4050  149.4170 C   0  0  0  0  0  2  0  0  0  0  0  0
  160.9210  201.5630  147.6050 O   0  0  0  0  0  0  0  0  0  0  0  0
  160.7750  202.4970  145.2600 N   0  0  0  0  0  0  0  0  0  0  0  0
  160.8410  202.0690  146.3330 C   0  0  0  0  0  0  0  0  0  0  0  0
  1  5  2  0  0  0  0
  2 10  1  0  0  0  0
  2  3  2  0  0  0  0
  3 13  1  0  0  0  0
  5 11  1  0  0  0  0
  7 11  2  0  0  0  0
  7  6  1  0  0  0  0
  8  4  2  0  0  0  0
  9  1  1  0  0  0  0
  9 10  2  0  0  0  0
 10  7  1  0  0  0  0
 12  3  1  0  0  0  0
 13  6  1  0  0  0  0
 13  8  2  0  0  0  0
 14 16  1  0  0  0  0
 15 18  2  0  0  0  0
 17 12  2  0  0  0  0
 18 17  1  0  0  0  0
 18 14  1  0  0  0  0
 19 14  1  0  0  0  0
 20 22  1  0  0  0  0
 21 25  1  1  0  0  0
 21 20  1  0  0  0  0
 21 22  1  0  0  0  0
 23 20  1  0  0  0  0
 24 19  1  1  0  0  0
 24 21  1  0  0  0  0
 25 24  1  0  0  0  0
 26  1  1  0  0  0  0
 27 28  3  0  0  0  0
 28 26  1  0  0  0  0
M  END
>  <MODEL>
8

>  <REMARK>
 VINA RESULT:      -7.0      3.058      4.411
  Name = 
  5 active torsions:
  status: ('A' for Active; 'I' for Inactive)
    1  A    between atoms: N_1  and  C_14
    2  A    between atoms: C_2  and  O_19
    3  A    between atoms: C_14  and  C_23
    4  A    between atoms: C_15  and  O_19
    5  A    between atoms: N_24  and  N_25
                            x       y       z     vdW  Elec       q    Type
                         _______ _______ _______ _____ _____    ______ ____

>  <TORSDO>
F 5

$$$$
=
 OpenBabel11042421113D

 28 31  0  0  1  0  0  0  0  0999 V2000
  161.0600  203.1820  149.6150 C   0  0  0  0  0  0  0  0  0  0  0  0
  161.5300  206.5760  151.0830 N   0  0  0  0  0  0  0  0  0  0  0  0
  161.5280  207.2130  152.2160 C   0  0  0  0  0  0  0  0  0  0  0  0
  161.2600  207.7280  155.7030 O   0  0  0  0  0  0  0  0  0  0  0  0
  160.8100  202.4590  150.7400 N   0  0  0  0  0  0  0  0  0  0  0  0
  160.9920  205.0110  153.4880 C   0  0  0  0  0  2  0  0  0  0  0  0
  161.0220  204.3980  152.1190 C   0  0  0  0  0  0  0  0  0  0  0  0
  161.2610  207.1250  154.6220 C   0  0  0  0  0  0  0  0  0  0  0  0
  161.3020  204.5610  149.7210 C   0  0  0  0  0  3  0  0  0  0  0  0
  161.2830  205.1700  150.9750 C   0  0  0  0  0  0  0  0  0  0  0  0
  160.7860  203.0310  151.9740 C   0  0  0  0  0  3  0  0  0  0  0  0
  161.7840  208.6200  152.2390 N   0  0  0  0  0  2  0  0  0  0  0  0
  161.2630  206.4890  153.4820 C   0  0  0  0  0  0  0  0  0  0  0  0
  160.6240  211.2950  151.7440 N   0  0  0  0  0  0  0  0  0  0  0  0
  161.7630  211.1900  149.7080 O   0  0  0  0  0  0  0  0  0  0  0  0
  160.3220  210.7170  152.9320 O   0  0  0  0  0  1  0  0  0  0  0  0
  162.0380  209.3350  151.0610 N   0  0  0  0  0  2  0  0  0  0  0  0
  161.4840  210.6290  150.8010 C   0  0  0  0  0  0  0  0  0  0  0  0
  160.0810  212.6130  151.4090 C   0  0  0  0  0  2  0  0  0  0  0  0
  157.5490  214.4530  153.7400 N   0  0  0  0  0  0  0  0  0  0  0  0
  158.7260  214.1370  152.8510 C   0  0  1  0  0  0  0  0  0  0  0  0
  158.5100  213.4630  154.1490 C   0  0  0  0  0  2  0  0  0  0  0  0
  156.4350  213.7490  153.4070 O   0  0  0  0  0  1  0  0  0  0  0  0
  158.7060  212.8390  152.0190 C   0  0  1  0  0  3  0  0  0  0  0  0
  158.1040  214.0480  151.4370 C   0  0  0  0  0  2  0  0  0  0  0  0
  161.0690  202.5290  148.3780 O   0  0  0  0  0  0  0  0  0  0  0  0
  161.5000  200.0500  148.1380 N   0  0  0  0  0  0  0  0  0  0  0  0
  161.3020  201.1840  148.2480 C   0  0  0  0  0  0  0  0  0  0  0  0
  1  9  1  0  0  0  0
  1  5  2  0  0  0  0
  2  3  2  0  0  0  0
  3 12  1  0  0  0  0
  3 13  1  0  0  0  0
  5 11  1  0  0  0  0
  7  6  1  0  0  0  0
  8  4  2  0  0  0  0
  9 10  2  0  0  0  0
 10  2  1  0  0  0  0
 10  7  1  0  0  0  0
 11  7  2  0  0  0  0
 13  6  1  0  0  0  0
 13  8  2  0  0  0  0
 14 16  1  0  0  0  0
 15 18  2  0  0  0  0
 17 12  1  0  0  0  0
 18 17  1  0  0  0  0
 18 14  1  0  0  0  0
 19 14  1  0  0  0  0
 20 22  1  0  0  0  0
 21 25  1  6  0  0  0
 21 20  1  0  0  0  0
 21 22  1  0  0  0  0
 23 20  1  0  0  0  0
 24 19  1  6  0  0  0
 24 21  1  0  0  0  0
 25 24  1  0  0  0  0
 26  1  1  0  0  0  0
 27 28  3  0  0  0  0
 28 26  1  0  0  0  0
M  END
>  <MODEL>
9

>  <REMARK>
 VINA RESULT:      -6.9      2.628      3.963
  Name = 
  5 active torsions:
  status: ('A' for Active; 'I' for Inactive)
    1  A    between atoms: N_1  and  C_14
    2  A    between atoms: C_2  and  O_19
    3  A    between atoms: C_14  and  C_23
    4  A    between atoms: C_15  and  O_19
    5  A    between atoms: N_24  and  N_25
                            x       y       z     vdW  Elec       q    Type
                         _______ _______ _______ _____ _____    ______ ____

>  <TORSDO>
F 5

$$$$
