=
 OpenBabel11042422363D

 33 37  0  0  1  0  0  0  0  0999 V2000
  161.1990  207.5570  150.1200 C   0  0  0  0  0  2  0  0  0  0  0  0
  161.0170  210.9570  153.4930 N   0  0  0  0  0  0  0  0  0  0  0  0
  161.5100  206.5530  153.7300 C   0  0  0  0  0  3  0  0  0  0  0  0
  160.8430  210.3110  151.1780 C   0  0  1  0  0  3  0  0  0  0  0  0
  161.7760  206.7520  152.4410 C   0  0  0  0  0  3  0  0  0  0  0  0
  161.0020  209.0920  152.0480 C   0  0  0  0  0  0  0  0  0  0  0  0
  161.0320  209.5470  153.4330 C   0  0  0  0  0  0  0  0  0  0  0  0
  160.7990  211.4960  152.1590 C   0  0  0  0  0  2  0  0  0  0  0  0
  161.2510  207.8430  151.5890 C   0  0  0  0  0  0  0  0  0  0  0  0
  160.8510  208.8140  154.5290 C   0  0  0  0  0  2  0  0  0  0  0  0
  160.5190  207.3570  154.5020 C   0  0  2  0  0  3  0  0  0  0  0  0
  163.0730  211.5230  148.5410 O   0  0  0  0  0  0  0  0  0  0  0  0
  162.0040  210.4690  150.3130 N   0  0  0  0  0  2  0  0  0  0  0  0
  162.0360  211.4160  149.2460 C   0  0  0  0  0  0  0  0  0  0  0  0
  160.9330  212.2160  148.9770 O   0  0  0  0  0  1  0  0  0  0  0  0
  160.0970  207.9820  156.5830 C   0  0  0  0  0  1  0  0  0  0  0  0
  160.4370  206.8720  155.8090 O   0  0  0  0  0  0  0  0  0  0  0  0
  161.8120  206.2020  149.8160 C   0  0  1  0  0  3  0  0  0  0  0  0
  160.8340  205.2260  149.7720 C   0  0  1  0  0  3  0  0  0  0  0  0
  161.3490  205.7460  148.4710 N   0  0  0  0  0  0  0  0  0  0  0  0
  161.0280  203.2090  152.3810 O   0  0  0  0  0  1  0  0  0  0  0  0
  161.3680  203.8110  150.0740 C   0  0  1  0  0  3  0  0  0  0  0  0
  160.5470  202.9800  151.0930 C   0  0  1  0  0  3  0  0  0  0  0  0
  160.6000  201.4860  150.7880 C   0  0  0  0  0  2  0  0  0  0  0  0
  161.6480  203.0640  148.7630 C   0  0  0  0  0  2  0  0  0  0  0  0
  160.0570  201.1850  149.3850 C   0  0  0  0  0  2  0  0  0  0  0  0
  160.4330  202.2420  148.3360 C   0  0  0  0  0  2  0  0  0  0  0  0
  160.2870  206.2160  144.9430 C   0  0  0  0  0  3  0  0  0  0  0  0
  161.3760  205.7900  147.0480 C   0  0  0  0  0  0  0  0  0  0  0  0
  162.5460  205.4840  144.9650 C   0  0  0  0  0  3  0  0  0  0  0  0
  160.2400  206.1830  146.3380 C   0  0  0  0  0  3  0  0  0  0  0  0
  162.5390  205.4370  146.3610 C   0  0  0  0  0  3  0  0  0  0  0  0
  161.4290  205.8700  144.2900 N   0  0  0  0  0  0  0  0  0  0  0  0
  1  9  1  0  0  0  0
  3 11  1  0  0  0  0
  4 13  1  6  0  0  0
  4  6  1  0  0  0  0
  4  8  1  0  0  0  0
  5  3  2  0  0  0  0
  6  7  1  0  0  0  0
  7  2  2  0  0  0  0
  7 10  1  0  0  0  0
  8  2  1  0  0  0  0
  9  6  2  0  0  0  0
  9  5  1  0  0  0  0
 11 10  1  0  0  0  0
 11 17  1  1  0  0  0
 12 14  2  0  0  0  0
 14 13  1  0  0  0  0
 15 14  1  0  0  0  0
 17 16  1  0  0  0  0
 18  1  1  1  0  0  0
 19 20  1  6  0  0  0
 19 18  1  0  0  0  0
 19 22  1  0  0  0  0
 20 18  1  0  0  0  0
 22 25  1  6  0  0  0
 22 23  1  0  0  0  0
 23 21  1  1  0  0  0
 24 23  1  0  0  0  0
 26 24  1  0  0  0  0
 27 25  1  0  0  0  0
 27 26  1  0  0  0  0
 28 31  1  0  0  0  0
 29 20  1  0  0  0  0
 30 32  2  0  0  0  0
 31 29  2  0  0  0  0
 32 29  1  0  0  0  0
 33 28  2  0  0  0  0
 33 30  1  0  0  0  0
M  END
>  <MODEL>
1

>  <REMARK>
 VINA RESULT:      -8.4      0.000      0.000
  Name = 
  6 active torsions:
  status: ('A' for Active; 'I' for Inactive)
    1  A    between atoms: C_4  and  N_13
    2  A    between atoms: C_5  and  N_32
    3  A    between atoms: C_7  and  C_16
    4  A    between atoms: C_7  and  C_24
    5  A    between atoms: C_14  and  C_30
    6  A    between atoms: O_20  and  C_33
                            x       y       z     vdW  Elec       q    Type
                         _______ _______ _______ _____ _____    ______ ____

>  <TORSDO>
F 6

$$$$
=
 OpenBabel11042422363D

 33 37  0  0  1  0  0  0  0  0999 V2000
  160.8490  210.8960  152.9190 C   0  0  0  0  0  2  0  0  0  0  0  0
  161.3310  206.1760  153.6020 N   0  0  0  0  0  0  0  0  0  0  0  0
  162.0000  208.7540  150.0520 C   0  0  0  0  0  3  0  0  0  0  0  0
  160.6570  208.3400  154.4230 C   0  0  1  0  0  3  0  0  0  0  0  0
  161.9620  209.6760  151.0110 C   0  0  0  0  0  3  0  0  0  0  0  0
  161.0460  208.4320  152.9720 C   0  0  0  0  0  0  0  0  0  0  0  0
  161.3750  207.0840  152.5230 C   0  0  0  0  0  0  0  0  0  0  0  0
  160.7990  206.8490  154.7780 C   0  0  0  0  0  3  0  0  0  0  0  0
  161.2240  209.5890  152.2910 C   0  0  0  0  0  0  0  0  0  0  0  0
  161.4700  206.6500  151.2680 C   0  0  0  0  0  3  0  0  0  0  0  0
  161.1860  207.5050  150.0760 C   0  0  2  0  0  3  0  0  0  0  0  0
  162.0500  210.3220  157.1670 O   0  0  0  0  0  1  0  0  0  0  0  0
  161.5860  209.1030  155.2440 N   0  0  0  0  0  2  0  0  0  0  0  0
  161.2020  209.6880  156.4880 C   0  0  0  0  0  0  0  0  0  0  0  0
  159.8980  209.5670  156.9530 O   0  0  0  0  0  0  0  0  0  0  0  0
  162.4500  207.4480  148.2600 C   0  0  0  0  0  1  0  0  0  0  0  0
  161.4170  206.7710  148.9100 O   0  0  0  0  0  0  0  0  0  0  0  0
  159.3480  211.1090  152.8580 C   0  0  1  0  0  3  0  0  0  0  0  0
  158.9900  212.2450  153.5590 C   0  0  1  0  0  3  0  0  0  0  0  0
  159.0610  212.3460  152.0710 N   0  0  0  0  0  0  0  0  0  0  0  0
  157.0830  210.2540  155.3790 O   0  0  0  0  0  1  0  0  0  0  0  0
  157.5320  212.2200  154.0620 C   0  0  1  0  0  3  0  0  0  0  0  0
  157.3140  211.6260  155.4770 C   0  0  1  0  0  3  0  0  0  0  0  0
  156.1470  212.2880  156.2020 C   0  0  0  0  0  2  0  0  0  0  0  0
  156.8880  213.6000  153.8750 C   0  0  0  0  0  2  0  0  0  0  0  0
  156.3700  213.7980  156.3530 C   0  0  0  0  0  2  0  0  0  0  0  0
  157.0440  214.4480  155.1360 C   0  0  0  0  0  2  0  0  0  0  0  0
  157.6130  214.0640  149.1140 C   0  0  0  0  0  3  0  0  0  0  0  0
  158.9530  213.0630  150.8460 C   0  0  0  0  0  0  0  0  0  0  0  0
  159.9820  214.1670  148.9690 C   0  0  0  0  0  3  0  0  0  0  0  0
  157.6960  213.3620  150.3180 C   0  0  0  0  0  3  0  0  0  0  0  0
  160.1060  213.4660  150.1700 C   0  0  0  0  0  3  0  0  0  0  0  0
  158.7470  214.4500  148.4690 N   0  0  0  0  0  0  0  0  0  0  0  0
  2  8  2  0  0  0  0
  3 11  1  0  0  0  0
  3  5  2  0  0  0  0
  4  8  1  0  0  0  0
  4 13  1  1  0  0  0
  5  9  1  0  0  0  0
  6  4  1  0  0  0  0
  7  6  1  0  0  0  0
  7  2  1  0  0  0  0
  9  1  1  0  0  0  0
  9  6  2  0  0  0  0
 10  7  2  0  0  0  0
 11 17  1  6  0  0  0
 11 10  1  0  0  0  0
 13 14  1  0  0  0  0
 14 15  2  0  0  0  0
 14 12  1  0  0  0  0
 16 17  1  0  0  0  0
 18  1  1  1  0  0  0
 18 19  1  0  0  0  0
 19 20  1  6  0  0  0
 19 22  1  0  0  0  0
 20 18  1  0  0  0  0
 22 25  1  1  0  0  0
 22 23  1  0  0  0  0
 23 21  1  6  0  0  0
 23 24  1  0  0  0  0
 24 26  1  0  0  0  0
 25 27  1  0  0  0  0
 27 26  1  0  0  0  0
 28 31  1  0  0  0  0
 29 20  1  0  0  0  0
 30 32  2  0  0  0  0
 31 29  2  0  0  0  0
 32 29  1  0  0  0  0
 33 30  1  0  0  0  0
 33 28  2  0  0  0  0
M  END
>  <MODEL>
2

>  <REMARK>
 VINA RESULT:      -7.2      3.653      8.225
  Name = 
  6 active torsions:
  status: ('A' for Active; 'I' for Inactive)
    1  A    between atoms: C_4  and  N_13
    2  A    between atoms: C_5  and  N_32
    3  A    between atoms: C_7  and  C_16
    4  A    between atoms: C_7  and  C_24
    5  A    between atoms: C_14  and  C_30
    6  A    between atoms: O_20  and  C_33
                            x       y       z     vdW  Elec       q    Type
                         _______ _______ _______ _____ _____    ______ ____

>  <TORSDO>
F 6

$$$$
=
 OpenBabel11042422363D

 33 37  0  0  1  0  0  0  0  0999 V2000
  160.0960  210.1790  153.1710 C   0  0  0  0  0  2  0  0  0  0  0  0
  162.2070  205.9550  152.3480 N   0  0  0  0  0  0  0  0  0  0  0  0
  162.2130  209.7750  150.0890 C   0  0  0  0  0  3  0  0  0  0  0  0
  160.7150  207.3140  153.6640 C   0  0  1  0  0  3  0  0  0  0  0  0
  161.7500  210.1950  151.2650 C   0  0  0  0  0  3  0  0  0  0  0  0
  161.1760  208.0740  152.4500 C   0  0  0  0  0  0  0  0  0  0  0  0
  162.0160  207.1750  151.6670 C   0  0  0  0  0  0  0  0  0  0  0  0
  161.3600  205.9230  153.5310 C   0  0  0  0  0  3  0  0  0  0  0  0
  160.9800  209.3990  152.2460 C   0  0  0  0  0  0  0  0  0  0  0  0
  162.3790  207.3120  150.3930 C   0  0  0  0  0  3  0  0  0  0  0  0
  161.9140  208.4300  149.5180 C   0  0  2  0  0  3  0  0  0  0  0  0
  161.0870  208.3140  157.1660 O   0  0  0  0  0  1  0  0  0  0  0  0
  161.2200  207.9450  154.8770 N   0  0  0  0  0  2  0  0  0  0  0  0
  160.5980  207.7610  156.1470 C   0  0  0  0  0  0  0  0  0  0  0  0
  159.4550  206.9810  156.2690 O   0  0  0  0  0  0  0  0  0  0  0  0
  162.2930  206.9860  147.8830 C   0  0  0  0  0  1  0  0  0  0  0  0
  162.5050  208.3130  148.2580 O   0  0  0  0  0  0  0  0  0  0  0  0
  160.1530  211.6600  152.8420 C   0  0  1  0  0  3  0  0  0  0  0  0
  158.9910  212.0610  152.2100 C   0  0  1  0  0  3  0  0  0  0  0  0
  159.1320  212.3810  153.6610 N   0  0  0  0  0  0  0  0  0  0  0  0
  160.8180  212.9460  149.6040 O   0  0  0  0  0  1  0  0  0  0  0  0
  159.1750  213.3120  151.3270 C   0  0  1  0  0  3  0  0  0  0  0  0
  159.4450  213.0460  149.8240 C   0  0  1  0  0  3  0  0  0  0  0  0
  158.8660  214.1440  148.9360 C   0  0  0  0  0  2  0  0  0  0  0  0
  158.0310  214.3030  151.5750 C   0  0  0  0  0  2  0  0  0  0  0  0
  157.3500  214.2740  149.1290 C   0  0  0  0  0  2  0  0  0  0  0  0
  156.8930  214.0790  150.5830 C   0  0  0  0  0  2  0  0  0  0  0  0
  159.0700  214.0830  156.9620 C   0  0  0  0  0  3  0  0  0  0  0  0
  158.6610  212.9330  154.8860 C   0  0  0  0  0  0  0  0  0  0  0  0
  156.8610  213.4010  156.4160 C   0  0  0  0  0  3  0  0  0  0  0  0
  159.5530  213.5500  155.7650 C   0  0  0  0  0  3  0  0  0  0  0  0
  157.3050  212.8560  155.2090 C   0  0  0  0  0  3  0  0  0  0  0  0
  157.7450  213.9990  157.2610 N   0  0  0  0  0  0  0  0  0  0  0  0
  2  8  2  0  0  0  0
  3  5  2  0  0  0  0
  4 13  1  1  0  0  0
  5  9  1  0  0  0  0
  6  4  1  0  0  0  0
  7  2  1  0  0  0  0
  7  6  1  0  0  0  0
  8  4  1  0  0  0  0
  9  6  2  0  0  0  0
  9  1  1  0  0  0  0
 10  7  2  0  0  0  0
 11 17  1  6  0  0  0
 11  3  1  0  0  0  0
 11 10  1  0  0  0  0
 13 14  1  0  0  0  0
 14 15  2  0  0  0  0
 14 12  1  0  0  0  0
 16 17  1  0  0  0  0
 18  1  1  1  0  0  0
 18 20  1  0  0  0  0
 19 18  1  0  0  0  0
 19 20  1  1  0  0  0
 20 29  1  0  0  0  0
 22 25  1  6  0  0  0
 22 19  1  0  0  0  0
 23 21  1  1  0  0  0
 23 22  1  0  0  0  0
 24 26  1  0  0  0  0
 24 23  1  0  0  0  0
 26 27  1  0  0  0  0
 27 25  1  0  0  0  0
 28 33  1  0  0  0  0
 29 32  2  0  0  0  0
 29 31  1  0  0  0  0
 30 33  2  0  0  0  0
 31 28  2  0  0  0  0
 32 30  1  0  0  0  0
M  END
>  <MODEL>
3

>  <REMARK>
 VINA RESULT:      -7.2      3.280      9.269
  Name = 
  6 active torsions:
  status: ('A' for Active; 'I' for Inactive)
    1  A    between atoms: C_4  and  N_13
    2  A    between atoms: C_5  and  N_32
    3  A    between atoms: C_7  and  C_16
    4  A    between atoms: C_7  and  C_24
    5  A    between atoms: C_14  and  C_30
    6  A    between atoms: O_20  and  C_33
                            x       y       z     vdW  Elec       q    Type
                         _______ _______ _______ _____ _____    ______ ____

>  <TORSDO>
F 6

$$$$
=
 OpenBabel11042422363D

 33 37  0  0  1  0  0  0  0  0999 V2000
  160.4570  211.2490  152.1950 C   0  0  0  0  0  2  0  0  0  0  0  0
  156.8730  214.3100  153.0660 N   0  0  0  0  0  0  0  0  0  0  0  0
  159.5020  211.9610  155.7610 C   0  0  0  0  0  3  0  0  0  0  0  0
  158.2060  213.0580  151.4960 C   0  0  1  0  0  3  0  0  0  0  0  0
  160.1900  211.8750  154.6250 C   0  0  0  0  0  3  0  0  0  0  0  0
  158.5660  212.6750  152.9060 C   0  0  0  0  0  0  0  0  0  0  0  0
  157.6800  213.4140  153.7980 C   0  0  0  0  0  0  0  0  0  0  0  0
  157.0630  214.0780  151.6420 C   0  0  0  0  0  2  0  0  0  0  0  0
  159.6380  211.9230  153.2530 C   0  0  0  0  0  0  0  0  0  0  0  0
  157.4340  213.1640  155.0830 C   0  0  0  0  0  2  0  0  0  0  0  0
  158.0120  212.0030  155.8230 C   0  0  2  0  0  3  0  0  0  0  0  0
  160.4110  214.4430  148.9230 O   0  0  0  0  0  1  0  0  0  0  0  0
  159.3330  213.7150  150.8480 N   0  0  0  0  0  2  0  0  0  0  0  0
  159.4240  213.8500  149.4300 C   0  0  0  0  0  0  0  0  0  0  0  0
  158.4360  213.3280  148.6050 O   0  0  0  0  0  0  0  0  0  0  0  0
  156.2660  212.4550  157.1050 C   0  0  0  0  0  1  0  0  0  0  0  0
  157.5990  212.0460  157.1560 O   0  0  0  0  0  0  0  0  0  0  0  0
  161.3330  210.1690  152.8040 C   0  0  1  0  0  3  0  0  0  0  0  0
  160.5560  209.1810  153.3790 C   0  0  1  0  0  3  0  0  0  0  0  0
  161.1490  208.9000  152.0370 N   0  0  0  0  0  0  0  0  0  0  0  0
  162.5920  209.8740  155.8860 O   0  0  0  0  0  1  0  0  0  0  0  0
  161.2810  208.4060  154.4980 C   0  0  1  0  0  3  0  0  0  0  0  0
  161.4080  209.1400  155.8580 C   0  0  1  0  0  3  0  0  0  0  0  0
  161.3810  208.1710  157.0360 C   0  0  0  0  0  2  0  0  0  0  0  0
  160.6980  206.9920  154.6210 C   0  0  0  0  0  2  0  0  0  0  0  0
  160.0810  207.3570  157.0570 C   0  0  0  0  0  2  0  0  0  0  0  0
  159.5810  206.9530  155.6620 C   0  0  0  0  0  2  0  0  0  0  0  0
  162.1570  207.7760  148.6440 C   0  0  0  0  0  3  0  0  0  0  0  0
  161.3660  208.0740  150.8990 C   0  0  0  0  0  0  0  0  0  0  0  0
  161.2050  205.9350  149.8030 C   0  0  0  0  0  3  0  0  0  0  0  0
  161.9560  208.6040  149.7500 C   0  0  0  0  0  3  0  0  0  0  0  0
  160.9860  206.7300  150.9300 C   0  0  0  0  0  3  0  0  0  0  0  0
  161.7810  206.4690  148.6920 N   0  0  0  0  0  0  0  0  0  0  0  0
  1  9  1  0  0  0  0
  2  7  2  0  0  0  0
  3 11  1  0  0  0  0
  4 13  1  1  0  0  0
  4  8  1  0  0  0  0
  4  6  1  0  0  0  0
  5  3  2  0  0  0  0
  6  9  2  0  0  0  0
  6  7  1  0  0  0  0
  7 10  1  0  0  0  0
  8  2  1  0  0  0  0
  9  5  1  0  0  0  0
 10 11  1  0  0  0  0
 11 17  1  1  0  0  0
 12 14  1  0  0  0  0
 14 13  1  0  0  0  0
 15 14  2  0  0  0  0
 16 17  1  0  0  0  0
 18  1  1  6  0  0  0
 18 19  1  0  0  0  0
 19 20  1  6  0  0  0
 19 22  1  0  0  0  0
 20 18  1  0  0  0  0
 22 25  1  1  0  0  0
 22 23  1  0  0  0  0
 23 21  1  6  0  0  0
 23 24  1  0  0  0  0
 24 26  1  0  0  0  0
 25 27  1  0  0  0  0
 27 26  1  0  0  0  0
 28 33  2  0  0  0  0
 28 31  1  0  0  0  0
 29 32  1  0  0  0  0
 29 20  1  0  0  0  0
 30 32  2  0  0  0  0
 31 29  2  0  0  0  0
 33 30  1  0  0  0  0
M  END
>  <MODEL>
4

>  <REMARK>
 VINA RESULT:      -6.6      3.027      5.731
  Name = 
  6 active torsions:
  status: ('A' for Active; 'I' for Inactive)
    1  A    between atoms: C_4  and  N_13
    2  A    between atoms: C_5  and  N_32
    3  A    between atoms: C_7  and  C_16
    4  A    between atoms: C_7  and  C_24
    5  A    between atoms: C_14  and  C_30
    6  A    between atoms: O_20  and  C_33
                            x       y       z     vdW  Elec       q    Type
                         _______ _______ _______ _____ _____    ______ ____

>  <TORSDO>
F 6

$$$$
=
 OpenBabel11042422363D

 33 37  0  0  1  0  0  0  0  0999 V2000
  161.9940  209.3660  152.0750 C   0  0  0  0  0  2  0  0  0  0  0  0
  161.7830  206.4760  148.2560 N   0  0  0  0  0  0  0  0  0  0  0  0
  160.7710  205.8400  152.5300 C   0  0  0  0  0  3  0  0  0  0  0  0
  162.4020  208.5900  149.2350 C   0  0  1  0  0  3  0  0  0  0  0  0
  160.8250  207.1700  152.4950 C   0  0  0  0  0  3  0  0  0  0  0  0
  161.9190  207.6440  150.3020 C   0  0  0  0  0  0  0  0  0  0  0  0
  161.6280  206.3700  149.6540 C   0  0  0  0  0  0  0  0  0  0  0  0
  162.3530  207.7750  147.9300 C   0  0  0  0  0  2  0  0  0  0  0  0
  161.6440  207.9960  151.5800 C   0  0  0  0  0  0  0  0  0  0  0  0
  161.4770  205.1830  150.2380 C   0  0  0  0  0  2  0  0  0  0  0  0
  161.6450  204.9570  151.7050 C   0  0  2  0  0  3  0  0  0  0  0  0
  161.0790  211.9270  148.5210 O   0  0  0  0  0  1  0  0  0  0  0  0
  161.4890  209.7180  149.1100 N   0  0  0  0  0  2  0  0  0  0  0  0
  161.9130  210.9910  148.6260 C   0  0  0  0  0  0  0  0  0  0  0  0
  163.2390  211.2080  148.2740 O   0  0  0  0  0  0  0  0  0  0  0  0
  160.8940  203.0740  150.8150 C   0  0  0  0  0  1  0  0  0  0  0  0
  161.3770  203.6190  152.0050 O   0  0  0  0  0  0  0  0  0  0  0  0
  161.1160  209.7510  153.2520 C   0  0  1  0  0  3  0  0  0  0  0  0
  161.7420  210.7040  154.0330 C   0  0  1  0  0  3  0  0  0  0  0  0
  160.6800  211.1710  153.0930 N   0  0  0  0  0  0  0  0  0  0  0  0
  158.8910  211.1520  155.6410 O   0  0  0  0  0  1  0  0  0  0  0  0
  161.2550  210.7120  155.4960 C   0  0  1  0  0  3  0  0  0  0  0  0
  159.8380  210.1340  155.7420 C   0  0  1  0  0  3  0  0  0  0  0  0
  159.7220  209.4650  157.1080 C   0  0  0  0  0  2  0  0  0  0  0  0
  162.3280  210.1060  156.4100 C   0  0  0  0  0  2  0  0  0  0  0  0
  160.7320  208.3200  157.2540 C   0  0  0  0  0  2  0  0  0  0  0  0
  162.0940  208.6100  156.6040 C   0  0  0  0  0  2  0  0  0  0  0  0
  159.5580  213.8960  150.8320 C   0  0  0  0  0  3  0  0  0  0  0  0
  159.8770  212.1820  152.4940 C   0  0  0  0  0  0  0  0  0  0  0  0
  157.8320  213.4520  152.4030 C   0  0  0  0  0  3  0  0  0  0  0  0
  160.3610  212.9050  151.4020 C   0  0  0  0  0  3  0  0  0  0  0  0
  158.6050  212.4540  153.0010 C   0  0  0  0  0  3  0  0  0  0  0  0
  158.3200  214.1460  151.3390 N   0  0  0  0  0  0  0  0  0  0  0  0
  2  7  2  0  0  0  0
  4 13  1  6  0  0  0
  4  6  1  0  0  0  0
  5  3  2  0  0  0  0
  6  9  2  0  0  0  0
  7 10  1  0  0  0  0
  7  6  1  0  0  0  0
  8  2  1  0  0  0  0
  8  4  1  0  0  0  0
  9  1  1  0  0  0  0
  9  5  1  0  0  0  0
 10 11  1  0  0  0  0
 11 17  1  6  0  0  0
 11  3  1  0  0  0  0
 12 14  1  0  0  0  0
 14 13  1  0  0  0  0
 15 14  2  0  0  0  0
 16 17  1  0  0  0  0
 18  1  1  6  0  0  0
 18 19  1  0  0  0  0
 19 20  1  6  0  0  0
 19 22  1  0  0  0  0
 20 18  1  0  0  0  0
 22 23  1  0  0  0  0
 22 25  1  1  0  0  0
 23 21  1  1  0  0  0
 23 24  1  0  0  0  0
 24 26  1  0  0  0  0
 25 27  1  0  0  0  0
 27 26  1  0  0  0  0
 28 33  2  0  0  0  0
 28 31  1  0  0  0  0
 29 32  1  0  0  0  0
 29 20  1  0  0  0  0
 30 32  2  0  0  0  0
 31 29  2  0  0  0  0
 33 30  1  0  0  0  0
M  END
>  <MODEL>
5

>  <REMARK>
 VINA RESULT:      -6.6      2.024      7.146
  Name = 
  6 active torsions:
  status: ('A' for Active; 'I' for Inactive)
    1  A    between atoms: C_4  and  N_13
    2  A    between atoms: C_5  and  N_32
    3  A    between atoms: C_7  and  C_16
    4  A    between atoms: C_7  and  C_24
    5  A    between atoms: C_14  and  C_30
    6  A    between atoms: O_20  and  C_33
                            x       y       z     vdW  Elec       q    Type
                         _______ _______ _______ _____ _____    ______ ____

>  <TORSDO>
F 6

$$$$
=
 OpenBabel11042422363D

 33 37  0  0  1  0  0  0  0  0999 V2000
  161.9560  209.4500  149.2780 C   0  0  0  0  0  2  0  0  0  0  0  0
  160.0930  213.4520  151.1460 N   0  0  0  0  0  0  0  0  0  0  0  0
  161.6550  209.7420  153.0140 C   0  0  0  0  0  3  0  0  0  0  0  0
  160.6480  212.1170  149.2170 C   0  0  1  0  0  3  0  0  0  0  0  0
  162.1580  209.6190  151.7870 C   0  0  0  0  0  3  0  0  0  0  0  0
  160.9110  211.3410  150.4790 C   0  0  0  0  0  0  0  0  0  0  0  0
  160.4910  212.1760  151.5990 C   0  0  0  0  0  0  0  0  0  0  0  0
  160.0630  213.4600  149.6910 C   0  0  0  0  0  2  0  0  0  0  0  0
  161.5810  210.1660  150.5390 C   0  0  0  0  0  0  0  0  0  0  0  0
  160.2550  211.7910  152.8510 C   0  0  0  0  0  2  0  0  0  0  0  0
  160.3340  210.3700  153.3060 C   0  0  2  0  0  3  0  0  0  0  0  0
  163.0480  212.8940  146.5640 O   0  0  0  0  0  1  0  0  0  0  0  0
  161.8980  212.3790  148.5150 N   0  0  0  0  0  2  0  0  0  0  0  0
  161.9430  212.6570  147.1170 C   0  0  0  0  0  0  0  0  0  0  0  0
  160.7790  212.6640  146.3590 O   0  0  0  0  0  0  0  0  0  0  0  0
  161.0740  211.0770  155.2690 C   0  0  0  0  0  1  0  0  0  0  0  0
  160.0760  210.3030  154.6770 O   0  0  0  0  0  0  0  0  0  0  0  0
  162.4050  208.0320  149.5810 C   0  0  1  0  0  3  0  0  0  0  0  0
  161.3400  207.2710  150.0260 C   0  0  1  0  0  3  0  0  0  0  0  0
  161.7660  207.0980  148.6060 N   0  0  0  0  0  0  0  0  0  0  0  0
  161.4310  206.5260  153.2430 O   0  0  0  0  0  1  0  0  0  0  0  0
  161.7660  206.0740  150.9010 C   0  0  1  0  0  3  0  0  0  0  0  0
  160.9050  205.8180  152.1640 C   0  0  1  0  0  3  0  0  0  0  0  0
  160.8320  204.3350  152.5150 C   0  0  0  0  0  2  0  0  0  0  0  0
  161.9560  204.8270  150.0290 C   0  0  0  0  0  2  0  0  0  0  0  0
  160.2350  203.5190  151.3610 C   0  0  0  0  0  2  0  0  0  0  0  0
  160.6710  204.0040  149.9700 C   0  0  0  0  0  2  0  0  0  0  0  0
  160.3630  206.0330  145.3350 C   0  0  0  0  0  3  0  0  0  0  0  0
  161.6500  206.5110  147.3140 C   0  0  0  0  0  0  0  0  0  0  0  0
  162.6000  205.2520  145.4930 C   0  0  0  0  0  3  0  0  0  0  0  0
  160.4550  206.6190  146.6000 C   0  0  0  0  0  3  0  0  0  0  0  0
  162.7320  205.8230  146.7610 C   0  0  0  0  0  3  0  0  0  0  0  0
  161.4280  205.3680  144.8120 N   0  0  0  0  0  0  0  0  0  0  0  0
  1  9  1  0  0  0  0
  2  7  2  0  0  0  0
  3 11  1  0  0  0  0
  4 13  1  1  0  0  0
  4  8  1  0  0  0  0
  4  6  1  0  0  0  0
  5  3  2  0  0  0  0
  6  9  2  0  0  0  0
  6  7  1  0  0  0  0
  7 10  1  0  0  0  0
  8  2  1  0  0  0  0
  9  5  1  0  0  0  0
 10 11  1  0  0  0  0
 11 17  1  1  0  0  0
 12 14  1  0  0  0  0
 14 13  1  0  0  0  0
 15 14  2  0  0  0  0
 17 16  1  0  0  0  0
 18  1  1  6  0  0  0
 18 19  1  0  0  0  0
 19 20  1  6  0  0  0
 19 22  1  0  0  0  0
 20 18  1  0  0  0  0
 22 25  1  6  0  0  0
 22 23  1  0  0  0  0
 23 24  1  0  0  0  0
 23 21  1  1  0  0  0
 26 24  1  0  0  0  0
 27 25  1  0  0  0  0
 27 26  1  0  0  0  0
 28 31  1  0  0  0  0
 29 20  1  0  0  0  0
 30 32  2  0  0  0  0
 31 29  2  0  0  0  0
 32 29  1  0  0  0  0
 33 28  2  0  0  0  0
 33 30  1  0  0  0  0
M  END
>  <MODEL>
6

>  <REMARK>
 VINA RESULT:      -6.6      1.914      2.606
  Name = 
  6 active torsions:
  status: ('A' for Active; 'I' for Inactive)
    1  A    between atoms: C_4  and  N_13
    2  A    between atoms: C_5  and  N_32
    3  A    between atoms: C_7  and  C_16
    4  A    between atoms: C_7  and  C_24
    5  A    between atoms: C_14  and  C_30
    6  A    between atoms: O_20  and  C_33
                            x       y       z     vdW  Elec       q    Type
                         _______ _______ _______ _____ _____    ______ ____

>  <TORSDO>
F 6

$$$$
=
 OpenBabel11042422363D

 33 37  0  0  1  0  0  0  0  0999 V2000
  160.5000  208.6910  152.1140 C   0  0  0  0  0  2  0  0  0  0  0  0
  161.5320  204.1320  151.0560 N   0  0  0  0  0  0  0  0  0  0  0  0
  161.6450  207.8480  148.6330 C   0  0  0  0  0  3  0  0  0  0  0  0
  160.6980  205.7690  152.6150 C   0  0  1  0  0  3  0  0  0  0  0  0
  161.5830  208.3660  149.8580 C   0  0  0  0  0  3  0  0  0  0  0  0
  160.9610  206.4100  151.2790 C   0  0  0  0  0  0  0  0  0  0  0  0
  161.3950  205.3560  150.3690 C   0  0  0  0  0  0  0  0  0  0  0  0
  161.0250  204.2790  152.4120 C   0  0  0  0  0  3  0  0  0  0  0  0
  160.9610  207.7440  151.0490 C   0  0  0  0  0  0  0  0  0  0  0  0
  161.4370  205.4040  149.0390 C   0  0  0  0  0  3  0  0  0  0  0  0
  160.9720  206.5770  148.2400 C   0  0  2  0  0  3  0  0  0  0  0  0
  161.9580  207.3210  155.6820 O   0  0  0  0  0  1  0  0  0  0  0  0
  161.6030  206.3090  153.6210 N   0  0  0  0  0  2  0  0  0  0  0  0
  161.1320  206.8850  154.8380 C   0  0  0  0  0  0  0  0  0  0  0  0
  159.7710  206.9750  155.0990 O   0  0  0  0  0  0  0  0  0  0  0  0
  162.4450  205.7290  146.8210 C   0  0  0  0  0  1  0  0  0  0  0  0
  161.1880  206.3320  146.8820 O   0  0  0  0  0  0  0  0  0  0  0  0
  161.1840  210.0380  151.9660 C   0  0  1  0  0  3  0  0  0  0  0  0
  160.2500  211.0380  151.7710 C   0  0  1  0  0  3  0  0  0  0  0  0
  160.8350  210.8950  153.1380 N   0  0  0  0  0  0  0  0  0  0  0  0
  162.3250  211.6260  149.2690 O   0  0  0  0  0  1  0  0  0  0  0  0
  160.8160  212.2680  151.0330 C   0  0  1  0  0  3  0  0  0  0  0  0
  161.0360  212.1010  149.5080 C   0  0  1  0  0  3  0  0  0  0  0  0
  160.8270  213.4100  148.7530 C   0  0  0  0  0  2  0  0  0  0  0  0
  160.0050  213.5190  151.3980 C   0  0  0  0  0  2  0  0  0  0  0  0
  159.4110  213.9570  148.9690 C   0  0  0  0  0  2  0  0  0  0  0  0
  158.8780  213.7480  150.3940 C   0  0  0  0  0  2  0  0  0  0  0  0
  160.2270  212.5680  156.3980 C   0  0  0  0  0  3  0  0  0  0  0  0
  160.9590  211.2710  154.5050 C   0  0  0  0  0  0  0  0  0  0  0  0
  162.0660  211.0830  156.6370 C   0  0  0  0  0  3  0  0  0  0  0  0
  160.0850  212.2110  155.0550 C   0  0  0  0  0  3  0  0  0  0  0  0
  161.9570  210.7010  155.2980 C   0  0  0  0  0  3  0  0  0  0  0  0
  161.2050  212.0010  157.1550 N   0  0  0  0  0  0  0  0  0  0  0  0
  2  8  2  0  0  0  0
  3  5  2  0  0  0  0
  4 13  1  1  0  0  0
  5  9  1  0  0  0  0
  6  4  1  0  0  0  0
  7  2  1  0  0  0  0
  7  6  1  0  0  0  0
  8  4  1  0  0  0  0
  9  6  2  0  0  0  0
  9  1  1  0  0  0  0
 10  7  2  0  0  0  0
 11 17  1  6  0  0  0
 11  3  1  0  0  0  0
 11 10  1  0  0  0  0
 13 14  1  0  0  0  0
 14 15  2  0  0  0  0
 14 12  1  0  0  0  0
 16 17  1  0  0  0  0
 18  1  1  1  0  0  0
 18 20  1  0  0  0  0
 19 18  1  0  0  0  0
 19 20  1  1  0  0  0
 20 29  1  0  0  0  0
 22 25  1  6  0  0  0
 22 19  1  0  0  0  0
 23 21  1  1  0  0  0
 23 22  1  0  0  0  0
 24 26  1  0  0  0  0
 24 23  1  0  0  0  0
 26 27  1  0  0  0  0
 27 25  1  0  0  0  0
 28 33  1  0  0  0  0
 29 31  1  0  0  0  0
 29 32  2  0  0  0  0
 30 33  2  0  0  0  0
 31 28  2  0  0  0  0
 32 30  1  0  0  0  0
M  END
>  <MODEL>
7

>  <REMARK>
 VINA RESULT:      -6.6      2.399      8.626
  Name = 
  6 active torsions:
  status: ('A' for Active; 'I' for Inactive)
    1  A    between atoms: C_4  and  N_13
    2  A    between atoms: C_5  and  N_32
    3  A    between atoms: C_7  and  C_16
    4  A    between atoms: C_7  and  C_24
    5  A    between atoms: C_14  and  C_30
    6  A    between atoms: O_20  and  C_33
                            x       y       z     vdW  Elec       q    Type
                         _______ _______ _______ _____ _____    ______ ____

>  <TORSDO>
F 6

$$$$
=
 OpenBabel11042422363D

 33 37  0  0  1  0  0  0  0  0999 V2000
  161.3460  210.4810  152.8460 C   0  0  0  0  0  2  0  0  0  0  0  0
  161.1330  205.7630  153.6660 N   0  0  0  0  0  0  0  0  0  0  0  0
  161.9840  208.1110  149.9980 C   0  0  0  0  0  3  0  0  0  0  0  0
  160.8490  208.0260  154.4450 C   0  0  1  0  0  3  0  0  0  0  0  0
  162.1440  209.0530  150.9250 C   0  0  0  0  0  3  0  0  0  0  0  0
  161.1630  208.0180  152.9730 C   0  0  0  0  0  0  0  0  0  0  0  0
  161.2530  206.6240  152.5550 C   0  0  0  0  0  0  0  0  0  0  0  0
  160.7810  206.5410  154.8440 C   0  0  0  0  0  3  0  0  0  0  0  0
  161.4770  209.1150  152.2440 C   0  0  0  0  0  0  0  0  0  0  0  0
  161.2070  206.1480  151.3120 C   0  0  0  0  0  3  0  0  0  0  0  0
  160.9890  207.0050  150.1080 C   0  0  2  0  0  3  0  0  0  0  0  0
  162.6680  210.1710  156.7880 O   0  0  0  0  0  1  0  0  0  0  0  0
  161.9320  208.6550  155.1890 N   0  0  0  0  0  2  0  0  0  0  0  0
  161.6980  209.6740  156.1600 C   0  0  0  0  0  0  0  0  0  0  0  0
  160.4090  210.1240  156.4160 O   0  0  0  0  0  0  0  0  0  0  0  0
  161.4330  207.0850  147.9410 C   0  0  0  0  0  1  0  0  0  0  0  0
  161.0360  206.2150  148.9570 O   0  0  0  0  0  0  0  0  0  0  0  0
  159.9420  211.0210  152.6470 C   0  0  1  0  0  3  0  0  0  0  0  0
  159.8160  212.2690  153.2280 C   0  0  1  0  0  3  0  0  0  0  0  0
  160.0000  212.2120  151.7470 N   0  0  0  0  0  0  0  0  0  0  0  0
  157.0910  210.6530  154.1630 O   0  0  0  0  0  1  0  0  0  0  0  0
  158.3640  212.6220  153.6100 C   0  0  1  0  0  3  0  0  0  0  0  0
  157.7290  211.7560  154.7290 C   0  0  1  0  0  3  0  0  0  0  0  0
  156.7300  212.5480  155.5670 C   0  0  0  0  0  2  0  0  0  0  0  0
  158.2390  214.1300  153.8620 C   0  0  0  0  0  2  0  0  0  0  0  0
  157.3970  213.7600  156.2290 C   0  0  0  0  0  2  0  0  0  0  0  0
  158.4410  214.4530  155.3400 C   0  0  0  0  0  2  0  0  0  0  0  0
  161.2740  213.0160  148.3520 C   0  0  0  0  0  3  0  0  0  0  0  0
  160.1380  212.8180  150.4660 C   0  0  0  0  0  0  0  0  0  0  0  0
  159.4080  214.4120  148.8140 C   0  0  0  0  0  3  0  0  0  0  0  0
  161.1550  212.4070  149.6030 C   0  0  0  0  0  3  0  0  0  0  0  0
  159.2560  213.8270  150.0740 C   0  0  0  0  0  3  0  0  0  0  0  0
  160.4050  213.9970  147.9860 N   0  0  0  0  0  0  0  0  0  0  0  0
  2  8  2  0  0  0  0
  3 11  1  0  0  0  0
  3  5  2  0  0  0  0
  4  8  1  0  0  0  0
  4 13  1  1  0  0  0
  5  9  1  0  0  0  0
  6  4  1  0  0  0  0
  7  6  1  0  0  0  0
  7  2  1  0  0  0  0
  9  1  1  0  0  0  0
  9  6  2  0  0  0  0
 10  7  2  0  0  0  0
 11 17  1  6  0  0  0
 11 10  1  0  0  0  0
 13 14  1  0  0  0  0
 14 15  2  0  0  0  0
 14 12  1  0  0  0  0
 16 17  1  0  0  0  0
 18  1  1  1  0  0  0
 18 19  1  0  0  0  0
 19 20  1  6  0  0  0
 19 22  1  0  0  0  0
 20 18  1  0  0  0  0
 22 25  1  1  0  0  0
 22 23  1  0  0  0  0
 23 21  1  6  0  0  0
 23 24  1  0  0  0  0
 24 26  1  0  0  0  0
 25 27  1  0  0  0  0
 27 26  1  0  0  0  0
 28 31  1  0  0  0  0
 29 20  1  0  0  0  0
 30 32  2  0  0  0  0
 31 29  2  0  0  0  0
 32 29  1  0  0  0  0
 33 28  2  0  0  0  0
 33 30  1  0  0  0  0
M  END
>  <MODEL>
8

>  <REMARK>
 VINA RESULT:      -6.5      3.453      7.993
  Name = 
  6 active torsions:
  status: ('A' for Active; 'I' for Inactive)
    1  A    between atoms: C_4  and  N_13
    2  A    between atoms: C_5  and  N_32
    3  A    between atoms: C_7  and  C_16
    4  A    between atoms: C_7  and  C_24
    5  A    between atoms: C_14  and  C_30
    6  A    between atoms: O_20  and  C_33
                            x       y       z     vdW  Elec       q    Type
                         _______ _______ _______ _____ _____    ______ ____

>  <TORSDO>
F 6

$$$$
=
 OpenBabel11042422363D

 33 37  0  0  1  0  0  0  0  0999 V2000
  161.2750  210.7870  152.2240 C   0  0  0  0  0  2  0  0  0  0  0  0
  158.9990  214.3280  149.9310 N   0  0  0  0  0  0  0  0  0  0  0  0
  161.9900  211.3430  148.5750 C   0  0  0  0  0  3  0  0  0  0  0  0
  159.4930  213.1510  151.9760 C   0  0  1  0  0  3  0  0  0  0  0  0
  161.6050  210.7880  149.7220 C   0  0  0  0  0  3  0  0  0  0  0  0
  160.3420  212.6210  150.8530 C   0  0  0  0  0  0  0  0  0  0  0  0
  160.0450  213.4180  149.6680 C   0  0  0  0  0  0  0  0  0  0  0  0
  158.6780  214.2970  151.3500 C   0  0  0  0  0  3  0  0  0  0  0  0
  161.0940  211.4960  150.9170 C   0  0  0  0  0  0  0  0  0  0  0  0
  160.7650  213.5070  148.5520 C   0  0  0  0  0  3  0  0  0  0  0  0
  162.0760  212.8160  148.3580 C   0  0  2  0  0  3  0  0  0  0  0  0
  157.3660  211.1140  154.1500 O   0  0  0  0  0  0  0  0  0  0  0  0
  158.5680  212.1250  152.4390 N   0  0  0  0  0  2  0  0  0  0  0  0
  158.1820  212.0080  153.8070 C   0  0  0  0  0  0  0  0  0  0  0  0
  158.7020  212.8690  154.7650 O   0  0  0  0  0  1  0  0  0  0  0  0
  161.4400  212.9450  146.2420 C   0  0  0  0  0  1  0  0  0  0  0  0
  162.5540  213.0740  147.0720 O   0  0  0  0  0  0  0  0  0  0  0  0
  161.0940  209.2900  152.0500 C   0  0  1  0  0  3  0  0  0  0  0  0
  162.3070  208.6370  152.1700 C   0  0  1  0  0  3  0  0  0  0  0  0
  161.3880  208.6080  153.3460 N   0  0  0  0  0  0  0  0  0  0  0  0
  161.5630  205.4920  152.8530 O   0  0  0  0  0  1  0  0  0  0  0  0
  162.3470  207.2790  151.4410 C   0  0  1  0  0  3  0  0  0  0  0  0
  161.1950  206.2970  151.7760 C   0  0  1  0  0  3  0  0  0  0  0  0
  160.8300  205.4170  150.5840 C   0  0  0  0  0  2  0  0  0  0  0  0
  162.5430  207.4970  149.9350 C   0  0  0  0  0  2  0  0  0  0  0  0
  160.3950  206.2620  149.3810 C   0  0  0  0  0  2  0  0  0  0  0  0
  161.1980  207.5610  149.2150 C   0  0  0  0  0  2  0  0  0  0  0  0
  159.7160  206.9540  156.2220 C   0  0  0  0  0  3  0  0  0  0  0  0
  161.0500  208.2340  154.6780 C   0  0  0  0  0  0  0  0  0  0  0  0
  161.3870  208.4220  157.0550 C   0  0  0  0  0  3  0  0  0  0  0  0
  160.0340  207.3050  154.9070 C   0  0  0  0  0  3  0  0  0  0  0  0
  161.7330  208.7990  155.7560 C   0  0  0  0  0  3  0  0  0  0  0  0
  160.3940  207.5140  157.2600 N   0  0  0  0  0  0  0  0  0  0  0  0
  2  8  2  0  0  0  0
  3  5  2  0  0  0  0
  4 13  1  6  0  0  0
  5  9  1  0  0  0  0
  6  9  2  0  0  0  0
  6  4  1  0  0  0  0
  7  2  1  0  0  0  0
  7  6  1  0  0  0  0
  8  4  1  0  0  0  0
  9  1  1  0  0  0  0
 10  7  2  0  0  0  0
 11 17  1  6  0  0  0
 11 10  1  0  0  0  0
 11  3  1  0  0  0  0
 13 14  1  0  0  0  0
 14 12  2  0  0  0  0
 14 15  1  0  0  0  0
 16 17  1  0  0  0  0
 18 19  1  0  0  0  0
 18  1  1  1  0  0  0
 18 20  1  0  0  0  0
 19 20  1  1  0  0  0
 20 29  1  0  0  0  0
 22 25  1  6  0  0  0
 22 23  1  0  0  0  0
 22 19  1  0  0  0  0
 23 21  1  1  0  0  0
 24 23  1  0  0  0  0
 26 24  1  0  0  0  0
 27 26  1  0  0  0  0
 27 25  1  0  0  0  0
 28 33  1  0  0  0  0
 29 31  1  0  0  0  0
 29 32  2  0  0  0  0
 30 33  2  0  0  0  0
 31 28  2  0  0  0  0
 32 30  1  0  0  0  0
M  END
>  <MODEL>
9

>  <REMARK>
 VINA RESULT:      -6.5      3.165      7.016
  Name = 
  6 active torsions:
  status: ('A' for Active; 'I' for Inactive)
    1  A    between atoms: C_4  and  N_13
    2  A    between atoms: C_5  and  N_32
    3  A    between atoms: C_7  and  C_16
    4  A    between atoms: C_7  and  C_24
    5  A    between atoms: C_14  and  C_30
    6  A    between atoms: O_20  and  C_33
                            x       y       z     vdW  Elec       q    Type
                         _______ _______ _______ _____ _____    ______ ____

>  <TORSDO>
F 6

$$$$
