=
 OpenBabel11042420503D

 41 44  0  0  1  0  0  0  0  0999 V2000
  161.2870  208.2250  150.9170 C   0  0  1  0  0  3  0  0  0  0  0  0
  159.5020  210.8380  155.0340 C   0  0  1  0  0  3  0  0  0  0  0  0
  159.6480  211.2680  156.4870 C   0  0  0  0  0  1  0  0  0  0  0  0
  161.6180  210.6320  150.1820 C   0  0  0  0  0  2  0  0  0  0  0  0
  159.9990  208.5890  155.7160 O   0  0  0  0  0  0  0  0  0  0  0  0
  160.6410  209.1320  153.5490 N   0  0  0  0  0  2  0  0  0  0  0  0
  161.0510  212.0010  150.4190 C   0  0  0  0  0  3  0  0  0  0  0  0
  160.1650  211.8830  154.1210 C   0  0  1  0  0  3  0  0  0  0  0  0
  160.7550  210.0920  152.4930 C   0  0  0  0  0  0  0  0  0  0  0  0
  160.5510  212.3510  151.6020 C   0  0  0  0  0  3  0  0  0  0  0  0
  160.0790  209.4710  154.8170 C   0  0  0  0  0  0  0  0  0  0  0  0
  160.4630  211.3870  152.7170 C   0  0  0  0  0  0  0  0  0  0  0  0
  161.1420  209.6590  151.1740 N   0  0  0  0  0  0  0  0  0  0  0  0
  157.3110  212.1480  153.6320 O   0  0  0  0  0  0  0  0  0  0  0  0
  157.3250  214.4530  153.9030 N   0  0  0  0  0  1  0  0  0  0  0  0
  159.3880  213.1230  154.1070 N   0  0  0  0  0  2  0  0  0  0  0  0
  157.9760  213.1900  153.8770 C   0  0  0  0  0  0  0  0  0  0  0  0
  160.4710  205.9750  147.8640 C   0  0  0  0  0  2  0  0  0  0  0  0
  162.9320  206.5690  148.3170 C   0  0  0  0  0  2  0  0  0  0  0  0
  162.3460  207.9480  148.6310 C   0  0  0  0  0  2  0  0  0  0  0  0
  161.9420  205.6880  147.5300 C   0  0  2  0  0  3  0  0  0  0  0  0
  161.0480  207.8460  149.4500 C   0  0  1  0  0  3  0  0  0  0  0  0
  160.3130  206.5040  149.2860 C   0  0  0  0  0  2  0  0  0  0  0  0
  162.1490  205.8450  146.0300 C   0  0  0  0  0  2  0  0  0  0  0  0
  160.8530  205.6260  145.2620 C   0  0  0  0  0  2  0  0  0  0  0  0
  161.1320  205.4860  143.7770 C   0  0  0  0  0  1  0  0  0  0  0  0
  162.6090  207.6950  151.4580 C   0  0  0  0  0  2  0  0  0  0  0  0
  162.3740  206.4300  152.2630 C   0  0  1  0  0  3  0  0  0  0  0  0
  160.9590  205.9290  154.2600 C   0  0  0  0  0  1  0  0  0  0  0  0
  160.9600  206.4250  152.8250 C   0  0  0  0  0  2  0  0  0  0  0  0
  162.5580  205.2800  151.3890 N   0  0  0  0  0  2  0  0  0  0  0  0
  161.4150  204.3930  151.5550 C   0  0  0  0  0  2  0  0  0  0  0  0
  161.6970  203.0400  150.9180 C   0  0  0  0  0  2  0  0  0  0  0  0
  161.2240  202.5570  148.5320 C   0  0  0  0  0  2  0  0  0  0  0  0
  161.4660  201.0750  148.3850 C   0  0  1  0  0  3  0  0  0  0  0  0
  160.5490  200.3750  149.2780 N   0  0  0  0  0  2  0  0  0  0  0  0
  160.6160  202.7150  149.9010 C   0  0  1  0  0  3  0  0  0  0  0  0
  160.0150  201.3610  150.2140 C   0  0  0  0  0  2  0  0  0  0  0  0
  161.2220  200.6580  146.9460 C   0  0  0  0  0  2  0  0  0  0  0  0
  160.0280  201.6530  145.0650 C   0  0  0  0  0  2  0  0  0  0  0  0
  160.8100  201.8320  146.1250 C   0  0  0  0  0  3  0  0  0  0  0  0
  1 13  1  0  0  0  0
  1 27  1  6  0  0  0
  2  3  1  1  0  0  0
  4  7  1  0  0  0  0
  4 13  1  0  0  0  0
  6 11  1  0  0  0  0
  7 10  2  0  0  0  0
  8 16  1  6  0  0  0
  8  2  1  0  0  0  0
  9 12  2  0  0  0  0
  9  6  1  0  0  0  0
 10 12  1  0  0  0  0
 11  2  1  0  0  0  0
 11  5  2  0  0  0  0
 12  8  1  0  0  0  0
 13  9  1  0  0  0  0
 14 17  2  0  0  0  0
 17 15  1  0  0  0  0
 17 16  1  0  0  0  0
 18 23  1  0  0  0  0
 19 20  1  0  0  0  0
 20 22  1  0  0  0  0
 21 24  1  6  0  0  0
 21 18  1  0  0  0  0
 21 19  1  0  0  0  0
 22  1  1  1  0  0  0
 23 22  1  0  0  0  0
 25 24  1  0  0  0  0
 26 25  1  0  0  0  0
 28 27  1  6  0  0  0
 28 30  1  0  0  0  0
 30 29  1  0  0  0  0
 31 32  1  0  0  0  0
 31 28  1  0  0  0  0
 33 32  1  0  0  0  0
 34 37  1  0  0  0  0
 35 39  1  6  0  0  0
 35 34  1  0  0  0  0
 35 36  1  0  0  0  0
 36 38  1  0  0  0  0
 37 38  1  0  0  0  0
 37 33  1  1  0  0  0
 40 41  2  0  0  0  0
 41 39  1  0  0  0  0
M  END
>  <MODEL>
1

>  <REMARK>
 VINA RESULT:      -6.2      0.000      0.000
  Name = 
  14 active torsions:
  status: ('A' for Active; 'I' for Inactive)
    1  A    between atoms: C_4  and  C_21
    2  A    between atoms: C_4  and  C_35
    3  A    between atoms: C_12  and  C_31
    4  A    between atoms: C_15  and  C_31
    5  A    between atoms: C_16  and  N_28
    6  A    between atoms: N_18  and  C_21
    7  A    between atoms: N_18  and  C_39
    8  A    between atoms: C_24  and  C_26
    9  A    between atoms: C_25  and  C_30
   10  A    between atoms: C_26  and  C_34
   11  A    between atoms: C_30  and  C_32
   12  A    between atoms: C_30  and  N_38
   13  A    between atoms: C_32  and  C_39
   14  A    between atoms: C_36  and  C_39
                            x       y       z     vdW  Elec       q    Type
                         _______ _______ _______ _____ _____    ______ ____

>  <TORSDO>
F 14

$$$$
=
 OpenBabel11042420503D

 41 44  0  0  1  0  0  0  0  0999 V2000
  159.0230  212.7490  152.1480 C   0  0  1  0  0  3  0  0  0  0  0  0
  161.0980  213.2910  147.4190 C   0  0  1  0  0  3  0  0  0  0  0  0
  161.8560  212.7040  146.2370 C   0  0  0  0  0  1  0  0  0  0  0  0
  156.9510  212.9670  150.6990 C   0  0  0  0  0  2  0  0  0  0  0  0
  162.7550  212.3370  148.8730 O   0  0  0  0  0  0  0  0  0  0  0  0
  160.6320  212.5470  149.7940 N   0  0  0  0  0  2  0  0  0  0  0  0
  156.5090  213.5700  149.3960 C   0  0  0  0  0  3  0  0  0  0  0  0
  159.5870  213.1070  147.2030 C   0  0  1  0  0  3  0  0  0  0  0  0
  159.2530  212.9140  149.6630 C   0  0  0  0  0  0  0  0  0  0  0  0
  157.3380  213.6680  148.3590 C   0  0  0  0  0  3  0  0  0  0  0  0
  161.5500  212.6730  148.7080 C   0  0  0  0  0  0  0  0  0  0  0  0
  158.7520  213.2570  148.4620 C   0  0  0  0  0  0  0  0  0  0  0  0
  158.4120  212.9580  150.8330 N   0  0  0  0  0  0  0  0  0  0  0  0
  158.7440  212.2900  144.5440 O   0  0  0  0  0  0  0  0  0  0  0  0
  158.2310  214.4520  143.8750 N   0  0  0  0  0  1  0  0  0  0  0  0
  159.1110  213.9770  146.1260 N   0  0  0  0  0  2  0  0  0  0  0  0
  158.6910  213.5140  144.8380 C   0  0  0  0  0  0  0  0  0  0  0  0
  158.2090  214.1130  155.6870 C   0  0  0  0  0  2  0  0  0  0  0  0
  157.6470  211.6560  155.1690 C   0  0  0  0  0  2  0  0  0  0  0  0
  157.1940  212.2400  153.8280 C   0  0  0  0  0  2  0  0  0  0  0  0
  157.7940  212.7460  156.2500 C   0  0  2  0  0  3  0  0  0  0  0  0
  158.1760  213.3000  153.3020 C   0  0  1  0  0  3  0  0  0  0  0  0
  159.0210  213.9660  154.4030 C   0  0  0  0  0  2  0  0  0  0  0  0
  156.5010  212.9060  157.0370 C   0  0  0  0  0  2  0  0  0  0  0  0
  155.9860  214.3380  156.9800 C   0  0  0  0  0  2  0  0  0  0  0  0
  154.8400  214.4520  155.9920 C   0  0  0  0  0  1  0  0  0  0  0  0
  159.4210  211.2920  152.3480 C   0  0  0  0  0  2  0  0  0  0  0  0
  160.7200  211.2080  153.1280 C   0  0  1  0  0  3  0  0  0  0  0  0
  161.2730  210.9980  155.5560 C   0  0  0  0  0  1  0  0  0  0  0  0
  160.5170  210.3850  154.3920 C   0  0  0  0  0  2  0  0  0  0  0  0
  161.7290  210.5780  152.2890 N   0  0  0  0  0  2  0  0  0  0  0  0
  161.3270  209.1980  152.0500 C   0  0  0  0  0  2  0  0  0  0  0  0
  161.3580  208.8870  150.5610 C   0  0  0  0  0  2  0  0  0  0  0  0
  161.7740  206.5550  151.2950 C   0  0  0  0  0  2  0  0  0  0  0  0
  160.7380  205.7340  150.5680 C   0  0  1  0  0  3  0  0  0  0  0  0
  160.9490  205.9020  149.1350 N   0  0  0  0  0  2  0  0  0  0  0  0
  162.1720  207.6270  150.3160 C   0  0  1  0  0  3  0  0  0  0  0  0
  161.8260  207.0560  148.9570 C   0  0  0  0  0  2  0  0  0  0  0  0
  160.8820  204.2720  150.9540 C   0  0  0  0  0  2  0  0  0  0  0  0
  160.8160  202.0850  149.8760 C   0  0  0  0  0  2  0  0  0  0  0  0
  160.8510  203.4070  149.7410 C   0  0  0  0  0  3  0  0  0  0  0  0
  1 27  1  1  0  0  0
  2  3  1  6  0  0  0
  2 11  1  0  0  0  0
  4 13  1  0  0  0  0
  7  4  1  0  0  0  0
  8 16  1  6  0  0  0
  8  2  1  0  0  0  0
  8 12  1  0  0  0  0
  9  6  1  0  0  0  0
  9 13  1  0  0  0  0
 10 12  1  0  0  0  0
 10  7  2  0  0  0  0
 11  5  2  0  0  0  0
 11  6  1  0  0  0  0
 12  9  2  0  0  0  0
 13  1  1  0  0  0  0
 14 17  2  0  0  0  0
 15 17  1  0  0  0  0
 17 16  1  0  0  0  0
 18 21  1  0  0  0  0
 19 21  1  0  0  0  0
 20 19  1  0  0  0  0
 21 24  1  6  0  0  0
 22  1  1  6  0  0  0
 22 20  1  0  0  0  0
 22 23  1  0  0  0  0
 23 18  1  0  0  0  0
 25 24  1  0  0  0  0
 26 25  1  0  0  0  0
 28 27  1  6  0  0  0
 28 30  1  0  0  0  0
 30 29  1  0  0  0  0
 31 28  1  0  0  0  0
 32 31  1  0  0  0  0
 33 32  1  0  0  0  0
 35 39  1  6  0  0  0
 35 34  1  0  0  0  0
 36 35  1  0  0  0  0
 37 33  1  1  0  0  0
 37 34  1  0  0  0  0
 38 36  1  0  0  0  0
 38 37  1  0  0  0  0
 41 40  2  0  0  0  0
 41 39  1  0  0  0  0
M  END
>  <MODEL>
2

>  <REMARK>
 VINA RESULT:      -5.7      3.622      7.900
  Name = 
  14 active torsions:
  status: ('A' for Active; 'I' for Inactive)
    1  A    between atoms: C_4  and  C_21
    2  A    between atoms: C_4  and  C_35
    3  A    between atoms: C_12  and  C_31
    4  A    between atoms: C_15  and  C_31
    5  A    between atoms: C_16  and  N_28
    6  A    between atoms: N_18  and  C_21
    7  A    between atoms: N_18  and  C_39
    8  A    between atoms: C_24  and  C_26
    9  A    between atoms: C_25  and  C_30
   10  A    between atoms: C_26  and  C_34
   11  A    between atoms: C_30  and  C_32
   12  A    between atoms: C_30  and  N_38
   13  A    between atoms: C_32  and  C_39
   14  A    between atoms: C_36  and  C_39
                            x       y       z     vdW  Elec       q    Type
                         _______ _______ _______ _____ _____    ______ ____

>  <TORSDO>
F 14

$$$$
=
 OpenBabel11042420503D

 41 44  0  0  1  0  0  0  0  0999 V2000
  161.5000  208.1500  150.8320 C   0  0  1  0  0  3  0  0  0  0  0  0
  159.9600  208.0700  155.7900 C   0  0  1  0  0  3  0  0  0  0  0  0
  160.2590  207.8080  157.2590 C   0  0  0  0  0  1  0  0  0  0  0  0
  161.2560  210.6260  151.3340 C   0  0  0  0  0  2  0  0  0  0  0  0
  160.9700  205.9530  155.2720 O   0  0  0  0  0  0  0  0  0  0  0  0
  161.1370  207.5640  153.6060 N   0  0  0  0  0  0  0  0  0  0  0  0
  160.4910  211.5530  152.2340 C   0  0  0  0  0  3  0  0  0  0  0  0
  160.2600  209.5420  155.4600 C   0  0  1  0  0  3  0  0  0  0  0  0
  160.8970  208.8980  153.1410 C   0  0  0  0  0  0  0  0  0  0  0  0
  160.1360  211.1900  153.4650 C   0  0  0  0  0  3  0  0  0  0  0  0
  160.7370  207.1390  154.9080 C   0  0  0  0  0  0  0  0  0  0  0  0
  160.4110  209.8330  153.9780 C   0  0  2  0  0  3  0  0  0  0  0  0
  161.1370  209.2250  151.7570 N   0  0  0  0  0  0  0  0  0  0  0  0
  160.7740  212.1020  156.7390 O   0  0  0  0  0  0  0  0  0  0  0  0
  158.5420  212.4630  157.2610 N   0  0  0  0  0  1  0  0  0  0  0  0
  159.2750  210.4230  156.0910 N   0  0  0  0  0  2  0  0  0  0  0  0
  159.5860  211.6850  156.6920 C   0  0  0  0  0  0  0  0  0  0  0  0
  162.1790  204.4620  151.8240 C   0  0  0  0  0  2  0  0  0  0  0  0
  160.8640  204.9200  149.6610 C   0  0  0  0  0  2  0  0  0  0  0  0
  160.1970  205.9990  150.5180 C   0  0  0  0  0  2  0  0  0  0  0  0
  161.6100  203.8810  150.5220 C   0  0  2  0  0  3  0  0  0  0  0  0
  161.2170  206.7500  151.3910 C   0  0  1  0  0  3  0  0  0  0  0  0
  162.4980  205.9470  151.6820 C   0  0  0  0  0  2  0  0  0  0  0  0
  160.7040  202.7040  150.8590 C   0  0  0  0  0  2  0  0  0  0  0  0
  160.2390  201.9810  149.6020 C   0  0  0  0  0  2  0  0  0  0  0  0
  161.3380  201.0820  149.0680 C   0  0  0  0  0  1  0  0  0  0  0  0
  160.8880  208.3740  149.4550 C   0  0  0  0  0  2  0  0  0  0  0  0
  161.9770  208.6790  148.4430 C   0  0  1  0  0  3  0  0  0  0  0  0
  161.5250  211.0940  147.9880 C   0  0  0  0  0  1  0  0  0  0  0  0
  162.4790  210.1030  148.6310 C   0  0  0  0  0  2  0  0  0  0  0  0
  163.0740  207.7420  148.6400 N   0  0  0  0  0  2  0  0  0  0  0  0
  162.7340  206.4930  147.9740 C   0  0  0  0  0  2  0  0  0  0  0  0
  162.0810  206.7710  146.6270 C   0  0  0  0  0  2  0  0  0  0  0  0
  162.4470  204.3390  146.3110 C   0  0  0  0  0  2  0  0  0  0  0  0
  161.0760  203.7800  146.0220 C   0  0  1  0  0  3  0  0  0  0  0  0
  160.5700  204.4190  144.8130 N   0  0  0  0  0  2  0  0  0  0  0  0
  162.4640  205.6850  145.6360 C   0  0  1  0  0  3  0  0  0  0  0  0
  161.4070  205.5880  144.5560 C   0  0  0  0  0  2  0  0  0  0  0  0
  161.1680  202.2770  145.8250 C   0  0  0  0  0  2  0  0  0  0  0  0
  159.8800  200.4800  144.7930 C   0  0  0  0  0  2  0  0  0  0  0  0
  159.9710  201.7720  145.0960 C   0  0  0  0  0  3  0  0  0  0  0  0
  1 27  1  6  0  0  0
  1 13  1  0  0  0  0
  2  3  1  1  0  0  0
  4 13  1  0  0  0  0
  4  7  1  0  0  0  0
  6 11  1  0  0  0  0
  7 10  2  0  0  0  0
  8  2  1  0  0  0  0
  8 16  1  6  0  0  0
  9  6  2  0  0  0  0
  9 12  1  0  0  0  0
 11  5  2  0  0  0  0
 11  2  1  0  0  0  0
 12 10  1  1  0  0  0
 12  8  1  0  0  0  0
 13  9  1  0  0  0  0
 16 17  1  0  0  0  0
 17 14  2  0  0  0  0
 17 15  1  0  0  0  0
 19 20  1  0  0  0  0
 19 21  1  0  0  0  0
 20 22  1  0  0  0  0
 21 24  1  1  0  0  0
 21 18  1  0  0  0  0
 22  1  1  6  0  0  0
 22 23  1  0  0  0  0
 23 18  1  0  0  0  0
 25 24  1  0  0  0  0
 26 25  1  0  0  0  0
 28 30  1  1  0  0  0
 28 31  1  0  0  0  0
 28 27  1  0  0  0  0
 29 30  1  0  0  0  0
 32 31  1  0  0  0  0
 33 32  1  0  0  0  0
 35 39  1  6  0  0  0
 35 34  1  0  0  0  0
 36 35  1  0  0  0  0
 37 34  1  0  0  0  0
 37 33  1  1  0  0  0
 38 36  1  0  0  0  0
 38 37  1  0  0  0  0
 40 41  2  0  0  0  0
 41 39  1  0  0  0  0
M  END
>  <MODEL>
3

>  <REMARK>
 VINA RESULT:      -5.6      1.958      3.982
  Name = 
  14 active torsions:
  status: ('A' for Active; 'I' for Inactive)
    1  A    between atoms: C_4  and  C_21
    2  A    between atoms: C_4  and  C_35
    3  A    between atoms: C_12  and  C_31
    4  A    between atoms: C_15  and  C_31
    5  A    between atoms: C_16  and  N_28
    6  A    between atoms: N_18  and  C_21
    7  A    between atoms: N_18  and  C_39
    8  A    between atoms: C_24  and  C_26
    9  A    between atoms: C_25  and  C_30
   10  A    between atoms: C_26  and  C_34
   11  A    between atoms: C_30  and  C_32
   12  A    between atoms: C_30  and  N_38
   13  A    between atoms: C_32  and  C_39
   14  A    between atoms: C_36  and  C_39
                            x       y       z     vdW  Elec       q    Type
                         _______ _______ _______ _____ _____    ______ ____

>  <TORSDO>
F 14

$$$$
=
 OpenBabel11042420503D

 41 44  0  0  1  0  0  0  0  0999 V2000
  161.4620  209.1370  150.5230 C   0  0  1  0  0  3  0  0  0  0  0  0
  161.4480  204.0720  151.6680 C   0  0  1  0  0  3  0  0  0  0  0  0
  160.7800  202.8700  152.3210 C   0  0  0  0  0  1  0  0  0  0  0  0
  161.0830  208.0940  148.2400 C   0  0  0  0  0  2  0  0  0  0  0  0
  161.0480  205.3110  153.6870 O   0  0  0  0  0  0  0  0  0  0  0  0
  161.0880  206.5780  151.7390 N   0  0  0  0  0  2  0  0  0  0  0  0
  161.3600  206.8240  147.4880 C   0  0  0  0  0  3  0  0  0  0  0  0
  160.9920  204.1790  150.2030 C   0  0  1  0  0  3  0  0  0  0  0  0
  161.2030  206.6580  150.3140 C   0  0  0  0  0  0  0  0  0  0  0  0
  161.3950  205.6450  148.1060 C   0  0  0  0  0  3  0  0  0  0  0  0
  161.1550  205.3300  152.4300 C   0  0  0  0  0  0  0  0  0  0  0  0
  161.2370  205.5370  149.5700 C   0  0  0  0  0  0  0  0  0  0  0  0
  161.3280  207.9470  149.6800 N   0  0  0  0  0  0  0  0  0  0  0  0
  159.6080  201.8180  149.2220 O   0  0  0  0  0  0  0  0  0  0  0  0
  161.4860  200.9750  148.1510 N   0  0  0  0  0  1  0  0  0  0  0  0
  161.5640  203.0940  149.4050 N   0  0  0  0  0  2  0  0  0  0  0  0
  160.8260  201.9610  148.9340 C   0  0  0  0  0  0  0  0  0  0  0  0
  160.3680  209.0340  154.2430 C   0  0  0  0  0  2  0  0  0  0  0  0
  162.1520  210.7510  153.5440 C   0  0  0  0  0  2  0  0  0  0  0  0
  162.6750  209.5840  152.7030 C   0  0  0  0  0  2  0  0  0  0  0  0
  161.1750  210.2780  154.6400 C   0  0  2  0  0  3  0  0  0  0  0  0
  161.5340  208.8120  152.0200 C   0  0  1  0  0  3  0  0  0  0  0  0
  160.1750  208.9500  152.7320 C   0  0  0  0  0  2  0  0  0  0  0  0
  161.9140  209.9950  155.9400 C   0  0  0  0  0  2  0  0  0  0  0  0
  161.8030  211.1640  156.9100 C   0  0  0  0  0  2  0  0  0  0  0  0
  160.5970  212.0210  156.5740 C   0  0  0  0  0  1  0  0  0  0  0  0
  162.6090  210.0230  150.0530 C   0  0  0  0  0  2  0  0  0  0  0  0
  162.0930  211.4090  149.7140 C   0  0  1  0  0  3  0  0  0  0  0  0
  163.0850  212.4990  147.6960 C   0  0  0  0  0  1  0  0  0  0  0  0
  161.9950  211.5730  148.2040 C   0  0  0  0  0  2  0  0  0  0  0  0
  160.7770  211.5770  150.3120 N   0  0  0  0  0  2  0  0  0  0  0  0
  160.3660  212.9620  150.1300 C   0  0  0  0  0  2  0  0  0  0  0  0
  159.8110  213.5260  151.4300 C   0  0  0  0  0  2  0  0  0  0  0  0
  158.6330  212.3050  153.2390 C   0  0  0  0  0  2  0  0  0  0  0  0
  157.9550  213.3820  154.0500 C   0  0  1  0  0  3  0  0  0  0  0  0
  157.0290  214.0930  153.1760 N   0  0  0  0  0  2  0  0  0  0  0  0
  158.5430  212.7820  151.8140 C   0  0  1  0  0  3  0  0  0  0  0  0
  157.3700  213.7390  151.8010 C   0  0  0  0  0  2  0  0  0  0  0  0
  157.2060  212.7510  155.2110 C   0  0  0  0  0  2  0  0  0  0  0  0
  155.7580  210.7990  155.0100 C   0  0  0  0  0  2  0  0  0  0  0  0
  156.9890  211.2980  154.9640 C   0  0  0  0  0  3  0  0  0  0  0  0
  1 27  1  6  0  0  0
  2  3  1  1  0  0  0
  2 11  1  0  0  0  0
  4 13  1  0  0  0  0
  6 11  1  0  0  0  0
  7 10  2  0  0  0  0
  7  4  1  0  0  0  0
  8 16  1  6  0  0  0
  8  2  1  0  0  0  0
  9  6  1  0  0  0  0
 10 12  1  0  0  0  0
 11  5  2  0  0  0  0
 12  8  1  0  0  0  0
 12  9  2  0  0  0  0
 13  9  1  0  0  0  0
 13  1  1  0  0  0  0
 15 17  1  0  0  0  0
 17 14  2  0  0  0  0
 17 16  1  0  0  0  0
 18 21  1  0  0  0  0
 19 21  1  0  0  0  0
 20 19  1  0  0  0  0
 21 24  1  1  0  0  0
 22  1  1  6  0  0  0
 22 20  1  0  0  0  0
 22 23  1  0  0  0  0
 23 18  1  0  0  0  0
 24 25  1  0  0  0  0
 26 25  1  0  0  0  0
 28 30  1  6  0  0  0
 28 27  1  0  0  0  0
 28 31  1  0  0  0  0
 29 30  1  0  0  0  0
 32 31  1  0  0  0  0
 32 33  1  0  0  0  0
 34 35  1  0  0  0  0
 35 39  1  1  0  0  0
 36 35  1  0  0  0  0
 37 33  1  1  0  0  0
 37 34  1  0  0  0  0
 38 37  1  0  0  0  0
 38 36  1  0  0  0  0
 41 40  2  0  0  0  0
 41 39  1  0  0  0  0
M  END
>  <MODEL>
4

>  <REMARK>
 VINA RESULT:      -5.4      2.334      9.413
  Name = 
  14 active torsions:
  status: ('A' for Active; 'I' for Inactive)
    1  A    between atoms: C_4  and  C_21
    2  A    between atoms: C_4  and  C_35
    3  A    between atoms: C_12  and  C_31
    4  A    between atoms: C_15  and  C_31
    5  A    between atoms: C_16  and  N_28
    6  A    between atoms: N_18  and  C_21
    7  A    between atoms: N_18  and  C_39
    8  A    between atoms: C_24  and  C_26
    9  A    between atoms: C_25  and  C_30
   10  A    between atoms: C_26  and  C_34
   11  A    between atoms: C_30  and  C_32
   12  A    between atoms: C_30  and  N_38
   13  A    between atoms: C_32  and  C_39
   14  A    between atoms: C_36  and  C_39
                            x       y       z     vdW  Elec       q    Type
                         _______ _______ _______ _____ _____    ______ ____

>  <TORSDO>
F 14

$$$$
=
 OpenBabel11042420503D

 41 44  0  0  1  0  0  0  0  0999 V2000
  162.1960  208.4400  151.8360 C   0  0  1  0  0  3  0  0  0  0  0  0
  159.5140  212.6940  153.1340 C   0  0  1  0  0  3  0  0  0  0  0  0
  158.3910  213.6810  152.8510 C   0  0  0  0  0  1  0  0  0  0  0  0
  160.9740  207.6630  153.9210 C   0  0  0  0  0  2  0  0  0  0  0  0
  160.1710  212.8800  150.8310 O   0  0  0  0  0  0  0  0  0  0  0  0
  160.6330  210.8330  151.8290 N   0  0  0  0  0  0  0  0  0  0  0  0
  160.3810  208.2120  155.1870 C   0  0  0  0  0  3  0  0  0  0  0  0
  158.9910  211.5670  154.0400 C   0  0  1  0  0  3  0  0  0  0  0  0
  160.5670  209.9650  152.9660 C   0  0  0  0  0  0  0  0  0  0  0  0
  159.8390  209.4270  155.2290 C   0  0  0  0  0  3  0  0  0  0  0  0
  160.0880  212.1530  151.8580 C   0  0  0  0  0  0  0  0  0  0  0  0
  159.8600  210.3220  154.0550 C   0  0  2  0  0  3  0  0  0  0  0  0
  161.2990  208.7230  152.9600 N   0  0  0  0  0  0  0  0  0  0  0  0
  156.4010  212.1520  155.2230 O   0  0  0  0  0  0  0  0  0  0  0  0
  157.3060  212.7960  157.2610 N   0  0  0  0  0  1  0  0  0  0  0  0
  158.7360  212.0700  155.3920 N   0  0  0  0  0  2  0  0  0  0  0  0
  157.4320  212.3230  155.9270 C   0  0  0  0  0  0  0  0  0  0  0  0
  160.2470  205.2250  150.8820 C   0  0  0  0  0  2  0  0  0  0  0  0
  162.0680  205.0550  152.6910 C   0  0  0  0  0  2  0  0  0  0  0  0
  162.8290  205.9880  151.7460 C   0  0  0  0  0  2  0  0  0  0  0  0
  160.8790  204.3690  151.9880 C   0  0  2  0  0  3  0  0  0  0  0  0
  161.9200  207.0860  151.1700 C   0  0  1  0  0  3  0  0  0  0  0  0
  160.4270  206.7150  151.1560 C   0  0  0  0  0  2  0  0  0  0  0  0
  161.2970  203.0280  151.4000 C   0  0  0  0  0  2  0  0  0  0  0  0
  160.6380  202.7820  150.0500 C   0  0  0  0  0  2  0  0  0  0  0  0
  160.8160  201.3360  149.6270 C   0  0  0  0  0  1  0  0  0  0  0  0
  162.2220  209.5960  150.8440 C   0  0  0  0  0  2  0  0  0  0  0  0
  161.8580  209.1000  149.4560 C   0  0  1  0  0  3  0  0  0  0  0  0
  162.5700  211.4010  148.7900 C   0  0  0  0  0  1  0  0  0  0  0  0
  161.5770  210.2810  148.5390 C   0  0  0  0  0  2  0  0  0  0  0  0
  162.9730  208.3260  148.9300 N   0  0  0  0  0  2  0  0  0  0  0  0
  162.5630  207.7390  147.6620 C   0  0  0  0  0  2  0  0  0  0  0  0
  161.2920  206.9210  147.8420 C   0  0  0  0  0  2  0  0  0  0  0  0
  160.4530  204.8550  146.7590 C   0  0  0  0  0  2  0  0  0  0  0  0
  160.8980  204.9670  145.3220 C   0  0  1  0  0  3  0  0  0  0  0  0
  162.3550  205.0430  145.3020 N   0  0  0  0  0  2  0  0  0  0  0  0
  161.5780  205.4560  147.5580 C   0  0  1  0  0  3  0  0  0  0  0  0
  162.7930  205.3410  146.6630 C   0  0  0  0  0  2  0  0  0  0  0  0
  160.4230  203.7530  144.5430 C   0  0  0  0  0  2  0  0  0  0  0  0
  160.0810  201.3650  144.9090 C   0  0  0  0  0  2  0  0  0  0  0  0
  160.5540  202.5200  145.3690 C   0  0  0  0  0  3  0  0  0  0  0  0
  1 27  1  6  0  0  0
  1 13  1  0  0  0  0
  2  3  1  6  0  0  0
  2  8  1  0  0  0  0
  4  7  1  0  0  0  0
  5 11  2  0  0  0  0
  6 11  1  0  0  0  0
  6  9  2  0  0  0  0
  7 10  2  0  0  0  0
  8 12  1  0  0  0  0
  8 16  1  1  0  0  0
  9 12  1  0  0  0  0
 11  2  1  0  0  0  0
 12 10  1  6  0  0  0
 13  9  1  0  0  0  0
 13  4  1  0  0  0  0
 14 17  2  0  0  0  0
 16 17  1  0  0  0  0
 17 15  1  0  0  0  0
 18 23  1  0  0  0  0
 18 21  1  0  0  0  0
 20 19  1  0  0  0  0
 21 24  1  6  0  0  0
 21 19  1  0  0  0  0
 22 20  1  0  0  0  0
 22  1  1  1  0  0  0
 23 22  1  0  0  0  0
 25 24  1  0  0  0  0
 26 25  1  0  0  0  0
 28 30  1  6  0  0  0
 28 27  1  0  0  0  0
 30 29  1  0  0  0  0
 31 28  1  0  0  0  0
 32 33  1  0  0  0  0
 32 31  1  0  0  0  0
 34 37  1  0  0  0  0
 35 39  1  6  0  0  0
 35 34  1  0  0  0  0
 36 35  1  0  0  0  0
 36 38  1  0  0  0  0
 37 33  1  6  0  0  0
 38 37  1  0  0  0  0
 39 41  1  0  0  0  0
 40 41  2  0  0  0  0
M  END
>  <MODEL>
5

>  <REMARK>
 VINA RESULT:      -5.2      1.947      4.229
  Name = 
  14 active torsions:
  status: ('A' for Active; 'I' for Inactive)
    1  A    between atoms: C_4  and  C_21
    2  A    between atoms: C_4  and  C_35
    3  A    between atoms: C_12  and  C_31
    4  A    between atoms: C_15  and  C_31
    5  A    between atoms: C_16  and  N_28
    6  A    between atoms: N_18  and  C_21
    7  A    between atoms: N_18  and  C_39
    8  A    between atoms: C_24  and  C_26
    9  A    between atoms: C_25  and  C_30
   10  A    between atoms: C_26  and  C_34
   11  A    between atoms: C_30  and  C_32
   12  A    between atoms: C_30  and  N_38
   13  A    between atoms: C_32  and  C_39
   14  A    between atoms: C_36  and  C_39
                            x       y       z     vdW  Elec       q    Type
                         _______ _______ _______ _____ _____    ______ ____

>  <TORSDO>
F 14

$$$$
=
 OpenBabel11042420503D

 41 44  0  0  1  0  0  0  0  0999 V2000
  161.6990  209.9140  151.9450 C   0  0  1  0  0  3  0  0  0  0  0  0
  159.4090  212.3220  155.9360 C   0  0  1  0  0  3  0  0  0  0  0  0
  159.5080  213.1530  157.2060 C   0  0  0  0  0  1  0  0  0  0  0  0
  160.5390  211.8490  150.7820 C   0  0  0  0  0  2  0  0  0  0  0  0
  161.1560  210.9150  156.7950 O   0  0  0  0  0  0  0  0  0  0  0  0
  161.0620  211.0730  154.4790 N   0  0  0  0  0  2  0  0  0  0  0  0
  159.3550  212.7570  150.9490 C   0  0  0  0  0  3  0  0  0  0  0  0
  159.2430  213.2530  154.7240 C   0  0  1  0  0  3  0  0  0  0  0  0
  160.4710  211.6230  153.2960 C   0  0  0  0  0  0  0  0  0  0  0  0
  158.9290  213.1260  152.1550 C   0  0  0  0  0  3  0  0  0  0  0  0
  160.6020  211.4260  155.7830 C   0  0  0  0  0  0  0  0  0  0  0  0
  159.5520  212.6020  153.3870 C   0  0  0  0  0  0  0  0  0  0  0  0
  160.8300  211.0920  152.0050 N   0  0  0  0  0  0  0  0  0  0  0  0
  156.6710  211.9000  154.7800 O   0  0  0  0  0  0  0  0  0  0  0  0
  155.4590  213.8780  154.7980 N   0  0  0  0  0  1  0  0  0  0  0  0
  157.9210  213.8810  154.7320 N   0  0  0  0  0  2  0  0  0  0  0  0
  156.6840  213.1600  154.7780 C   0  0  0  0  0  0  0  0  0  0  0  0
  160.4520  206.7310  153.7760 C   0  0  0  0  0  2  0  0  0  0  0  0
  162.3630  206.4860  152.0710 C   0  0  0  0  0  2  0  0  0  0  0  0
  161.5200  207.4790  151.2670 C   0  0  0  0  0  2  0  0  0  0  0  0
  161.5490  205.8240  153.2020 C   0  0  2  0  0  3  0  0  0  0  0  0
  160.9450  208.5950  152.1550 C   0  0  1  0  0  3  0  0  0  0  0  0
  160.8150  208.2060  153.6390 C   0  0  0  0  0  2  0  0  0  0  0  0
  160.9190  204.5230  152.7260 C   0  0  0  0  0  2  0  0  0  0  0  0
  161.6200  203.9840  151.4860 C   0  0  0  0  0  2  0  0  0  0  0  0
  160.7460  202.9650  150.7800 C   0  0  0  0  0  1  0  0  0  0  0  0
  162.5490  209.9170  150.6800 C   0  0  0  0  0  2  0  0  0  0  0  0
  161.7380  209.4010  149.5060 C   0  0  1  0  0  3  0  0  0  0  0  0
  162.8090  211.4610  148.5830 C   0  0  0  0  0  1  0  0  0  0  0  0
  161.6920  210.4500  148.4040 C   0  0  0  0  0  2  0  0  0  0  0  0
  162.3650  208.1880  149.0020 N   0  0  0  0  0  2  0  0  0  0  0  0
  161.3170  207.2950  148.5260 C   0  0  0  0  0  2  0  0  0  0  0  0
  161.7250  206.6540  147.2070 C   0  0  0  0  0  2  0  0  0  0  0  0
  161.1730  204.2500  147.4580 C   0  0  0  0  0  2  0  0  0  0  0  0
  161.1450  203.7140  146.0480 C   0  0  1  0  0  3  0  0  0  0  0  0
  162.4640  203.9140  145.4600 N   0  0  0  0  0  2  0  0  0  0  0  0
  162.2850  205.2650  147.4620 C   0  0  1  0  0  3  0  0  0  0  0  0
  163.1810  204.8600  146.3110 C   0  0  0  0  0  2  0  0  0  0  0  0
  160.7960  202.2360  146.0700 C   0  0  0  0  0  2  0  0  0  0  0  0
  161.5920  200.7990  147.8740 C   0  0  0  0  0  2  0  0  0  0  0  0
  160.7370  201.7350  147.4730 C   0  0  0  0  0  3  0  0  0  0  0  0
  1 27  1  6  0  0  0
  1 13  1  0  0  0  0
  2  3  1  1  0  0  0
  4  7  1  0  0  0  0
  4 13  1  0  0  0  0
  6 11  1  0  0  0  0
  7 10  2  0  0  0  0
  8 16  1  6  0  0  0
  8  2  1  0  0  0  0
  9 12  2  0  0  0  0
  9  6  1  0  0  0  0
 10 12  1  0  0  0  0
 11  2  1  0  0  0  0
 11  5  2  0  0  0  0
 12  8  1  0  0  0  0
 13  9  1  0  0  0  0
 16 17  1  0  0  0  0
 17 14  2  0  0  0  0
 17 15  1  0  0  0  0
 19 21  1  0  0  0  0
 20 19  1  0  0  0  0
 20 22  1  0  0  0  0
 21 24  1  6  0  0  0
 21 18  1  0  0  0  0
 22  1  1  1  0  0  0
 22 23  1  0  0  0  0
 23 18  1  0  0  0  0
 25 24  1  0  0  0  0
 26 25  1  0  0  0  0
 28 30  1  6  0  0  0
 28 27  1  0  0  0  0
 30 29  1  0  0  0  0
 31 28  1  0  0  0  0
 32 31  1  0  0  0  0
 33 32  1  0  0  0  0
 34 37  1  0  0  0  0
 35 39  1  1  0  0  0
 35 34  1  0  0  0  0
 36 35  1  0  0  0  0
 36 38  1  0  0  0  0
 37 33  1  6  0  0  0
 38 37  1  0  0  0  0
 39 41  1  0  0  0  0
 41 40  2  0  0  0  0
M  END
>  <MODEL>
6

>  <REMARK>
 VINA RESULT:      -5.1      1.723      3.916
  Name = 
  14 active torsions:
  status: ('A' for Active; 'I' for Inactive)
    1  A    between atoms: C_4  and  C_21
    2  A    between atoms: C_4  and  C_35
    3  A    between atoms: C_12  and  C_31
    4  A    between atoms: C_15  and  C_31
    5  A    between atoms: C_16  and  N_28
    6  A    between atoms: N_18  and  C_21
    7  A    between atoms: N_18  and  C_39
    8  A    between atoms: C_24  and  C_26
    9  A    between atoms: C_25  and  C_30
   10  A    between atoms: C_26  and  C_34
   11  A    between atoms: C_30  and  C_32
   12  A    between atoms: C_30  and  N_38
   13  A    between atoms: C_32  and  C_39
   14  A    between atoms: C_36  and  C_39
                            x       y       z     vdW  Elec       q    Type
                         _______ _______ _______ _____ _____    ______ ____

>  <TORSDO>
F 14

$$$$
=
 OpenBabel11042420503D

 41 44  0  0  1  0  0  0  0  0999 V2000
  161.1260  208.3710  153.0870 C   0  0  1  0  0  3  0  0  0  0  0  0
  160.9170  206.2130  148.3690 C   0  0  1  0  0  3  0  0  0  0  0  0
  161.5230  205.9980  146.9890 C   0  0  0  0  0  1  0  0  0  0  0  0
  161.5080  205.9190  153.6250 C   0  0  0  0  0  2  0  0  0  0  0  0
  161.3270  208.5660  148.1130 O   0  0  0  0  0  0  0  0  0  0  0  0
  161.3750  207.7840  150.3010 N   0  0  0  0  0  0  0  0  0  0  0  0
  161.1950  204.5540  153.0830 C   0  0  0  0  0  3  0  0  0  0  0  0
  161.4050  205.1090  149.3210 C   0  0  1  0  0  3  0  0  0  0  0  0
  161.2910  206.7000  151.2330 C   0  0  0  0  0  0  0  0  0  0  0  0
  161.1020  204.3320  151.7740 C   0  0  0  0  0  3  0  0  0  0  0  0
  161.2450  207.5780  148.8940 C   0  0  0  0  0  0  0  0  0  0  0  0
  161.2270  205.4290  150.7950 C   0  0  2  0  0  3  0  0  0  0  0  0
  161.2290  206.9780  152.6470 N   0  0  0  0  0  0  0  0  0  0  0  0
  162.3230  203.2610  147.2730 O   0  0  0  0  0  0  0  0  0  0  0  0
  160.6560  201.7070  147.7120 N   0  0  0  0  0  1  0  0  0  0  0  0
  160.8050  203.8210  148.9670 N   0  0  0  0  0  2  0  0  0  0  0  0
  161.3140  202.9420  147.9570 C   0  0  0  0  0  0  0  0  0  0  0  0
  161.6600  211.3310  150.6380 C   0  0  0  0  0  2  0  0  0  0  0  0
  160.0870  211.6770  152.6440 C   0  0  0  0  0  2  0  0  0  0  0  0
  159.6330  210.2580  152.2920 C   0  0  0  0  0  2  0  0  0  0  0  0
  160.8680  212.3340  151.4880 C   0  0  2  0  0  3  0  0  0  0  0  0
  160.8210  209.3460  151.9430 C   0  0  1  0  0  3  0  0  0  0  0  0
  162.0660  210.1050  151.4520 C   0  0  0  0  0  2  0  0  0  0  0  0
  159.9340  213.1230  150.5820 C   0  0  0  0  0  2  0  0  0  0  0  0
  160.6940  213.7930  149.4460 C   0  0  0  0  0  2  0  0  0  0  0  0
  160.3430  213.1490  148.1180 C   0  0  0  0  0  1  0  0  0  0  0  0
  160.1630  208.5110  154.2590 C   0  0  0  0  0  2  0  0  0  0  0  0
  160.9080  208.9850  155.4930 C   0  0  1  0  0  3  0  0  0  0  0  0
  160.0880  207.0070  156.7810 C   0  0  0  0  0  1  0  0  0  0  0  0
  161.3120  207.7930  156.3480 C   0  0  0  0  0  2  0  0  0  0  0  0
  162.0970  209.7120  155.0710 N   0  0  0  0  0  2  0  0  0  0  0  0
  162.0360  211.0540  155.6330 C   0  0  0  0  0  2  0  0  0  0  0  0
  160.7080  211.2710  156.3440 C   0  0  0  0  0  2  0  0  0  0  0  0
  158.5960  212.0900  155.3350 C   0  0  0  0  0  2  0  0  0  0  0  0
  157.7320  212.4740  156.5110 C   0  0  1  0  0  3  0  0  0  0  0  0
  158.4230  213.5180  157.2590 N   0  0  0  0  0  2  0  0  0  0  0  0
  159.9940  212.4700  155.7430 C   0  0  1  0  0  3  0  0  0  0  0  0
  159.8100  213.5350  156.8030 C   0  0  0  0  0  2  0  0  0  0  0  0
  156.3890  212.9800  156.0150 C   0  0  0  0  0  2  0  0  0  0  0  0
  155.3780  213.7580  153.9360 C   0  0  0  0  0  2  0  0  0  0  0  0
  156.4710  213.3500  154.5740 C   0  0  0  0  0  3  0  0  0  0  0  0
  1 27  1  1  0  0  0
  2  3  1  6  0  0  0
  2 11  1  0  0  0  0
  2  8  1  0  0  0  0
  5 11  2  0  0  0  0
  6  9  2  0  0  0  0
  7  4  1  0  0  0  0
  8 16  1  6  0  0  0
  8 12  1  0  0  0  0
  9 13  1  0  0  0  0
 10  7  2  0  0  0  0
 11  6  1  0  0  0  0
 12  9  1  0  0  0  0
 12 10  1  1  0  0  0
 13  1  1  0  0  0  0
 13  4  1  0  0  0  0
 14 17  2  0  0  0  0
 15 17  1  0  0  0  0
 17 16  1  0  0  0  0
 18 23  1  0  0  0  0
 18 21  1  0  0  0  0
 20 19  1  0  0  0  0
 21 24  1  6  0  0  0
 21 19  1  0  0  0  0
 22 20  1  0  0  0  0
 22  1  1  1  0  0  0
 23 22  1  0  0  0  0
 25 24  1  0  0  0  0
 26 25  1  0  0  0  0
 28 27  1  6  0  0  0
 28 30  1  0  0  0  0
 30 29  1  0  0  0  0
 31 28  1  0  0  0  0
 31 32  1  0  0  0  0
 32 33  1  0  0  0  0
 34 37  1  0  0  0  0
 34 35  1  0  0  0  0
 35 39  1  6  0  0  0
 35 36  1  0  0  0  0
 37 33  1  1  0  0  0
 37 38  1  0  0  0  0
 38 36  1  0  0  0  0
 40 41  2  0  0  0  0
 41 39  1  0  0  0  0
M  END
>  <MODEL>
7

>  <REMARK>
 VINA RESULT:      -5.0      2.694      9.324
  Name = 
  14 active torsions:
  status: ('A' for Active; 'I' for Inactive)
    1  A    between atoms: C_4  and  C_21
    2  A    between atoms: C_4  and  C_35
    3  A    between atoms: C_12  and  C_31
    4  A    between atoms: C_15  and  C_31
    5  A    between atoms: C_16  and  N_28
    6  A    between atoms: N_18  and  C_21
    7  A    between atoms: N_18  and  C_39
    8  A    between atoms: C_24  and  C_26
    9  A    between atoms: C_25  and  C_30
   10  A    between atoms: C_26  and  C_34
   11  A    between atoms: C_30  and  C_32
   12  A    between atoms: C_30  and  N_38
   13  A    between atoms: C_32  and  C_39
   14  A    between atoms: C_36  and  C_39
                            x       y       z     vdW  Elec       q    Type
                         _______ _______ _______ _____ _____    ______ ____

>  <TORSDO>
F 14

$$$$
=
 OpenBabel11042420503D

 41 44  0  0  1  0  0  0  0  0999 V2000
  161.3470  209.3430  152.5490 C   0  0  1  0  0  3  0  0  0  0  0  0
  160.7060  213.0830  149.0040 C   0  0  1  0  0  3  0  0  0  0  0  0
  161.0720  214.4530  148.4530 C   0  0  0  0  0  1  0  0  0  0  0  0
  162.3260  208.2580  150.4730 C   0  0  0  0  0  2  0  0  0  0  0  0
  160.5600  214.0710  151.1880 O   0  0  0  0  0  0  0  0  0  0  0  0
  161.1820  211.8320  151.1540 N   0  0  0  0  0  2  0  0  0  0  0  0
  162.2080  208.3080  148.9770 C   0  0  0  0  0  3  0  0  0  0  0  0
  161.5840  212.0100  148.3380 C   0  0  1  0  0  3  0  0  0  0  0  0
  161.5030  210.6450  150.4190 C   0  0  0  0  0  0  0  0  0  0  0  0
  161.9180  209.4410  148.3410 C   0  0  0  0  0  3  0  0  0  0  0  0
  160.8350  213.0510  150.4970 C   0  0  0  0  0  0  0  0  0  0  0  0
  161.6240  210.6850  149.0790 C   0  0  0  0  0  0  0  0  0  0  0  0
  161.6530  209.3920  151.1170 N   0  0  0  0  0  0  0  0  0  0  0  0
  158.9720  212.4900  147.1550 O   0  0  0  0  0  0  0  0  0  0  0  0
  159.6670  211.9180  145.0160 N   0  0  0  0  0  1  0  0  0  0  0  0
  161.2110  211.8370  146.9330 N   0  0  0  0  0  2  0  0  0  0  0  0
  159.9080  212.1070  146.4030 C   0  0  0  0  0  0  0  0  0  0  0  0
  160.2250  212.1110  155.0230 C   0  0  0  0  0  2  0  0  0  0  0  0
  158.6180  210.1540  154.5740 C   0  0  0  0  0  2  0  0  0  0  0  0
  159.0920  210.3420  153.1310 C   0  0  0  0  0  2  0  0  0  0  0  0
  158.9470  211.3780  155.4520 C   0  0  2  0  0  3  0  0  0  0  0  0
  160.6070  210.5890  153.0520 C   0  0  1  0  0  3  0  0  0  0  0  0
  161.2120  211.1660  154.3450 C   0  0  0  0  0  2  0  0  0  0  0  0
  157.7880  212.3650  155.4620 C   0  0  0  0  0  2  0  0  0  0  0  0
  156.7870  212.0620  154.3550 C   0  0  0  0  0  2  0  0  0  0  0  0
  156.0100  213.3100  153.9830 C   0  0  0  0  0  1  0  0  0  0  0  0
  160.6410  208.0440  152.9200 C   0  0  0  0  0  2  0  0  0  0  0  0
  161.5240  207.2130  153.8320 C   0  0  1  0  0  3  0  0  0  0  0  0
  159.7510  207.2130  155.5940 C   0  0  0  0  0  1  0  0  0  0  0  0
  161.2050  207.5230  155.2880 C   0  0  0  0  0  2  0  0  0  0  0  0
  161.2750  205.8040  153.5660 N   0  0  0  0  0  2  0  0  0  0  0  0
  161.8090  205.4870  152.2480 C   0  0  0  0  0  2  0  0  0  0  0  0
  161.3800  204.0890  151.8240 C   0  0  0  0  0  2  0  0  0  0  0  0
  161.1950  204.7530  149.4420 C   0  0  0  0  0  2  0  0  0  0  0  0
  161.6850  203.5530  148.6700 C   0  0  1  0  0  3  0  0  0  0  0  0
  160.8210  202.4230  148.9920 N   0  0  0  0  0  2  0  0  0  0  0  0
  160.4560  204.1780  150.6210 C   0  0  1  0  0  3  0  0  0  0  0  0
  160.0570  202.7850  150.1830 C   0  0  0  0  0  2  0  0  0  0  0  0
  161.6350  203.8480  147.1810 C   0  0  0  0  0  2  0  0  0  0  0  0
  161.8150  205.7700  145.6890 C   0  0  0  0  0  2  0  0  0  0  0  0
  161.9070  205.2910  146.9260 C   0  0  0  0  0  3  0  0  0  0  0  0
  1 27  1  6  0  0  0
  2  3  1  6  0  0  0
  2 11  1  0  0  0  0
  4 13  1  0  0  0  0
  7  4  1  0  0  0  0
  8 16  1  6  0  0  0
  8  2  1  0  0  0  0
  8 12  1  0  0  0  0
  9 13  1  0  0  0  0
  9  6  1  0  0  0  0
 10  7  2  0  0  0  0
 10 12  1  0  0  0  0
 11  6  1  0  0  0  0
 11  5  2  0  0  0  0
 12  9  2  0  0  0  0
 13  1  1  0  0  0  0
 15 17  1  0  0  0  0
 17 16  1  0  0  0  0
 17 14  2  0  0  0  0
 18 21  1  0  0  0  0
 19 21  1  0  0  0  0
 20 19  1  0  0  0  0
 21 24  1  6  0  0  0
 22  1  1  1  0  0  0
 22 20  1  0  0  0  0
 22 23  1  0  0  0  0
 23 18  1  0  0  0  0
 25 24  1  0  0  0  0
 26 25  1  0  0  0  0
 28 27  1  6  0  0  0
 28 30  1  0  0  0  0
 30 29  1  0  0  0  0
 31 28  1  0  0  0  0
 32 31  1  0  0  0  0
 33 32  1  0  0  0  0
 34 37  1  0  0  0  0
 35 39  1  6  0  0  0
 35 36  1  0  0  0  0
 35 34  1  0  0  0  0
 36 38  1  0  0  0  0
 37 33  1  1  0  0  0
 38 37  1  0  0  0  0
 40 41  2  0  0  0  0
 41 39  1  0  0  0  0
M  END
>  <MODEL>
8

>  <REMARK>
 VINA RESULT:      -5.0      2.402      6.095
  Name = 
  14 active torsions:
  status: ('A' for Active; 'I' for Inactive)
    1  A    between atoms: C_4  and  C_21
    2  A    between atoms: C_4  and  C_35
    3  A    between atoms: C_12  and  C_31
    4  A    between atoms: C_15  and  C_31
    5  A    between atoms: C_16  and  N_28
    6  A    between atoms: N_18  and  C_21
    7  A    between atoms: N_18  and  C_39
    8  A    between atoms: C_24  and  C_26
    9  A    between atoms: C_25  and  C_30
   10  A    between atoms: C_26  and  C_34
   11  A    between atoms: C_30  and  C_32
   12  A    between atoms: C_30  and  N_38
   13  A    between atoms: C_32  and  C_39
   14  A    between atoms: C_36  and  C_39
                            x       y       z     vdW  Elec       q    Type
                         _______ _______ _______ _____ _____    ______ ____

>  <TORSDO>
F 14

$$$$
=
 OpenBabel11042420503D

 41 44  0  0  1  0  0  0  0  0999 V2000
  161.1650  208.5930  152.5970 C   0  0  1  0  0  3  0  0  0  0  0  0
  160.7750  205.8260  148.2200 C   0  0  1  0  0  3  0  0  0  0  0  0
  161.3320  205.4210  146.8630 C   0  0  0  0  0  1  0  0  0  0  0  0
  161.5420  206.2310  153.4460 C   0  0  0  0  0  2  0  0  0  0  0  0
  161.1980  208.1180  147.6380 O   0  0  0  0  0  0  0  0  0  0  0  0
  161.3140  207.6360  149.9080 N   0  0  0  0  0  0  0  0  0  0  0  0
  161.1980  204.8100  153.1030 C   0  0  0  0  0  3  0  0  0  0  0  0
  161.2850  204.8530  149.2960 C   0  0  1  0  0  3  0  0  0  0  0  0
  161.2510  206.6880  150.9800 C   0  0  0  0  0  0  0  0  0  0  0  0
  161.0580  204.4150  151.8390 C   0  0  0  0  0  3  0  0  0  0  0  0
  161.1340  207.2450  148.5470 C   0  0  0  0  0  0  0  0  0  0  0  0
  161.1600  205.3700  150.7180 C   0  0  2  0  0  3  0  0  0  0  0  0
  161.2400  207.1520  152.3450 N   0  0  0  0  0  0  0  0  0  0  0  0
  162.2420  202.6560  147.6500 O   0  0  0  0  0  0  0  0  0  0  0  0
  160.5060  201.2420  148.2600 N   0  0  0  0  0  1  0  0  0  0  0  0
  160.6620  203.5370  149.1380 N   0  0  0  0  0  2  0  0  0  0  0  0
  161.1910  202.4850  148.3240 C   0  0  0  0  0  0  0  0  0  0  0  0
  159.8240  208.8590  156.2270 C   0  0  0  0  0  2  0  0  0  0  0  0
  159.7480  210.9590  154.7430 C   0  0  0  0  0  2  0  0  0  0  0  0
  161.1290  210.4680  154.3020 C   0  0  0  0  0  2  0  0  0  0  0  0
  159.2900  210.2880  156.0530 C   0  0  2  0  0  3  0  0  0  0  0  0
  161.1560  208.9450  154.0900 C   0  0  1  0  0  3  0  0  0  0  0  0
  160.0740  208.1870  154.8810 C   0  0  0  0  0  2  0  0  0  0  0  0
  159.6970  211.1200  157.2610 C   0  0  0  0  0  2  0  0  0  0  0  0
  159.2100  212.5580  157.1370 C   0  0  0  0  0  2  0  0  0  0  0  0
  157.6940  212.6050  157.1090 C   0  0  0  0  0  1  0  0  0  0  0  0
  162.2330  209.3480  151.8170 C   0  0  0  0  0  2  0  0  0  0  0  0
  161.5840  210.3220  150.8510 C   0  0  1  0  0  3  0  0  0  0  0  0
  159.8490  212.0890  151.1870 C   0  0  0  0  0  1  0  0  0  0  0  0
  161.2400  211.6180  151.5710 C   0  0  0  0  0  2  0  0  0  0  0  0
  162.5150  210.5950  149.7660 N   0  0  0  0  0  2  0  0  0  0  0  0
  161.8000  211.3140  148.7210 C   0  0  0  0  0  2  0  0  0  0  0  0
  162.6720  212.4240  148.1490 C   0  0  0  0  0  2  0  0  0  0  0  0
  162.3400  213.8310  146.1340 C   0  0  0  0  0  2  0  0  0  0  0  0
  161.5770  212.9530  145.1740 C   0  0  1  0  0  3  0  0  0  0  0  0
  160.3120  212.5870  145.8010 N   0  0  0  0  0  2  0  0  0  0  0  0
  161.7970  213.4790  147.4930 C   0  0  1  0  0  3  0  0  0  0  0  0
  160.4230  212.9030  147.2220 C   0  0  0  0  0  2  0  0  0  0  0  0
  161.3260  213.7070  143.8800 C   0  0  0  0  0  2  0  0  0  0  0  0
  162.0710  213.5870  141.5600 C   0  0  0  0  0  2  0  0  0  0  0  0
  162.3010  213.2870  142.8340 C   0  0  0  0  0  3  0  0  0  0  0  0
  1 27  1  6  0  0  0
  2  3  1  6  0  0  0
  2 11  1  0  0  0  0
  2  8  1  0  0  0  0
  5 11  2  0  0  0  0
  6  9  2  0  0  0  0
  7  4  1  0  0  0  0
  8 16  1  1  0  0  0
  8 12  1  0  0  0  0
  9 13  1  0  0  0  0
 10  7  2  0  0  0  0
 11  6  1  0  0  0  0
 12  9  1  0  0  0  0
 12 10  1  1  0  0  0
 13  1  1  0  0  0  0
 13  4  1  0  0  0  0
 14 17  2  0  0  0  0
 15 17  1  0  0  0  0
 17 16  1  0  0  0  0
 19 21  1  0  0  0  0
 20 19  1  0  0  0  0
 21 18  1  0  0  0  0
 21 24  1  1  0  0  0
 22  1  1  6  0  0  0
 22 20  1  0  0  0  0
 22 23  1  0  0  0  0
 23 18  1  0  0  0  0
 25 24  1  0  0  0  0
 26 25  1  0  0  0  0
 28 30  1  1  0  0  0
 28 27  1  0  0  0  0
 29 30  1  0  0  0  0
 31 28  1  0  0  0  0
 32 31  1  0  0  0  0
 33 32  1  0  0  0  0
 34 37  1  0  0  0  0
 35 39  1  6  0  0  0
 35 36  1  0  0  0  0
 35 34  1  0  0  0  0
 36 38  1  0  0  0  0
 37 33  1  6  0  0  0
 38 37  1  0  0  0  0
 40 41  2  0  0  0  0
 41 39  1  0  0  0  0
M  END
>  <MODEL>
9

>  <REMARK>
 VINA RESULT:      -4.9      3.635      9.473
  Name = 
  14 active torsions:
  status: ('A' for Active; 'I' for Inactive)
    1  A    between atoms: C_4  and  C_21
    2  A    between atoms: C_4  and  C_35
    3  A    between atoms: C_12  and  C_31
    4  A    between atoms: C_15  and  C_31
    5  A    between atoms: C_16  and  N_28
    6  A    between atoms: N_18  and  C_21
    7  A    between atoms: N_18  and  C_39
    8  A    between atoms: C_24  and  C_26
    9  A    between atoms: C_25  and  C_30
   10  A    between atoms: C_26  and  C_34
   11  A    between atoms: C_30  and  C_32
   12  A    between atoms: C_30  and  N_38
   13  A    between atoms: C_32  and  C_39
   14  A    between atoms: C_36  and  C_39
                            x       y       z     vdW  Elec       q    Type
                         _______ _______ _______ _____ _____    ______ ____

>  <TORSDO>
F 14

$$$$
