=
 OpenBabel11042422573D

 62 68  0  0  1  0  0  0  0  0999 V2000
  161.5490  204.2770  148.0100 C   0  0  0  0  0  0  0  0  0  0  0  0
  161.9960  203.3390  145.4380 O   0  0  0  0  0  0  0  0  0  0  0  0
  161.0380  209.0110  151.9740 C   0  0  1  0  0  3  0  0  0  0  0  0
  161.2210  200.2190  147.0930 C   0  0  0  0  0  0  0  0  0  0  0  0
  161.5860  204.7690  149.4290 C   0  0  0  0  0  2  0  0  0  0  0  0
  162.2390  211.0070  152.6120 C   0  0  0  0  0  2  0  0  0  0  0  0
  161.1780  206.8550  150.7980 C   0  0  0  0  0  0  0  0  0  0  0  0
  160.8960  208.5710  153.2850 O   0  0  0  0  0  0  0  0  0  0  0  0
  161.2010  210.4490  151.6460 C   0  0  1  0  0  3  0  0  0  0  0  0
  161.2340  208.2570  150.9060 C   0  0  0  0  0  0  0  0  0  0  0  0
  161.5130  206.2730  149.5500 C   0  0  0  0  0  0  0  0  0  0  0  0
  161.3670  201.0900  146.0840 C   0  0  0  0  0  3  0  0  0  0  0  0
  160.9650  200.6860  148.4700 C   0  0  0  0  0  3  0  0  0  0  0  0
  161.6120  209.0520  149.8470 C   0  0  0  0  0  0  0  0  0  0  0  0
  162.1310  206.5570  147.1920 O   0  0  0  0  0  0  0  0  0  0  0  0
  162.1910  204.7070  145.6830 C   0  0  0  0  0  0  0  0  0  0  0  0
  161.6010  209.2510  154.3270 C   0  0  1  0  0  3  0  0  0  0  0  0
  161.6520  210.3480  150.2060 C   0  0  1  0  0  3  0  0  0  0  0  0
  161.9600  205.1950  146.9170 C   0  0  0  0  0  0  0  0  0  0  0  0
  161.9190  208.4950  148.6020 C   0  0  0  0  0  3  0  0  0  0  0  0
  161.0020  201.9850  148.7820 C   0  0  0  0  0  3  0  0  0  0  0  0
  161.8590  207.1020  148.4490 C   0  0  0  0  0  0  0  0  0  0  0  0
  161.1530  202.5620  146.2880 C   0  0  1  0  0  3  0  0  0  0  0  0
  161.7620  210.7610  154.0530 C   0  0  0  0  0  2  0  0  0  0  0  0
  161.2810  202.9880  147.7320 C   0  0  0  0  0  0  0  0  0  0  0  0
  161.9180  211.5300  149.2750 C   0  0  2  0  0  0  0  0  0  0  0  0
  163.2750  211.5270  148.9130 O   0  0  0  0  0  1  0  0  0  0  0  0
  160.2270  212.7610  150.3650 N   0  0  0  0  0  2  0  0  0  0  0  0
  161.5720  212.8000  149.9460 N   0  0  0  0  0  0  0  0  0  0  0  0
  159.5050  213.8100  149.7400 C   0  0  0  0  0  3  0  0  0  0  0  0
  161.5660  213.8350  149.0330 O   0  0  0  0  0  0  0  0  0  0  0  0
  160.3280  214.4500  148.9350 C   0  0  0  0  0  3  0  0  0  0  0  0
  161.0900  210.0500  147.5020 O   0  0  0  0  0  1  0  0  0  0  0  0
  161.0360  211.3490  148.0130 C   0  0  2  0  0  3  0  0  0  0  0  0
  161.3460  212.3000  146.9920 O   0  0  0  0  0  0  0  0  0  0  0  0
  160.5470  212.4640  145.8580 C   0  0  0  0  0  3  0  0  0  0  0  0
  160.3360  213.6080  145.3710 O   0  0  0  0  0  0  0  0  0  0  0  0
  162.6400  205.6240  144.5750 C   0  0  0  0  0  2  0  0  0  0  0  0
  161.5420  206.0140  143.5760 C   0  0  1  0  0  3  0  0  0  0  0  0
  161.8670  205.5670  142.2930 O   0  0  0  0  0  0  0  0  0  0  0  0
  162.1990  206.7240  141.5870 C   0  0  0  0  0  1  0  0  0  0  0  0
  160.1830  205.4790  144.0140 C   0  0  0  0  0  2  0  0  0  0  0  0
  159.7030  206.2000  145.2610 C   0  0  0  0  0  1  0  0  0  0  0  0
  161.3260  198.7540  146.8340 C   0  0  0  0  0  2  0  0  0  0  0  0
  160.9190  198.4500  145.4710 N   0  0  0  0  0  2  0  0  0  0  0  0
  162.0390  198.0820  144.8090 O   0  0  0  0  0  1  0  0  0  0  0  0
  160.9600  208.9630  155.6760 C   0  0  0  0  0  2  0  0  0  0  0  0
  159.4580  209.1930  155.6360 C   0  0  0  0  0  2  0  0  0  0  0  0
  159.1330  210.6670  155.8190 C   0  0  1  0  0  3  0  0  0  0  0  0
  156.7560  210.5850  155.8910 O   0  0  0  0  0  0  0  0  0  0  0  0
  157.7700  211.0180  155.2840 C   0  0  0  0  0  0  0  0  0  0  0  0
  157.5830  211.7550  154.1100 O   0  0  0  0  0  0  0  0  0  0  0  0
  157.5730  213.1740  154.0700 C   0  0  2  0  0  3  0  0  0  0  0  0
  156.1420  213.6760  154.0710 C   0  0  0  0  0  1  0  0  0  0  0  0
  158.2110  213.6070  152.9110 O   0  0  0  0  0  1  0  0  0  0  0  0
  159.2210  211.0030  157.1730 O   0  0  0  0  0  0  0  0  0  0  0  0
  160.2880  211.9010  157.2530 C   0  0  0  0  0  2  0  0  0  0  0  0
  159.8910  213.2180  156.6190 C   0  0  0  0  0  1  0  0  0  0  0  0
  160.7360  206.0050  151.9590 C   0  0  0  0  0  2  0  0  0  0  0  0
  161.8600  205.0980  152.4430 C   0  0  0  0  0  2  0  0  0  0  0  0
  161.3050  203.8010  153.0000 C   0  0  0  0  0  2  0  0  0  0  0  0
  160.6380  203.1120  151.9880 O   0  0  0  0  0  1  0  0  0  0  0  0
  1  5  1  0  0  0  0
  2 16  1  0  0  0  0
  2 23  1  0  0  0  0
  3 10  1  1  0  0  0
  3  8  1  0  0  0  0
  4 13  1  0  0  0  0
  5 11  1  0  0  0  0
  6 24  1  0  0  0  0
  7 10  1  0  0  0  0
  7 59  1  0  0  0  0
  8 17  1  0  0  0  0
  9  3  1  0  0  0  0
  9  6  1  1  0  0  0
 11  7  2  0  0  0  0
 12  4  2  0  0  0  0
 13 21  2  0  0  0  0
 14 18  1  0  0  0  0
 14 10  2  0  0  0  0
 15 22  1  0  0  0  0
 16 19  2  0  0  0  0
 17 47  1  1  0  0  0
 18 26  1  6  0  0  0
 18  9  1  0  0  0  0
 19 15  1  0  0  0  0
 19  1  1  0  0  0  0
 20 14  1  0  0  0  0
 22 20  2  0  0  0  0
 22 11  1  0  0  0  0
 23 12  1  1  0  0  0
 23 25  1  0  0  0  0
 24 17  1  0  0  0  0
 25  1  2  0  0  0  0
 25 21  1  0  0  0  0
 26 27  1  6  0  0  0
 26 29  1  0  0  0  0
 29 28  1  0  0  0  0
 30 28  1  0  0  0  0
 31 29  1  0  0  0  0
 32 31  1  0  0  0  0
 32 30  2  0  0  0  0
 34 33  1  6  0  0  0
 34 26  1  0  0  0  0
 35 34  1  0  0  0  0
 36 35  1  0  0  0  0
 37 36  2  0  0  0  0
 38 16  1  0  0  0  0
 39 42  1  1  0  0  0
 39 38  1  0  0  0  0
 40 39  1  0  0  0  0
 41 40  1  0  0  0  0
 42 43  1  0  0  0  0
 44  4  1  0  0  0  0
 45 44  1  0  0  0  0
 46 45  1  0  0  0  0
 48 47  1  0  0  0  0
 49 48  1  1  0  0  0
 49 56  1  0  0  0  0
 51 49  1  0  0  0  0
 51 50  2  0  0  0  0
 52 51  1  0  0  0  0
 53 54  1  6  0  0  0
 53 52  1  0  0  0  0
 55 53  1  0  0  0  0
 56 57  1  0  0  0  0
 58 57  1  0  0  0  0
 59 60  1  0  0  0  0
 60 61  1  0  0  0  0
 62 61  1  0  0  0  0
M  END
>  <MODEL>
1

>  <REMARK>
 VINA RESULT:      -2.9      0.000      0.000
  Name = 
  22 active torsions:
  status: ('A' for Active; 'I' for Inactive)
    1  A    between atoms: C_1  and  C_12
    2  A    between atoms: C_1  and  C_19
    3  A    between atoms: C_2  and  C_36
    4  A    between atoms: C_2  and  C_49
    5  A    between atoms: N_4  and  C_23
    6  A    between atoms: O_5  and  C_53
    7  A    between atoms: C_8  and  C_12
    8  A    between atoms: C_11  and  O_62
    9  A    between atoms: O_13  and  C_41
   10  A    between atoms: O_13  and  C_54
   11  A    between atoms: N_14  and  C_24
   12  A    between atoms: C_15  and  C_23
   13  A    between atoms: C_24  and  C_38
   14  A    between atoms: C_24  and  C_54
   15  A    between atoms: C_34  and  C_58
   16  A    between atoms: C_35  and  O_50
   17  A    between atoms: C_36  and  C_48
   18  A    between atoms: C_36  and  O_50
   19  A    between atoms: C_37  and  C_49
   20  A    between atoms: C_39  and  C_53
   21  A    between atoms: C_48  and  O_62
   22  A    between atoms: C_53  and  C_58
                            x       y       z     vdW  Elec       q    Type
                         _______ _______ _______ _____ _____    ______ ____

>  <TORSDO>
F 22

$$$$
=
 OpenBabel11042422573D

 62 68  0  0  1  0  0  0  0  0999 V2000
  161.4490  204.4540  148.0560 C   0  0  0  0  0  0  0  0  0  0  0  0
  161.8860  203.4220  145.5180 O   0  0  0  0  0  0  0  0  0  0  0  0
  160.7480  209.3330  151.8080 C   0  0  1  0  0  3  0  0  0  0  0  0
  161.3510  200.3430  147.3380 C   0  0  0  0  0  0  0  0  0  0  0  0
  161.4920  205.0140  149.4490 C   0  0  0  0  0  2  0  0  0  0  0  0
  161.8380  211.4270  152.3180 C   0  0  0  0  0  2  0  0  0  0  0  0
  160.9910  207.1350  150.7300 C   0  0  0  0  0  0  0  0  0  0  0  0
  160.6680  208.9490  153.1420 O   0  0  0  0  0  0  0  0  0  0  0  0
  160.8130  210.7610  151.4090 C   0  0  1  0  0  3  0  0  0  0  0  0
  160.9620  208.5420  150.7710 C   0  0  0  0  0  0  0  0  0  0  0  0
  161.3290  206.5150  149.5010 C   0  0  0  0  0  0  0  0  0  0  0  0
  161.4160  201.1720  146.2860 C   0  0  0  0  0  3  0  0  0  0  0  0
  161.1020  200.8600  148.6990 C   0  0  0  0  0  3  0  0  0  0  0  0
  161.2630  209.3060  149.6660 C   0  0  0  0  0  0  0  0  0  0  0  0
  161.8660  206.7220  147.1160 O   0  0  0  0  0  0  0  0  0  0  0  0
  162.0020  204.8090  145.6930 C   0  0  0  0  0  0  0  0  0  0  0  0
  161.3560  209.7200  154.1300 C   0  0  1  0  0  3  0  0  0  0  0  0
  161.2310  210.6190  149.9630 C   0  0  1  0  0  3  0  0  0  0  0  0
  161.7730  205.3410  146.9100 C   0  0  0  0  0  0  0  0  0  0  0  0
  161.5710  208.7100  148.4400 C   0  0  0  0  0  3  0  0  0  0  0  0
  161.0660  202.1720  148.9490 C   0  0  0  0  0  3  0  0  0  0  0  0
  161.5940  207.3100  148.3530 C   0  0  0  0  0  0  0  0  0  0  0  0
  161.1160  202.6370  146.4280 C   0  0  1  0  0  3  0  0  0  0  0  0
  161.4150  211.2220  153.7820 C   0  0  0  0  0  2  0  0  0  0  0  0
  161.2550  203.1390  147.8460 C   0  0  0  0  0  0  0  0  0  0  0  0
  161.3980  211.7680  148.9700 C   0  0  2  0  0  0  0  0  0  0  0  0
  160.9590  211.3440  147.7050 O   0  0  0  0  0  1  0  0  0  0  0  0
  162.8880  213.5890  148.7950 N   0  0  0  0  0  2  0  0  0  0  0  0
  162.8140  212.1860  148.9050 N   0  0  0  0  0  0  0  0  0  0  0  0
  163.5510  213.9370  147.5900 C   0  0  0  0  0  3  0  0  0  0  0  0
  163.3790  211.7680  147.7170 O   0  0  0  0  0  0  0  0  0  0  0  0
  163.8400  212.8240  146.9470 C   0  0  0  0  0  3  0  0  0  0  0  0
  159.5890  212.5650  150.4210 O   0  0  0  0  0  1  0  0  0  0  0  0
  160.5260  212.9510  149.4610 C   0  0  2  0  0  3  0  0  0  0  0  0
  159.8840  213.6370  148.3840 O   0  0  0  0  0  0  0  0  0  0  0  0
  158.5050  213.8610  148.3590 C   0  0  0  0  0  3  0  0  0  0  0  0
  157.7750  213.3340  147.4760 O   0  0  0  0  0  0  0  0  0  0  0  0
  162.3640  205.6970  144.5310 C   0  0  0  0  0  2  0  0  0  0  0  0
  161.2350  205.9250  143.5180 C   0  0  1  0  0  3  0  0  0  0  0  0
  161.6080  205.4590  142.2560 O   0  0  0  0  0  0  0  0  0  0  0  0
  162.0580  206.5910  141.5760 C   0  0  0  0  0  1  0  0  0  0  0  0
  159.9370  205.2710  143.9810 C   0  0  0  0  0  2  0  0  0  0  0  0
  159.4250  205.9400  145.2440 C   0  0  0  0  0  1  0  0  0  0  0  0
  161.5400  198.8760  147.1450 C   0  0  0  0  0  2  0  0  0  0  0  0
  161.1610  198.4910  145.7950 N   0  0  0  0  0  2  0  0  0  0  0  0
  162.3100  198.2210  145.1350 O   0  0  0  0  0  1  0  0  0  0  0  0
  160.7690  209.4590  155.5090 C   0  0  0  0  0  2  0  0  0  0  0  0
  159.3220  209.9150  155.5910 C   0  0  0  0  0  2  0  0  0  0  0  0
  159.1960  211.1570  156.4600 C   0  0  1  0  0  3  0  0  0  0  0  0
  159.7880  213.4230  156.0420 O   0  0  0  0  0  0  0  0  0  0  0  0
  159.1450  212.4190  155.6400 C   0  0  0  0  0  0  0  0  0  0  0  0
  158.3690  212.5390  154.4820 O   0  0  0  0  0  0  0  0  0  0  0  0
  158.0220  213.7860  153.8990 C   0  0  2  0  0  3  0  0  0  0  0  0
  156.6240  213.7070  153.3160 C   0  0  0  0  0  1  0  0  0  0  0  0
  158.9270  214.0880  152.8850 O   0  0  0  0  0  1  0  0  0  0  0  0
  158.0550  211.0560  157.2610 O   0  0  0  0  0  0  0  0  0  0  0  0
  156.9930  211.3980  156.4200 C   0  0  0  0  0  2  0  0  0  0  0  0
  155.9570  212.1780  157.2040 C   0  0  0  0  0  1  0  0  0  0  0  0
  160.6330  206.3170  151.9420 C   0  0  0  0  0  2  0  0  0  0  0  0
  161.7330  206.3720  152.9940 C   0  0  0  0  0  2  0  0  0  0  0  0
  161.1720  206.0990  154.3760 C   0  0  0  0  0  2  0  0  0  0  0  0
  162.0260  206.6380  155.3360 O   0  0  0  0  0  1  0  0  0  0  0  0
  1  5  1  0  0  0  0
  2 16  1  0  0  0  0
  2 23  1  0  0  0  0
  3 10  1  1  0  0  0
  3  8  1  0  0  0  0
  4 13  1  0  0  0  0
  5 11  1  0  0  0  0
  6 24  1  0  0  0  0
  7 10  1  0  0  0  0
  7 59  1  0  0  0  0
  8 17  1  0  0  0  0
  9  3  1  0  0  0  0
  9  6  1  1  0  0  0
 11  7  2  0  0  0  0
 12  4  2  0  0  0  0
 13 21  2  0  0  0  0
 14 18  1  0  0  0  0
 14 10  2  0  0  0  0
 15 22  1  0  0  0  0
 16 19  2  0  0  0  0
 17 47  1  1  0  0  0
 18 26  1  6  0  0  0
 18  9  1  0  0  0  0
 19 15  1  0  0  0  0
 19  1  1  0  0  0  0
 20 14  1  0  0  0  0
 22 20  2  0  0  0  0
 22 11  1  0  0  0  0
 23 12  1  1  0  0  0
 23 25  1  0  0  0  0
 24 17  1  0  0  0  0
 25  1  2  0  0  0  0
 25 21  1  0  0  0  0
 26 27  1  6  0  0  0
 26 34  1  0  0  0  0
 28 29  1  0  0  0  0
 29 26  1  0  0  0  0
 30 28  1  0  0  0  0
 31 29  1  0  0  0  0
 32 30  2  0  0  0  0
 32 31  1  0  0  0  0
 34 33  1  1  0  0  0
 35 34  1  0  0  0  0
 36 35  1  0  0  0  0
 37 36  2  0  0  0  0
 38 16  1  0  0  0  0
 39 42  1  1  0  0  0
 39 38  1  0  0  0  0
 40 39  1  0  0  0  0
 41 40  1  0  0  0  0
 42 43  1  0  0  0  0
 44  4  1  0  0  0  0
 45 44  1  0  0  0  0
 46 45  1  0  0  0  0
 47 48  1  0  0  0  0
 49 48  1  6  0  0  0
 49 56  1  0  0  0  0
 51 50  2  0  0  0  0
 51 49  1  0  0  0  0
 52 51  1  0  0  0  0
 53 54  1  6  0  0  0
 53 52  1  0  0  0  0
 55 53  1  0  0  0  0
 57 58  1  0  0  0  0
 57 56  1  0  0  0  0
 59 60  1  0  0  0  0
 60 61  1  0  0  0  0
 61 62  1  0  0  0  0
M  END
>  <MODEL>
2

>  <REMARK>
 VINA RESULT:      -1.2      1.311      1.871
  Name = 
  22 active torsions:
  status: ('A' for Active; 'I' for Inactive)
    1  A    between atoms: C_1  and  C_12
    2  A    between atoms: C_1  and  C_19
    3  A    between atoms: C_2  and  C_36
    4  A    between atoms: C_2  and  C_49
    5  A    between atoms: N_4  and  C_23
    6  A    between atoms: O_5  and  C_53
    7  A    between atoms: C_8  and  C_12
    8  A    between atoms: C_11  and  O_62
    9  A    between atoms: O_13  and  C_41
   10  A    between atoms: O_13  and  C_54
   11  A    between atoms: N_14  and  C_24
   12  A    between atoms: C_15  and  C_23
   13  A    between atoms: C_24  and  C_38
   14  A    between atoms: C_24  and  C_54
   15  A    between atoms: C_34  and  C_58
   16  A    between atoms: C_35  and  O_50
   17  A    between atoms: C_36  and  C_48
   18  A    between atoms: C_36  and  O_50
   19  A    between atoms: C_37  and  C_49
   20  A    between atoms: C_39  and  C_53
   21  A    between atoms: C_48  and  O_62
   22  A    between atoms: C_53  and  C_58
                            x       y       z     vdW  Elec       q    Type
                         _______ _______ _______ _____ _____    ______ ____

>  <TORSDO>
F 22

$$$$
=
 OpenBabel11042422573D

 62 68  0  0  1  0  0  0  0  0999 V2000
  161.5420  204.5540  148.1510 C   0  0  0  0  0  0  0  0  0  0  0  0
  161.6970  203.7100  145.5120 O   0  0  0  0  0  0  0  0  0  0  0  0
  161.1930  209.1440  152.2960 C   0  0  1  0  0  3  0  0  0  0  0  0
  161.4410  200.5010  147.1590 C   0  0  0  0  0  0  0  0  0  0  0  0
  161.7390  205.0190  149.5650 C   0  0  0  0  0  2  0  0  0  0  0  0
  162.2940  211.2280  152.8230 C   0  0  0  0  0  2  0  0  0  0  0  0
  161.3510  207.0330  151.0440 C   0  0  0  0  0  0  0  0  0  0  0  0
  161.2780  208.6680  153.6000 O   0  0  0  0  0  0  0  0  0  0  0  0
  161.1820  210.5970  151.9950 C   0  0  1  0  0  3  0  0  0  0  0  0
  161.2990  208.4320  151.1880 C   0  0  0  0  0  0  0  0  0  0  0  0
  161.5530  206.5080  149.7430 C   0  0  0  0  0  0  0  0  0  0  0  0
  161.3650  201.4010  146.1680 C   0  0  0  0  0  3  0  0  0  0  0  0
  161.3450  200.9170  148.5730 C   0  0  0  0  0  3  0  0  0  0  0  0
  161.4520  209.2780  150.1130 C   0  0  0  0  0  0  0  0  0  0  0  0
  161.8010  206.8920  147.3320 O   0  0  0  0  0  0  0  0  0  0  0  0
  161.8060  205.0850  145.7710 C   0  0  0  0  0  0  0  0  0  0  0  0
  162.0630  209.3890  154.5530 C   0  0  1  0  0  3  0  0  0  0  0  0
  161.4300  210.5660  150.5030 C   0  0  1  0  0  3  0  0  0  0  0  0
  161.7120  205.5260  147.0410 C   0  0  0  0  0  0  0  0  0  0  0  0
  161.6250  208.7760  148.8200 C   0  0  0  0  0  3  0  0  0  0  0  0
  161.3130  202.2070  148.9180 C   0  0  0  0  0  3  0  0  0  0  0  0
  161.6650  207.3860  148.6320 C   0  0  0  0  0  0  0  0  0  0  0  0
  161.0550  202.8440  146.4470 C   0  0  1  0  0  3  0  0  0  0  0  0
  162.0520  210.9120  154.3080 C   0  0  0  0  0  2  0  0  0  0  0  0
  161.3500  203.2520  147.8710 C   0  0  0  0  0  0  0  0  0  0  0  0
  161.4560  211.7850  149.5820 C   0  0  2  0  0  0  0  0  0  0  0  0
  162.1580  212.8210  150.2200 O   0  0  0  0  0  1  0  0  0  0  0  0
  159.9400  212.3720  147.8730 N   0  0  0  0  0  0  0  0  0  0  0  0
  160.0800  212.2190  149.2670 N   0  0  0  0  0  0  0  0  0  0  0  0
  159.5870  213.7130  147.5770 C   0  0  0  0  0  3  0  0  0  0  0  0
  159.8690  213.5030  149.7270 O   0  0  0  0  0  0  0  0  0  0  0  0
  159.5500  214.3870  148.7090 C   0  0  0  0  0  2  0  0  0  0  0  0
  163.5600  211.2010  148.4640 O   0  0  0  0  0  1  0  0  0  0  0  0
  162.1880  211.3780  148.2770 C   0  0  2  0  0  3  0  0  0  0  0  0
  161.9450  212.2960  147.2090 O   0  0  0  0  0  0  0  0  0  0  0  0
  162.9620  213.0650  146.6400 C   0  0  0  0  0  3  0  0  0  0  0  0
  162.8760  214.3220  146.5850 O   0  0  0  0  0  0  0  0  0  0  0  0
  162.0100  206.0600  144.6410 C   0  0  0  0  0  2  0  0  0  0  0  0
  161.1170  205.8260  143.4160 C   0  0  1  0  0  3  0  0  0  0  0  0
  161.8870  205.4650  142.3090 O   0  0  0  0  0  0  0  0  0  0  0  0
  161.8220  206.5670  141.4560 C   0  0  0  0  0  1  0  0  0  0  0  0
  160.0500  204.7750  143.7060 C   0  0  0  0  0  2  0  0  0  0  0  0
  159.0180  205.3160  144.6790 C   0  0  0  0  0  1  0  0  0  0  0  0
  161.6350  199.0570  146.8410 C   0  0  0  0  0  2  0  0  0  0  0  0
  161.2980  198.7950  145.4500 N   0  0  0  0  0  2  0  0  0  0  0  0
  161.1870  197.4530  145.3270 O   0  0  0  0  0  1  0  0  0  0  0  0
  161.6480  209.0180  155.9690 C   0  0  0  0  0  2  0  0  0  0  0  0
  161.1040  210.2210  156.7210 C   0  0  0  0  0  2  0  0  0  0  0  0
  159.6130  210.0650  156.9800 C   0  0  1  0  0  3  0  0  0  0  0  0
  159.4110  212.4200  157.2560 O   0  0  0  0  0  0  0  0  0  0  0  0
  158.8720  211.3670  156.8260 C   0  0  0  0  0  0  0  0  0  0  0  0
  157.5870  211.4470  156.2790 O   0  0  0  0  0  0  0  0  0  0  0  0
  157.3030  211.2100  154.9080 C   0  0  2  0  0  3  0  0  0  0  0  0
  157.9910  212.2590  154.0560 C   0  0  0  0  0  1  0  0  0  0  0  0
  155.9280  211.2810  154.7030 O   0  0  0  0  0  1  0  0  0  0  0  0
  159.0840  209.1040  156.1140 O   0  0  0  0  0  0  0  0  0  0  0  0
  159.3470  207.8790  156.7310 C   0  0  0  0  0  2  0  0  0  0  0  0
  159.4780  206.7980  155.6780 C   0  0  0  0  0  1  0  0  0  0  0  0
  161.1540  206.1240  152.2270 C   0  0  0  0  0  2  0  0  0  0  0  0
  161.0300  204.6680  151.7950 C   0  0  0  0  0  2  0  0  0  0  0  0
  160.7520  203.7730  152.9870 C   0  0  0  0  0  2  0  0  0  0  0  0
  160.4770  202.4820  152.5400 O   0  0  0  0  0  1  0  0  0  0  0  0
  1  5  1  0  0  0  0
  2 16  1  0  0  0  0
  2 23  1  0  0  0  0
  3 10  1  6  0  0  0
  3  8  1  0  0  0  0
  4 13  1  0  0  0  0
  5 11  1  0  0  0  0
  6 24  1  0  0  0  0
  7 10  1  0  0  0  0
  7 59  1  0  0  0  0
  8 17  1  0  0  0  0
  9  3  1  0  0  0  0
  9  6  1  1  0  0  0
 11  7  2  0  0  0  0
 12  4  2  0  0  0  0
 13 21  2  0  0  0  0
 14 18  1  0  0  0  0
 14 10  2  0  0  0  0
 15 22  1  0  0  0  0
 16 19  2  0  0  0  0
 17 47  1  1  0  0  0
 18 26  1  6  0  0  0
 18  9  1  0  0  0  0
 19 15  1  0  0  0  0
 19  1  1  0  0  0  0
 20 14  1  0  0  0  0
 22 20  2  0  0  0  0
 22 11  1  0  0  0  0
 23 12  1  1  0  0  0
 23 25  1  0  0  0  0
 24 17  1  0  0  0  0
 25  1  2  0  0  0  0
 25 21  1  0  0  0  0
 26 27  1  1  0  0  0
 28 29  1  0  0  0  0
 29 26  1  0  0  0  0
 29 31  1  0  0  0  0
 30 28  2  0  0  0  0
 30 32  1  0  0  0  0
 32 31  1  0  0  0  0
 34 33  1  1  0  0  0
 34 26  1  0  0  0  0
 35 34  1  0  0  0  0
 36 35  1  0  0  0  0
 37 36  2  0  0  0  0
 38 16  1  0  0  0  0
 39 42  1  1  0  0  0
 39 38  1  0  0  0  0
 40 39  1  0  0  0  0
 41 40  1  0  0  0  0
 42 43  1  0  0  0  0
 44  4  1  0  0  0  0
 45 44  1  0  0  0  0
 46 45  1  0  0  0  0
 47 48  1  0  0  0  0
 49 48  1  6  0  0  0
 51 49  1  0  0  0  0
 51 50  2  0  0  0  0
 52 51  1  0  0  0  0
 53 54  1  6  0  0  0
 53 52  1  0  0  0  0
 55 53  1  0  0  0  0
 56 57  1  0  0  0  0
 56 49  1  0  0  0  0
 58 57  1  0  0  0  0
 60 59  1  0  0  0  0
 60 61  1  0  0  0  0
 62 61  1  0  0  0  0
M  END
>  <MODEL>
3

>  <REMARK>
 VINA RESULT:      -0.5      1.144      1.689
  Name = 
  22 active torsions:
  status: ('A' for Active; 'I' for Inactive)
    1  A    between atoms: C_1  and  C_12
    2  A    between atoms: C_1  and  C_19
    3  A    between atoms: C_2  and  C_36
    4  A    between atoms: C_2  and  C_49
    5  A    between atoms: N_4  and  C_23
    6  A    between atoms: O_5  and  C_53
    7  A    between atoms: C_8  and  C_12
    8  A    between atoms: C_11  and  O_62
    9  A    between atoms: O_13  and  C_41
   10  A    between atoms: O_13  and  C_54
   11  A    between atoms: N_14  and  C_24
   12  A    between atoms: C_15  and  C_23
   13  A    between atoms: C_24  and  C_38
   14  A    between atoms: C_24  and  C_54
   15  A    between atoms: C_34  and  C_58
   16  A    between atoms: C_35  and  O_50
   17  A    between atoms: C_36  and  C_48
   18  A    between atoms: C_36  and  O_50
   19  A    between atoms: C_37  and  C_49
   20  A    between atoms: C_39  and  C_53
   21  A    between atoms: C_48  and  O_62
   22  A    between atoms: C_53  and  C_58
                            x       y       z     vdW  Elec       q    Type
                         _______ _______ _______ _____ _____    ______ ____

>  <TORSDO>
F 22

$$$$
=
 OpenBabel11042422573D

 62 68  0  0  1  0  0  0  0  0999 V2000
  161.1010  204.7470  149.5870 C   0  0  0  0  0  0  0  0  0  0  0  0
  160.7300  202.4650  151.1220 O   0  0  0  0  0  0  0  0  0  0  0  0
  161.5420  210.9120  149.1750 C   0  0  1  0  0  3  0  0  0  0  0  0
  161.4020  200.9340  147.9150 C   0  0  0  0  0  0  0  0  0  0  0  0
  161.0220  205.9820  148.7360 C   0  0  0  0  0  2  0  0  0  0  0  0
  160.3480  212.8880  149.8840 C   0  0  0  0  0  2  0  0  0  0  0  0
  161.4120  208.4770  148.8520 C   0  0  0  0  0  0  0  0  0  0  0  0
  161.6320  211.3340  147.8530 O   0  0  0  0  0  0  0  0  0  0  0  0
  161.4100  211.8760  150.2950 C   0  0  1  0  0  3  0  0  0  0  0  0
  161.3720  209.6710  149.5960 C   0  0  0  0  0  0  0  0  0  0  0  0
  161.1120  207.2660  149.5250 C   0  0  0  0  0  0  0  0  0  0  0  0
  161.3040  201.0390  149.2480 C   0  0  0  0  0  3  0  0  0  0  0  0
  161.6170  202.1280  147.0720 C   0  0  0  0  0  3  0  0  0  0  0  0
  161.0420  209.6820  150.9330 C   0  0  0  0  0  0  0  0  0  0  0  0
  160.5800  206.0950  151.6150 O   0  0  0  0  0  0  0  0  0  0  0  0
  160.5460  203.7110  151.7400 C   0  0  0  0  0  0  0  0  0  0  0  0
  160.9010  212.4920  147.4410 C   0  0  1  0  0  3  0  0  0  0  0  0
  161.0080  210.9390  151.4120 C   0  0  1  0  0  3  0  0  0  0  0  0
  160.7410  204.8370  151.0250 C   0  0  0  0  0  0  0  0  0  0  0  0
  160.7700  208.4940  151.6180 C   0  0  0  0  0  3  0  0  0  0  0  0
  161.5880  203.3590  147.5900 C   0  0  0  0  0  3  0  0  0  0  0  0
  160.8160  207.2810  150.9150 C   0  0  0  0  0  0  0  0  0  0  0  0
  161.5320  202.3490  149.9460 C   0  0  1  0  0  3  0  0  0  0  0  0
  160.7710  213.5460  148.5600 C   0  0  0  0  0  2  0  0  0  0  0  0
  161.3600  203.5450  149.0400 C   0  0  0  0  0  0  0  0  0  0  0  0
  160.7910  211.3390  152.8710 C   0  0  2  0  0  0  0  0  0  0  0  0
  161.4490  212.5570  153.1110 O   0  0  0  0  0  1  0  0  0  0  0  0
  160.5740  210.2890  154.9720 N   0  0  0  0  0  0  0  0  0  0  0  0
  161.3120  210.2910  153.7720 N   0  0  0  0  0  0  0  0  0  0  0  0
  161.4420  210.5510  156.0630 C   0  0  0  0  0  3  0  0  0  0  0  0
  162.5800  210.6240  154.2060 O   0  0  0  0  0  0  0  0  0  0  0  0
  162.6520  210.7540  155.5840 C   0  0  0  0  0  2  0  0  0  0  0  0
  158.5510  210.3410  152.8300 O   0  0  0  0  0  1  0  0  0  0  0  0
  159.2670  211.5100  153.0950 C   0  0  2  0  0  3  0  0  0  0  0  0
  158.7270  212.6040  152.3510 O   0  0  0  0  0  0  0  0  0  0  0  0
  158.0810  213.6780  152.9670 C   0  0  0  0  0  3  0  0  0  0  0  0
  157.3330  214.4530  152.3090 O   0  0  0  0  0  0  0  0  0  0  0  0
  160.1480  203.7910  153.1910 C   0  0  0  0  0  2  0  0  0  0  0  0
  160.9140  204.8370  154.0120 C   0  0  1  0  0  3  0  0  0  0  0  0
  162.1040  205.1880  153.3720 O   0  0  0  0  0  0  0  0  0  0  0  0
  162.4070  206.4600  153.8580 C   0  0  0  0  0  1  0  0  0  0  0  0
  160.0520  206.0670  154.2790 C   0  0  0  0  0  2  0  0  0  0  0  0
  160.2230  206.5360  155.7120 C   0  0  0  0  0  1  0  0  0  0  0  0
  161.2860  199.5990  147.2610 C   0  0  0  0  0  2  0  0  0  0  0  0
  161.4730  199.7220  145.8230 N   0  0  0  0  0  2  0  0  0  0  0  0
  160.2440  199.9070  145.2900 O   0  0  0  0  0  1  0  0  0  0  0  0
  161.4920  213.0630  146.1610 C   0  0  0  0  0  2  0  0  0  0  0  0
  160.7910  212.5100  144.9310 C   0  0  0  0  0  2  0  0  0  0  0  0
  159.8710  213.5560  144.3190 C   0  0  1  0  0  3  0  0  0  0  0  0
  161.1380  214.1110  142.3820 O   0  0  0  0  0  0  0  0  0  0  0  0
  160.0500  213.6620  142.8280 C   0  0  0  0  0  0  0  0  0  0  0  0
  159.0360  213.3380  141.9180 O   0  0  0  0  0  0  0  0  0  0  0  0
  159.2620  213.1520  140.5290 C   0  0  2  0  0  3  0  0  0  0  0  0
  158.4600  214.1680  139.7400 C   0  0  0  0  0  1  0  0  0  0  0  0
  158.8620  211.8680  140.1660 O   0  0  0  0  0  1  0  0  0  0  0  0
  158.5430  213.2490  144.6250 O   0  0  0  0  0  0  0  0  0  0  0  0
  158.1870  214.1510  145.6300 C   0  0  0  0  0  2  0  0  0  0  0  0
  156.9550  213.6460  146.3520 C   0  0  0  0  0  1  0  0  0  0  0  0
  161.8020  208.4820  147.3980 C   0  0  0  0  0  2  0  0  0  0  0  0
  162.0530  207.0690  146.8860 C   0  0  0  0  0  2  0  0  0  0  0  0
  161.0720  206.7120  145.7870 C   0  0  0  0  0  2  0  0  0  0  0  0
  161.5850  205.6570  145.0340 O   0  0  0  0  0  1  0  0  0  0  0  0
  1 19  1  0  0  0  0
  2 16  1  0  0  0  0
  3  8  1  6  0  0  0
  3 10  1  0  0  0  0
  3  9  1  0  0  0  0
  4 12  2  0  0  0  0
  5 11  1  0  0  0  0
  5  1  1  0  0  0  0
  7 11  2  0  0  0  0
  7 10  1  0  0  0  0
  9  6  1  6  0  0  0
  9 18  1  0  0  0  0
 10 14  2  0  0  0  0
 11 22  1  0  0  0  0
 13 21  2  0  0  0  0
 13  4  1  0  0  0  0
 14 18  1  0  0  0  0
 14 20  1  0  0  0  0
 16 38  1  0  0  0  0
 17 47  1  6  0  0  0
 17  8  1  0  0  0  0
 17 24  1  0  0  0  0
 18 26  1  1  0  0  0
 19 15  1  0  0  0  0
 19 16  2  0  0  0  0
 21 25  1  0  0  0  0
 22 15  1  0  0  0  0
 22 20  2  0  0  0  0
 23 12  1  6  0  0  0
 23  2  1  0  0  0  0
 24  6  1  0  0  0  0
 25  1  2  0  0  0  0
 25 23  1  0  0  0  0
 26 34  1  0  0  0  0
 26 27  1  1  0  0  0
 26 29  1  0  0  0  0
 28 30  2  0  0  0  0
 29 31  1  0  0  0  0
 29 28  1  0  0  0  0
 31 32  1  0  0  0  0
 32 30  1  0  0  0  0
 34 33  1  6  0  0  0
 35 36  1  0  0  0  0
 35 34  1  0  0  0  0
 37 36  2  0  0  0  0
 39 38  1  6  0  0  0
 39 42  1  0  0  0  0
 40 41  1  0  0  0  0
 40 39  1  0  0  0  0
 42 43  1  0  0  0  0
 44  4  1  0  0  0  0
 45 44  1  0  0  0  0
 46 45  1  0  0  0  0
 48 47  1  0  0  0  0
 49 56  1  0  0  0  0
 49 48  1  6  0  0  0
 50 51  2  0  0  0  0
 51 49  1  0  0  0  0
 52 51  1  0  0  0  0
 53 54  1  6  0  0  0
 53 52  1  0  0  0  0
 55 53  1  0  0  0  0
 56 57  1  0  0  0  0
 57 58  1  0  0  0  0
 59  7  1  0  0  0  0
 60 59  1  0  0  0  0
 61 60  1  0  0  0  0
 62 61  1  0  0  0  0
M  END
>  <MODEL>
4

>  <REMARK>
 VINA RESULT:      -0.0      2.374      7.597
  Name = 
  22 active torsions:
  status: ('A' for Active; 'I' for Inactive)
    1  A    between atoms: C_1  and  C_12
    2  A    between atoms: C_1  and  C_19
    3  A    between atoms: C_2  and  C_36
    4  A    between atoms: C_2  and  C_49
    5  A    between atoms: N_4  and  C_23
    6  A    between atoms: O_5  and  C_53
    7  A    between atoms: C_8  and  C_12
    8  A    between atoms: C_11  and  O_62
    9  A    between atoms: O_13  and  C_41
   10  A    between atoms: O_13  and  C_54
   11  A    between atoms: N_14  and  C_24
   12  A    between atoms: C_15  and  C_23
   13  A    between atoms: C_24  and  C_38
   14  A    between atoms: C_24  and  C_54
   15  A    between atoms: C_34  and  C_58
   16  A    between atoms: C_35  and  O_50
   17  A    between atoms: C_36  and  C_48
   18  A    between atoms: C_36  and  O_50
   19  A    between atoms: C_37  and  C_49
   20  A    between atoms: C_39  and  C_53
   21  A    between atoms: C_48  and  O_62
   22  A    between atoms: C_53  and  C_58
                            x       y       z     vdW  Elec       q    Type
                         _______ _______ _______ _____ _____    ______ ____

>  <TORSDO>
F 22

$$$$
