=
 OpenBabel11052411193D

 31 34  0  0  1  0  0  0  0  0999 V2000
  161.2300  207.1340  149.5840 C   0  0  1  0  0  3  0  0  0  0  0  0
  161.1860  208.0640  148.0600 Cl  0  0  0  0  0  0  0  0  0  0  0  0
  161.3710  203.5690  148.3430 C   0  0  0  0  0  0  0  0  0  0  0  0
  161.4490  202.5710  147.4690 C   0  0  0  0  0  3  0  0  0  0  0  0
  161.1380  200.6440  148.9520 N   0  0  0  0  0  0  0  0  0  0  0  0
  160.5980  202.5050  150.4140 N   0  0  0  0  0  0  0  0  0  0  0  0
  161.7650  204.9890  148.0870 C   0  0  2  0  0  3  0  0  0  0  0  0
  161.1480  205.6640  149.2920 C   0  0  0  0  0  0  0  0  0  0  0  0
  160.7050  203.5370  149.6320 C   0  0  0  0  0  0  0  0  0  0  0  0
  160.5690  204.8560  150.1260 N   0  0  0  0  0  0  0  0  0  0  0  0
  161.0200  201.1560  150.1420 C   0  0  0  0  0  3  0  0  0  0  0  0
  160.7410  201.2780  147.7030 C   0  0  2  0  0  3  0  0  0  0  0  0
  161.2150  199.6480  145.7050 N   0  0  0  0  0  0  0  0  0  0  0  0
  161.0050  200.3680  146.5870 C   0  0  0  0  0  0  0  0  0  0  0  0
  162.1210  205.8270  145.8750 O   0  0  0  0  0  1  0  0  0  0  0  0
  161.1290  205.5170  146.8060 C   0  0  0  0  0  2  0  0  0  0  0  0
  160.4470  209.1550  151.9780 C   0  0  0  0  0  2  0  0  0  0  0  0
  161.5880  207.1770  152.8530 N   0  0  0  0  0  0  0  0  0  0  0  0
  161.6960  211.1560  151.3530 N   0  0  0  0  0  1  0  0  0  0  0  0
  162.4750  206.8160  151.7800 C   0  0  0  0  0  0  0  0  0  0  0  0
  161.2380  208.5640  153.1330 C   0  0  0  0  0  2  0  0  0  0  0  0
  161.3510  209.8110  150.9320 C   0  0  1  0  0  3  0  0  0  0  0  0
  162.6340  209.0310  150.6070 C   0  0  0  0  0  2  0  0  0  0  0  0
  162.4470  207.5180  150.4460 C   0  0  2  0  0  3  0  0  0  0  0  0
  163.2600  205.8400  151.9220 O   0  0  0  0  0  0  0  0  0  0  0  0
  161.1680  206.1710  153.8190 C   0  0  0  0  0  2  0  0  0  0  0  0
  160.2300  206.7910  154.8390 C   0  0  0  0  0  2  0  0  0  0  0  0
  160.1800  207.2630  157.2600 C   0  0  0  0  0  2  0  0  0  0  0  0
  161.3560  209.3750  157.2330 N   0  0  0  0  0  1  0  0  0  0  0  0
  161.0300  207.3170  156.0110 C   0  0  2  0  0  3  0  0  0  0  0  0
  160.3680  208.5760  156.5320 C   0  0  1  0  0  3  0  0  0  0  0  0
  1  2  1  6  0  0  0
  3  9  1  0  0  0  0
  4 12  1  0  0  0  0
  4  3  2  0  0  0  0
  5 11  2  0  0  0  0
  7 16  1  6  0  0  0
  7  3  1  0  0  0  0
  7  8  1  0  0  0  0
  8  1  1  0  0  0  0
  8 10  2  0  0  0  0
  9 10  1  0  0  0  0
  9  6  2  0  0  0  0
 11  6  1  0  0  0  0
 12 14  1  6  0  0  0
 12  5  1  0  0  0  0
 13 14  3  0  0  0  0
 15 16  1  0  0  0  0
 17 21  1  0  0  0  0
 18 21  1  0  0  0  0
 18 26  1  0  0  0  0
 20 25  2  0  0  0  0
 20 18  1  0  0  0  0
 22 19  1  1  0  0  0
 22 17  1  0  0  0  0
 23 22  1  0  0  0  0
 24  1  1  1  0  0  0
 24 23  1  0  0  0  0
 24 20  1  0  0  0  0
 26 27  1  0  0  0  0
 30 27  1  6  0  0  0
 30 31  1  0  0  0  0
 30 28  1  0  0  0  0
 31 29  1  1  0  0  0
 31 28  1  0  0  0  0
M  END
>  <MODEL>
1

>  <REMARK>
 VINA RESULT:      -7.0      0.000      0.000
  Name = 
  7 active torsions:
  status: ('A' for Active; 'I' for Inactive)
    1  A    between atoms: C_3  and  C_18
    2  A    between atoms: C_3  and  C_24
    3  A    between atoms: N_4  and  C_30
    4  A    between atoms: C_5  and  C_29
    5  A    between atoms: C_13  and  C_19
    6  A    between atoms: C_26  and  C_27
    7  A    between atoms: C_27  and  C_30
                            x       y       z     vdW  Elec       q    Type
                         _______ _______ _______ _____ _____    ______ ____

>  <TORSDO>
F 7

$$$$
=
 OpenBabel11052411193D

 31 34  0  0  1  0  0  0  0  0999 V2000
  161.8230  206.7090  149.6110 C   0  0  1  0  0  3  0  0  0  0  0  0
  162.4230  208.0310  148.5700 Cl  0  0  0  0  0  0  0  0  0  0  0  0
  161.1280  208.5260  152.8490 C   0  0  0  0  0  0  0  0  0  0  0  0
  161.0520  209.5460  153.6970 C   0  0  0  0  0  3  0  0  0  0  0  0
  160.4100  208.3780  155.7540 N   0  0  0  0  0  0  0  0  0  0  0  0
  160.9650  206.5360  154.2750 N   0  0  0  0  0  0  0  0  0  0  0  0
  161.2080  208.6310  151.3590 C   0  0  2  0  0  3  0  0  0  0  0  0
  161.6030  207.2130  151.0070 C   0  0  0  0  0  0  0  0  0  0  0  0
  161.3610  207.1350  153.1910 C   0  0  0  0  0  0  0  0  0  0  0  0
  161.6840  206.4090  152.0200 N   0  0  0  0  0  0  0  0  0  0  0  0
  160.3050  207.1280  155.4080 C   0  0  0  0  0  3  0  0  0  0  0  0
  161.3010  209.3620  155.1570 C   0  0  2  0  0  3  0  0  0  0  0  0
  161.0210  211.6580  156.3890 N   0  0  0  0  0  0  0  0  0  0  0  0
  161.1450  210.6440  155.8450 C   0  0  0  0  0  0  0  0  0  0  0  0
  161.7300  210.7720  150.4300 O   0  0  0  0  0  1  0  0  0  0  0  0
  162.3020  209.6020  150.9310 C   0  0  0  0  0  2  0  0  0  0  0  0
  162.5240  205.0370  146.9380 C   0  0  0  0  0  2  0  0  0  0  0  0
  161.3860  203.6190  148.5740 N   0  0  0  0  0  0  0  0  0  0  0  0
  161.2660  206.2700  145.2490 N   0  0  0  0  0  1  0  0  0  0  0  0
  160.5290  204.5460  149.2630 C   0  0  0  0  0  0  0  0  0  0  0  0
  161.7120  203.7720  147.1610 C   0  0  0  0  0  2  0  0  0  0  0  0
  161.6380  206.2510  146.6520 C   0  0  1  0  0  3  0  0  0  0  0  0
  160.3720  206.3450  147.5180 C   0  0  0  0  0  2  0  0  0  0  0  0
  160.5810  206.0300  149.0040 C   0  0  2  0  0  3  0  0  0  0  0  0
  159.7530  204.1260  150.1630 O   0  0  0  0  0  0  0  0  0  0  0  0
  161.7940  202.3830  149.2260 C   0  0  0  0  0  2  0  0  0  0  0  0
  161.0250  201.2110  148.6440 C   0  0  0  0  0  2  0  0  0  0  0  0
  160.8180  201.1050  146.1870 C   0  0  0  0  0  2  0  0  0  0  0  0
  161.6630  198.8620  145.8580 N   0  0  0  0  0  1  0  0  0  0  0  0
  161.6950  200.7490  147.3670 C   0  0  2  0  0  3  0  0  0  0  0  0
  160.8320  199.6870  146.7160 C   0  0  1  0  0  3  0  0  0  0  0  0
  1  2  1  6  0  0  0
  1  8  1  0  0  0  0
  3  9  1  0  0  0  0
  3  4  2  0  0  0  0
  4 12  1  0  0  0  0
  6 11  1  0  0  0  0
  7 16  1  1  0  0  0
  7  3  1  0  0  0  0
  8  7  1  0  0  0  0
  8 10  2  0  0  0  0
  9  6  2  0  0  0  0
 10  9  1  0  0  0  0
 11  5  2  0  0  0  0
 12  5  1  0  0  0  0
 12 14  1  1  0  0  0
 14 13  3  0  0  0  0
 15 16  1  0  0  0  0
 17 21  1  0  0  0  0
 18 26  1  0  0  0  0
 18 20  1  0  0  0  0
 20 25  2  0  0  0  0
 21 18  1  0  0  0  0
 22 19  1  6  0  0  0
 22 17  1  0  0  0  0
 22 23  1  0  0  0  0
 23 24  1  0  0  0  0
 24 20  1  0  0  0  0
 24  1  1  6  0  0  0
 27 26  1  0  0  0  0
 28 31  1  0  0  0  0
 28 30  1  0  0  0  0
 30 27  1  1  0  0  0
 31 29  1  6  0  0  0
 31 30  1  0  0  0  0
M  END
>  <MODEL>
2

>  <REMARK>
 VINA RESULT:      -5.8      1.999      8.317
  Name = 
  7 active torsions:
  status: ('A' for Active; 'I' for Inactive)
    1  A    between atoms: C_3  and  C_18
    2  A    between atoms: C_3  and  C_24
    3  A    between atoms: N_4  and  C_30
    4  A    between atoms: C_5  and  C_29
    5  A    between atoms: C_13  and  C_19
    6  A    between atoms: C_26  and  C_27
    7  A    between atoms: C_27  and  C_30
                            x       y       z     vdW  Elec       q    Type
                         _______ _______ _______ _____ _____    ______ ____

>  <TORSDO>
F 7

$$$$
=
 OpenBabel11052411193D

 31 34  0  0  1  0  0  0  0  0999 V2000
  161.2630  208.9130  153.7960 C   0  0  1  0  0  3  0  0  0  0  0  0
  162.7130  209.9050  153.4700 Cl  0  0  0  0  0  0  0  0  0  0  0  0
  161.5730  206.2320  151.1530 C   0  0  0  0  0  0  0  0  0  0  0  0
  161.6890  205.7080  149.9380 C   0  0  0  0  0  3  0  0  0  0  0  0
  161.5040  203.3190  150.4540 N   0  0  0  0  0  0  0  0  0  0  0  0
  160.8900  204.3450  152.5660 N   0  0  0  0  0  0  0  0  0  0  0  0
  161.8870  207.6440  151.5310 C   0  0  2  0  0  3  0  0  0  0  0  0
  161.2540  207.7060  152.9040 C   0  0  0  0  0  0  0  0  0  0  0  0
  160.9300  205.6170  152.3000 C   0  0  0  0  0  0  0  0  0  0  0  0
  160.7330  206.5900  153.3080 N   0  0  0  0  0  0  0  0  0  0  0  0
  161.3790  203.2670  151.7480 C   0  0  0  0  0  3  0  0  0  0  0  0
  161.0550  204.4020  149.5910 C   0  0  2  0  0  3  0  0  0  0  0  0
  161.5810  203.8080  147.0940 N   0  0  0  0  0  0  0  0  0  0  0  0
  161.3480  204.0710  148.1960 C   0  0  0  0  0  0  0  0  0  0  0  0
  162.1430  209.1930  149.7250 O   0  0  0  0  0  1  0  0  0  0  0  0
  161.2040  208.6330  150.5930 C   0  0  0  0  0  2  0  0  0  0  0  0
  161.2130  211.5480  155.6630 C   0  0  0  0  0  2  0  0  0  0  0  0
  159.2620  210.1400  156.0990 N   0  0  0  0  0  0  0  0  0  0  0  0
  163.2740  211.2770  156.9420 N   0  0  0  0  0  1  0  0  0  0  0  0
  159.7580  208.8140  155.8450 C   0  0  0  0  0  0  0  0  0  0  0  0
  160.1110  211.1910  156.6460 C   0  0  0  0  0  2  0  0  0  0  0  0
  162.4730  210.7070  155.8740 C   0  0  1  0  0  3  0  0  0  0  0  0
  162.2160  209.2200  156.1660 C   0  0  0  0  0  2  0  0  0  0  0  0
  161.1380  208.5670  155.2920 C   0  0  2  0  0  3  0  0  0  0  0  0
  159.0020  207.8210  156.0230 O   0  0  0  0  0  0  0  0  0  0  0  0
  157.8350  210.4140  156.0010 C   0  0  0  0  0  2  0  0  0  0  0  0
  157.6070  211.8920  155.7400 C   0  0  0  0  0  2  0  0  0  0  0  0
  158.2770  211.8410  153.3660 C   0  0  0  0  0  2  0  0  0  0  0  0
  157.0810  213.8070  152.6200 N   0  0  0  0  0  1  0  0  0  0  0  0
  157.1280  212.0890  154.3180 C   0  0  2  0  0  3  0  0  0  0  0  0
  157.8720  213.2590  153.7070 C   0  0  1  0  0  3  0  0  0  0  0  0
  1  2  1  1  0  0  0
  3  7  1  0  0  0  0
  3  9  1  0  0  0  0
  4  3  2  0  0  0  0
  5 11  2  0  0  0  0
  7 16  1  6  0  0  0
  7  8  1  0  0  0  0
  8 10  2  0  0  0  0
  8  1  1  0  0  0  0
  9  6  2  0  0  0  0
  9 10  1  0  0  0  0
 11  6  1  0  0  0  0
 12 14  1  6  0  0  0
 12  4  1  0  0  0  0
 12  5  1  0  0  0  0
 13 14  3  0  0  0  0
 15 16  1  0  0  0  0
 17 22  1  0  0  0  0
 17 21  1  0  0  0  0
 18 21  1  0  0  0  0
 20 25  2  0  0  0  0
 20 18  1  0  0  0  0
 22 23  1  0  0  0  0
 22 19  1  1  0  0  0
 24  1  1  6  0  0  0
 24 20  1  0  0  0  0
 24 23  1  0  0  0  0
 26 18  1  0  0  0  0
 27 26  1  0  0  0  0
 28 31  1  0  0  0  0
 28 30  1  0  0  0  0
 30 27  1  1  0  0  0
 31 29  1  6  0  0  0
 31 30  1  0  0  0  0
M  END
>  <MODEL>
3

>  <REMARK>
 VINA RESULT:      -5.6      3.103      4.968
  Name = 
  7 active torsions:
  status: ('A' for Active; 'I' for Inactive)
    1  A    between atoms: C_3  and  C_18
    2  A    between atoms: C_3  and  C_24
    3  A    between atoms: N_4  and  C_30
    4  A    between atoms: C_5  and  C_29
    5  A    between atoms: C_13  and  C_19
    6  A    between atoms: C_26  and  C_27
    7  A    between atoms: C_27  and  C_30
                            x       y       z     vdW  Elec       q    Type
                         _______ _______ _______ _____ _____    ______ ____

>  <TORSDO>
F 7

$$$$
=
 OpenBabel11052411193D

 31 34  0  0  1  0  0  0  0  0999 V2000
  161.4040  209.4600  153.5540 C   0  0  1  0  0  3  0  0  0  0  0  0
  162.9660  210.3270  153.5230 Cl  0  0  0  0  0  0  0  0  0  0  0  0
  160.9060  206.6260  151.1060 C   0  0  0  0  0  0  0  0  0  0  0  0
  160.7270  205.3780  150.6870 C   0  0  0  0  0  3  0  0  0  0  0  0
  160.8510  205.6940  148.2590 N   0  0  0  0  0  0  0  0  0  0  0  0
  161.5780  207.8550  149.0910 N   0  0  0  0  0  0  0  0  0  0  0  0
  160.6540  207.1280  152.4930 C   0  0  2  0  0  3  0  0  0  0  0  0
  161.3400  208.4750  152.4230 C   0  0  0  0  0  0  0  0  0  0  0  0
  161.5710  207.6930  150.3810 C   0  0  0  0  0  0  0  0  0  0  0  0
  161.8380  208.7680  151.2630 N   0  0  0  0  0  0  0  0  0  0  0  0
  161.0230  206.9730  148.0980 C   0  0  0  0  0  3  0  0  0  0  0  0
  161.3040  204.9040  149.3950 C   0  0  2  0  0  3  0  0  0  0  0  0
  160.6640  202.3890  149.0240 N   0  0  0  0  0  0  0  0  0  0  0  0
  160.9470  203.4990  149.1870 C   0  0  0  0  0  0  0  0  0  0  0  0
  162.7030  206.1740  153.2740 O   0  0  0  0  0  1  0  0  0  0  0  0
  161.3340  206.2450  153.5320 C   0  0  0  0  0  2  0  0  0  0  0  0
  161.3230  211.6580  155.9190 C   0  0  0  0  0  2  0  0  0  0  0  0
  159.2760  210.3200  155.9080 N   0  0  0  0  0  0  0  0  0  0  0  0
  163.2520  211.0000  157.2610 N   0  0  0  0  0  1  0  0  0  0  0  0
  159.7270  209.0440  155.4210 C   0  0  0  0  0  0  0  0  0  0  0  0
  160.1250  211.1810  156.7230 C   0  0  0  0  0  2  0  0  0  0  0  0
  162.5180  210.7110  156.0420 C   0  0  1  0  0  3  0  0  0  0  0  0
  162.1660  209.2170  155.9990 C   0  0  0  0  0  2  0  0  0  0  0  0
  161.1360  208.8260  154.9320 C   0  0  2  0  0  3  0  0  0  0  0  0
  158.9110  208.0870  155.3330 O   0  0  0  0  0  0  0  0  0  0  0  0
  157.8780  210.7000  155.7650 C   0  0  0  0  0  2  0  0  0  0  0  0
  157.7740  212.0500  155.0790 C   0  0  0  0  0  2  0  0  0  0  0  0
  159.3310  212.9340  153.3800 C   0  0  0  0  0  2  0  0  0  0  0  0
  157.8220  212.9440  151.4900 N   0  0  0  0  0  1  0  0  0  0  0  0
  158.2340  211.9260  153.6420 C   0  0  2  0  0  3  0  0  0  0  0  0
  157.9190  213.2160  152.9120 C   0  0  1  0  0  3  0  0  0  0  0  0
  1  2  1  1  0  0  0
  3  7  1  0  0  0  0
  4  3  2  0  0  0  0
  5 12  1  0  0  0  0
  6  9  2  0  0  0  0
  7 16  1  1  0  0  0
  8  7  1  0  0  0  0
  8  1  1  0  0  0  0
  9  3  1  0  0  0  0
  9 10  1  0  0  0  0
 10  8  2  0  0  0  0
 11  5  2  0  0  0  0
 11  6  1  0  0  0  0
 12 14  1  6  0  0  0
 12  4  1  0  0  0  0
 13 14  3  0  0  0  0
 15 16  1  0  0  0  0
 17 22  1  0  0  0  0
 17 21  1  0  0  0  0
 18 21  1  0  0  0  0
 20 18  1  0  0  0  0
 22 19  1  1  0  0  0
 23 22  1  0  0  0  0
 24  1  1  6  0  0  0
 24 20  1  0  0  0  0
 24 23  1  0  0  0  0
 25 20  2  0  0  0  0
 26 18  1  0  0  0  0
 27 26  1  0  0  0  0
 28 30  1  0  0  0  0
 30 27  1  1  0  0  0
 31 29  1  6  0  0  0
 31 28  1  0  0  0  0
 31 30  1  0  0  0  0
M  END
>  <MODEL>
4

>  <REMARK>
 VINA RESULT:      -5.2      2.940      5.452
  Name = 
  7 active torsions:
  status: ('A' for Active; 'I' for Inactive)
    1  A    between atoms: C_3  and  C_18
    2  A    between atoms: C_3  and  C_24
    3  A    between atoms: N_4  and  C_30
    4  A    between atoms: C_5  and  C_29
    5  A    between atoms: C_13  and  C_19
    6  A    between atoms: C_26  and  C_27
    7  A    between atoms: C_27  and  C_30
                            x       y       z     vdW  Elec       q    Type
                         _______ _______ _______ _____ _____    ______ ____

>  <TORSDO>
F 7

$$$$
=
 OpenBabel11052411193D

 31 34  0  0  1  0  0  0  0  0999 V2000
  160.4430  211.4000  154.3400 C   0  0  1  0  0  3  0  0  0  0  0  0
  161.7400  211.6000  155.5510 Cl  0  0  0  0  0  0  0  0  0  0  0  0
  160.8070  208.0620  152.6090 C   0  0  0  0  0  0  0  0  0  0  0  0
  160.9010  206.7420  152.4850 C   0  0  0  0  0  3  0  0  0  0  0  0
  161.3630  206.5440  150.0850 N   0  0  0  0  0  0  0  0  0  0  0  0
  161.5890  208.9320  150.4520 N   0  0  0  0  0  0  0  0  0  0  0  0
  160.2580  208.7930  153.7920 C   0  0  2  0  0  3  0  0  0  0  0  0
  160.7200  210.2000  153.4820 C   0  0  0  0  0  0  0  0  0  0  0  0
  161.4000  209.0550  151.7320 C   0  0  0  0  0  0  0  0  0  0  0  0
  161.3460  210.3260  152.3530 N   0  0  0  0  0  0  0  0  0  0  0  0
  161.3510  207.7660  149.6420 C   0  0  0  0  0  3  0  0  0  0  0  0
  161.7470  206.1210  151.4250 C   0  0  2  0  0  3  0  0  0  0  0  0
  161.5880  203.5100  151.5990 N   0  0  0  0  0  0  0  0  0  0  0  0
  161.6590  204.6630  151.5210 C   0  0  0  0  0  0  0  0  0  0  0  0
  159.9800  207.5320  155.8050 O   0  0  0  0  0  1  0  0  0  0  0  0
  160.8940  208.3050  155.0880 C   0  0  0  0  0  2  0  0  0  0  0  0
  159.2520  214.3630  154.8240 C   0  0  0  0  0  2  0  0  0  0  0  0
  157.6800  212.9950  153.5430 N   0  0  0  0  0  0  0  0  0  0  0  0
  159.1480  214.4520  157.2610 N   0  0  0  0  0  1  0  0  0  0  0  0
  157.9310  211.6680  154.0370 C   0  0  0  0  0  0  0  0  0  0  0  0
  157.8070  214.1720  154.3940 C   0  0  0  0  0  2  0  0  0  0  0  0
  159.5650  213.6380  156.1340 C   0  0  1  0  0  3  0  0  0  0  0  0
  158.9500  212.2350  156.2610 C   0  0  0  0  0  2  0  0  0  0  0  0
  159.0510  211.3690  154.9990 C   0  0  2  0  0  3  0  0  0  0  0  0
  157.2420  210.7030  153.6070 O   0  0  0  0  0  0  0  0  0  0  0  0
  157.0950  213.1820  152.2230 C   0  0  0  0  0  2  0  0  0  0  0  0
  157.9980  214.0590  151.3750 C   0  0  0  0  0  2  0  0  0  0  0  0
  160.4460  213.9430  151.0930 C   0  0  0  0  0  2  0  0  0  0  0  0
  160.5020  213.0770  148.8360 N   0  0  0  0  0  1  0  0  0  0  0  0
  159.1400  213.2310  150.8250 C   0  0  2  0  0  3  0  0  0  0  0  0
  159.8200  214.0080  149.7170 C   0  0  1  0  0  3  0  0  0  0  0  0
  1  2  1  1  0  0  0
  3  7  1  0  0  0  0
  4  3  2  0  0  0  0
  5 12  1  0  0  0  0
  6  9  2  0  0  0  0
  7 16  1  1  0  0  0
  8  7  1  0  0  0  0
  8  1  1  0  0  0  0
  9 10  1  0  0  0  0
  9  3  1  0  0  0  0
 10  8  2  0  0  0  0
 11  5  2  0  0  0  0
 11  6  1  0  0  0  0
 12 14  1  6  0  0  0
 12  4  1  0  0  0  0
 14 13  3  0  0  0  0
 16 15  1  0  0  0  0
 17 22  1  0  0  0  0
 18 20  1  0  0  0  0
 18 21  1  0  0  0  0
 20 24  1  0  0  0  0
 21 17  1  0  0  0  0
 22 23  1  0  0  0  0
 22 19  1  1  0  0  0
 24  1  1  6  0  0  0
 24 23  1  0  0  0  0
 25 20  2  0  0  0  0
 26 18  1  0  0  0  0
 27 26  1  0  0  0  0
 30 28  1  0  0  0  0
 30 27  1  1  0  0  0
 31 29  1  6  0  0  0
 31 30  1  0  0  0  0
 31 28  1  0  0  0  0
M  END
>  <MODEL>
5

>  <REMARK>
 VINA RESULT:      -5.1      4.122      7.356
  Name = 
  7 active torsions:
  status: ('A' for Active; 'I' for Inactive)
    1  A    between atoms: C_3  and  C_18
    2  A    between atoms: C_3  and  C_24
    3  A    between atoms: N_4  and  C_30
    4  A    between atoms: C_5  and  C_29
    5  A    between atoms: C_13  and  C_19
    6  A    between atoms: C_26  and  C_27
    7  A    between atoms: C_27  and  C_30
                            x       y       z     vdW  Elec       q    Type
                         _______ _______ _______ _____ _____    ______ ____

>  <TORSDO>
F 7

$$$$
=
 OpenBabel11052411193D

 31 34  0  0  1  0  0  0  0  0999 V2000
  161.5820  207.5360  153.0950 C   0  0  1  0  0  3  0  0  0  0  0  0
  162.3240  206.3040  154.1540 Cl  0  0  0  0  0  0  0  0  0  0  0  0
  161.2680  205.8760  149.7170 C   0  0  0  0  0  0  0  0  0  0  0  0
  161.1320  204.8890  148.8360 C   0  0  0  0  0  3  0  0  0  0  0  0
  161.3910  206.1200  146.7320 N   0  0  0  0  0  0  0  0  0  0  0  0
  162.0350  207.7830  148.3780 N   0  0  0  0  0  0  0  0  0  0  0  0
  160.9290  205.8030  151.1710 C   0  0  2  0  0  3  0  0  0  0  0  0
  161.5970  207.0660  151.6700 C   0  0  0  0  0  0  0  0  0  0  0  0
  161.9570  207.1350  149.5020 C   0  0  0  0  0  0  0  0  0  0  0  0
  162.1560  207.7820  150.7440 N   0  0  0  0  0  0  0  0  0  0  0  0
  161.5520  207.3600  147.0900 C   0  0  0  0  0  3  0  0  0  0  0  0
  161.7900  204.9470  147.4980 C   0  0  2  0  0  3  0  0  0  0  0  0
  161.2110  202.7790  146.1450 N   0  0  0  0  0  0  0  0  0  0  0  0
  161.4670  203.7360  146.7420 C   0  0  0  0  0  0  0  0  0  0  0  0
  160.5670  203.7180  152.2860 O   0  0  0  0  0  1  0  0  0  0  0  0
  161.5620  204.5810  151.8270 C   0  0  0  0  0  2  0  0  0  0  0  0
  161.6130  208.5760  156.1530 C   0  0  0  0  0  2  0  0  0  0  0  0
  160.5830  210.2370  154.6830 N   0  0  0  0  0  0  0  0  0  0  0  0
  160.2680  206.8680  157.2610 N   0  0  0  0  0  1  0  0  0  0  0  0
  159.9780  209.4300  153.6580 C   0  0  0  0  0  0  0  0  0  0  0  0
  160.6900  209.7810  156.0630 C   0  0  0  0  0  2  0  0  0  0  0  0
  160.8570  207.2550  155.9930 C   0  0  1  0  0  3  0  0  0  0  0  0
  159.7730  207.2580  154.9040 C   0  0  0  0  0  2  0  0  0  0  0  0
  160.1790  207.9380  153.5900 C   0  0  2  0  0  3  0  0  0  0  0  0
  159.3110  209.9820  152.7420 O   0  0  0  0  0  0  0  0  0  0  0  0
  160.9270  211.6250  154.4070 C   0  0  0  0  0  2  0  0  0  0  0  0
  160.1010  212.5490  155.2830 C   0  0  0  0  0  2  0  0  0  0  0  0
  157.9150  213.6650  155.5410 C   0  0  0  0  0  2  0  0  0  0  0  0
  156.5150  211.9140  154.6330 N   0  0  0  0  0  1  0  0  0  0  0  0
  158.7610  212.8060  154.6280 C   0  0  2  0  0  3  0  0  0  0  0  0
  157.6720  212.1730  155.4700 C   0  0  1  0  0  3  0  0  0  0  0  0
  1  2  1  1  0  0  0
  3  7  1  0  0  0  0
  4  3  2  0  0  0  0
  5 11  2  0  0  0  0
  5 12  1  0  0  0  0
  6  9  2  0  0  0  0
  7  8  1  0  0  0  0
  7 16  1  1  0  0  0
  8  1  1  0  0  0  0
  9  3  1  0  0  0  0
  9 10  1  0  0  0  0
 10  8  2  0  0  0  0
 11  6  1  0  0  0  0
 12 14  1  6  0  0  0
 12  4  1  0  0  0  0
 13 14  3  0  0  0  0
 16 15  1  0  0  0  0
 18 21  1  0  0  0  0
 20 18  1  0  0  0  0
 21 17  1  0  0  0  0
 22 17  1  0  0  0  0
 22 19  1  1  0  0  0
 23 22  1  0  0  0  0
 24  1  1  1  0  0  0
 24 20  1  0  0  0  0
 24 23  1  0  0  0  0
 25 20  2  0  0  0  0
 26 18  1  0  0  0  0
 26 27  1  0  0  0  0
 30 27  1  1  0  0  0
 30 31  1  0  0  0  0
 30 28  1  0  0  0  0
 31 29  1  6  0  0  0
 31 28  1  0  0  0  0
M  END
>  <MODEL>
6

>  <REMARK>
 VINA RESULT:      -5.0      3.186      4.999
  Name = 
  7 active torsions:
  status: ('A' for Active; 'I' for Inactive)
    1  A    between atoms: C_3  and  C_18
    2  A    between atoms: C_3  and  C_24
    3  A    between atoms: N_4  and  C_30
    4  A    between atoms: C_5  and  C_29
    5  A    between atoms: C_13  and  C_19
    6  A    between atoms: C_26  and  C_27
    7  A    between atoms: C_27  and  C_30
                            x       y       z     vdW  Elec       q    Type
                         _______ _______ _______ _____ _____    ______ ____

>  <TORSDO>
F 7

$$$$
=
 OpenBabel11052411193D

 31 34  0  0  1  0  0  0  0  0999 V2000
  161.9930  206.6190  149.0730 C   0  0  1  0  0  3  0  0  0  0  0  0
  162.7350  207.8530  148.0150 Cl  0  0  0  0  0  0  0  0  0  0  0  0
  161.4620  207.5280  152.7010 C   0  0  0  0  0  0  0  0  0  0  0  0
  161.1830  207.3480  153.9870 C   0  0  0  0  0  3  0  0  0  0  0  0
  161.2110  209.6660  154.7850 N   0  0  0  0  0  0  0  0  0  0  0  0
  161.3060  209.9550  152.3770 N   0  0  0  0  0  0  0  0  0  0  0  0
  161.8620  206.4580  151.7350 C   0  0  2  0  0  3  0  0  0  0  0  0
  161.7110  207.2030  150.4260 C   0  0  0  0  0  0  0  0  0  0  0  0
  161.2380  208.7360  151.9290 C   0  0  0  0  0  0  0  0  0  0  0  0
  161.3670  208.4470  150.5500 N   0  0  0  0  0  0  0  0  0  0  0  0
  161.5160  210.3740  153.7380 C   0  0  0  0  0  3  0  0  0  0  0  0
  160.4890  208.4020  154.7850 C   0  0  2  0  0  3  0  0  0  0  0  0
  160.1780  207.5700  157.2510 N   0  0  0  0  0  0  0  0  0  0  0  0
  160.3160  207.9370  156.1620 C   0  0  0  0  0  0  0  0  0  0  0  0
  161.4960  204.1970  152.4250 O   0  0  0  0  0  1  0  0  0  0  0  0
  160.8950  205.2800  151.7830 C   0  0  0  0  0  2  0  0  0  0  0  0
  162.7780  204.7060  146.5920 C   0  0  0  0  0  2  0  0  0  0  0  0
  161.4170  203.4950  148.2240 N   0  0  0  0  0  0  0  0  0  0  0  0
  161.7470  205.8880  144.7220 N   0  0  0  0  0  1  0  0  0  0  0  0
  160.5780  204.5260  148.7730 C   0  0  0  0  0  0  0  0  0  0  0  0
  161.8620  203.5180  146.8360 C   0  0  0  0  0  2  0  0  0  0  0  0
  162.0060  205.9500  146.1480 C   0  0  1  0  0  3  0  0  0  0  0  0
  160.6870  206.1940  146.8980 C   0  0  0  0  0  2  0  0  0  0  0  0
  160.7560  205.9790  148.4140 C   0  0  2  0  0  3  0  0  0  0  0  0
  159.7060  204.2270  149.6320 O   0  0  0  0  0  0  0  0  0  0  0  0
  161.6830  202.2870  148.9930 C   0  0  0  0  0  2  0  0  0  0  0  0
  160.8880  201.1250  148.4270 C   0  0  0  0  0  2  0  0  0  0  0  0
  160.8520  201.1050  145.9590 C   0  0  0  0  0  2  0  0  0  0  0  0
  161.3780  198.7690  145.6180 N   0  0  0  0  0  1  0  0  0  0  0  0
  161.5760  200.5960  147.1860 C   0  0  2  0  0  3  0  0  0  0  0  0
  160.6160  199.6900  146.4420 C   0  0  1  0  0  3  0  0  0  0  0  0
  1  2  1  6  0  0  0
  1  8  1  0  0  0  0
  3  4  2  0  0  0  0
  4 12  1  0  0  0  0
  5 12  1  0  0  0  0
  6 11  1  0  0  0  0
  7 16  1  6  0  0  0
  7  3  1  0  0  0  0
  8 10  2  0  0  0  0
  8  7  1  0  0  0  0
  9  6  2  0  0  0  0
  9  3  1  0  0  0  0
 10  9  1  0  0  0  0
 11  5  2  0  0  0  0
 12 14  1  1  0  0  0
 14 13  3  0  0  0  0
 16 15  1  0  0  0  0
 17 21  1  0  0  0  0
 18 20  1  0  0  0  0
 18 26  1  0  0  0  0
 20 25  2  0  0  0  0
 21 18  1  0  0  0  0
 22 19  1  6  0  0  0
 22 17  1  0  0  0  0
 22 23  1  0  0  0  0
 23 24  1  0  0  0  0
 24 20  1  0  0  0  0
 24  1  1  6  0  0  0
 27 26  1  0  0  0  0
 28 31  1  0  0  0  0
 28 30  1  0  0  0  0
 30 27  1  1  0  0  0
 31 29  1  6  0  0  0
 31 30  1  0  0  0  0
M  END
>  <MODEL>
7

>  <REMARK>
 VINA RESULT:      -4.9      1.969      8.287
  Name = 
  7 active torsions:
  status: ('A' for Active; 'I' for Inactive)
    1  A    between atoms: C_3  and  C_18
    2  A    between atoms: C_3  and  C_24
    3  A    between atoms: N_4  and  C_30
    4  A    between atoms: C_5  and  C_29
    5  A    between atoms: C_13  and  C_19
    6  A    between atoms: C_26  and  C_27
    7  A    between atoms: C_27  and  C_30
                            x       y       z     vdW  Elec       q    Type
                         _______ _______ _______ _____ _____    ______ ____

>  <TORSDO>
F 7

$$$$
=
 OpenBabel11052411193D

 31 34  0  0  1  0  0  0  0  0999 V2000
  161.2750  209.9180  152.8990 C   0  0  1  0  0  3  0  0  0  0  0  0
  162.8220  209.9390  153.7900 Cl  0  0  0  0  0  0  0  0  0  0  0  0
  161.0080  206.9980  150.5180 C   0  0  0  0  0  0  0  0  0  0  0  0
  160.8520  205.7370  150.1270 C   0  0  0  0  0  3  0  0  0  0  0  0
  161.2750  205.9520  147.7220 N   0  0  0  0  0  0  0  0  0  0  0  0
  161.9460  208.1310  148.5550 N   0  0  0  0  0  0  0  0  0  0  0  0
  160.6030  207.5590  151.8440 C   0  0  2  0  0  3  0  0  0  0  0  0
  161.3240  208.8900  151.8070 C   0  0  0  0  0  0  0  0  0  0  0  0
  161.7800  208.0220  149.8390 C   0  0  0  0  0  0  0  0  0  0  0  0
  161.9650  209.1260  150.7050 N   0  0  0  0  0  0  0  0  0  0  0  0
  161.4950  207.2200  147.5360 C   0  0  0  0  0  3  0  0  0  0  0  0
  161.5690  205.2000  148.9340 C   0  0  2  0  0  3  0  0  0  0  0  0
  160.9200  202.6850  148.5840 N   0  0  0  0  0  0  0  0  0  0  0  0
  161.2060  203.7950  148.7380 C   0  0  0  0  0  0  0  0  0  0  0  0
  162.4070  206.2320  152.6820 O   0  0  0  0  0  1  0  0  0  0  0  0
  161.1320  206.7070  152.9910 C   0  0  0  0  0  2  0  0  0  0  0  0
  161.7880  211.2800  155.7820 C   0  0  0  0  0  2  0  0  0  0  0  0
  159.7190  212.1190  154.7840 N   0  0  0  0  0  0  0  0  0  0  0  0
  161.7780  209.3300  157.2490 N   0  0  0  0  0  1  0  0  0  0  0  0
  159.2560  210.9970  154.0100 C   0  0  0  0  0  0  0  0  0  0  0  0
  160.4460  211.9470  156.0350 C   0  0  0  0  0  2  0  0  0  0  0  0
  161.7010  209.7550  155.8640 C   0  0  1  0  0  3  0  0  0  0  0  0
  160.4530  209.1430  155.2090 C   0  0  0  0  0  2  0  0  0  0  0  0
  160.0760  209.7430  153.8500 C   0  0  2  0  0  3  0  0  0  0  0  0
  158.1630  211.0790  153.3870 O   0  0  0  0  0  0  0  0  0  0  0  0
  159.2960  213.4670  154.4330 C   0  0  0  0  0  2  0  0  0  0  0  0
  158.4990  214.0740  155.5740 C   0  0  0  0  0  2  0  0  0  0  0  0
  156.2310  214.3690  156.5010 C   0  0  0  0  0  2  0  0  0  0  0  0
  155.5810  212.0420  156.5930 N   0  0  0  0  0  1  0  0  0  0  0  0
  157.0620  213.6040  155.4960 C   0  0  2  0  0  3  0  0  0  0  0  0
  156.6840  212.9590  156.8140 C   0  0  1  0  0  3  0  0  0  0  0  0
  1  2  1  1  0  0  0
  3  7  1  0  0  0  0
  4  3  2  0  0  0  0
  5 12  1  0  0  0  0
  6  9  2  0  0  0  0
  7 16  1  1  0  0  0
  8  7  1  0  0  0  0
  8  1  1  0  0  0  0
  9  3  1  0  0  0  0
  9 10  1  0  0  0  0
 10  8  2  0  0  0  0
 11  5  2  0  0  0  0
 11  6  1  0  0  0  0
 12 14  1  6  0  0  0
 12  4  1  0  0  0  0
 13 14  3  0  0  0  0
 15 16  1  0  0  0  0
 17 22  1  0  0  0  0
 17 21  1  0  0  0  0
 18 21  1  0  0  0  0
 20 18  1  0  0  0  0
 22 19  1  1  0  0  0
 23 22  1  0  0  0  0
 24  1  1  1  0  0  0
 24 20  1  0  0  0  0
 24 23  1  0  0  0  0
 25 20  2  0  0  0  0
 26 18  1  0  0  0  0
 26 27  1  0  0  0  0
 28 31  1  0  0  0  0
 30 27  1  1  0  0  0
 30 28  1  0  0  0  0
 30 31  1  0  0  0  0
 31 29  1  6  0  0  0
M  END
>  <MODEL>
8

>  <REMARK>
 VINA RESULT:      -4.7      3.673      5.686
  Name = 
  7 active torsions:
  status: ('A' for Active; 'I' for Inactive)
    1  A    between atoms: C_3  and  C_18
    2  A    between atoms: C_3  and  C_24
    3  A    between atoms: N_4  and  C_30
    4  A    between atoms: C_5  and  C_29
    5  A    between atoms: C_13  and  C_19
    6  A    between atoms: C_26  and  C_27
    7  A    between atoms: C_27  and  C_30
                            x       y       z     vdW  Elec       q    Type
                         _______ _______ _______ _____ _____    ______ ____

>  <TORSDO>
F 7

$$$$
=
 OpenBabel11052411193D

 31 34  0  0  1  0  0  0  0  0999 V2000
  161.4780  204.3260  150.6660 C   0  0  1  0  0  3  0  0  0  0  0  0
  161.3920  203.2560  152.0930 Cl  0  0  0  0  0  0  0  0  0  0  0  0
  160.8730  201.8520  147.8760 C   0  0  0  0  0  0  0  0  0  0  0  0
  160.7400  200.6690  147.2850 C   0  0  0  0  0  3  0  0  0  0  0  0
  160.4880  201.3550  144.9460 N   0  0  0  0  0  0  0  0  0  0  0  0
  161.1430  203.4320  146.0170 N   0  0  0  0  0  0  0  0  0  0  0  0
  160.7810  202.1120  149.3460 C   0  0  2  0  0  3  0  0  0  0  0  0
  161.3350  203.5190  149.4080 C   0  0  0  0  0  0  0  0  0  0  0  0
  161.3350  203.0800  147.2540 C   0  0  0  0  0  0  0  0  0  0  0  0
  161.6350  204.0330  148.2560 N   0  0  0  0  0  0  0  0  0  0  0  0
  160.5270  202.6550  144.9740 C   0  0  0  0  0  3  0  0  0  0  0  0
  161.1630  200.4560  145.8700 C   0  0  2  0  0  3  0  0  0  0  0  0
  160.6910  197.9730  145.1790 N   0  0  0  0  0  0  0  0  0  0  0  0
  160.8990  199.0690  145.4850 C   0  0  0  0  0  0  0  0  0  0  0  0
  160.8960  200.2090  150.7900 O   0  0  0  0  0  1  0  0  0  0  0  0
  161.6750  201.1610  150.1320 C   0  0  0  0  0  2  0  0  0  0  0  0
  162.7490  206.9380  152.0770 C   0  0  0  0  0  2  0  0  0  0  0  0
  161.8120  207.5040  149.8900 N   0  0  0  0  0  0  0  0  0  0  0  0
  161.4010  207.0990  154.1050 N   0  0  0  0  0  1  0  0  0  0  0  0
  160.7190  206.5780  149.7590 C   0  0  0  0  0  0  0  0  0  0  0  0
  162.2150  208.0450  151.1830 C   0  0  0  0  0  2  0  0  0  0  0  0
  161.6480  206.2950  152.9230 C   0  0  1  0  0  3  0  0  0  0  0  0
  160.3230  206.0530  152.1830 C   0  0  0  0  0  2  0  0  0  0  0  0
  160.4690  205.4850  150.7650 C   0  0  2  0  0  3  0  0  0  0  0  0
  159.9790  206.6290  148.7390 O   0  0  0  0  0  0  0  0  0  0  0  0
  162.4220  208.0830  148.7020 C   0  0  0  0  0  2  0  0  0  0  0  0
  161.7030  209.3650  148.3220 C   0  0  0  0  0  2  0  0  0  0  0  0
  161.8090  211.4860  149.5800 C   0  0  0  0  0  2  0  0  0  0  0  0
  162.9540  212.8230  147.9220 N   0  0  0  0  0  1  0  0  0  0  0  0
  162.5730  210.5560  148.6640 C   0  0  2  0  0  3  0  0  0  0  0  0
  161.9320  211.8100  148.1060 C   0  0  1  0  0  3  0  0  0  0  0  0
  1  2  1  1  0  0  0
  3  7  1  0  0  0  0
  4  3  2  0  0  0  0
  5 11  2  0  0  0  0
  5 12  1  0  0  0  0
  6  9  2  0  0  0  0
  7  8  1  0  0  0  0
  7 16  1  1  0  0  0
  8  1  1  0  0  0  0
  9  3  1  0  0  0  0
  9 10  1  0  0  0  0
 10  8  2  0  0  0  0
 11  6  1  0  0  0  0
 12 14  1  6  0  0  0
 12  4  1  0  0  0  0
 13 14  3  0  0  0  0
 16 15  1  0  0  0  0
 17 22  1  0  0  0  0
 18 21  1  0  0  0  0
 20 18  1  0  0  0  0
 20 24  1  0  0  0  0
 21 17  1  0  0  0  0
 22 19  1  1  0  0  0
 23 22  1  0  0  0  0
 24  1  1  1  0  0  0
 24 23  1  0  0  0  0
 25 20  2  0  0  0  0
 26 18  1  0  0  0  0
 27 26  1  0  0  0  0
 30 27  1  6  0  0  0
 30 28  1  0  0  0  0
 31 29  1  1  0  0  0
 31 30  1  0  0  0  0
 31 28  1  0  0  0  0
M  END
>  <MODEL>
9

>  <REMARK>
 VINA RESULT:      -4.5      2.706      5.017
  Name = 
  7 active torsions:
  status: ('A' for Active; 'I' for Inactive)
    1  A    between atoms: C_3  and  C_18
    2  A    between atoms: C_3  and  C_24
    3  A    between atoms: N_4  and  C_30
    4  A    between atoms: C_5  and  C_29
    5  A    between atoms: C_13  and  C_19
    6  A    between atoms: C_26  and  C_27
    7  A    between atoms: C_27  and  C_30
                            x       y       z     vdW  Elec       q    Type
                         _______ _______ _______ _____ _____    ______ ____

>  <TORSDO>
F 7

$$$$
