=
 OpenBabel11042422063D

 54 57  0  0  1  0  0  0  0  0999 V2000
  159.1390  213.3140  147.7980 C   0  0  0  0  0  0  0  0  0  0  0  0
  159.5810  213.8920  145.5060 C   0  0  0  0  0  0  0  0  0  0  0  0
  160.0280  213.4260  146.8370 C   0  0  0  0  0  0  0  0  0  0  0  0
  162.4340  213.8920  146.6070 C   0  0  0  0  0  3  0  0  0  0  0  0
  160.4330  213.8740  144.3510 N   0  0  0  0  0  0  0  0  0  0  0  0
  161.4180  212.8620  146.9860 C   0  0  1  0  0  3  0  0  0  0  0  0
  157.1170  212.4610  148.4790 F   0  0  0  0  0  0  0  0  0  0  0  0
  158.2360  213.1860  148.7370 C   0  0  0  0  0  0  0  0  0  0  0  0
  161.7250  214.0240  144.2740 C   0  0  0  0  0  0  0  0  0  0  0  0
  162.5440  214.3620  145.4040 N   0  0  0  0  0  0  0  0  0  0  0  0
  158.3820  214.2490  145.3490 O   0  0  0  0  0  0  0  0  0  0  0  0
  162.3250  214.0330  142.9850 N   0  0  0  0  0  1  0  0  0  0  0  0
  162.0270  210.9760  148.4520 C   0  0  0  0  0  0  0  0  0  0  0  0
  161.8480  213.1310  149.5240 C   0  0  0  0  0  1  0  0  0  0  0  0
  161.7300  212.2450  148.3310 C   0  0  0  0  0  0  0  0  0  0  0  0
  162.3040  209.7060  148.5470 C   0  0  0  0  0  3  0  0  0  0  0  0
  161.2360  208.7410  148.9270 C   0  0  0  0  0  2  0  0  0  0  0  0
  161.8410  207.3690  149.2090 C   0  0  2  0  0  3  0  0  0  0  0  0
  160.9860  206.2700  148.5870 C   0  0  0  0  0  2  0  0  0  0  0  0
  161.8210  205.4230  147.6460 C   0  0  0  0  0  2  0  0  0  0  0  0
  161.3710  205.6570  146.2210 C   0  0  0  0  0  1  0  0  0  0  0  0
  162.0170  207.1440  150.7080 C   0  0  0  0  0  2  0  0  0  0  0  0
  161.1090  206.1180  151.1980 N   0  0  0  0  0  2  0  0  0  0  0  0
  161.9290  205.1450  151.9000 C   0  0  0  0  0  2  0  0  0  0  0  0
  161.1800  203.8250  152.0100 C   0  0  0  0  0  2  0  0  0  0  0  0
  160.3480  203.5590  150.7570 C   0  0  0  0  0  2  0  0  0  0  0  0
  160.6350  202.1960  150.1160 C   0  0  2  0  0  3  0  0  0  0  0  0
  161.8220  201.5030  150.7660 C   0  0  0  0  0  1  0  0  0  0  0  0
  160.8400  202.2970  148.6100 C   0  0  0  0  0  2  0  0  0  0  0  0
  160.2130  201.1120  147.8920 C   0  0  0  0  0  2  0  0  0  0  0  0
  161.0680  200.6600  146.8840 O   0  0  0  0  0  1  0  0  0  0  0  0
  158.4090  213.7990  150.0620 C   0  0  0  0  0  0  0  0  0  0  0  0
  159.5350  214.2370  150.4280 O   0  0  0  0  0  0  0  0  0  0  0  0
  157.2810  213.9020  150.9300 N   0  0  0  0  0  2  0  0  0  0  0  0
  156.9740  212.2380  153.2100 C   0  0  0  0  0  3  0  0  0  0  0  0
  157.2390  213.6880  153.3290 C   0  0  0  0  0  0  0  0  0  0  0  0
  156.7600  211.4910  154.2930 C   0  0  0  0  0  3  0  0  0  0  0  0
  156.7120  212.1050  155.6670 C   0  0  2  0  0  3  0  0  0  0  0  0
  157.3680  214.4530  152.2460 C   0  0  0  0  0  3  0  0  0  0  0  0
  157.6690  213.2930  155.7590 C   0  0  0  0  0  2  0  0  0  0  0  0
  157.3160  214.3290  154.6880 C   0  0  0  0  0  2  0  0  0  0  0  0
  157.0460  211.1480  156.6260 O   0  0  0  0  0  0  0  0  0  0  0  0
  158.1930  211.6420  157.2510 C   0  0  0  0  0  2  0  0  0  0  0  0
  159.2660  210.5730  157.2600 C   0  0  0  0  0  2  0  0  0  0  0  0
  162.4810  211.5300  156.9620 O   0  0  0  0  0  0  0  0  0  0  0  0
  163.0620  210.5430  156.1470 C   0  0  0  0  0  2  0  0  0  0  0  0
  159.6600  210.2220  155.8230 C   0  0  2  0  0  3  0  0  0  0  0  0
  161.4370  212.0710  156.1970 C   0  0  0  0  0  2  0  0  0  0  0  0
  160.1200  208.7790  155.6930 C   0  0  2  0  0  3  0  0  0  0  0  0
  161.9800  209.9410  155.2780 C   0  0  2  0  0  3  0  0  0  0  0  0
  160.8830  210.9700  155.3050 C   0  0  1  0  0  0  0  0  0  0  0  0
  159.4980  207.9320  156.6130 O   0  0  0  0  0  1  0  0  0  0  0  0
  161.5110  208.7510  155.8670 O   0  0  0  0  0  0  0  0  0  0  0  0
  160.6200  211.5050  153.9080 C   0  0  0  0  0  1  0  0  0  0  0  0
  1  8  2  0  0  0  0
  2  3  1  0  0  0  0
  3  6  1  0  0  0  0
  3  1  2  0  0  0  0
  4  6  1  0  0  0  0
  5  2  1  0  0  0  0
  6 15  1  1  0  0  0
  7  8  1  0  0  0  0
  8 32  1  0  0  0  0
  9  5  2  0  0  0  0
  9 10  1  0  0  0  0
 10  4  2  0  0  0  0
 11  2  2  0  0  0  0
 12  9  1  0  0  0  0
 13 16  2  0  0  0  0
 15 13  2  0  0  0  0
 15 14  1  0  0  0  0
 16 17  1  0  0  0  0
 17 18  1  0  0  0  0
 18 19  1  1  0  0  0
 18 22  1  0  0  0  0
 20 19  1  0  0  0  0
 21 20  1  0  0  0  0
 22 23  1  0  0  0  0
 23 24  1  0  0  0  0
 24 25  1  0  0  0  0
 26 25  1  0  0  0  0
 27 26  1  0  0  0  0
 27 28  1  1  0  0  0
 29 27  1  0  0  0  0
 30 29  1  0  0  0  0
 31 30  1  0  0  0  0
 32 33  2  0  0  0  0
 32 34  1  0  0  0  0
 34 39  1  0  0  0  0
 35 36  1  0  0  0  0
 35 37  2  0  0  0  0
 36 41  1  0  0  0  0
 37 38  1  0  0  0  0
 38 40  1  0  0  0  0
 38 42  1  1  0  0  0
 39 36  2  0  0  0  0
 41 40  1  0  0  0  0
 42 43  1  0  0  0  0
 43 44  1  0  0  0  0
 46 45  1  0  0  0  0
 47 44  1  1  0  0  0
 48 45  1  0  0  0  0
 49 47  1  0  0  0  0
 49 53  1  0  0  0  0
 49 52  1  1  0  0  0
 50 51  1  0  0  0  0
 50 53  1  0  0  0  0
 50 46  1  1  0  0  0
 51 54  1  6  0  0  0
 51 47  1  0  0  0  0
 51 48  1  0  0  0  0
M  END
>  <MODEL>
1

>  <REMARK>
 VINA RESULT:      -5.3      0.000      0.000
  Name = 
  19 active torsions:
  status: ('A' for Active; 'I' for Inactive)
    1  A    between atoms: C_1  and  C_42
    2  A    between atoms: C_1  and  C_44
    3  A    between atoms: C_5  and  N_7
    4  A    between atoms: C_5  and  C_32
    5  A    between atoms: N_7  and  C_54
    6  A    between atoms: C_8  and  C_25
    7  A    between atoms: C_9  and  C_39
    8  A    between atoms: C_10  and  C_19
    9  A    between atoms: C_13  and  C_43
   10  A    between atoms: C_18  and  C_39
   11  A    between atoms: C_18  and  C_51
   12  A    between atoms: C_25  and  C_42
   13  A    between atoms: O_28  and  C_33
   14  A    between atoms: O_28  and  C_45
   15  A    between atoms: C_30  and  C_37
   16  A    between atoms: C_32  and  C_51
   17  A    between atoms: C_34  and  N_40
   18  A    between atoms: C_37  and  C_45
   19  A    between atoms: C_42  and  C_54
                            x       y       z     vdW  Elec       q    Type
                         _______ _______ _______ _____ _____    ______ ____

>  <TORSDO>
F 19

$$$$
=
 OpenBabel11042422063D

 54 57  0  0  1  0  0  0  0  0999 V2000
  161.6890  204.8740  149.9920 C   0  0  0  0  0  0  0  0  0  0  0  0
  161.3970  204.0340  147.7580 C   0  0  0  0  0  0  0  0  0  0  0  0
  161.5970  205.1480  148.7100 C   0  0  0  0  0  0  0  0  0  0  0  0
  160.8400  207.0030  147.2810 C   0  0  0  0  0  3  0  0  0  0  0  0
  161.4650  204.2090  146.3350 N   0  0  0  0  0  0  0  0  0  0  0  0
  161.9350  206.5170  148.1760 C   0  0  1  0  0  3  0  0  0  0  0  0
  162.7060  203.6400  151.6420 F   0  0  0  0  0  0  0  0  0  0  0  0
  161.8030  204.5800  151.2630 C   0  0  0  0  0  0  0  0  0  0  0  0
  161.1500  205.2470  145.6130 C   0  0  0  0  0  0  0  0  0  0  0  0
  160.5410  206.4270  146.1590 N   0  0  0  0  0  0  0  0  0  0  0  0
  161.2360  202.8660  148.2020 O   0  0  0  0  0  0  0  0  0  0  0  0
  161.2470  205.1370  144.1990 N   0  0  0  0  0  1  0  0  0  0  0  0
  161.9410  208.8050  149.0950 C   0  0  0  0  0  0  0  0  0  0  0  0
  162.9490  207.1070  150.4830 C   0  0  0  0  0  1  0  0  0  0  0  0
  162.2990  207.5520  149.2180 C   0  0  0  0  0  0  0  0  0  0  0  0
  161.5870  210.0490  148.9410 C   0  0  0  0  0  3  0  0  0  0  0  0
  162.5520  211.0300  148.3720 C   0  0  0  0  0  2  0  0  0  0  0  0
  162.0500  212.4530  148.5950 C   0  0  2  0  0  3  0  0  0  0  0  0
  160.5290  212.5060  148.5020 C   0  0  0  0  0  2  0  0  0  0  0  0
  159.9970  213.7060  149.2630 C   0  0  0  0  0  2  0  0  0  0  0  0
  158.4920  213.7610  149.1310 C   0  0  0  0  0  1  0  0  0  0  0  0
  162.6940  213.4220  147.6060 C   0  0  0  0  0  2  0  0  0  0  0  0
  162.6400  212.9030  146.2480 N   0  0  0  0  0  2  0  0  0  0  0  0
  162.1470  213.9850  145.4130 C   0  0  0  0  0  2  0  0  0  0  0  0
  161.8290  213.4580  144.0210 C   0  0  0  0  0  2  0  0  0  0  0  0
  160.4700  213.9650  143.5400 C   0  0  0  0  0  2  0  0  0  0  0  0
  159.6500  212.8970  142.8050 C   0  0  2  0  0  3  0  0  0  0  0  0
  160.4740  211.6530  142.5120 C   0  0  0  0  0  1  0  0  0  0  0  0
  159.0220  213.4300  141.5250 C   0  0  0  0  0  2  0  0  0  0  0  0
  159.0280  212.3720  140.4310 C   0  0  0  0  0  2  0  0  0  0  0  0
  159.4710  212.9320  139.2310 O   0  0  0  0  0  1  0  0  0  0  0  0
  160.9850  205.2490  152.2850 C   0  0  0  0  0  0  0  0  0  0  0  0
  159.7260  205.2640  152.1950 O   0  0  0  0  0  0  0  0  0  0  0  0
  161.6350  205.8750  153.3910 N   0  0  0  0  0  2  0  0  0  0  0  0
  161.4550  208.7080  153.3350 C   0  0  0  0  0  3  0  0  0  0  0  0
  160.8130  207.9030  154.3970 C   0  0  0  0  0  0  0  0  0  0  0  0
  161.4190  210.0410  153.3710 C   0  0  0  0  0  3  0  0  0  0  0  0
  160.7860  210.7720  154.5240 C   0  0  2  0  0  3  0  0  0  0  0  0
  160.9190  206.5760  154.4100 C   0  0  0  0  0  3  0  0  0  0  0  0
  159.6030  209.9810  155.0800 C   0  0  0  0  0  2  0  0  0  0  0  0
  160.0670  208.5870  155.5110 C   0  0  0  0  0  2  0  0  0  0  0  0
  160.3620  212.0350  154.1080 O   0  0  0  0  0  0  0  0  0  0  0  0
  159.8550  212.6470  155.2560 C   0  0  0  0  0  2  0  0  0  0  0  0
  158.7430  213.6020  154.8740 C   0  0  0  0  0  2  0  0  0  0  0  0
  155.9040  214.3590  156.5210 O   0  0  0  0  0  0  0  0  0  0  0  0
  154.9320  214.4530  155.5090 C   0  0  0  0  0  2  0  0  0  0  0  0
  157.6350  212.8410  154.1400 C   0  0  2  0  0  3  0  0  0  0  0  0
  156.4170  213.0570  156.4170 C   0  0  0  0  0  2  0  0  0  0  0  0
  157.1020  213.6180  152.9470 C   0  0  2  0  0  3  0  0  0  0  0  0
  155.3640  213.5860  154.3470 C   0  0  2  0  0  3  0  0  0  0  0  0
  156.3630  212.6400  154.9550 C   0  0  1  0  0  0  0  0  0  0  0  0
  158.0700  214.4390  152.3650 O   0  0  0  0  0  1  0  0  0  0  0  0
  156.0100  214.3830  153.3830 O   0  0  0  0  0  0  0  0  0  0  0  0
  155.8800  211.2060  154.8330 C   0  0  0  0  0  1  0  0  0  0  0  0
  1  8  2  0  0  0  0
  2 11  2  0  0  0  0
  2  3  1  0  0  0  0
  3  1  2  0  0  0  0
  4  6  1  0  0  0  0
  5  2  1  0  0  0  0
  6  3  1  0  0  0  0
  6 15  1  1  0  0  0
  8  7  1  0  0  0  0
  8 32  1  0  0  0  0
  9 10  1  0  0  0  0
  9  5  2  0  0  0  0
 10  4  2  0  0  0  0
 12  9  1  0  0  0  0
 13 15  2  0  0  0  0
 15 14  1  0  0  0  0
 16 13  2  0  0  0  0
 17 18  1  0  0  0  0
 17 16  1  0  0  0  0
 18 22  1  6  0  0  0
 19 18  1  0  0  0  0
 19 20  1  0  0  0  0
 21 20  1  0  0  0  0
 23 22  1  0  0  0  0
 24 23  1  0  0  0  0
 25 24  1  0  0  0  0
 26 25  1  0  0  0  0
 27 28  1  6  0  0  0
 27 26  1  0  0  0  0
 29 27  1  0  0  0  0
 30 29  1  0  0  0  0
 31 30  1  0  0  0  0
 32 34  1  0  0  0  0
 33 32  2  0  0  0  0
 34 39  1  0  0  0  0
 35 37  2  0  0  0  0
 35 36  1  0  0  0  0
 36 39  2  0  0  0  0
 36 41  1  0  0  0  0
 37 38  1  0  0  0  0
 38 42  1  6  0  0  0
 38 40  1  0  0  0  0
 40 41  1  0  0  0  0
 42 43  1  0  0  0  0
 44 43  1  0  0  0  0
 46 45  1  0  0  0  0
 47 44  1  1  0  0  0
 47 51  1  0  0  0  0
 48 45  1  0  0  0  0
 49 52  1  1  0  0  0
 49 53  1  0  0  0  0
 49 47  1  0  0  0  0
 50 51  1  0  0  0  0
 50 46  1  1  0  0  0
 51 54  1  6  0  0  0
 51 48  1  0  0  0  0
 53 50  1  0  0  0  0
M  END
>  <MODEL>
2

>  <REMARK>
 VINA RESULT:      -5.3      2.987      8.410
  Name = 
  19 active torsions:
  status: ('A' for Active; 'I' for Inactive)
    1  A    between atoms: C_1  and  C_42
    2  A    between atoms: C_1  and  C_44
    3  A    between atoms: C_5  and  N_7
    4  A    between atoms: C_5  and  C_32
    5  A    between atoms: N_7  and  C_54
    6  A    between atoms: C_8  and  C_25
    7  A    between atoms: C_9  and  C_39
    8  A    between atoms: C_10  and  C_19
    9  A    between atoms: C_13  and  C_43
   10  A    between atoms: C_18  and  C_39
   11  A    between atoms: C_18  and  C_51
   12  A    between atoms: C_25  and  C_42
   13  A    between atoms: O_28  and  C_33
   14  A    between atoms: O_28  and  C_45
   15  A    between atoms: C_30  and  C_37
   16  A    between atoms: C_32  and  C_51
   17  A    between atoms: C_34  and  N_40
   18  A    between atoms: C_37  and  C_45
   19  A    between atoms: C_42  and  C_54
                            x       y       z     vdW  Elec       q    Type
                         _______ _______ _______ _____ _____    ______ ____

>  <TORSDO>
F 19

$$$$
=
 OpenBabel11042422063D

 54 57  0  0  1  0  0  0  0  0999 V2000
  160.7640  212.2190  148.6960 C   0  0  0  0  0  0  0  0  0  0  0  0
  159.3130  212.7520  146.8530 C   0  0  0  0  0  0  0  0  0  0  0  0
  159.6400  212.7700  148.2960 C   0  0  0  0  0  0  0  0  0  0  0  0
  157.3830  213.1850  149.1860 C   0  0  0  0  0  3  0  0  0  0  0  0
  158.2070  213.4800  146.3000 N   0  0  0  0  0  0  0  0  0  0  0  0
  158.8120  213.6220  149.2250 C   0  0  1  0  0  3  0  0  0  0  0  0
  163.0450  212.0790  148.4580 F   0  0  0  0  0  0  0  0  0  0  0  0
  161.9000  211.6870  149.0730 C   0  0  0  0  0  0  0  0  0  0  0  0
  157.0570  213.7720  146.8380 C   0  0  0  0  0  0  0  0  0  0  0  0
  156.6460  213.2830  148.1240 N   0  0  0  0  0  0  0  0  0  0  0  0
  160.0750  212.1400  146.0570 O   0  0  0  0  0  0  0  0  0  0  0  0
  156.0960  214.4530  146.0420 N   0  0  0  0  0  1  0  0  0  0  0  0
  158.7470  213.0780  151.6280 C   0  0  0  0  0  0  0  0  0  0  0  0
  160.5950  214.4530  150.9070 C   0  0  0  0  0  1  0  0  0  0  0  0
  159.3220  213.7230  150.6450 C   0  0  0  0  0  0  0  0  0  0  0  0
  158.1470  212.4390  152.5920 C   0  0  0  0  0  3  0  0  0  0  0  0
  157.1520  213.1460  153.4430 C   0  0  0  0  0  2  0  0  0  0  0  0
  157.2920  212.7040  154.8970 C   0  0  2  0  0  3  0  0  0  0  0  0
  155.9380  212.2910  155.4640 C   0  0  0  0  0  2  0  0  0  0  0  0
  155.3350  211.1780  154.6280 C   0  0  0  0  0  2  0  0  0  0  0  0
  155.1640  209.9410  155.4820 C   0  0  0  0  0  1  0  0  0  0  0  0
  157.9300  213.8010  155.7450 C   0  0  0  0  0  2  0  0  0  0  0  0
  158.8270  213.2410  156.7430 N   0  0  0  0  0  2  0  0  0  0  0  0
  159.6920  212.3060  156.0430 C   0  0  0  0  0  2  0  0  0  0  0  0
  159.6440  210.9480  156.7250 C   0  0  0  0  0  2  0  0  0  0  0  0
  159.5100  209.8230  155.7010 C   0  0  0  0  0  2  0  0  0  0  0  0
  160.7090  208.8680  155.6870 C   0  0  2  0  0  3  0  0  0  0  0  0
  160.3120  207.4550  156.0840 C   0  0  0  0  0  1  0  0  0  0  0  0
  161.8520  209.3620  156.5640 C   0  0  0  0  0  2  0  0  0  0  0  0
  162.5710  210.5360  155.9140 C   0  0  0  0  0  2  0  0  0  0  0  0
  163.3700  211.1850  156.8580 O   0  0  0  0  0  1  0  0  0  0  0  0
  161.9630  210.6870  150.1480 C   0  0  0  0  0  0  0  0  0  0  0  0
  161.5940  210.9760  151.3200 O   0  0  0  0  0  0  0  0  0  0  0  0
  162.4390  209.3760  149.8470 N   0  0  0  0  0  2  0  0  0  0  0  0
  161.0620  206.9110  149.5560 C   0  0  0  0  0  3  0  0  0  0  0  0
  161.9370  207.1870  150.7160 C   0  0  0  0  0  0  0  0  0  0  0  0
  160.3670  205.7750  149.4770 C   0  0  0  0  0  3  0  0  0  0  0  0
  160.3940  204.7670  150.5950 C   0  0  2  0  0  3  0  0  0  0  0  0
  162.5650  208.3540  150.8390 C   0  0  0  0  0  3  0  0  0  0  0  0
  161.7600  204.7570  151.2800 C   0  0  0  0  0  2  0  0  0  0  0  0
  162.0870  206.1580  151.8040 C   0  0  0  0  0  2  0  0  0  0  0  0
  160.1030  203.4970  150.0940 O   0  0  0  0  0  0  0  0  0  0  0  0
  161.3290  202.8280  150.0600 C   0  0  0  0  0  2  0  0  0  0  0  0
  161.9730  203.0160  148.7020 C   0  0  0  0  0  2  0  0  0  0  0  0
  163.6280  204.5370  146.1940 O   0  0  0  0  0  0  0  0  0  0  0  0
  162.9790  204.0890  145.0300 C   0  0  0  0  0  2  0  0  0  0  0  0
  160.9010  203.3650  147.6640 C   0  0  2  0  0  3  0  0  0  0  0  0
  162.6280  205.1620  146.9550 C   0  0  0  0  0  2  0  0  0  0  0  0
  160.6210  202.2060  146.7220 C   0  0  2  0  0  3  0  0  0  0  0  0
  161.5520  203.7300  145.3840 C   0  0  2  0  0  3  0  0  0  0  0  0
  161.3100  204.4540  146.6800 C   0  0  1  0  0  0  0  0  0  0  0  0
  160.8160  200.9630  147.3270 O   0  0  0  0  0  1  0  0  0  0  0  0
  161.4590  202.3430  145.6070 O   0  0  0  0  0  0  0  0  0  0  0  0
  160.1910  205.4680  146.5220 C   0  0  0  0  0  1  0  0  0  0  0  0
  1  8  2  0  0  0  0
  2  3  1  0  0  0  0
  3  1  2  0  0  0  0
  3  6  1  0  0  0  0
  4  6  1  0  0  0  0
  5  9  2  0  0  0  0
  5  2  1  0  0  0  0
  6 15  1  1  0  0  0
  7  8  1  0  0  0  0
  8 32  1  0  0  0  0
  9 10  1  0  0  0  0
 10  4  2  0  0  0  0
 11  2  2  0  0  0  0
 12  9  1  0  0  0  0
 13 16  2  0  0  0  0
 15 14  1  0  0  0  0
 15 13  2  0  0  0  0
 16 17  1  0  0  0  0
 18 17  1  6  0  0  0
 18 19  1  0  0  0  0
 18 22  1  0  0  0  0
 20 19  1  0  0  0  0
 20 21  1  0  0  0  0
 22 23  1  0  0  0  0
 24 25  1  0  0  0  0
 24 23  1  0  0  0  0
 26 25  1  0  0  0  0
 27 26  1  0  0  0  0
 27 28  1  1  0  0  0
 27 29  1  0  0  0  0
 30 29  1  0  0  0  0
 30 31  1  0  0  0  0
 32 33  2  0  0  0  0
 34 32  1  0  0  0  0
 34 39  1  0  0  0  0
 35 36  1  0  0  0  0
 36 39  2  0  0  0  0
 36 41  1  0  0  0  0
 37 35  2  0  0  0  0
 37 38  1  0  0  0  0
 38 42  1  6  0  0  0
 38 40  1  0  0  0  0
 40 41  1  0  0  0  0
 43 42  1  0  0  0  0
 44 43  1  0  0  0  0
 45 48  1  0  0  0  0
 46 45  1  0  0  0  0
 47 44  1  1  0  0  0
 49 52  1  1  0  0  0
 49 47  1  0  0  0  0
 50 46  1  1  0  0  0
 50 53  1  0  0  0  0
 50 51  1  0  0  0  0
 51 54  1  6  0  0  0
 51 48  1  0  0  0  0
 51 47  1  0  0  0  0
 53 49  1  0  0  0  0
M  END
>  <MODEL>
3

>  <REMARK>
 VINA RESULT:      -4.6      2.382      8.851
  Name = 
  19 active torsions:
  status: ('A' for Active; 'I' for Inactive)
    1  A    between atoms: C_1  and  C_42
    2  A    between atoms: C_1  and  C_44
    3  A    between atoms: C_5  and  N_7
    4  A    between atoms: C_5  and  C_32
    5  A    between atoms: N_7  and  C_54
    6  A    between atoms: C_8  and  C_25
    7  A    between atoms: C_9  and  C_39
    8  A    between atoms: C_10  and  C_19
    9  A    between atoms: C_13  and  C_43
   10  A    between atoms: C_18  and  C_39
   11  A    between atoms: C_18  and  C_51
   12  A    between atoms: C_25  and  C_42
   13  A    between atoms: O_28  and  C_33
   14  A    between atoms: O_28  and  C_45
   15  A    between atoms: C_30  and  C_37
   16  A    between atoms: C_32  and  C_51
   17  A    between atoms: C_34  and  N_40
   18  A    between atoms: C_37  and  C_45
   19  A    between atoms: C_42  and  C_54
                            x       y       z     vdW  Elec       q    Type
                         _______ _______ _______ _____ _____    ______ ____

>  <TORSDO>
F 19

$$$$
=
 OpenBabel11042422063D

 54 57  0  0  1  0  0  0  0  0999 V2000
  160.6650  212.2260  148.0440 C   0  0  0  0  0  0  0  0  0  0  0  0
  159.1610  212.6670  146.2200 C   0  0  0  0  0  0  0  0  0  0  0  0
  159.5520  212.7960  147.6410 C   0  0  0  0  0  0  0  0  0  0  0  0
  157.3590  213.4060  148.5770 C   0  0  0  0  0  3  0  0  0  0  0  0
  158.0670  213.3980  145.6460 N   0  0  0  0  0  0  0  0  0  0  0  0
  158.8080  213.7700  148.5190 C   0  0  1  0  0  3  0  0  0  0  0  0
  162.9240  211.9470  147.7290 F   0  0  0  0  0  0  0  0  0  0  0  0
  161.7890  211.6720  148.4230 C   0  0  0  0  0  0  0  0  0  0  0  0
  156.9570  213.7960  146.2010 C   0  0  0  0  0  0  0  0  0  0  0  0
  156.5810  213.4470  147.5420 N   0  0  0  0  0  0  0  0  0  0  0  0
  159.8560  211.9470  145.4530 O   0  0  0  0  0  0  0  0  0  0  0  0
  155.9960  214.4520  145.3840 N   0  0  0  0  0  1  0  0  0  0  0  0
  158.7300  213.6120  150.9780 C   0  0  0  0  0  0  0  0  0  0  0  0
  160.7890  214.4520  150.0390 C   0  0  0  0  0  1  0  0  0  0  0  0
  159.3840  213.9720  149.9020 C   0  0  0  0  0  0  0  0  0  0  0  0
  158.0510  213.2610  152.0330 C   0  0  0  0  0  3  0  0  0  0  0  0
  157.2560  214.2770  152.7750 C   0  0  0  0  0  2  0  0  0  0  0  0
  156.9860  213.7990  154.1990 C   0  0  2  0  0  3  0  0  0  0  0  0
  155.6030  214.2450  154.6600 C   0  0  0  0  0  2  0  0  0  0  0  0
  155.0730  213.3010  155.7230 C   0  0  0  0  0  2  0  0  0  0  0  0
  155.8180  211.9870  155.6480 C   0  0  0  0  0  1  0  0  0  0  0  0
  158.0680  214.2900  155.1570 C   0  0  0  0  0  2  0  0  0  0  0  0
  159.3870  213.8360  154.7410 N   0  0  0  0  0  2  0  0  0  0  0  0
  159.4380  212.4110  155.0170 C   0  0  0  0  0  2  0  0  0  0  0  0
  160.4380  211.7410  154.0860 C   0  0  0  0  0  2  0  0  0  0  0  0
  161.3670  210.8070  154.8590 C   0  0  0  0  0  2  0  0  0  0  0  0
  160.9860  210.6580  156.3360 C   0  0  2  0  0  3  0  0  0  0  0  0
  161.9390  211.4160  157.2470 C   0  0  0  0  0  1  0  0  0  0  0  0
  160.8930  209.2000  156.7650 C   0  0  0  0  0  2  0  0  0  0  0  0
  159.6680  208.5290  156.1600 C   0  0  0  0  0  2  0  0  0  0  0  0
  159.5150  207.2480  156.6950 O   0  0  0  0  0  1  0  0  0  0  0  0
  161.8520  210.7710  149.5820 C   0  0  0  0  0  0  0  0  0  0  0  0
  161.2100  211.0310  150.6370 O   0  0  0  0  0  0  0  0  0  0  0  0
  162.6430  209.5860  149.4950 N   0  0  0  0  0  2  0  0  0  0  0  0
  161.1500  207.1710  149.5560 C   0  0  0  0  0  3  0  0  0  0  0  0
  162.1050  207.5300  150.6280 C   0  0  0  0  0  0  0  0  0  0  0  0
  160.4070  206.0680  149.6430 C   0  0  0  0  0  3  0  0  0  0  0  0
  160.4600  205.1870  150.8630 C   0  0  2  0  0  3  0  0  0  0  0  0
  162.7860  208.6730  150.5860 C   0  0  0  0  0  3  0  0  0  0  0  0
  161.8630  205.1870  151.4670 C   0  0  0  0  0  2  0  0  0  0  0  0
  162.2780  206.6190  151.8140 C   0  0  0  0  0  2  0  0  0  0  0  0
  160.0870  203.8850  150.5230 O   0  0  0  0  0  0  0  0  0  0  0  0
  161.1370  203.3970  149.7430 C   0  0  0  0  0  2  0  0  0  0  0  0
  160.8020  203.5660  148.2760 C   0  0  0  0  0  2  0  0  0  0  0  0
  158.5480  201.6050  146.7220 O   0  0  0  0  0  0  0  0  0  0  0  0
  159.1040  201.3770  145.4510 C   0  0  0  0  0  2  0  0  0  0  0  0
  161.6290  202.5850  147.4380 C   0  0  2  0  0  3  0  0  0  0  0  0
  159.4990  201.1210  147.6330 C   0  0  0  0  0  2  0  0  0  0  0  0
  161.9990  203.1630  146.0830 C   0  0  2  0  0  3  0  0  0  0  0  0
  160.6090  201.4980  145.5580 C   0  0  2  0  0  3  0  0  0  0  0  0
  160.8800  201.3230  147.0270 C   0  0  1  0  0  0  0  0  0  0  0  0
  162.1400  204.5520  146.1110 O   0  0  0  0  0  1  0  0  0  0  0  0
  161.0040  202.7920  145.1680 O   0  0  0  0  0  0  0  0  0  0  0  0
  161.7440  200.0970  147.2660 C   0  0  0  0  0  1  0  0  0  0  0  0
  1  8  2  0  0  0  0
  2  3  1  0  0  0  0
  3  1  2  0  0  0  0
  3  6  1  0  0  0  0
  5  9  2  0  0  0  0
  5  2  1  0  0  0  0
  6  4  1  0  0  0  0
  6 15  1  1  0  0  0
  7  8  1  0  0  0  0
  8 32  1  0  0  0  0
  9 10  1  0  0  0  0
 10  4  2  0  0  0  0
 11  2  2  0  0  0  0
 12  9  1  0  0  0  0
 13 16  2  0  0  0  0
 15 14  1  0  0  0  0
 15 13  2  0  0  0  0
 16 17  1  0  0  0  0
 18 17  1  6  0  0  0
 18 19  1  0  0  0  0
 18 22  1  0  0  0  0
 19 20  1  0  0  0  0
 21 20  1  0  0  0  0
 23 24  1  0  0  0  0
 23 22  1  0  0  0  0
 25 26  1  0  0  0  0
 25 24  1  0  0  0  0
 26 27  1  0  0  0  0
 27 29  1  0  0  0  0
 27 28  1  1  0  0  0
 30 31  1  0  0  0  0
 30 29  1  0  0  0  0
 32 33  2  0  0  0  0
 34 32  1  0  0  0  0
 34 39  1  0  0  0  0
 35 37  2  0  0  0  0
 35 36  1  0  0  0  0
 36 41  1  0  0  0  0
 37 38  1  0  0  0  0
 38 42  1  6  0  0  0
 38 40  1  0  0  0  0
 39 36  2  0  0  0  0
 40 41  1  0  0  0  0
 43 42  1  0  0  0  0
 44 43  1  0  0  0  0
 45 48  1  0  0  0  0
 46 45  1  0  0  0  0
 47 44  1  6  0  0  0
 49 52  1  1  0  0  0
 49 47  1  0  0  0  0
 50 46  1  1  0  0  0
 50 51  1  0  0  0  0
 51 54  1  1  0  0  0
 51 47  1  0  0  0  0
 51 48  1  0  0  0  0
 53 50  1  0  0  0  0
 53 49  1  0  0  0  0
M  END
>  <MODEL>
4

>  <REMARK>
 VINA RESULT:      -3.2      2.347      9.203
  Name = 
  19 active torsions:
  status: ('A' for Active; 'I' for Inactive)
    1  A    between atoms: C_1  and  C_42
    2  A    between atoms: C_1  and  C_44
    3  A    between atoms: C_5  and  N_7
    4  A    between atoms: C_5  and  C_32
    5  A    between atoms: N_7  and  C_54
    6  A    between atoms: C_8  and  C_25
    7  A    between atoms: C_9  and  C_39
    8  A    between atoms: C_10  and  C_19
    9  A    between atoms: C_13  and  C_43
   10  A    between atoms: C_18  and  C_39
   11  A    between atoms: C_18  and  C_51
   12  A    between atoms: C_25  and  C_42
   13  A    between atoms: O_28  and  C_33
   14  A    between atoms: O_28  and  C_45
   15  A    between atoms: C_30  and  C_37
   16  A    between atoms: C_32  and  C_51
   17  A    between atoms: C_34  and  N_40
   18  A    between atoms: C_37  and  C_45
   19  A    between atoms: C_42  and  C_54
                            x       y       z     vdW  Elec       q    Type
                         _______ _______ _______ _____ _____    ______ ____

>  <TORSDO>
F 19

$$$$
=
 OpenBabel11042422063D

 54 57  0  0  1  0  0  0  0  0999 V2000
  159.4300  213.1940  147.8360 C   0  0  0  0  0  0  0  0  0  0  0  0
  160.2040  213.7590  145.6300 C   0  0  0  0  0  0  0  0  0  0  0  0
  160.4030  213.1320  146.9550 C   0  0  0  0  0  0  0  0  0  0  0  0
  162.8610  213.0040  146.9420 C   0  0  0  0  0  3  0  0  0  0  0  0
  161.1280  213.5900  144.5450 N   0  0  0  0  0  0  0  0  0  0  0  0
  161.5970  212.2370  147.1700 C   0  0  1  0  0  3  0  0  0  0  0  0
  157.2090  212.8310  148.2990 F   0  0  0  0  0  0  0  0  0  0  0  0
  158.4400  213.2450  148.6920 C   0  0  0  0  0  0  0  0  0  0  0  0
  162.4200  213.4210  144.5770 C   0  0  0  0  0  0  0  0  0  0  0  0
  163.1900  213.4910  145.7870 N   0  0  0  0  0  0  0  0  0  0  0  0
  159.1450  214.4070  145.4080 O   0  0  0  0  0  0  0  0  0  0  0  0
  163.1190  213.3460  143.3420 N   0  0  0  0  0  1  0  0  0  0  0  0
  162.0080  210.2460  148.5640 C   0  0  0  0  0  0  0  0  0  0  0  0
  161.3640  212.2490  149.7470 C   0  0  0  0  0  1  0  0  0  0  0  0
  161.6280  211.4970  148.4880 C   0  0  0  0  0  0  0  0  0  0  0  0
  162.3740  208.9960  148.6100 C   0  0  0  0  0  3  0  0  0  0  0  0
  161.3430  207.9220  148.6170 C   0  0  0  0  0  2  0  0  0  0  0  0
  161.8210  206.7280  147.7970 C   0  0  2  0  0  3  0  0  0  0  0  0
  160.6930  206.1960  146.9190 C   0  0  0  0  0  2  0  0  0  0  0  0
  161.2400  205.2190  145.8950 C   0  0  0  0  0  2  0  0  0  0  0  0
  161.5750  205.9590  144.6190 C   0  0  0  0  0  1  0  0  0  0  0  0
  162.3770  205.6290  148.6990 C   0  0  0  0  0  2  0  0  0  0  0  0
  161.6710  204.3730  148.4980 N   0  0  0  0  0  2  0  0  0  0  0  0
  160.6330  204.3170  149.5120 C   0  0  0  0  0  2  0  0  0  0  0  0
  160.9990  203.2860  150.5690 C   0  0  0  0  0  2  0  0  0  0  0  0
  160.7870  203.8420  151.9760 C   0  0  0  0  0  2  0  0  0  0  0  0
  161.4030  205.2320  152.1780 C   0  0  2  0  0  3  0  0  0  0  0  0
  161.7170  205.5050  153.6400 C   0  0  0  0  0  1  0  0  0  0  0  0
  160.5290  206.3410  151.6080 C   0  0  0  0  0  2  0  0  0  0  0  0
  161.1140  207.7120  151.9150 C   0  0  0  0  0  2  0  0  0  0  0  0
  162.4990  207.6870  151.7380 O   0  0  0  0  0  1  0  0  0  0  0  0
  158.6350  213.7300  150.0660 C   0  0  0  0  0  0  0  0  0  0  0  0
  159.7960  213.9060  150.5290 O   0  0  0  0  0  0  0  0  0  0  0  0
  157.4890  214.0110  150.8700 N   0  0  0  0  0  2  0  0  0  0  0  0
  157.1550  212.1760  153.0100 C   0  0  0  0  0  3  0  0  0  0  0  0
  157.4460  213.6070  153.2440 C   0  0  0  0  0  0  0  0  0  0  0  0
  156.9290  211.3480  154.0310 C   0  0  0  0  0  3  0  0  0  0  0  0
  156.8930  211.8530  155.4490 C   0  0  2  0  0  3  0  0  0  0  0  0
  157.5880  214.4530  152.2250 C   0  0  0  0  0  3  0  0  0  0  0  0
  157.8720  213.0110  155.6340 C   0  0  0  0  0  2  0  0  0  0  0  0
  157.5360  214.1350  154.6500 C   0  0  0  0  0  2  0  0  0  0  0  0
  157.2110  210.8160  156.3290 O   0  0  0  0  0  0  0  0  0  0  0  0
  158.1130  211.3720  157.2380 C   0  0  0  0  0  2  0  0  0  0  0  0
  159.3860  210.5510  157.2560 C   0  0  0  0  0  2  0  0  0  0  0  0
  162.4800  211.5010  156.3220 O   0  0  0  0  0  0  0  0  0  0  0  0
  163.0020  210.3770  155.6600 C   0  0  0  0  0  2  0  0  0  0  0  0
  159.6090  209.9090  155.8830 C   0  0  2  0  0  3  0  0  0  0  0  0
  161.3170  211.8390  155.6130 C   0  0  0  0  0  2  0  0  0  0  0  0
  160.1250  208.4840  155.9960 C   0  0  2  0  0  3  0  0  0  0  0  0
  161.8500  209.5760  155.0940 C   0  0  2  0  0  3  0  0  0  0  0  0
  160.7120  210.5590  155.0560 C   0  0  1  0  0  0  0  0  0  0  0  0
  159.6740  207.8390  157.1490 O   0  0  0  0  0  1  0  0  0  0  0  0
  161.5270  208.5290  155.9780 O   0  0  0  0  0  0  0  0  0  0  0  0
  160.2420  210.7750  153.6290 C   0  0  0  0  0  1  0  0  0  0  0  0
  1  8  2  0  0  0  0
  2  3  1  0  0  0  0
  3  6  1  0  0  0  0
  3  1  2  0  0  0  0
  4  6  1  0  0  0  0
  5  9  2  0  0  0  0
  5  2  1  0  0  0  0
  6 15  1  1  0  0  0
  7  8  1  0  0  0  0
  8 32  1  0  0  0  0
  9 10  1  0  0  0  0
 10  4  2  0  0  0  0
 11  2  2  0  0  0  0
 12  9  1  0  0  0  0
 13 16  2  0  0  0  0
 15 13  2  0  0  0  0
 15 14  1  0  0  0  0
 16 17  1  0  0  0  0
 18 19  1  1  0  0  0
 18 17  1  0  0  0  0
 18 22  1  0  0  0  0
 20 19  1  0  0  0  0
 21 20  1  0  0  0  0
 23 22  1  0  0  0  0
 23 24  1  0  0  0  0
 24 25  1  0  0  0  0
 25 26  1  0  0  0  0
 26 27  1  0  0  0  0
 27 28  1  1  0  0  0
 29 30  1  0  0  0  0
 29 27  1  0  0  0  0
 31 30  1  0  0  0  0
 32 33  2  0  0  0  0
 32 34  1  0  0  0  0
 34 39  1  0  0  0  0
 35 36  1  0  0  0  0
 35 37  2  0  0  0  0
 36 41  1  0  0  0  0
 37 38  1  0  0  0  0
 38 40  1  0  0  0  0
 38 42  1  1  0  0  0
 39 36  2  0  0  0  0
 41 40  1  0  0  0  0
 42 43  1  0  0  0  0
 43 44  1  0  0  0  0
 46 45  1  0  0  0  0
 47 49  1  0  0  0  0
 47 44  1  1  0  0  0
 48 45  1  0  0  0  0
 49 52  1  1  0  0  0
 50 46  1  1  0  0  0
 50 53  1  0  0  0  0
 51 54  1  6  0  0  0
 51 50  1  0  0  0  0
 51 48  1  0  0  0  0
 51 47  1  0  0  0  0
 53 49  1  0  0  0  0
M  END
>  <MODEL>
5

>  <REMARK>
 VINA RESULT:      -3.2      1.558      2.173
  Name = 
  19 active torsions:
  status: ('A' for Active; 'I' for Inactive)
    1  A    between atoms: C_1  and  C_42
    2  A    between atoms: C_1  and  C_44
    3  A    between atoms: C_5  and  N_7
    4  A    between atoms: C_5  and  C_32
    5  A    between atoms: N_7  and  C_54
    6  A    between atoms: C_8  and  C_25
    7  A    between atoms: C_9  and  C_39
    8  A    between atoms: C_10  and  C_19
    9  A    between atoms: C_13  and  C_43
   10  A    between atoms: C_18  and  C_39
   11  A    between atoms: C_18  and  C_51
   12  A    between atoms: C_25  and  C_42
   13  A    between atoms: O_28  and  C_33
   14  A    between atoms: O_28  and  C_45
   15  A    between atoms: C_30  and  C_37
   16  A    between atoms: C_32  and  C_51
   17  A    between atoms: C_34  and  N_40
   18  A    between atoms: C_37  and  C_45
   19  A    between atoms: C_42  and  C_54
                            x       y       z     vdW  Elec       q    Type
                         _______ _______ _______ _____ _____    ______ ____

>  <TORSDO>
F 19

$$$$
=
 OpenBabel11042422063D

 54 57  0  0  1  0  0  0  0  0999 V2000
  161.6260  203.9340  148.3520 C   0  0  0  0  0  0  0  0  0  0  0  0
  161.1810  203.5980  146.0120 C   0  0  0  0  0  0  0  0  0  0  0  0
  161.5180  204.4720  147.1570 C   0  0  0  0  0  0  0  0  0  0  0  0
  160.8930  206.6380  146.1710 C   0  0  0  0  0  3  0  0  0  0  0  0
  161.2170  204.0540  144.6520 N   0  0  0  0  0  0  0  0  0  0  0  0
  161.9660  205.8870  146.8920 C   0  0  1  0  0  3  0  0  0  0  0  0
  162.5760  202.3050  149.6650 F   0  0  0  0  0  0  0  0  0  0  0  0
  161.7540  203.3770  149.5300 C   0  0  0  0  0  0  0  0  0  0  0  0
  160.9780  205.2410  144.1700 C   0  0  0  0  0  0  0  0  0  0  0  0
  160.5020  206.3320  144.9740 N   0  0  0  0  0  0  0  0  0  0  0  0
  160.9250  202.3810  146.2210 O   0  0  0  0  0  0  0  0  0  0  0  0
  161.0170  205.4140  142.7600 N   0  0  0  0  0  1  0  0  0  0  0  0
  162.0340  207.8590  148.3700 C   0  0  0  0  0  0  0  0  0  0  0  0
  163.3400  205.9580  149.0840 C   0  0  0  0  0  1  0  0  0  0  0  0
  162.4610  206.6510  148.1000 C   0  0  0  0  0  0  0  0  0  0  0  0
  161.6060  209.0660  148.6080 C   0  0  0  0  0  3  0  0  0  0  0  0
  162.4150  210.2380  148.1750 C   0  0  0  0  0  2  0  0  0  0  0  0
  162.3120  211.3600  149.2040 C   0  0  2  0  0  3  0  0  0  0  0  0
  161.2100  211.0600  150.2150 C   0  0  0  0  0  2  0  0  0  0  0  0
  160.1400  212.1340  150.1600 C   0  0  0  0  0  2  0  0  0  0  0  0
  160.0960  212.8710  151.4790 C   0  0  0  0  0  1  0  0  0  0  0  0
  162.0830  212.7080  148.5260 C   0  0  0  0  0  2  0  0  0  0  0  0
  162.9640  212.8790  147.3810 N   0  0  0  0  0  2  0  0  0  0  0  0
  162.7500  214.2310  146.8950 C   0  0  0  0  0  2  0  0  0  0  0  0
  161.3270  214.3730  146.3750 C   0  0  0  0  0  2  0  0  0  0  0  0
  161.2610  214.0950  144.8740 C   0  0  0  0  0  2  0  0  0  0  0  0
  160.0490  213.2480  144.4670 C   0  0  2  0  0  3  0  0  0  0  0  0
  159.9560  211.9650  145.2790 C   0  0  0  0  0  1  0  0  0  0  0  0
  160.0380  212.9330  142.9770 C   0  0  0  0  0  2  0  0  0  0  0  0
  161.0800  211.8780  142.6330 C   0  0  0  0  0  2  0  0  0  0  0  0
  161.6530  212.1620  141.3920 O   0  0  0  0  0  1  0  0  0  0  0  0
  161.0380  203.8910  150.7070 C   0  0  0  0  0  0  0  0  0  0  0  0
  159.7760  203.9080  150.7370 O   0  0  0  0  0  0  0  0  0  0  0  0
  161.7910  204.3630  151.8240 N   0  0  0  0  0  2  0  0  0  0  0  0
  161.6770  207.1730  152.2110 C   0  0  0  0  0  3  0  0  0  0  0  0
  161.1030  206.2240  153.1890 C   0  0  0  0  0  0  0  0  0  0  0  0
  161.6770  208.4850  152.4490 C   0  0  0  0  0  3  0  0  0  0  0  0
  161.1570  209.0400  153.7480 C   0  0  2  0  0  3  0  0  0  0  0  0
  161.1770  204.9090  152.9930 C   0  0  0  0  0  3  0  0  0  0  0  0
  160.0020  208.1880  154.2750 C   0  0  0  0  0  2  0  0  0  0  0  0
  160.4660  206.7390  154.4500 C   0  0  0  0  0  2  0  0  0  0  0  0
  160.7320  210.3570  153.5640 O   0  0  0  0  0  0  0  0  0  0  0  0
  160.7790  210.9370  154.8330 C   0  0  0  0  0  2  0  0  0  0  0  0
  159.3700  211.2150  155.3170 C   0  0  0  0  0  2  0  0  0  0  0  0
  156.0710  211.3850  155.9710 O   0  0  0  0  0  0  0  0  0  0  0  0
  155.8770  212.6980  156.4320 C   0  0  0  0  0  2  0  0  0  0  0  0
  158.9490  212.6280  154.9040 C   0  0  2  0  0  3  0  0  0  0  0  0
  156.6150  211.5240  154.6850 C   0  0  0  0  0  2  0  0  0  0  0  0
  159.1790  213.6400  156.0140 C   0  0  2  0  0  3  0  0  0  0  0  0
  156.9550  213.5790  155.8400 C   0  0  2  0  0  3  0  0  0  0  0  0
  157.4540  212.7920  154.6590 C   0  0  1  0  0  0  0  0  0  0  0  0
  160.2590  213.3030  156.8330 O   0  0  0  0  0  1  0  0  0  0  0  0
  158.0020  213.7280  156.7700 O   0  0  0  0  0  0  0  0  0  0  0  0
  157.2130  213.5580  153.3700 C   0  0  0  0  0  1  0  0  0  0  0  0
  1  8  2  0  0  0  0
  2 11  2  0  0  0  0
  2  3  1  0  0  0  0
  3  1  2  0  0  0  0
  4  6  1  0  0  0  0
  5  2  1  0  0  0  0
  6  3  1  0  0  0  0
  6 15  1  1  0  0  0
  8  7  1  0  0  0  0
  8 32  1  0  0  0  0
  9  5  2  0  0  0  0
  9 10  1  0  0  0  0
 10  4  2  0  0  0  0
 12  9  1  0  0  0  0
 13 16  2  0  0  0  0
 15 13  2  0  0  0  0
 15 14  1  0  0  0  0
 17 16  1  0  0  0  0
 18 17  1  6  0  0  0
 18 19  1  0  0  0  0
 20 19  1  0  0  0  0
 20 21  1  0  0  0  0
 22 18  1  0  0  0  0
 23 22  1  0  0  0  0
 24 23  1  0  0  0  0
 25 24  1  0  0  0  0
 26 25  1  0  0  0  0
 27 26  1  0  0  0  0
 27 28  1  1  0  0  0
 29 27  1  0  0  0  0
 30 29  1  0  0  0  0
 31 30  1  0  0  0  0
 32 33  2  0  0  0  0
 32 34  1  0  0  0  0
 34 39  1  0  0  0  0
 35 37  2  0  0  0  0
 35 36  1  0  0  0  0
 36 41  1  0  0  0  0
 37 38  1  0  0  0  0
 38 42  1  6  0  0  0
 38 40  1  0  0  0  0
 39 36  2  0  0  0  0
 40 41  1  0  0  0  0
 42 43  1  0  0  0  0
 43 44  1  0  0  0  0
 45 46  1  0  0  0  0
 47 44  1  1  0  0  0
 47 49  1  0  0  0  0
 48 45  1  0  0  0  0
 49 53  1  0  0  0  0
 49 52  1  1  0  0  0
 50 46  1  1  0  0  0
 50 53  1  0  0  0  0
 51 54  1  6  0  0  0
 51 48  1  0  0  0  0
 51 47  1  0  0  0  0
 51 50  1  0  0  0  0
M  END
>  <MODEL>
6

>  <REMARK>
 VINA RESULT:      -2.9      3.005      8.257
  Name = 
  19 active torsions:
  status: ('A' for Active; 'I' for Inactive)
    1  A    between atoms: C_1  and  C_42
    2  A    between atoms: C_1  and  C_44
    3  A    between atoms: C_5  and  N_7
    4  A    between atoms: C_5  and  C_32
    5  A    between atoms: N_7  and  C_54
    6  A    between atoms: C_8  and  C_25
    7  A    between atoms: C_9  and  C_39
    8  A    between atoms: C_10  and  C_19
    9  A    between atoms: C_13  and  C_43
   10  A    between atoms: C_18  and  C_39
   11  A    between atoms: C_18  and  C_51
   12  A    between atoms: C_25  and  C_42
   13  A    between atoms: O_28  and  C_33
   14  A    between atoms: O_28  and  C_45
   15  A    between atoms: C_30  and  C_37
   16  A    between atoms: C_32  and  C_51
   17  A    between atoms: C_34  and  N_40
   18  A    between atoms: C_37  and  C_45
   19  A    between atoms: C_42  and  C_54
                            x       y       z     vdW  Elec       q    Type
                         _______ _______ _______ _____ _____    ______ ____

>  <TORSDO>
F 19

$$$$
