=
 OpenBabel11042421443D

 47 51  0  0  1  0  0  0  0  0999 V2000
  161.3290  201.0480  148.1950 C   0  0  0  0  0  3  0  0  0  0  0  0
  160.5380  205.7700  148.5870 C   0  0  1  0  0  3  0  0  0  0  0  0
  161.4190  207.3150  150.3550 C   0  0  0  0  0  0  0  0  0  0  0  0
  161.1890  206.3790  151.5320 C   0  0  2  0  0  3  0  0  0  0  0  0
  161.7030  206.8920  152.8940 C   0  0  2  0  0  3  0  0  0  0  0  0
  160.9760  203.0980  150.0800 C   0  0  0  0  0  0  0  0  0  0  0  0
  160.1110  208.1370  154.4730 C   0  0  2  0  0  3  0  0  0  0  0  0
  160.5760  210.3710  152.7870 O   0  0  0  0  0  0  0  0  0  0  0  0
  159.9960  206.7480  155.1020 C   0  0  0  0  0  2  0  0  0  0  0  0
  161.2990  209.3520  152.6030 C   0  0  0  0  0  0  0  0  0  0  0  0
  161.5750  205.8970  153.8900 O   0  0  0  0  0  0  0  0  0  0  0  0
  162.3910  209.3730  151.5730 C   0  0  1  0  0  3  0  0  0  0  0  0
  161.6750  204.8060  148.2970 C   0  0  0  0  0  2  0  0  0  0  0  0
  161.0820  207.0340  149.0770 N   0  0  0  0  0  0  0  0  0  0  0  0
  160.7620  201.7610  150.4340 C   0  0  0  0  0  3  0  0  0  0  0  0
  161.4040  208.0510  148.2920 N   0  0  0  0  0  0  0  0  0  0  0  0
  161.0310  208.1350  153.3200 N   0  0  0  0  0  0  0  0  0  0  0  0
  160.2790  205.7720  154.1390 O   0  0  0  0  0  0  0  0  0  0  0  0
  161.9230  209.0360  149.0530 C   0  0  0  0  0  3  0  0  0  0  0  0
  160.9420  200.7390  149.4990 C   0  0  0  0  0  3  0  0  0  0  0  0
  161.7830  205.0780  151.2510 N   0  0  0  0  0  2  0  0  0  0  0  0
  160.6810  204.1400  151.1160 C   0  0  0  0  0  2  0  0  0  0  0  0
  161.3540  203.4130  148.7490 C   0  0  0  0  0  0  0  0  0  0  0  0
  161.5370  202.3780  147.8250 C   0  0  0  0  0  3  0  0  0  0  0  0
  161.9380  208.6020  150.3700 C   0  0  0  0  0  0  0  0  0  0  0  0
  160.5680  209.1020  155.5200 C   0  0  0  0  0  0  0  0  0  0  0  0
  159.9430  210.3840  155.6310 N   0  0  0  0  0  2  0  0  0  0  0  0
  161.5140  208.7830  156.2880 O   0  0  0  0  0  0  0  0  0  0  0  0
  160.2290  211.3140  156.7170 C   0  0  2  0  0  3  0  0  0  0  0  0
  159.6690  213.6190  157.1870 O   0  0  0  0  0  1  0  0  0  0  0  0
  159.1310  212.3830  156.8150 C   0  0  1  0  0  3  0  0  0  0  0  0
  158.3240  212.5110  155.5130 C   0  0  2  0  0  3  0  0  0  0  0  0
  159.0370  213.4860  153.4200 O   0  0  0  0  0  1  0  0  0  0  0  0
  158.6400  213.7840  154.7250 C   0  0  0  0  0  2  0  0  0  0  0  0
  156.8240  212.3680  155.7560 C   0  0  0  0  0  2  0  0  0  0  0  0
  155.5290  210.2350  155.6890 C   0  0  0  0  0  1  0  0  0  0  0  0
  156.2150  211.3020  154.8590 C   0  0  0  0  0  2  0  0  0  0  0  0
  161.6010  211.9440  156.4940 C   0  0  0  0  0  2  0  0  0  0  0  0
  162.5860  211.2470  157.1970 O   0  0  0  0  0  1  0  0  0  0  0  0
  161.9550  211.4140  150.1960 C   0  0  0  0  0  1  0  0  0  0  0  0
  162.8670  210.7840  151.2340 C   0  0  0  0  0  2  0  0  0  0  0  0
  159.7390  205.9790  147.3890 N   0  0  0  0  0  2  0  0  0  0  0  0
  160.6660  206.3090  146.3220 C   0  0  0  0  0  2  0  0  0  0  0  0
  160.2230  205.6300  145.0420 C   0  0  0  0  0  2  0  0  0  0  0  0
  160.9650  204.3530  144.8680 C   0  0  0  0  0  0  0  0  0  0  0  0
  160.3510  203.3110  144.5200 O   0  0  0  0  0  0  0  0  0  0  0  0
  162.3410  204.3150  145.0580 O   0  0  0  0  0  1  0  0  0  0  0  0
  1 20  1  0  0  0  0
  2 42  1  6  0  0  0
  2 14  1  0  0  0  0
  3 25  2  0  0  0  0
  4  3  1  6  0  0  0
  4  5  1  0  0  0  0
  5 17  1  0  0  0  0
  5 11  1  1  0  0  0
  6 15  1  0  0  0  0
  6 22  1  0  0  0  0
  7  9  1  0  0  0  0
  7 26  1  1  0  0  0
 10  8  2  0  0  0  0
 10 17  1  0  0  0  0
 11 18  1  0  0  0  0
 12 41  1  6  0  0  0
 12 10  1  0  0  0  0
 13  2  1  0  0  0  0
 13 23  1  0  0  0  0
 14  3  1  0  0  0  0
 16 19  2  0  0  0  0
 16 14  1  0  0  0  0
 17  7  1  0  0  0  0
 18  9  1  0  0  0  0
 19 25  1  0  0  0  0
 20 15  2  0  0  0  0
 21  4  1  0  0  0  0
 22 21  1  0  0  0  0
 23  6  2  0  0  0  0
 24  1  2  0  0  0  0
 24 23  1  0  0  0  0
 25 12  1  0  0  0  0
 26 27  1  0  0  0  0
 26 28  2  0  0  0  0
 27 29  1  0  0  0  0
 29 38  1  6  0  0  0
 29 31  1  0  0  0  0
 31 30  1  6  0  0  0
 32 34  1  1  0  0  0
 32 35  1  0  0  0  0
 32 31  1  0  0  0  0
 33 34  1  0  0  0  0
 37 36  1  0  0  0  0
 37 35  1  0  0  0  0
 38 39  1  0  0  0  0
 40 41  1  0  0  0  0
 43 42  1  0  0  0  0
 44 43  1  0  0  0  0
 45 44  1  0  0  0  0
 45 47  1  0  0  0  0
 46 45  2  0  0  0  0
M  END
>  <MODEL>
1

>  <REMARK>
 VINA RESULT:      -6.8      0.000      0.000
  Name = 
  13 active torsions:
  status: ('A' for Active; 'I' for Inactive)
    1  A    between atoms: C_2  and  N_17
    2  A    between atoms: C_6  and  C_39
    3  A    between atoms: CA_12  and  C_31
    4  A    between atoms: CA_12  and  N_34
    5  A    between atoms: CA_12  and  C_35
    6  A    between atoms: C_14  and  C_22
    7  A    between atoms: C_15  and  C_29
    8  A    between atoms: C_16  and  C_27
    9  A    between atoms: N_17  and  C_26
   10  A    between atoms: C_23  and  C_40
   11  A    between atoms: C_26  and  C_39
   12  A    between atoms: C_27  and  C_31
   13  A    between atoms: C_27  and  C_40
                            x       y       z     vdW  Elec       q    Type
                         _______ _______ _______ _____ _____    ______ ____

>  <TORSDO>
F 13

$$$$
