=
 OpenBabel11052409343D

 44 50  0  0  1  0  0  0  0  0999 V2000
  161.3460  212.1800  149.5730 C   0  0  0  0  0  0  0  0  0  0  0  0
  159.9400  210.4960  156.0060 C   0  0  0  0  0  0  0  0  0  0  0  0
  161.6420  209.9670  151.8880 C   0  0  0  0  0  0  0  0  0  0  0  0
  162.3180  211.1860  149.6750 C   0  0  0  0  0  3  0  0  0  0  0  0
  161.5090  208.8610  152.6200 N   0  0  0  0  0  0  0  0  0  0  0  0
  160.9830  208.5120  155.0170 C   0  0  0  0  0  3  0  0  0  0  0  0
  161.1240  209.2910  153.7940 C   0  0  0  0  0  0  0  0  0  0  0  0
  160.9010  210.9050  152.4690 C   0  0  0  0  0  0  0  0  0  0  0  0
  160.0280  211.2510  154.7700 C   0  0  0  0  0  3  0  0  0  0  0  0
  160.1340  212.4940  150.6030 C   0  0  0  0  0  2  0  0  0  0  0  0
  160.6550  210.5870  153.7100 C   0  0  0  0  0  0  0  0  0  0  0  0
  162.3390  210.0060  150.8210 C   0  0  0  0  0  3  0  0  0  0  0  0
  160.4290  209.1410  156.1030 C   0  0  0  0  0  3  0  0  0  0  0  0
  160.1320  211.8170  151.9870 C   0  0  0  0  0  3  0  0  0  0  0  0
  157.7440  212.9560  157.2580 O   0  0  0  0  0  0  0  0  0  0  0  0
  160.0940  213.3790  157.0810 N   0  0  0  0  0  1  0  0  0  0  0  0
  158.9460  212.4870  157.2360 C   0  0  0  0  0  0  0  0  0  0  0  0
  159.2240  211.0370  157.1530 N   0  0  0  0  0  2  0  0  0  0  0  0
  161.1230  212.9370  148.3840 C   0  0  0  0  0  0  0  0  0  0  0  0
  161.2120  214.2110  148.4010 O   0  0  0  0  0  0  0  0  0  0  0  0
  160.6880  212.1470  147.2000 N   0  0  0  0  0  2  0  0  0  0  0  0
  160.8360  212.8330  143.0460 C   0  0  0  0  0  3  0  0  0  0  0  0
  162.0020  212.9970  143.7770 C   0  0  0  0  0  3  0  0  0  0  0  0
  163.0670  213.1980  145.9080 F   0  0  0  0  0  0  0  0  0  0  0  0
  161.9460  213.0290  145.1620 C   0  0  0  0  0  0  0  0  0  0  0  0
  160.7740  212.5370  145.7950 C   0  0  0  0  0  0  0  0  0  0  0  0
  159.6340  212.2830  145.0380 C   0  0  0  0  0  3  0  0  0  0  0  0
  159.7100  212.2450  143.6620 C   0  0  0  0  0  3  0  0  0  0  0  0
  160.8510  207.6820  152.1860 C   0  0  0  0  0  2  0  0  0  0  0  0
  161.1500  206.4770  152.9540 C   0  0  0  0  0  2  0  0  0  0  0  0
  161.5970  205.3010  152.1340 N   0  0  0  0  0  2  0  0  0  0  0  0
  160.9210  203.9630  152.2820 C   0  0  0  0  0  2  0  0  0  0  0  0
  160.5560  201.9630  150.5210 C   0  0  0  0  0  3  0  0  0  0  0  0
  161.8310  204.6880  147.3090 C   0  0  0  0  0  2  0  0  0  0  0  0
  160.6670  201.5990  149.1340 C   0  0  0  0  0  3  0  0  0  0  0  0
  161.2640  203.9200  148.5280 C   0  0  0  0  0  0  0  0  0  0  0  0
  161.2910  204.3500  149.7960 C   0  0  0  0  0  3  0  0  0  0  0  0
  161.3120  202.5110  146.7670 C   0  0  0  0  0  2  0  0  0  0  0  0
  161.2660  203.8490  146.2640 N   0  0  2  0  0  0  0  0  0  0  0  0
  161.0190  202.6160  148.1990 C   0  0  0  0  0  0  0  0  0  0  0  0
  160.9050  203.3930  150.8520 C   0  0  0  0  0  0  0  0  0  0  0  0
  162.3420  205.5650  145.0490 C   0  0  0  0  0  2  0  0  0  0  0  0
  161.9490  204.1870  145.0120 C   0  0  0  0  0  3  0  0  0  0  0  0
  161.0430  205.3990  144.3360 C   0  0  0  0  0  2  0  0  0  0  0  0
  1  4  2  0  0  0  0
  1 10  1  0  0  0  0
  2 13  1  0  0  0  0
  2 18  1  0  0  0  0
  3  8  1  0  0  0  0
  3  5  1  0  0  0  0
  4 12  1  0  0  0  0
  5  7  1  0  0  0  0
  6 13  2  0  0  0  0
  7  6  1  0  0  0  0
  8 11  1  0  0  0  0
  9  2  2  0  0  0  0
 10 14  1  0  0  0  0
 11  7  2  0  0  0  0
 11  9  1  0  0  0  0
 12  3  2  0  0  0  0
 14  8  2  0  0  0  0
 16 17  1  0  0  0  0
 17 15  2  0  0  0  0
 18 17  1  0  0  0  0
 19 20  2  0  0  0  0
 19  1  1  0  0  0  0
 21 19  1  0  0  0  0
 22 28  2  0  0  0  0
 22 23  1  0  0  0  0
 23 25  2  0  0  0  0
 25 26  1  0  0  0  0
 25 24  1  0  0  0  0
 26 21  1  0  0  0  0
 27 26  2  0  0  0  0
 28 27  1  0  0  0  0
 29  5  1  0  0  0  0
 29 30  1  0  0  0  0
 31 32  1  0  0  0  0
 31 30  1  0  0  0  0
 33 41  1  0  0  0  0
 34 36  1  0  0  0  0
 35 33  2  0  0  0  0
 36 37  1  0  0  0  0
 37 41  2  0  0  0  0
 38 40  1  0  0  0  0
 39 43  1  6  0  0  0
 39 38  1  0  0  0  0
 39 34  1  0  0  0  0
 40 36  2  0  0  0  0
 40 35  1  0  0  0  0
 41 32  1  0  0  0  0
 43 42  1  0  0  0  0
 44 43  1  0  0  0  0
 44 42  1  0  0  0  0
M  END
>  <MODEL>
1

>  <REMARK>
 VINA RESULT:      -9.6      0.000      0.000
  Name = 
  9 active torsions:
  status: ('A' for Active; 'I' for Inactive)
    1  A    between atoms: C_1  and  C_7
    2  A    between atoms: C_2  and  N_44
    3  A    between atoms: C_10  and  N_35
    4  A    between atoms: N_11  and  C_43
    5  A    between atoms: N_19  and  C_24
    6  A    between atoms: N_19  and  C_26
    7  A    between atoms: C_24  and  C_37
    8  A    between atoms: C_25  and  N_42
    9  A    between atoms: C_26  and  C_43
                            x       y       z     vdW  Elec       q    Type
                         _______ _______ _______ _____ _____    ______ ____

>  <TORSDO>
F 9

$$$$
=
 OpenBabel11052409343D

 44 50  0  0  1  0  0  0  0  0999 V2000
  160.8240  204.4610  149.9770 C   0  0  0  0  0  0  0  0  0  0  0  0
  161.2580  209.4750  154.5460 C   0  0  0  0  0  0  0  0  0  0  0  0
  160.8960  207.6390  150.4670 C   0  0  0  0  0  0  0  0  0  0  0  0
  160.3240  205.4590  149.1410 C   0  0  0  0  0  3  0  0  0  0  0  0
  161.2800  208.9160  150.5090 N   0  0  0  0  0  0  0  0  0  0  0  0
  161.3340  210.5700  152.3550 C   0  0  0  0  0  3  0  0  0  0  0  0
  161.1850  209.2420  151.7730 C   0  0  0  0  0  0  0  0  0  0  0  0
  161.0550  207.1490  151.6920 C   0  0  0  0  0  0  0  0  0  0  0  0
  161.1680  208.1500  153.9630 C   0  0  0  0  0  3  0  0  0  0  0  0
  161.5430  204.6420  151.4190 C   0  0  0  0  0  2  0  0  0  0  0  0
  161.1140  208.1140  152.5660 C   0  0  0  0  0  0  0  0  0  0  0  0
  160.5050  207.0740  149.3930 C   0  0  0  0  0  3  0  0  0  0  0  0
  161.3320  210.6600  153.7240 C   0  0  0  0  0  3  0  0  0  0  0  0
  161.4920  206.0150  152.1150 C   0  0  0  0  0  3  0  0  0  0  0  0
  161.7660  211.6800  157.2510 O   0  0  0  0  0  0  0  0  0  0  0  0
  163.6160  210.8360  155.9880 N   0  0  0  0  0  1  0  0  0  0  0  0
  162.2540  210.7420  156.5120 C   0  0  0  0  0  0  0  0  0  0  0  0
  161.4200  209.6420  155.9830 N   0  0  0  0  0  2  0  0  0  0  0  0
  160.9980  203.1070  149.5610 C   0  0  0  0  0  0  0  0  0  0  0  0
  161.0400  202.1660  150.4230 O   0  0  0  0  0  0  0  0  0  0  0  0
  161.2280  202.9150  148.1030 N   0  0  0  0  0  2  0  0  0  0  0  0
  161.1360  199.3190  145.9100 C   0  0  0  0  0  3  0  0  0  0  0  0
  160.7660  200.4880  145.2640 C   0  0  0  0  0  3  0  0  0  0  0  0
  160.1670  202.7990  145.4020 F   0  0  0  0  0  0  0  0  0  0  0  0
  160.5410  201.6400  146.0030 C   0  0  0  0  0  0  0  0  0  0  0  0
  161.0380  201.6900  147.3320 C   0  0  0  0  0  0  0  0  0  0  0  0
  161.4980  200.5270  147.9420 C   0  0  0  0  0  3  0  0  0  0  0  0
  161.7260  199.3940  147.1900 C   0  0  0  0  0  3  0  0  0  0  0  0
  162.4280  209.4330  149.8580 C   0  0  0  0  0  2  0  0  0  0  0  0
  162.1660  210.2190  148.6560 C   0  0  0  0  0  2  0  0  0  0  0  0
  162.6770  211.6310  148.7030 N   0  0  0  0  0  2  0  0  0  0  0  0
  161.7250  212.7930  148.5900 C   0  0  0  0  0  2  0  0  0  0  0  0
  159.8220  212.3540  146.7400 C   0  0  0  0  0  3  0  0  0  0  0  0
  162.8240  213.1060  143.6120 C   0  0  0  0  0  2  0  0  0  0  0  0
  159.5690  212.2780  145.3270 C   0  0  0  0  0  3  0  0  0  0  0  0
  161.8720  213.0250  144.8300 C   0  0  0  0  0  0  0  0  0  0  0  0
  162.2520  213.0340  146.1140 C   0  0  0  0  0  3  0  0  0  0  0  0
  160.6870  212.5320  142.9750 C   0  0  0  0  0  2  0  0  0  0  0  0
  161.8170  213.3170  142.5850 N   0  0  2  0  0  0  0  0  0  0  0  0
  160.6250  212.6260  144.4350 C   0  0  0  0  0  0  0  0  0  0  0  0
  161.2300  212.7280  147.1340 C   0  0  0  0  0  0  0  0  0  0  0  0
  163.1660  214.2730  140.8980 C   0  0  0  0  0  2  0  0  0  0  0  0
  162.4580  213.0880  141.2860 C   0  0  0  0  0  3  0  0  0  0  0  0
  161.8130  214.2310  140.2750 C   0  0  0  0  0  2  0  0  0  0  0  0
  1 10  1  0  0  0  0
  2 18  1  0  0  0  0
  3  5  1  0  0  0  0
  3  8  1  0  0  0  0
  4 12  1  0  0  0  0
  4  1  2  0  0  0  0
  5  7  1  0  0  0  0
  6 13  1  0  0  0  0
  7  6  2  0  0  0  0
  7 11  1  0  0  0  0
  8 14  2  0  0  0  0
  8 11  1  0  0  0  0
  9  2  1  0  0  0  0
 10 14  1  0  0  0  0
 11  9  2  0  0  0  0
 12  3  2  0  0  0  0
 13  2  2  0  0  0  0
 16 17  1  0  0  0  0
 17 15  2  0  0  0  0
 18 17  1  0  0  0  0
 19  1  1  0  0  0  0
 19 20  2  0  0  0  0
 21 19  1  0  0  0  0
 22 28  1  0  0  0  0
 23 22  2  0  0  0  0
 23 25  1  0  0  0  0
 24 25  1  0  0  0  0
 25 26  2  0  0  0  0
 26 27  1  0  0  0  0
 26 21  1  0  0  0  0
 28 27  2  0  0  0  0
 29  5  1  0  0  0  0
 30 31  1  0  0  0  0
 30 29  1  0  0  0  0
 32 31  1  0  0  0  0
 33 41  1  0  0  0  0
 34 36  1  0  0  0  0
 35 33  2  0  0  0  0
 36 37  1  0  0  0  0
 37 41  2  0  0  0  0
 38 40  1  0  0  0  0
 39 43  1  6  0  0  0
 39 38  1  0  0  0  0
 39 34  1  0  0  0  0
 40 36  2  0  0  0  0
 40 35  1  0  0  0  0
 41 32  1  0  0  0  0
 42 43  1  0  0  0  0
 44 42  1  0  0  0  0
 44 43  1  0  0  0  0
M  END
>  <MODEL>
2

>  <REMARK>
 VINA RESULT:      -9.2      3.202      8.480
  Name = 
  9 active torsions:
  status: ('A' for Active; 'I' for Inactive)
    1  A    between atoms: C_1  and  C_7
    2  A    between atoms: C_2  and  N_44
    3  A    between atoms: C_10  and  N_35
    4  A    between atoms: N_11  and  C_43
    5  A    between atoms: N_19  and  C_24
    6  A    between atoms: N_19  and  C_26
    7  A    between atoms: C_24  and  C_37
    8  A    between atoms: C_25  and  N_42
    9  A    between atoms: C_26  and  C_43
                            x       y       z     vdW  Elec       q    Type
                         _______ _______ _______ _____ _____    ______ ____

>  <TORSDO>
F 9

$$$$
=
 OpenBabel11052409343D

 44 50  0  0  1  0  0  0  0  0999 V2000
  160.3870  213.1250  148.2500 C   0  0  0  0  0  0  0  0  0  0  0  0
  158.6930  213.3100  154.8300 C   0  0  0  0  0  0  0  0  0  0  0  0
  160.8510  211.8620  151.1710 C   0  0  0  0  0  0  0  0  0  0  0  0
  161.5070  212.4300  148.7040 C   0  0  0  0  0  3  0  0  0  0  0  0
  160.8490  211.0400  152.2210 N   0  0  0  0  0  0  0  0  0  0  0  0
  160.1660  211.3680  154.5810 C   0  0  0  0  0  3  0  0  0  0  0  0
  160.2810  211.7320  153.1750 C   0  0  0  0  0  0  0  0  0  0  0  0
  159.9010  212.7660  151.3880 C   0  0  0  0  0  0  0  0  0  0  0  0
  158.7630  213.6370  153.4180 C   0  0  0  0  0  3  0  0  0  0  0  0
  159.0450  213.4970  149.0800 C   0  0  0  0  0  2  0  0  0  0  0  0
  159.5980  212.8130  152.6550 C   0  0  0  0  0  0  0  0  0  0  0  0
  161.6290  211.7020  150.1740 C   0  0  0  0  0  3  0  0  0  0  0  0
  159.4050  212.1820  155.3810 C   0  0  0  0  0  3  0  0  0  0  0  0
  159.0310  213.3060  150.6080 C   0  0  0  0  0  3  0  0  0  0  0  0
  156.1210  213.1430  157.2370 O   0  0  0  0  0  0  0  0  0  0  0  0
  155.6220  213.0770  154.8970 N   0  0  0  0  0  1  0  0  0  0  0  0
  156.4590  213.4600  156.0330 C   0  0  0  0  0  0  0  0  0  0  0  0
  157.7850  214.0290  155.7110 N   0  0  0  0  0  2  0  0  0  0  0  0
  160.1480  213.4070  146.8710 C   0  0  0  0  0  0  0  0  0  0  0  0
  159.5020  214.4530  146.5270 O   0  0  0  0  0  0  0  0  0  0  0  0
  160.6040  212.3570  145.9190 N   0  0  0  0  0  2  0  0  0  0  0  0
  161.2780  212.3570  141.7610 C   0  0  0  0  0  3  0  0  0  0  0  0
  162.3510  212.6230  142.5970 C   0  0  0  0  0  3  0  0  0  0  0  0
  163.1560  213.1550  144.7850 F   0  0  0  0  0  0  0  0  0  0  0  0
  162.1280  212.8800  143.9410 C   0  0  0  0  0  0  0  0  0  0  0  0
  160.8730  212.5130  144.4930 C   0  0  0  0  0  0  0  0  0  0  0  0
  159.8260  212.1530  143.6490 C   0  0  0  0  0  3  0  0  0  0  0  0
  160.0680  211.8910  142.3170 C   0  0  0  0  0  3  0  0  0  0  0  0
  160.4580  209.6780  152.1760 C   0  0  0  0  0  2  0  0  0  0  0  0
  161.3560  208.7450  152.8520 C   0  0  0  0  0  2  0  0  0  0  0  0
  161.5510  207.4350  152.1430 N   0  0  0  0  0  2  0  0  0  0  0  0
  161.0160  206.1580  152.7360 C   0  0  0  0  0  2  0  0  0  0  0  0
  160.7420  203.6950  151.6910 C   0  0  0  0  0  3  0  0  0  0  0  0
  161.7740  205.3570  147.7490 C   0  0  0  0  0  2  0  0  0  0  0  0
  160.8470  202.9260  150.4800 C   0  0  0  0  0  3  0  0  0  0  0  0
  161.2820  204.9740  149.1670 C   0  0  0  0  0  0  0  0  0  0  0  0
  161.3080  205.7760  150.2390 C   0  0  0  0  0  3  0  0  0  0  0  0
  161.3820  203.0940  147.9240 C   0  0  0  0  0  2  0  0  0  0  0  0
  161.2410  204.2070  147.0360 N   0  0  2  0  0  0  0  0  0  0  0  0
  161.1130  203.6210  149.2640 C   0  0  0  0  0  0  0  0  0  0  0  0
  161.0060  205.1730  151.5530 C   0  0  0  0  0  0  0  0  0  0  0  0
  161.8870  205.5030  145.1700 C   0  0  0  0  0  2  0  0  0  0  0  0
  161.8740  204.1770  145.7140 C   0  0  0  0  0  3  0  0  0  0  0  0
  160.7170  204.7290  144.6650 C   0  0  0  0  0  2  0  0  0  0  0  0
  1  4  2  0  0  0  0
  1 10  1  0  0  0  0
  2 13  1  0  0  0  0
  2 18  1  0  0  0  0
  3  8  1  0  0  0  0
  3  5  1  0  0  0  0
  4 12  1  0  0  0  0
  5  7  1  0  0  0  0
  6 13  2  0  0  0  0
  7  6  1  0  0  0  0
  8 11  1  0  0  0  0
  9  2  2  0  0  0  0
 10 14  1  0  0  0  0
 11  7  2  0  0  0  0
 11  9  1  0  0  0  0
 12  3  2  0  0  0  0
 14  8  2  0  0  0  0
 16 17  1  0  0  0  0
 17 15  2  0  0  0  0
 18 17  1  0  0  0  0
 19  1  1  0  0  0  0
 20 19  2  0  0  0  0
 21 19  1  0  0  0  0
 22 28  2  0  0  0  0
 22 23  1  0  0  0  0
 23 25  2  0  0  0  0
 25 26  1  0  0  0  0
 25 24  1  0  0  0  0
 26 21  1  0  0  0  0
 27 26  2  0  0  0  0
 28 27  1  0  0  0  0
 29  5  1  0  0  0  0
 29 30  1  0  0  0  0
 31 32  1  0  0  0  0
 31 30  1  0  0  0  0
 34 36  1  0  0  0  0
 35 33  2  0  0  0  0
 36 40  2  0  0  0  0
 36 37  1  0  0  0  0
 37 41  2  0  0  0  0
 38 40  1  0  0  0  0
 39 43  1  6  0  0  0
 39 34  1  0  0  0  0
 39 38  1  0  0  0  0
 40 35  1  0  0  0  0
 41 33  1  0  0  0  0
 41 32  1  0  0  0  0
 42 43  1  0  0  0  0
 44 42  1  0  0  0  0
 44 43  1  0  0  0  0
M  END
>  <MODEL>
3

>  <REMARK>
 VINA RESULT:      -8.7      1.573      2.154
  Name = 
  9 active torsions:
  status: ('A' for Active; 'I' for Inactive)
    1  A    between atoms: C_1  and  C_7
    2  A    between atoms: C_2  and  N_44
    3  A    between atoms: C_10  and  N_35
    4  A    between atoms: N_11  and  C_43
    5  A    between atoms: N_19  and  C_24
    6  A    between atoms: N_19  and  C_26
    7  A    between atoms: C_24  and  C_37
    8  A    between atoms: C_25  and  N_42
    9  A    between atoms: C_26  and  C_43
                            x       y       z     vdW  Elec       q    Type
                         _______ _______ _______ _____ _____    ______ ____

>  <TORSDO>
F 9

$$$$
=
 OpenBabel11052409343D

 44 50  0  0  1  0  0  0  0  0999 V2000
  161.6320  211.6530  150.0080 C   0  0  0  0  0  0  0  0  0  0  0  0
  159.1680  212.1950  156.3190 C   0  0  0  0  0  0  0  0  0  0  0  0
  161.3760  210.2890  152.9090 C   0  0  0  0  0  0  0  0  0  0  0  0
  162.4760  210.6980  150.5720 C   0  0  0  0  0  3  0  0  0  0  0  0
  161.0330  209.4840  153.9150 N   0  0  0  0  0  0  0  0  0  0  0  0
  160.1400  209.9510  156.1800 C   0  0  0  0  0  3  0  0  0  0  0  0
  160.5290  210.2870  154.8170 C   0  0  0  0  0  0  0  0  0  0  0  0
  160.6570  211.3990  153.0410 C   0  0  0  0  0  0  0  0  0  0  0  0
  159.5050  212.5070  154.9430 C   0  0  0  0  0  3  0  0  0  0  0  0
  160.3240  212.3400  150.6740 C   0  0  0  0  0  2  0  0  0  0  0  0
  160.2070  211.5080  154.2600 C   0  0  0  0  0  0  0  0  0  0  0  0
  162.2180  209.9490  152.0140 C   0  0  0  0  0  3  0  0  0  0  0  0
  159.5020  210.9210  156.9100 C   0  0  0  0  0  3  0  0  0  0  0  0
  160.0590  212.1440  152.1790 C   0  0  0  0  0  3  0  0  0  0  0  0
  155.9380  213.2530  157.2590 O   0  0  0  0  0  0  0  0  0  0  0  0
  156.9710  214.0790  155.2640 N   0  0  0  0  0  1  0  0  0  0  0  0
  157.0220  213.5260  156.6160 C   0  0  0  0  0  0  0  0  0  0  0  0
  158.3540  213.1100  157.1060 N   0  0  0  0  0  2  0  0  0  0  0  0
  161.6570  211.9980  148.6230 C   0  0  0  0  0  0  0  0  0  0  0  0
  162.6940  211.7650  147.9160 O   0  0  0  0  0  0  0  0  0  0  0  0
  160.4560  212.7240  148.1270 N   0  0  0  0  0  2  0  0  0  0  0  0
  159.3020  213.5160  144.1540 C   0  0  0  0  0  3  0  0  0  0  0  0
  158.3100  213.2170  145.0750 C   0  0  0  0  0  3  0  0  0  0  0  0
  157.7100  212.3950  147.2390 F   0  0  0  0  0  0  0  0  0  0  0  0
  158.6570  212.7080  146.3180 C   0  0  0  0  0  0  0  0  0  0  0  0
  160.0040  212.8470  146.7450 C   0  0  0  0  0  0  0  0  0  0  0  0
  160.9800  213.2430  145.8350 C   0  0  0  0  0  3  0  0  0  0  0  0
  160.6170  213.7550  144.6080 C   0  0  0  0  0  3  0  0  0  0  0  0
  160.3290  208.2620  153.7640 C   0  0  0  0  0  2  0  0  0  0  0  0
  160.9780  207.0890  154.3430 C   0  0  0  0  0  2  0  0  0  0  0  0
  161.5820  206.1450  153.3430 N   0  0  0  0  0  2  0  0  0  0  0  0
  161.4670  206.4190  151.8670 C   0  0  0  0  0  2  0  0  0  0  0  0
  160.9620  203.7840  152.0550 C   0  0  0  0  0  3  0  0  0  0  0  0
  161.3220  203.4990  147.6780 C   0  0  0  0  0  2  0  0  0  0  0  0
  160.8360  202.5660  151.3000 C   0  0  0  0  0  3  0  0  0  0  0  0
  161.0790  203.8070  149.1760 C   0  0  0  0  0  0  0  0  0  0  0  0
  161.3090  204.9830  149.7740 C   0  0  0  0  0  3  0  0  0  0  0  0
  160.9190  201.5760  148.8790 C   0  0  0  0  0  2  0  0  0  0  0  0
  160.6480  202.2120  147.6270 N   0  0  2  0  0  0  0  0  0  0  0  0
  160.9000  202.6470  149.8780 C   0  0  0  0  0  0  0  0  0  0  0  0
  161.2300  205.0300  151.2470 C   0  0  0  0  0  0  0  0  0  0  0  0
  160.9440  202.5100  145.3020 C   0  0  0  0  0  2  0  0  0  0  0  0
  161.0390  201.5610  146.3730 C   0  0  0  0  0  3  0  0  0  0  0  0
  159.7110  201.6780  145.3900 C   0  0  0  0  0  2  0  0  0  0  0  0
  1  4  2  0  0  0  0
  1 10  1  0  0  0  0
  2 13  1  0  0  0  0
  2 18  1  0  0  0  0
  3  8  1  0  0  0  0
  3  5  1  0  0  0  0
  4 12  1  0  0  0  0
  5  7  1  0  0  0  0
  6 13  2  0  0  0  0
  7  6  1  0  0  0  0
  8 11  1  0  0  0  0
  9  2  2  0  0  0  0
 10 14  1  0  0  0  0
 11  7  2  0  0  0  0
 11  9  1  0  0  0  0
 12  3  2  0  0  0  0
 14  8  2  0  0  0  0
 16 17  1  0  0  0  0
 17 18  1  0  0  0  0
 17 15  2  0  0  0  0
 19  1  1  0  0  0  0
 20 19  2  0  0  0  0
 21 19  1  0  0  0  0
 22 28  2  0  0  0  0
 22 23  1  0  0  0  0
 23 25  2  0  0  0  0
 25 26  1  0  0  0  0
 25 24  1  0  0  0  0
 26 21  1  0  0  0  0
 27 26  2  0  0  0  0
 28 27  1  0  0  0  0
 29  5  1  0  0  0  0
 29 30  1  0  0  0  0
 31 30  1  0  0  0  0
 32 31  1  0  0  0  0
 34 36  1  0  0  0  0
 35 33  1  0  0  0  0
 36 37  2  0  0  0  0
 36 40  1  0  0  0  0
 37 41  1  0  0  0  0
 38 40  1  0  0  0  0
 39 43  1  6  0  0  0
 39 34  1  0  0  0  0
 39 38  1  0  0  0  0
 40 35  2  0  0  0  0
 41 32  1  0  0  0  0
 41 33  2  0  0  0  0
 42 44  1  0  0  0  0
 42 43  1  0  0  0  0
 44 43  1  0  0  0  0
M  END
>  <MODEL>
4

>  <REMARK>
 VINA RESULT:      -8.7      1.660      2.222
  Name = 
  9 active torsions:
  status: ('A' for Active; 'I' for Inactive)
    1  A    between atoms: C_1  and  C_7
    2  A    between atoms: C_2  and  N_44
    3  A    between atoms: C_10  and  N_35
    4  A    between atoms: N_11  and  C_43
    5  A    between atoms: N_19  and  C_24
    6  A    between atoms: N_19  and  C_26
    7  A    between atoms: C_24  and  C_37
    8  A    between atoms: C_25  and  N_42
    9  A    between atoms: C_26  and  C_43
                            x       y       z     vdW  Elec       q    Type
                         _______ _______ _______ _____ _____    ______ ____

>  <TORSDO>
F 9

$$$$
=
 OpenBabel11052409343D

 44 50  0  0  1  0  0  0  0  0999 V2000
  160.7690  204.2550  149.6650 C   0  0  0  0  0  0  0  0  0  0  0  0
  161.0790  209.0890  154.4330 C   0  0  0  0  0  0  0  0  0  0  0  0
  161.0320  207.4020  150.2750 C   0  0  0  0  0  0  0  0  0  0  0  0
  160.4450  205.3130  148.8160 C   0  0  0  0  0  3  0  0  0  0  0  0
  161.5060  208.6420  150.4060 N   0  0  0  0  0  0  0  0  0  0  0  0
  161.4830  210.2340  152.3050 C   0  0  0  0  0  3  0  0  0  0  0  0
  161.2970  208.9400  151.6620 C   0  0  0  0  0  0  0  0  0  0  0  0
  161.0150  206.8670  151.4910 C   0  0  0  0  0  0  0  0  0  0  0  0
  160.9510  207.7920  153.7960 C   0  0  0  0  0  3  0  0  0  0  0  0
  161.3350  204.3370  151.1820 C   0  0  0  0  0  2  0  0  0  0  0  0
  161.0510  207.8000  152.4010 C   0  0  0  0  0  0  0  0  0  0  0  0
  160.7210  206.9010  149.1450 C   0  0  0  0  0  3  0  0  0  0  0  0
  161.3360  210.2860  153.6680 C   0  0  0  0  0  3  0  0  0  0  0  0
  161.3140  205.6900  151.9180 C   0  0  0  0  0  3  0  0  0  0  0  0
  161.0070  211.1990  157.2580 O   0  0  0  0  0  0  0  0  0  0  0  0
  163.0660  210.7150  156.1360 N   0  0  0  0  0  1  0  0  0  0  0  0
  161.6960  210.3870  156.5300 C   0  0  0  0  0  0  0  0  0  0  0  0
  161.0920  209.2020  155.8850 N   0  0  0  0  0  2  0  0  0  0  0  0
  160.8830  202.9040  149.2210 C   0  0  0  0  0  0  0  0  0  0  0  0
  160.8680  201.9430  150.0620 O   0  0  0  0  0  0  0  0  0  0  0  0
  161.1240  202.7320  147.7620 N   0  0  0  0  0  2  0  0  0  0  0  0
  160.8940  199.2190  145.4490 C   0  0  0  0  0  3  0  0  0  0  0  0
  160.4710  200.4070  144.8760 C   0  0  0  0  0  3  0  0  0  0  0  0
  159.8690  202.7060  145.1430 F   0  0  0  0  0  0  0  0  0  0  0  0
  160.2930  201.5300  145.6710 C   0  0  0  0  0  0  0  0  0  0  0  0
  160.8860  201.5350  146.9610 C   0  0  0  0  0  0  0  0  0  0  0  0
  161.3970  200.3540  147.4920 C   0  0  0  0  0  3  0  0  0  0  0  0
  161.5770  199.2520  146.6840 C   0  0  0  0  0  3  0  0  0  0  0  0
  162.7570  209.0820  149.9020 C   0  0  0  0  0  2  0  0  0  0  0  0
  162.6880  210.0170  148.7830 C   0  0  0  0  0  2  0  0  0  0  0  0
  161.4590  210.8800  148.7580 N   0  0  0  0  0  2  0  0  0  0  0  0
  161.5740  212.3700  148.5640 C   0  0  0  0  0  2  0  0  0  0  0  0
  159.1430  213.4620  148.1970 C   0  0  0  0  0  3  0  0  0  0  0  0
  158.6520  213.6040  152.5680 C   0  0  0  0  0  2  0  0  0  0  0  0
  157.9930  213.9950  148.8750 C   0  0  0  0  0  3  0  0  0  0  0  0
  158.9260  213.3380  151.0670 C   0  0  0  0  0  0  0  0  0  0  0  0
  160.0850  212.9040  150.5550 C   0  0  0  0  0  3  0  0  0  0  0  0
  156.9710  214.4500  151.2400 C   0  0  0  0  0  2  0  0  0  0  0  0
  157.2120  213.7780  152.4800 N   0  0  2  0  0  0  0  0  0  0  0  0
  157.9460  213.8990  150.2970 C   0  0  0  0  0  0  0  0  0  0  0  0
  160.2340  212.9180  149.0870 C   0  0  0  0  0  0  0  0  0  0  0  0
  157.0920  213.4960  154.8220 C   0  0  0  0  0  2  0  0  0  0  0  0
  156.7630  214.3770  153.7400 C   0  0  0  0  0  3  0  0  0  0  0  0
  155.6840  213.2940  154.3780 C   0  0  0  0  0  2  0  0  0  0  0  0
  1 10  1  0  0  0  0
  2 18  1  0  0  0  0
  3  5  1  0  0  0  0
  3  8  1  0  0  0  0
  4 12  1  0  0  0  0
  4  1  2  0  0  0  0
  5  7  1  0  0  0  0
  6 13  1  0  0  0  0
  7  6  2  0  0  0  0
  7 11  1  0  0  0  0
  8 14  2  0  0  0  0
  8 11  1  0  0  0  0
  9  2  1  0  0  0  0
 10 14  1  0  0  0  0
 11  9  2  0  0  0  0
 12  3  2  0  0  0  0
 13  2  2  0  0  0  0
 16 17  1  0  0  0  0
 17 15  2  0  0  0  0
 18 17  1  0  0  0  0
 19  1  1  0  0  0  0
 19 20  2  0  0  0  0
 21 19  1  0  0  0  0
 22 28  1  0  0  0  0
 23 22  2  0  0  0  0
 23 25  1  0  0  0  0
 24 25  1  0  0  0  0
 25 26  2  0  0  0  0
 26 27  1  0  0  0  0
 26 21  1  0  0  0  0
 28 27  2  0  0  0  0
 29  5  1  0  0  0  0
 30 29  1  0  0  0  0
 31 30  1  0  0  0  0
 32 31  1  0  0  0  0
 32 41  1  0  0  0  0
 33 35  2  0  0  0  0
 33 41  1  0  0  0  0
 35 40  1  0  0  0  0
 36 34  1  0  0  0  0
 37 36  1  0  0  0  0
 38 39  1  0  0  0  0
 39 34  1  0  0  0  0
 39 43  1  1  0  0  0
 40 36  2  0  0  0  0
 40 38  1  0  0  0  0
 41 37  2  0  0  0  0
 43 44  1  0  0  0  0
 43 42  1  0  0  0  0
 44 42  1  0  0  0  0
M  END
>  <MODEL>
5

>  <REMARK>
 VINA RESULT:      -8.5      3.448      9.155
  Name = 
  9 active torsions:
  status: ('A' for Active; 'I' for Inactive)
    1  A    between atoms: C_1  and  C_7
    2  A    between atoms: C_2  and  N_44
    3  A    between atoms: C_10  and  N_35
    4  A    between atoms: N_11  and  C_43
    5  A    between atoms: N_19  and  C_24
    6  A    between atoms: N_19  and  C_26
    7  A    between atoms: C_24  and  C_37
    8  A    between atoms: C_25  and  N_42
    9  A    between atoms: C_26  and  C_43
                            x       y       z     vdW  Elec       q    Type
                         _______ _______ _______ _____ _____    ______ ____

>  <TORSDO>
F 9

$$$$
=
 OpenBabel11052409343D

 44 50  0  0  1  0  0  0  0  0999 V2000
  161.2380  209.6080  153.8100 C   0  0  0  0  0  0  0  0  0  0  0  0
  161.5850  204.9670  148.8560 C   0  0  0  0  0  0  0  0  0  0  0  0
  162.1910  208.9630  150.8070 C   0  0  0  0  0  0  0  0  0  0  0  0
  162.2360  210.2530  153.0810 C   0  0  0  0  0  3  0  0  0  0  0  0
  162.2870  208.9320  149.4770 N   0  0  0  0  0  0  0  0  0  0  0  0
  162.4050  207.0520  147.8660 C   0  0  0  0  0  3  0  0  0  0  0  0
  162.2010  207.6630  149.1730 C   0  0  0  0  0  0  0  0  0  0  0  0
  161.5930  207.8340  151.1750 C   0  0  0  0  0  0  0  0  0  0  0  0
  161.3290  205.5900  150.1410 C   0  0  0  0  0  3  0  0  0  0  0  0
  160.3220  208.3540  153.3450 C   0  0  0  0  0  2  0  0  0  0  0  0
  161.6840  206.9410  150.2300 C   0  0  0  0  0  0  0  0  0  0  0  0
  162.5900  209.9540  151.5030 C   0  0  0  0  0  3  0  0  0  0  0  0
  162.1270  205.7150  147.7460 C   0  0  0  0  0  3  0  0  0  0  0  0
  160.6970  207.5850  152.0640 C   0  0  0  0  0  3  0  0  0  0  0  0
  159.5060  202.2680  149.7710 O   0  0  0  0  0  0  0  0  0  0  0  0
  161.5980  202.6390  150.8740 N   0  0  0  0  0  1  0  0  0  0  0  0
  160.7040  202.7450  149.7220 C   0  0  0  0  0  0  0  0  0  0  0  0
  161.1690  203.5940  148.6050 N   0  0  0  0  0  2  0  0  0  0  0  0
  160.6940  210.1290  155.0220 C   0  0  0  0  0  0  0  0  0  0  0  0
  161.3450  210.0380  156.1160 O   0  0  0  0  0  0  0  0  0  0  0  0
  159.3090  210.6670  154.9170 N   0  0  0  0  0  2  0  0  0  0  0  0
  157.1070  213.4400  157.1980 C   0  0  0  0  0  3  0  0  0  0  0  0
  158.4140  213.7590  156.8660 C   0  0  0  0  0  3  0  0  0  0  0  0
  160.5360  213.0600  156.0140 F   0  0  0  0  0  0  0  0  0  0  0  0
  159.2480  212.7830  156.3400 C   0  0  0  0  0  0  0  0  0  0  0  0
  158.6520  211.6020  155.8250 C   0  0  0  0  0  0  0  0  0  0  0  0
  157.3100  211.3350  156.0820 C   0  0  0  0  0  3  0  0  0  0  0  0
  156.4940  212.3210  156.5950 C   0  0  0  0  0  3  0  0  0  0  0  0
  161.5790  209.7920  148.5990 C   0  0  0  0  0  2  0  0  0  0  0  0
  162.2440  211.0520  148.2830 C   0  0  0  0  0  2  0  0  0  0  0  0
  161.5730  212.2760  148.8390 N   0  0  0  0  0  2  0  0  0  0  0  0
  161.5630  213.5640  148.0580 C   0  0  0  0  0  2  0  0  0  0  0  0
  159.6700  212.6040  146.4060 C   0  0  0  0  0  3  0  0  0  0  0  0
  162.5570  212.8730  143.0960 C   0  0  0  0  0  2  0  0  0  0  0  0
  159.4000  212.2070  145.0510 C   0  0  0  0  0  3  0  0  0  0  0  0
  161.6320  212.9890  144.3320 C   0  0  0  0  0  0  0  0  0  0  0  0
  162.0310  213.3020  145.5720 C   0  0  0  0  0  3  0  0  0  0  0  0
  160.4590  212.0250  142.6640 C   0  0  0  0  0  2  0  0  0  0  0  0
  161.5200  212.7860  142.0800 N   0  0  2  0  0  0  0  0  0  0  0  0
  160.4130  212.4280  144.0720 C   0  0  0  0  0  0  0  0  0  0  0  0
  161.0510  213.1510  146.6660 C   0  0  0  0  0  0  0  0  0  0  0  0
  163.0810  213.3270  140.3920 C   0  0  0  0  0  2  0  0  0  0  0  0
  162.1560  212.3280  140.8410 C   0  0  0  0  0  3  0  0  0  0  0  0
  161.7660  213.4690  139.7050 C   0  0  0  0  0  2  0  0  0  0  0  0
  1 19  1  0  0  0  0
  2  9  1  0  0  0  0
  3  8  1  0  0  0  0
  3 12  2  0  0  0  0
  4  1  2  0  0  0  0
  5  3  1  0  0  0  0
  6  7  2  0  0  0  0
  7  5  1  0  0  0  0
  7 11  1  0  0  0  0
  8 14  2  0  0  0  0
  9 11  2  0  0  0  0
 10  1  1  0  0  0  0
 11  8  1  0  0  0  0
 12  4  1  0  0  0  0
 13  6  1  0  0  0  0
 13  2  2  0  0  0  0
 14 10  1  0  0  0  0
 17 15  2  0  0  0  0
 17 16  1  0  0  0  0
 18  2  1  0  0  0  0
 18 17  1  0  0  0  0
 19 20  2  0  0  0  0
 21 19  1  0  0  0  0
 21 26  1  0  0  0  0
 23 22  1  0  0  0  0
 24 25  1  0  0  0  0
 25 23  2  0  0  0  0
 26 27  2  0  0  0  0
 26 25  1  0  0  0  0
 27 28  1  0  0  0  0
 28 22  2  0  0  0  0
 29  5  1  0  0  0  0
 30 29  1  0  0  0  0
 30 31  1  0  0  0  0
 32 31  1  0  0  0  0
 33 41  1  0  0  0  0
 34 36  1  0  0  0  0
 35 33  2  0  0  0  0
 36 37  1  0  0  0  0
 37 41  2  0  0  0  0
 38 40  1  0  0  0  0
 39 43  1  6  0  0  0
 39 38  1  0  0  0  0
 39 34  1  0  0  0  0
 40 36  2  0  0  0  0
 40 35  1  0  0  0  0
 41 32  1  0  0  0  0
 42 43  1  0  0  0  0
 44 42  1  0  0  0  0
 44 43  1  0  0  0  0
M  END
>  <MODEL>
6

>  <REMARK>
 VINA RESULT:      -8.2      3.159      9.244
  Name = 
  9 active torsions:
  status: ('A' for Active; 'I' for Inactive)
    1  A    between atoms: C_1  and  C_7
    2  A    between atoms: C_2  and  N_44
    3  A    between atoms: C_10  and  N_35
    4  A    between atoms: N_11  and  C_43
    5  A    between atoms: N_19  and  C_24
    6  A    between atoms: N_19  and  C_26
    7  A    between atoms: C_24  and  C_37
    8  A    between atoms: C_25  and  N_42
    9  A    between atoms: C_26  and  C_43
                            x       y       z     vdW  Elec       q    Type
                         _______ _______ _______ _____ _____    ______ ____

>  <TORSDO>
F 9

$$$$
=
 OpenBabel11052409343D

 44 50  0  0  1  0  0  0  0  0999 V2000
  161.3970  209.7520  153.6270 C   0  0  0  0  0  0  0  0  0  0  0  0
  161.5590  204.8760  148.8930 C   0  0  0  0  0  0  0  0  0  0  0  0
  162.2440  208.9580  150.6280 C   0  0  0  0  0  0  0  0  0  0  0  0
  162.3710  210.3560  152.8340 C   0  0  0  0  0  3  0  0  0  0  0  0
  162.2950  208.8640  149.2980 N   0  0  0  0  0  0  0  0  0  0  0  0
  162.3520  206.9080  147.7760 C   0  0  0  0  0  3  0  0  0  0  0  0
  162.1940  207.5820  149.0590 C   0  0  0  0  0  0  0  0  0  0  0  0
  161.6560  207.8520  151.0700 C   0  0  0  0  0  0  0  0  0  0  0  0
  161.3490  205.5620  150.1540 C   0  0  0  0  0  3  0  0  0  0  0  0
  160.4610  208.4810  153.2540 C   0  0  0  0  0  2  0  0  0  0  0  0
  161.7110  206.9140  150.1660 C   0  0  0  0  0  0  0  0  0  0  0  0
  162.6700  209.9800  151.2610 C   0  0  0  0  0  3  0  0  0  0  0  0
  162.0650  205.5670  147.7310 C   0  0  0  0  0  3  0  0  0  0  0  0
  160.7900  207.6500  152.0000 C   0  0  0  0  0  3  0  0  0  0  0  0
  159.3430  202.3050  149.8490 O   0  0  0  0  0  0  0  0  0  0  0  0
  161.3450  202.7300  151.0920 N   0  0  0  0  0  1  0  0  0  0  0  0
  160.5530  202.7530  149.8630 C   0  0  0  0  0  0  0  0  0  0  0  0
  161.1310  203.4950  148.7230 N   0  0  0  0  0  2  0  0  0  0  0  0
  160.8960  210.3340  154.8300 C   0  0  0  0  0  0  0  0  0  0  0  0
  161.6800  210.5760  155.8070 O   0  0  0  0  0  0  0  0  0  0  0  0
  159.4200  210.5210  154.8780 N   0  0  0  0  0  2  0  0  0  0  0  0
  156.9160  213.0990  157.0760 C   0  0  0  0  0  3  0  0  0  0  0  0
  158.1020  213.6110  156.5740 C   0  0  0  0  0  3  0  0  0  0  0  0
  160.2400  213.2170  155.5790 F   0  0  0  0  0  0  0  0  0  0  0  0
  159.0640  212.7490  156.0680 C   0  0  0  0  0  0  0  0  0  0  0  0
  158.6700  211.4240  155.7470 C   0  0  0  0  0  0  0  0  0  0  0  0
  157.4340  210.9470  156.1730 C   0  0  0  0  0  3  0  0  0  0  0  0
  156.4860  211.8200  156.6630 C   0  0  0  0  0  3  0  0  0  0  0  0
  161.5600  209.6830  148.4050 C   0  0  0  0  0  2  0  0  0  0  0  0
  161.6170  211.1170  148.6770 C   0  0  0  0  0  2  0  0  0  0  0  0
  161.4470  211.9950  147.4700 N   0  0  0  0  0  2  0  0  0  0  0  0
  161.0790  213.4470  147.6260 C   0  0  0  0  0  2  0  0  0  0  0  0
  158.4620  213.0240  147.1690 C   0  0  0  0  0  3  0  0  0  0  0  0
  157.6260  214.3570  151.2780 C   0  0  0  0  0  2  0  0  0  0  0  0
  157.1490  213.1200  147.7470 C   0  0  0  0  0  3  0  0  0  0  0  0
  158.1110  213.7750  149.9280 C   0  0  0  0  0  0  0  0  0  0  0  0
  159.3690  213.8180  149.4720 C   0  0  0  0  0  3  0  0  0  0  0  0
  155.8550  213.7800  149.9230 C   0  0  0  0  0  2  0  0  0  0  0  0
  156.2970  213.7670  151.2840 N   0  0  2  0  0  0  0  0  0  0  0  0
  157.0450  213.4950  149.1190 C   0  0  0  0  0  0  0  0  0  0  0  0
  159.6060  213.4110  148.0730 C   0  0  0  0  0  0  0  0  0  0  0  0
  156.2390  214.4170  153.5540 C   0  0  0  0  0  2  0  0  0  0  0  0
  155.5150  214.4530  152.3170 C   0  0  0  0  0  3  0  0  0  0  0  0
  155.2420  213.3110  153.4860 C   0  0  0  0  0  2  0  0  0  0  0  0
  1 19  1  0  0  0  0
  2  9  1  0  0  0  0
  3  8  1  0  0  0  0
  3 12  2  0  0  0  0
  4  1  2  0  0  0  0
  5  3  1  0  0  0  0
  6  7  2  0  0  0  0
  7  5  1  0  0  0  0
  7 11  1  0  0  0  0
  8 14  2  0  0  0  0
  9 11  2  0  0  0  0
 10  1  1  0  0  0  0
 11  8  1  0  0  0  0
 12  4  1  0  0  0  0
 13  6  1  0  0  0  0
 13  2  2  0  0  0  0
 14 10  1  0  0  0  0
 15 17  2  0  0  0  0
 17 16  1  0  0  0  0
 18  2  1  0  0  0  0
 18 17  1  0  0  0  0
 19 21  1  0  0  0  0
 19 20  2  0  0  0  0
 21 26  1  0  0  0  0
 23 22  2  0  0  0  0
 24 25  1  0  0  0  0
 25 23  1  0  0  0  0
 26 25  2  0  0  0  0
 26 27  1  0  0  0  0
 27 28  2  0  0  0  0
 28 22  1  0  0  0  0
 29 30  1  0  0  0  0
 29  5  1  0  0  0  0
 31 32  1  0  0  0  0
 31 30  1  0  0  0  0
 32 41  1  0  0  0  0
 33 35  2  0  0  0  0
 33 41  1  0  0  0  0
 34 39  1  0  0  0  0
 35 40  1  0  0  0  0
 36 34  1  0  0  0  0
 37 36  1  0  0  0  0
 38 39  1  0  0  0  0
 39 43  1  1  0  0  0
 40 38  1  0  0  0  0
 40 36  2  0  0  0  0
 41 37  2  0  0  0  0
 43 44  1  0  0  0  0
 43 42  1  0  0  0  0
 44 42  1  0  0  0  0
M  END
>  <MODEL>
7

>  <REMARK>
 VINA RESULT:      -7.7      3.577      9.813
  Name = 
  9 active torsions:
  status: ('A' for Active; 'I' for Inactive)
    1  A    between atoms: C_1  and  C_7
    2  A    between atoms: C_2  and  N_44
    3  A    between atoms: C_10  and  N_35
    4  A    between atoms: N_11  and  C_43
    5  A    between atoms: N_19  and  C_24
    6  A    between atoms: N_19  and  C_26
    7  A    between atoms: C_24  and  C_37
    8  A    between atoms: C_25  and  N_42
    9  A    between atoms: C_26  and  C_43
                            x       y       z     vdW  Elec       q    Type
                         _______ _______ _______ _____ _____    ______ ____

>  <TORSDO>
F 9

$$$$
=
 OpenBabel11052409343D

 44 50  0  0  1  0  0  0  0  0999 V2000
  161.6650  209.7610  149.3510 C   0  0  0  0  0  0  0  0  0  0  0  0
  161.1240  203.0300  150.1230 C   0  0  0  0  0  0  0  0  0  0  0  0
  161.1470  207.3330  151.3960 C   0  0  0  0  0  0  0  0  0  0  0  0
  161.0000  209.8120  150.5750 C   0  0  0  0  0  2  0  0  0  0  0  0
  161.2890  206.4280  152.3650 N   0  0  0  0  0  0  0  0  0  0  0  0
  161.0200  203.9640  152.3850 C   0  0  0  0  0  3  0  0  0  0  0  0
  161.1230  205.2790  151.7640 C   0  0  0  0  0  0  0  0  0  0  0  0
  161.3810  206.7070  150.2470 C   0  0  0  0  0  0  0  0  0  0  0  0
  161.2840  204.3350  149.5110 C   0  0  0  0  0  3  0  0  0  0  0  0
  162.3240  208.4660  148.6320 C   0  0  0  0  0  3  0  0  0  0  0  0
  161.2520  205.4180  150.3960 C   0  0  0  0  0  0  0  0  0  0  0  0
  160.8780  208.5570  151.6320 C   0  0  0  0  0  3  0  0  0  0  0  0
  160.9870  202.8760  151.5520 C   0  0  0  0  0  3  0  0  0  0  0  0
  162.0150  207.0630  149.1850 C   0  0  0  0  0  3  0  0  0  0  0  0
  160.2950  201.3420  147.1390 O   0  0  0  0  0  0  0  0  0  0  0  0
  158.8060  201.3310  149.0140 N   0  0  0  0  0  1  0  0  0  0  0  0
  160.1380  201.4240  148.4170 C   0  0  0  0  0  0  0  0  0  0  0  0
  161.2380  201.8190  149.3220 N   0  0  0  0  0  2  0  0  0  0  0  0
  162.0900  210.9260  148.6430 C   0  0  0  0  0  0  0  0  0  0  0  0
  163.3210  211.2620  148.6300 O   0  0  0  0  0  0  0  0  0  0  0  0
  160.9960  211.7370  148.0420 N   0  0  0  0  0  2  0  0  0  0  0  0
  161.4730  214.1910  144.6510 C   0  0  0  0  0  3  0  0  0  0  0  0
  162.2580  214.4530  145.7630 C   0  0  0  0  0  3  0  0  0  0  0  0
  162.7060  214.0850  148.0820 F   0  0  0  0  0  0  0  0  0  0  0  0
  161.9630  213.8420  146.9720 C   0  0  0  0  0  0  0  0  0  0  0  0
  161.1090  212.7080  146.9570 C   0  0  0  0  0  0  0  0  0  0  0  0
  160.3950  212.3950  145.8040 C   0  0  0  0  0  3  0  0  0  0  0  0
  160.7100  213.0050  144.6080 C   0  0  0  0  0  3  0  0  0  0  0  0
  162.3300  206.4380  153.3280 C   0  0  0  0  0  2  0  0  0  0  0  0
  161.9200  206.7690  154.6910 C   0  0  0  0  0  2  0  0  0  0  0  0
  160.4410  206.9540  154.8760 N   0  0  0  0  0  2  0  0  0  0  0  0
  159.8920  207.4600  156.1840 C   0  0  0  0  0  2  0  0  0  0  0  0
  160.1600  209.9720  157.1100 C   0  0  0  0  0  3  0  0  0  0  0  0
  158.8770  211.4580  153.1710 C   0  0  0  0  0  2  0  0  0  0  0  0
  160.0040  211.3600  156.7690 C   0  0  0  0  0  3  0  0  0  0  0  0
  159.4540  210.7700  154.4330 C   0  0  0  0  0  0  0  0  0  0  0  0
  159.4700  209.4500  154.6580 C   0  0  0  0  0  3  0  0  0  0  0  0
  159.3250  212.9860  154.8350 C   0  0  0  0  0  2  0  0  0  0  0  0
  159.3930  212.7940  153.4190 N   0  0  2  0  0  0  0  0  0  0  0  0
  159.6560  211.6880  155.4260 C   0  0  0  0  0  0  0  0  0  0  0  0
  159.8570  208.9890  156.0060 C   0  0  0  0  0  0  0  0  0  0  0  0
  158.4860  213.0650  151.2550 C   0  0  0  0  0  2  0  0  0  0  0  0
  158.6890  213.7120  152.5180 C   0  0  0  0  0  3  0  0  0  0  0  0
  159.7060  213.9200  151.2270 C   0  0  0  0  0  2  0  0  0  0  0  0
  1  4  1  0  0  0  0
  2 13  1  0  0  0  0
  3 12  2  0  0  0  0
  3  5  1  0  0  0  0
  4 12  1  0  0  0  0
  5 29  1  0  0  0  0
  7  5  1  0  0  0  0
  7  6  1  0  0  0  0
  8 11  1  0  0  0  0
  8  3  1  0  0  0  0
  9  2  2  0  0  0  0
  9 11  1  0  0  0  0
 10 14  1  0  0  0  0
 10  1  2  0  0  0  0
 11  7  2  0  0  0  0
 13  6  2  0  0  0  0
 14  8  2  0  0  0  0
 15 17  2  0  0  0  0
 17 16  1  0  0  0  0
 17 18  1  0  0  0  0
 18  2  1  0  0  0  0
 19  1  1  0  0  0  0
 20 19  2  0  0  0  0
 21 19  1  0  0  0  0
 22 23  1  0  0  0  0
 23 25  2  0  0  0  0
 25 24  1  0  0  0  0
 26 25  1  0  0  0  0
 26 21  1  0  0  0  0
 27 26  2  0  0  0  0
 28 22  2  0  0  0  0
 28 27  1  0  0  0  0
 29 30  1  0  0  0  0
 30 31  1  0  0  0  0
 31 32  1  0  0  0  0
 34 39  1  0  0  0  0
 34 36  1  0  0  0  0
 35 33  1  0  0  0  0
 36 37  2  0  0  0  0
 36 40  1  0  0  0  0
 37 41  1  0  0  0  0
 38 40  1  0  0  0  0
 39 43  1  6  0  0  0
 39 38  1  0  0  0  0
 40 35  2  0  0  0  0
 41 32  1  0  0  0  0
 41 33  2  0  0  0  0
 42 43  1  0  0  0  0
 44 42  1  0  0  0  0
 44 43  1  0  0  0  0
M  END
>  <MODEL>
8

>  <REMARK>
 VINA RESULT:      -7.6      2.724      7.853
  Name = 
  9 active torsions:
  status: ('A' for Active; 'I' for Inactive)
    1  A    between atoms: C_1  and  C_7
    2  A    between atoms: C_2  and  N_44
    3  A    between atoms: C_10  and  N_35
    4  A    between atoms: N_11  and  C_43
    5  A    between atoms: N_19  and  C_24
    6  A    between atoms: N_19  and  C_26
    7  A    between atoms: C_24  and  C_37
    8  A    between atoms: C_25  and  N_42
    9  A    between atoms: C_26  and  C_43
                            x       y       z     vdW  Elec       q    Type
                         _______ _______ _______ _____ _____    ______ ____

>  <TORSDO>
F 9

$$$$
=
 OpenBabel11052409343D

 44 50  0  0  1  0  0  0  0  0999 V2000
  161.7540  209.4850  149.0980 C   0  0  0  0  0  0  0  0  0  0  0  0
  160.4470  202.8550  149.8330 C   0  0  0  0  0  0  0  0  0  0  0  0
  161.1050  207.0940  151.1490 C   0  0  0  0  0  0  0  0  0  0  0  0
  161.2000  209.5900  150.3730 C   0  0  0  0  0  2  0  0  0  0  0  0
  161.2120  206.1580  152.0930 N   0  0  0  0  0  0  0  0  0  0  0  0
  160.6420  203.7460  152.1070 C   0  0  0  0  0  3  0  0  0  0  0  0
  160.8570  205.0510  151.4940 C   0  0  0  0  0  0  0  0  0  0  0  0
  161.1660  206.4690  149.9780 C   0  0  0  0  0  0  0  0  0  0  0  0
  160.7180  204.1440  149.2250 C   0  0  0  0  0  3  0  0  0  0  0  0
  162.1870  208.1350  148.3110 C   0  0  0  0  0  3  0  0  0  0  0  0
  160.8920  205.2030  150.1230 C   0  0  0  0  0  0  0  0  0  0  0  0
  161.0090  208.3370  151.4210 C   0  0  0  0  0  3  0  0  0  0  0  0
  160.4080  202.6880  151.2660 C   0  0  0  0  0  3  0  0  0  0  0  0
  161.7520  206.7680  148.8720 C   0  0  0  0  0  3  0  0  0  0  0  0
  162.0750  200.5370  147.7310 O   0  0  0  0  0  0  0  0  0  0  0  0
  161.2080  202.5910  146.8590 N   0  0  0  0  0  1  0  0  0  0  0  0
  161.2160  201.4950  147.8270 C   0  0  0  0  0  0  0  0  0  0  0  0
  160.3460  201.6570  149.0110 N   0  0  0  0  0  2  0  0  0  0  0  0
  162.2610  210.6040  148.3710 C   0  0  0  0  0  0  0  0  0  0  0  0
  163.5070  210.6950  148.1100 O   0  0  0  0  0  0  0  0  0  0  0  0
  161.2620  211.6620  148.0570 N   0  0  0  0  0  2  0  0  0  0  0  0
  161.6070  214.2730  144.7690 C   0  0  0  0  0  3  0  0  0  0  0  0
  162.5480  214.3710  145.7810 C   0  0  0  0  0  3  0  0  0  0  0  0
  163.2290  213.7980  148.0010 F   0  0  0  0  0  0  0  0  0  0  0  0
  162.3330  213.7150  146.9850 C   0  0  0  0  0  0  0  0  0  0  0  0
  161.3550  212.6860  147.0200 C   0  0  0  0  0  0  0  0  0  0  0  0
  160.4740  212.5330  145.9540 C   0  0  0  0  0  3  0  0  0  0  0  0
  160.7090  213.1840  144.7620 C   0  0  0  0  0  3  0  0  0  0  0  0
  162.3190  206.0200  152.9670 C   0  0  0  0  0  2  0  0  0  0  0  0
  162.0390  206.2680  154.3790 C   0  0  0  0  0  2  0  0  0  0  0  0
  160.7850  207.0510  154.6440 N   0  0  0  0  0  2  0  0  0  0  0  0
  160.7220  208.0310  155.7860 C   0  0  0  0  0  2  0  0  0  0  0  0
  161.4430  210.1360  154.2740 C   0  0  0  0  0  3  0  0  0  0  0  0
  157.4870  211.9110  155.0280 C   0  0  0  0  0  2  0  0  0  0  0  0
  161.0110  211.4140  153.7770 C   0  0  0  0  0  3  0  0  0  0  0  0
  158.7600  211.0770  154.7430 C   0  0  0  0  0  0  0  0  0  0  0  0
  159.0800  209.9220  155.3380 C   0  0  0  0  0  3  0  0  0  0  0  0
  159.0050  213.0950  153.7630 C   0  0  0  0  0  2  0  0  0  0  0  0
  157.6050  212.8420  153.9180 N   0  0  2  0  0  0  0  0  0  0  0  0
  159.6700  211.8190  154.0420 C   0  0  0  0  0  0  0  0  0  0  0  0
  160.4340  209.3810  155.1030 C   0  0  0  0  0  0  0  0  0  0  0  0
  155.3370  213.4600  154.1420 C   0  0  0  0  0  2  0  0  0  0  0  0
  156.6830  213.9520  154.1750 C   0  0  0  0  0  3  0  0  0  0  0  0
  155.7240  214.0420  152.8260 C   0  0  0  0  0  2  0  0  0  0  0  0
  1  4  1  0  0  0  0
  2 13  1  0  0  0  0
  3 12  2  0  0  0  0
  3  5  1  0  0  0  0
  4 12  1  0  0  0  0
  5 29  1  0  0  0  0
  7  5  1  0  0  0  0
  7  6  1  0  0  0  0
  8 11  1  0  0  0  0
  8  3  1  0  0  0  0
  9  2  2  0  0  0  0
  9 11  1  0  0  0  0
 10 14  1  0  0  0  0
 10  1  2  0  0  0  0
 11  7  2  0  0  0  0
 13  6  2  0  0  0  0
 14  8  2  0  0  0  0
 15 17  2  0  0  0  0
 16 17  1  0  0  0  0
 17 18  1  0  0  0  0
 18  2  1  0  0  0  0
 19  1  1  0  0  0  0
 20 19  2  0  0  0  0
 21 19  1  0  0  0  0
 22 23  1  0  0  0  0
 23 25  2  0  0  0  0
 25 26  1  0  0  0  0
 25 24  1  0  0  0  0
 26 21  1  0  0  0  0
 27 26  2  0  0  0  0
 28 22  2  0  0  0  0
 28 27  1  0  0  0  0
 29 30  1  0  0  0  0
 30 31  1  0  0  0  0
 31 32  1  0  0  0  0
 33 41  1  0  0  0  0
 35 40  1  0  0  0  0
 35 33  2  0  0  0  0
 36 34  1  0  0  0  0
 36 37  1  0  0  0  0
 38 39  1  0  0  0  0
 38 40  1  0  0  0  0
 39 43  1  1  0  0  0
 39 34  1  0  0  0  0
 40 36  2  0  0  0  0
 41 37  2  0  0  0  0
 41 32  1  0  0  0  0
 42 43  1  0  0  0  0
 44 42  1  0  0  0  0
 44 43  1  0  0  0  0
M  END
>  <MODEL>
9

>  <REMARK>
 VINA RESULT:      -7.4      2.986      8.237
  Name = 
  9 active torsions:
  status: ('A' for Active; 'I' for Inactive)
    1  A    between atoms: C_1  and  C_7
    2  A    between atoms: C_2  and  N_44
    3  A    between atoms: C_10  and  N_35
    4  A    between atoms: N_11  and  C_43
    5  A    between atoms: N_19  and  C_24
    6  A    between atoms: N_19  and  C_26
    7  A    between atoms: C_24  and  C_37
    8  A    between atoms: C_25  and  N_42
    9  A    between atoms: C_26  and  C_43
                            x       y       z     vdW  Elec       q    Type
                         _______ _______ _______ _____ _____    ______ ____

>  <TORSDO>
F 9

$$$$
