=
 OpenBabel11052409443D

 31 36  0  0  1  0  0  0  0  0999 V2000
  160.7170  210.9230  155.4690 C   0  0  0  0  0  0  0  0  0  0  0  0
  160.5770  211.2200  151.9810 N   0  0  0  0  0  0  0  0  0  0  0  0
  162.6090  208.2630  150.4620 C   0  0  2  0  0  3  0  0  0  0  0  0
  159.9710  211.3770  153.1310 C   0  0  0  0  0  0  0  0  0  0  0  0
  158.6570  212.2390  155.7410 C   0  0  0  0  0  2  0  0  0  0  0  0
  161.7950  207.1790  150.6920 C   0  0  1  0  0  3  0  0  0  0  0  0
  160.0850  210.3230  154.2430 C   0  0  1  0  0  3  0  0  0  0  0  0
  162.5500  205.8740  150.9870 C   0  0  0  0  0  2  0  0  0  0  0  0
  160.6190  212.4680  157.2610 O   0  0  0  0  0  1  0  0  0  0  0  0
  162.0920  208.1110  151.8180 N   0  0  2  0  0  0  0  0  0  0  0  0
  161.9240  209.6660  150.2800 C   0  0  0  0  0  2  0  0  0  0  0  0
  159.2270  212.5910  153.3420 N   0  0  0  0  0  0  0  0  0  0  0  0
  160.0420  211.8480  156.1590 C   0  0  0  0  0  0  0  0  0  0  0  0
  160.7280  209.0320  153.7960 C   0  0  0  0  0  0  0  0  0  0  0  0
  161.5520  209.1220  152.5780 C   0  0  2  0  0  3  0  0  0  0  0  0
  161.4010  210.0830  151.6920 C   0  0  2  0  0  3  0  0  0  0  0  0
  160.8700  206.6210  153.8320 C   0  0  0  0  0  0  0  0  0  0  0  0
  158.6620  212.9990  154.4450 C   0  0  0  0  0  3  0  0  0  0  0  0
  162.0620  210.6030  155.8260 N   0  0  0  0  0  1  0  0  0  0  0  0
  160.4280  207.8690  154.4040 C   0  0  0  0  0  3  0  0  0  0  0  0
  161.8130  204.9510  151.9950 C   0  0  1  0  0  3  0  0  0  0  0  0
  161.2830  205.7480  153.1110 C   0  0  0  0  0  0  0  0  0  0  0  0
  160.7120  204.2650  151.3290 N   0  0  0  0  0  2  0  0  0  0  0  0
  161.1340  203.9900  146.5540 C   0  0  0  0  0  1  0  0  0  0  0  0
  161.3010  203.9650  149.0130 C   0  0  0  0  0  3  0  0  0  0  0  0
  161.1130  201.0220  146.7420 O   0  0  0  0  0  1  0  0  0  0  0  0
  160.4000  202.0100  150.2530 C   0  0  0  0  0  2  0  0  0  0  0  0
  160.9250  201.1440  149.1110 C   0  0  0  0  0  2  0  0  0  0  0  0
  160.8630  203.4400  150.1690 C   0  0  0  0  0  0  0  0  0  0  0  0
  160.6970  201.8530  147.7830 C   0  0  1  0  0  3  0  0  0  0  0  0
  161.5020  203.1530  147.7630 C   0  0  1  0  0  3  0  0  0  0  0  0
  1 19  1  0  0  0  0
  1 13  2  0  0  0  0
  2  4  2  0  0  0  0
  3 11  1  6  0  0  0
  3  6  1  0  0  0  0
  3 10  1  0  0  0  0
  4 12  1  0  0  0  0
  5 13  1  0  0  0  0
  6  8  1  1  0  0  0
  6 10  1  0  0  0  0
  7  4  1  6  0  0  0
  7  1  1  0  0  0  0
  8 21  1  0  0  0  0
 10 15  1  0  0  0  0
 11 16  1  0  0  0  0
 12 18  2  0  0  0  0
 13  9  1  0  0  0  0
 14  7  1  0  0  0  0
 14 20  2  0  0  0  0
 15 14  1  0  0  0  0
 16  2  1  0  0  0  0
 16 15  1  0  0  0  0
 17 20  1  0  0  0  0
 18  5  1  0  0  0  0
 21 22  1  0  0  0  0
 22 17  3  0  0  0  0
 23 21  1  0  0  0  0
 24 31  1  0  0  0  0
 25 29  2  0  0  0  0
 26 30  1  0  0  0  0
 28 27  1  0  0  0  0
 29 27  1  0  0  0  0
 29 23  1  0  0  0  0
 30 28  1  0  0  0  0
 31 30  1  0  0  0  0
 31 25  1  0  0  0  0
M  END
>  <MODEL>
1

>  <REMARK>
 VINA RESULT:     -10.0      0.000      0.000
  Name = 
  2 active torsions:
  status: ('A' for Active; 'I' for Inactive)
    1  A    between atoms: N_6  and  C_19
    2  A    between atoms: N_6  and  C_30
                            x       y       z     vdW  Elec       q    Type
                         _______ _______ _______ _____ _____    ______ ____

>  <TORSDO>
F 2

$$$$
=
 OpenBabel11052409443D

 31 36  0  0  1  0  0  0  0  0999 V2000
  160.9840  210.9220  154.9190 C   0  0  0  0  0  0  0  0  0  0  0  0
  160.2760  212.1760  151.7240 N   0  0  0  0  0  0  0  0  0  0  0  0
  162.3390  210.0960  149.1560 C   0  0  2  0  0  3  0  0  0  0  0  0
  159.8420  211.9110  152.9310 C   0  0  0  0  0  0  0  0  0  0  0  0
  158.8670  211.7970  155.8150 C   0  0  0  0  0  2  0  0  0  0  0  0
  161.6850  208.8870  149.1430 C   0  0  1  0  0  3  0  0  0  0  0  0
  160.2340  210.6120  153.6520 C   0  0  1  0  0  3  0  0  0  0  0  0
  162.6060  207.6740  148.9390 C   0  0  0  0  0  2  0  0  0  0  0  0
  161.0080  211.8630  157.0910 O   0  0  0  0  0  1  0  0  0  0  0  0
  162.0570  209.4930  150.4540 N   0  0  2  0  0  0  0  0  0  0  0  0
  161.4950  211.3800  149.4880 C   0  0  0  0  0  2  0  0  0  0  0  0
  159.0210  212.8950  153.5850 N   0  0  0  0  0  0  0  0  0  0  0  0
  160.3330  211.5060  155.9300 C   0  0  0  0  0  0  0  0  0  0  0  0
  160.9280  209.6070  152.7630 C   0  0  0  0  0  0  0  0  0  0  0  0
  161.5400  210.1570  151.5420 C   0  0  2  0  0  3  0  0  0  0  0  0
  161.1570  211.2980  151.0110 C   0  0  2  0  0  3  0  0  0  0  0  0
  161.3180  207.3320  152.0530 C   0  0  0  0  0  0  0  0  0  0  0  0
  158.5940  212.8880  154.8180 C   0  0  0  0  0  3  0  0  0  0  0  0
  162.3930  210.7090  155.0010 N   0  0  0  0  0  1  0  0  0  0  0  0
  160.8460  208.2890  153.0240 C   0  0  0  0  0  3  0  0  0  0  0  0
  162.1310  206.4070  149.7000 C   0  0  1  0  0  3  0  0  0  0  0  0
  161.7010  206.7680  151.0590 C   0  0  0  0  0  0  0  0  0  0  0  0
  161.0160  205.7880  148.9930 N   0  0  0  0  0  2  0  0  0  0  0  0
  160.8920  201.1130  150.0800 C   0  0  0  0  0  1  0  0  0  0  0  0
  160.5900  203.4420  149.3330 C   0  0  0  0  0  3  0  0  0  0  0  0
  161.1870  200.4530  147.1960 O   0  0  0  0  0  1  0  0  0  0  0  0
  161.6030  204.1470  147.1760 C   0  0  0  0  0  2  0  0  0  0  0  0
  161.2280  202.7670  146.6410 C   0  0  0  0  0  2  0  0  0  0  0  0
  161.0100  204.4330  148.5310 C   0  0  0  0  0  0  0  0  0  0  0  0
  161.4620  201.7180  147.7190 C   0  0  1  0  0  3  0  0  0  0  0  0
  160.5380  202.0010  148.9040 C   0  0  1  0  0  3  0  0  0  0  0  0
  1 19  1  0  0  0  0
  1 13  2  0  0  0  0
  2  4  2  0  0  0  0
  3 11  1  1  0  0  0
  3 10  1  0  0  0  0
  4 12  1  0  0  0  0
  4  7  1  0  0  0  0
  5 13  1  0  0  0  0
  6  8  1  6  0  0  0
  6  3  1  0  0  0  0
  6 10  1  0  0  0  0
  7 14  1  6  0  0  0
  7  1  1  0  0  0  0
  8 21  1  0  0  0  0
 10 15  1  0  0  0  0
 11 16  1  0  0  0  0
 12 18  2  0  0  0  0
 13  9  1  0  0  0  0
 14 20  2  0  0  0  0
 15 14  1  0  0  0  0
 16 15  1  0  0  0  0
 16  2  1  0  0  0  0
 17 20  1  0  0  0  0
 18  5  1  0  0  0  0
 21 22  1  0  0  0  0
 22 17  3  0  0  0  0
 23 21  1  0  0  0  0
 26 30  1  0  0  0  0
 27 29  1  0  0  0  0
 28 27  1  0  0  0  0
 28 30  1  0  0  0  0
 29 23  1  0  0  0  0
 29 25  2  0  0  0  0
 30 31  1  0  0  0  0
 31 25  1  0  0  0  0
 31 24  1  0  0  0  0
M  END
>  <MODEL>
2

>  <REMARK>
 VINA RESULT:      -9.1      1.192      1.940
  Name = 
  2 active torsions:
  status: ('A' for Active; 'I' for Inactive)
    1  A    between atoms: N_6  and  C_19
    2  A    between atoms: N_6  and  C_30
                            x       y       z     vdW  Elec       q    Type
                         _______ _______ _______ _____ _____    ______ ____

>  <TORSDO>
F 2

$$$$
=
 OpenBabel11052409443D

 31 36  0  0  1  0  0  0  0  0999 V2000
  160.4810  211.1200  155.1150 C   0  0  0  0  0  0  0  0  0  0  0  0
  160.0940  212.3050  151.8400 N   0  0  0  0  0  0  0  0  0  0  0  0
  162.3680  210.1480  149.5270 C   0  0  2  0  0  3  0  0  0  0  0  0
  159.5450  212.0720  153.0060 C   0  0  0  0  0  0  0  0  0  0  0  0
  158.2990  212.0350  155.7860 C   0  0  0  0  0  2  0  0  0  0  0  0
  161.7050  208.9440  149.4790 C   0  0  1  0  0  3  0  0  0  0  0  0
  159.8520  210.7870  153.7900 C   0  0  1  0  0  3  0  0  0  0  0  0
  162.6280  207.7190  149.3910 C   0  0  0  0  0  2  0  0  0  0  0  0
  160.3100  212.1110  157.2580 O   0  0  0  0  0  1  0  0  0  0  0  0
  161.9570  209.5770  150.8060 N   0  0  2  0  0  0  0  0  0  0  0  0
  161.5110  211.4460  149.7490 C   0  0  0  0  0  2  0  0  0  0  0  0
  158.6760  213.0780  153.5570 N   0  0  0  0  0  0  0  0  0  0  0  0
  159.7440  211.7330  156.0460 C   0  0  0  0  0  0  0  0  0  0  0  0
  160.6160  209.7560  152.9940 C   0  0  0  0  0  0  0  0  0  0  0  0
  161.3470  210.2710  151.8240 C   0  0  2  0  0  3  0  0  0  0  0  0
  161.0290  211.4030  151.2340 C   0  0  2  0  0  3  0  0  0  0  0  0
  161.0470  207.4610  152.3760 C   0  0  0  0  0  0  0  0  0  0  0  0
  158.1340  213.1040  154.7440 C   0  0  0  0  0  3  0  0  0  0  0  0
  161.8740  210.8970  155.3360 N   0  0  0  0  0  1  0  0  0  0  0  0
  160.4950  208.4450  153.2750 C   0  0  0  0  0  3  0  0  0  0  0  0
  162.0690  206.4740  150.1320 C   0  0  1  0  0  3  0  0  0  0  0  0
  161.5160  206.8710  151.4350 C   0  0  0  0  0  0  0  0  0  0  0  0
  161.0190  205.8480  149.3360 N   0  0  0  0  0  2  0  0  0  0  0  0
  163.4500  204.0560  145.6030 C   0  0  0  0  0  1  0  0  0  0  0  0
  161.9040  204.7030  147.4110 C   0  0  0  0  0  3  0  0  0  0  0  0
  161.4300  205.2160  143.7550 O   0  0  0  0  0  1  0  0  0  0  0  0
  160.3450  206.6000  147.0290 C   0  0  0  0  0  2  0  0  0  0  0  0
  160.2040  206.0920  145.5970 C   0  0  0  0  0  2  0  0  0  0  0  0
  161.0960  205.6460  147.9210 C   0  0  0  0  0  0  0  0  0  0  0  0
  161.5550  205.6090  145.0880 C   0  0  1  0  0  3  0  0  0  0  0  0
  162.0180  204.4250  145.9370 C   0  0  1  0  0  3  0  0  0  0  0  0
  1 19  1  0  0  0  0
  1 13  2  0  0  0  0
  2  4  2  0  0  0  0
  3 11  1  6  0  0  0
  3 10  1  0  0  0  0
  4 12  1  0  0  0  0
  4  7  1  0  0  0  0
  5 13  1  0  0  0  0
  6  8  1  1  0  0  0
  6  3  1  0  0  0  0
  6 10  1  0  0  0  0
  7 14  1  6  0  0  0
  7  1  1  0  0  0  0
  8 21  1  0  0  0  0
 10 15  1  0  0  0  0
 11 16  1  0  0  0  0
 12 18  2  0  0  0  0
 13  9  1  0  0  0  0
 14 20  2  0  0  0  0
 15 14  1  0  0  0  0
 16 15  1  0  0  0  0
 16  2  1  0  0  0  0
 17 20  1  0  0  0  0
 18  5  1  0  0  0  0
 21 22  1  0  0  0  0
 22 17  3  0  0  0  0
 23 21  1  0  0  0  0
 24 31  1  0  0  0  0
 25 29  2  0  0  0  0
 26 30  1  0  0  0  0
 27 29  1  0  0  0  0
 28 27  1  0  0  0  0
 29 23  1  0  0  0  0
 30 28  1  0  0  0  0
 30 31  1  0  0  0  0
 31 25  1  0  0  0  0
M  END
>  <MODEL>
3

>  <REMARK>
 VINA RESULT:      -8.2      1.976      2.509
  Name = 
  2 active torsions:
  status: ('A' for Active; 'I' for Inactive)
    1  A    between atoms: N_6  and  C_19
    2  A    between atoms: N_6  and  C_30
                            x       y       z     vdW  Elec       q    Type
                         _______ _______ _______ _____ _____    ______ ____

>  <TORSDO>
F 2

$$$$
=
 OpenBabel11052409443D

 31 36  0  0  1  0  0  0  0  0999 V2000
  159.4370  211.4950  154.9570 C   0  0  0  0  0  0  0  0  0  0  0  0
  158.6080  213.2560  152.0440 N   0  0  0  0  0  0  0  0  0  0  0  0
  161.4190  212.6000  149.4270 C   0  0  2  0  0  3  0  0  0  0  0  0
  158.1920  212.5770  153.0830 C   0  0  0  0  0  0  0  0  0  0  0  0
  157.0900  211.4510  155.6910 C   0  0  0  0  0  2  0  0  0  0  0  0
  161.1920  211.2970  149.0520 C   0  0  1  0  0  3  0  0  0  0  0  0
  158.9260  211.3120  153.5540 C   0  0  1  0  0  3  0  0  0  0  0  0
  162.4670  210.5020  148.7310 C   0  0  0  0  0  2  0  0  0  0  0  0
  158.9920  211.8150  157.2610 O   0  0  0  0  0  1  0  0  0  0  0  0
  161.2480  211.6300  150.5040 N   0  0  2  0  0  0  0  0  0  0  0  0
  160.1840  213.4500  149.9000 C   0  0  0  0  0  2  0  0  0  0  0  0
  157.0510  213.0750  153.8040 N   0  0  0  0  0  0  0  0  0  0  0  0
  158.5580  211.5840  155.9610 C   0  0  0  0  0  0  0  0  0  0  0  0
  159.9710  210.8160  152.5840 C   0  0  0  0  0  0  0  0  0  0  0  0
  160.4650  211.8130  151.6190 C   0  0  2  0  0  3  0  0  0  0  0  0
  159.7760  212.8880  151.2980 C   0  0  2  0  0  3  0  0  0  0  0  0
  161.1270  209.0160  151.4630 C   0  0  0  0  0  0  0  0  0  0  0  0
  156.5570  212.6290  154.9260 C   0  0  0  0  0  3  0  0  0  0  0  0
  160.8290  211.6920  155.2040 N   0  0  0  0  0  1  0  0  0  0  0  0
  160.2990  209.5110  152.5350 C   0  0  0  0  0  3  0  0  0  0  0  0
  162.3690  209.0010  149.1160 C   0  0  1  0  0  3  0  0  0  0  0  0
  161.7450  208.8620  150.4390 C   0  0  0  0  0  0  0  0  0  0  0  0
  161.5700  208.2840  148.1300 N   0  0  0  0  0  2  0  0  0  0  0  0
  161.2460  204.1740  150.5910 C   0  0  0  0  0  1  0  0  0  0  0  0
  161.0230  206.1980  149.2030 C   0  0  0  0  0  3  0  0  0  0  0  0
  161.1530  202.6680  148.0290 O   0  0  0  0  0  1  0  0  0  0  0  0
  161.8220  206.1290  146.8510 C   0  0  0  0  0  2  0  0  0  0  0  0
  161.2910  204.6990  146.7960 C   0  0  0  0  0  2  0  0  0  0  0  0
  161.4150  206.8610  148.1030 C   0  0  0  0  0  0  0  0  0  0  0  0
  161.5750  203.9950  148.1160 C   0  0  1  0  0  3  0  0  0  0  0  0
  160.8200  204.7080  149.2380 C   0  0  1  0  0  3  0  0  0  0  0  0
  1 19  1  0  0  0  0
  1 13  2  0  0  0  0
  2  4  2  0  0  0  0
  3 11  1  6  0  0  0
  3 10  1  0  0  0  0
  4  7  1  0  0  0  0
  4 12  1  0  0  0  0
  5 13  1  0  0  0  0
  6  8  1  1  0  0  0
  6  3  1  0  0  0  0
  6 10  1  0  0  0  0
  7 14  1  6  0  0  0
  7  1  1  0  0  0  0
  8 21  1  0  0  0  0
 10 15  1  0  0  0  0
 11 16  1  0  0  0  0
 12 18  2  0  0  0  0
 13  9  1  0  0  0  0
 15 14  1  0  0  0  0
 16 15  1  0  0  0  0
 16  2  1  0  0  0  0
 17 20  1  0  0  0  0
 18  5  1  0  0  0  0
 20 14  2  0  0  0  0
 21 22  1  0  0  0  0
 22 17  3  0  0  0  0
 23 21  1  0  0  0  0
 25 31  1  0  0  0  0
 26 30  1  0  0  0  0
 27 29  1  0  0  0  0
 28 27  1  0  0  0  0
 28 30  1  0  0  0  0
 29 23  1  0  0  0  0
 29 25  2  0  0  0  0
 30 31  1  0  0  0  0
 31 24  1  0  0  0  0
M  END
>  <MODEL>
4

>  <REMARK>
 VINA RESULT:      -7.8      2.070      3.373
  Name = 
  2 active torsions:
  status: ('A' for Active; 'I' for Inactive)
    1  A    between atoms: N_6  and  C_19
    2  A    between atoms: N_6  and  C_30
                            x       y       z     vdW  Elec       q    Type
                         _______ _______ _______ _____ _____    ______ ____

>  <TORSDO>
F 2

$$$$
=
 OpenBabel11052409443D

 31 36  0  0  1  0  0  0  0  0999 V2000
  162.5780  204.7660  146.7100 C   0  0  0  0  0  0  0  0  0  0  0  0
  160.9120  203.2940  149.4190 N   0  0  0  0  0  0  0  0  0  0  0  0
  161.7540  205.3810  152.5980 C   0  0  2  0  0  3  0  0  0  0  0  0
  160.9060  203.5900  148.1430 C   0  0  0  0  0  0  0  0  0  0  0  0
  160.9950  203.7840  145.1040 C   0  0  0  0  0  2  0  0  0  0  0  0
  161.0320  206.5360  152.4080 C   0  0  1  0  0  3  0  0  0  0  0  0
  161.4080  204.9510  147.6380 C   0  0  1  0  0  3  0  0  0  0  0  0
  161.7120  207.8020  152.9530 C   0  0  0  0  0  2  0  0  0  0  0  0
  163.4440  203.9470  144.6640 O   0  0  0  0  0  1  0  0  0  0  0  0
  161.8910  206.0310  151.2990 N   0  0  2  0  0  0  0  0  0  0  0  0
  161.1970  204.0580  151.9590 C   0  0  0  0  0  2  0  0  0  0  0  0
  160.4560  202.5840  147.2180 N   0  0  0  0  0  0  0  0  0  0  0  0
  162.3770  204.1900  145.5210 C   0  0  0  0  0  0  0  0  0  0  0  0
  161.6560  205.9560  148.7370 C   0  0  0  0  0  0  0  0  0  0  0  0
  161.8490  205.3890  150.0830 C   0  0  2  0  0  3  0  0  0  0  0  0
  161.4070  204.1960  150.4180 C   0  0  2  0  0  3  0  0  0  0  0  0
  161.5710  208.2120  149.5930 C   0  0  0  0  0  0  0  0  0  0  0  0
  160.4890  202.6250  145.9140 C   0  0  0  0  0  3  0  0  0  0  0  0
  163.9030  205.0870  147.1360 N   0  0  0  0  0  1  0  0  0  0  0  0
  161.5540  207.2760  148.4960 C   0  0  0  0  0  3  0  0  0  0  0  0
  161.4230  209.0690  152.1030 C   0  0  1  0  0  3  0  0  0  0  0  0
  161.5300  208.7490  150.6720 C   0  0  0  0  0  0  0  0  0  0  0  0
  160.0810  209.5640  152.3860 N   0  0  0  0  0  0  0  0  0  0  0  0
  157.3950  213.3640  153.5680 C   0  0  0  0  0  1  0  0  0  0  0  0
  158.6080  211.2350  153.3010 C   0  0  0  0  0  2  0  0  0  0  0  0
  159.0500  213.7510  156.0080 O   0  0  0  0  0  1  0  0  0  0  0  0
  160.8860  211.0270  154.2700 C   0  0  0  0  0  2  0  0  0  0  0  0
  160.3760  211.8570  155.4450 C   0  0  0  0  0  2  0  0  0  0  0  0
  159.7890  210.5980  153.3320 C   0  0  0  0  0  0  0  0  0  0  0  0
  159.4520  212.9540  154.9350 C   0  0  1  0  0  3  0  0  0  0  0  0
  158.2280  212.3150  154.2770 C   0  0  1  0  0  3  0  0  0  0  0  0
  1 19  1  0  0  0  0
  2 16  1  0  0  0  0
  3 11  1  6  0  0  0
  4  2  2  0  0  0  0
  5 13  1  0  0  0  0
  5 18  1  0  0  0  0
  6  3  1  0  0  0  0
  6  8  1  1  0  0  0
  7  1  1  1  0  0  0
  7  4  1  0  0  0  0
  7 14  1  0  0  0  0
  9 13  1  0  0  0  0
 10  6  1  0  0  0  0
 10  3  1  0  0  0  0
 12  4  1  0  0  0  0
 13  1  2  0  0  0  0
 14 15  1  0  0  0  0
 15 16  1  0  0  0  0
 15 10  1  0  0  0  0
 16 11  1  0  0  0  0
 17 22  3  0  0  0  0
 18 12  2  0  0  0  0
 20 14  2  0  0  0  0
 20 17  1  0  0  0  0
 21 23  1  0  0  0  0
 21  8  1  0  0  0  0
 22 21  1  0  0  0  0
 23 29  2  0  0  0  0
 24 31  1  0  0  0  0
 25 29  1  0  0  0  0
 25 31  1  0  0  0  0
 27 28  1  0  0  0  0
 29 27  1  0  0  0  0
 30 28  1  0  0  0  0
 30 26  1  0  0  0  0
 31 30  1  0  0  0  0
M  END
>  <MODEL>
5

>  <REMARK>
 VINA RESULT:      -7.5      2.013      9.460
  Name = 
  2 active torsions:
  status: ('A' for Active; 'I' for Inactive)
    1  A    between atoms: N_6  and  C_19
    2  A    between atoms: N_6  and  C_30
                            x       y       z     vdW  Elec       q    Type
                         _______ _______ _______ _____ _____    ______ ____

>  <TORSDO>
F 2

$$$$
=
 OpenBabel11052409443D

 31 36  0  0  1  0  0  0  0  0999 V2000
  162.5460  204.7550  146.7180 C   0  0  0  0  0  0  0  0  0  0  0  0
  160.9040  203.2580  149.4280 N   0  0  0  0  0  0  0  0  0  0  0  0
  161.7640  205.3230  152.6170 C   0  0  2  0  0  3  0  0  0  0  0  0
  160.8870  203.5640  148.1540 C   0  0  0  0  0  0  0  0  0  0  0  0
  160.9530  203.7820  145.1160 C   0  0  0  0  0  2  0  0  0  0  0  0
  161.0390  206.4780  152.4410 C   0  0  1  0  0  3  0  0  0  0  0  0
  161.3830  204.9300  147.6560 C   0  0  1  0  0  3  0  0  0  0  0  0
  161.7200  207.7410  152.9900 C   0  0  0  0  0  2  0  0  0  0  0  0
  163.3980  203.9530  144.6600 O   0  0  0  0  0  1  0  0  0  0  0  0
  161.8900  205.9830  151.3210 N   0  0  2  0  0  0  0  0  0  0  0  0
  161.2060  204.0030  151.9720 C   0  0  0  0  0  2  0  0  0  0  0  0
  160.4330  202.5640  147.2250 N   0  0  0  0  0  0  0  0  0  0  0  0
  162.3360  204.1870  145.5260 C   0  0  0  0  0  0  0  0  0  0  0  0
  161.6360  205.9270  148.7610 C   0  0  0  0  0  0  0  0  0  0  0  0
  161.8400  205.3500  150.1010 C   0  0  2  0  0  3  0  0  0  0  0  0
  161.4040  204.1530  150.4300 C   0  0  2  0  0  3  0  0  0  0  0  0
  161.5520  208.1770  149.6350 C   0  0  0  0  0  0  0  0  0  0  0  0
  160.4550  202.6150  145.9210 C   0  0  0  0  0  3  0  0  0  0  0  0
  163.8730  205.0750  147.1360 N   0  0  0  0  0  1  0  0  0  0  0  0
  161.5290  207.2490  148.5310 C   0  0  0  0  0  3  0  0  0  0  0  0
  161.4220  209.0140  152.1520 C   0  0  1  0  0  3  0  0  0  0  0  0
  161.5190  208.7050  150.7180 C   0  0  0  0  0  0  0  0  0  0  0  0
  160.0810  209.5040  152.4490 N   0  0  0  0  0  2  0  0  0  0  0  0
  159.9560  211.8740  156.6230 C   0  0  0  0  0  1  0  0  0  0  0  0
  160.3110  210.9370  154.3710 C   0  0  0  0  0  3  0  0  0  0  0  0
  158.8230  214.2400  155.2240 O   0  0  0  0  0  1  0  0  0  0  0  0
  158.8440  211.6960  152.5150 C   0  0  0  0  0  2  0  0  0  0  0  0
  158.9000  213.0850  153.1450 C   0  0  0  0  0  2  0  0  0  0  0  0
  159.8070  210.7240  153.1450 C   0  0  0  0  0  0  0  0  0  0  0  0
  158.8460  212.9630  154.6620 C   0  0  1  0  0  3  0  0  0  0  0  0
  160.0810  212.2030  155.1490 C   0  0  1  0  0  3  0  0  0  0  0  0
  1 19  1  0  0  0  0
  2 16  1  0  0  0  0
  3 11  1  6  0  0  0
  4  2  2  0  0  0  0
  5 13  1  0  0  0  0
  5 18  1  0  0  0  0
  6  3  1  0  0  0  0
  6  8  1  1  0  0  0
  7  1  1  1  0  0  0
  7  4  1  0  0  0  0
  7 14  1  0  0  0  0
  9 13  1  0  0  0  0
 10  6  1  0  0  0  0
 10  3  1  0  0  0  0
 12  4  1  0  0  0  0
 13  1  2  0  0  0  0
 14 15  1  0  0  0  0
 15 16  1  0  0  0  0
 15 10  1  0  0  0  0
 16 11  1  0  0  0  0
 17 22  3  0  0  0  0
 18 12  2  0  0  0  0
 20 14  2  0  0  0  0
 20 17  1  0  0  0  0
 21 23  1  0  0  0  0
 21  8  1  0  0  0  0
 22 21  1  0  0  0  0
 23 29  1  0  0  0  0
 25 31  1  0  0  0  0
 27 28  1  0  0  0  0
 27 29  1  0  0  0  0
 28 30  1  0  0  0  0
 29 25  2  0  0  0  0
 30 31  1  0  0  0  0
 30 26  1  0  0  0  0
 31 24  1  0  0  0  0
M  END
>  <MODEL>
6

>  <REMARK>
 VINA RESULT:      -7.5      2.027      9.501
  Name = 
  2 active torsions:
  status: ('A' for Active; 'I' for Inactive)
    1  A    between atoms: N_6  and  C_19
    2  A    between atoms: N_6  and  C_30
                            x       y       z     vdW  Elec       q    Type
                         _______ _______ _______ _____ _____    ______ ____

>  <TORSDO>
F 2

$$$$
