=
 OpenBabel11042420483D

 48 50  0  0  1  0  0  0  0  0999 V2000
  160.8010  211.7920  147.3280 C   0  0  0  0  0  3  0  0  0  0  0  0
  161.8400  211.6270  148.1630 C   0  0  0  0  0  0  0  0  0  0  0  0
  162.0650  208.0160  150.4860 C   0  0  0  0  0  0  0  0  0  0  0  0
  161.9410  210.4380  150.3720 C   0  0  0  0  0  3  0  0  0  0  0  0
  161.9300  210.3890  148.9690 C   0  0  0  0  0  0  0  0  0  0  0  0
  161.9790  209.1390  148.3340 C   0  0  0  0  0  3  0  0  0  0  0  0
  162.0510  207.9640  149.0860 C   0  0  0  0  0  3  0  0  0  0  0  0
  162.0070  209.2620  151.1230 C   0  0  0  0  0  3  0  0  0  0  0  0
  161.1280  205.7710  151.1220 N   0  0  0  0  0  2  0  0  0  0  0  0
  162.1320  206.7790  151.2810 C   0  0  0  0  0  0  0  0  0  0  0  0
  163.0790  206.6020  152.0960 O   0  0  0  0  0  0  0  0  0  0  0  0
  161.1210  204.5390  151.8990 C   0  0  0  0  0  2  0  0  0  0  0  0
  160.3880  203.4390  151.1450 C   0  0  0  0  0  2  0  0  0  0  0  0
  161.3400  202.6700  150.2380 C   0  0  0  0  0  2  0  0  0  0  0  0
  160.6100  202.0790  149.0390 C   0  0  2  0  0  3  0  0  0  0  0  0
  160.7960  200.6990  149.0130 O   0  0  0  0  0  1  0  0  0  0  0  0
  161.9410  204.7870  146.5770 C   0  0  0  0  0  0  0  0  0  0  0  0
  161.1020  202.6780  147.7620 C   0  0  0  0  0  0  0  0  0  0  0  0
  161.5110  204.0530  147.7300 N   0  0  0  0  0  2  0  0  0  0  0  0
  161.9180  204.1970  145.2080 C   0  0  0  0  0  1  0  0  0  0  0  0
  162.3310  205.9750  146.7180 O   0  0  0  0  0  0  0  0  0  0  0  0
  161.1560  201.9590  146.7300 O   0  0  0  0  0  0  0  0  0  0  0  0
  162.8550  212.6290  148.3300 N   0  0  0  0  0  2  0  0  0  0  0  0
  162.5950  213.9580  148.2930 O   0  0  0  0  0  1  0  0  0  0  0  0
  160.6800  212.8620  146.3820 N   0  0  0  0  0  0  0  0  0  0  0  0
  158.2320  213.0370  146.1610 C   0  0  0  0  0  1  0  0  0  0  0  0
  159.5310  213.7530  146.5130 C   0  0  1  0  0  3  0  0  0  0  0  0
  159.4860  214.3820  147.9160 C   0  0  0  0  0  2  0  0  0  0  0  0
  156.3640  213.5050  150.3820 N   0  0  0  0  0  2  0  0  0  0  0  0
  158.5590  214.3050  150.1720 C   0  0  2  0  0  3  0  0  0  0  0  0
  157.2780  214.4510  150.8830 N   0  0  0  0  0  2  0  0  0  0  0  0
  157.1220  214.4480  148.2280 C   0  0  0  0  0  2  0  0  0  0  0  0
  155.9350  213.9390  149.0510 C   0  0  0  0  0  2  0  0  0  0  0  0
  158.3750  213.9120  148.7590 N   0  0  0  0  0  0  0  0  0  0  0  0
  159.4460  213.3020  150.8960 C   0  0  0  0  0  2  0  0  0  0  0  0
  159.2830  213.4580  152.2730 O   0  0  0  0  0  0  0  0  0  0  0  0
  158.9480  212.1910  152.7460 C   0  0  0  0  0  2  0  0  0  0  0  0
  159.0070  212.1390  154.2760 C   0  0  2  0  0  3  0  0  0  0  0  0
  159.9200  213.0310  156.0630 O   0  0  0  0  0  1  0  0  0  0  0  0
  159.4360  213.3380  154.8750 O   0  0  0  0  0  0  0  0  0  0  0  0
  159.6370  210.8740  154.8720 C   0  0  0  0  0  2  0  0  0  0  0  0
  161.2540  209.1960  154.6450 C   0  0  0  0  0  2  0  0  0  0  0  0
  161.9940  210.2880  155.2660 C   0  0  1  0  0  3  0  0  0  0  0  0
  160.9350  210.5800  154.2640 N   0  0  0  0  0  0  0  0  0  0  0  0
  161.7860  209.2520  157.2080 C   0  0  0  0  0  1  0  0  0  0  0  0
  161.5590  210.4790  156.5840 O   0  0  0  0  0  0  0  0  0  0  0  0
  161.4560  212.8350  145.1400 C   0  0  0  0  0  2  0  0  0  0  0  0
  162.4720  213.9650  145.1110 C   0  0  0  0  0  1  0  0  0  0  0  0
  1  2  2  0  0  0  0
  2 23  1  0  0  0  0
  2  5  1  0  0  0  0
  3  8  1  0  0  0  0
  3 10  1  0  0  0  0
  4  8  2  0  0  0  0
  5  4  1  0  0  0  0
  6  5  2  0  0  0  0
  6  7  1  0  0  0  0
  7  3  2  0  0  0  0
  9 10  1  0  0  0  0
  9 12  1  0  0  0  0
 10 11  2  0  0  0  0
 13 12  1  0  0  0  0
 14 13  1  0  0  0  0
 15 16  1  6  0  0  0
 15 14  1  0  0  0  0
 17 21  2  0  0  0  0
 17 19  1  0  0  0  0
 18 15  1  0  0  0  0
 19 18  1  0  0  0  0
 20 17  1  0  0  0  0
 22 18  2  0  0  0  0
 24 23  1  0  0  0  0
 25 27  1  0  0  0  0
 25  1  1  0  0  0  0
 27 26  1  1  0  0  0
 27 28  1  0  0  0  0
 28 34  1  0  0  0  0
 29 31  1  0  0  0  0
 30 31  1  0  0  0  0
 30 35  1  1  0  0  0
 32 34  1  0  0  0  0
 32 33  1  0  0  0  0
 33 29  1  0  0  0  0
 34 30  1  0  0  0  0
 35 36  1  0  0  0  0
 36 37  1  0  0  0  0
 38 37  1  6  0  0  0
 38 41  1  0  0  0  0
 38 40  1  0  0  0  0
 40 39  1  0  0  0  0
 42 43  1  0  0  0  0
 43 46  1  1  0  0  0
 44 42  1  0  0  0  0
 44 41  1  0  0  0  0
 44 43  1  0  0  0  0
 46 45  1  0  0  0  0
 47 25  1  0  0  0  0
 48 47  1  0  0  0  0
M  END
>  <MODEL>
1

>  <REMARK>
 VINA RESULT:      -6.2      0.000      0.000
  Name = 
  21 active torsions:
  status: ('A' for Active; 'I' for Inactive)
    1  A    between atoms: C_1  and  C_23
    2  A    between atoms: C_1  and  C_35
    3  A    between atoms: C_2  and  N_22
    4  A    between atoms: C_2  and  C_23
    5  A    between atoms: C_3  and  N_15
    6  A    between atoms: C_5  and  N_15
    7  A    between atoms: C_6  and  C_25
    8  A    between atoms: C_7  and  N_15
    9  A    between atoms: C_7  and  C_36
   10  A    between atoms: C_8  and  C_16
   11  A    between atoms: C_8  and  N_29
   12  A    between atoms: O_12  and  C_16
   13  A    between atoms: C_13  and  C_38
   14  A    between atoms: C_16  and  C_19
   15  A    between atoms: N_18  and  C_32
   16  A    between atoms: C_19  and  O_31
   17  A    between atoms: C_24  and  C_35
   18  A    between atoms: C_26  and  C_32
   19  A    between atoms: C_27  and  O_41
   20  A    between atoms: O_31  and  C_38
   21  A    between atoms: C_36  and  N_48
                            x       y       z     vdW  Elec       q    Type
                         _______ _______ _______ _____ _____    ______ ____

>  <TORSDO>
F 21

$$$$
=
 OpenBabel11042420483D

 48 50  0  0  1  0  0  0  0  0999 V2000
  161.4590  207.1400  150.4520 C   0  0  0  0  0  3  0  0  0  0  0  0
  161.3580  205.8930  149.9640 C   0  0  0  0  0  0  0  0  0  0  0  0
  161.1000  205.3150  145.7120 C   0  0  0  0  0  0  0  0  0  0  0  0
  161.8820  204.5800  147.8890 C   0  0  0  0  0  3  0  0  0  0  0  0
  161.2840  205.6930  148.5000 C   0  0  0  0  0  0  0  0  0  0  0  0
  160.5860  206.6110  147.7000 C   0  0  0  0  0  3  0  0  0  0  0  0
  160.4990  206.4250  146.3180 C   0  0  0  0  0  3  0  0  0  0  0  0
  161.7900  204.3920  146.5090 C   0  0  0  0  0  3  0  0  0  0  0  0
  161.6560  206.0180  143.3620 N   0  0  0  0  0  2  0  0  0  0  0  0
  161.0020  205.1120  144.2570 C   0  0  0  0  0  0  0  0  0  0  0  0
  160.3500  204.1350  143.7980 O   0  0  0  0  0  0  0  0  0  0  0  0
  161.5740  205.8890  141.9140 C   0  0  0  0  0  2  0  0  0  0  0  0
  162.3700  206.9950  141.2350 C   0  0  0  0  0  2  0  0  0  0  0  0
  162.0400  207.0730  139.7510 C   0  0  0  0  0  2  0  0  0  0  0  0
  161.0750  208.2140  139.4550 C   0  0  2  0  0  3  0  0  0  0  0  0
  160.5090  208.0330  138.1950 O   0  0  0  0  0  1  0  0  0  0  0  0
  162.2650  211.6330  140.8900 C   0  0  0  0  0  0  0  0  0  0  0  0
  161.7720  209.5340  139.5090 C   0  0  0  0  0  0  0  0  0  0  0  0
  161.7090  210.3260  140.7050 N   0  0  0  0  0  2  0  0  0  0  0  0
  162.9160  212.3830  139.7790 C   0  0  0  0  0  1  0  0  0  0  0  0
  162.1820  212.1780  142.0220 O   0  0  0  0  0  0  0  0  0  0  0  0
  162.4120  209.9300  138.5010 O   0  0  0  0  0  0  0  0  0  0  0  0
  161.2830  204.7400  150.8180 N   0  0  0  0  0  2  0  0  0  0  0  0
  160.3470  203.7730  150.6720 O   0  0  0  0  0  1  0  0  0  0  0  0
  161.6980  207.4580  151.8290 N   0  0  0  0  0  0  0  0  0  0  0  0
  162.3290  209.7160  151.0690 C   0  0  0  0  0  1  0  0  0  0  0  0
  161.7500  208.8700  152.1970 C   0  0  1  0  0  3  0  0  0  0  0  0
  160.3650  209.3670  152.6460 C   0  0  0  0  0  2  0  0  0  0  0  0
  159.9910  211.6700  155.9860 N   0  0  0  0  0  2  0  0  0  0  0  0
  159.3210  211.2620  153.7740 C   0  0  2  0  0  3  0  0  0  0  0  0
  158.8860  211.6910  155.1130 N   0  0  0  0  0  2  0  0  0  0  0  0
  160.2440  209.4070  155.0280 C   0  0  0  0  0  2  0  0  0  0  0  0
  160.3120  210.2740  156.2890 C   0  0  0  0  0  2  0  0  0  0  0  0
  160.3850  210.2380  153.8330 N   0  0  0  0  0  0  0  0  0  0  0  0
  159.7800  212.4660  152.9640 C   0  0  0  0  0  2  0  0  0  0  0  0
  159.0120  212.5550  151.8020 O   0  0  0  0  0  0  0  0  0  0  0  0
  159.7400  213.3810  150.9480 C   0  0  0  0  0  2  0  0  0  0  0  0
  158.8900  213.8240  149.7520 C   0  0  2  0  0  3  0  0  0  0  0  0
  157.1830  213.3560  148.4540 O   0  0  0  0  0  1  0  0  0  0  0  0
  157.6260  213.2080  149.6870 O   0  0  0  0  0  0  0  0  0  0  0  0
  159.6270  213.8990  148.4090 C   0  0  0  0  0  2  0  0  0  0  0  0
  161.7430  213.3760  147.5530 C   0  0  0  0  0  2  0  0  0  0  0  0
  160.8590  212.4660  146.8340 C   0  0  1  0  0  3  0  0  0  0  0  0
  160.5840  212.8040  148.2560 N   0  0  0  0  0  0  0  0  0  0  0  0
  159.5730  212.2180  145.0520 C   0  0  0  0  0  1  0  0  0  0  0  0
  160.0500  213.1820  145.9420 O   0  0  0  0  0  0  0  0  0  0  0  0
  162.2290  206.4380  152.7370 C   0  0  0  0  0  2  0  0  0  0  0  0
  161.2160  206.0950  153.8170 C   0  0  0  0  0  1  0  0  0  0  0  0
  1 25  1  0  0  0  0
  2  1  2  0  0  0  0
  2 23  1  0  0  0  0
  3  7  2  0  0  0  0
  3  8  1  0  0  0  0
  4  5  1  0  0  0  0
  5  2  1  0  0  0  0
  6  5  2  0  0  0  0
  7  6  1  0  0  0  0
  8  4  2  0  0  0  0
  9 10  1  0  0  0  0
 10  3  1  0  0  0  0
 11 10  2  0  0  0  0
 12  9  1  0  0  0  0
 13 12  1  0  0  0  0
 14 13  1  0  0  0  0
 15 16  1  6  0  0  0
 15 18  1  0  0  0  0
 15 14  1  0  0  0  0
 17 21  2  0  0  0  0
 18 19  1  0  0  0  0
 19 17  1  0  0  0  0
 20 17  1  0  0  0  0
 22 18  2  0  0  0  0
 24 23  1  0  0  0  0
 25 27  1  0  0  0  0
 25 47  1  0  0  0  0
 27 26  1  6  0  0  0
 27 28  1  0  0  0  0
 28 34  1  0  0  0  0
 29 33  1  0  0  0  0
 30 35  1  6  0  0  0
 30 34  1  0  0  0  0
 30 31  1  0  0  0  0
 31 29  1  0  0  0  0
 32 33  1  0  0  0  0
 34 32  1  0  0  0  0
 36 35  1  0  0  0  0
 37 36  1  0  0  0  0
 38 41  1  6  0  0  0
 38 37  1  0  0  0  0
 39 40  1  0  0  0  0
 40 38  1  0  0  0  0
 42 44  1  0  0  0  0
 43 46  1  6  0  0  0
 43 42  1  0  0  0  0
 43 44  1  0  0  0  0
 44 41  1  0  0  0  0
 45 46  1  0  0  0  0
 47 48  1  0  0  0  0
M  END
>  <MODEL>
2

>  <REMARK>
 VINA RESULT:      -5.9      3.632      8.231
  Name = 
  21 active torsions:
  status: ('A' for Active; 'I' for Inactive)
    1  A    between atoms: C_1  and  C_23
    2  A    between atoms: C_1  and  C_35
    3  A    between atoms: C_2  and  N_22
    4  A    between atoms: C_2  and  C_23
    5  A    between atoms: C_3  and  N_15
    6  A    between atoms: C_5  and  N_15
    7  A    between atoms: C_6  and  C_25
    8  A    between atoms: C_7  and  N_15
    9  A    between atoms: C_7  and  C_36
   10  A    between atoms: C_8  and  C_16
   11  A    between atoms: C_8  and  N_29
   12  A    between atoms: O_12  and  C_16
   13  A    between atoms: C_13  and  C_38
   14  A    between atoms: C_16  and  C_19
   15  A    between atoms: N_18  and  C_32
   16  A    between atoms: C_19  and  O_31
   17  A    between atoms: C_24  and  C_35
   18  A    between atoms: C_26  and  C_32
   19  A    between atoms: C_27  and  O_41
   20  A    between atoms: O_31  and  C_38
   21  A    between atoms: C_36  and  N_48
                            x       y       z     vdW  Elec       q    Type
                         _______ _______ _______ _____ _____    ______ ____

>  <TORSDO>
F 21

$$$$
=
 OpenBabel11042420483D

 48 50  0  0  1  0  0  0  0  0999 V2000
  160.1450  209.4430  154.0780 C   0  0  0  0  0  3  0  0  0  0  0  0
  161.0080  209.1560  153.0900 C   0  0  0  0  0  0  0  0  0  0  0  0
  161.3630  205.0900  151.7390 C   0  0  0  0  0  0  0  0  0  0  0  0
  161.2110  206.6970  153.5520 C   0  0  0  0  0  3  0  0  0  0  0  0
  161.1430  207.7550  152.6330 C   0  0  0  0  0  0  0  0  0  0  0  0
  161.1770  207.4640  151.2610 C   0  0  0  0  0  3  0  0  0  0  0  0
  161.2910  206.1430  150.8180 C   0  0  0  0  0  3  0  0  0  0  0  0
  161.3190  205.3770  153.1090 C   0  0  0  0  0  3  0  0  0  0  0  0
  160.6060  203.2140  150.2440 N   0  0  0  0  0  2  0  0  0  0  0  0
  161.4740  203.6970  151.2750 C   0  0  0  0  0  0  0  0  0  0  0  0
  162.3400  202.9310  151.7800 O   0  0  0  0  0  0  0  0  0  0  0  0
  160.6450  201.8400  149.7630 C   0  0  0  0  0  2  0  0  0  0  0  0
  161.2710  201.7800  148.3770 C   0  0  0  0  0  2  0  0  0  0  0  0
  160.3310  201.1120  147.3820 C   0  0  0  0  0  2  0  0  0  0  0  0
  160.2230  201.9150  146.0920 C   0  0  2  0  0  3  0  0  0  0  0  0
  160.5920  201.1170  145.0120 O   0  0  0  0  0  1  0  0  0  0  0  0
  161.2890  205.5870  146.8300 C   0  0  0  0  0  0  0  0  0  0  0  0
  161.0930  203.1290  146.1410 C   0  0  0  0  0  0  0  0  0  0  0  0
  160.6070  204.3290  146.7620 N   0  0  0  0  0  2  0  0  0  0  0  0
  162.5960  205.8180  146.1520 C   0  0  0  0  0  1  0  0  0  0  0  0
  160.7600  206.5360  147.4660 O   0  0  0  0  0  0  0  0  0  0  0  0
  162.2460  203.0760  145.6420 O   0  0  0  0  0  0  0  0  0  0  0  0
  161.8360  210.1580  152.4800 N   0  0  0  0  0  2  0  0  0  0  0  0
  161.7080  210.5350  151.1860 O   0  0  0  0  0  1  0  0  0  0  0  0
  159.8060  210.7700  154.5010 N   0  0  0  0  0  0  0  0  0  0  0  0
  157.3770  211.1900  154.4700 C   0  0  0  0  0  1  0  0  0  0  0  0
  158.7210  211.4470  153.7960 C   0  0  1  0  0  3  0  0  0  0  0  0
  159.0190  212.9480  153.6480 C   0  0  0  0  0  2  0  0  0  0  0  0
  156.6010  214.4530  150.7350 N   0  0  0  0  0  2  0  0  0  0  0  0
  158.4820  213.1590  151.2770 C   0  0  2  0  0  3  0  0  0  0  0  0
  157.3230  213.2970  150.3790 N   0  0  0  0  0  2  0  0  0  0  0  0
  156.7820  213.4370  152.9790 C   0  0  0  0  0  2  0  0  0  0  0  0
  155.8890  214.1850  151.9850 C   0  0  0  0  0  2  0  0  0  0  0  0
  158.1920  213.6380  152.6450 N   0  0  0  0  0  0  0  0  0  0  0  0
  159.6820  213.8920  150.6960 C   0  0  0  0  0  2  0  0  0  0  0  0
  160.2660  213.1010  149.7050 O   0  0  0  0  0  0  0  0  0  0  0  0
  160.5800  213.9830  148.6730 C   0  0  0  0  0  2  0  0  0  0  0  0
  161.1600  213.2370  147.4670 C   0  0  2  0  0  3  0  0  0  0  0  0
  163.0500  212.2220  147.9330 O   0  0  0  0  0  1  0  0  0  0  0  0
  162.5620  213.3090  147.3670 O   0  0  0  0  0  0  0  0  0  0  0  0
  160.4200  213.4490  146.1400 C   0  0  0  0  0  2  0  0  0  0  0  0
  161.0160  212.9580  143.9290 C   0  0  0  0  0  2  0  0  0  0  0  0
  159.7030  212.3400  144.0640 C   0  0  1  0  0  3  0  0  0  0  0  0
  160.6480  212.3410  145.2120 N   0  0  0  0  0  0  0  0  0  0  0  0
  158.8100  214.0560  142.9910 C   0  0  0  0  0  1  0  0  0  0  0  0
  158.7130  213.3260  144.1770 O   0  0  0  0  0  0  0  0  0  0  0  0
  160.7350  211.5360  155.3350 C   0  0  0  0  0  2  0  0  0  0  0  0
  160.5770  211.1680  156.8010 C   0  0  0  0  0  1  0  0  0  0  0  0
  1 25  1  0  0  0  0
  2  1  2  0  0  0  0
  3  8  1  0  0  0  0
  5  2  1  0  0  0  0
  5  4  1  0  0  0  0
  6  5  2  0  0  0  0
  7  6  1  0  0  0  0
  7  3  2  0  0  0  0
  8  4  2  0  0  0  0
  9 10  1  0  0  0  0
 10  3  1  0  0  0  0
 10 11  2  0  0  0  0
 12  9  1  0  0  0  0
 13 12  1  0  0  0  0
 14 13  1  0  0  0  0
 15 16  1  6  0  0  0
 15 18  1  0  0  0  0
 15 14  1  0  0  0  0
 17 21  2  0  0  0  0
 18 19  1  0  0  0  0
 19 17  1  0  0  0  0
 20 17  1  0  0  0  0
 22 18  2  0  0  0  0
 23  2  1  0  0  0  0
 24 23  1  0  0  0  0
 25 47  1  0  0  0  0
 27 26  1  1  0  0  0
 27 25  1  0  0  0  0
 28 27  1  0  0  0  0
 29 33  1  0  0  0  0
 30 35  1  6  0  0  0
 30 34  1  0  0  0  0
 31 29  1  0  0  0  0
 31 30  1  0  0  0  0
 33 32  1  0  0  0  0
 34 32  1  0  0  0  0
 34 28  1  0  0  0  0
 36 35  1  0  0  0  0
 37 36  1  0  0  0  0
 38 41  1  6  0  0  0
 38 37  1  0  0  0  0
 40 38  1  0  0  0  0
 40 39  1  0  0  0  0
 42 43  1  0  0  0  0
 42 44  1  0  0  0  0
 43 46  1  1  0  0  0
 43 44  1  0  0  0  0
 44 41  1  0  0  0  0
 45 46  1  0  0  0  0
 47 48  1  0  0  0  0
M  END
>  <MODEL>
3

>  <REMARK>
 VINA RESULT:      -5.8      2.407      6.355
  Name = 
  21 active torsions:
  status: ('A' for Active; 'I' for Inactive)
    1  A    between atoms: C_1  and  C_23
    2  A    between atoms: C_1  and  C_35
    3  A    between atoms: C_2  and  N_22
    4  A    between atoms: C_2  and  C_23
    5  A    between atoms: C_3  and  N_15
    6  A    between atoms: C_5  and  N_15
    7  A    between atoms: C_6  and  C_25
    8  A    between atoms: C_7  and  N_15
    9  A    between atoms: C_7  and  C_36
   10  A    between atoms: C_8  and  C_16
   11  A    between atoms: C_8  and  N_29
   12  A    between atoms: O_12  and  C_16
   13  A    between atoms: C_13  and  C_38
   14  A    between atoms: C_16  and  C_19
   15  A    between atoms: N_18  and  C_32
   16  A    between atoms: C_19  and  O_31
   17  A    between atoms: C_24  and  C_35
   18  A    between atoms: C_26  and  C_32
   19  A    between atoms: C_27  and  O_41
   20  A    between atoms: O_31  and  C_38
   21  A    between atoms: C_36  and  N_48
                            x       y       z     vdW  Elec       q    Type
                         _______ _______ _______ _____ _____    ______ ____

>  <TORSDO>
F 21

$$$$
=
 OpenBabel11042420483D

 48 50  0  0  1  0  0  0  0  0999 V2000
  161.0690  203.4370  149.9770 C   0  0  0  0  0  3  0  0  0  0  0  0
  161.2750  203.5410  151.3010 C   0  0  0  0  0  0  0  0  0  0  0  0
  160.9310  207.3990  153.1660 C   0  0  0  0  0  0  0  0  0  0  0  0
  161.1800  204.9910  153.3480 C   0  0  0  0  0  3  0  0  0  0  0  0
  161.1450  204.8640  151.9500 C   0  0  0  0  0  0  0  0  0  0  0  0
  161.0100  206.0210  151.1680 C   0  0  0  0  0  3  0  0  0  0  0  0
  160.8990  207.2770  151.7710 C   0  0  0  0  0  3  0  0  0  0  0  0
  161.0750  206.2470  153.9490 C   0  0  0  0  0  3  0  0  0  0  0  0
  160.1570  209.7920  153.1260 N   0  0  0  0  0  2  0  0  0  0  0  0
  160.8230  208.7220  153.8040 C   0  0  0  0  0  0  0  0  0  0  0  0
  161.3100  208.9110  154.9520 O   0  0  0  0  0  0  0  0  0  0  0  0
  160.0420  211.1300  153.6890 C   0  0  0  0  0  2  0  0  0  0  0  0
  158.7410  211.2720  154.4640 C   0  0  0  0  0  2  0  0  0  0  0  0
  158.5310  212.7090  154.9220 C   0  0  0  0  0  2  0  0  0  0  0  0
  157.0530  213.0220  155.1140 C   0  0  2  0  0  3  0  0  0  0  0  0
  156.4060  211.9110  155.6490 O   0  0  0  0  0  1  0  0  0  0  0  0
  156.7720  214.1860  151.4090 C   0  0  0  0  0  0  0  0  0  0  0  0
  156.4120  213.4040  153.8200 C   0  0  0  0  0  0  0  0  0  0  0  0
  157.2310  213.7390  152.6900 N   0  0  0  0  0  2  0  0  0  0  0  0
  155.3320  214.4530  151.1320 C   0  0  0  0  0  1  0  0  0  0  0  0
  157.6120  214.3820  150.4920 O   0  0  0  0  0  0  0  0  0  0  0  0
  155.1570  213.4190  153.7400 O   0  0  0  0  0  0  0  0  0  0  0  0
  161.6530  202.4150  152.1070 N   0  0  0  0  0  2  0  0  0  0  0  0
  162.8400  201.7760  151.9740 O   0  0  0  0  0  1  0  0  0  0  0  0
  161.0070  202.1990  149.2590 N   0  0  0  0  0  0  0  0  0  0  0  0
  160.4130  201.8830  146.8880 C   0  0  0  0  0  1  0  0  0  0  0  0
  161.5200  202.1840  147.8920 C   0  0  1  0  0  3  0  0  0  0  0  0
  162.2550  203.4960  147.5720 C   0  0  0  0  0  2  0  0  0  0  0  0
  160.6290  206.0850  144.8790 N   0  0  0  0  0  2  0  0  0  0  0  0
  162.0860  205.7650  146.6900 C   0  0  2  0  0  3  0  0  0  0  0  0
  161.8670  206.4810  145.4220 N   0  0  0  0  0  2  0  0  0  0  0  0
  161.5660  203.8410  145.3140 C   0  0  0  0  0  2  0  0  0  0  0  0
  160.7710  204.7280  144.3500 C   0  0  0  0  0  2  0  0  0  0  0  0
  161.5250  204.3980  146.6660 N   0  0  0  0  0  0  0  0  0  0  0  0
  161.5040  206.5630  147.8470 C   0  0  0  0  0  2  0  0  0  0  0  0
  162.3000  207.6880  148.0730 O   0  0  0  0  0  0  0  0  0  0  0  0
  161.4400  208.6370  148.6230 C   0  0  0  0  0  2  0  0  0  0  0  0
  162.2080  209.8880  149.0620 C   0  0  2  0  0  3  0  0  0  0  0  0
  162.8580  209.6060  151.1410 O   0  0  0  0  0  1  0  0  0  0  0  0
  161.9830  210.2590  150.4020 O   0  0  0  0  0  0  0  0  0  0  0  0
  162.1900  211.0580  148.0710 C   0  0  0  0  0  2  0  0  0  0  0  0
  160.6090  212.7160  147.5900 C   0  0  0  0  0  2  0  0  0  0  0  0
  161.8140  213.4820  147.8810 C   0  0  1  0  0  3  0  0  0  0  0  0
  161.5240  212.2330  148.6340 N   0  0  0  0  0  0  0  0  0  0  0  0
  162.2890  214.0590  145.7990 C   0  0  0  0  0  1  0  0  0  0  0  0
  162.7630  213.2950  146.8670 O   0  0  0  0  0  0  0  0  0  0  0  0
  160.1420  201.1160  149.7350 C   0  0  0  0  0  2  0  0  0  0  0  0
  158.6790  201.4460  149.4940 C   0  0  0  0  0  1  0  0  0  0  0  0
  1  2  2  0  0  0  0
  2  5  1  0  0  0  0
  2 23  1  0  0  0  0
  3 10  1  0  0  0  0
  3  8  1  0  0  0  0
  4  8  2  0  0  0  0
  5  4  1  0  0  0  0
  6  7  1  0  0  0  0
  6  5  2  0  0  0  0
  7  3  2  0  0  0  0
  9 12  1  0  0  0  0
  9 10  1  0  0  0  0
 10 11  2  0  0  0  0
 12 13  1  0  0  0  0
 13 14  1  0  0  0  0
 14 15  1  0  0  0  0
 15 16  1  6  0  0  0
 17 19  1  0  0  0  0
 18 15  1  0  0  0  0
 19 18  1  0  0  0  0
 20 17  1  0  0  0  0
 21 17  2  0  0  0  0
 22 18  2  0  0  0  0
 24 23  1  0  0  0  0
 25 47  1  0  0  0  0
 25  1  1  0  0  0  0
 27 26  1  6  0  0  0
 27 25  1  0  0  0  0
 28 27  1  0  0  0  0
 29 31  1  0  0  0  0
 30 35  1  1  0  0  0
 31 30  1  0  0  0  0
 32 34  1  0  0  0  0
 33 29  1  0  0  0  0
 33 32  1  0  0  0  0
 34 30  1  0  0  0  0
 34 28  1  0  0  0  0
 35 36  1  0  0  0  0
 36 37  1  0  0  0  0
 37 38  1  0  0  0  0
 38 41  1  6  0  0  0
 38 40  1  0  0  0  0
 40 39  1  0  0  0  0
 41 44  1  0  0  0  0
 42 43  1  0  0  0  0
 42 44  1  0  0  0  0
 43 46  1  6  0  0  0
 43 44  1  0  0  0  0
 45 46  1  0  0  0  0
 48 47  1  0  0  0  0
M  END
>  <MODEL>
4

>  <REMARK>
 VINA RESULT:      -5.7      2.230      9.678
  Name = 
  21 active torsions:
  status: ('A' for Active; 'I' for Inactive)
    1  A    between atoms: C_1  and  C_23
    2  A    between atoms: C_1  and  C_35
    3  A    between atoms: C_2  and  N_22
    4  A    between atoms: C_2  and  C_23
    5  A    between atoms: C_3  and  N_15
    6  A    between atoms: C_5  and  N_15
    7  A    between atoms: C_6  and  C_25
    8  A    between atoms: C_7  and  N_15
    9  A    between atoms: C_7  and  C_36
   10  A    between atoms: C_8  and  C_16
   11  A    between atoms: C_8  and  N_29
   12  A    between atoms: O_12  and  C_16
   13  A    between atoms: C_13  and  C_38
   14  A    between atoms: C_16  and  C_19
   15  A    between atoms: N_18  and  C_32
   16  A    between atoms: C_19  and  O_31
   17  A    between atoms: C_24  and  C_35
   18  A    between atoms: C_26  and  C_32
   19  A    between atoms: C_27  and  O_41
   20  A    between atoms: O_31  and  C_38
   21  A    between atoms: C_36  and  N_48
                            x       y       z     vdW  Elec       q    Type
                         _______ _______ _______ _____ _____    ______ ____

>  <TORSDO>
F 21

$$$$
=
 OpenBabel11042420483D

 48 50  0  0  1  0  0  0  0  0999 V2000
  160.5530  208.6230  153.2890 C   0  0  0  0  0  3  0  0  0  0  0  0
  161.1490  207.5120  152.8260 C   0  0  0  0  0  0  0  0  0  0  0  0
  161.4320  206.8510  148.5870 C   0  0  0  0  0  0  0  0  0  0  0  0
  162.1000  208.0790  150.5720 C   0  0  0  0  0  3  0  0  0  0  0  0
  161.2430  207.2980  151.3650 C   0  0  0  0  0  0  0  0  0  0  0  0
  160.4880  206.2870  150.7530 C   0  0  0  0  0  3  0  0  0  0  0  0
  160.5790  206.0680  149.3750 C   0  0  0  0  0  3  0  0  0  0  0  0
  162.1940  207.8550  149.1970 C   0  0  0  0  0  3  0  0  0  0  0  0
  160.3800  206.2250  146.3900 N   0  0  0  0  0  2  0  0  0  0  0  0
  161.5370  206.6170  147.1370 C   0  0  0  0  0  0  0  0  0  0  0  0
  162.6430  206.7700  146.5510 O   0  0  0  0  0  0  0  0  0  0  0  0
  160.4230  205.9500  144.9610 C   0  0  0  0  0  2  0  0  0  0  0  0
  160.6960  204.4740  144.7100 C   0  0  0  0  0  2  0  0  0  0  0  0
  161.2990  203.8130  145.9420 C   0  0  0  0  0  2  0  0  0  0  0  0
  161.1990  202.2950  145.8650 C   0  0  2  0  0  3  0  0  0  0  0  0
  160.1490  201.9390  145.0220 O   0  0  0  0  0  1  0  0  0  0  0  0
  160.9170  202.1150  149.7450 C   0  0  0  0  0  0  0  0  0  0  0  0
  160.9810  201.7020  147.2190 C   0  0  0  0  0  0  0  0  0  0  0  0
  161.0380  202.5410  148.3820 N   0  0  0  0  0  2  0  0  0  0  0  0
  160.8070  200.6760  150.1190 C   0  0  0  0  0  1  0  0  0  0  0  0
  160.9240  202.9800  150.6590 O   0  0  0  0  0  0  0  0  0  0  0  0
  160.7420  200.4710  147.3160 O   0  0  0  0  0  0  0  0  0  0  0  0
  161.6710  206.5010  153.7020 N   0  0  0  0  0  2  0  0  0  0  0  0
  161.4800  205.1760  153.4960 O   0  0  0  0  0  1  0  0  0  0  0  0
  160.5380  209.0240  154.6650 N   0  0  0  0  0  0  0  0  0  0  0  0
  162.1990  210.6620  153.8670 C   0  0  0  0  0  1  0  0  0  0  0  0
  161.4520  210.0900  155.0670 C   0  0  1  0  0  3  0  0  0  0  0  0
  160.7060  211.1760  155.8600 C   0  0  0  0  0  2  0  0  0  0  0  0
  157.1030  211.8420  154.0770 N   0  0  0  0  0  2  0  0  0  0  0  0
  159.4040  211.4640  153.8150 C   0  0  2  0  0  3  0  0  0  0  0  0
  158.0620  211.1960  153.2730 N   0  0  0  0  0  2  0  0  0  0  0  0
  158.3680  210.7040  155.8680 C   0  0  0  0  0  2  0  0  0  0  0  0
  156.9880  211.1060  155.3380 C   0  0  0  0  0  2  0  0  0  0  0  0
  159.4030  211.5600  155.2900 N   0  0  0  0  0  0  0  0  0  0  0  0
  159.9730  212.7320  153.1960 C   0  0  0  0  0  2  0  0  0  0  0  0
  159.7740  212.6960  151.8150 O   0  0  0  0  0  0  0  0  0  0  0  0
  159.7490  214.0310  151.4170 C   0  0  0  0  0  2  0  0  0  0  0  0
  159.3850  214.1580  149.9340 C   0  0  2  0  0  3  0  0  0  0  0  0
  157.2490  213.7150  150.1860 O   0  0  0  0  0  1  0  0  0  0  0  0
  158.3250  213.3250  149.5290 O   0  0  0  0  0  0  0  0  0  0  0  0
  160.5710  214.1870  148.9620 C   0  0  0  0  0  2  0  0  0  0  0  0
  162.4050  213.0880  148.0060 C   0  0  0  0  0  2  0  0  0  0  0  0
  161.2720  212.2720  147.5850 C   0  0  1  0  0  3  0  0  0  0  0  0
  161.2760  212.9050  148.9310 N   0  0  0  0  0  0  0  0  0  0  0  0
  161.3030  213.0970  145.5330 C   0  0  0  0  0  1  0  0  0  0  0  0
  160.4890  212.9740  146.6590 O   0  0  0  0  0  0  0  0  0  0  0  0
  159.9170  208.1640  155.6750 C   0  0  0  0  0  2  0  0  0  0  0  0
  160.9210  207.7740  156.7460 C   0  0  0  0  0  1  0  0  0  0  0  0
  1 25  1  0  0  0  0
  2  1  2  0  0  0  0
  2 23  1  0  0  0  0
  3  8  2  0  0  0  0
  3  7  1  0  0  0  0
  4  5  2  0  0  0  0
  5  2  1  0  0  0  0
  6  5  1  0  0  0  0
  7  6  2  0  0  0  0
  8  4  1  0  0  0  0
  9 10  1  0  0  0  0
 10  3  1  0  0  0  0
 11 10  2  0  0  0  0
 12  9  1  0  0  0  0
 13 12  1  0  0  0  0
 13 14  1  0  0  0  0
 15 16  1  6  0  0  0
 15 14  1  0  0  0  0
 15 18  1  0  0  0  0
 17 20  1  0  0  0  0
 17 21  2  0  0  0  0
 18 22  2  0  0  0  0
 18 19  1  0  0  0  0
 19 17  1  0  0  0  0
 24 23  1  0  0  0  0
 25 27  1  0  0  0  0
 25 47  1  0  0  0  0
 27 26  1  6  0  0  0
 27 28  1  0  0  0  0
 29 33  1  0  0  0  0
 30 35  1  6  0  0  0
 30 34  1  0  0  0  0
 31 30  1  0  0  0  0
 31 29  1  0  0  0  0
 33 32  1  0  0  0  0
 34 28  1  0  0  0  0
 34 32  1  0  0  0  0
 36 35  1  0  0  0  0
 37 36  1  0  0  0  0
 38 41  1  6  0  0  0
 38 37  1  0  0  0  0
 40 38  1  0  0  0  0
 40 39  1  0  0  0  0
 42 44  1  0  0  0  0
 43 46  1  6  0  0  0
 43 42  1  0  0  0  0
 43 44  1  0  0  0  0
 44 41  1  0  0  0  0
 45 46  1  0  0  0  0
 47 48  1  0  0  0  0
M  END
>  <MODEL>
5

>  <REMARK>
 VINA RESULT:      -5.6      2.187      6.540
  Name = 
  21 active torsions:
  status: ('A' for Active; 'I' for Inactive)
    1  A    between atoms: C_1  and  C_23
    2  A    between atoms: C_1  and  C_35
    3  A    between atoms: C_2  and  N_22
    4  A    between atoms: C_2  and  C_23
    5  A    between atoms: C_3  and  N_15
    6  A    between atoms: C_5  and  N_15
    7  A    between atoms: C_6  and  C_25
    8  A    between atoms: C_7  and  N_15
    9  A    between atoms: C_7  and  C_36
   10  A    between atoms: C_8  and  C_16
   11  A    between atoms: C_8  and  N_29
   12  A    between atoms: O_12  and  C_16
   13  A    between atoms: C_13  and  C_38
   14  A    between atoms: C_16  and  C_19
   15  A    between atoms: N_18  and  C_32
   16  A    between atoms: C_19  and  O_31
   17  A    between atoms: C_24  and  C_35
   18  A    between atoms: C_26  and  C_32
   19  A    between atoms: C_27  and  O_41
   20  A    between atoms: O_31  and  C_38
   21  A    between atoms: C_36  and  N_48
                            x       y       z     vdW  Elec       q    Type
                         _______ _______ _______ _____ _____    ______ ____

>  <TORSDO>
F 21

$$$$
=
 OpenBabel11042420483D

 48 50  0  0  1  0  0  0  0  0999 V2000
  161.0000  208.1230  151.6210 C   0  0  0  0  0  3  0  0  0  0  0  0
  161.2520  207.0400  152.3740 C   0  0  0  0  0  0  0  0  0  0  0  0
  160.8310  203.1440  150.6060 C   0  0  0  0  0  0  0  0  0  0  0  0
  161.1680  204.5380  152.5650 C   0  0  0  0  0  3  0  0  0  0  0  0
  161.1200  205.6950  151.7710 C   0  0  0  0  0  0  0  0  0  0  0  0
  160.9170  205.5620  150.3900 C   0  0  0  0  0  3  0  0  0  0  0  0
  160.7780  204.2970  149.8120 C   0  0  0  0  0  3  0  0  0  0  0  0
  161.0230  203.2750  151.9870 C   0  0  0  0  0  3  0  0  0  0  0  0
  161.6490  201.3300  149.0680 N   0  0  0  0  0  2  0  0  0  0  0  0
  160.6760  201.8100  150.0010 C   0  0  0  0  0  0  0  0  0  0  0  0
  159.6910  201.0870  150.3120 O   0  0  0  0  0  0  0  0  0  0  0  0
  161.5390  200.0340  148.4130 C   0  0  0  0  0  2  0  0  0  0  0  0
  161.1940  200.2090  146.9410 C   0  0  0  0  0  2  0  0  0  0  0  0
  161.4690  201.6340  146.4810 C   0  0  0  0  0  2  0  0  0  0  0  0
  160.2480  202.2470  145.8070 C   0  0  2  0  0  3  0  0  0  0  0  0
  159.9450  201.5320  144.6500 O   0  0  0  0  0  1  0  0  0  0  0  0
  161.5290  205.9040  146.1910 C   0  0  0  0  0  0  0  0  0  0  0  0
  160.4860  203.6810  145.4650 C   0  0  0  0  0  0  0  0  0  0  0  0
  161.2670  204.5030  146.3440 N   0  0  0  0  0  2  0  0  0  0  0  0
  160.9110  206.7110  145.1020 C   0  0  0  0  0  1  0  0  0  0  0  0
  162.2880  206.4780  147.0150 O   0  0  0  0  0  0  0  0  0  0  0  0
  160.0020  204.1450  144.4010 O   0  0  0  0  0  0  0  0  0  0  0  0
  161.6120  207.1370  153.7610 N   0  0  0  0  0  2  0  0  0  0  0  0
  160.7570  206.8390  154.7690 O   0  0  0  0  0  1  0  0  0  0  0  0
  161.2440  209.4740  152.0340 N   0  0  0  0  0  0  0  0  0  0  0  0
  161.2820  210.3560  154.3360 C   0  0  0  0  0  1  0  0  0  0  0  0
  160.4280  210.0060  153.1220 C   0  0  1  0  0  3  0  0  0  0  0  0
  159.5870  211.1990  152.6390 C   0  0  0  0  0  2  0  0  0  0  0  0
  156.9080  212.7490  155.2890 N   0  0  0  0  0  2  0  0  0  0  0  0
  157.7530  212.7420  153.1000 C   0  0  2  0  0  3  0  0  0  0  0  0
  156.5440  212.8580  153.9330 N   0  0  0  0  0  2  0  0  0  0  0  0
  158.0850  210.7510  154.4380 C   0  0  0  0  0  2  0  0  0  0  0  0
  157.2390  211.3500  155.5660 C   0  0  0  0  0  2  0  0  0  0  0  0
  158.7450  211.8130  153.6800 N   0  0  0  0  0  0  0  0  0  0  0  0
  158.3690  214.1160  152.8800 C   0  0  0  0  0  2  0  0  0  0  0  0
  159.0100  214.1360  151.6410 O   0  0  0  0  0  0  0  0  0  0  0  0
  158.1220  213.5170  150.7620 C   0  0  0  0  0  2  0  0  0  0  0  0
  157.8020  214.4250  149.5710 C   0  0  2  0  0  3  0  0  0  0  0  0
  155.7460  214.4310  150.3420 O   0  0  0  0  0  1  0  0  0  0  0  0
  156.4390  214.4530  149.2200 O   0  0  0  0  0  0  0  0  0  0  0  0
  158.7590  214.3140  148.3780 C   0  0  0  0  0  2  0  0  0  0  0  0
  159.8310  212.5120  147.3350 C   0  0  0  0  0  2  0  0  0  0  0  0
  159.1140  213.1510  146.2380 C   0  0  1  0  0  3  0  0  0  0  0  0
  158.5100  213.1020  147.5970 N   0  0  0  0  0  0  0  0  0  0  0  0
  161.0530  214.2120  146.1690 C   0  0  0  0  0  1  0  0  0  0  0  0
  159.6880  214.3960  145.9460 O   0  0  0  0  0  0  0  0  0  0  0  0
  162.0040  210.3810  151.1710 C   0  0  0  0  0  2  0  0  0  0  0  0
  162.2750  209.7420  149.8190 C   0  0  0  0  0  1  0  0  0  0  0  0
  1 25  1  0  0  0  0
  1  2  2  0  0  0  0
  2 23  1  0  0  0  0
  3  8  1  0  0  0  0
  5  2  1  0  0  0  0
  5  4  1  0  0  0  0
  6  5  2  0  0  0  0
  7  6  1  0  0  0  0
  7  3  2  0  0  0  0
  8  4  2  0  0  0  0
  9 10  1  0  0  0  0
 10 11  2  0  0  0  0
 10  3  1  0  0  0  0
 12  9  1  0  0  0  0
 13 12  1  0  0  0  0
 14 13  1  0  0  0  0
 15 16  1  6  0  0  0
 15 14  1  0  0  0  0
 17 19  1  0  0  0  0
 17 21  2  0  0  0  0
 18 15  1  0  0  0  0
 18 19  1  0  0  0  0
 20 17  1  0  0  0  0
 22 18  2  0  0  0  0
 23 24  1  0  0  0  0
 25 27  1  0  0  0  0
 27 26  1  1  0  0  0
 28 27  1  0  0  0  0
 28 34  1  0  0  0  0
 29 33  1  0  0  0  0
 30 35  1  1  0  0  0
 30 34  1  0  0  0  0
 30 31  1  0  0  0  0
 31 29  1  0  0  0  0
 32 33  1  0  0  0  0
 34 32  1  0  0  0  0
 36 35  1  0  0  0  0
 37 36  1  0  0  0  0
 38 41  1  6  0  0  0
 38 37  1  0  0  0  0
 40 38  1  0  0  0  0
 40 39  1  0  0  0  0
 42 44  1  0  0  0  0
 43 46  1  1  0  0  0
 43 42  1  0  0  0  0
 43 44  1  0  0  0  0
 44 41  1  0  0  0  0
 46 45  1  0  0  0  0
 47 25  1  0  0  0  0
 48 47  1  0  0  0  0
M  END
>  <MODEL>
6

>  <REMARK>
 VINA RESULT:      -5.5      2.185      6.131
  Name = 
  21 active torsions:
  status: ('A' for Active; 'I' for Inactive)
    1  A    between atoms: C_1  and  C_23
    2  A    between atoms: C_1  and  C_35
    3  A    between atoms: C_2  and  N_22
    4  A    between atoms: C_2  and  C_23
    5  A    between atoms: C_3  and  N_15
    6  A    between atoms: C_5  and  N_15
    7  A    between atoms: C_6  and  C_25
    8  A    between atoms: C_7  and  N_15
    9  A    between atoms: C_7  and  C_36
   10  A    between atoms: C_8  and  C_16
   11  A    between atoms: C_8  and  N_29
   12  A    between atoms: O_12  and  C_16
   13  A    between atoms: C_13  and  C_38
   14  A    between atoms: C_16  and  C_19
   15  A    between atoms: N_18  and  C_32
   16  A    between atoms: C_19  and  O_31
   17  A    between atoms: C_24  and  C_35
   18  A    between atoms: C_26  and  C_32
   19  A    between atoms: C_27  and  O_41
   20  A    between atoms: O_31  and  C_38
   21  A    between atoms: C_36  and  N_48
                            x       y       z     vdW  Elec       q    Type
                         _______ _______ _______ _____ _____    ______ ____

>  <TORSDO>
F 21

$$$$
=
 OpenBabel11042420483D

 48 50  0  0  1  0  0  0  0  0999 V2000
  160.6770  203.5400  149.8160 C   0  0  0  0  0  3  0  0  0  0  0  0
  161.1250  203.5300  151.0820 C   0  0  0  0  0  0  0  0  0  0  0  0
  161.1820  207.2060  153.3100 C   0  0  0  0  0  0  0  0  0  0  0  0
  161.1260  204.7800  153.2600 C   0  0  0  0  0  3  0  0  0  0  0  0
  161.1320  204.7910  151.8560 C   0  0  0  0  0  0  0  0  0  0  0  0
  161.1710  206.0240  151.1890 C   0  0  0  0  0  3  0  0  0  0  0  0
  161.1910  207.2210  151.9100 C   0  0  0  0  0  3  0  0  0  0  0  0
  161.1520  205.9760  153.9790 C   0  0  0  0  0  3  0  0  0  0  0  0
  161.1900  209.7200  153.3850 N   0  0  0  0  0  2  0  0  0  0  0  0
  161.2120  208.4650  154.0730 C   0  0  0  0  0  0  0  0  0  0  0  0
  161.2470  208.4390  155.3340 O   0  0  0  0  0  0  0  0  0  0  0  0
  161.2470  210.9990  154.0790 C   0  0  0  0  0  2  0  0  0  0  0  0
  159.8450  211.5380  154.3170 C   0  0  0  0  0  2  0  0  0  0  0  0
  159.8500  212.6170  155.3920 C   0  0  0  0  0  2  0  0  0  0  0  0
  158.5040  213.3250  155.4770 C   0  0  2  0  0  3  0  0  0  0  0  0
  158.6180  214.4510  156.2880 O   0  0  0  0  0  1  0  0  0  0  0  0
  155.6490  210.6770  155.4910 C   0  0  0  0  0  0  0  0  0  0  0  0
  157.4510  212.4160  156.0220 C   0  0  0  0  0  0  0  0  0  0  0  0
  156.7250  211.5530  155.1350 N   0  0  0  0  0  2  0  0  0  0  0  0
  155.0820  210.6380  156.8690 C   0  0  0  0  0  1  0  0  0  0  0  0
  155.1490  209.9310  154.6100 O   0  0  0  0  0  0  0  0  0  0  0  0
  157.2240  212.4170  157.2590 O   0  0  0  0  0  0  0  0  0  0  0  0
  161.6330  202.3400  151.7050 N   0  0  0  0  0  2  0  0  0  0  0  0
  162.3170  201.3870  151.0290 O   0  0  0  0  0  1  0  0  0  0  0  0
  160.4690  202.3680  149.0180 N   0  0  0  0  0  0  0  0  0  0  0  0
  160.8000  201.4710  146.7460 C   0  0  0  0  0  1  0  0  0  0  0  0
  161.4570  202.0700  147.9850 C   0  0  1  0  0  3  0  0  0  0  0  0
  162.2920  203.3180  147.6540 C   0  0  0  0  0  2  0  0  0  0  0  0
  160.8050  206.1060  145.0820 N   0  0  0  0  0  2  0  0  0  0  0  0
  162.2420  205.6300  146.8750 C   0  0  2  0  0  3  0  0  0  0  0  0
  162.0610  206.4130  145.6420 N   0  0  0  0  0  2  0  0  0  0  0  0
  161.6250  203.7990  145.4150 C   0  0  0  0  0  2  0  0  0  0  0  0
  160.8780  204.7680  144.4930 C   0  0  0  0  0  2  0  0  0  0  0  0
  161.6110  204.2960  146.7900 N   0  0  0  0  0  0  0  0  0  0  0  0
  161.7000  206.4040  148.0680 C   0  0  0  0  0  2  0  0  0  0  0  0
  162.4370  207.5790  148.2240 O   0  0  0  0  0  0  0  0  0  0  0  0
  161.5040  208.5490  148.5860 C   0  0  0  0  0  2  0  0  0  0  0  0
  162.1920  209.8670  148.9560 C   0  0  2  0  0  3  0  0  0  0  0  0
  162.9010  209.1500  150.9060 O   0  0  0  0  0  1  0  0  0  0  0  0
  162.2260  210.1300  150.3380 O   0  0  0  0  0  0  0  0  0  0  0  0
  161.8130  211.0760  148.0910 C   0  0  0  0  0  2  0  0  0  0  0  0
  161.7320  213.3940  148.4120 C   0  0  0  0  0  2  0  0  0  0  0  0
  162.6640  213.2450  147.3010 C   0  0  1  0  0  3  0  0  0  0  0  0
  162.6440  212.2400  148.3980 N   0  0  0  0  0  0  0  0  0  0  0  0
  162.6370  213.4470  145.0990 C   0  0  0  0  0  1  0  0  0  0  0  0
  161.9850  212.8090  146.1550 O   0  0  0  0  0  0  0  0  0  0  0  0
  159.1560  201.7200  148.9920 C   0  0  0  0  0  2  0  0  0  0  0  0
  159.1250  200.5190  149.9230 C   0  0  0  0  0  1  0  0  0  0  0  0
  1  2  2  0  0  0  0
  2 23  1  0  0  0  0
  2  5  1  0  0  0  0
  3  8  1  0  0  0  0
  3 10  1  0  0  0  0
  4  8  2  0  0  0  0
  5  4  1  0  0  0  0
  6  5  2  0  0  0  0
  6  7  1  0  0  0  0
  7  3  2  0  0  0  0
  9 10  1  0  0  0  0
  9 12  1  0  0  0  0
 10 11  2  0  0  0  0
 12 13  1  0  0  0  0
 13 14  1  0  0  0  0
 14 15  1  0  0  0  0
 15 18  1  0  0  0  0
 15 16  1  1  0  0  0
 17 20  1  0  0  0  0
 18 22  2  0  0  0  0
 19 17  1  0  0  0  0
 19 18  1  0  0  0  0
 21 17  2  0  0  0  0
 24 23  1  0  0  0  0
 25  1  1  0  0  0  0
 27 26  1  6  0  0  0
 27 25  1  0  0  0  0
 28 27  1  0  0  0  0
 29 31  1  0  0  0  0
 30 35  1  1  0  0  0
 31 30  1  0  0  0  0
 32 34  1  0  0  0  0
 33 29  1  0  0  0  0
 33 32  1  0  0  0  0
 34 30  1  0  0  0  0
 34 28  1  0  0  0  0
 35 36  1  0  0  0  0
 36 37  1  0  0  0  0
 37 38  1  0  0  0  0
 38 41  1  6  0  0  0
 38 40  1  0  0  0  0
 40 39  1  0  0  0  0
 41 44  1  0  0  0  0
 43 46  1  6  0  0  0
 43 44  1  0  0  0  0
 43 42  1  0  0  0  0
 44 42  1  0  0  0  0
 45 46  1  0  0  0  0
 47 25  1  0  0  0  0
 47 48  1  0  0  0  0
M  END
>  <MODEL>
7

>  <REMARK>
 VINA RESULT:      -5.1      2.635      9.915
  Name = 
  21 active torsions:
  status: ('A' for Active; 'I' for Inactive)
    1  A    between atoms: C_1  and  C_23
    2  A    between atoms: C_1  and  C_35
    3  A    between atoms: C_2  and  N_22
    4  A    between atoms: C_2  and  C_23
    5  A    between atoms: C_3  and  N_15
    6  A    between atoms: C_5  and  N_15
    7  A    between atoms: C_6  and  C_25
    8  A    between atoms: C_7  and  N_15
    9  A    between atoms: C_7  and  C_36
   10  A    between atoms: C_8  and  C_16
   11  A    between atoms: C_8  and  N_29
   12  A    between atoms: O_12  and  C_16
   13  A    between atoms: C_13  and  C_38
   14  A    between atoms: C_16  and  C_19
   15  A    between atoms: N_18  and  C_32
   16  A    between atoms: C_19  and  O_31
   17  A    between atoms: C_24  and  C_35
   18  A    between atoms: C_26  and  C_32
   19  A    between atoms: C_27  and  O_41
   20  A    between atoms: O_31  and  C_38
   21  A    between atoms: C_36  and  N_48
                            x       y       z     vdW  Elec       q    Type
                         _______ _______ _______ _____ _____    ______ ____

>  <TORSDO>
F 21

$$$$
=
 OpenBabel11042420483D

 48 50  0  0  1  0  0  0  0  0999 V2000
  160.6610  205.0250  152.2210 C   0  0  0  0  0  3  0  0  0  0  0  0
  161.5540  205.8860  152.7370 C   0  0  0  0  0  0  0  0  0  0  0  0
  160.2290  209.0050  155.3820 C   0  0  0  0  0  0  0  0  0  0  0  0
  160.5390  206.6450  154.9040 C   0  0  0  0  0  3  0  0  0  0  0  0
  161.0840  206.9540  153.6480 C   0  0  0  0  0  0  0  0  0  0  0  0
  161.2040  208.3000  153.2730 C   0  0  0  0  0  3  0  0  0  0  0  0
  160.7760  209.3160  154.1320 C   0  0  0  0  0  3  0  0  0  0  0  0
  160.1160  207.6620  155.7630 C   0  0  0  0  0  3  0  0  0  0  0  0
  158.5070  210.6900  156.1040 N   0  0  0  0  0  2  0  0  0  0  0  0
  159.7850  210.0740  156.2930 C   0  0  0  0  0  0  0  0  0  0  0  0
  160.5260  210.4420  157.2440 O   0  0  0  0  0  0  0  0  0  0  0  0
  158.0220  211.7710  156.9500 C   0  0  0  0  0  2  0  0  0  0  0  0
  156.6890  212.2940  156.4350 C   0  0  0  0  0  2  0  0  0  0  0  0
  156.8550  213.6580  155.7760 C   0  0  0  0  0  2  0  0  0  0  0  0
  156.3880  213.6370  154.3270 C   0  0  2  0  0  3  0  0  0  0  0  0
  155.5710  212.5280  154.1150 O   0  0  0  0  0  1  0  0  0  0  0  0
  158.3220  213.6150  150.9480 C   0  0  0  0  0  0  0  0  0  0  0  0
  157.5490  213.5930  153.3880 C   0  0  0  0  0  0  0  0  0  0  0  0
  157.3270  213.7040  151.9750 N   0  0  0  0  0  2  0  0  0  0  0  0
  159.7450  213.2900  151.2490 C   0  0  0  0  0  1  0  0  0  0  0  0
  157.9830  213.7950  149.7490 O   0  0  0  0  0  0  0  0  0  0  0  0
  158.7100  213.4680  153.8570 O   0  0  0  0  0  0  0  0  0  0  0  0
  162.9500  205.8310  152.4070 N   0  0  0  0  0  2  0  0  0  0  0  0
  163.4650  206.3770  151.2790 O   0  0  0  0  0  1  0  0  0  0  0  0
  161.0030  203.8590  151.4610 N   0  0  0  0  0  0  0  0  0  0  0  0
  160.7700  202.7810  149.2560 C   0  0  0  0  0  1  0  0  0  0  0  0
  161.2050  204.0250  150.0240 C   0  0  1  0  0  3  0  0  0  0  0  0
  160.5030  205.2960  149.5180 C   0  0  0  0  0  2  0  0  0  0  0  0
  162.7080  208.4570  148.1960 N   0  0  0  0  0  2  0  0  0  0  0  0
  161.6160  206.4460  147.6760 C   0  0  2  0  0  3  0  0  0  0  0  0
  161.9400  207.8050  147.2110 N   0  0  0  0  0  2  0  0  0  0  0  0
  160.8760  207.6490  149.6430 C   0  0  0  0  0  2  0  0  0  0  0  0
  161.8260  208.8040  149.3120 C   0  0  0  0  0  2  0  0  0  0  0  0
  161.4160  206.3870  149.1390 N   0  0  0  0  0  0  0  0  0  0  0  0
  162.7030  205.4740  147.2440 C   0  0  0  0  0  2  0  0  0  0  0  0
  162.9140  205.6040  145.8700 O   0  0  0  0  0  0  0  0  0  0  0  0
  162.6350  204.3470  145.3380 C   0  0  0  0  0  2  0  0  0  0  0  0
  161.2570  204.3240  144.6690 C   0  0  2  0  0  3  0  0  0  0  0  0
  159.7100  205.8260  145.0830 O   0  0  0  0  0  1  0  0  0  0  0  0
  160.7640  205.5970  144.3250 O   0  0  0  0  0  0  0  0  0  0  0  0
  160.2210  203.4000  145.3200 C   0  0  0  0  0  2  0  0  0  0  0  0
  159.0840  201.3530  145.3090 C   0  0  0  0  0  2  0  0  0  0  0  0
  160.4790  200.9590  145.1490 C   0  0  1  0  0  3  0  0  0  0  0  0
  159.9780  202.2060  144.5110 N   0  0  0  0  0  0  0  0  0  0  0  0
  161.2080  199.9740  146.9900 C   0  0  0  0  0  1  0  0  0  0  0  0
  161.1890  201.2040  146.3320 O   0  0  0  0  0  0  0  0  0  0  0  0
  160.7940  202.5240  152.0270 C   0  0  0  0  0  2  0  0  0  0  0  0
  162.0830  201.7200  152.0090 C   0  0  0  0  0  1  0  0  0  0  0  0
  1  2  2  0  0  0  0
  2  5  1  0  0  0  0
  3  8  1  0  0  0  0
  3 10  1  0  0  0  0
  4  8  2  0  0  0  0
  5  4  1  0  0  0  0
  6  5  2  0  0  0  0
  6  7  1  0  0  0  0
  7  3  2  0  0  0  0
  9 10  1  0  0  0  0
  9 12  1  0  0  0  0
 10 11  2  0  0  0  0
 13 12  1  0  0  0  0
 14 13  1  0  0  0  0
 15 16  1  1  0  0  0
 15 14  1  0  0  0  0
 17 20  1  0  0  0  0
 17 19  1  0  0  0  0
 18 22  2  0  0  0  0
 18 15  1  0  0  0  0
 19 18  1  0  0  0  0
 21 17  2  0  0  0  0
 23  2  1  0  0  0  0
 24 23  1  0  0  0  0
 25 47  1  0  0  0  0
 25  1  1  0  0  0  0
 27 26  1  6  0  0  0
 27 25  1  0  0  0  0
 28 27  1  0  0  0  0
 29 33  1  0  0  0  0
 30 35  1  1  0  0  0
 30 34  1  0  0  0  0
 31 30  1  0  0  0  0
 31 29  1  0  0  0  0
 33 32  1  0  0  0  0
 34 28  1  0  0  0  0
 34 32  1  0  0  0  0
 36 35  1  0  0  0  0
 37 36  1  0  0  0  0
 38 41  1  1  0  0  0
 38 37  1  0  0  0  0
 40 38  1  0  0  0  0
 40 39  1  0  0  0  0
 43 42  1  0  0  0  0
 43 46  1  1  0  0  0
 44 43  1  0  0  0  0
 44 42  1  0  0  0  0
 44 41  1  0  0  0  0
 46 45  1  0  0  0  0
 48 47  1  0  0  0  0
M  END
>  <MODEL>
8

>  <REMARK>
 VINA RESULT:      -4.9      2.710     10.414
  Name = 
  21 active torsions:
  status: ('A' for Active; 'I' for Inactive)
    1  A    between atoms: C_1  and  C_23
    2  A    between atoms: C_1  and  C_35
    3  A    between atoms: C_2  and  N_22
    4  A    between atoms: C_2  and  C_23
    5  A    between atoms: C_3  and  N_15
    6  A    between atoms: C_5  and  N_15
    7  A    between atoms: C_6  and  C_25
    8  A    between atoms: C_7  and  N_15
    9  A    between atoms: C_7  and  C_36
   10  A    between atoms: C_8  and  C_16
   11  A    between atoms: C_8  and  N_29
   12  A    between atoms: O_12  and  C_16
   13  A    between atoms: C_13  and  C_38
   14  A    between atoms: C_16  and  C_19
   15  A    between atoms: N_18  and  C_32
   16  A    between atoms: C_19  and  O_31
   17  A    between atoms: C_24  and  C_35
   18  A    between atoms: C_26  and  C_32
   19  A    between atoms: C_27  and  O_41
   20  A    between atoms: O_31  and  C_38
   21  A    between atoms: C_36  and  N_48
                            x       y       z     vdW  Elec       q    Type
                         _______ _______ _______ _____ _____    ______ ____

>  <TORSDO>
F 21

$$$$
=
 OpenBabel11042420483D

 48 50  0  0  1  0  0  0  0  0999 V2000
  160.9430  208.5280  151.7350 C   0  0  0  0  0  3  0  0  0  0  0  0
  160.9550  207.4560  152.5440 C   0  0  0  0  0  0  0  0  0  0  0  0
  160.8880  203.5290  150.7950 C   0  0  0  0  0  0  0  0  0  0  0  0
  161.0830  204.9570  152.7490 C   0  0  0  0  0  3  0  0  0  0  0  0
  160.9450  206.1020  151.9480 C   0  0  0  0  0  0  0  0  0  0  0  0
  160.7700  205.9440  150.5650 C   0  0  0  0  0  3  0  0  0  0  0  0
  160.7460  204.6690  149.9940 C   0  0  0  0  0  3  0  0  0  0  0  0
  161.0530  203.6830  152.1780 C   0  0  0  0  0  3  0  0  0  0  0  0
  161.6940  201.8760  149.0800 N   0  0  0  0  0  2  0  0  0  0  0  0
  160.8540  202.1840  150.1970 C   0  0  0  0  0  0  0  0  0  0  0  0
  160.0920  201.3000  150.6740 O   0  0  0  0  0  0  0  0  0  0  0  0
  161.6870  200.5760  148.4250 C   0  0  0  0  0  2  0  0  0  0  0  0
  160.6840  200.5610  147.2800 C   0  0  0  0  0  2  0  0  0  0  0  0
  159.9400  201.8870  147.1900 C   0  0  0  0  0  2  0  0  0  0  0  0
  160.0670  202.5040  145.8030 C   0  0  2  0  0  3  0  0  0  0  0  0
  160.3620  201.5080  144.8740 O   0  0  0  0  0  1  0  0  0  0  0  0
  161.8020  205.9320  146.4330 C   0  0  0  0  0  0  0  0  0  0  0  0
  161.1330  203.5500  145.7770 C   0  0  0  0  0  0  0  0  0  0  0  0
  160.9110  204.8110  146.4260 N   0  0  0  0  0  2  0  0  0  0  0  0
  163.0720  205.9410  145.6530 C   0  0  0  0  0  1  0  0  0  0  0  0
  161.4950  206.9530  147.1020 O   0  0  0  0  0  0  0  0  0  0  0  0
  162.2170  203.3030  145.1890 O   0  0  0  0  0  0  0  0  0  0  0  0
  160.9420  207.5760  153.9750 N   0  0  0  0  0  2  0  0  0  0  0  0
  159.9220  207.1260  154.7450 O   0  0  0  0  0  1  0  0  0  0  0  0
  161.1110  209.8820  152.1770 N   0  0  0  0  0  0  0  0  0  0  0  0
  158.9510  210.5710  153.1430 C   0  0  0  0  0  1  0  0  0  0  0  0
  159.9730  210.7860  152.0330 C   0  0  1  0  0  3  0  0  0  0  0  0
  160.4450  212.2460  151.9500 C   0  0  0  0  0  2  0  0  0  0  0  0
  157.6500  214.4440  149.9610 N   0  0  0  0  0  2  0  0  0  0  0  0
  159.6400  213.2050  149.8550 C   0  0  2  0  0  3  0  0  0  0  0  0
  158.3840  213.5430  149.1660 N   0  0  0  0  0  2  0  0  0  0  0  0
  158.1270  212.7450  151.6890 C   0  0  0  0  0  2  0  0  0  0  0  0
  157.0930  213.7080  151.0980 C   0  0  0  0  0  2  0  0  0  0  0  0
  159.4790  213.1650  151.3240 N   0  0  0  0  0  0  0  0  0  0  0  0
  160.7310  214.1910  149.4630 C   0  0  0  0  0  2  0  0  0  0  0  0
  161.7070  213.5210  148.7220 O   0  0  0  0  0  0  0  0  0  0  0  0
  162.0280  214.3870  147.6780 C   0  0  0  0  0  2  0  0  0  0  0  0
  161.8190  213.7130  146.3190 C   0  0  2  0  0  3  0  0  0  0  0  0
  163.5350  212.9640  145.1710 O   0  0  0  0  0  1  0  0  0  0  0  0
  162.7960  214.0400  145.3590 O   0  0  0  0  0  0  0  0  0  0  0  0
  160.3800  213.7300  145.7870 C   0  0  0  0  0  2  0  0  0  0  0  0
  160.4480  212.5350  143.7740 C   0  0  0  0  0  2  0  0  0  0  0  0
  159.0230  212.5930  144.0780 C   0  0  1  0  0  3  0  0  0  0  0  0
  160.0150  212.4510  145.1770 N   0  0  0  0  0  0  0  0  0  0  0  0
  158.4590  214.1010  142.5620 C   0  0  0  0  0  1  0  0  0  0  0  0
  158.5520  213.9050  143.9410 O   0  0  0  0  0  0  0  0  0  0  0  0
  162.4540  210.4170  152.4110 C   0  0  0  0  0  2  0  0  0  0  0  0
  162.8190  210.3410  153.8840 C   0  0  0  0  0  1  0  0  0  0  0  0
  1 25  1  0  0  0  0
  1  2  2  0  0  0  0
  2 23  1  0  0  0  0
  3  8  1  0  0  0  0
  5  2  1  0  0  0  0
  5  4  1  0  0  0  0
  6  5  2  0  0  0  0
  7  6  1  0  0  0  0
  7  3  2  0  0  0  0
  8  4  2  0  0  0  0
  9 10  1  0  0  0  0
 10 11  2  0  0  0  0
 10  3  1  0  0  0  0
 12  9  1  0  0  0  0
 13 12  1  0  0  0  0
 14 13  1  0  0  0  0
 15 16  1  6  0  0  0
 15 14  1  0  0  0  0
 17 21  2  0  0  0  0
 18 15  1  0  0  0  0
 18 19  1  0  0  0  0
 19 17  1  0  0  0  0
 20 17  1  0  0  0  0
 22 18  2  0  0  0  0
 23 24  1  0  0  0  0
 25 47  1  0  0  0  0
 27 25  1  0  0  0  0
 27 26  1  1  0  0  0
 28 27  1  0  0  0  0
 29 33  1  0  0  0  0
 30 35  1  1  0  0  0
 30 34  1  0  0  0  0
 31 30  1  0  0  0  0
 31 29  1  0  0  0  0
 33 32  1  0  0  0  0
 34 32  1  0  0  0  0
 34 28  1  0  0  0  0
 36 35  1  0  0  0  0
 37 36  1  0  0  0  0
 38 41  1  6  0  0  0
 38 37  1  0  0  0  0
 39 40  1  0  0  0  0
 40 38  1  0  0  0  0
 42 43  1  0  0  0  0
 42 44  1  0  0  0  0
 43 46  1  1  0  0  0
 43 44  1  0  0  0  0
 44 41  1  0  0  0  0
 45 46  1  0  0  0  0
 47 48  1  0  0  0  0
M  END
>  <MODEL>
9

>  <REMARK>
 VINA RESULT:      -4.3      2.546      6.717
  Name = 
  21 active torsions:
  status: ('A' for Active; 'I' for Inactive)
    1  A    between atoms: C_1  and  C_23
    2  A    between atoms: C_1  and  C_35
    3  A    between atoms: C_2  and  N_22
    4  A    between atoms: C_2  and  C_23
    5  A    between atoms: C_3  and  N_15
    6  A    between atoms: C_5  and  N_15
    7  A    between atoms: C_6  and  C_25
    8  A    between atoms: C_7  and  N_15
    9  A    between atoms: C_7  and  C_36
   10  A    between atoms: C_8  and  C_16
   11  A    between atoms: C_8  and  N_29
   12  A    between atoms: O_12  and  C_16
   13  A    between atoms: C_13  and  C_38
   14  A    between atoms: C_16  and  C_19
   15  A    between atoms: N_18  and  C_32
   16  A    between atoms: C_19  and  O_31
   17  A    between atoms: C_24  and  C_35
   18  A    between atoms: C_26  and  C_32
   19  A    between atoms: C_27  and  O_41
   20  A    between atoms: O_31  and  C_38
   21  A    between atoms: C_36  and  N_48
                            x       y       z     vdW  Elec       q    Type
                         _______ _______ _______ _____ _____    ______ ____

>  <TORSDO>
F 21

$$$$
