=
 OpenBabel11042421253D

 33 35  0  0  1  0  0  0  0  0999 V2000
  162.1120  211.5770  149.2780 N   0  0  0  0  0  0  0  0  0  0  0  0
  160.5740  213.8850  149.2070 C   0  0  0  0  0  3  0  0  0  0  0  0
  162.2610  212.4850  148.2680 C   0  0  0  0  0  3  0  0  0  0  0  0
  161.4990  213.6220  148.2380 N   0  0  0  0  0  0  0  0  0  0  0  0
  161.1910  211.8320  150.2410 C   0  0  0  0  0  0  0  0  0  0  0  0
  159.7730  211.9300  152.0280 C   0  0  0  0  0  0  0  0  0  0  0  0
  159.0670  211.6270  153.2320 N   0  0  0  0  0  2  0  0  0  0  0  0
  160.4270  212.9590  150.2300 C   0  0  0  0  0  0  0  0  0  0  0  0
  160.8180  211.0670  151.4220 C   0  0  0  0  0  0  0  0  0  0  0  0
  161.2900  209.8790  151.8380 C   0  0  0  0  0  0  0  0  0  0  0  0
  159.5460  213.0150  151.3450 N   0  0  0  0  0  0  0  0  0  0  0  0
  158.1250  212.4690  153.7160 O   0  0  0  0  0  1  0  0  0  0  0  0
  160.7580  209.2590  153.0990 C   0  0  0  0  0  2  0  0  0  0  0  0
  161.5940  209.5160  154.2000 O   0  0  0  0  0  0  0  0  0  0  0  0
  160.4900  209.6200  157.1730 C   0  0  0  0  0  2  0  0  0  0  0  0
  162.9700  210.4640  156.4990 Cl  0  0  0  0  0  0  0  0  0  0  0  0
  161.0940  207.3950  155.0810 O   0  0  0  0  0  1  0  0  0  0  0  0
  159.7960  209.2950  155.8620 C   0  0  0  0  0  2  0  0  0  0  0  0
  161.1090  208.7770  155.3030 C   0  0  2  0  0  0  0  0  0  0  0  0
  161.8080  209.1090  156.6180 C   0  0  2  0  0  3  0  0  0  0  0  0
  162.3300  209.1560  151.0260 C   0  0  0  0  0  2  0  0  0  0  0  0
  161.9660  207.7190  150.8310 C   0  0  0  0  0  0  0  0  0  0  0  0
  162.1090  206.8780  151.8580 C   0  0  0  0  0  3  0  0  0  0  0  0
  161.4730  207.2810  149.5460 C   0  0  0  0  0  0  0  0  0  0  0  0
  160.5730  206.4730  147.1680 C   0  0  0  0  0  1  0  0  0  0  0  0
  161.0650  206.9160  148.4720 C   0  0  0  0  0  0  0  0  0  0  0  0
  161.5000  204.3050  151.7340 C   0  0  0  0  0  0  0  0  0  0  0  0
  161.7750  205.4780  151.7870 C   0  0  0  0  0  0  0  0  0  0  0  0
  160.3130  201.8570  149.4530 C   0  0  0  0  0  3  0  0  0  0  0  0
  161.1780  202.9080  151.6790 C   0  0  0  0  0  3  0  0  0  0  0  0
  160.7470  202.3820  150.5670 C   0  0  0  0  0  0  0  0  0  0  0  0
  161.2180  201.0590  148.5750 C   0  0  0  0  0  2  0  0  0  0  0  0
  160.9410  201.3470  147.1090 C   0  0  0  0  0  1  0  0  0  0  0  0
  1  5  1  0  0  0  0
  2  8  1  0  0  0  0
  3  1  2  0  0  0  0
  4  3  1  0  0  0  0
  4  2  2  0  0  0  0
  5  9  1  0  0  0  0
  6  7  1  0  0  0  0
  7 12  1  0  0  0  0
  8  5  2  0  0  0  0
  8 11  1  0  0  0  0
  9 10  2  0  0  0  0
  9  6  1  0  0  0  0
 10 13  1  0  0  0  0
 11  6  2  0  0  0  0
 13 14  1  0  0  0  0
 14 19  1  0  0  0  0
 18 15  1  0  0  0  0
 19 17  1  6  0  0  0
 19 18  1  0  0  0  0
 19 20  1  0  0  0  0
 20 16  1  6  0  0  0
 20 15  1  0  0  0  0
 21 10  1  0  0  0  0
 22 21  1  0  0  0  0
 22 23  2  0  0  0  0
 24 22  1  0  0  0  0
 25 26  1  0  0  0  0
 26 24  3  0  0  0  0
 27 28  3  0  0  0  0
 28 23  1  0  0  0  0
 29 31  2  0  0  0  0
 30 27  1  0  0  0  0
 31 30  2  0  0  0  0
 32 29  1  0  0  0  0
 33 32  1  0  0  0  0
M  END
>  <MODEL>
1

>  <REMARK>
 VINA RESULT:      -7.9      0.000      0.000
  Name = 
  9 active torsions:
  status: ('A' for Active; 'I' for Inactive)
    1  A    between atoms: C_1  and  C_18
    2  A    between atoms: C_2  and  C_7
    3  A    between atoms: C_3  and  C_8
    4  A    between atoms: C_3  and  C_17
    5  A    between atoms: O_6  and  C_15
    6  A    between atoms: O_6  and  C_31
    7  A    between atoms: C_9  and  C_10
    8  A    between atoms: C_15  and  C_27
    9  A    between atoms: C_17  and  C_27
                            x       y       z     vdW  Elec       q    Type
                         _______ _______ _______ _____ _____    ______ ____

>  <TORSDO>
F 9

$$$$
=
 OpenBabel11042421253D

 33 35  0  0  1  0  0  0  0  0999 V2000
  161.9490  212.1300  149.2710 N   0  0  0  0  0  0  0  0  0  0  0  0
  160.0880  214.1150  148.7290 C   0  0  0  0  0  3  0  0  0  0  0  0
  162.0510  212.8930  148.1420 C   0  0  0  0  0  3  0  0  0  0  0  0
  161.1280  213.8710  147.8790 N   0  0  0  0  0  0  0  0  0  0  0  0
  160.9140  212.3660  150.1150 C   0  0  0  0  0  0  0  0  0  0  0  0
  159.3380  212.4860  151.7630 C   0  0  0  0  0  0  0  0  0  0  0  0
  158.5770  212.2490  152.9480 N   0  0  0  0  0  2  0  0  0  0  0  0
  159.9900  213.3360  149.8730 C   0  0  0  0  0  0  0  0  0  0  0  0
  160.5540  211.7310  151.3740 C   0  0  0  0  0  0  0  0  0  0  0  0
  161.1630  210.7110  152.0060 C   0  0  0  0  0  0  0  0  0  0  0  0
  159.0110  213.4070  150.9020 N   0  0  0  0  0  0  0  0  0  0  0  0
  157.4750  212.9840  153.2260 O   0  0  0  0  0  1  0  0  0  0  0  0
  160.6180  210.2020  153.3110 C   0  0  0  0  0  2  0  0  0  0  0  0
  161.6380  209.7230  154.1520 O   0  0  0  0  0  0  0  0  0  0  0  0
  162.2550  209.5780  157.2610 C   0  0  0  0  0  2  0  0  0  0  0  0
  160.7500  207.7340  155.9750 Cl  0  0  0  0  0  0  0  0  0  0  0  0
  160.7800  211.5500  155.3560 O   0  0  0  0  0  1  0  0  0  0  0  0
  162.8060  210.4870  156.1750 C   0  0  0  0  0  2  0  0  0  0  0  0
  161.5010  210.3510  155.4100 C   0  0  2  0  0  0  0  0  0  0  0  0
  160.9500  209.4330  156.4960 C   0  0  2  0  0  3  0  0  0  0  0  0
  162.3730  210.0600  151.3930 C   0  0  0  0  0  2  0  0  0  0  0  0
  162.0170  208.7740  150.7210 C   0  0  0  0  0  0  0  0  0  0  0  0
  161.9510  208.7460  149.3880 C   0  0  0  0  0  3  0  0  0  0  0  0
  161.7560  207.6020  151.5250 C   0  0  0  0  0  0  0  0  0  0  0  0
  161.2870  205.4370  153.0120 C   0  0  0  0  0  1  0  0  0  0  0  0
  161.5430  206.6240  152.1970 C   0  0  0  0  0  0  0  0  0  0  0  0
  161.3730  206.5600  148.0110 C   0  0  0  0  0  0  0  0  0  0  0  0
  161.6330  207.5580  148.6360 C   0  0  0  0  0  0  0  0  0  0  0  0
  161.5180  203.0270  148.3310 C   0  0  0  0  0  3  0  0  0  0  0  0
  161.0700  205.3680  147.2710 C   0  0  0  0  0  3  0  0  0  0  0  0
  161.2930  204.1990  147.8000 C   0  0  0  0  0  0  0  0  0  0  0  0
  160.4060  202.2170  148.9100 C   0  0  0  0  0  2  0  0  0  0  0  0
  160.8470  201.5350  150.1940 C   0  0  0  0  0  1  0  0  0  0  0  0
  1  5  1  0  0  0  0
  2  8  1  0  0  0  0
  3  1  2  0  0  0  0
  4  3  1  0  0  0  0
  4  2  2  0  0  0  0
  5  9  1  0  0  0  0
  6  7  1  0  0  0  0
  7 12  1  0  0  0  0
  8  5  2  0  0  0  0
  8 11  1  0  0  0  0
  9  6  1  0  0  0  0
  9 10  2  0  0  0  0
 10 13  1  0  0  0  0
 11  6  2  0  0  0  0
 13 14  1  0  0  0  0
 14 19  1  0  0  0  0
 18 15  1  0  0  0  0
 19 17  1  6  0  0  0
 19 18  1  0  0  0  0
 19 20  1  0  0  0  0
 20 16  1  6  0  0  0
 20 15  1  0  0  0  0
 21 10  1  0  0  0  0
 22 21  1  0  0  0  0
 22 24  1  0  0  0  0
 23 22  2  0  0  0  0
 24 26  3  0  0  0  0
 26 25  1  0  0  0  0
 27 28  3  0  0  0  0
 28 23  1  0  0  0  0
 29 32  1  0  0  0  0
 30 31  2  0  0  0  0
 30 27  1  0  0  0  0
 31 29  2  0  0  0  0
 32 33  1  0  0  0  0
M  END
>  <MODEL>
2

>  <REMARK>
 VINA RESULT:      -7.7      1.277      2.499
  Name = 
  9 active torsions:
  status: ('A' for Active; 'I' for Inactive)
    1  A    between atoms: C_1  and  C_18
    2  A    between atoms: C_2  and  C_7
    3  A    between atoms: C_3  and  C_8
    4  A    between atoms: C_3  and  C_17
    5  A    between atoms: O_6  and  C_15
    6  A    between atoms: O_6  and  C_31
    7  A    between atoms: C_9  and  C_10
    8  A    between atoms: C_15  and  C_27
    9  A    between atoms: C_17  and  C_27
                            x       y       z     vdW  Elec       q    Type
                         _______ _______ _______ _____ _____    ______ ____

>  <TORSDO>
F 9

$$$$
=
 OpenBabel11042421253D

 33 35  0  0  1  0  0  0  0  0999 V2000
  161.5800  209.2780  154.4600 N   0  0  0  0  0  0  0  0  0  0  0  0
  159.6900  210.0890  156.3230 C   0  0  0  0  0  3  0  0  0  0  0  0
  161.5810  208.7640  155.7250 C   0  0  0  0  0  3  0  0  0  0  0  0
  160.6460  209.1680  156.6410 N   0  0  0  0  0  0  0  0  0  0  0  0
  160.6340  210.1960  154.1400 C   0  0  0  0  0  0  0  0  0  0  0  0
  159.1990  211.7290  153.2410 C   0  0  0  0  0  0  0  0  0  0  0  0
  158.5430  212.6270  152.3470 N   0  0  0  0  0  2  0  0  0  0  0  0
  159.6940  210.6080  155.0360 C   0  0  0  0  0  0  0  0  0  0  0  0
  160.3830  210.9040  152.8940 C   0  0  0  0  0  0  0  0  0  0  0  0
  161.0640  210.8360  151.7360 C   0  0  0  0  0  0  0  0  0  0  0  0
  158.8030  211.5620  154.4710 N   0  0  0  0  0  0  0  0  0  0  0  0
  157.4680  213.3460  152.7470 O   0  0  0  0  0  1  0  0  0  0  0  0
  160.6310  211.6640  150.5590 C   0  0  0  0  0  2  0  0  0  0  0  0
  161.6850  211.8730  149.6520 O   0  0  0  0  0  0  0  0  0  0  0  0
  161.4930  212.9530  146.6750 C   0  0  0  0  0  2  0  0  0  0  0  0
  163.8310  212.2250  147.8240 Cl  0  0  0  0  0  0  0  0  0  0  0  0
  160.8900  214.0800  149.5140 O   0  0  0  0  0  1  0  0  0  0  0  0
  160.4100  212.5710  147.6700 C   0  0  0  0  0  2  0  0  0  0  0  0
  161.3350  212.9530  148.8120 C   0  0  2  0  0  0  0  0  0  0  0  0
  162.4250  213.3310  147.8140 C   0  0  2  0  0  3  0  0  0  0  0  0
  162.2770  209.9530  151.6270 C   0  0  0  0  0  2  0  0  0  0  0  0
  161.9690  208.6900  150.8900 C   0  0  0  0  0  0  0  0  0  0  0  0
  161.9530  208.7160  149.5560 C   0  0  0  0  0  3  0  0  0  0  0  0
  161.6970  207.4830  151.6350 C   0  0  0  0  0  0  0  0  0  0  0  0
  161.2060  205.2530  153.0160 C   0  0  0  0  0  1  0  0  0  0  0  0
  161.4740  206.4750  152.2590 C   0  0  0  0  0  0  0  0  0  0  0  0
  161.4660  206.5820  148.0670 C   0  0  0  0  0  0  0  0  0  0  0  0
  161.6840  207.5560  148.7440 C   0  0  0  0  0  0  0  0  0  0  0  0
  161.5810  203.0390  148.2610 C   0  0  0  0  0  3  0  0  0  0  0  0
  161.2160  205.4210  147.2620 C   0  0  0  0  0  3  0  0  0  0  0  0
  161.3980  204.2310  147.7610 C   0  0  0  0  0  0  0  0  0  0  0  0
  160.4290  202.2130  148.7280 C   0  0  0  0  0  2  0  0  0  0  0  0
  160.8310  201.3400  149.9040 C   0  0  0  0  0  1  0  0  0  0  0  0
  1  3  1  0  0  0  0
  2  4  1  0  0  0  0
  3  4  2  0  0  0  0
  5  1  2  0  0  0  0
  5  8  1  0  0  0  0
  6 11  2  0  0  0  0
  7 12  1  0  0  0  0
  7  6  1  0  0  0  0
  8  2  2  0  0  0  0
  9  6  1  0  0  0  0
  9  5  1  0  0  0  0
 10  9  2  0  0  0  0
 11  8  1  0  0  0  0
 13 10  1  0  0  0  0
 14 13  1  0  0  0  0
 15 18  1  0  0  0  0
 15 20  1  0  0  0  0
 18 19  1  0  0  0  0
 19 17  1  1  0  0  0
 19 14  1  0  0  0  0
 20 16  1  1  0  0  0
 20 19  1  0  0  0  0
 21 10  1  0  0  0  0
 22 21  1  0  0  0  0
 22 24  1  0  0  0  0
 23 22  2  0  0  0  0
 24 26  3  0  0  0  0
 26 25  1  0  0  0  0
 27 28  3  0  0  0  0
 28 23  1  0  0  0  0
 29 32  1  0  0  0  0
 30 31  2  0  0  0  0
 30 27  1  0  0  0  0
 31 29  2  0  0  0  0
 32 33  1  0  0  0  0
M  END
>  <MODEL>
3

>  <REMARK>
 VINA RESULT:      -7.5      2.733      5.580
  Name = 
  9 active torsions:
  status: ('A' for Active; 'I' for Inactive)
    1  A    between atoms: C_1  and  C_18
    2  A    between atoms: C_2  and  C_7
    3  A    between atoms: C_3  and  C_8
    4  A    between atoms: C_3  and  C_17
    5  A    between atoms: O_6  and  C_15
    6  A    between atoms: O_6  and  C_31
    7  A    between atoms: C_9  and  C_10
    8  A    between atoms: C_15  and  C_27
    9  A    between atoms: C_17  and  C_27
                            x       y       z     vdW  Elec       q    Type
                         _______ _______ _______ _____ _____    ______ ____

>  <TORSDO>
F 9

$$$$
=
 OpenBabel11042421253D

 33 35  0  0  1  0  0  0  0  0999 V2000
  161.2080  209.5530  154.8370 N   0  0  0  0  0  0  0  0  0  0  0  0
  159.0810  210.7260  156.1770 C   0  0  0  0  0  3  0  0  0  0  0  0
  160.9910  209.2970  156.1610 C   0  0  0  0  0  3  0  0  0  0  0  0
  159.9390  209.8800  156.8180 N   0  0  0  0  0  0  0  0  0  0  0  0
  160.3600  210.3960  154.1970 C   0  0  0  0  0  0  0  0  0  0  0  0
  159.1450  211.7310  152.7990 C   0  0  0  0  0  0  0  0  0  0  0  0
  158.6720  212.4400  151.6530 N   0  0  0  0  0  2  0  0  0  0  0  0
  159.3080  210.9820  154.8320 C   0  0  0  0  0  0  0  0  0  0  0  0
  160.3360  210.8460  152.8130 C   0  0  0  0  0  0  0  0  0  0  0  0
  161.1870  210.5460  151.8160 C   0  0  0  0  0  0  0  0  0  0  0  0
  158.5540  211.8120  153.9570 N   0  0  0  0  0  0  0  0  0  0  0  0
  157.5760  213.2310  151.7280 O   0  0  0  0  0  1  0  0  0  0  0  0
  160.9770  211.1290  150.4470 C   0  0  0  0  0  2  0  0  0  0  0  0
  162.1450  211.7380  149.9550 O   0  0  0  0  0  0  0  0  0  0  0  0
  162.5560  213.7000  147.4950 C   0  0  0  0  0  2  0  0  0  0  0  0
  160.9770  214.3050  149.6060 Cl  0  0  0  0  0  0  0  0  0  0  0  0
  161.3770  210.8500  147.9190 O   0  0  0  0  0  1  0  0  0  0  0  0
  163.2490  212.3980  147.8600 C   0  0  0  0  0  2  0  0  0  0  0  0
  161.9870  211.9330  148.5640 C   0  0  2  0  0  0  0  0  0  0  0  0
  161.2930  213.2420  148.2030 C   0  0  2  0  0  3  0  0  0  0  0  0
  162.3680  209.6520  152.0780 C   0  0  0  0  0  2  0  0  0  0  0  0
  162.0930  208.2470  151.6480 C   0  0  0  0  0  0  0  0  0  0  0  0
  161.8140  207.3350  152.5820 C   0  0  0  0  0  3  0  0  0  0  0  0
  162.1360  207.9150  150.2420 C   0  0  0  0  0  0  0  0  0  0  0  0
  162.2030  207.3020  147.6470 C   0  0  0  0  0  1  0  0  0  0  0  0
  162.1670  207.6380  149.0690 C   0  0  0  0  0  0  0  0  0  0  0  0
  161.2750  204.8050  152.0200 C   0  0  0  0  0  0  0  0  0  0  0  0
  161.5180  205.9570  152.2800 C   0  0  0  0  0  0  0  0  0  0  0  0
  160.3450  202.7650  149.2670 C   0  0  0  0  0  3  0  0  0  0  0  0
  160.9910  203.4340  151.7040 C   0  0  0  0  0  3  0  0  0  0  0  0
  160.6690  203.1000  150.4870 C   0  0  0  0  0  0  0  0  0  0  0  0
  161.3390  202.1340  148.3510 C   0  0  0  0  0  2  0  0  0  0  0  0
  161.1750  200.6240  148.3330 C   0  0  0  0  0  1  0  0  0  0  0  0
  1  3  1  0  0  0  0
  2  4  1  0  0  0  0
  3  4  2  0  0  0  0
  5  8  1  0  0  0  0
  5  1  2  0  0  0  0
  6  9  1  0  0  0  0
  6 11  2  0  0  0  0
  7 12  1  0  0  0  0
  7  6  1  0  0  0  0
  8  2  2  0  0  0  0
  9  5  1  0  0  0  0
 10 21  1  0  0  0  0
 10  9  2  0  0  0  0
 11  8  1  0  0  0  0
 13 10  1  0  0  0  0
 14 13  1  0  0  0  0
 15 18  1  0  0  0  0
 15 20  1  0  0  0  0
 18 19  1  0  0  0  0
 19 17  1  6  0  0  0
 19 14  1  0  0  0  0
 20 19  1  0  0  0  0
 20 16  1  1  0  0  0
 22 21  1  0  0  0  0
 22 23  2  0  0  0  0
 24 22  1  0  0  0  0
 25 26  1  0  0  0  0
 26 24  3  0  0  0  0
 27 28  3  0  0  0  0
 28 23  1  0  0  0  0
 29 31  2  0  0  0  0
 30 27  1  0  0  0  0
 31 30  2  0  0  0  0
 32 29  1  0  0  0  0
 33 32  1  0  0  0  0
M  END
>  <MODEL>
4

>  <REMARK>
 VINA RESULT:      -7.3      2.535      5.077
  Name = 
  9 active torsions:
  status: ('A' for Active; 'I' for Inactive)
    1  A    between atoms: C_1  and  C_18
    2  A    between atoms: C_2  and  C_7
    3  A    between atoms: C_3  and  C_8
    4  A    between atoms: C_3  and  C_17
    5  A    between atoms: O_6  and  C_15
    6  A    between atoms: O_6  and  C_31
    7  A    between atoms: C_9  and  C_10
    8  A    between atoms: C_15  and  C_27
    9  A    between atoms: C_17  and  C_27
                            x       y       z     vdW  Elec       q    Type
                         _______ _______ _______ _____ _____    ______ ____

>  <TORSDO>
F 9

$$$$
=
 OpenBabel11042421253D

 33 35  0  0  1  0  0  0  0  0999 V2000
  161.5630  208.2940  153.8430 N   0  0  0  0  0  0  0  0  0  0  0  0
  159.8790  209.3720  155.7670 C   0  0  0  0  0  3  0  0  0  0  0  0
  161.4870  207.7440  155.0910 C   0  0  0  0  0  3  0  0  0  0  0  0
  160.6540  208.2810  156.0370 N   0  0  0  0  0  0  0  0  0  0  0  0
  160.7980  209.3800  153.5710 C   0  0  0  0  0  0  0  0  0  0  0  0
  159.6580  211.1800  152.7500 C   0  0  0  0  0  0  0  0  0  0  0  0
  159.1660  212.2150  151.8970 N   0  0  0  0  0  2  0  0  0  0  0  0
  159.9620  209.9260  154.4980 C   0  0  0  0  0  0  0  0  0  0  0  0
  160.6650  210.1650  152.3530 C   0  0  0  0  0  0  0  0  0  0  0  0
  161.3060  210.0140  151.1800 C   0  0  0  0  0  0  0  0  0  0  0  0
  159.2540  211.0460  153.9810 N   0  0  0  0  0  0  0  0  0  0  0  0
  158.2470  213.1040  152.3410 O   0  0  0  0  0  1  0  0  0  0  0  0
  161.0170  210.9480  150.0390 C   0  0  0  0  0  2  0  0  0  0  0  0
  162.0250  211.9170  149.8900 O   0  0  0  0  0  0  0  0  0  0  0  0
  161.5700  212.7130  146.8520 C   0  0  0  0  0  2  0  0  0  0  0  0
  164.0180  212.2030  147.8850 Cl  0  0  0  0  0  0  0  0  0  0  0  0
  161.1060  214.0630  149.6200 O   0  0  0  0  0  1  0  0  0  0  0  0
  160.5810  212.3730  147.9540 C   0  0  0  0  0  2  0  0  0  0  0  0
  161.5610  212.8990  148.9870 C   0  0  2  0  0  0  0  0  0  0  0  0
  162.5570  213.2360  147.8820 C   0  0  2  0  0  3  0  0  0  0  0  0
  162.3350  208.9280  151.0200 C   0  0  0  0  0  2  0  0  0  0  0  0
  161.8960  207.9050  150.0220 C   0  0  0  0  0  0  0  0  0  0  0  0
  161.8840  208.2360  148.7290 C   0  0  0  0  0  3  0  0  0  0  0  0
  161.5010  206.5920  150.4800 C   0  0  0  0  0  0  0  0  0  0  0  0
  160.7770  204.1710  151.3350 C   0  0  0  0  0  1  0  0  0  0  0  0
  161.1730  205.4980  150.8650 C   0  0  0  0  0  0  0  0  0  0  0  0
  161.1770  206.5650  146.8020 C   0  0  0  0  0  0  0  0  0  0  0  0
  161.4950  207.3250  147.6820 C   0  0  0  0  0  0  0  0  0  0  0  0
  161.6960  203.2090  145.7640 C   0  0  0  0  0  3  0  0  0  0  0  0
  160.8070  205.6620  145.7500 C   0  0  0  0  0  3  0  0  0  0  0  0
  161.2500  204.4370  145.7570 C   0  0  0  0  0  0  0  0  0  0  0  0
  160.8310  202.0780  146.2100 C   0  0  0  0  0  2  0  0  0  0  0  0
  160.0480  201.5030  145.0420 C   0  0  0  0  0  1  0  0  0  0  0  0
  1  3  1  0  0  0  0
  2  4  1  0  0  0  0
  3  4  2  0  0  0  0
  5  1  2  0  0  0  0
  5  8  1  0  0  0  0
  6 11  2  0  0  0  0
  7 12  1  0  0  0  0
  7  6  1  0  0  0  0
  8  2  2  0  0  0  0
  9  6  1  0  0  0  0
  9  5  1  0  0  0  0
 10  9  2  0  0  0  0
 11  8  1  0  0  0  0
 13 10  1  0  0  0  0
 14 13  1  0  0  0  0
 15 20  1  0  0  0  0
 15 18  1  0  0  0  0
 18 19  1  0  0  0  0
 19 17  1  1  0  0  0
 19 14  1  0  0  0  0
 20 16  1  1  0  0  0
 20 19  1  0  0  0  0
 21 10  1  0  0  0  0
 22 24  1  0  0  0  0
 22 21  1  0  0  0  0
 23 22  2  0  0  0  0
 24 26  3  0  0  0  0
 26 25  1  0  0  0  0
 27 28  3  0  0  0  0
 28 23  1  0  0  0  0
 29 32  1  0  0  0  0
 30 31  2  0  0  0  0
 30 27  1  0  0  0  0
 31 29  2  0  0  0  0
 33 32  1  0  0  0  0
M  END
>  <MODEL>
5

>  <REMARK>
 VINA RESULT:      -6.6      2.697      5.622
  Name = 
  9 active torsions:
  status: ('A' for Active; 'I' for Inactive)
    1  A    between atoms: C_1  and  C_18
    2  A    between atoms: C_2  and  C_7
    3  A    between atoms: C_3  and  C_8
    4  A    between atoms: C_3  and  C_17
    5  A    between atoms: O_6  and  C_15
    6  A    between atoms: O_6  and  C_31
    7  A    between atoms: C_9  and  C_10
    8  A    between atoms: C_15  and  C_27
    9  A    between atoms: C_17  and  C_27
                            x       y       z     vdW  Elec       q    Type
                         _______ _______ _______ _____ _____    ______ ____

>  <TORSDO>
F 9

$$$$
=
 OpenBabel11042421253D

 33 35  0  0  1  0  0  0  0  0999 V2000
  161.8790  212.2020  149.1360 N   0  0  0  0  0  0  0  0  0  0  0  0
  160.0510  214.0160  148.1030 C   0  0  0  0  0  3  0  0  0  0  0  0
  162.0550  212.7400  147.8930 C   0  0  0  0  0  3  0  0  0  0  0  0
  161.1490  213.6340  147.3870 N   0  0  0  0  0  0  0  0  0  0  0  0
  160.7870  212.5750  149.8490 C   0  0  0  0  0  0  0  0  0  0  0  0
  159.0990  212.9770  151.3340 C   0  0  0  0  0  0  0  0  0  0  0  0
  158.2590  212.9550  152.4890 N   0  0  0  0  0  2  0  0  0  0  0  0
  159.8770  213.4650  149.3650 C   0  0  0  0  0  0  0  0  0  0  0  0
  160.3430  212.1840  151.1790 C   0  0  0  0  0  0  0  0  0  0  0  0
  160.9110  211.3130  152.0320 C   0  0  0  0  0  0  0  0  0  0  0  0
  158.8280  213.7130  150.2930 N   0  0  0  0  0  0  0  0  0  0  0  0
  157.1370  213.7100  152.5470 O   0  0  0  0  0  1  0  0  0  0  0  0
  160.2790  211.0500  153.3700 C   0  0  0  0  0  2  0  0  0  0  0  0
  161.1920  211.2320  154.4240 O   0  0  0  0  0  0  0  0  0  0  0  0
  158.7750  210.8220  156.4380 C   0  0  0  0  0  2  0  0  0  0  0  0
  160.0840  213.1740  156.1770 Cl  0  0  0  0  0  0  0  0  0  0  0  0
  161.6310  209.6320  156.0880 O   0  0  0  0  0  1  0  0  0  0  0  0
  159.3330  209.9190  155.3510 C   0  0  0  0  0  2  0  0  0  0  0  0
  160.7050  210.5360  155.5530 C   0  0  2  0  0  0  0  0  0  0  0  0
  160.1440  211.4480  156.6400 C   0  0  2  0  0  3  0  0  0  0  0  0
  162.1640  210.5790  151.6360 C   0  0  0  0  0  2  0  0  0  0  0  0
  161.8680  209.1670  151.2480 C   0  0  0  0  0  0  0  0  0  0  0  0
  161.9480  208.8270  149.9600 C   0  0  0  0  0  3  0  0  0  0  0  0
  161.5050  208.2120  152.2710 C   0  0  0  0  0  0  0  0  0  0  0  0
  160.8390  206.4390  154.1500 C   0  0  0  0  0  1  0  0  0  0  0  0
  161.2040  207.4110  153.1200 C   0  0  0  0  0  0  0  0  0  0  0  0
  161.4980  206.3730  149.0750 C   0  0  0  0  0  0  0  0  0  0  0  0
  161.6990  207.4920  149.4760 C   0  0  0  0  0  0  0  0  0  0  0  0
  161.1680  204.5580  146.0420 C   0  0  0  0  0  3  0  0  0  0  0  0
  161.2650  205.0380  148.6040 C   0  0  0  0  0  3  0  0  0  0  0  0
  161.2170  204.7980  147.3240 C   0  0  0  0  0  0  0  0  0  0  0  0
  162.3300  203.9540  145.3260 C   0  0  0  0  0  2  0  0  0  0  0  0
  163.6360  204.3250  146.0070 C   0  0  0  0  0  1  0  0  0  0  0  0
  1  5  1  0  0  0  0
  2  8  1  0  0  0  0
  3  1  2  0  0  0  0
  4  3  1  0  0  0  0
  4  2  2  0  0  0  0
  5  9  1  0  0  0  0
  6  7  1  0  0  0  0
  7 12  1  0  0  0  0
  8  5  2  0  0  0  0
  8 11  1  0  0  0  0
  9  6  1  0  0  0  0
  9 10  2  0  0  0  0
 10 13  1  0  0  0  0
 11  6  2  0  0  0  0
 13 14  1  0  0  0  0
 14 19  1  0  0  0  0
 15 20  1  0  0  0  0
 18 19  1  0  0  0  0
 18 15  1  0  0  0  0
 19 17  1  1  0  0  0
 19 20  1  0  0  0  0
 20 16  1  6  0  0  0
 21 10  1  0  0  0  0
 22 21  1  0  0  0  0
 22 24  1  0  0  0  0
 23 22  2  0  0  0  0
 24 26  3  0  0  0  0
 26 25  1  0  0  0  0
 27 28  3  0  0  0  0
 28 23  1  0  0  0  0
 29 31  2  0  0  0  0
 30 27  1  0  0  0  0
 31 30  2  0  0  0  0
 32 33  1  0  0  0  0
 32 29  1  0  0  0  0
M  END
>  <MODEL>
6

>  <REMARK>
 VINA RESULT:      -6.5      2.088      2.838
  Name = 
  9 active torsions:
  status: ('A' for Active; 'I' for Inactive)
    1  A    between atoms: C_1  and  C_18
    2  A    between atoms: C_2  and  C_7
    3  A    between atoms: C_3  and  C_8
    4  A    between atoms: C_3  and  C_17
    5  A    between atoms: O_6  and  C_15
    6  A    between atoms: O_6  and  C_31
    7  A    between atoms: C_9  and  C_10
    8  A    between atoms: C_15  and  C_27
    9  A    between atoms: C_17  and  C_27
                            x       y       z     vdW  Elec       q    Type
                         _______ _______ _______ _____ _____    ______ ____

>  <TORSDO>
F 9

$$$$
=
 OpenBabel11042421253D

 33 35  0  0  1  0  0  0  0  0999 V2000
  161.8700  210.4200  154.8810 N   0  0  0  0  0  0  0  0  0  0  0  0
  160.2700  212.1920  156.2950 C   0  0  0  0  0  3  0  0  0  0  0  0
  161.9530  210.5010  156.2420 C   0  0  0  0  0  3  0  0  0  0  0  0
  161.1610  211.3780  156.9350 N   0  0  0  0  0  0  0  0  0  0  0  0
  160.9900  211.2290  154.2410 C   0  0  0  0  0  0  0  0  0  0  0  0
  159.6260  212.4040  152.8360 C   0  0  0  0  0  0  0  0  0  0  0  0
  158.9710  212.9110  151.6730 N   0  0  0  0  0  2  0  0  0  0  0  0
  160.1930  212.1050  154.9120 C   0  0  0  0  0  0  0  0  0  0  0  0
  160.6820  211.3610  152.8250 C   0  0  0  0  0  0  0  0  0  0  0  0
  161.2290  210.7140  151.7800 C   0  0  0  0  0  0  0  0  0  0  0  0
  159.3440  212.8330  154.0330 N   0  0  0  0  0  0  0  0  0  0  0  0
  158.0180  213.8670  151.7730 O   0  0  0  0  0  1  0  0  0  0  0  0
  160.7590  211.0080  150.3830 C   0  0  0  0  0  2  0  0  0  0  0  0
  161.8120  211.4420  149.5590 O   0  0  0  0  0  0  0  0  0  0  0  0
  161.5410  212.8490  146.7280 C   0  0  0  0  0  2  0  0  0  0  0  0
  163.9280  212.1930  147.8180 Cl  0  0  0  0  0  0  0  0  0  0  0  0
  160.8280  213.5730  149.6710 O   0  0  0  0  0  1  0  0  0  0  0  0
  160.4910  212.2590  147.6550 C   0  0  0  0  0  2  0  0  0  0  0  0
  161.3740  212.5810  148.8470 C   0  0  2  0  0  0  0  0  0  0  0  0
  162.4310  213.1670  147.9180 C   0  0  2  0  0  3  0  0  0  0  0  0
  162.3330  209.7180  152.0070 C   0  0  0  0  0  2  0  0  0  0  0  0
  161.8010  208.3240  152.0960 C   0  0  0  0  0  0  0  0  0  0  0  0
  161.8910  207.5360  151.0220 C   0  0  0  0  0  3  0  0  0  0  0  0
  161.2060  207.8690  153.3320 C   0  0  0  0  0  0  0  0  0  0  0  0
  160.0990  207.0380  155.6120 C   0  0  0  0  0  1  0  0  0  0  0  0
  160.7070  207.4930  154.3620 C   0  0  0  0  0  0  0  0  0  0  0  0
  161.0320  205.0320  150.9750 C   0  0  0  0  0  0  0  0  0  0  0  0
  161.4260  206.1720  151.0000 C   0  0  0  0  0  0  0  0  0  0  0  0
  160.4530  202.3970  148.6680 C   0  0  0  0  0  3  0  0  0  0  0  0
  160.5590  203.6780  150.9370 C   0  0  0  0  0  3  0  0  0  0  0  0
  160.5070  203.0370  149.8040 C   0  0  0  0  0  0  0  0  0  0  0  0
  161.4980  201.3980  148.2960 C   0  0  0  0  0  2  0  0  0  0  0  0
  161.2050  200.7900  146.9350 C   0  0  0  0  0  1  0  0  0  0  0  0
  1  3  1  0  0  0  0
  2  4  1  0  0  0  0
  3  4  2  0  0  0  0
  5  1  2  0  0  0  0
  5  8  1  0  0  0  0
  6 11  2  0  0  0  0
  7 12  1  0  0  0  0
  7  6  1  0  0  0  0
  8  2  2  0  0  0  0
  9  6  1  0  0  0  0
  9  5  1  0  0  0  0
 10 21  1  0  0  0  0
 10  9  2  0  0  0  0
 11  8  1  0  0  0  0
 13 10  1  0  0  0  0
 14 13  1  0  0  0  0
 15 18  1  0  0  0  0
 15 20  1  0  0  0  0
 18 19  1  0  0  0  0
 19 14  1  0  0  0  0
 19 17  1  1  0  0  0
 20 16  1  6  0  0  0
 20 19  1  0  0  0  0
 21 22  1  0  0  0  0
 22 24  1  0  0  0  0
 23 22  2  0  0  0  0
 24 26  3  0  0  0  0
 26 25  1  0  0  0  0
 27 28  3  0  0  0  0
 28 23  1  0  0  0  0
 29 31  2  0  0  0  0
 30 27  1  0  0  0  0
 31 30  2  0  0  0  0
 32 29  1  0  0  0  0
 33 32  1  0  0  0  0
M  END
>  <MODEL>
7

>  <REMARK>
 VINA RESULT:      -6.4      2.783      5.382
  Name = 
  9 active torsions:
  status: ('A' for Active; 'I' for Inactive)
    1  A    between atoms: C_1  and  C_18
    2  A    between atoms: C_2  and  C_7
    3  A    between atoms: C_3  and  C_8
    4  A    between atoms: C_3  and  C_17
    5  A    between atoms: O_6  and  C_15
    6  A    between atoms: O_6  and  C_31
    7  A    between atoms: C_9  and  C_10
    8  A    between atoms: C_15  and  C_27
    9  A    between atoms: C_17  and  C_27
                            x       y       z     vdW  Elec       q    Type
                         _______ _______ _______ _____ _____    ______ ____

>  <TORSDO>
F 9

$$$$
=
 OpenBabel11042421253D

 33 35  0  0  1  0  0  0  0  0999 V2000
  161.8110  206.6410  152.5660 N   0  0  0  0  0  0  0  0  0  0  0  0
  160.8920  204.2950  151.4020 C   0  0  0  0  0  3  0  0  0  0  0  0
  161.6490  205.5080  153.3120 C   0  0  0  0  0  3  0  0  0  0  0  0
  161.1940  204.3530  152.7320 N   0  0  0  0  0  0  0  0  0  0  0  0
  161.5080  206.5890  151.2450 C   0  0  0  0  0  0  0  0  0  0  0  0
  161.1250  206.8760  149.0120 C   0  0  0  0  0  0  0  0  0  0  0  0
  161.0110  207.4400  147.7060 N   0  0  0  0  0  2  0  0  0  0  0  0
  161.0580  205.4500  150.6500 C   0  0  0  0  0  0  0  0  0  0  0  0
  161.5830  207.6150  150.2150 C   0  0  0  0  0  0  0  0  0  0  0  0
  161.9550  208.9010  150.3340 C   0  0  0  0  0  0  0  0  0  0  0  0
  160.8210  205.6330  149.2600 N   0  0  0  0  0  0  0  0  0  0  0  0
  160.5810  206.6950  146.6610 O   0  0  0  0  0  1  0  0  0  0  0  0
  161.9580  209.7990  149.1290 C   0  0  0  0  0  2  0  0  0  0  0  0
  161.9770  211.1570  149.4900 O   0  0  0  0  0  0  0  0  0  0  0  0
  162.4180  213.9740  148.0970 C   0  0  0  0  0  2  0  0  0  0  0  0
  160.8470  213.6430  150.2740 Cl  0  0  0  0  0  0  0  0  0  0  0  0
  161.1990  211.2310  147.2740 O   0  0  0  0  0  1  0  0  0  0  0  0
  163.0930  212.6320  147.8700 C   0  0  0  0  0  2  0  0  0  0  0  0
  161.8230  211.9280  148.3150 C   0  0  2  0  0  0  0  0  0  0  0  0
  161.1480  213.2750  148.5500 C   0  0  2  0  0  3  0  0  0  0  0  0
  162.3410  209.4520  151.6810 C   0  0  0  0  0  2  0  0  0  0  0  0
  161.1450  209.9410  152.4320 C   0  0  0  0  0  0  0  0  0  0  0  0
  160.4540  210.9690  151.9340 C   0  0  0  0  0  3  0  0  0  0  0  0
  160.7700  209.2940  153.6680 C   0  0  0  0  0  0  0  0  0  0  0  0
  160.0900  208.0980  155.9540 C   0  0  0  0  0  1  0  0  0  0  0  0
  160.4620  208.7530  154.7010 C   0  0  0  0  0  0  0  0  0  0  0  0
  158.2930  211.9720  153.0880 C   0  0  0  0  0  0  0  0  0  0  0  0
  159.2770  211.5120  152.5650 C   0  0  0  0  0  0  0  0  0  0  0  0
  156.0260  211.3230  155.7430 C   0  0  0  0  0  3  0  0  0  0  0  0
  157.1220  212.5270  153.7040 C   0  0  0  0  0  3  0  0  0  0  0  0
  156.5750  211.9260  154.7230 C   0  0  0  0  0  0  0  0  0  0  0  0
  156.2460  211.8110  157.1360 C   0  0  0  0  0  2  0  0  0  0  0  0
  157.5880  212.5120  157.2580 C   0  0  0  0  0  1  0  0  0  0  0  0
  1  3  1  0  0  0  0
  2  4  1  0  0  0  0
  4  3  2  0  0  0  0
  5  1  2  0  0  0  0
  6 11  2  0  0  0  0
  6  9  1  0  0  0  0
  7  6  1  0  0  0  0
  8  5  1  0  0  0  0
  8  2  2  0  0  0  0
  9 10  2  0  0  0  0
  9  5  1  0  0  0  0
 10 21  1  0  0  0  0
 11  8  1  0  0  0  0
 12  7  1  0  0  0  0
 13 14  1  0  0  0  0
 13 10  1  0  0  0  0
 15 20  1  0  0  0  0
 18 15  1  0  0  0  0
 18 19  1  0  0  0  0
 19 17  1  6  0  0  0
 19 20  1  0  0  0  0
 19 14  1  0  0  0  0
 20 16  1  1  0  0  0
 21 22  1  0  0  0  0
 22 24  1  0  0  0  0
 23 22  2  0  0  0  0
 23 28  1  0  0  0  0
 24 26  3  0  0  0  0
 26 25  1  0  0  0  0
 27 30  1  0  0  0  0
 28 27  3  0  0  0  0
 29 32  1  0  0  0  0
 30 31  2  0  0  0  0
 31 29  2  0  0  0  0
 32 33  1  0  0  0  0
M  END
>  <MODEL>
8

>  <REMARK>
 VINA RESULT:      -6.4      3.696      8.319
  Name = 
  9 active torsions:
  status: ('A' for Active; 'I' for Inactive)
    1  A    between atoms: C_1  and  C_18
    2  A    between atoms: C_2  and  C_7
    3  A    between atoms: C_3  and  C_8
    4  A    between atoms: C_3  and  C_17
    5  A    between atoms: O_6  and  C_15
    6  A    between atoms: O_6  and  C_31
    7  A    between atoms: C_9  and  C_10
    8  A    between atoms: C_15  and  C_27
    9  A    between atoms: C_17  and  C_27
                            x       y       z     vdW  Elec       q    Type
                         _______ _______ _______ _____ _____    ______ ____

>  <TORSDO>
F 9

$$$$
=
 OpenBabel11042421253D

 33 35  0  0  1  0  0  0  0  0999 V2000
  160.3280  212.8680  151.1830 N   0  0  0  0  0  0  0  0  0  0  0  0
  157.8160  214.0380  151.3310 C   0  0  0  0  0  3  0  0  0  0  0  0
  159.9780  213.8800  150.3350 C   0  0  0  0  0  3  0  0  0  0  0  0
  158.7370  214.4530  150.4120 N   0  0  0  0  0  0  0  0  0  0  0  0
  159.4150  212.4490  152.0950 C   0  0  0  0  0  0  0  0  0  0  0  0
  158.1650  211.5040  153.7560 C   0  0  0  0  0  0  0  0  0  0  0  0
  157.7270  210.6850  154.8400 N   0  0  0  0  0  2  0  0  0  0  0  0
  158.1780  213.0090  152.1890 C   0  0  0  0  0  0  0  0  0  0  0  0
  159.5000  211.4150  153.1150 C   0  0  0  0  0  0  0  0  0  0  0  0
  160.5230  210.5850  153.3880 C   0  0  0  0  0  0  0  0  0  0  0  0
  157.4030  212.4180  153.2250 N   0  0  0  0  0  0  0  0  0  0  0  0
  156.4880  210.8310  155.3650 O   0  0  0  0  0  1  0  0  0  0  0  0
  160.3980  209.5770  154.4960 C   0  0  0  0  0  2  0  0  0  0  0  0
  161.4200  208.6130  154.4410 O   0  0  0  0  0  0  0  0  0  0  0  0
  159.9980  207.3610  156.9870 C   0  0  0  0  0  2  0  0  0  0  0  0
  162.3580  208.6770  157.1230 Cl  0  0  0  0  0  0  0  0  0  0  0  0
  161.1940  206.2760  154.3250 O   0  0  0  0  0  1  0  0  0  0  0  0
  159.5160  207.5300  155.5560 C   0  0  0  0  0  2  0  0  0  0  0  0
  160.9510  207.4370  155.0690 C   0  0  2  0  0  0  0  0  0  0  0  0
  161.4360  207.2740  156.5060 C   0  0  2  0  0  3  0  0  0  0  0  0
  161.7810  210.6440  152.5650 C   0  0  0  0  0  2  0  0  0  0  0  0
  161.6370  209.8690  151.2950 C   0  0  0  0  0  0  0  0  0  0  0  0
  161.3120  208.5760  151.3680 C   0  0  0  0  0  3  0  0  0  0  0  0
  161.8530  210.5340  150.0300 C   0  0  0  0  0  0  0  0  0  0  0  0
  162.2580  211.7700  147.7010 C   0  0  0  0  0  1  0  0  0  0  0  0
  162.0350  211.0920  148.9770 C   0  0  0  0  0  0  0  0  0  0  0  0
  160.9890  207.0400  149.2360 C   0  0  0  0  0  0  0  0  0  0  0  0
  161.1330  207.7380  150.2090 C   0  0  0  0  0  0  0  0  0  0  0  0
  161.8300  203.8060  148.0370 C   0  0  0  0  0  3  0  0  0  0  0  0
  160.8260  206.2130  148.0750 C   0  0  0  0  0  3  0  0  0  0  0  0
  161.3270  205.0100  148.0560 C   0  0  0  0  0  0  0  0  0  0  0  0
  160.9690  202.6070  148.2610 C   0  0  0  0  0  2  0  0  0  0  0  0
  160.6610  202.4310  149.7380 C   0  0  0  0  0  1  0  0  0  0  0  0
  1  5  1  0  0  0  0
  2  8  1  0  0  0  0
  3  4  1  0  0  0  0
  3  1  2  0  0  0  0
  4  2  2  0  0  0  0
  5  8  2  0  0  0  0
  5  9  1  0  0  0  0
  6  7  1  0  0  0  0
  7 12  1  0  0  0  0
  8 11  1  0  0  0  0
  9 10  2  0  0  0  0
  9  6  1  0  0  0  0
 10 13  1  0  0  0  0
 11  6  2  0  0  0  0
 14 13  1  0  0  0  0
 14 19  1  0  0  0  0
 18 15  1  0  0  0  0
 19 17  1  6  0  0  0
 19 18  1  0  0  0  0
 19 20  1  0  0  0  0
 20 15  1  0  0  0  0
 20 16  1  1  0  0  0
 21 10  1  0  0  0  0
 22 23  2  0  0  0  0
 22 21  1  0  0  0  0
 24 22  1  0  0  0  0
 25 26  1  0  0  0  0
 26 24  3  0  0  0  0
 27 28  3  0  0  0  0
 28 23  1  0  0  0  0
 29 31  2  0  0  0  0
 29 32  1  0  0  0  0
 30 27  1  0  0  0  0
 31 30  2  0  0  0  0
 32 33  1  0  0  0  0
M  END
>  <MODEL>
9

>  <REMARK>
 VINA RESULT:      -6.2      1.710      2.873
  Name = 
  9 active torsions:
  status: ('A' for Active; 'I' for Inactive)
    1  A    between atoms: C_1  and  C_18
    2  A    between atoms: C_2  and  C_7
    3  A    between atoms: C_3  and  C_8
    4  A    between atoms: C_3  and  C_17
    5  A    between atoms: O_6  and  C_15
    6  A    between atoms: O_6  and  C_31
    7  A    between atoms: C_9  and  C_10
    8  A    between atoms: C_15  and  C_27
    9  A    between atoms: C_17  and  C_27
                            x       y       z     vdW  Elec       q    Type
                         _______ _______ _______ _____ _____    ______ ____

>  <TORSDO>
F 9

$$$$
