=
 OpenBabel11042422473D

 38 43  0  0  1  0  0  0  0  0999 V2000
  161.6730  210.3310  148.9660 C   0  0  0  0  0  2  0  0  0  0  0  0
  157.7810  213.7790  154.0000 O   0  0  0  0  0  1  0  0  0  0  0  0
  161.6970  213.7400  147.7890 C   0  0  0  0  0  2  0  0  0  0  0  0
  160.3530  211.3690  147.2280 N   0  0  2  0  0  0  0  0  0  0  0  0
  161.2490  212.5420  149.9600 N   0  0  0  0  0  0  0  0  0  0  0  0
  162.2310  211.4700  149.8110 C   0  0  0  0  0  2  0  0  0  0  0  0
  160.9980  213.5590  149.1020 C   0  0  0  0  0  0  0  0  0  0  0  0
  157.1810  214.0950  151.0700 C   0  0  0  0  0  1  0  0  0  0  0  0
  158.5410  214.2310  151.7340 C   0  0  2  0  0  3  0  0  0  0  0  0
  159.6160  213.8080  150.7780 C   0  0  0  0  0  0  0  0  0  0  0  0
  159.9810  214.3850  149.5720 C   0  0  0  0  0  3  0  0  0  0  0  0
  160.2670  211.8670  152.1730 C   0  0  0  0  0  3  0  0  0  0  0  0
  160.7400  213.7010  146.6830 N   0  0  0  0  0  0  0  0  0  0  0  0
  158.5750  213.4190  152.9650 N   0  0  0  0  0  0  0  0  0  0  0  0
  160.5830  212.3310  146.1470 C   0  0  2  0  0  3  0  0  0  0  0  0
  161.6530  210.7390  147.5060 C   0  0  2  0  0  3  0  0  0  0  0  0
  159.3890  212.2340  153.1120 C   0  0  0  0  0  3  0  0  0  0  0  0
  160.6480  210.0040  146.7560 C   0  0  0  0  0  2  0  0  0  0  0  0
  160.3920  212.7020  150.9790 C   0  0  0  0  0  0  0  0  0  0  0  0
  161.3010  214.4530  145.7080 O   0  0  0  0  0  1  0  0  0  0  0  0
  159.7090  212.7330  143.7060 C   0  0  2  0  0  3  0  0  0  0  0  0
  157.4890  213.8640  145.1300 C   0  0  0  0  0  3  0  0  0  0  0  0
  157.9220  214.4530  143.8190 C   0  0  0  0  0  2  0  0  0  0  0  0
  157.5940  212.3170  146.8880 O   0  0  0  0  0  1  0  0  0  0  0  0
  159.4060  214.2250  143.5630 C   0  0  0  0  0  2  0  0  0  0  0  0
  158.1180  212.8360  145.7110 C   0  0  0  0  0  0  0  0  0  0  0  0
  159.3990  212.2520  145.1460 C   0  0  2  0  0  3  0  0  0  0  0  0
  161.0380  211.5900  141.9320 C   0  0  0  0  0  0  0  0  0  0  0  0
  161.1150  212.3500  143.2120 C   0  0  1  0  0  3  0  0  0  0  0  0
  161.9230  213.5960  142.8040 C   0  0  0  0  0  2  0  0  0  0  0  0
  160.4970  210.4600  141.8080 O   0  0  0  0  0  0  0  0  0  0  0  0
  161.6950  212.3080  140.8580 C   0  0  0  0  0  0  0  0  0  0  0  0
  162.2030  213.4340  141.3430 C   0  0  0  0  0  0  0  0  0  0  0  0
  161.7650  211.8620  139.4920 N   0  0  0  0  0  0  0  0  0  0  0  0
  162.8730  211.2020  139.0140 O   0  0  0  0  0  0  0  0  0  0  0  0
  160.8320  212.1140  138.7030 O   0  0  0  0  0  0  0  0  0  0  0  0
  162.9710  214.4530  140.5700 C   0  0  0  0  0  2  0  0  0  0  0  0
  164.3180  214.1370  140.5850 F   0  0  0  0  0  0  0  0  0  0  0  0
  1  6  1  0  0  0  0
  3  7  1  0  0  0  0
  4 18  1  6  0  0  0
  4 16  1  0  0  0  0
  5 19  1  0  0  0  0
  6  5  1  0  0  0  0
  7 11  2  0  0  0  0
  7  5  1  0  0  0  0
  9  8  1  6  0  0  0
  9 14  1  0  0  0  0
 10 19  2  0  0  0  0
 10  9  1  0  0  0  0
 11 10  1  0  0  0  0
 12 17  2  0  0  0  0
 13  3  1  0  0  0  0
 14 17  1  0  0  0  0
 14  2  1  0  0  0  0
 15 13  1  1  0  0  0
 15  4  1  0  0  0  0
 16 18  1  6  0  0  0
 16  1  1  0  0  0  0
 19 12  1  0  0  0  0
 20 13  1  0  0  0  0
 21 25  1  1  0  0  0
 21 27  1  0  0  0  0
 22 26  2  0  0  0  0
 23 22  1  0  0  0  0
 25 23  1  0  0  0  0
 26 24  1  0  0  0  0
 27 26  1  1  0  0  0
 27 15  1  0  0  0  0
 28 29  1  0  0  0  0
 29 30  1  6  0  0  0
 29 21  1  0  0  0  0
 31 28  2  0  0  0  0
 32 33  2  0  0  0  0
 32 28  1  0  0  0  0
 33 30  1  0  0  0  0
 34 32  1  0  0  0  0
 35 34  2  0  0  0  0
 36 34  2  0  0  0  0
 37 38  1  0  0  0  0
 37 33  1  0  0  0  0
M  END
>  <MODEL>
1

>  <REMARK>
 VINA RESULT:      -0.3      0.000      0.000
  Name = 
  4 active torsions:
  status: ('A' for Active; 'I' for Inactive)
    1  A    between atoms: N_1  and  C_32
    2  A    between atoms: C_2  and  C_22
    3  A    between atoms: C_12  and  C_34
    4  A    between atoms: C_29  and  C_38
                            x       y       z     vdW  Elec       q    Type
                         _______ _______ _______ _____ _____    ______ ____

>  <TORSDO>
F 4

$$$$
=
 OpenBabel11042422473D

 38 43  0  0  1  0  0  0  0  0999 V2000
  160.1770  207.8140  155.6840 C   0  0  0  0  0  2  0  0  0  0  0  0
  156.5110  214.0170  156.3560 O   0  0  0  0  0  1  0  0  0  0  0  0
  162.3120  210.1820  153.9990 C   0  0  0  0  0  2  0  0  0  0  0  0
  160.4530  208.2270  153.3190 N   0  0  2  0  0  0  0  0  0  0  0  0
  160.4220  210.2620  155.6640 N   0  0  0  0  0  0  0  0  0  0  0  0
  160.7400  209.0380  156.3960 C   0  0  0  0  0  2  0  0  0  0  0  0
  161.0960  210.7990  154.6200 C   0  0  0  0  0  0  0  0  0  0  0  0
  157.5450  213.0920  153.6880 C   0  0  0  0  0  1  0  0  0  0  0  0
  158.3360  213.1790  154.9820 C   0  0  2  0  0  3  0  0  0  0  0  0
  159.3940  212.1180  155.0030 C   0  0  0  0  0  0  0  0  0  0  0  0
  160.4910  211.9690  154.1690 C   0  0  0  0  0  3  0  0  0  0  0  0
  158.3500  210.9390  156.9160 C   0  0  0  0  0  3  0  0  0  0  0  0
  162.0740  209.8760  152.5880 N   0  0  0  0  0  0  0  0  0  0  0  0
  157.4210  213.0410  156.1320 N   0  0  0  0  0  0  0  0  0  0  0  0
  161.5680  208.4980  152.4080 C   0  0  2  0  0  3  0  0  0  0  0  0
  161.0190  207.4980  154.4640 C   0  0  2  0  0  3  0  0  0  0  0  0
  157.4240  211.8970  157.0140 C   0  0  0  0  0  3  0  0  0  0  0  0
  160.2610  206.7720  153.4590 C   0  0  0  0  0  2  0  0  0  0  0  0
  159.3790  211.0750  155.8850 C   0  0  0  0  0  0  0  0  0  0  0  0
  163.2960  209.9350  152.0070 O   0  0  0  0  0  1  0  0  0  0  0  0
  161.2970  206.8250  150.4050 C   0  0  2  0  0  3  0  0  0  0  0  0
  162.3400  209.0600  148.9380 C   0  0  0  0  0  3  0  0  0  0  0  0
  162.6970  207.6590  148.5320 C   0  0  0  0  0  2  0  0  0  0  0  0
  161.2400  210.6640  150.2440 O   0  0  0  0  0  1  0  0  0  0  0  0
  162.6570  206.7030  149.7170 C   0  0  0  0  0  2  0  0  0  0  0  0
  161.5730  209.3390  149.9960 C   0  0  0  0  0  0  0  0  0  0  0  0
  161.0910  208.2610  150.9490 C   0  0  2  0  0  3  0  0  0  0  0  0
  160.2450  204.6100  150.8600 C   0  0  0  0  0  0  0  0  0  0  0  0
  161.0440  205.7220  151.4480 C   0  0  1  0  0  3  0  0  0  0  0  0
  162.3530  205.0130  151.8400 C   0  0  0  0  0  2  0  0  0  0  0  0
  159.0630  204.7270  150.4420 O   0  0  0  0  0  0  0  0  0  0  0  0
  160.9950  203.3700  150.8620 C   0  0  0  0  0  0  0  0  0  0  0  0
  162.1800  203.5870  151.4190 C   0  0  0  0  0  0  0  0  0  0  0  0
  160.5210  202.1200  150.3310 N   0  0  0  0  0  0  0  0  0  0  0  0
  160.4840  201.8910  148.9750 O   0  0  0  0  0  0  0  0  0  0  0  0
  160.0870  201.2380  151.0990 O   0  0  0  0  0  0  0  0  0  0  0  0
  163.2490  202.5690  151.6290 C   0  0  0  0  0  2  0  0  0  0  0  0
  162.7540  201.5130  152.3740 F   0  0  0  0  0  0  0  0  0  0  0  0
  1  6  1  0  0  0  0
  3  7  1  0  0  0  0
  4 18  1  6  0  0  0
  4 16  1  0  0  0  0
  5 19  1  0  0  0  0
  5  6  1  0  0  0  0
  7  5  1  0  0  0  0
  9  8  1  6  0  0  0
  9 10  1  0  0  0  0
  9 14  1  0  0  0  0
 10 19  2  0  0  0  0
 11  7  2  0  0  0  0
 11 10  1  0  0  0  0
 12 17  2  0  0  0  0
 13  3  1  0  0  0  0
 14  2  1  0  0  0  0
 14 17  1  0  0  0  0
 15 13  1  6  0  0  0
 15  4  1  0  0  0  0
 16 18  1  6  0  0  0
 16  1  1  0  0  0  0
 19 12  1  0  0  0  0
 20 13  1  0  0  0  0
 21 25  1  1  0  0  0
 21 27  1  0  0  0  0
 21 29  1  0  0  0  0
 22 26  2  0  0  0  0
 23 22  1  0  0  0  0
 23 25  1  0  0  0  0
 26 24  1  0  0  0  0
 27 26  1  6  0  0  0
 27 15  1  0  0  0  0
 28 32  1  0  0  0  0
 28 29  1  0  0  0  0
 29 30  1  6  0  0  0
 31 28  2  0  0  0  0
 32 33  2  0  0  0  0
 33 37  1  0  0  0  0
 33 30  1  0  0  0  0
 34 32  1  0  0  0  0
 34 36  2  0  0  0  0
 35 34  2  0  0  0  0
 37 38  1  0  0  0  0
M  END
>  <MODEL>
2

>  <REMARK>
 VINA RESULT:       1.9      7.042      9.340
  Name = 
  4 active torsions:
  status: ('A' for Active; 'I' for Inactive)
    1  A    between atoms: N_1  and  C_32
    2  A    between atoms: C_2  and  C_22
    3  A    between atoms: C_12  and  C_34
    4  A    between atoms: C_29  and  C_38
                            x       y       z     vdW  Elec       q    Type
                         _______ _______ _______ _____ _____    ______ ____

>  <TORSDO>
F 4

$$$$
=
 OpenBabel11042422473D

 38 43  0  0  1  0  0  0  0  0999 V2000
  160.9850  206.2610  153.6730 C   0  0  0  0  0  2  0  0  0  0  0  0
  158.6730  213.0870  154.3290 O   0  0  0  0  0  1  0  0  0  0  0  0
  163.0810  208.0360  151.3350 C   0  0  0  0  0  2  0  0  0  0  0  0
  160.8110  206.4280  151.2680 N   0  0  2  0  0  0  0  0  0  0  0  0
  161.6380  208.6080  153.3200 N   0  0  0  0  0  0  0  0  0  0  0  0
  161.8910  207.4060  154.1120 C   0  0  0  0  0  2  0  0  0  0  0  0
  162.1530  208.9220  152.1080 C   0  0  0  0  0  0  0  0  0  0  0  0
  158.9320  211.7750  151.6360 C   0  0  0  0  0  1  0  0  0  0  0  0
  159.9870  211.8100  152.7290 C   0  0  2  0  0  3  0  0  0  0  0  0
  160.8260  210.5700  152.6630 C   0  0  0  0  0  0  0  0  0  0  0  0
  161.6740  210.1480  151.6520 C   0  0  0  0  0  3  0  0  0  0  0  0
  160.0330  209.7660  154.8690 C   0  0  0  0  0  3  0  0  0  0  0  0
  162.4960  207.6720  150.0450 N   0  0  0  0  0  0  0  0  0  0  0  0
  159.3320  211.9400  154.0450 N   0  0  0  0  0  0  0  0  0  0  0  0
  161.7330  206.4070  150.1290 C   0  0  2  0  0  3  0  0  0  0  0  0
  161.4780  205.6960  152.3560 C   0  0  2  0  0  3  0  0  0  0  0  0
  159.3280  210.8900  155.0360 C   0  0  0  0  0  3  0  0  0  0  0  0
  160.4080  205.0530  151.6120 C   0  0  0  0  0  2  0  0  0  0  0  0
  160.8220  209.6210  153.6470 C   0  0  0  0  0  0  0  0  0  0  0  0
  163.5540  207.4490  149.2300 O   0  0  0  0  0  1  0  0  0  0  0  0
  161.2060  204.8090  148.1160 C   0  0  2  0  0  3  0  0  0  0  0  0
  161.4110  207.2680  146.6500 C   0  0  0  0  0  3  0  0  0  0  0  0
  161.8740  205.9800  146.0310 C   0  0  0  0  0  2  0  0  0  0  0  0
  160.4590  208.5720  148.3480 O   0  0  0  0  0  1  0  0  0  0  0  0
  162.3240  204.9790  147.0870 C   0  0  0  0  0  2  0  0  0  0  0  0
  160.9300  207.3470  147.8940 C   0  0  0  0  0  0  0  0  0  0  0  0
  160.9190  206.1540  148.8320 C   0  0  2  0  0  3  0  0  0  0  0  0
  160.1460  203.0880  149.5760 C   0  0  0  0  0  0  0  0  0  0  0  0
  161.4420  203.6310  149.0770 C   0  0  1  0  0  3  0  0  0  0  0  0
  162.0430  202.4200  148.3410 C   0  0  0  0  0  2  0  0  0  0  0  0
  159.3310  203.7320  150.2870 O   0  0  0  0  0  0  0  0  0  0  0  0
  159.9640  201.7110  149.1610 C   0  0  0  0  0  0  0  0  0  0  0  0
  161.0310  201.3260  148.4720 C   0  0  0  0  0  0  0  0  0  0  0  0
  158.8020  200.9120  149.4480 N   0  0  0  0  0  0  0  0  0  0  0  0
  157.6920  200.9530  148.6370 O   0  0  0  0  0  0  0  0  0  0  0  0
  158.7690  200.2030  150.4740 O   0  0  0  0  0  0  0  0  0  0  0  0
  161.2490  199.9750  147.8780 C   0  0  0  0  0  2  0  0  0  0  0  0
  161.2120  200.0560  146.4980 F   0  0  0  0  0  0  0  0  0  0  0  0
  1  6  1  0  0  0  0
  3  7  1  0  0  0  0
  4 18  1  6  0  0  0
  4 16  1  0  0  0  0
  5 19  1  0  0  0  0
  5  6  1  0  0  0  0
  7  5  1  0  0  0  0
  9  8  1  6  0  0  0
  9 14  1  0  0  0  0
 10  9  1  0  0  0  0
 10 19  2  0  0  0  0
 11  7  2  0  0  0  0
 11 10  1  0  0  0  0
 12 17  2  0  0  0  0
 13  3  1  0  0  0  0
 14  2  1  0  0  0  0
 14 17  1  0  0  0  0
 15 13  1  6  0  0  0
 15  4  1  0  0  0  0
 16 18  1  1  0  0  0
 16  1  1  0  0  0  0
 19 12  1  0  0  0  0
 20 13  1  0  0  0  0
 21 25  1  1  0  0  0
 21 27  1  0  0  0  0
 21 29  1  0  0  0  0
 22 26  2  0  0  0  0
 23 22  1  0  0  0  0
 23 25  1  0  0  0  0
 26 24  1  0  0  0  0
 27 26  1  6  0  0  0
 27 15  1  0  0  0  0
 28 31  2  0  0  0  0
 29 30  1  6  0  0  0
 29 28  1  0  0  0  0
 30 33  1  0  0  0  0
 32 34  1  0  0  0  0
 32 28  1  0  0  0  0
 33 32  2  0  0  0  0
 34 36  2  0  0  0  0
 35 34  2  0  0  0  0
 37 33  1  0  0  0  0
 38 37  1  0  0  0  0
M  END
>  <MODEL>
3

>  <REMARK>
 VINA RESULT:       2.1      6.606      9.170
  Name = 
  4 active torsions:
  status: ('A' for Active; 'I' for Inactive)
    1  A    between atoms: N_1  and  C_32
    2  A    between atoms: C_2  and  C_22
    3  A    between atoms: C_12  and  C_34
    4  A    between atoms: C_29  and  C_38
                            x       y       z     vdW  Elec       q    Type
                         _______ _______ _______ _____ _____    ______ ____

>  <TORSDO>
F 4

$$$$
=
 OpenBabel11042422473D

 38 43  0  0  1  0  0  0  0  0999 V2000
  156.7340  211.0810  153.7830 C   0  0  0  0  0  2  0  0  0  0  0  0
  157.9400  214.4420  147.4900 O   0  0  0  0  0  1  0  0  0  0  0  0
  158.8110  213.8640  154.7570 C   0  0  0  0  0  2  0  0  0  0  0  0
  159.1000  211.1390  154.2740 N   0  0  2  0  0  0  0  0  0  0  0  0
  157.3630  213.2420  152.7900 N   0  0  0  0  0  0  0  0  0  0  0  0
  156.3210  212.5240  153.5210 C   0  0  0  0  0  2  0  0  0  0  0  0
  158.4590  213.8530  153.3010 C   0  0  0  0  0  0  0  0  0  0  0  0
  160.2000  213.7290  149.3410 C   0  0  0  0  0  1  0  0  0  0  0  0
  158.9180  214.4520  149.7170 C   0  0  2  0  0  3  0  0  0  0  0  0
  158.5500  214.1280  151.1330 C   0  0  0  0  0  0  0  0  0  0  0  0
  159.2370  214.4270  152.2990 C   0  0  0  0  0  3  0  0  0  0  0  0
  156.4790  212.9480  150.4560 C   0  0  0  0  0  3  0  0  0  0  0  0
  160.1100  213.2270  154.9800 N   0  0  0  0  0  0  0  0  0  0  0  0
  157.8400  214.0670  148.7860 N   0  0  0  0  0  0  0  0  0  0  0  0
  159.9670  211.7820  155.2640 C   0  0  2  0  0  3  0  0  0  0  0  0
  157.7680  211.0380  154.8910 C   0  0  2  0  0  3  0  0  0  0  0  0
  156.6970  213.2770  149.1790 C   0  0  0  0  0  3  0  0  0  0  0  0
  158.6050  209.8540  154.8000 C   0  0  0  0  0  2  0  0  0  0  0  0
  157.4330  213.4130  151.4620 C   0  0  0  0  0  0  0  0  0  0  0  0
  160.5970  213.8110  156.1010 O   0  0  0  0  0  1  0  0  0  0  0  0
  161.3820  209.6880  154.5590 C   0  0  2  0  0  3  0  0  0  0  0  0
  162.3250  209.9350  157.2580 C   0  0  0  0  0  3  0  0  0  0  0  0
  162.1690  208.5770  156.6350 C   0  0  0  0  0  2  0  0  0  0  0  0
  162.2580  212.2770  157.2610 O   0  0  0  0  0  1  0  0  0  0  0  0
  161.0880  208.5720  155.5620 C   0  0  0  0  0  2  0  0  0  0  0  0
  162.0070  211.0680  156.6250 C   0  0  0  0  0  0  0  0  0  0  0  0
  161.3470  211.0700  155.2590 C   0  0  2  0  0  3  0  0  0  0  0  0
  161.1500  210.3440  152.1640 C   0  0  0  0  0  0  0  0  0  0  0  0
  160.5110  209.6100  153.2930 C   0  0  1  0  0  3  0  0  0  0  0  0
  160.4400  208.1710  152.7500 C   0  0  0  0  0  2  0  0  0  0  0  0
  161.3630  211.5850  152.1520 O   0  0  0  0  0  0  0  0  0  0  0  0
  161.4650  209.4470  151.0700 C   0  0  0  0  0  0  0  0  0  0  0  0
  161.0620  208.2230  151.3900 C   0  0  0  0  0  0  0  0  0  0  0  0
  162.1210  209.8350  149.8500 N   0  0  0  0  0  0  0  0  0  0  0  0
  162.3940  211.1550  149.5770 O   0  0  0  0  0  0  0  0  0  0  0  0
  162.4070  208.9750  148.9920 O   0  0  0  0  0  0  0  0  0  0  0  0
  161.1860  207.0080  150.5320 C   0  0  0  0  0  2  0  0  0  0  0  0
  160.9320  205.8750  151.2840 F   0  0  0  0  0  0  0  0  0  0  0  0
  2 14  1  0  0  0  0
  3 13  1  0  0  0  0
  4 18  1  1  0  0  0
  4 16  1  0  0  0  0
  4 15  1  0  0  0  0
  5  7  1  0  0  0  0
  5  6  1  0  0  0  0
  6  1  1  0  0  0  0
  7  3  1  0  0  0  0
  9  8  1  6  0  0  0
  9 10  1  0  0  0  0
 10 19  2  0  0  0  0
 10 11  1  0  0  0  0
 11  7  2  0  0  0  0
 12 19  1  0  0  0  0
 13 20  1  0  0  0  0
 14 17  1  0  0  0  0
 14  9  1  0  0  0  0
 15 13  1  6  0  0  0
 16  1  1  6  0  0  0
 17 12  2  0  0  0  0
 18 16  1  0  0  0  0
 19  5  1  0  0  0  0
 21 27  1  0  0  0  0
 21 25  1  1  0  0  0
 23 22  1  0  0  0  0
 25 23  1  0  0  0  0
 26 22  2  0  0  0  0
 26 24  1  0  0  0  0
 27 15  1  0  0  0  0
 27 26  1  1  0  0  0
 28 29  1  0  0  0  0
 29 30  1  6  0  0  0
 29 21  1  0  0  0  0
 31 28  2  0  0  0  0
 32 33  2  0  0  0  0
 32 28  1  0  0  0  0
 33 30  1  0  0  0  0
 34 32  1  0  0  0  0
 35 34  2  0  0  0  0
 36 34  2  0  0  0  0
 37 38  1  0  0  0  0
 37 33  1  0  0  0  0
M  END
>  <MODEL>
4

>  <REMARK>
 VINA RESULT:       2.1      5.668      9.276
  Name = 
  4 active torsions:
  status: ('A' for Active; 'I' for Inactive)
    1  A    between atoms: N_1  and  C_32
    2  A    between atoms: C_2  and  C_22
    3  A    between atoms: C_12  and  C_34
    4  A    between atoms: C_29  and  C_38
                            x       y       z     vdW  Elec       q    Type
                         _______ _______ _______ _____ _____    ______ ____

>  <TORSDO>
F 4

$$$$
=
 OpenBabel11042422473D

 38 43  0  0  1  0  0  0  0  0999 V2000
  160.4850  207.3130  154.1140 C   0  0  0  0  0  2  0  0  0  0  0  0
  157.1770  212.9270  157.2610 O   0  0  0  0  0  1  0  0  0  0  0  0
  162.7120  210.0550  153.3850 C   0  0  0  0  0  2  0  0  0  0  0  0
  160.7360  208.5940  152.0790 N   0  0  2  0  0  0  0  0  0  0  0  0
  160.8630  209.5670  155.0260 N   0  0  0  0  0  0  0  0  0  0  0  0
  161.1290  208.1430  155.2180 C   0  0  0  0  0  2  0  0  0  0  0  0
  161.5440  210.4360  154.2420 C   0  0  0  0  0  0  0  0  0  0  0  0
  158.1050  213.0590  154.4030 C   0  0  0  0  0  1  0  0  0  0  0  0
  158.9250  212.6070  155.6000 C   0  0  2  0  0  3  0  0  0  0  0  0
  159.9250  211.5760  155.1690 C   0  0  0  0  0  0  0  0  0  0  0  0
  160.9940  211.7140  154.3000 C   0  0  0  0  0  3  0  0  0  0  0  0
  158.8570  209.7960  156.5230 C   0  0  0  0  0  3  0  0  0  0  0  0
  162.4300  210.3270  151.9750 N   0  0  0  0  0  0  0  0  0  0  0  0
  158.0280  212.0760  156.6440 N   0  0  0  0  0  0  0  0  0  0  0  0
  161.8450  209.1480  151.2990 C   0  0  2  0  0  3  0  0  0  0  0  0
  161.2850  207.4570  152.8340 C   0  0  2  0  0  3  0  0  0  0  0  0
  157.9860  210.6810  157.0180 C   0  0  0  0  0  3  0  0  0  0  0  0
  160.4680  207.2070  151.6580 C   0  0  0  0  0  2  0  0  0  0  0  0
  159.8700  210.2760  155.5840 C   0  0  0  0  0  0  0  0  0  0  0  0
  163.6400  210.5540  151.4130 O   0  0  0  0  0  1  0  0  0  0  0  0
  161.8920  208.6520  148.7230 C   0  0  2  0  0  3  0  0  0  0  0  0
  162.0990  211.5120  148.5970 C   0  0  0  0  0  3  0  0  0  0  0  0
  162.8110  210.6590  147.5860 C   0  0  0  0  0  2  0  0  0  0  0  0
  160.7030  211.8760  150.4430 O   0  0  0  0  0  1  0  0  0  0  0  0
  163.1600  209.2890  148.1520 C   0  0  0  0  0  2  0  0  0  0  0  0
  161.3840  211.0030  149.6050 C   0  0  0  0  0  0  0  0  0  0  0  0
  161.3270  209.5120  149.8820 C   0  0  2  0  0  3  0  0  0  0  0  0
  161.0220  206.3350  148.4220 C   0  0  0  0  0  0  0  0  0  0  0  0
  162.0690  207.1660  149.0810 C   0  0  1  0  0  3  0  0  0  0  0  0
  163.3670  206.5960  148.4790 C   0  0  0  0  0  2  0  0  0  0  0  0
  159.7880  206.4250  148.6590 O   0  0  0  0  0  0  0  0  0  0  0  0
  161.6120  205.3880  147.4970 C   0  0  0  0  0  0  0  0  0  0  0  0
  162.9320  205.5240  147.5290 C   0  0  0  0  0  0  0  0  0  0  0  0
  160.8710  204.4670  146.6760 N   0  0  0  0  0  0  0  0  0  0  0  0
  160.6820  203.1620  147.0640 O   0  0  0  0  0  0  0  0  0  0  0  0
  160.4300  204.8330  145.5680 O   0  0  0  0  0  0  0  0  0  0  0  0
  163.9140  204.7290  146.7360 C   0  0  0  0  0  2  0  0  0  0  0  0
  163.6060  204.8080  145.3900 F   0  0  0  0  0  0  0  0  0  0  0  0
  1  6  1  0  0  0  0
  3  7  1  0  0  0  0
  4 18  1  6  0  0  0
  4 16  1  0  0  0  0
  5  6  1  0  0  0  0
  5 19  1  0  0  0  0
  7 11  2  0  0  0  0
  7  5  1  0  0  0  0
  9  8  1  6  0  0  0
  9 14  1  0  0  0  0
 10 19  2  0  0  0  0
 10  9  1  0  0  0  0
 11 10  1  0  0  0  0
 12 17  2  0  0  0  0
 13  3  1  0  0  0  0
 14 17  1  0  0  0  0
 14  2  1  0  0  0  0
 15 13  1  1  0  0  0
 15  4  1  0  0  0  0
 16 18  1  6  0  0  0
 16  1  1  0  0  0  0
 19 12  1  0  0  0  0
 20 13  1  0  0  0  0
 21 25  1  1  0  0  0
 21 29  1  0  0  0  0
 21 27  1  0  0  0  0
 22 26  2  0  0  0  0
 23 25  1  0  0  0  0
 23 22  1  0  0  0  0
 26 24  1  0  0  0  0
 27 26  1  6  0  0  0
 27 15  1  0  0  0  0
 28 31  2  0  0  0  0
 28 29  1  0  0  0  0
 29 30  1  6  0  0  0
 32 33  2  0  0  0  0
 32 28  1  0  0  0  0
 33 30  1  0  0  0  0
 34 35  2  0  0  0  0
 34 32  1  0  0  0  0
 36 34  2  0  0  0  0
 37 33  1  0  0  0  0
 38 37  1  0  0  0  0
M  END
>  <MODEL>
5

>  <REMARK>
 VINA RESULT:       2.3      5.526      7.178
  Name = 
  4 active torsions:
  status: ('A' for Active; 'I' for Inactive)
    1  A    between atoms: N_1  and  C_32
    2  A    between atoms: C_2  and  C_22
    3  A    between atoms: C_12  and  C_34
    4  A    between atoms: C_29  and  C_38
                            x       y       z     vdW  Elec       q    Type
                         _______ _______ _______ _____ _____    ______ ____

>  <TORSDO>
F 4

$$$$
