=
 OpenBabel11052409443D

 31 35  0  0  1  0  0  0  0  0999 V2000
  162.3600  205.1570  148.0460 C   0  0  0  0  0  0  0  0  0  0  0  0
  161.9590  206.8630  149.8840 C   0  0  0  0  0  0  0  0  0  0  0  0
  160.0120  204.2730  145.5950 C   0  0  0  0  0  3  0  0  0  0  0  0
  161.0390  200.6650  147.6240 C   0  0  0  0  0  3  0  0  0  0  0  0
  160.4970  200.6780  146.3260 C   0  0  1  0  0  3  0  0  0  0  0  0
  160.9630  203.0930  147.6810 C   0  0  0  0  0  0  0  0  0  0  0  0
  161.2900  209.0840  150.7280 N   0  0  0  0  0  0  0  0  0  0  0  0
  161.7510  204.5410  150.9130 C   0  0  0  0  0  3  0  0  0  0  0  0
  161.5420  206.0210  150.9680 C   0  0  0  0  0  0  0  0  0  0  0  0
  161.9100  201.9930  149.9450 S   0  0  0  0  0  0  0  0  0  0  0  0
  161.6090  203.7610  149.8470 C   0  0  0  0  0  0  0  0  0  0  0  0
  162.3510  208.8560  148.8070 O   0  0  0  0  0  0  0  0  0  0  0  0
  161.2640  201.8790  148.2880 C   0  0  0  0  0  0  0  0  0  0  0  0
  160.4170  203.0960  146.3940 C   0  0  0  0  0  0  0  0  0  0  0  0
  160.1980  201.9140  145.7280 C   0  0  0  0  0  0  0  0  0  0  0  0
  160.7250  205.4460  153.2010 N   0  0  0  0  0  1  0  0  0  0  0  0
  161.8700  208.2740  149.8190 C   0  0  0  0  0  0  0  0  0  0  0  0
  159.6260  202.1420  144.3830 C   0  0  0  0  0  3  0  0  0  0  0  0
  159.5110  203.6680  144.2770 C   0  0  0  0  0  3  0  0  0  0  0  0
  160.7030  208.8800  151.9180 C   0  0  0  0  0  0  0  0  0  0  0  0
  161.2190  204.3030  148.5180 C   0  0  1  0  0  3  0  0  0  0  0  0
  160.6260  207.6910  152.5370 N   0  0  0  0  0  0  0  0  0  0  0  0
  160.9890  206.4370  152.2030 C   0  0  0  0  0  0  0  0  0  0  0  0
  162.6570  206.2850  148.6910 C   0  0  0  0  0  3  0  0  0  0  0  0
  163.2030  204.7700  146.9410 C   0  0  0  0  0  0  0  0  0  0  0  0
  163.9020  204.4430  146.0140 C   0  0  0  0  0  0  0  0  0  0  0  0
  164.6930  204.0700  144.9660 O   0  0  0  0  0  1  0  0  0  0  0  0
  160.1760  210.0240  152.6050 C   0  0  0  0  0  0  0  0  0  0  0  0
  159.7510  210.9470  153.1590 N   0  0  0  0  0  0  0  0  0  0  0  0
  161.4480  198.6310  145.6370 O   0  0  0  0  0  1  0  0  0  0  0  0
  160.2820  199.3930  145.6010 C   0  0  0  0  0  2  0  0  0  0  0  0
  1 21  1  0  0  0  0
  1 24  2  0  0  0  0
  2  9  2  0  0  0  0
  3 14  1  0  0  0  0
  4 13  2  0  0  0  0
  5 31  1  6  0  0  0
  5  4  1  0  0  0  0
  6 13  1  0  0  0  0
  7 20  2  0  0  0  0
  8  9  1  0  0  0  0
  9 23  1  0  0  0  0
 11 10  1  0  0  0  0
 11  8  2  0  0  0  0
 12 17  2  0  0  0  0
 13 10  1  0  0  0  0
 14  6  2  0  0  0  0
 15  5  1  0  0  0  0
 15 14  1  0  0  0  0
 17  2  1  0  0  0  0
 17  7  1  0  0  0  0
 18 15  2  0  0  0  0
 19 18  1  0  0  0  0
 19  3  2  0  0  0  0
 20 22  1  0  0  0  0
 20 28  1  0  0  0  0
 21  6  1  6  0  0  0
 21 11  1  0  0  0  0
 23 22  2  0  0  0  0
 23 16  1  0  0  0  0
 24  2  1  0  0  0  0
 25  1  1  0  0  0  0
 26 25  3  0  0  0  0
 27 26  1  0  0  0  0
 28 29  3  0  0  0  0
 31 30  1  0  0  0  0
M  END
>  <MODEL>
1

>  <REMARK>
 VINA RESULT:      -1.2      0.000      0.000
  Name = 
  3 active torsions:
  status: ('A' for Active; 'I' for Inactive)
    1  A    between atoms: C_1  and  C_11
    2  A    between atoms: C_2  and  C_26
    3  A    between atoms: C_6  and  C_29
                            x       y       z     vdW  Elec       q    Type
                         _______ _______ _______ _____ _____    ______ ____

>  <TORSDO>
F 3

$$$$
=
 OpenBabel11052409443D

 31 35  0  0  1  0  0  0  0  0999 V2000
  161.9730  208.1440  150.8450 C   0  0  0  0  0  0  0  0  0  0  0  0
  160.9570  210.1620  152.0040 C   0  0  0  0  0  0  0  0  0  0  0  0
  160.3440  206.2040  148.4180 C   0  0  0  0  0  3  0  0  0  0  0  0
  161.4170  203.5310  151.5640 C   0  0  0  0  0  3  0  0  0  0  0  0
  161.1660  203.0960  150.2500 C   0  0  0  0  0  0  0  0  0  0  0  0
  160.9900  205.8250  150.8860 C   0  0  0  0  0  0  0  0  0  0  0  0
  159.8200  212.3520  152.0310 N   0  0  0  0  0  0  0  0  0  0  0  0
  160.8660  208.2000  153.6260 C   0  0  0  0  0  3  0  0  0  0  0  0
  160.4430  209.5710  153.2060 C   0  0  0  0  0  0  0  0  0  0  0  0
  161.5830  205.5680  153.4960 S   0  0  0  0  0  0  0  0  0  0  0  0
  161.0630  207.1540  152.8310 C   0  0  0  0  0  0  0  0  0  0  0  0
  161.2840  211.8370  150.4630 O   0  0  0  0  0  0  0  0  0  0  0  0
  161.3240  204.8980  151.8660 C   0  0  0  0  0  0  0  0  0  0  0  0
  160.7330  205.3830  149.5840 C   0  0  1  0  0  3  0  0  0  0  0  0
  160.8290  204.0480  149.2730 C   0  0  0  0  0  0  0  0  0  0  0  0
  159.2630  209.4580  155.3450 N   0  0  0  0  0  1  0  0  0  0  0  0
  160.6860  211.4610  151.5110 C   0  0  0  0  0  0  0  0  0  0  0  0
  160.5270  203.7960  147.8460 C   0  0  0  0  0  3  0  0  0  0  0  0
  160.2240  205.1880  147.2750 C   0  0  0  0  0  3  0  0  0  0  0  0
  159.0290  212.3590  153.1170 C   0  0  0  0  0  0  0  0  0  0  0  0
  160.8910  207.2400  151.3570 C   0  0  1  0  0  3  0  0  0  0  0  0
  158.9910  211.3840  154.0390 N   0  0  0  0  0  0  0  0  0  0  0  0
  159.5890  210.1820  154.1550 C   0  0  0  0  0  0  0  0  0  0  0  0
  161.9660  209.4370  151.1660 C   0  0  0  0  0  3  0  0  0  0  0  0
  163.0770  207.6510  150.0560 C   0  0  0  0  0  0  0  0  0  0  0  0
  163.9940  207.2380  149.3920 C   0  0  0  0  0  0  0  0  0  0  0  0
  165.0320  206.7680  148.6390 O   0  0  0  0  0  1  0  0  0  0  0  0
  158.2130  213.5180  153.3390 C   0  0  0  0  0  0  0  0  0  0  0  0
  157.5540  214.4530  153.5180 N   0  0  0  0  0  0  0  0  0  0  0  0
  160.0250  201.0820  149.7850 O   0  0  0  0  0  1  0  0  0  0  0  0
  161.2920  201.6490  149.9130 C   0  0  0  0  0  2  0  0  0  0  0  0
  1 24  2  0  0  0  0
  2  9  2  0  0  0  0
  4 13  1  0  0  0  0
  5  4  2  0  0  0  0
  6 21  1  0  0  0  0
  6 13  2  0  0  0  0
  7 20  2  0  0  0  0
  9  8  1  0  0  0  0
  9 23  1  0  0  0  0
 11 10  1  0  0  0  0
 11  8  2  0  0  0  0
 12 17  2  0  0  0  0
 13 10  1  0  0  0  0
 14  3  1  1  0  0  0
 14  6  1  0  0  0  0
 15 14  1  0  0  0  0
 15  5  1  0  0  0  0
 17  2  1  0  0  0  0
 17  7  1  0  0  0  0
 18 15  2  0  0  0  0
 19 18  1  0  0  0  0
 19  3  2  0  0  0  0
 20 28  1  0  0  0  0
 20 22  1  0  0  0  0
 21  1  1  6  0  0  0
 21 11  1  0  0  0  0
 22 23  2  0  0  0  0
 23 16  1  0  0  0  0
 24  2  1  0  0  0  0
 25  1  1  0  0  0  0
 26 25  3  0  0  0  0
 27 26  1  0  0  0  0
 28 29  3  0  0  0  0
 30 31  1  0  0  0  0
 31  5  1  0  0  0  0
M  END
>  <MODEL>
2

>  <REMARK>
 VINA RESULT:      -0.9      2.922      4.295
  Name = 
  3 active torsions:
  status: ('A' for Active; 'I' for Inactive)
    1  A    between atoms: C_1  and  C_11
    2  A    between atoms: C_2  and  C_26
    3  A    between atoms: C_6  and  C_29
                            x       y       z     vdW  Elec       q    Type
                         _______ _______ _______ _____ _____    ______ ____

>  <TORSDO>
F 3

$$$$
=
 OpenBabel11052409443D

 31 35  0  0  1  0  0  0  0  0999 V2000
  162.2300  207.2640  150.8800 C   0  0  0  0  0  0  0  0  0  0  0  0
  161.3770  208.7520  152.7530 C   0  0  0  0  0  0  0  0  0  0  0  0
  160.4780  206.5760  147.9200 C   0  0  0  0  0  3  0  0  0  0  0  0
  161.2550  202.8050  149.7540 C   0  0  0  0  0  3  0  0  0  0  0  0
  160.9890  202.9400  148.3800 C   0  0  1  0  0  3  0  0  0  0  0  0
  161.0450  205.2090  150.0320 C   0  0  0  0  0  0  0  0  0  0  0  0
  160.4370  210.8490  153.6530 N   0  0  0  0  0  0  0  0  0  0  0  0
  161.0840  206.3280  153.4830 C   0  0  0  0  0  3  0  0  0  0  0  0
  160.7920  207.7870  153.6390 C   0  0  0  0  0  0  0  0  0  0  0  0
  161.5670  203.9040  152.3240 S   0  0  0  0  0  0  0  0  0  0  0  0
  161.2010  205.6620  152.3400 C   0  0  0  0  0  0  0  0  0  0  0  0
  161.8770  210.8590  151.9810 O   0  0  0  0  0  0  0  0  0  0  0  0
  161.2780  203.9480  150.5670 C   0  0  0  0  0  0  0  0  0  0  0  0
  160.7720  205.3340  148.6660 C   0  0  0  0  0  0  0  0  0  0  0  0
  160.7550  204.2230  147.8570 C   0  0  0  0  0  0  0  0  0  0  0  0
  159.5690  206.9530  155.5860 N   0  0  0  0  0  1  0  0  0  0  0  0
  161.2310  210.1590  152.8100 C   0  0  0  0  0  0  0  0  0  0  0  0
  160.4560  204.5750  146.4510 C   0  0  0  0  0  3  0  0  0  0  0  0
  160.2880  206.1000  146.4740 C   0  0  0  0  0  3  0  0  0  0  0  0
  159.6320  210.5020  154.6700 C   0  0  0  0  0  0  0  0  0  0  0  0
  161.0630  206.3310  151.0190 C   0  0  1  0  0  3  0  0  0  0  0  0
  159.4910  209.2520  155.1390 N   0  0  0  0  0  0  0  0  0  0  0  0
  159.9780  208.0520  154.7670 C   0  0  0  0  0  0  0  0  0  0  0  0
  162.3310  208.3250  151.6800 C   0  0  0  0  0  3  0  0  0  0  0  0
  163.2990  207.0230  149.9410 C   0  0  0  0  0  0  0  0  0  0  0  0
  164.1890  206.8160  149.1540 C   0  0  0  0  0  0  0  0  0  0  0  0
  165.1950  206.5790  148.2620 O   0  0  0  0  0  1  0  0  0  0  0  0
  158.9180  211.5500  155.3410 C   0  0  0  0  0  0  0  0  0  0  0  0
  158.3420  212.3950  155.8820 N   0  0  0  0  0  0  0  0  0  0  0  0
  161.2070  200.5920  148.2730 O   0  0  0  0  0  1  0  0  0  0  0  0
  160.9920  201.7340  147.5030 C   0  0  0  0  0  2  0  0  0  0  0  0
  1 21  1  0  0  0  0
  1 24  2  0  0  0  0
  2 17  1  0  0  0  0
  2  9  2  0  0  0  0
  3 14  1  0  0  0  0
  4 13  2  0  0  0  0
  5 31  1  6  0  0  0
  5  4  1  0  0  0  0
  6 13  1  0  0  0  0
  7 20  2  0  0  0  0
  8  9  1  0  0  0  0
  9 23  1  0  0  0  0
 10 11  1  0  0  0  0
 11  8  2  0  0  0  0
 12 17  2  0  0  0  0
 13 10  1  0  0  0  0
 14  6  2  0  0  0  0
 15  5  1  0  0  0  0
 15 14  1  0  0  0  0
 17  7  1  0  0  0  0
 18 19  1  0  0  0  0
 18 15  2  0  0  0  0
 19  3  2  0  0  0  0
 20 22  1  0  0  0  0
 20 28  1  0  0  0  0
 21  6  1  6  0  0  0
 21 11  1  0  0  0  0
 23 22  2  0  0  0  0
 23 16  1  0  0  0  0
 24  2  1  0  0  0  0
 25  1  1  0  0  0  0
 26 25  3  0  0  0  0
 27 26  1  0  0  0  0
 28 29  3  0  0  0  0
 31 30  1  0  0  0  0
M  END
>  <MODEL>
3

>  <REMARK>
 VINA RESULT:      -0.5      2.249      3.369
  Name = 
  3 active torsions:
  status: ('A' for Active; 'I' for Inactive)
    1  A    between atoms: C_1  and  C_11
    2  A    between atoms: C_2  and  C_26
    3  A    between atoms: C_6  and  C_29
                            x       y       z     vdW  Elec       q    Type
                         _______ _______ _______ _____ _____    ______ ____

>  <TORSDO>
F 3

$$$$
=
 OpenBabel11052409443D

 31 35  0  0  1  0  0  0  0  0999 V2000
  160.8450  210.5670  153.2340 C   0  0  0  0  0  0  0  0  0  0  0  0
  158.7750  211.8870  153.8840 C   0  0  0  0  0  0  0  0  0  0  0  0
  161.1640  208.6670  150.3020 C   0  0  0  0  0  3  0  0  0  0  0  0
  161.8400  205.9820  153.5460 C   0  0  0  0  0  3  0  0  0  0  0  0
  162.3090  205.7320  152.2440 C   0  0  0  0  0  0  0  0  0  0  0  0
  160.8810  208.0860  152.7990 C   0  0  0  0  0  0  0  0  0  0  0  0
  156.9830  213.5300  153.4630 N   0  0  0  0  0  0  0  0  0  0  0  0
  158.8040  209.7470  155.2660 C   0  0  0  0  0  3  0  0  0  0  0  0
  158.0960  210.9520  154.7340 C   0  0  0  0  0  0  0  0  0  0  0  0
  160.4510  207.5740  155.4030 S   0  0  0  0  0  0  0  0  0  0  0  0
  159.6770  208.9880  154.6120 C   0  0  0  0  0  0  0  0  0  0  0  0
  159.0210  213.8240  152.6700 O   0  0  0  0  0  0  0  0  0  0  0  0
  161.1270  207.1610  153.8070 C   0  0  0  0  0  0  0  0  0  0  0  0
  161.3430  207.8250  151.5050 C   0  0  1  0  0  3  0  0  0  0  0  0
  162.0500  206.6780  151.2370 C   0  0  0  0  0  0  0  0  0  0  0  0
  156.3100  210.0680  156.1510 N   0  0  0  0  0  1  0  0  0  0  0  0
  158.2510  213.0880  153.3490 C   0  0  0  0  0  0  0  0  0  0  0  0
  162.4520  206.6020  149.8150 C   0  0  0  0  0  3  0  0  0  0  0  0
  161.8960  207.8930  149.1980 C   0  0  0  0  0  3  0  0  0  0  0  0
  155.8910  213.0780  154.1010 C   0  0  0  0  0  0  0  0  0  0  0  0
  160.0780  209.2770  153.2100 C   0  0  1  0  0  3  0  0  0  0  0  0
  155.8660  211.9960  154.8960 N   0  0  0  0  0  0  0  0  0  0  0  0
  156.7760  211.0610  155.2340 C   0  0  0  0  0  0  0  0  0  0  0  0
  160.2240  211.7030  153.5480 C   0  0  0  0  0  3  0  0  0  0  0  0
  162.2660  210.6200  152.9880 C   0  0  0  0  0  0  0  0  0  0  0  0
  163.4520  210.6690  152.7780 C   0  0  0  0  0  0  0  0  0  0  0  0
  164.7950  210.7260  152.5390 O   0  0  0  0  0  1  0  0  0  0  0  0
  154.6820  213.8390  153.9730 C   0  0  0  0  0  0  0  0  0  0  0  0
  153.7060  214.4530  153.8700 N   0  0  0  0  0  0  0  0  0  0  0  0
  162.2300  203.4570  151.6240 O   0  0  0  0  0  1  0  0  0  0  0  0
  163.0940  204.4960  151.9650 C   0  0  0  0  0  2  0  0  0  0  0  0
  1 24  2  0  0  0  0
  2  9  2  0  0  0  0
  4 13  1  0  0  0  0
  5  4  2  0  0  0  0
  6 13  2  0  0  0  0
  7 20  2  0  0  0  0
  9 23  1  0  0  0  0
  9  8  1  0  0  0  0
 11  8  2  0  0  0  0
 11 10  1  0  0  0  0
 12 17  2  0  0  0  0
 13 10  1  0  0  0  0
 14  3  1  6  0  0  0
 14  6  1  0  0  0  0
 15 14  1  0  0  0  0
 15  5  1  0  0  0  0
 17  7  1  0  0  0  0
 17  2  1  0  0  0  0
 18 15  2  0  0  0  0
 19 18  1  0  0  0  0
 19  3  2  0  0  0  0
 20 22  1  0  0  0  0
 21  6  1  1  0  0  0
 21  1  1  0  0  0  0
 21 11  1  0  0  0  0
 22 23  2  0  0  0  0
 23 16  1  0  0  0  0
 24  2  1  0  0  0  0
 25  1  1  0  0  0  0
 26 25  3  0  0  0  0
 27 26  1  0  0  0  0
 28 20  1  0  0  0  0
 29 28  3  0  0  0  0
 30 31  1  0  0  0  0
 31  5  1  0  0  0  0
M  END
>  <MODEL>
4

>  <REMARK>
 VINA RESULT:       0.5      5.147      7.521
  Name = 
  3 active torsions:
  status: ('A' for Active; 'I' for Inactive)
    1  A    between atoms: C_1  and  C_11
    2  A    between atoms: C_2  and  C_26
    3  A    between atoms: C_6  and  C_29
                            x       y       z     vdW  Elec       q    Type
                         _______ _______ _______ _____ _____    ______ ____

>  <TORSDO>
F 3

$$$$
=
 OpenBabel11052409443D

 31 35  0  0  1  0  0  0  0  0999 V2000
  160.5630  211.9190  150.0180 C   0  0  0  0  0  0  0  0  0  0  0  0
  159.3620  212.3560  152.2110 C   0  0  0  0  0  0  0  0  0  0  0  0
  163.0760  213.9640  148.6730 C   0  0  0  0  0  3  0  0  0  0  0  0
  159.9940  213.7670  145.7320 C   0  0  0  0  0  3  0  0  0  0  0  0
  161.3240  214.0970  145.4160 C   0  0  0  0  0  0  0  0  0  0  0  0
  160.6100  213.5140  148.0690 C   0  0  0  0  0  0  0  0  0  0  0  0
  159.2890  212.8330  154.6310 N   0  0  0  0  0  0  0  0  0  0  0  0
  157.8010  213.0370  150.3160 C   0  0  0  0  0  3  0  0  0  0  0  0
  158.1870  213.0460  151.7610 C   0  0  0  0  0  0  0  0  0  0  0  0
  157.9980  213.0850  147.5930 S   0  0  0  0  0  0  0  0  0  0  0  0
  158.6240  213.1210  149.2760 C   0  0  0  0  0  0  0  0  0  0  0  0
  160.8450  211.5320  153.7630 O   0  0  0  0  0  0  0  0  0  0  0  0
  159.6520  213.4800  147.0620 C   0  0  0  0  0  0  0  0  0  0  0  0
  161.9280  213.8520  147.7480 C   0  0  0  0  0  0  0  0  0  0  0  0
  162.2780  214.1270  146.4480 C   0  0  0  0  0  0  0  0  0  0  0  0
  156.0750  214.2650  151.9330 N   0  0  0  0  0  1  0  0  0  0  0  0
  159.8200  212.2380  153.5450 C   0  0  0  0  0  0  0  0  0  0  0  0
  163.7170  214.4510  146.3260 C   0  0  0  0  0  3  0  0  0  0  0  0
  164.2510  214.3360  147.7600 C   0  0  0  0  0  2  0  0  0  0  0  0
  158.2180  213.6170  154.8350 C   0  0  0  0  0  0  0  0  0  0  0  0
  160.0980  213.2240  149.4420 C   0  0  1  0  0  3  0  0  0  0  0  0
  157.3260  213.9520  153.8880 N   0  0  0  0  0  0  0  0  0  0  0  0
  157.2360  213.7190  152.5640 C   0  0  0  0  0  0  0  0  0  0  0  0
  160.2030  211.5710  151.2520 C   0  0  0  0  0  3  0  0  0  0  0  0
  161.3470  210.9780  149.2530 C   0  0  0  0  0  0  0  0  0  0  0  0
  161.9960  210.1890  148.6130 C   0  0  0  0  0  0  0  0  0  0  0  0
  162.7300  209.2930  147.8900 O   0  0  0  0  0  1  0  0  0  0  0  0
  157.9760  214.0800  156.1710 C   0  0  0  0  0  0  0  0  0  0  0  0
  157.7810  214.4530  157.2490 N   0  0  0  0  0  0  0  0  0  0  0  0
  162.2150  213.2180  143.4150 O   0  0  0  0  0  1  0  0  0  0  0  0
  161.7020  214.3740  144.0010 C   0  0  0  0  0  2  0  0  0  0  0  0
  1 24  2  0  0  0  0
  2 17  1  0  0  0  0
  4 13  1  0  0  0  0
  5  4  2  0  0  0  0
  5 15  1  0  0  0  0
  7 20  2  0  0  0  0
  8  9  1  0  0  0  0
  9  2  2  0  0  0  0
  9 23  1  0  0  0  0
 10 11  1  0  0  0  0
 11 21  1  0  0  0  0
 11  8  2  0  0  0  0
 13 10  1  0  0  0  0
 13  6  2  0  0  0  0
 14  6  1  0  0  0  0
 14  3  2  0  0  0  0
 15 14  1  0  0  0  0
 16 23  1  0  0  0  0
 17 12  2  0  0  0  0
 17  7  1  0  0  0  0
 18 15  2  0  0  0  0
 18 19  1  0  0  0  0
 19  3  1  0  0  0  0
 20 28  1  0  0  0  0
 21  6  1  6  0  0  0
 21  1  1  0  0  0  0
 22 20  1  0  0  0  0
 23 22  2  0  0  0  0
 24  2  1  0  0  0  0
 25  1  1  0  0  0  0
 26 25  3  0  0  0  0
 27 26  1  0  0  0  0
 28 29  3  0  0  0  0
 30 31  1  0  0  0  0
 31  5  1  0  0  0  0
M  END
>  <MODEL>
5

>  <REMARK>
 VINA RESULT:       1.0      7.033      9.710
  Name = 
  3 active torsions:
  status: ('A' for Active; 'I' for Inactive)
    1  A    between atoms: C_1  and  C_11
    2  A    between atoms: C_2  and  C_26
    3  A    between atoms: C_6  and  C_29
                            x       y       z     vdW  Elec       q    Type
                         _______ _______ _______ _____ _____    ______ ____

>  <TORSDO>
F 3

$$$$
=
 OpenBabel11052409443D

 31 35  0  0  1  0  0  0  0  0999 V2000
  162.4960  206.4220  148.6280 C   0  0  0  0  0  0  0  0  0  0  0  0
  161.9900  208.4980  149.9990 C   0  0  0  0  0  0  0  0  0  0  0  0
  160.4420  205.1630  146.0770 C   0  0  0  0  0  3  0  0  0  0  0  0
  160.8730  202.0190  148.9280 C   0  0  0  0  0  3  0  0  0  0  0  0
  160.5190  201.7850  147.5870 C   0  0  0  0  0  0  0  0  0  0  0  0
  160.9950  204.4040  148.4790 C   0  0  0  0  0  0  0  0  0  0  0  0
  161.4010  210.8800  150.2630 N   0  0  0  0  0  0  0  0  0  0  0  0
  161.4490  206.4630  151.4320 C   0  0  0  0  0  3  0  0  0  0  0  0
  161.3580  207.9300  151.1540 C   0  0  0  0  0  0  0  0  0  0  0  0
  161.5250  203.7630  151.0370 S   0  0  0  0  0  0  0  0  0  0  0  0
  161.3900  205.4830  150.5380 C   0  0  0  0  0  0  0  0  0  0  0  0
  162.6940  210.1930  148.6120 O   0  0  0  0  0  0  0  0  0  0  0  0
  161.1060  203.3340  149.3590 C   0  0  0  0  0  0  0  0  0  0  0  0
  160.6330  204.1630  147.1510 C   0  0  1  0  0  3  0  0  0  0  0  0
  160.4100  202.8800  146.7130 C   0  0  0  0  0  0  0  0  0  0  0  0
  160.1970  207.8880  153.3060 N   0  0  0  0  0  1  0  0  0  0  0  0
  162.0300  209.8660  149.6370 C   0  0  0  0  0  0  0  0  0  0  0  0
  160.0500  202.8460  145.2780 C   0  0  0  0  0  3  0  0  0  0  0  0
  160.0800  204.3190  144.8490 C   0  0  0  0  0  3  0  0  0  0  0  0
  160.6400  210.9660  151.3660 C   0  0  0  0  0  0  0  0  0  0  0  0
  161.2340  205.7500  149.0830 C   0  0  1  0  0  3  0  0  0  0  0  0
  160.3780  209.9420  152.1940 N   0  0  0  0  0  0  0  0  0  0  0  0
  160.6770  208.6280  152.1800 C   0  0  0  0  0  0  0  0  0  0  0  0
  162.7950  207.6430  149.0680 C   0  0  0  0  0  3  0  0  0  0  0  0
  163.4480  205.7640  147.7650 C   0  0  0  0  0  0  0  0  0  0  0  0
  164.2390  205.2100  147.0430 C   0  0  0  0  0  0  0  0  0  0  0  0
  165.1330  204.5800  146.2260 O   0  0  0  0  0  1  0  0  0  0  0  0
  160.1210  212.2560  151.7180 C   0  0  0  0  0  0  0  0  0  0  0  0
  159.7030  213.2980  152.0020 N   0  0  0  0  0  0  0  0  0  0  0  0
  161.5260  199.7740  146.8710 O   0  0  0  0  0  1  0  0  0  0  0  0
  160.2990  200.3890  147.1130 C   0  0  0  0  0  2  0  0  0  0  0  0
  1 24  2  0  0  0  0
  1 21  1  0  0  0  0
  2  9  2  0  0  0  0
  4 13  1  0  0  0  0
  5  4  2  0  0  0  0
  6 13  2  0  0  0  0
  7 20  2  0  0  0  0
  9  8  1  0  0  0  0
  9 23  1  0  0  0  0
 11 10  1  0  0  0  0
 11  8  2  0  0  0  0
 12 17  2  0  0  0  0
 13 10  1  0  0  0  0
 14  3  1  1  0  0  0
 14  6  1  0  0  0  0
 15 14  1  0  0  0  0
 15  5  1  0  0  0  0
 17  2  1  0  0  0  0
 17  7  1  0  0  0  0
 18 15  2  0  0  0  0
 19 18  1  0  0  0  0
 19  3  2  0  0  0  0
 20 28  1  0  0  0  0
 20 22  1  0  0  0  0
 21  6  1  6  0  0  0
 21 11  1  0  0  0  0
 23 22  2  0  0  0  0
 23 16  1  0  0  0  0
 24  2  1  0  0  0  0
 25  1  1  0  0  0  0
 26 25  3  0  0  0  0
 27 26  1  0  0  0  0
 28 29  3  0  0  0  0
 30 31  1  0  0  0  0
 31  5  1  0  0  0  0
M  END
>  <MODEL>
6

>  <REMARK>
 VINA RESULT:       1.3      1.316      1.774
  Name = 
  3 active torsions:
  status: ('A' for Active; 'I' for Inactive)
    1  A    between atoms: C_1  and  C_11
    2  A    between atoms: C_2  and  C_26
    3  A    between atoms: C_6  and  C_29
                            x       y       z     vdW  Elec       q    Type
                         _______ _______ _______ _____ _____    ______ ____

>  <TORSDO>
F 3

$$$$
