=
 OpenBabel11042420383D

 45 49  0  0  1  0  0  0  0  0999 V2000
  160.9050  208.4350  152.8570 C   0  0  0  0  0  0  0  0  0  0  0  0
  161.5620  206.5170  151.6410 C   0  0  0  0  0  0  0  0  0  0  0  0
  162.2850  207.2620  150.7560 C   0  0  0  0  0  3  0  0  0  0  0  0
  160.8420  207.1300  152.6710 C   0  0  0  0  0  3  0  0  0  0  0  0
  162.3610  208.6170  150.9330 C   0  0  0  0  0  0  0  0  0  0  0  0
  161.6180  209.1700  151.9790 C   0  0  0  0  0  3  0  0  0  0  0  0
  161.3760  205.0530  151.4670 C   0  0  0  0  0  0  0  0  0  0  0  0
  160.8870  202.3610  150.7880 N   0  0  0  0  0  0  0  0  0  0  0  0
  161.4280  204.6470  150.2580 N   0  0  0  0  0  0  0  0  0  0  0  0
  161.0820  204.0700  152.4520 C   0  0  0  0  0  3  0  0  0  0  0  0
  160.8240  202.7050  152.1190 C   0  0  0  0  0  3  0  0  0  0  0  0
  161.1920  203.3360  149.8820 C   0  0  0  0  0  0  0  0  0  0  0  0
  161.6260  204.3760  147.5700 C   0  0  0  0  0  2  0  0  0  0  0  0
  161.0330  202.1200  147.6940 C   0  0  0  0  0  3  0  0  0  0  0  0
  161.3240  203.2950  148.3880 C   0  0  0  0  0  0  0  0  0  0  0  0
  161.0270  202.0170  146.3040 N   0  0  0  0  0  2  0  0  0  0  0  0
  161.6170  204.2450  146.0880 C   0  0  0  0  0  0  0  0  0  0  0  0
  161.3160  203.0540  145.5440 N   0  0  0  0  0  0  0  0  0  0  0  0
  161.1340  205.6090  144.1460 C   0  0  0  0  0  1  0  0  0  0  0  0
  161.9060  205.3770  145.3110 O   0  0  0  0  0  0  0  0  0  0  0  0
  160.2990  209.0540  153.9990 N   0  0  0  0  0  2  0  0  0  0  0  0
  160.5330  210.6130  154.7720 S   0  0  0  0  0  0  0  0  0  0  0  0
  160.0470  210.4880  156.1610 O   0  0  0  0  0  0  0  0  0  0  0  0
  161.9650  211.0840  154.7540 O   0  0  0  0  0  0  0  0  0  0  0  0
  158.9360  211.1870  152.7580 N   0  0  0  0  0  1  0  0  0  0  0  0
  159.5110  211.8160  153.9260 C   0  0  1  0  0  3  0  0  0  0  0  0
  157.1020  212.4950  154.5910 C   0  0  1  0  0  3  0  0  0  0  0  0
  158.4640  214.1000  154.3710 C   0  0  0  0  0  2  0  0  0  0  0  0
  156.6440  214.2160  154.6020 S   0  0  0  0  0  0  0  0  0  0  0  0
  158.5640  212.6660  154.7850 C   0  0  2  0  0  3  0  0  0  0  0  0
  156.2690  211.4990  155.2780 C   0  0  0  0  0  3  0  0  0  0  0  0
  155.9560  211.6150  156.5730 C   0  0  0  0  0  2  0  0  0  0  0  0
  162.6250  209.4570  149.7660 C   0  0  0  0  0  2  0  0  0  0  0  0
  161.7820  213.5650  147.4400 C   0  0  0  0  0  2  0  0  0  0  0  0
  159.3720  214.1150  148.0510 C   0  0  2  0  0  3  0  0  0  0  0  0
  163.3920  211.6030  148.5960 O   0  0  0  0  0  0  0  0  0  0  0  0
  160.5160  214.4530  147.1280 C   0  0  0  0  0  2  0  0  0  0  0  0
  162.1330  211.5340  148.8100 C   0  0  0  0  0  0  0  0  0  0  0  0
  161.5670  210.3490  149.3780 N   0  0  0  0  0  2  0  0  0  0  0  0
  161.3360  212.6400  148.3940 N   0  0  0  0  0  0  0  0  0  0  0  0
  159.8990  212.8120  148.6840 C   0  0  0  0  0  2  0  0  0  0  0  0
  158.0020  214.4050  147.7310 O   0  0  0  0  0  0  0  0  0  0  0  0
  157.9050  214.0010  145.0050 O   0  0  0  0  0  0  0  0  0  0  0  0
  157.4550  213.5520  146.3820 P   0  0  0  0  0  0  0  0  0  0  0  0
  156.9550  212.0910  146.3900 O   0  0  0  0  0  0  0  0  0  0  0  0
  1 21  1  0  0  0  0
  2  4  2  0  0  0  0
  3  5  2  0  0  0  0
  3  2  1  0  0  0  0
  4  1  1  0  0  0  0
  5  6  1  0  0  0  0
  6  1  2  0  0  0  0
  7  2  1  0  0  0  0
  7 10  1  0  0  0  0
  8 11  1  0  0  0  0
  9  7  2  0  0  0  0
 11 10  2  0  0  0  0
 12  9  1  0  0  0  0
 12  8  2  0  0  0  0
 13 15  1  0  0  0  0
 14 15  2  0  0  0  0
 15 12  1  0  0  0  0
 16 14  1  0  0  0  0
 17 13  1  0  0  0  0
 18 17  2  0  0  0  0
 18 16  1  0  0  0  0
 19 20  1  0  0  0  0
 20 17  1  0  0  0  0
 21 22  1  0  0  0  0
 22 23  2  0  0  0  0
 24 22  2  0  0  0  0
 26 25  1  6  0  0  0
 26 22  1  0  0  0  0
 27 29  1  0  0  0  0
 27 30  1  0  0  0  0
 27 31  1  1  0  0  0
 28 29  1  0  0  0  0
 28 30  1  0  0  0  0
 30 26  1  6  0  0  0
 31 32  2  0  0  0  0
 33  5  1  0  0  0  0
 34 40  1  0  0  0  0
 35 42  1  6  0  0  0
 35 41  1  0  0  0  0
 36 38  2  0  0  0  0
 37 34  1  0  0  0  0
 37 35  1  0  0  0  0
 38 39  1  0  0  0  0
 39 33  1  0  0  0  0
 40 41  1  0  0  0  0
 40 38  1  0  0  0  0
 43 44  2  0  0  0  0
 44 45  2  0  0  0  0
 44 42  1  0  0  0  0
M  END
>  <MODEL>
1

>  <REMARK>
 VINA RESULT:      -7.8      0.000      0.000
  Name = 
  12 active torsions:
  status: ('A' for Active; 'I' for Inactive)
    1  A    between atoms: C_2  and  C_6
    2  A    between atoms: S_3  and  N_9
    3  A    between atoms: S_3  and  C_38
    4  A    between atoms: C_4  and  C_12
    5  A    between atoms: C_8  and  N_9
    6  A    between atoms: C_10  and  O_18
    7  A    between atoms: C_17  and  C_26
    8  A    between atoms: C_17  and  N_36
    9  A    between atoms: O_18  and  P_19
   10  A    between atoms: O_27  and  C_41
   11  A    between atoms: C_33  and  C_37
   12  A    between atoms: C_38  and  C_45
                            x       y       z     vdW  Elec       q    Type
                         _______ _______ _______ _____ _____    ______ ____

>  <TORSDO>
F 12

$$$$
=
 OpenBabel11042420383D

 45 49  0  0  1  0  0  0  0  0999 V2000
  161.9880  207.4840  151.3840 C   0  0  0  0  0  0  0  0  0  0  0  0
  161.1570  209.1590  152.8300 C   0  0  0  0  0  0  0  0  0  0  0  0
  161.2360  210.1110  151.8560 C   0  0  0  0  0  3  0  0  0  0  0  0
  161.5760  207.8480  152.5840 C   0  0  0  0  0  3  0  0  0  0  0  0
  161.6620  209.7520  150.6070 C   0  0  0  0  0  0  0  0  0  0  0  0
  162.0690  208.4270  150.4240 C   0  0  0  0  0  3  0  0  0  0  0  0
  160.7740  209.4930  154.2260 C   0  0  0  0  0  0  0  0  0  0  0  0
  159.8950  210.4480  156.7290 N   0  0  0  0  0  0  0  0  0  0  0  0
  159.7420  210.2360  154.3350 N   0  0  0  0  0  0  0  0  0  0  0  0
  161.4390  209.1560  155.4370 C   0  0  0  0  0  3  0  0  0  0  0  0
  161.0080  209.6410  156.7100 C   0  0  0  0  0  3  0  0  0  0  0  0
  159.2790  210.7280  155.5430 C   0  0  0  0  0  0  0  0  0  0  0  0
  157.8690  212.2710  154.0430 C   0  0  0  0  0  2  0  0  0  0  0  0
  157.0960  211.7810  156.1930 C   0  0  0  0  0  3  0  0  0  0  0  0
  158.0770  211.5690  155.2230 C   0  0  0  0  0  0  0  0  0  0  0  0
  156.0020  212.6270  156.0220 N   0  0  0  0  0  2  0  0  0  0  0  0
  156.6920  213.1670  153.8800 C   0  0  0  0  0  0  0  0  0  0  0  0
  155.8210  213.2860  154.8960 N   0  0  0  0  0  0  0  0  0  0  0  0
  157.5970  213.8130  151.7290 C   0  0  0  0  0  1  0  0  0  0  0  0
  156.5450  213.8710  152.6750 O   0  0  0  0  0  0  0  0  0  0  0  0
  162.2720  206.1110  151.0800 N   0  0  0  0  0  2  0  0  0  0  0  0
  161.2570  204.6840  150.9640 S   0  0  0  0  0  0  0  0  0  0  0  0
  162.1010  203.5200  151.3030 O   0  0  0  0  0  0  0  0  0  0  0  0
  160.0450  204.7330  151.8590 O   0  0  0  0  0  0  0  0  0  0  0  0
  160.6070  205.8330  148.6860 N   0  0  0  0  0  1  0  0  0  0  0  0
  160.7220  204.5130  149.2640 C   0  0  1  0  0  3  0  0  0  0  0  0
  161.1750  203.4540  146.9430 C   0  0  1  0  0  3  0  0  0  0  0  0
  160.8320  202.0770  148.5130 C   0  0  0  0  0  2  0  0  0  0  0  0
  160.9520  201.7020  146.7180 S   0  0  0  0  0  0  0  0  0  0  0  0
  161.4220  203.4470  148.4080 C   0  0  2  0  0  3  0  0  0  0  0  0
  161.9340  204.2410  145.9620 C   0  0  0  0  0  3  0  0  0  0  0  0
  163.1090  204.8030  146.2670 C   0  0  0  0  0  2  0  0  0  0  0  0
  162.2700  210.7750  149.7570 C   0  0  0  0  0  2  0  0  0  0  0  0
  162.5450  213.4160  145.7640 C   0  0  0  0  0  2  0  0  0  0  0  0
  160.1590  213.4100  144.8760 C   0  0  2  0  0  3  0  0  0  0  0  0
  163.3990  212.5220  148.2640 O   0  0  0  0  0  0  0  0  0  0  0  0
  161.5950  213.7340  144.5460 C   0  0  0  0  0  2  0  0  0  0  0  0
  162.2350  212.1650  147.8770 C   0  0  0  0  0  0  0  0  0  0  0  0
  161.5330  211.1320  148.5750 N   0  0  0  0  0  2  0  0  0  0  0  0
  161.7180  212.7810  146.6990 N   0  0  0  0  0  0  0  0  0  0  0  0
  160.3450  212.6130  146.1820 C   0  0  0  0  0  2  0  0  0  0  0  0
  159.1670  213.1610  143.8680 O   0  0  0  0  0  0  0  0  0  0  0  0
  160.4760  211.3150  142.2930 O   0  0  0  0  0  0  0  0  0  0  0  0
  159.8400  212.6880  142.3950 P   0  0  0  0  0  0  0  0  0  0  0  0
  159.4660  213.2670  141.0130 O   0  0  0  0  0  0  0  0  0  0  0  0
  1  4  1  0  0  0  0
  2  7  1  0  0  0  0
  3  2  1  0  0  0  0
  4  2  2  0  0  0  0
  5  3  2  0  0  0  0
  6  5  1  0  0  0  0
  6  1  2  0  0  0  0
  7  9  2  0  0  0  0
  7 10  1  0  0  0  0
  9 12  1  0  0  0  0
 10 11  2  0  0  0  0
 11  8  1  0  0  0  0
 12  8  2  0  0  0  0
 13 15  1  0  0  0  0
 15 12  1  0  0  0  0
 15 14  2  0  0  0  0
 16 14  1  0  0  0  0
 17 13  1  0  0  0  0
 17 18  2  0  0  0  0
 18 16  1  0  0  0  0
 19 20  1  0  0  0  0
 20 17  1  0  0  0  0
 21  1  1  0  0  0  0
 22 21  1  0  0  0  0
 22 23  2  0  0  0  0
 22 24  2  0  0  0  0
 26 25  1  6  0  0  0
 26 22  1  0  0  0  0
 27 31  1  6  0  0  0
 27 30  1  0  0  0  0
 29 27  1  0  0  0  0
 29 28  1  0  0  0  0
 30 28  1  0  0  0  0
 30 26  1  1  0  0  0
 31 32  2  0  0  0  0
 33  5  1  0  0  0  0
 34 40  1  0  0  0  0
 35 42  1  6  0  0  0
 35 41  1  0  0  0  0
 37 35  1  0  0  0  0
 37 34  1  0  0  0  0
 38 36  2  0  0  0  0
 38 39  1  0  0  0  0
 39 33  1  0  0  0  0
 40 38  1  0  0  0  0
 41 40  1  0  0  0  0
 43 44  2  0  0  0  0
 44 42  1  0  0  0  0
 45 44  2  0  0  0  0
M  END
>  <MODEL>
2

>  <REMARK>
 VINA RESULT:      -7.5      3.391      8.549
  Name = 
  12 active torsions:
  status: ('A' for Active; 'I' for Inactive)
    1  A    between atoms: C_2  and  C_6
    2  A    between atoms: S_3  and  N_9
    3  A    between atoms: S_3  and  C_38
    4  A    between atoms: C_4  and  C_12
    5  A    between atoms: C_8  and  N_9
    6  A    between atoms: C_10  and  O_18
    7  A    between atoms: C_17  and  C_26
    8  A    between atoms: C_17  and  N_36
    9  A    between atoms: O_18  and  P_19
   10  A    between atoms: O_27  and  C_41
   11  A    between atoms: C_33  and  C_37
   12  A    between atoms: C_38  and  C_45
                            x       y       z     vdW  Elec       q    Type
                         _______ _______ _______ _____ _____    ______ ____

>  <TORSDO>
F 12

$$$$
=
 OpenBabel11042420383D

 45 49  0  0  1  0  0  0  0  0999 V2000
  161.7600  209.9460  151.2880 C   0  0  0  0  0  0  0  0  0  0  0  0
  160.7720  209.6060  153.4090 C   0  0  0  0  0  0  0  0  0  0  0  0
  160.8750  208.2510  153.2970 C   0  0  0  0  0  3  0  0  0  0  0  0
  161.1890  210.4430  152.3680 C   0  0  0  0  0  3  0  0  0  0  0  0
  161.4620  207.7170  152.1830 C   0  0  0  0  0  0  0  0  0  0  0  0
  161.8570  208.6050  151.1780 C   0  0  0  0  0  3  0  0  0  0  0  0
  160.0800  210.2500  154.5550 C   0  0  0  0  0  0  0  0  0  0  0  0
  158.6830  211.7580  156.4850 N   0  0  0  0  0  0  0  0  0  0  0  0
  159.1210  211.0280  154.2320 N   0  0  0  0  0  0  0  0  0  0  0  0
  160.3880  210.1690  155.9410 C   0  0  0  0  0  3  0  0  0  0  0  0
  159.6930  210.9350  156.9270 C   0  0  0  0  0  3  0  0  0  0  0  0
  158.4120  211.7870  155.1470 C   0  0  0  0  0  0  0  0  0  0  0  0
  157.5970  213.0790  153.0780 C   0  0  0  0  0  2  0  0  0  0  0  0
  156.1910  212.9350  154.9390 C   0  0  0  0  0  3  0  0  0  0  0  0
  157.4050  212.5700  154.3560 C   0  0  0  0  0  0  0  0  0  0  0  0
  155.2430  213.7470  154.3200 N   0  0  0  0  0  2  0  0  0  0  0  0
  156.5700  213.9430  152.4330 C   0  0  0  0  0  0  0  0  0  0  0  0
  155.4410  214.2220  153.1070 N   0  0  0  0  0  0  0  0  0  0  0  0
  155.9820  214.0470  150.0870 C   0  0  0  0  0  1  0  0  0  0  0  0
  156.8260  214.4490  151.1510 O   0  0  0  0  0  0  0  0  0  0  0  0
  162.3300  210.8000  150.2870 N   0  0  0  0  0  2  0  0  0  0  0  0
  162.0530  210.9590  148.5610 S   0  0  0  0  0  0  0  0  0  0  0  0
  163.3430  211.3330  147.9450 O   0  0  0  0  0  0  0  0  0  0  0  0
  161.5060  209.7090  147.9210 O   0  0  0  0  0  0  0  0  0  0  0  0
  161.5420  213.5400  148.6780 N   0  0  0  0  0  1  0  0  0  0  0  0
  160.8970  212.3030  148.3010 C   0  0  1  0  0  3  0  0  0  0  0  0
  160.5400  213.2570  145.9200 C   0  0  1  0  0  3  0  0  0  0  0  0
  158.7760  212.9820  147.0560 C   0  0  0  0  0  2  0  0  0  0  0  0
  158.9280  213.8430  145.4400 S   0  0  0  0  0  0  0  0  0  0  0  0
  160.1110  212.3120  146.9820 C   0  0  2  0  0  3  0  0  0  0  0  0
  161.5640  212.9790  144.9040 C   0  0  0  0  0  3  0  0  0  0  0  0
  162.8350  213.3610  145.0630 C   0  0  0  0  0  2  0  0  0  0  0  0
  161.0980  206.3580  151.7870 C   0  0  0  0  0  2  0  0  0  0  0  0
  160.7700  202.7380  148.6580 C   0  0  0  0  0  2  0  0  0  0  0  0
  162.0240  203.5970  146.6160 C   0  0  2  0  0  3  0  0  0  0  0  0
  160.7210  203.8940  151.1960 O   0  0  0  0  0  0  0  0  0  0  0  0
  161.0920  202.5280  147.1290 C   0  0  0  0  0  2  0  0  0  0  0  0
  161.1430  204.6150  150.2280 C   0  0  0  0  0  0  0  0  0  0  0  0
  161.3110  206.0240  150.4050 N   0  0  0  0  0  2  0  0  0  0  0  0
  161.3600  203.9690  148.9760 N   0  0  0  0  0  0  0  0  0  0  0  0
  161.9820  204.5930  147.7910 C   0  0  0  0  0  2  0  0  0  0  0  0
  162.1290  203.9360  145.2240 O   0  0  0  0  0  0  0  0  0  0  0  0
  160.4320  206.0010  145.9000 O   0  0  0  0  0  0  0  0  0  0  0  0
  161.1640  205.2530  144.8020 P   0  0  0  0  0  0  0  0  0  0  0  0
  161.3100  206.0940  143.5140 O   0  0  0  0  0  0  0  0  0  0  0  0
  1  4  1  0  0  0  0
  2  7  1  0  0  0  0
  3  2  1  0  0  0  0
  4  2  2  0  0  0  0
  5  3  2  0  0  0  0
  6  1  2  0  0  0  0
  6  5  1  0  0  0  0
  7 10  1  0  0  0  0
  8 11  1  0  0  0  0
  9  7  2  0  0  0  0
  9 12  1  0  0  0  0
 10 11  2  0  0  0  0
 12  8  2  0  0  0  0
 13 15  1  0  0  0  0
 15 14  2  0  0  0  0
 15 12  1  0  0  0  0
 16 14  1  0  0  0  0
 17 13  1  0  0  0  0
 17 18  2  0  0  0  0
 18 16  1  0  0  0  0
 19 20  1  0  0  0  0
 20 17  1  0  0  0  0
 21  1  1  0  0  0  0
 22 21  1  0  0  0  0
 23 22  2  0  0  0  0
 24 22  2  0  0  0  0
 26 22  1  0  0  0  0
 26 25  1  6  0  0  0
 27 31  1  6  0  0  0
 27 30  1  0  0  0  0
 29 27  1  0  0  0  0
 29 28  1  0  0  0  0
 30 28  1  0  0  0  0
 30 26  1  1  0  0  0
 31 32  2  0  0  0  0
 33  5  1  0  0  0  0
 34 40  1  0  0  0  0
 35 42  1  6  0  0  0
 35 37  1  0  0  0  0
 35 41  1  0  0  0  0
 37 34  1  0  0  0  0
 38 39  1  0  0  0  0
 38 36  2  0  0  0  0
 39 33  1  0  0  0  0
 40 38  1  0  0  0  0
 41 40  1  0  0  0  0
 44 42  1  0  0  0  0
 44 43  2  0  0  0  0
 45 44  2  0  0  0  0
M  END
>  <MODEL>
3

>  <REMARK>
 VINA RESULT:      -7.2      3.302      9.151
  Name = 
  12 active torsions:
  status: ('A' for Active; 'I' for Inactive)
    1  A    between atoms: C_2  and  C_6
    2  A    between atoms: S_3  and  N_9
    3  A    between atoms: S_3  and  C_38
    4  A    between atoms: C_4  and  C_12
    5  A    between atoms: C_8  and  N_9
    6  A    between atoms: C_10  and  O_18
    7  A    between atoms: C_17  and  C_26
    8  A    between atoms: C_17  and  N_36
    9  A    between atoms: O_18  and  P_19
   10  A    between atoms: O_27  and  C_41
   11  A    between atoms: C_33  and  C_37
   12  A    between atoms: C_38  and  C_45
                            x       y       z     vdW  Elec       q    Type
                         _______ _______ _______ _____ _____    ______ ____

>  <TORSDO>
F 12

$$$$
=
 OpenBabel11042420383D

 45 49  0  0  1  0  0  0  0  0999 V2000
  160.5910  213.6060  146.5340 C   0  0  0  0  0  0  0  0  0  0  0  0
  159.3680  213.6660  148.5560 C   0  0  0  0  0  0  0  0  0  0  0  0
  160.3690  213.0420  149.2400 C   0  0  0  0  0  3  0  0  0  0  0  0
  159.4830  213.9080  147.1820 C   0  0  0  0  0  3  0  0  0  0  0  0
  161.5250  212.7200  148.5830 C   0  0  0  0  0  0  0  0  0  0  0  0
  161.5790  212.9860  147.2120 C   0  0  0  0  0  3  0  0  0  0  0  0
  158.0590  213.9770  149.1870 C   0  0  0  0  0  0  0  0  0  0  0  0
  155.6880  214.3340  150.6700 N   0  0  0  0  0  0  0  0  0  0  0  0
  158.0470  213.8970  150.4610 N   0  0  0  0  0  0  0  0  0  0  0  0
  156.8180  214.2790  148.5610 C   0  0  0  0  0  3  0  0  0  0  0  0
  155.6090  214.4530  149.3020 C   0  0  0  0  0  3  0  0  0  0  0  0
  156.9050  214.0630  151.2260 C   0  0  0  0  0  0  0  0  0  0  0  0
  158.5020  213.2670  153.0790 C   0  0  0  0  0  2  0  0  0  0  0  0
  156.4450  214.1940  153.6880 C   0  0  0  0  0  3  0  0  0  0  0  0
  157.3210  213.8630  152.6540 C   0  0  0  0  0  0  0  0  0  0  0  0
  156.7030  213.9480  155.0350 N   0  0  0  0  0  2  0  0  0  0  0  0
  158.7590  213.0150  154.5230 C   0  0  0  0  0  0  0  0  0  0  0  0
  157.8290  213.3810  155.4200 N   0  0  0  0  0  0  0  0  0  0  0  0
  160.3650  212.4610  156.2480 C   0  0  0  0  0  1  0  0  0  0  0  0
  159.9580  212.3880  154.8930 O   0  0  0  0  0  0  0  0  0  0  0  0
  160.7800  213.9890  145.1650 N   0  0  0  0  0  2  0  0  0  0  0  0
  160.4330  213.1810  143.6450 S   0  0  0  0  0  0  0  0  0  0  0  0
  159.9540  211.8230  143.9730 O   0  0  0  0  0  0  0  0  0  0  0  0
  159.4210  213.9070  142.7960 O   0  0  0  0  0  0  0  0  0  0  0  0
  163.0610  213.0210  143.6700 N   0  0  0  0  0  1  0  0  0  0  0  0
  161.9640  213.0300  142.7290 C   0  0  1  0  0  3  0  0  0  0  0  0
  162.2210  212.4630  140.2140 C   0  0  1  0  0  3  0  0  0  0  0  0
  160.6840  211.4160  141.2240 C   0  0  0  0  0  2  0  0  0  0  0  0
  161.0000  211.4440  139.4140 S   0  0  0  0  0  0  0  0  0  0  0  0
  162.0130  211.9850  141.6050 C   0  0  2  0  0  3  0  0  0  0  0  0
  163.5290  212.6900  139.5860 C   0  0  0  0  0  3  0  0  0  0  0  0
  163.6440  213.2900  138.3960 C   0  0  0  0  0  2  0  0  0  0  0  0
  162.3320  211.6140  149.0960 C   0  0  0  0  0  2  0  0  0  0  0  0
  161.2480  207.1430  150.4490 C   0  0  0  0  0  2  0  0  0  0  0  0
  161.4730  205.7960  148.3010 C   0  0  2  0  0  3  0  0  0  0  0  0
  162.0640  209.7790  150.8610 O   0  0  0  0  0  0  0  0  0  0  0  0
  160.9620  205.7750  149.7190 C   0  0  0  0  0  2  0  0  0  0  0  0
  161.9750  209.3720  149.6530 C   0  0  0  0  0  0  0  0  0  0  0  0
  162.0210  210.3110  148.5760 N   0  0  0  0  0  2  0  0  0  0  0  0
  161.7570  207.9780  149.4450 N   0  0  0  0  0  0  0  0  0  0  0  0
  161.7750  207.2990  148.1340 C   0  0  0  0  0  2  0  0  0  0  0  0
  160.9740  204.9170  147.2810 O   0  0  0  0  0  0  0  0  0  0  0  0
  163.3830  204.8390  145.9410 O   0  0  0  0  0  0  0  0  0  0  0  0
  161.8770  204.9940  145.8570 P   0  0  0  0  0  0  0  0  0  0  0  0
  161.3350  204.7160  144.4380 O   0  0  0  0  0  0  0  0  0  0  0  0
  1  4  2  0  0  0  0
  1  6  1  0  0  0  0
  2  7  1  0  0  0  0
  2  3  2  0  0  0  0
  4  2  1  0  0  0  0
  5 33  1  0  0  0  0
  5  3  1  0  0  0  0
  6  5  2  0  0  0  0
  7  9  2  0  0  0  0
  8 12  2  0  0  0  0
  9 12  1  0  0  0  0
 10  7  1  0  0  0  0
 10 11  2  0  0  0  0
 11  8  1  0  0  0  0
 12 15  1  0  0  0  0
 13 17  1  0  0  0  0
 14 16  1  0  0  0  0
 15 13  1  0  0  0  0
 15 14  2  0  0  0  0
 16 18  1  0  0  0  0
 17 20  1  0  0  0  0
 17 18  2  0  0  0  0
 20 19  1  0  0  0  0
 21  1  1  0  0  0  0
 22 23  2  0  0  0  0
 22 21  1  0  0  0  0
 24 22  2  0  0  0  0
 26 22  1  0  0  0  0
 26 25  1  1  0  0  0
 27 31  1  6  0  0  0
 27 30  1  0  0  0  0
 28 30  1  0  0  0  0
 29 27  1  0  0  0  0
 29 28  1  0  0  0  0
 30 26  1  1  0  0  0
 32 31  2  0  0  0  0
 35 42  1  6  0  0  0
 35 37  1  0  0  0  0
 37 34  1  0  0  0  0
 38 36  2  0  0  0  0
 39 33  1  0  0  0  0
 39 38  1  0  0  0  0
 40 38  1  0  0  0  0
 40 34  1  0  0  0  0
 41 35  1  0  0  0  0
 41 40  1  0  0  0  0
 44 43  2  0  0  0  0
 44 42  1  0  0  0  0
 45 44  2  0  0  0  0
M  END
>  <MODEL>
4

>  <REMARK>
 VINA RESULT:      -7.0      4.706     11.092
  Name = 
  12 active torsions:
  status: ('A' for Active; 'I' for Inactive)
    1  A    between atoms: C_2  and  C_6
    2  A    between atoms: S_3  and  N_9
    3  A    between atoms: S_3  and  C_38
    4  A    between atoms: C_4  and  C_12
    5  A    between atoms: C_8  and  N_9
    6  A    between atoms: C_10  and  O_18
    7  A    between atoms: C_17  and  C_26
    8  A    between atoms: C_17  and  N_36
    9  A    between atoms: O_18  and  P_19
   10  A    between atoms: O_27  and  C_41
   11  A    between atoms: C_33  and  C_37
   12  A    between atoms: C_38  and  C_45
                            x       y       z     vdW  Elec       q    Type
                         _______ _______ _______ _____ _____    ______ ____

>  <TORSDO>
F 12

$$$$
=
 OpenBabel11042420383D

 45 49  0  0  1  0  0  0  0  0999 V2000
  161.6920  210.5870  149.6490 C   0  0  0  0  0  0  0  0  0  0  0  0
  161.7210  208.6790  151.0430 C   0  0  0  0  0  0  0  0  0  0  0  0
  162.1410  207.8760  150.0240 C   0  0  0  0  0  3  0  0  0  0  0  0
  161.4640  210.0360  150.8250 C   0  0  0  0  0  3  0  0  0  0  0  0
  162.3820  208.4300  148.7960 C   0  0  0  0  0  0  0  0  0  0  0  0
  162.1040  209.7910  148.6410 C   0  0  0  0  0  3  0  0  0  0  0  0
  161.3700  208.1330  152.3800 C   0  0  0  0  0  0  0  0  0  0  0  0
  160.8390  207.4290  155.0580 N   0  0  0  0  0  0  0  0  0  0  0  0
  161.1000  209.0130  153.2640 N   0  0  0  0  0  0  0  0  0  0  0  0
  161.3650  206.7790  152.8160 C   0  0  0  0  0  3  0  0  0  0  0  0
  161.1050  206.4110  154.1720 C   0  0  0  0  0  3  0  0  0  0  0  0
  160.8360  208.7110  154.5880 C   0  0  0  0  0  0  0  0  0  0  0  0
  159.9080  211.1040  154.7550 C   0  0  0  0  0  2  0  0  0  0  0  0
  161.1850  210.2680  156.5240 C   0  0  0  0  0  3  0  0  0  0  0  0
  160.6000  210.0210  155.2820 C   0  0  0  0  0  0  0  0  0  0  0  0
  161.1070  211.4880  157.1930 N   0  0  0  0  0  2  0  0  0  0  0  0
  159.8350  212.3980  155.4870 C   0  0  0  0  0  0  0  0  0  0  0  0
  160.4470  212.5050  156.6780 N   0  0  0  0  0  0  0  0  0  0  0  0
  158.4110  213.2200  153.7090 C   0  0  0  0  0  1  0  0  0  0  0  0
  159.1430  213.4670  154.8970 O   0  0  0  0  0  0  0  0  0  0  0  0
  161.5800  212.0040  149.4560 N   0  0  0  0  0  2  0  0  0  0  0  0
  162.0830  213.0710  148.1560 S   0  0  0  0  0  0  0  0  0  0  0  0
  161.8010  214.4530  148.5930 O   0  0  0  0  0  0  0  0  0  0  0  0
  163.5360  212.9220  147.7840 O   0  0  0  0  0  0  0  0  0  0  0  0
  159.7010  212.5750  147.1510 N   0  0  0  0  0  1  0  0  0  0  0  0
  161.0730  212.7190  146.7200 C   0  0  1  0  0  3  0  0  0  0  0  0
  161.3920  212.8730  144.1540 C   0  0  1  0  0  3  0  0  0  0  0  0
  162.7150  214.0600  145.3010 C   0  0  0  0  0  2  0  0  0  0  0  0
  162.7990  213.7410  143.4940 S   0  0  0  0  0  0  0  0  0  0  0  0
  161.3120  213.5680  145.4640 C   0  0  2  0  0  3  0  0  0  0  0  0
  160.2440  212.5540  143.2950 C   0  0  0  0  0  3  0  0  0  0  0  0
  160.3710  211.7940  142.2030 C   0  0  0  0  0  2  0  0  0  0  0  0
  162.2820  207.5750  147.6150 C   0  0  0  0  0  2  0  0  0  0  0  0
  161.2020  203.4300  145.4580 C   0  0  0  0  0  2  0  0  0  0  0  0
  160.8310  201.8240  147.3990 C   0  0  2  0  0  3  0  0  0  0  0  0
  161.4670  206.2020  145.6120 O   0  0  0  0  0  0  0  0  0  0  0  0
  161.0320  201.9280  145.9080 C   0  0  0  0  0  2  0  0  0  0  0  0
  161.5950  205.5370  146.6960 C   0  0  0  0  0  0  0  0  0  0  0  0
  162.1240  206.1680  147.8650 N   0  0  0  0  0  2  0  0  0  0  0  0
  161.2610  204.1510  146.6580 N   0  0  0  0  0  0  0  0  0  0  0  0
  161.1990  203.2570  147.8310 C   0  0  0  0  0  2  0  0  0  0  0  0
  161.1010  200.6230  148.1390 O   0  0  0  0  0  0  0  0  0  0  0  0
  161.5750  201.4310  150.7320 O   0  0  0  0  0  0  0  0  0  0  0  0
  160.6410  200.7400  149.7580 P   0  0  0  0  0  0  0  0  0  0  0  0
  159.1900  200.6690  150.2830 O   0  0  0  0  0  0  0  0  0  0  0  0
  1  4  1  0  0  0  0
  2  7  1  0  0  0  0
  3  2  1  0  0  0  0
  4  2  2  0  0  0  0
  5  3  2  0  0  0  0
  6  5  1  0  0  0  0
  6  1  2  0  0  0  0
  7 10  1  0  0  0  0
  7  9  2  0  0  0  0
  9 12  1  0  0  0  0
 10 11  2  0  0  0  0
 11  8  1  0  0  0  0
 12  8  2  0  0  0  0
 12 15  1  0  0  0  0
 13 15  1  0  0  0  0
 13 17  1  0  0  0  0
 14 16  1  0  0  0  0
 15 14  2  0  0  0  0
 17 18  2  0  0  0  0
 18 16  1  0  0  0  0
 19 20  1  0  0  0  0
 20 17  1  0  0  0  0
 21  1  1  0  0  0  0
 22 23  2  0  0  0  0
 22 21  1  0  0  0  0
 24 22  2  0  0  0  0
 26 25  1  1  0  0  0
 26 22  1  0  0  0  0
 27 31  1  6  0  0  0
 27 30  1  0  0  0  0
 28 30  1  0  0  0  0
 29 27  1  0  0  0  0
 29 28  1  0  0  0  0
 30 26  1  1  0  0  0
 32 31  2  0  0  0  0
 33 39  1  0  0  0  0
 33  5  1  0  0  0  0
 34 37  1  0  0  0  0
 34 40  1  0  0  0  0
 35 41  1  0  0  0  0
 35 42  1  1  0  0  0
 36 38  2  0  0  0  0
 37 35  1  0  0  0  0
 38 39  1  0  0  0  0
 40 38  1  0  0  0  0
 40 41  1  0  0  0  0
 42 44  1  0  0  0  0
 44 45  2  0  0  0  0
 44 43  2  0  0  0  0
M  END
>  <MODEL>
5

>  <REMARK>
 VINA RESULT:      -6.9      4.002      9.501
  Name = 
  12 active torsions:
  status: ('A' for Active; 'I' for Inactive)
    1  A    between atoms: C_2  and  C_6
    2  A    between atoms: S_3  and  N_9
    3  A    between atoms: S_3  and  C_38
    4  A    between atoms: C_4  and  C_12
    5  A    between atoms: C_8  and  N_9
    6  A    between atoms: C_10  and  O_18
    7  A    between atoms: C_17  and  C_26
    8  A    between atoms: C_17  and  N_36
    9  A    between atoms: O_18  and  P_19
   10  A    between atoms: O_27  and  C_41
   11  A    between atoms: C_33  and  C_37
   12  A    between atoms: C_38  and  C_45
                            x       y       z     vdW  Elec       q    Type
                         _______ _______ _______ _____ _____    ______ ____

>  <TORSDO>
F 12

$$$$
=
 OpenBabel11042420383D

 45 49  0  0  1  0  0  0  0  0999 V2000
  161.6990  210.6980  149.7060 C   0  0  0  0  0  0  0  0  0  0  0  0
  161.6280  208.8060  151.1210 C   0  0  0  0  0  0  0  0  0  0  0  0
  162.0660  207.9820  150.1270 C   0  0  0  0  0  3  0  0  0  0  0  0
  161.4120  210.1670  150.8790 C   0  0  0  0  0  3  0  0  0  0  0  0
  162.3660  208.5150  148.9040 C   0  0  0  0  0  0  0  0  0  0  0  0
  162.1280  209.8810  148.7230 C   0  0  0  0  0  3  0  0  0  0  0  0
  161.2130  208.2850  152.4490 C   0  0  0  0  0  0  0  0  0  0  0  0
  160.5020  207.6490  155.1030 N   0  0  0  0  0  0  0  0  0  0  0  0
  160.7430  209.1640  153.2470 N   0  0  0  0  0  0  0  0  0  0  0  0
  161.3340  206.9650  152.9660 C   0  0  0  0  0  3  0  0  0  0  0  0
  160.9850  206.6340  154.3110 C   0  0  0  0  0  3  0  0  0  0  0  0
  160.3840  208.8950  154.5560 C   0  0  0  0  0  0  0  0  0  0  0  0
  158.6020  210.6490  155.1560 C   0  0  0  0  0  2  0  0  0  0  0  0
  160.8410  211.1120  155.6380 C   0  0  0  0  0  3  0  0  0  0  0  0
  159.9140  210.1950  155.1410 C   0  0  0  0  0  0  0  0  0  0  0  0
  160.5070  212.3820  156.1040 N   0  0  0  0  0  2  0  0  0  0  0  0
  158.2650  212.0090  155.6600 C   0  0  0  0  0  0  0  0  0  0  0  0
  159.2560  212.7970  156.1110 N   0  0  0  0  0  0  0  0  0  0  0  0
  155.9310  211.5240  156.0820 C   0  0  0  0  0  1  0  0  0  0  0  0
  156.9260  212.4250  155.6300 O   0  0  0  0  0  0  0  0  0  0  0  0
  161.6290  212.1150  149.4940 N   0  0  0  0  0  2  0  0  0  0  0  0
  161.9980  213.1300  148.1090 S   0  0  0  0  0  0  0  0  0  0  0  0
  162.4000  214.4510  148.6330 O   0  0  0  0  0  0  0  0  0  0  0  0
  163.0750  212.5650  147.2190 O   0  0  0  0  0  0  0  0  0  0  0  0
  160.0480  212.0340  146.7200 N   0  0  0  0  0  1  0  0  0  0  0  0
  160.4980  213.3380  147.1530 C   0  0  1  0  0  3  0  0  0  0  0  0
  158.6280  213.8190  148.8800 C   0  0  1  0  0  3  0  0  0  0  0  0
  158.1850  214.3830  146.8890 C   0  0  0  0  0  2  0  0  0  0  0  0
  157.0280  214.3570  148.3160 S   0  0  0  0  0  0  0  0  0  0  0  0
  159.4270  214.2820  147.7160 C   0  0  2  0  0  3  0  0  0  0  0  0
  159.0150  213.9800  150.2880 C   0  0  0  0  0  3  0  0  0  0  0  0
  158.3990  213.3110  151.2680 C   0  0  0  0  0  2  0  0  0  0  0  0
  162.2900  207.6490  147.7290 C   0  0  0  0  0  2  0  0  0  0  0  0
  161.2050  203.4900  145.6020 C   0  0  0  0  0  2  0  0  0  0  0  0
  160.8290  201.8990  147.5540 C   0  0  2  0  0  3  0  0  0  0  0  0
  161.4760  206.2630  145.7350 O   0  0  0  0  0  0  0  0  0  0  0  0
  161.0320  201.9910  146.0620 C   0  0  0  0  0  2  0  0  0  0  0  0
  161.6010  205.6050  146.8250 C   0  0  0  0  0  0  0  0  0  0  0  0
  162.1300  206.2440  147.9900 N   0  0  0  0  0  2  0  0  0  0  0  0
  161.2640  204.2200  146.7970 N   0  0  0  0  0  0  0  0  0  0  0  0
  161.2000  203.3350  147.9760 C   0  0  0  0  0  2  0  0  0  0  0  0
  161.0960  200.7030  148.3030 O   0  0  0  0  0  0  0  0  0  0  0  0
  161.5440  201.7330  150.8210 O   0  0  0  0  0  0  0  0  0  0  0  0
  160.6870  200.8520  149.9330 P   0  0  0  0  0  0  0  0  0  0  0  0
  159.2840  200.6030  150.5300 O   0  0  0  0  0  0  0  0  0  0  0  0
  1  4  1  0  0  0  0
  2  7  1  0  0  0  0
  3  2  1  0  0  0  0
  4  2  2  0  0  0  0
  5  3  2  0  0  0  0
  6  5  1  0  0  0  0
  6  1  2  0  0  0  0
  7 10  1  0  0  0  0
  7  9  2  0  0  0  0
  9 12  1  0  0  0  0
 10 11  2  0  0  0  0
 11  8  1  0  0  0  0
 12  8  2  0  0  0  0
 12 15  1  0  0  0  0
 13 17  1  0  0  0  0
 14 16  1  0  0  0  0
 15 13  1  0  0  0  0
 15 14  2  0  0  0  0
 16 18  1  0  0  0  0
 17 18  2  0  0  0  0
 20 17  1  0  0  0  0
 20 19  1  0  0  0  0
 21  1  1  0  0  0  0
 22 23  2  0  0  0  0
 22 21  1  0  0  0  0
 24 22  2  0  0  0  0
 26 25  1  1  0  0  0
 26 22  1  0  0  0  0
 27 31  1  1  0  0  0
 28 30  1  0  0  0  0
 28 29  1  0  0  0  0
 29 27  1  0  0  0  0
 30 26  1  6  0  0  0
 30 27  1  0  0  0  0
 31 32  2  0  0  0  0
 33 39  1  0  0  0  0
 33  5  1  0  0  0  0
 34 37  1  0  0  0  0
 34 40  1  0  0  0  0
 35 41  1  0  0  0  0
 35 42  1  1  0  0  0
 36 38  2  0  0  0  0
 37 35  1  0  0  0  0
 38 39  1  0  0  0  0
 40 38  1  0  0  0  0
 40 41  1  0  0  0  0
 42 44  1  0  0  0  0
 44 45  2  0  0  0  0
 44 43  2  0  0  0  0
M  END
>  <MODEL>
6

>  <REMARK>
 VINA RESULT:      -6.8      3.496      8.845
  Name = 
  12 active torsions:
  status: ('A' for Active; 'I' for Inactive)
    1  A    between atoms: C_2  and  C_6
    2  A    between atoms: S_3  and  N_9
    3  A    between atoms: S_3  and  C_38
    4  A    between atoms: C_4  and  C_12
    5  A    between atoms: C_8  and  N_9
    6  A    between atoms: C_10  and  O_18
    7  A    between atoms: C_17  and  C_26
    8  A    between atoms: C_17  and  N_36
    9  A    between atoms: O_18  and  P_19
   10  A    between atoms: O_27  and  C_41
   11  A    between atoms: C_33  and  C_37
   12  A    between atoms: C_38  and  C_45
                            x       y       z     vdW  Elec       q    Type
                         _______ _______ _______ _____ _____    ______ ____

>  <TORSDO>
F 12

$$$$
=
 OpenBabel11042420383D

 45 49  0  0  1  0  0  0  0  0999 V2000
  160.8480  210.1780  152.3540 C   0  0  0  0  0  0  0  0  0  0  0  0
  161.5790  210.4610  150.1240 C   0  0  0  0  0  0  0  0  0  0  0  0
  161.7670  209.1200  149.9610 C   0  0  0  0  0  3  0  0  0  0  0  0
  161.1510  210.9800  151.3520 C   0  0  0  0  0  3  0  0  0  0  0  0
  161.4590  208.2740  150.9910 C   0  0  0  0  0  0  0  0  0  0  0  0
  161.0380  208.8530  152.1920 C   0  0  0  0  0  3  0  0  0  0  0  0
  161.9620  211.4420  149.0760 C   0  0  0  0  0  0  0  0  0  0  0  0
  162.3510  213.2160  146.9190 N   0  0  0  0  0  0  0  0  0  0  0  0
  160.9800  211.9990  148.4800 N   0  0  0  0  0  0  0  0  0  0  0  0
  163.2600  211.7850  148.6080 C   0  0  0  0  0  3  0  0  0  0  0  0
  163.4690  212.6760  147.5110 C   0  0  0  0  0  3  0  0  0  0  0  0
  161.1270  212.8730  147.4170 C   0  0  0  0  0  0  0  0  0  0  0  0
  158.7080  213.6280  147.8550 C   0  0  0  0  0  3  0  0  0  0  0  0
  159.3670  213.1900  145.6570 C   0  0  0  0  0  3  0  0  0  0  0  0
  159.7400  213.2670  146.9990 C   0  0  0  0  0  0  0  0  0  0  0  0
  158.0770  213.4360  145.1920 N   0  0  0  0  0  0  0  0  0  0  0  0
  157.3370  213.8890  147.3380 C   0  0  0  0  0  0  0  0  0  0  0  0
  157.1090  213.7760  146.0180 N   0  0  0  0  0  0  0  0  0  0  0  0
  156.4030  213.7010  149.5640 C   0  0  0  0  0  1  0  0  0  0  0  0
  156.3260  214.2260  148.2500 O   0  0  0  0  0  0  0  0  0  0  0  0
  160.2630  210.6860  153.5610 N   0  0  0  0  0  2  0  0  0  0  0  0
  160.7010  210.5270  155.2540 S   0  0  0  0  0  0  0  0  0  0  0  0
  160.4060  209.1350  155.6520 O   0  0  0  0  0  0  0  0  0  0  0  0
  162.1430  210.8610  155.5360 O   0  0  0  0  0  0  0  0  0  0  0  0
  160.2880  212.9130  156.2880 N   0  0  0  0  0  1  0  0  0  0  0  0
  159.6500  211.6180  156.2090 C   0  0  1  0  0  3  0  0  0  0  0  0
  157.5690  212.8060  155.2240 C   0  0  1  0  0  3  0  0  0  0  0  0
  157.2570  211.8210  157.0710 C   0  0  0  0  0  2  0  0  0  0  0  0
  156.0910  212.9470  156.2060 S   0  0  0  0  0  0  0  0  0  0  0  0
  158.1490  211.6100  155.8880 C   0  0  2  0  0  3  0  0  0  0  0  0
  157.5230  213.0260  153.7720 C   0  0  0  0  0  3  0  0  0  0  0  0
  158.5170  213.6400  153.1220 C   0  0  0  0  0  2  0  0  0  0  0  0
  162.1400  206.9820  151.0580 C   0  0  0  0  0  2  0  0  0  0  0  0
  160.4510  202.5980  150.1020 C   0  0  0  0  0  2  0  0  0  0  0  0
  161.1090  202.2190  147.6720 C   0  0  2  0  0  3  0  0  0  0  0  0
  161.3170  204.6630  151.7650 O   0  0  0  0  0  0  0  0  0  0  0  0
  160.2610  201.7110  148.8120 C   0  0  0  0  0  2  0  0  0  0  0  0
  161.5030  204.8010  150.5080 C   0  0  0  0  0  0  0  0  0  0  0  0
  161.8790  206.0740  149.9750 N   0  0  0  0  0  2  0  0  0  0  0  0
  161.2490  203.6690  149.6790 N   0  0  0  0  0  0  0  0  0  0  0  0
  161.5450  203.5860  148.2350 C   0  0  0  0  0  2  0  0  0  0  0  0
  160.8200  201.9250  146.2960 O   0  0  0  0  0  0  0  0  0  0  0  0
  160.0770  203.9790  144.6130 O   0  0  0  0  0  0  0  0  0  0  0  0
  161.2050  203.2030  145.2640 P   0  0  0  0  0  0  0  0  0  0  0  0
  162.5330  203.9930  145.2740 O   0  0  0  0  0  0  0  0  0  0  0  0
  1 21  1  0  0  0  0
  2  4  1  0  0  0  0
  3  2  2  0  0  0  0
  3  5  1  0  0  0  0
  4  1  2  0  0  0  0
  5 33  1  0  0  0  0
  5  6  2  0  0  0  0
  6  1  1  0  0  0  0
  7  2  1  0  0  0  0
  8 12  2  0  0  0  0
  8 11  1  0  0  0  0
  9  7  2  0  0  0  0
 10  7  1  0  0  0  0
 11 10  2  0  0  0  0
 12  9  1  0  0  0  0
 14 15  1  0  0  0  0
 15 12  1  0  0  0  0
 15 13  2  0  0  0  0
 16 14  2  0  0  0  0
 16 18  1  0  0  0  0
 17 13  1  0  0  0  0
 17 20  1  0  0  0  0
 18 17  2  0  0  0  0
 20 19  1  0  0  0  0
 21 22  1  0  0  0  0
 22 24  2  0  0  0  0
 22 23  2  0  0  0  0
 22 26  1  0  0  0  0
 26 25  1  6  0  0  0
 27 31  1  6  0  0  0
 27 30  1  0  0  0  0
 27 29  1  0  0  0  0
 29 28  1  0  0  0  0
 30 26  1  1  0  0  0
 30 28  1  0  0  0  0
 32 31  2  0  0  0  0
 35 42  1  6  0  0  0
 35 41  1  0  0  0  0
 35 37  1  0  0  0  0
 37 34  1  0  0  0  0
 38 36  2  0  0  0  0
 39 38  1  0  0  0  0
 39 33  1  0  0  0  0
 40 34  1  0  0  0  0
 40 38  1  0  0  0  0
 41 40  1  0  0  0  0
 43 44  2  0  0  0  0
 44 45  2  0  0  0  0
 44 42  1  0  0  0  0
M  END
>  <MODEL>
7

>  <REMARK>
 VINA RESULT:      -6.6      2.703      7.963
  Name = 
  12 active torsions:
  status: ('A' for Active; 'I' for Inactive)
    1  A    between atoms: C_2  and  C_6
    2  A    between atoms: S_3  and  N_9
    3  A    between atoms: S_3  and  C_38
    4  A    between atoms: C_4  and  C_12
    5  A    between atoms: C_8  and  N_9
    6  A    between atoms: C_10  and  O_18
    7  A    between atoms: C_17  and  C_26
    8  A    between atoms: C_17  and  N_36
    9  A    between atoms: O_18  and  P_19
   10  A    between atoms: O_27  and  C_41
   11  A    between atoms: C_33  and  C_37
   12  A    between atoms: C_38  and  C_45
                            x       y       z     vdW  Elec       q    Type
                         _______ _______ _______ _____ _____    ______ ____

>  <TORSDO>
F 12

$$$$
=
 OpenBabel11042420383D

 45 49  0  0  1  0  0  0  0  0999 V2000
  161.8620  209.6960  151.3200 C   0  0  0  0  0  0  0  0  0  0  0  0
  160.9050  209.2500  153.4350 C   0  0  0  0  0  0  0  0  0  0  0  0
  160.8480  207.9110  153.1850 C   0  0  0  0  0  3  0  0  0  0  0  0
  161.3850  210.1390  152.4670 C   0  0  0  0  0  3  0  0  0  0  0  0
  161.3370  207.4330  151.9990 C   0  0  0  0  0  0  0  0  0  0  0  0
  161.8020  208.3710  151.0720 C   0  0  0  0  0  3  0  0  0  0  0  0
  160.3260  209.8450  154.6670 C   0  0  0  0  0  0  0  0  0  0  0  0
  159.1670  211.2890  156.7930 N   0  0  0  0  0  0  0  0  0  0  0  0
  159.4480  210.7480  154.4630 N   0  0  0  0  0  0  0  0  0  0  0  0
  160.6680  209.5920  156.0240 C   0  0  0  0  0  3  0  0  0  0  0  0
  160.0940  210.3230  157.1090 C   0  0  0  0  0  3  0  0  0  0  0  0
  158.8560  211.4820  155.4780 C   0  0  0  0  0  0  0  0  0  0  0  0
  156.7570  212.9630  155.3700 C   0  0  0  0  0  3  0  0  0  0  0  0
  158.1190  212.8060  153.4790 C   0  0  0  0  0  3  0  0  0  0  0  0
  157.9160  212.4430  154.8110 C   0  0  0  0  0  0  0  0  0  0  0  0
  157.2440  213.6080  152.7490 N   0  0  0  0  0  0  0  0  0  0  0  0
  155.8360  213.8200  154.5740 C   0  0  0  0  0  0  0  0  0  0  0  0
  156.1480  214.0930  153.2960 N   0  0  0  0  0  0  0  0  0  0  0  0
  154.6000  214.3080  156.5980 C   0  0  0  0  0  1  0  0  0  0  0  0
  154.6670  214.2990  155.1830 O   0  0  0  0  0  0  0  0  0  0  0  0
  162.4970  210.5800  150.3860 N   0  0  0  0  0  2  0  0  0  0  0  0
  162.0230  211.1830  148.8080 S   0  0  0  0  0  0  0  0  0  0  0  0
  163.0810  212.1110  148.3590 O   0  0  0  0  0  0  0  0  0  0  0  0
  161.8100  210.0940  147.7870 O   0  0  0  0  0  0  0  0  0  0  0  0
  160.5310  212.7760  150.2800 N   0  0  0  0  0  1  0  0  0  0  0  0
  160.5040  212.1130  148.9960 C   0  0  1  0  0  3  0  0  0  0  0  0
  158.5860  212.9810  147.4870 C   0  0  1  0  0  3  0  0  0  0  0  0
  160.3260  212.3470  146.4620 C   0  0  0  0  0  2  0  0  0  0  0  0
  158.7050  212.7950  145.7200 S   0  0  0  0  0  0  0  0  0  0  0  0
  160.0380  212.9530  147.7980 C   0  0  2  0  0  3  0  0  0  0  0  0
  157.6140  213.9130  148.0740 C   0  0  0  0  0  3  0  0  0  0  0  0
  157.7660  214.4050  149.3070 C   0  0  0  0  0  2  0  0  0  0  0  0
  160.8070  206.1710  151.4850 C   0  0  0  0  0  2  0  0  0  0  0  0
  160.7070  202.6340  148.2480 C   0  0  0  0  0  2  0  0  0  0  0  0
  162.0480  203.5700  146.2970 C   0  0  2  0  0  3  0  0  0  0  0  0
  160.5070  203.7190  150.8100 O   0  0  0  0  0  0  0  0  0  0  0  0
  161.1100  202.4720  146.7330 C   0  0  0  0  0  2  0  0  0  0  0  0
  160.9650  204.4740  149.8850 C   0  0  0  0  0  0  0  0  0  0  0  0
  161.0970  205.8800  150.1080 N   0  0  0  0  0  2  0  0  0  0  0  0
  161.2570  203.8660  148.6290 N   0  0  0  0  0  0  0  0  0  0  0  0
  161.9270  204.5330  147.4950 C   0  0  0  0  0  2  0  0  0  0  0  0
  162.2170  203.9490  144.9220 O   0  0  0  0  0  0  0  0  0  0  0  0
  161.2800  205.7960  143.1020 O   0  0  0  0  0  0  0  0  0  0  0  0
  161.4790  205.4220  144.5580 P   0  0  0  0  0  0  0  0  0  0  0  0
  160.5470  206.2130  145.5020 O   0  0  0  0  0  0  0  0  0  0  0  0
  1  4  1  0  0  0  0
  2  7  1  0  0  0  0
  3  2  1  0  0  0  0
  4  2  2  0  0  0  0
  5  3  2  0  0  0  0
  6  1  2  0  0  0  0
  6  5  1  0  0  0  0
  7 10  1  0  0  0  0
  8 11  1  0  0  0  0
  9  7  2  0  0  0  0
  9 12  1  0  0  0  0
 10 11  2  0  0  0  0
 12  8  2  0  0  0  0
 14 15  1  0  0  0  0
 15 13  2  0  0  0  0
 15 12  1  0  0  0  0
 16 18  1  0  0  0  0
 16 14  2  0  0  0  0
 17 20  1  0  0  0  0
 17 13  1  0  0  0  0
 18 17  2  0  0  0  0
 20 19  1  0  0  0  0
 21  1  1  0  0  0  0
 22 26  1  0  0  0  0
 22 21  1  0  0  0  0
 23 22  2  0  0  0  0
 24 22  2  0  0  0  0
 26 25  1  1  0  0  0
 27 30  1  0  0  0  0
 27 31  1  6  0  0  0
 28 30  1  0  0  0  0
 29 28  1  0  0  0  0
 29 27  1  0  0  0  0
 30 26  1  1  0  0  0
 31 32  2  0  0  0  0
 33  5  1  0  0  0  0
 34 40  1  0  0  0  0
 35 42  1  6  0  0  0
 35 37  1  0  0  0  0
 35 41  1  0  0  0  0
 37 34  1  0  0  0  0
 38 39  1  0  0  0  0
 38 36  2  0  0  0  0
 39 33  1  0  0  0  0
 40 38  1  0  0  0  0
 41 40  1  0  0  0  0
 43 44  2  0  0  0  0
 44 42  1  0  0  0  0
 44 45  2  0  0  0  0
M  END
>  <MODEL>
8

>  <REMARK>
 VINA RESULT:      -6.4      3.291      9.048
  Name = 
  12 active torsions:
  status: ('A' for Active; 'I' for Inactive)
    1  A    between atoms: C_2  and  C_6
    2  A    between atoms: S_3  and  N_9
    3  A    between atoms: S_3  and  C_38
    4  A    between atoms: C_4  and  C_12
    5  A    between atoms: C_8  and  N_9
    6  A    between atoms: C_10  and  O_18
    7  A    between atoms: C_17  and  C_26
    8  A    between atoms: C_17  and  N_36
    9  A    between atoms: O_18  and  P_19
   10  A    between atoms: O_27  and  C_41
   11  A    between atoms: C_33  and  C_37
   12  A    between atoms: C_38  and  C_45
                            x       y       z     vdW  Elec       q    Type
                         _______ _______ _______ _____ _____    ______ ____

>  <TORSDO>
F 12

$$$$
=
 OpenBabel11042420383D

 45 49  0  0  1  0  0  0  0  0999 V2000
  161.5120  208.3330  152.1000 C   0  0  0  0  0  0  0  0  0  0  0  0
  161.7170  206.2310  151.0380 C   0  0  0  0  0  0  0  0  0  0  0  0
  162.2930  206.7870  149.9340 C   0  0  0  0  0  3  0  0  0  0  0  0
  161.2950  207.0320  152.1040 C   0  0  0  0  0  3  0  0  0  0  0  0
  162.5240  208.1360  149.9110 C   0  0  0  0  0  0  0  0  0  0  0  0
  162.0780  208.8820  151.0060 C   0  0  0  0  0  3  0  0  0  0  0  0
  161.3710  204.7880  151.1000 C   0  0  0  0  0  0  0  0  0  0  0  0
  160.5600  202.0970  150.8680 N   0  0  0  0  0  0  0  0  0  0  0  0
  161.2910  204.2070  149.9660 N   0  0  0  0  0  0  0  0  0  0  0  0
  161.0520  203.9960  152.2380 C   0  0  0  0  0  3  0  0  0  0  0  0
  160.6320  202.6350  152.1320 C   0  0  0  0  0  3  0  0  0  0  0  0
  160.8950  202.8900  149.8080 C   0  0  0  0  0  0  0  0  0  0  0  0
  160.6540  201.3930  147.7300 C   0  0  0  0  0  3  0  0  0  0  0  0
  161.3050  203.6180  147.4430 C   0  0  0  0  0  3  0  0  0  0  0  0
  160.9100  202.6180  148.3320 C   0  0  0  0  0  0  0  0  0  0  0  0
  161.4490  203.4280  146.0700 N   0  0  0  0  0  0  0  0  0  0  0  0
  160.8110  201.2110  146.2610 C   0  0  0  0  0  0  0  0  0  0  0  0
  161.2020  202.2580  145.5160 N   0  0  0  0  0  0  0  0  0  0  0  0
  161.5820  198.9650  145.7880 C   0  0  0  0  0  1  0  0  0  0  0  0
  160.5620  199.9450  145.7110 O   0  0  0  0  0  0  0  0  0  0  0  0
  161.2240  209.1390  153.2510 N   0  0  0  0  0  2  0  0  0  0  0  0
  161.1670  208.7820  154.9680 S   0  0  0  0  0  0  0  0  0  0  0  0
  161.1200  207.3120  155.1070 O   0  0  0  0  0  0  0  0  0  0  0  0
  162.3320  209.3470  155.7400 O   0  0  0  0  0  0  0  0  0  0  0  0
  159.5740  209.1310  157.0360 N   0  0  0  0  0  1  0  0  0  0  0  0
  159.6450  209.4560  155.6300 C   0  0  1  0  0  3  0  0  0  0  0  0
  157.8590  211.3080  155.3290 C   0  0  1  0  0  3  0  0  0  0  0  0
  159.2770  211.1600  153.7660 C   0  0  0  0  0  2  0  0  0  0  0  0
  157.7510  212.1830  153.7820 S   0  0  0  0  0  0  0  0  0  0  0  0
  159.2830  210.8960  155.2380 C   0  0  2  0  0  3  0  0  0  0  0  0
  157.2080  211.8420  156.5330 C   0  0  0  0  0  3  0  0  0  0  0  0
  155.8810  211.9850  156.6120 C   0  0  0  0  0  2  0  0  0  0  0  0
  162.6020  208.8070  148.6150 C   0  0  0  0  0  2  0  0  0  0  0  0
  162.1540  213.4410  147.4640 C   0  0  0  0  0  2  0  0  0  0  0  0
  159.6990  213.9370  147.9230 C   0  0  2  0  0  3  0  0  0  0  0  0
  163.5590  211.1450  148.1960 O   0  0  0  0  0  0  0  0  0  0  0  0
  160.9580  214.4520  147.2720 C   0  0  0  0  0  2  0  0  0  0  0  0
  162.2820  211.0920  148.2350 C   0  0  0  0  0  0  0  0  0  0  0  0
  161.6220  209.8310  148.3750 N   0  0  0  0  0  2  0  0  0  0  0  0
  161.5690  212.3150  148.0590 N   0  0  0  0  0  0  0  0  0  0  0  0
  160.1110  212.4820  148.2180 C   0  0  0  0  0  2  0  0  0  0  0  0
  158.3880  214.3830  147.5420 O   0  0  0  0  0  0  0  0  0  0  0  0
  156.9720  212.2290  146.5640 O   0  0  0  0  0  0  0  0  0  0  0  0
  157.2160  213.1820  147.7180 P   0  0  0  0  0  0  0  0  0  0  0  0
  156.7050  212.6210  149.0630 O   0  0  0  0  0  0  0  0  0  0  0  0
  1  4  1  0  0  0  0
  1 21  1  0  0  0  0
  2  7  1  0  0  0  0
  2  4  2  0  0  0  0
  3  2  1  0  0  0  0
  5  3  2  0  0  0  0
  5  6  1  0  0  0  0
  6  1  2  0  0  0  0
  7 10  1  0  0  0  0
  8 11  1  0  0  0  0
  9  7  2  0  0  0  0
 11 10  2  0  0  0  0
 12  9  1  0  0  0  0
 12  8  2  0  0  0  0
 13 15  2  0  0  0  0
 14 15  1  0  0  0  0
 15 12  1  0  0  0  0
 16 14  2  0  0  0  0
 17 13  1  0  0  0  0
 18 16  1  0  0  0  0
 18 17  2  0  0  0  0
 20 19  1  0  0  0  0
 20 17  1  0  0  0  0
 21 22  1  0  0  0  0
 22 23  2  0  0  0  0
 22 26  1  0  0  0  0
 22 24  2  0  0  0  0
 26 25  1  1  0  0  0
 27 31  1  1  0  0  0
 28 29  1  0  0  0  0
 28 30  1  0  0  0  0
 29 27  1  0  0  0  0
 30 27  1  0  0  0  0
 30 26  1  6  0  0  0
 31 32  2  0  0  0  0
 33  5  1  0  0  0  0
 34 40  1  0  0  0  0
 35 42  1  6  0  0  0
 35 41  1  0  0  0  0
 36 38  2  0  0  0  0
 37 34  1  0  0  0  0
 37 35  1  0  0  0  0
 38 39  1  0  0  0  0
 39 33  1  0  0  0  0
 40 41  1  0  0  0  0
 40 38  1  0  0  0  0
 42 44  1  0  0  0  0
 43 44  2  0  0  0  0
 44 45  2  0  0  0  0
M  END
>  <MODEL>
9

>  <REMARK>
 VINA RESULT:      -6.2      1.659      2.159
  Name = 
  12 active torsions:
  status: ('A' for Active; 'I' for Inactive)
    1  A    between atoms: C_2  and  C_6
    2  A    between atoms: S_3  and  N_9
    3  A    between atoms: S_3  and  C_38
    4  A    between atoms: C_4  and  C_12
    5  A    between atoms: C_8  and  N_9
    6  A    between atoms: C_10  and  O_18
    7  A    between atoms: C_17  and  C_26
    8  A    between atoms: C_17  and  N_36
    9  A    between atoms: O_18  and  P_19
   10  A    between atoms: O_27  and  C_41
   11  A    between atoms: C_33  and  C_37
   12  A    between atoms: C_38  and  C_45
                            x       y       z     vdW  Elec       q    Type
                         _______ _______ _______ _____ _____    ______ ____

>  <TORSDO>
F 12

$$$$
