=
 OpenBabel11042420303D

 31 34  0  0  1  0  0  0  0  0999 V2000
  162.3660  207.9020  151.4660 N   0  0  0  0  0  0  0  0  0  0  0  0
  162.7580  207.1300  150.4230 O   0  0  0  0  0  0  0  0  0  0  0  0
  159.2830  213.8240  151.7020 C   0  0  0  0  0  2  0  0  0  0  0  0
  162.3800  209.3230  151.1720 C   0  0  1  0  0  3  0  0  0  0  0  0
  159.9240  212.5050  152.1170 C   0  0  0  0  0  2  0  0  0  0  0  0
  159.3240  210.2450  153.1650 N   0  0  0  0  0  2  0  0  0  0  0  0
  160.4290  209.5020  152.6360 C   0  0  0  0  0  0  0  0  0  0  0  0
  158.5340  214.4170  152.8800 C   0  0  0  0  0  2  0  0  0  0  0  0
  161.5490  207.3570  152.5100 C   0  0  0  0  0  0  0  0  0  0  0  0
  157.9070  212.0960  153.4470 N   0  0  0  0  0  0  0  0  0  0  0  0
  162.3290  209.3480  149.6730 C   0  0  0  0  0  2  0  0  0  0  0  0
  160.6170  208.1140  153.0800 C   0  0  0  0  0  3  0  0  0  0  0  0
  162.3550  207.8660  149.2890 C   0  0  2  0  0  3  0  0  0  0  0  0
  158.9820  211.6120  152.8920 C   0  0  0  0  0  0  0  0  0  0  0  0
  157.4090  213.4600  153.2490 C   0  0  0  0  0  2  0  0  0  0  0  0
  161.2100  210.0120  151.7280 N   0  0  0  0  0  0  0  0  0  0  0  0
  160.9750  207.4000  148.8170 C   0  0  2  0  0  3  0  0  0  0  0  0
  160.6710  206.1460  149.3540 O   0  0  0  0  0  1  0  0  0  0  0  0
  160.8530  207.3650  147.2910 C   0  0  0  0  0  2  0  0  0  0  0  0
  161.0280  205.9640  146.7160 C   0  0  2  0  0  3  0  0  0  0  0  0
  162.4860  205.6070  146.6110 C   0  0  0  0  0  3  0  0  0  0  0  0
  162.8410  204.5360  145.8950 C   0  0  0  0  0  3  0  0  0  0  0  0
  160.3620  205.8840  145.3360 C   0  0  0  0  0  2  0  0  0  0  0  0
  160.7610  204.6360  144.5170 C   0  0  0  0  0  2  0  0  0  0  0  0
  161.7750  203.7210  145.2210 C   0  0  0  0  0  2  0  0  0  0  0  0
  161.6560  205.9180  152.8800 C   0  0  0  0  0  2  0  0  0  0  0  0
  160.9480  203.7790  151.7500 C   0  0  0  0  0  0  0  0  0  0  0  0
  160.5710  203.2870  152.8460 O   0  0  0  0  0  0  0  0  0  0  0  0
  161.4930  205.0960  151.6920 N   0  0  0  0  0  2  0  0  0  0  0  0
  160.7390  202.3860  149.5730 N   0  0  0  0  0  0  0  0  0  0  0  0
  160.8320  203.0070  150.5460 C   0  0  0  0  0  0  0  0  0  0  0  0
  1  9  1  0  0  0  0
  2  1  1  0  0  0  0
  3  5  1  0  0  0  0
  3  8  1  0  0  0  0
  4 11  1  6  0  0  0
  4  1  1  0  0  0  0
  4 16  1  0  0  0  0
  5 14  1  0  0  0  0
  7 12  1  0  0  0  0
  7  6  1  0  0  0  0
  8 15  1  0  0  0  0
  9 26  1  0  0  0  0
  9 12  2  0  0  0  0
 13 17  1  1  0  0  0
 13 11  1  0  0  0  0
 13  2  1  0  0  0  0
 14  6  1  0  0  0  0
 14 10  2  0  0  0  0
 15 10  1  0  0  0  0
 16  7  2  0  0  0  0
 17 18  1  6  0  0  0
 19 17  1  0  0  0  0
 20 19  1  6  0  0  0
 21 20  1  0  0  0  0
 22 21  2  0  0  0  0
 23 20  1  0  0  0  0
 24 25  1  0  0  0  0
 24 23  1  0  0  0  0
 25 22  1  0  0  0  0
 27 28  2  0  0  0  0
 29 27  1  0  0  0  0
 29 26  1  0  0  0  0
 30 31  3  0  0  0  0
 31 27  1  0  0  0  0
M  END
>  <MODEL>
1

>  <REMARK>
 VINA RESULT:      -8.0      0.000      0.000
  Name = 
  6 active torsions:
  status: ('A' for Active; 'I' for Inactive)
    1  A    between atoms: C_2  and  C_15
    2  A    between atoms: C_2  and  N_28
    3  A    between atoms: C_3  and  C_26
    4  A    between atoms: C_5  and  C_16
    5  A    between atoms: C_5  and  C_23
    6  A    between atoms: C_8  and  C_16
                            x       y       z     vdW  Elec       q    Type
                         _______ _______ _______ _____ _____    ______ ____

>  <TORSDO>
F 6

$$$$
=
 OpenBabel11042420303D

 31 34  0  0  1  0  0  0  0  0999 V2000
  160.3160  211.1200  155.6350 N   0  0  0  0  0  0  0  0  0  0  0  0
  160.7660  210.0210  156.2900 O   0  0  0  0  0  0  0  0  0  0  0  0
  160.8070  212.9920  149.2400 C   0  0  0  0  0  2  0  0  0  0  0  0
  161.1520  211.5080  154.5140 C   0  0  1  0  0  3  0  0  0  0  0  0
  160.4240  212.9530  150.7160 C   0  0  0  0  0  2  0  0  0  0  0  0
  158.3830  212.6450  152.2340 N   0  0  0  0  0  2  0  0  0  0  0  0
  159.0910  212.2130  153.4020 C   0  0  0  0  0  0  0  0  0  0  0  0
  159.9470  214.0130  148.5200 C   0  0  0  0  0  2  0  0  0  0  0  0
  158.9370  211.5020  155.7130 C   0  0  0  0  0  0  0  0  0  0  0  0
  158.1070  213.2640  149.9860 N   0  0  0  0  0  0  0  0  0  0  0  0
  161.9000  210.2430  154.2080 C   0  0  0  0  0  2  0  0  0  0  0  0
  158.3380  212.0290  154.6490 C   0  0  0  0  0  3  0  0  0  0  0  0
  161.4110  209.2700  155.2860 C   0  0  2  0  0  3  0  0  0  0  0  0
  158.9290  212.9170  150.9340 C   0  0  0  0  0  0  0  0  0  0  0  0
  158.5000  213.5500  148.6030 C   0  0  0  0  0  2  0  0  0  0  0  0
  160.3580  211.9180  153.3510 N   0  0  0  0  0  0  0  0  0  0  0  0
  160.4470  208.2380  154.6930 C   0  0  2  0  0  3  0  0  0  0  0  0
  159.4310  207.9380  155.6040 O   0  0  0  0  0  1  0  0  0  0  0  0
  161.1550  206.9560  154.2490 C   0  0  0  0  0  2  0  0  0  0  0  0
  160.8080  206.5530  152.8200 C   0  0  2  0  0  3  0  0  0  0  0  0
  161.3010  205.1630  152.5230 C   0  0  0  0  0  3  0  0  0  0  0  0
  161.3210  204.7400  151.2560 C   0  0  0  0  0  3  0  0  0  0  0  0
  161.4220  207.5560  151.8350 C   0  0  0  0  0  2  0  0  0  0  0  0
  161.4290  207.0710  150.3680 C   0  0  0  0  0  2  0  0  0  0  0  0
  160.8480  205.6630  150.1700 C   0  0  0  0  0  2  0  0  0  0  0  0
  158.1400  211.2070  156.9360 C   0  0  0  0  0  2  0  0  0  0  0  0
  155.8000  212.1390  156.8450 C   0  0  0  0  0  0  0  0  0  0  0  0
  155.3550  211.0640  156.3640 O   0  0  0  0  0  0  0  0  0  0  0  0
  157.1830  212.2780  157.1650 N   0  0  0  0  0  2  0  0  0  0  0  0
  154.1860  214.1270  157.2560 N   0  0  0  0  0  0  0  0  0  0  0  0
  154.9070  213.2400  157.0730 C   0  0  0  0  0  0  0  0  0  0  0  0
  1  9  1  0  0  0  0
  1  2  1  0  0  0  0
  3  5  1  0  0  0  0
  4 11  1  6  0  0  0
  4  1  1  0  0  0  0
  5 14  1  0  0  0  0
  6  7  1  0  0  0  0
  7 12  1  0  0  0  0
  8 15  1  0  0  0  0
  8  3  1  0  0  0  0
  9 26  1  0  0  0  0
 10 14  2  0  0  0  0
 11 13  1  0  0  0  0
 12  9  2  0  0  0  0
 13 17  1  6  0  0  0
 13  2  1  0  0  0  0
 14  6  1  0  0  0  0
 15 10  1  0  0  0  0
 16  7  2  0  0  0  0
 16  4  1  0  0  0  0
 17 18  1  1  0  0  0
 19 17  1  0  0  0  0
 20 19  1  1  0  0  0
 21 20  1  0  0  0  0
 22 21  2  0  0  0  0
 23 20  1  0  0  0  0
 24 23  1  0  0  0  0
 25 24  1  0  0  0  0
 25 22  1  0  0  0  0
 26 29  1  0  0  0  0
 27 31  1  0  0  0  0
 27 29  1  0  0  0  0
 28 27  2  0  0  0  0
 31 30  3  0  0  0  0
M  END
>  <MODEL>
2

>  <REMARK>
 VINA RESULT:      -6.9      4.003      6.870
  Name = 
  6 active torsions:
  status: ('A' for Active; 'I' for Inactive)
    1  A    between atoms: C_2  and  C_15
    2  A    between atoms: C_2  and  N_28
    3  A    between atoms: C_3  and  C_26
    4  A    between atoms: C_5  and  C_16
    5  A    between atoms: C_5  and  C_23
    6  A    between atoms: C_8  and  C_16
                            x       y       z     vdW  Elec       q    Type
                         _______ _______ _______ _____ _____    ______ ____

>  <TORSDO>
F 6

$$$$
=
 OpenBabel11042420303D

 31 34  0  0  1  0  0  0  0  0999 V2000
  162.0540  210.3600  151.5500 N   0  0  0  0  0  0  0  0  0  0  0  0
  161.5490  211.4340  152.2070 O   0  0  0  0  0  0  0  0  0  0  0  0
  160.8550  203.8150  152.1510 C   0  0  0  0  0  2  0  0  0  0  0  0
  162.1030  209.1570  152.3600 C   0  0  1  0  0  3  0  0  0  0  0  0
  161.3890  205.1520  151.6500 C   0  0  0  0  0  2  0  0  0  0  0  0
  161.2540  206.7160  149.6240 N   0  0  0  0  0  2  0  0  0  0  0  0
  161.6190  207.9240  150.3040 C   0  0  0  0  0  0  0  0  0  0  0  0
  161.1510  202.7360  151.1270 C   0  0  0  0  0  2  0  0  0  0  0  0
  162.0290  210.3040  150.1180 C   0  0  0  0  0  0  0  0  0  0  0  0
  160.6750  204.4500  149.4140 N   0  0  0  0  0  0  0  0  0  0  0  0
  161.1020  209.4460  153.4390 C   0  0  0  0  0  2  0  0  0  0  0  0
  161.8220  209.1410  149.5080 C   0  0  0  0  0  3  0  0  0  0  0  0
  160.6350  210.8700  153.1210 C   0  0  2  0  0  3  0  0  0  0  0  0
  161.0420  205.4200  150.2030 C   0  0  0  0  0  0  0  0  0  0  0  0
  160.3950  203.0790  149.8520 C   0  0  0  0  0  2  0  0  0  0  0  0
  161.6980  207.9670  151.6030 N   0  0  0  0  0  0  0  0  0  0  0  0
  159.2240  210.8620  152.5260 C   0  0  2  0  0  3  0  0  0  0  0  0
  159.0250  211.9900  151.7250 O   0  0  0  0  0  1  0  0  0  0  0  0
  158.1330  210.7730  153.5950 C   0  0  0  0  0  2  0  0  0  0  0  0
  158.2870  211.8250  154.6880 C   0  0  2  0  0  3  0  0  0  0  0  0
  158.3570  211.1790  156.0450 C   0  0  0  0  0  3  0  0  0  0  0  0
  158.2320  211.9440  157.1330 C   0  0  0  0  0  3  0  0  0  0  0  0
  157.1120  212.8100  154.6290 C   0  0  0  0  0  2  0  0  0  0  0  0
  156.9790  213.7040  155.8810 C   0  0  0  0  0  2  0  0  0  0  0  0
  158.0270  213.4220  156.9680 C   0  0  0  0  0  2  0  0  0  0  0  0
  162.1160  211.5530  149.3120 C   0  0  0  0  0  2  0  0  0  0  0  0
  160.9150  212.4860  147.3020 C   0  0  0  0  0  0  0  0  0  0  0  0
  161.1210  213.6680  147.6870 O   0  0  0  0  0  0  0  0  0  0  0  0
  161.3930  211.3790  148.0620 N   0  0  0  0  0  2  0  0  0  0  0  0
  159.6030  212.0580  145.1060 N   0  0  0  0  0  0  0  0  0  0  0  0
  160.1880  212.2500  146.0870 C   0  0  0  0  0  0  0  0  0  0  0  0
  1  2  1  0  0  0  0
  1  4  1  0  0  0  0
  2 13  1  0  0  0  0
  4 11  1  1  0  0  0
  5  3  1  0  0  0  0
  6 14  1  0  0  0  0
  6  7  1  0  0  0  0
  7 16  2  0  0  0  0
  8  3  1  0  0  0  0
  9  1  1  0  0  0  0
 10 15  1  0  0  0  0
 10 14  2  0  0  0  0
 12  9  2  0  0  0  0
 12  7  1  0  0  0  0
 13 17  1  6  0  0  0
 13 11  1  0  0  0  0
 14  5  1  0  0  0  0
 15  8  1  0  0  0  0
 16  4  1  0  0  0  0
 17 18  1  1  0  0  0
 17 19  1  0  0  0  0
 20 19  1  6  0  0  0
 20 21  1  0  0  0  0
 21 22  2  0  0  0  0
 23 20  1  0  0  0  0
 23 24  1  0  0  0  0
 24 25  1  0  0  0  0
 25 22  1  0  0  0  0
 26  9  1  0  0  0  0
 27 28  2  0  0  0  0
 27 29  1  0  0  0  0
 29 26  1  0  0  0  0
 30 31  3  0  0  0  0
 31 27  1  0  0  0  0
M  END
>  <MODEL>
3

>  <REMARK>
 VINA RESULT:      -6.8      3.367      8.893
  Name = 
  6 active torsions:
  status: ('A' for Active; 'I' for Inactive)
    1  A    between atoms: C_2  and  C_15
    2  A    between atoms: C_2  and  N_28
    3  A    between atoms: C_3  and  C_26
    4  A    between atoms: C_5  and  C_16
    5  A    between atoms: C_5  and  C_23
    6  A    between atoms: C_8  and  C_16
                            x       y       z     vdW  Elec       q    Type
                         _______ _______ _______ _____ _____    ______ ____

>  <TORSDO>
F 6

$$$$
=
 OpenBabel11042420303D

 31 34  0  0  1  0  0  0  0  0999 V2000
  162.2240  205.3400  151.6030 N   0  0  0  0  0  0  0  0  0  0  0  0
  162.3210  205.1420  150.2650 O   0  0  0  0  0  0  0  0  0  0  0  0
  161.4420  210.8980  155.2260 C   0  0  0  0  0  2  0  0  0  0  0  0
  162.7420  206.6250  152.0360 C   0  0  1  0  0  3  0  0  0  0  0  0
  161.5710  209.4320  154.8270 C   0  0  0  0  0  2  0  0  0  0  0  0
  160.2040  207.2670  154.7390 N   0  0  0  0  0  2  0  0  0  0  0  0
  160.9760  206.6080  153.7270 C   0  0  0  0  0  0  0  0  0  0  0  0
  160.9470  210.9930  156.6570 C   0  0  0  0  0  2  0  0  0  0  0  0
  161.2620  204.6150  152.3800 C   0  0  0  0  0  0  0  0  0  0  0  0
  159.5360  209.0360  156.1310 N   0  0  0  0  0  0  0  0  0  0  0  0
  162.7100  207.4340  150.7740 C   0  0  0  0  0  2  0  0  0  0  0  0
  160.6570  205.2110  153.4030 C   0  0  0  0  0  3  0  0  0  0  0  0
  162.2100  206.4380  149.7230 C   0  0  2  0  0  3  0  0  0  0  0  0
  160.3710  208.6060  155.2290 C   0  0  0  0  0  0  0  0  0  0  0  0
  159.5550  210.3810  156.7120 C   0  0  0  0  0  2  0  0  0  0  0  0
  161.8910  207.2460  153.0560 N   0  0  0  0  0  0  0  0  0  0  0  0
  160.7560  206.7320  149.3410 C   0  0  2  0  0  3  0  0  0  0  0  0
  159.9340  205.6530  149.6790 O   0  0  0  0  0  1  0  0  0  0  0  0
  160.5930  207.0770  147.8590 C   0  0  0  0  0  2  0  0  0  0  0  0
  160.9260  205.9090  146.9380 C   0  0  2  0  0  3  0  0  0  0  0  0
  162.4140  205.7160  146.8360 C   0  0  0  0  0  3  0  0  0  0  0  0
  162.9000  204.9160  145.8830 C   0  0  0  0  0  3  0  0  0  0  0  0
  160.3260  206.1570  145.5480 C   0  0  0  0  0  2  0  0  0  0  0  0
  160.8770  205.2200  144.4510 C   0  0  0  0  0  2  0  0  0  0  0  0
  161.9450  204.2340  144.9450 C   0  0  0  0  0  2  0  0  0  0  0  0
  160.8510  203.2400  151.9810 C   0  0  0  0  0  2  0  0  0  0  0  0
  160.9170  201.9010  149.8470 C   0  0  0  0  0  0  0  0  0  0  0  0
  161.0450  200.8240  150.4880 O   0  0  0  0  0  0  0  0  0  0  0  0
  160.8040  203.1470  150.5300 N   0  0  0  0  0  2  0  0  0  0  0  0
  160.8620  201.8530  147.2550 N   0  0  0  0  0  0  0  0  0  0  0  0
  160.8860  201.8750  148.4120 C   0  0  0  0  0  0  0  0  0  0  0  0
  1  4  1  0  0  0  0
  1  9  1  0  0  0  0
  2  1  1  0  0  0  0
  3  8  1  0  0  0  0
  4 11  1  6  0  0  0
  4 16  1  0  0  0  0
  5  3  1  0  0  0  0
  5 14  1  0  0  0  0
  6 14  1  0  0  0  0
  7  6  1  0  0  0  0
  8 15  1  0  0  0  0
  9 12  2  0  0  0  0
 10 15  1  0  0  0  0
 12  7  1  0  0  0  0
 13 17  1  1  0  0  0
 13  2  1  0  0  0  0
 13 11  1  0  0  0  0
 14 10  2  0  0  0  0
 16  7  2  0  0  0  0
 17 18  1  6  0  0  0
 19 17  1  0  0  0  0
 20 19  1  1  0  0  0
 21 20  1  0  0  0  0
 22 21  2  0  0  0  0
 23 20  1  0  0  0  0
 24 25  1  0  0  0  0
 24 23  1  0  0  0  0
 25 22  1  0  0  0  0
 26  9  1  0  0  0  0
 27 28  2  0  0  0  0
 27 29  1  0  0  0  0
 29 26  1  0  0  0  0
 30 31  3  0  0  0  0
 31 27  1  0  0  0  0
M  END
>  <MODEL>
4

>  <REMARK>
 VINA RESULT:      -6.7      2.505      2.901
  Name = 
  6 active torsions:
  status: ('A' for Active; 'I' for Inactive)
    1  A    between atoms: C_2  and  C_15
    2  A    between atoms: C_2  and  N_28
    3  A    between atoms: C_3  and  C_26
    4  A    between atoms: C_5  and  C_16
    5  A    between atoms: C_5  and  C_23
    6  A    between atoms: C_8  and  C_16
                            x       y       z     vdW  Elec       q    Type
                         _______ _______ _______ _____ _____    ______ ____

>  <TORSDO>
F 6

$$$$
=
 OpenBabel11042420303D

 31 34  0  0  1  0  0  0  0  0999 V2000
  162.0740  208.6520  152.3090 N   0  0  0  0  0  0  0  0  0  0  0  0
  162.0920  207.2970  152.3590 O   0  0  0  0  0  0  0  0  0  0  0  0
  161.9070  212.9110  147.1650 C   0  0  0  0  0  2  0  0  0  0  0  0
  162.7120  209.1960  151.1250 C   0  0  1  0  0  3  0  0  0  0  0  0
  161.9000  212.3440  148.5810 C   0  0  0  0  0  2  0  0  0  0  0  0
  160.3630  212.0910  150.6150 N   0  0  0  0  0  2  0  0  0  0  0  0
  161.0320  210.9710  151.2080 C   0  0  0  0  0  0  0  0  0  0  0  0
  161.4880  214.3690  147.2010 C   0  0  0  0  0  2  0  0  0  0  0  0
  161.0950  209.3950  153.0470 C   0  0  0  0  0  0  0  0  0  0  0  0
  159.9030  213.7070  148.9750 N   0  0  0  0  0  0  0  0  0  0  0  0
  162.6850  208.0360  150.1750 C   0  0  0  0  0  2  0  0  0  0  0  0
  160.5890  210.5100  152.5300 C   0  0  0  0  0  3  0  0  0  0  0  0
  162.0580  206.9100  151.0030 C   0  0  2  0  0  3  0  0  0  0  0  0
  160.6580  212.7170  149.3580 C   0  0  0  0  0  0  0  0  0  0  0  0
  160.0560  214.4330  147.7110 C   0  0  0  0  0  2  0  0  0  0  0  0
  161.9620  210.3250  150.5650 N   0  0  0  0  0  0  0  0  0  0  0  0
  160.6160  206.6450  150.5610 C   0  0  2  0  0  3  0  0  0  0  0  0
  160.1880  205.3950  151.0150 O   0  0  0  0  0  1  0  0  0  0  0  0
  160.4350  206.7480  149.0450 C   0  0  0  0  0  2  0  0  0  0  0  0
  161.4850  205.9630  148.2680 C   0  0  2  0  0  3  0  0  0  0  0  0
  161.6380  206.5090  146.8740 C   0  0  0  0  0  3  0  0  0  0  0  0
  162.3150  205.7960  145.9700 C   0  0  0  0  0  3  0  0  0  0  0  0
  161.0930  204.4810  148.2180 C   0  0  0  0  0  2  0  0  0  0  0  0
  161.8890  203.6560  147.1830 C   0  0  0  0  0  2  0  0  0  0  0  0
  162.9050  204.4750  146.3740 C   0  0  0  0  0  2  0  0  0  0  0  0
  160.5580  208.8690  154.3330 C   0  0  0  0  0  2  0  0  0  0  0  0
  159.6950  210.1730  156.3090 C   0  0  0  0  0  0  0  0  0  0  0  0
  160.5330  209.6280  157.0750 O   0  0  0  0  0  0  0  0  0  0  0  0
  159.6570  209.8470  154.9220 N   0  0  0  0  0  2  0  0  0  0  0  0
  158.0130  211.9020  157.2610 N   0  0  0  0  0  0  0  0  0  0  0  0
  158.7650  211.1300  156.8370 C   0  0  0  0  0  0  0  0  0  0  0  0
  1  2  1  0  0  0  0
  1  9  1  0  0  0  0
  3  8  1  0  0  0  0
  3  5  1  0  0  0  0
  4 11  1  6  0  0  0
  4  1  1  0  0  0  0
  5 14  1  0  0  0  0
  6  7  1  0  0  0  0
  7 12  1  0  0  0  0
  8 15  1  0  0  0  0
  9 26  1  0  0  0  0
 10 14  2  0  0  0  0
 11 13  1  0  0  0  0
 12  9  2  0  0  0  0
 13 17  1  6  0  0  0
 13  2  1  0  0  0  0
 14  6  1  0  0  0  0
 15 10  1  0  0  0  0
 16  4  1  0  0  0  0
 16  7  2  0  0  0  0
 17 18  1  6  0  0  0
 19 17  1  0  0  0  0
 20 19  1  6  0  0  0
 21 20  1  0  0  0  0
 22 25  1  0  0  0  0
 22 21  2  0  0  0  0
 23 20  1  0  0  0  0
 24 23  1  0  0  0  0
 25 24  1  0  0  0  0
 26 29  1  0  0  0  0
 27 31  1  0  0  0  0
 27 28  2  0  0  0  0
 29 27  1  0  0  0  0
 31 30  3  0  0  0  0
M  END
>  <MODEL>
5

>  <REMARK>
 VINA RESULT:      -6.5      2.852      4.699
  Name = 
  6 active torsions:
  status: ('A' for Active; 'I' for Inactive)
    1  A    between atoms: C_2  and  C_15
    2  A    between atoms: C_2  and  N_28
    3  A    between atoms: C_3  and  C_26
    4  A    between atoms: C_5  and  C_16
    5  A    between atoms: C_5  and  C_23
    6  A    between atoms: C_8  and  C_16
                            x       y       z     vdW  Elec       q    Type
                         _______ _______ _______ _____ _____    ______ ____

>  <TORSDO>
F 6

$$$$
=
 OpenBabel11042420303D

 31 34  0  0  1  0  0  0  0  0999 V2000
  161.9870  210.6970  152.5300 N   0  0  0  0  0  0  0  0  0  0  0  0
  162.6030  209.4920  152.6020 O   0  0  0  0  0  0  0  0  0  0  0  0
  157.7850  213.2790  148.0230 C   0  0  0  0  0  2  0  0  0  0  0  0
  161.7420  211.1420  151.1700 C   0  0  1  0  0  3  0  0  0  0  0  0
  158.6400  213.0960  149.2720 C   0  0  0  0  0  2  0  0  0  0  0  0
  158.4190  212.7900  151.8070 N   0  0  0  0  0  2  0  0  0  0  0  0
  159.6880  212.1580  152.0230 C   0  0  0  0  0  0  0  0  0  0  0  0
  156.8440  214.4530  148.2200 C   0  0  0  0  0  2  0  0  0  0  0  0
  161.2160  211.1890  153.6340 C   0  0  0  0  0  0  0  0  0  0  0  0
  156.6470  213.6990  150.5630 N   0  0  0  0  0  0  0  0  0  0  0  0
  161.8040  209.8620  150.3900 C   0  0  0  0  0  2  0  0  0  0  0  0
  160.1110  211.8920  153.4040 C   0  0  0  0  0  3  0  0  0  0  0  0
  162.1520  208.8130  151.4510 C   0  0  2  0  0  3  0  0  0  0  0  0
  157.8360  213.1670  150.5510 C   0  0  0  0  0  0  0  0  0  0  0  0
  155.9060  214.1140  149.3690 C   0  0  0  0  0  2  0  0  0  0  0  0
  160.4200  211.7590  151.0230 N   0  0  0  0  0  0  0  0  0  0  0  0
  160.9320  207.9510  151.7870 C   0  0  2  0  0  3  0  0  0  0  0  0
  160.0740  208.6340  152.6530 O   0  0  0  0  0  1  0  0  0  0  0  0
  161.3140  206.5940  152.3830 C   0  0  0  0  0  2  0  0  0  0  0  0
  161.4860  205.5100  151.3260 C   0  0  2  0  0  3  0  0  0  0  0  0
  160.7910  205.8940  150.0480 C   0  0  0  0  0  3  0  0  0  0  0  0
  160.6120  204.9660  149.1040 C   0  0  0  0  0  3  0  0  0  0  0  0
  160.9320  204.1800  151.8520 C   0  0  0  0  0  2  0  0  0  0  0  0
  160.7410  203.1030  150.7610 C   0  0  0  0  0  2  0  0  0  0  0  0
  161.1120  203.5710  149.3460 C   0  0  0  0  0  2  0  0  0  0  0  0
  161.5770  210.8200  155.0310 C   0  0  0  0  0  2  0  0  0  0  0  0
  161.2640  208.7560  156.4430 C   0  0  0  0  0  0  0  0  0  0  0  0
  162.3710  208.9390  157.0140 O   0  0  0  0  0  0  0  0  0  0  0  0
  160.7980  209.6640  155.4470 N   0  0  0  0  0  2  0  0  0  0  0  0
  159.8130  206.7030  157.0810 N   0  0  0  0  0  0  0  0  0  0  0  0
  160.4600  207.6200  156.7960 C   0  0  0  0  0  0  0  0  0  0  0  0
  1  2  1  0  0  0  0
  1  9  1  0  0  0  0
  3  8  1  0  0  0  0
  3  5  1  0  0  0  0
  4 11  1  6  0  0  0
  4  1  1  0  0  0  0
  5 14  1  0  0  0  0
  6  7  1  0  0  0  0
  7 12  1  0  0  0  0
  8 15  1  0  0  0  0
  9 26  1  0  0  0  0
 11 13  1  0  0  0  0
 12  9  2  0  0  0  0
 13 17  1  1  0  0  0
 13  2  1  0  0  0  0
 14 10  2  0  0  0  0
 14  6  1  0  0  0  0
 15 10  1  0  0  0  0
 16  4  1  0  0  0  0
 16  7  2  0  0  0  0
 17 19  1  0  0  0  0
 17 18  1  1  0  0  0
 20 23  1  0  0  0  0
 20 19  1  1  0  0  0
 21 20  1  0  0  0  0
 22 25  1  0  0  0  0
 22 21  2  0  0  0  0
 24 23  1  0  0  0  0
 25 24  1  0  0  0  0
 26 29  1  0  0  0  0
 27 31  1  0  0  0  0
 27 28  2  0  0  0  0
 29 27  1  0  0  0  0
 31 30  3  0  0  0  0
M  END
>  <MODEL>
6

>  <REMARK>
 VINA RESULT:      -6.4      3.209      4.689
  Name = 
  6 active torsions:
  status: ('A' for Active; 'I' for Inactive)
    1  A    between atoms: C_2  and  C_15
    2  A    between atoms: C_2  and  N_28
    3  A    between atoms: C_3  and  C_26
    4  A    between atoms: C_5  and  C_16
    5  A    between atoms: C_5  and  C_23
    6  A    between atoms: C_8  and  C_16
                            x       y       z     vdW  Elec       q    Type
                         _______ _______ _______ _____ _____    ______ ____

>  <TORSDO>
F 6

$$$$
=
 OpenBabel11042420303D

 31 34  0  0  1  0  0  0  0  0999 V2000
  162.3310  207.8440  151.7470 N   0  0  0  0  0  0  0  0  0  0  0  0
  162.2990  207.4090  153.0310 O   0  0  0  0  0  0  0  0  0  0  0  0
  162.6060  204.5450  145.9430 C   0  0  0  0  0  2  0  0  0  0  0  0
  163.0550  206.9580  150.8530 C   0  0  1  0  0  3  0  0  0  0  0  0
  162.4990  205.6660  146.9720 C   0  0  0  0  0  2  0  0  0  0  0  0
  160.8380  207.4110  147.8460 N   0  0  0  0  0  2  0  0  0  0  0  0
  161.4330  207.5950  149.1370 C   0  0  0  0  0  0  0  0  0  0  0  0
  162.2360  205.0790  144.5720 C   0  0  0  0  0  2  0  0  0  0  0  0
  161.3370  208.7560  151.2610 C   0  0  0  0  0  0  0  0  0  0  0  0
  160.5300  206.4340  145.7330 N   0  0  0  0  0  0  0  0  0  0  0  0
  163.0430  205.6570  151.6000 C   0  0  0  0  0  2  0  0  0  0  0  0
  160.8990  208.6470  150.0110 C   0  0  0  0  0  3  0  0  0  0  0  0
  162.3310  206.0040  152.9120 C   0  0  2  0  0  3  0  0  0  0  0  0
  161.2270  206.4720  146.8330 C   0  0  0  0  0  0  0  0  0  0  0  0
  160.7800  205.5180  144.6170 C   0  0  0  0  0  2  0  0  0  0  0  0
  162.3760  206.8050  149.5620 N   0  0  0  0  0  0  0  0  0  0  0  0
  160.9090  205.4370  152.9280 C   0  0  2  0  0  3  0  0  0  0  0  0
  160.2380  205.8330  154.0880 O   0  0  0  0  0  1  0  0  0  0  0  0
  160.8800  203.9130  152.7940 C   0  0  0  0  0  2  0  0  0  0  0  0
  161.2490  203.4340  151.3950 C   0  0  2  0  0  3  0  0  0  0  0  0
  160.4590  204.1740  150.3500 C   0  0  0  0  0  3  0  0  0  0  0  0
  160.4550  203.7160  149.0950 C   0  0  0  0  0  3  0  0  0  0  0  0
  160.9970  201.9250  151.2800 C   0  0  0  0  0  2  0  0  0  0  0  0
  161.0090  201.3950  149.8290 C   0  0  0  0  0  2  0  0  0  0  0  0
  161.2410  202.4790  148.7660 C   0  0  0  0  0  2  0  0  0  0  0  0
  160.7080  209.7460  152.1790 C   0  0  0  0  0  2  0  0  0  0  0  0
  161.3400  210.2620  154.5630 C   0  0  0  0  0  0  0  0  0  0  0  0
  160.1840  209.9680  154.9670 O   0  0  0  0  0  0  0  0  0  0  0  0
  161.6750  210.1640  153.1810 N   0  0  0  0  0  2  0  0  0  0  0  0
  163.1310  211.0590  156.2600 N   0  0  0  0  0  0  0  0  0  0  0  0
  162.3320  210.7020  155.5030 C   0  0  0  0  0  0  0  0  0  0  0  0
  1  2  1  0  0  0  0
  3  5  1  0  0  0  0
  4 11  1  1  0  0  0
  4  1  1  0  0  0  0
  6  7  1  0  0  0  0
  7 16  2  0  0  0  0
  7 12  1  0  0  0  0
  8 15  1  0  0  0  0
  8  3  1  0  0  0  0
  9  1  1  0  0  0  0
  9 26  1  0  0  0  0
 10 14  2  0  0  0  0
 11 13  1  0  0  0  0
 12  9  2  0  0  0  0
 13 17  1  6  0  0  0
 13  2  1  0  0  0  0
 14  5  1  0  0  0  0
 14  6  1  0  0  0  0
 15 10  1  0  0  0  0
 16  4  1  0  0  0  0
 17 18  1  1  0  0  0
 19 17  1  0  0  0  0
 20 19  1  1  0  0  0
 21 20  1  0  0  0  0
 22 21  2  0  0  0  0
 23 20  1  0  0  0  0
 24 23  1  0  0  0  0
 25 22  1  0  0  0  0
 25 24  1  0  0  0  0
 26 29  1  0  0  0  0
 27 28  2  0  0  0  0
 27 31  1  0  0  0  0
 29 27  1  0  0  0  0
 31 30  3  0  0  0  0
M  END
>  <MODEL>
7

>  <REMARK>
 VINA RESULT:      -6.3      2.509      6.813
  Name = 
  6 active torsions:
  status: ('A' for Active; 'I' for Inactive)
    1  A    between atoms: C_2  and  C_15
    2  A    between atoms: C_2  and  N_28
    3  A    between atoms: C_3  and  C_26
    4  A    between atoms: C_5  and  C_16
    5  A    between atoms: C_5  and  C_23
    6  A    between atoms: C_8  and  C_16
                            x       y       z     vdW  Elec       q    Type
                         _______ _______ _______ _____ _____    ______ ____

>  <TORSDO>
F 6

$$$$
=
 OpenBabel11042420303D

 31 34  0  0  1  0  0  0  0  0999 V2000
  162.3190  207.9020  151.8090 N   0  0  0  0  0  0  0  0  0  0  0  0
  162.2950  207.4510  153.0880 O   0  0  0  0  0  0  0  0  0  0  0  0
  162.6390  204.6780  145.9660 C   0  0  0  0  0  2  0  0  0  0  0  0
  163.0550  207.0370  150.9050 C   0  0  1  0  0  3  0  0  0  0  0  0
  162.5160  205.7840  147.0080 C   0  0  0  0  0  2  0  0  0  0  0  0
  160.8310  207.4940  147.9040 N   0  0  0  0  0  2  0  0  0  0  0  0
  161.4240  207.6710  149.1970 C   0  0  0  0  0  0  0  0  0  0  0  0
  162.2610  205.2230  144.6010 C   0  0  0  0  0  2  0  0  0  0  0  0
  161.3120  208.8050  151.3350 C   0  0  0  0  0  0  0  0  0  0  0  0
  160.5350  206.5390  145.7790 N   0  0  0  0  0  0  0  0  0  0  0  0
  163.0630  205.7280  151.6360 C   0  0  0  0  0  2  0  0  0  0  0  0
  160.8750  208.7050  150.0830 C   0  0  0  0  0  3  0  0  0  0  0  0
  162.3470  206.0480  152.9520 C   0  0  2  0  0  3  0  0  0  0  0  0
  161.2330  206.5730  146.8790 C   0  0  0  0  0  0  0  0  0  0  0  0
  160.7980  205.6400  144.6520 C   0  0  0  0  0  2  0  0  0  0  0  0
  162.3790  206.8900  149.6120 N   0  0  0  0  0  0  0  0  0  0  0  0
  160.9330  205.4610  152.9610 C   0  0  2  0  0  3  0  0  0  0  0  0
  160.2580  205.8290  154.1280 O   0  0  0  0  0  1  0  0  0  0  0  0
  160.9260  203.9380  152.8050 C   0  0  0  0  0  2  0  0  0  0  0  0
  161.2860  203.4860  151.3940 C   0  0  2  0  0  3  0  0  0  0  0  0
  160.4680  204.2240  150.3710 C   0  0  0  0  0  3  0  0  0  0  0  0
  160.4560  203.7840  149.1100 C   0  0  0  0  0  3  0  0  0  0  0  0
  161.0630  201.9740  151.2620 C   0  0  0  0  0  2  0  0  0  0  0  0
  161.0670  201.4640  149.8030 C   0  0  0  0  0  2  0  0  0  0  0  0
  161.2620  202.5680  148.7530 C   0  0  0  0  0  2  0  0  0  0  0  0
  160.6690  209.7750  152.2650 C   0  0  0  0  0  2  0  0  0  0  0  0
  159.6860  212.0820  152.0110 C   0  0  0  0  0  0  0  0  0  0  0  0
  158.8140  211.8420  152.8880 O   0  0  0  0  0  0  0  0  0  0  0  0
  160.6530  211.0960  151.6560 N   0  0  0  0  0  2  0  0  0  0  0  0
  159.7230  214.3910  150.8320 N   0  0  0  0  0  0  0  0  0  0  0  0
  159.7070  213.3600  151.3590 C   0  0  0  0  0  0  0  0  0  0  0  0
  1  2  1  0  0  0  0
  3  5  1  0  0  0  0
  4 11  1  1  0  0  0
  4  1  1  0  0  0  0
  6  7  1  0  0  0  0
  7 16  2  0  0  0  0
  7 12  1  0  0  0  0
  8 15  1  0  0  0  0
  8  3  1  0  0  0  0
  9  1  1  0  0  0  0
  9 26  1  0  0  0  0
 10 14  2  0  0  0  0
 11 13  1  0  0  0  0
 12  9  2  0  0  0  0
 13 17  1  6  0  0  0
 13  2  1  0  0  0  0
 14  5  1  0  0  0  0
 14  6  1  0  0  0  0
 15 10  1  0  0  0  0
 16  4  1  0  0  0  0
 17 18  1  1  0  0  0
 19 17  1  0  0  0  0
 20 19  1  1  0  0  0
 21 20  1  0  0  0  0
 22 21  2  0  0  0  0
 23 20  1  0  0  0  0
 24 23  1  0  0  0  0
 25 22  1  0  0  0  0
 25 24  1  0  0  0  0
 27 28  2  0  0  0  0
 29 27  1  0  0  0  0
 29 26  1  0  0  0  0
 30 31  3  0  0  0  0
 31 27  1  0  0  0  0
M  END
>  <MODEL>
8

>  <REMARK>
 VINA RESULT:      -6.1      2.272      7.007
  Name = 
  6 active torsions:
  status: ('A' for Active; 'I' for Inactive)
    1  A    between atoms: C_2  and  C_15
    2  A    between atoms: C_2  and  N_28
    3  A    between atoms: C_3  and  C_26
    4  A    between atoms: C_5  and  C_16
    5  A    between atoms: C_5  and  C_23
    6  A    between atoms: C_8  and  C_16
                            x       y       z     vdW  Elec       q    Type
                         _______ _______ _______ _____ _____    ______ ____

>  <TORSDO>
F 6

$$$$
=
 OpenBabel11042420303D

 31 34  0  0  1  0  0  0  0  0999 V2000
  162.3220  209.6660  152.4270 N   0  0  0  0  0  0  0  0  0  0  0  0
  161.8450  210.6540  153.2240 O   0  0  0  0  0  0  0  0  0  0  0  0
  160.8220  203.1690  152.0190 C   0  0  0  0  0  2  0  0  0  0  0  0
  162.2940  208.3550  153.0500 C   0  0  1  0  0  3  0  0  0  0  0  0
  161.4290  204.5380  151.7350 C   0  0  0  0  0  2  0  0  0  0  0  0
  161.4230  206.3880  149.9620 N   0  0  0  0  0  2  0  0  0  0  0  0
  161.8190  207.4640  150.8230 C   0  0  0  0  0  0  0  0  0  0  0  0
  161.1020  202.2390  150.8530 C   0  0  0  0  0  2  0  0  0  0  0  0
  162.3380  209.8230  151.0020 C   0  0  0  0  0  0  0  0  0  0  0  0
  160.7530  204.2080  149.4040 N   0  0  0  0  0  0  0  0  0  0  0  0
  161.2750  208.5300  154.1370 C   0  0  0  0  0  2  0  0  0  0  0  0
  162.1000  208.7740  150.2220 C   0  0  0  0  0  3  0  0  0  0  0  0
  160.8800  210.0060  154.0230 C   0  0  2  0  0  3  0  0  0  0  0  0
  161.1380  205.0320  150.3360 C   0  0  0  0  0  0  0  0  0  0  0  0
  160.4000  202.8030  149.6260 C   0  0  0  0  0  2  0  0  0  0  0  0
  161.8610  207.3110  152.1150 N   0  0  0  0  0  0  0  0  0  0  0  0
  159.4890  210.1530  153.4000 C   0  0  2  0  0  3  0  0  0  0  0  0
  159.5510  209.9670  152.0160 O   0  0  0  0  0  1  0  0  0  0  0  0
  158.8360  211.4980  153.7240 C   0  0  0  0  0  2  0  0  0  0  0  0
  158.4920  212.3060  152.4770 C   0  0  2  0  0  3  0  0  0  0  0  0
  159.7060  213.0240  151.9540 C   0  0  0  0  0  3  0  0  0  0  0  0
  159.5470  213.9770  151.0320 C   0  0  0  0  0  3  0  0  0  0  0  0
  157.3790  213.3110  152.8010 C   0  0  0  0  0  2  0  0  0  0  0  0
  157.1870  214.4020  151.7250 C   0  0  0  0  0  2  0  0  0  0  0  0
  158.1640  214.2990  150.5440 C   0  0  0  0  0  2  0  0  0  0  0  0
  162.5040  211.1720  150.3930 C   0  0  0  0  0  2  0  0  0  0  0  0
  161.8660  212.0430  148.1160 C   0  0  0  0  0  0  0  0  0  0  0  0
  163.0150  212.5290  147.9440 O   0  0  0  0  0  0  0  0  0  0  0  0
  161.5430  211.3420  149.3150 N   0  0  0  0  0  2  0  0  0  0  0  0
  160.0620  212.3200  146.2740 N   0  0  0  0  0  0  0  0  0  0  0  0
  160.8680  212.1970  147.0960 C   0  0  0  0  0  0  0  0  0  0  0  0
  1  4  1  0  0  0  0
  1  2  1  0  0  0  0
  2 13  1  0  0  0  0
  4 11  1  1  0  0  0
  5  3  1  0  0  0  0
  6 14  1  0  0  0  0
  6  7  1  0  0  0  0
  7 16  2  0  0  0  0
  8  3  1  0  0  0  0
  9  1  1  0  0  0  0
 10 15  1  0  0  0  0
 10 14  2  0  0  0  0
 12  7  1  0  0  0  0
 12  9  2  0  0  0  0
 13 17  1  6  0  0  0
 13 11  1  0  0  0  0
 14  5  1  0  0  0  0
 15  8  1  0  0  0  0
 16  4  1  0  0  0  0
 17 18  1  6  0  0  0
 17 19  1  0  0  0  0
 20 23  1  0  0  0  0
 20 19  1  1  0  0  0
 21 20  1  0  0  0  0
 22 21  2  0  0  0  0
 24 23  1  0  0  0  0
 25 22  1  0  0  0  0
 25 24  1  0  0  0  0
 26  9  1  0  0  0  0
 27 29  1  0  0  0  0
 28 27  2  0  0  0  0
 29 26  1  0  0  0  0
 30 31  3  0  0  0  0
 31 27  1  0  0  0  0
M  END
>  <MODEL>
9

>  <REMARK>
 VINA RESULT:      -5.5      3.122      8.221
  Name = 
  6 active torsions:
  status: ('A' for Active; 'I' for Inactive)
    1  A    between atoms: C_2  and  C_15
    2  A    between atoms: C_2  and  N_28
    3  A    between atoms: C_3  and  C_26
    4  A    between atoms: C_5  and  C_16
    5  A    between atoms: C_5  and  C_23
    6  A    between atoms: C_8  and  C_16
                            x       y       z     vdW  Elec       q    Type
                         _______ _______ _______ _____ _____    ______ ____

>  <TORSDO>
F 6

$$$$
