=
 OpenBabel11042423003D

 65 71  0  0  1  0  0  0  0  0999 V2000
  161.5620  213.7170  149.6520 S   0  0  0  0  0  0  0  0  0  0  0  0
  162.4290  206.5630  147.6920 N   0  0  0  0  0  0  0  0  0  0  0  0
  161.4940  209.5890  151.5660 O   0  0  0  0  0  0  0  0  0  0  0  0
  162.1350  208.6450  148.8820 C   0  0  0  0  0  0  0  0  0  0  0  0
  160.4340  204.2860  149.5950 C   0  0  0  0  0  0  0  0  0  0  0  0
  160.4590  202.9590  149.7670 N   0  0  0  0  0  0  0  0  0  0  0  0
  160.5810  208.7410  150.9300 C   0  0  0  0  0  2  0  0  0  0  0  0
  162.6140  210.0590  149.0440 C   0  0  0  0  0  2  0  0  0  0  0  0
  161.2460  208.0160  149.7970 C   0  0  0  0  0  0  0  0  0  0  0  0
  160.7500  210.5390  152.1920 N   0  0  2  0  0  0  0  0  0  0  0  0
  161.4650  211.0500  149.0630 C   0  0  2  0  0  3  0  0  0  0  0  0
  160.9690  206.6610  149.5970 C   0  0  0  0  0  0  0  0  0  0  0  0
  161.2480  202.5350  148.7740 N   0  0  0  0  0  0  0  0  0  0  0  0
  160.7930  213.1650  148.1110 C   0  0  2  0  0  3  0  0  0  0  0  0
  160.4640  211.6700  151.2700 C   0  0  2  0  0  3  0  0  0  0  0  0
  162.7180  207.8860  147.8470 C   0  0  0  0  0  3  0  0  0  0  0  0
  161.4480  211.8540  147.7790 C   0  0  0  0  0  2  0  0  0  0  0  0
  160.0700  205.5900  150.5990 S   0  0  0  0  0  0  0  0  0  0  0  0
  161.2260  204.6270  148.5780 C   0  0  0  0  0  0  0  0  0  0  0  0
  161.5600  205.9670  148.5390 C   0  0  0  0  0  0  0  0  0  0  0  0
  161.7690  203.5270  148.0440 N   0  0  0  0  0  0  0  0  0  0  0  0
  161.5980  211.9880  150.2660 C   0  0  2  0  0  3  0  0  0  0  0  0
  161.5400  210.9850  153.3380 C   0  0  2  0  0  3  0  0  0  0  0  0
  161.0700  210.3050  154.5700 C   0  0  2  0  0  3  0  0  0  0  0  0
  160.6900  211.6230  154.2620 O   0  0  0  0  0  0  0  0  0  0  0  0
  162.1290  210.3440  155.6550 C   0  0  2  0  0  3  0  0  0  0  0  0
  163.4900  210.6080  155.0410 C   0  0  0  0  0  1  0  0  0  0  0  0
  162.1510  208.9980  156.3690 C   0  0  0  0  0  2  0  0  0  0  0  0
  161.2740  207.9520  155.6810 C   0  0  1  0  0  3  0  0  0  0  0  0
  159.9250  208.3240  155.7390 O   0  0  0  0  0  0  0  0  0  0  0  0
  159.3820  207.5410  156.7670 C   0  0  0  0  0  1  0  0  0  0  0  0
  161.7060  207.7420  154.2370 C   0  0  0  0  0  2  0  0  0  0  0  0
  161.1980  206.4070  153.7350 C   0  0  0  0  0  2  0  0  0  0  0  0
  162.3070  205.6420  153.1910 N   0  0  0  0  0  1  0  0  0  0  0  0
  159.9100  212.8870  152.0190 C   0  0  0  0  0  2  0  0  0  0  0  0
  158.6990  212.5730  152.6420 O   0  0  0  0  0  0  0  0  0  0  0  0
  156.5920  213.8930  151.9000 O   0  0  0  0  0  1  0  0  0  0  0  0
  157.1070  213.5000  154.2260 C   0  0  1  0  0  0  0  0  0  0  0  0
  157.1820  214.4530  153.0380 C   0  0  1  0  0  3  0  0  0  0  0  0
  156.3640  212.1750  154.0560 C   0  0  0  0  0  1  0  0  0  0  0  0
  158.4290  213.6640  153.4840 C   0  0  2  0  0  3  0  0  0  0  0  0
  157.0980  214.1640  155.5970 C   0  0  0  0  0  2  0  0  0  0  0  0
  157.3380  213.1590  156.7200 C   0  0  0  0  0  2  0  0  0  0  0  0
  158.8820  211.3430  156.7750 F   0  0  0  0  0  0  0  0  0  0  0  0
  158.7950  212.7250  156.7800 C   0  0  0  0  0  2  0  0  0  0  0  0
  161.0240  214.0900  147.0910 O   0  0  0  0  0  0  0  0  0  0  0  0
  161.0490  213.3240  145.9240 C   0  0  0  0  0  2  0  0  0  0  0  0
  163.3990  213.0780  145.5940 O   0  0  0  0  0  1  0  0  0  0  0  0
  162.2600  213.6860  145.0700 C   0  0  1  0  0  3  0  0  0  0  0  0
  162.8270  214.2070  142.7820 O   0  0  0  0  0  1  0  0  0  0  0  0
  162.1070  213.3200  143.5900 C   0  0  2  0  0  3  0  0  0  0  0  0
  160.0210  214.4530  143.1370 O   0  0  0  0  0  1  0  0  0  0  0  0
  160.6490  213.2010  143.1320 C   0  0  1  0  0  3  0  0  0  0  0  0
  160.5760  212.4960  141.4580 P   0  0  0  0  0  0  0  0  0  0  0  0
  160.5610  213.7410  140.3110 O   0  0  0  0  0  0  0  0  0  0  0  0
  161.9260  211.5090  141.2020 O   0  0  0  0  0  1  0  0  0  0  0  0
  159.3160  211.6720  141.3120 O   0  0  0  0  0  1  0  0  0  0  0  0
  161.6020  201.1330  148.5930 C   0  0  2  0  0  3  0  0  0  0  0  0
  160.9310  200.6020  147.4120 N   0  0  0  0  0  2  0  0  0  0  0  0
  160.8760  201.3130  146.1750 C   0  0  0  0  0  0  0  0  0  0  0  0
  161.4890  202.4050  146.0350 O   0  0  0  0  0  0  0  0  0  0  0  0
  159.0780  201.7590  144.5570 C   0  0  0  0  0  1  0  0  0  0  0  0
  160.1010  200.7500  145.0360 C   0  0  0  0  0  2  0  0  0  0  0  0
  161.3750  201.1800  151.0750 C   0  0  0  0  0  1  0  0  0  0  0  0
  161.2120  200.3370  149.8270 C   0  0  0  0  0  2  0  0  0  0  0  0
  2 16  2  0  0  0  0
  2 20  1  0  0  0  0
  4  8  1  0  0  0  0
  4  9  2  0  0  0  0
  5  6  2  0  0  0  0
  5 18  1  0  0  0  0
  7  3  1  0  0  0  0
  8 11  1  0  0  0  0
  9  7  1  0  0  0  0
 10  3  1  6  0  0  0
 10 23  1  0  0  0  0
 11 17  1  6  0  0  0
 11 22  1  0  0  0  0
 12  9  1  0  0  0  0
 12 18  1  0  0  0  0
 13  6  1  0  0  0  0
 14 46  1  6  0  0  0
 14  1  1  0  0  0  0
 15 35  1  1  0  0  0
 15 10  1  0  0  0  0
 16  4  1  0  0  0  0
 17 14  1  0  0  0  0
 19  5  1  0  0  0  0
 20 19  1  0  0  0  0
 20 12  2  0  0  0  0
 21 19  2  0  0  0  0
 21 13  1  0  0  0  0
 22  1  1  6  0  0  0
 22 15  1  0  0  0  0
 23 25  1  1  0  0  0
 23 24  1  0  0  0  0
 24 26  1  1  0  0  0
 25 24  1  0  0  0  0
 26 27  1  6  0  0  0
 26 28  1  0  0  0  0
 29 32  1  6  0  0  0
 29 30  1  0  0  0  0
 29 28  1  0  0  0  0
 30 31  1  0  0  0  0
 33 32  1  0  0  0  0
 34 33  1  0  0  0  0
 35 36  1  0  0  0  0
 38 40  1  6  0  0  0
 38 42  1  0  0  0  0
 39 37  1  6  0  0  0
 39 41  1  0  0  0  0
 39 38  1  0  0  0  0
 41 36  1  6  0  0  0
 41 38  1  0  0  0  0
 42 43  1  0  0  0  0
 43 45  1  0  0  0  0
 44 45  1  0  0  0  0
 47 46  1  0  0  0  0
 49 48  1  1  0  0  0
 49 47  1  0  0  0  0
 51 50  1  6  0  0  0
 51 49  1  0  0  0  0
 53 52  1  6  0  0  0
 53 51  1  0  0  0  0
 54 53  1  0  0  0  0
 55 54  2  0  0  0  0
 56 54  1  0  0  0  0
 57 54  1  0  0  0  0
 58 13  1  0  0  0  0
 58 65  1  1  0  0  0
 59 58  1  0  0  0  0
 60 59  1  0  0  0  0
 61 60  2  0  0  0  0
 62 63  1  0  0  0  0
 63 60  1  0  0  0  0
 65 64  1  0  0  0  0
M  END
>  <MODEL>
1

>  <REMARK>
 VINA RESULT:      -2.6      0.000      0.000
  Name = 
  23 active torsions:
  status: ('A' for Active; 'I' for Inactive)
    1  A    between atoms: C_1  and  C_58
    2  A    between atoms: C_4  and  C_5
    3  A    between atoms: C_4  and  C_41
    4  A    between atoms: C_5  and  C_32
    5  A    between atoms: C_8  and  O_10
    6  A    between atoms: C_8  and  C_45
    7  A    between atoms: O_10  and  C_65
    8  A    between atoms: P_11  and  C_55
    9  A    between atoms: C_13  and  C_60
   10  A    between atoms: N_15  and  C_44
   11  A    between atoms: C_17  and  N_36
   12  A    between atoms: O_19  and  C_41
   13  A    between atoms: C_22  and  O_24
   14  A    between atoms: C_22  and  C_54
   15  A    between atoms: O_24  and  C_43
   16  A    between atoms: C_27  and  C_52
   17  A    between atoms: C_29  and  C_54
   18  A    between atoms: C_29  and  C_55
   19  A    between atoms: C_37  and  C_51
   20  A    between atoms: C_37  and  C_60
   21  A    between atoms: C_41  and  C_58
   22  A    between atoms: N_42  and  C_44
   23  A    between atoms: C_44  and  C_49
                            x       y       z     vdW  Elec       q    Type
                         _______ _______ _______ _____ _____    ______ ____

>  <TORSDO>
F 23

$$$$
=
 OpenBabel11042423003D

 65 71  0  0  1  0  0  0  0  0999 V2000
  161.7160  212.9490  150.6540 S   0  0  0  0  0  0  0  0  0  0  0  0
  162.6340  206.1710  147.6560 N   0  0  0  0  0  0  0  0  0  0  0  0
  161.5170  208.5770  151.9000 O   0  0  0  0  0  0  0  0  0  0  0  0
  162.2920  208.0490  149.1380 C   0  0  0  0  0  0  0  0  0  0  0  0
  160.5260  203.6580  149.0800 C   0  0  0  0  0  0  0  0  0  0  0  0
  160.5320  202.3210  149.0460 N   0  0  0  0  0  0  0  0  0  0  0  0
  160.6330  207.8510  151.0950 C   0  0  0  0  0  2  0  0  0  0  0  0
  162.7720  209.4130  149.5410 C   0  0  0  0  0  2  0  0  0  0  0  0
  161.3520  207.2990  149.8990 C   0  0  0  0  0  0  0  0  0  0  0  0
  160.7480  209.4300  152.6270 N   0  0  2  0  0  0  0  0  0  0  0  0
  161.6310  210.4070  149.6560 C   0  0  2  0  0  3  0  0  0  0  0  0
  161.0760  205.9960  149.4770 C   0  0  0  0  0  0  0  0  0  0  0  0
  161.3690  202.0430  148.0410 N   0  0  0  0  0  0  0  0  0  0  0  0
  161.0250  212.6540  149.0090 C   0  0  2  0  0  3  0  0  0  0  0  0
  160.5190  210.6940  151.8770 C   0  0  2  0  0  3  0  0  0  0  0  0
  162.9240  207.4500  148.0290 C   0  0  0  0  0  3  0  0  0  0  0  0
  161.6870  211.4000  148.5120 C   0  0  0  0  0  2  0  0  0  0  0  0
  160.1180  204.7970  150.2540 S   0  0  0  0  0  0  0  0  0  0  0  0
  161.3720  204.1400  148.1700 C   0  0  0  0  0  0  0  0  0  0  0  0
  161.7170  205.4640  148.3560 C   0  0  0  0  0  0  0  0  0  0  0  0
  161.9350  203.1280  147.5000 N   0  0  0  0  0  0  0  0  0  0  0  0
  161.7070  211.1460  150.9940 C   0  0  2  0  0  3  0  0  0  0  0  0
  161.4810  209.6820  153.8670 C   0  0  2  0  0  3  0  0  0  0  0  0
  160.8180  208.9810  154.9940 C   0  0  2  0  0  3  0  0  0  0  0  0
  160.6360  210.3570  154.7700 O   0  0  0  0  0  0  0  0  0  0  0  0
  161.7710  208.8000  156.1610 C   0  0  2  0  0  3  0  0  0  0  0  0
  161.5170  207.4660  156.8350 C   0  0  0  0  0  1  0  0  0  0  0  0
  161.5380  209.9250  157.1630 C   0  0  0  0  0  2  0  0  0  0  0  0
  162.6490  210.9740  157.1390 C   0  0  1  0  0  3  0  0  0  0  0  0
  163.4140  210.8560  155.9730 O   0  0  0  0  0  0  0  0  0  0  0  0
  164.7270  211.1370  156.3760 C   0  0  0  0  0  1  0  0  0  0  0  0
  162.0760  212.3790  157.2610 C   0  0  0  0  0  2  0  0  0  0  0  0
  160.5900  212.3560  156.9730 C   0  0  0  0  0  2  0  0  0  0  0  0
  160.1850  213.6390  156.4240 N   0  0  0  0  0  1  0  0  0  0  0  0
  159.9350  211.7900  152.7770 C   0  0  0  0  0  2  0  0  0  0  0  0
  158.7720  212.3210  152.2140 O   0  0  0  0  0  0  0  0  0  0  0  0
  156.6380  213.5470  151.3940 O   0  0  0  0  0  1  0  0  0  0  0  0
  157.1650  213.3170  153.7390 C   0  0  1  0  0  0  0  0  0  0  0  0
  157.2180  214.1920  152.4920 C   0  0  1  0  0  3  0  0  0  0  0  0
  156.4480  211.9690  153.6580 C   0  0  0  0  0  1  0  0  0  0  0  0
  158.4820  213.4590  152.9840 C   0  0  2  0  0  3  0  0  0  0  0  0
  157.1440  214.0680  155.0650 C   0  0  0  0  0  2  0  0  0  0  0  0
  156.0010  213.6090  155.9640 C   0  0  0  0  0  2  0  0  0  0  0  0
  156.3310  211.4660  156.9560 F   0  0  0  0  0  0  0  0  0  0  0  0
  156.5120  212.8230  157.1620 C   0  0  0  0  0  2  0  0  0  0  0  0
  161.3160  213.7210  148.1580 O   0  0  0  0  0  0  0  0  0  0  0  0
  161.2330  213.1770  146.8750 C   0  0  0  0  0  2  0  0  0  0  0  0
  163.4800  212.4580  146.5220 O   0  0  0  0  0  1  0  0  0  0  0  0
  162.5360  213.3970  146.1120 C   0  0  1  0  0  3  0  0  0  0  0  0
  163.0190  214.4420  143.9910 O   0  0  0  0  0  1  0  0  0  0  0  0
  162.3790  213.3510  144.5890 C   0  0  2  0  0  3  0  0  0  0  0  0
  160.2290  214.4270  144.3380 O   0  0  0  0  0  1  0  0  0  0  0  0
  160.9240  213.2300  144.1220 C   0  0  1  0  0  3  0  0  0  0  0  0
  160.8680  212.8100  142.3540 P   0  0  0  0  0  0  0  0  0  0  0  0
  161.1680  211.1580  142.1470 O   0  0  0  0  0  1  0  0  0  0  0  0
  159.3390  213.1890  141.7330 O   0  0  0  0  0  1  0  0  0  0  0  0
  161.9210  213.6030  141.6140 O   0  0  0  0  0  0  0  0  0  0  0  0
  161.7220  200.6810  147.6640 C   0  0  2  0  0  3  0  0  0  0  0  0
  160.8510  200.2240  146.5870 N   0  0  0  0  0  2  0  0  0  0  0  0
  161.2930  199.3230  145.5710 C   0  0  0  0  0  0  0  0  0  0  0  0
  162.4460  198.8170  145.6200 O   0  0  0  0  0  0  0  0  0  0  0  0
  159.2960  200.0170  144.3150 C   0  0  0  0  0  1  0  0  0  0  0  0
  160.3760  198.9650  144.4540 C   0  0  0  0  0  2  0  0  0  0  0  0
  161.6480  200.5630  150.1530 C   0  0  0  0  0  1  0  0  0  0  0  0
  161.6020  199.7620  148.8670 C   0  0  0  0  0  2  0  0  0  0  0  0
  2 16  2  0  0  0  0
  2 20  1  0  0  0  0
  4  8  1  0  0  0  0
  4  9  2  0  0  0  0
  5 18  1  0  0  0  0
  6  5  2  0  0  0  0
  7  3  1  0  0  0  0
  8 11  1  0  0  0  0
  9  7  1  0  0  0  0
 10  3  1  6  0  0  0
 10 23  1  0  0  0  0
 11 17  1  6  0  0  0
 11 22  1  0  0  0  0
 12  9  1  0  0  0  0
 12 18  1  0  0  0  0
 13  6  1  0  0  0  0
 14 46  1  6  0  0  0
 14  1  1  0  0  0  0
 15 10  1  0  0  0  0
 15 35  1  1  0  0  0
 16  4  1  0  0  0  0
 17 14  1  0  0  0  0
 19 20  1  0  0  0  0
 19  5  1  0  0  0  0
 20 12  2  0  0  0  0
 21 13  1  0  0  0  0
 21 19  2  0  0  0  0
 22  1  1  6  0  0  0
 22 15  1  0  0  0  0
 23 25  1  1  0  0  0
 23 24  1  0  0  0  0
 24 26  1  1  0  0  0
 25 24  1  0  0  0  0
 26 27  1  1  0  0  0
 26 28  1  0  0  0  0
 29 28  1  6  0  0  0
 29 32  1  0  0  0  0
 30 31  1  0  0  0  0
 30 29  1  0  0  0  0
 33 32  1  0  0  0  0
 34 33  1  0  0  0  0
 36 35  1  0  0  0  0
 38 40  1  6  0  0  0
 38 42  1  0  0  0  0
 39 37  1  6  0  0  0
 39 41  1  0  0  0  0
 39 38  1  0  0  0  0
 41 36  1  6  0  0  0
 41 38  1  0  0  0  0
 42 43  1  0  0  0  0
 43 45  1  0  0  0  0
 44 45  1  0  0  0  0
 47 46  1  0  0  0  0
 49 48  1  1  0  0  0
 49 47  1  0  0  0  0
 51 50  1  6  0  0  0
 51 49  1  0  0  0  0
 53 52  1  6  0  0  0
 53 51  1  0  0  0  0
 54 53  1  0  0  0  0
 55 54  1  0  0  0  0
 56 54  1  0  0  0  0
 57 54  2  0  0  0  0
 58 13  1  0  0  0  0
 58 65  1  1  0  0  0
 59 58  1  0  0  0  0
 60 61  2  0  0  0  0
 60 59  1  0  0  0  0
 62 63  1  0  0  0  0
 63 60  1  0  0  0  0
 65 64  1  0  0  0  0
M  END
>  <MODEL>
2

>  <REMARK>
 VINA RESULT:      -0.6      1.451      2.367
  Name = 
  23 active torsions:
  status: ('A' for Active; 'I' for Inactive)
    1  A    between atoms: C_1  and  C_58
    2  A    between atoms: C_4  and  C_5
    3  A    between atoms: C_4  and  C_41
    4  A    between atoms: C_5  and  C_32
    5  A    between atoms: C_8  and  O_10
    6  A    between atoms: C_8  and  C_45
    7  A    between atoms: O_10  and  C_65
    8  A    between atoms: P_11  and  C_55
    9  A    between atoms: C_13  and  C_60
   10  A    between atoms: N_15  and  C_44
   11  A    between atoms: C_17  and  N_36
   12  A    between atoms: O_19  and  C_41
   13  A    between atoms: C_22  and  O_24
   14  A    between atoms: C_22  and  C_54
   15  A    between atoms: O_24  and  C_43
   16  A    between atoms: C_27  and  C_52
   17  A    between atoms: C_29  and  C_54
   18  A    between atoms: C_29  and  C_55
   19  A    between atoms: C_37  and  C_51
   20  A    between atoms: C_37  and  C_60
   21  A    between atoms: C_41  and  C_58
   22  A    between atoms: N_42  and  C_44
   23  A    between atoms: C_44  and  C_49
                            x       y       z     vdW  Elec       q    Type
                         _______ _______ _______ _____ _____    ______ ____

>  <TORSDO>
F 23

$$$$
