=
 OpenBabel11042422473D

 38 43  0  0  1  0  0  0  0  0999 V2000
  161.2830  207.4050  153.3260 C   0  0  0  0  0  0  0  0  0  0  0  0
  162.1710  210.1830  149.1990 C   0  0  0  0  0  0  0  0  0  0  0  0
  161.5830  208.9680  148.7760 C   0  0  0  0  0  3  0  0  0  0  0  0
  160.7980  206.3460  154.2770 C   0  0  0  0  0  2  0  0  0  0  0  0
  162.4990  211.1530  148.2610 O   0  0  0  0  0  1  0  0  0  0  0  0
  161.9550  208.7830  155.2730 C   0  0  0  0  0  2  0  0  0  0  0  0
  161.2760  208.0120  149.7490 C   0  0  0  0  0  0  0  0  0  0  0  0
  161.5450  208.2610  151.0500 C   0  0  0  0  0  0  0  0  0  0  0  0
  160.5990  208.9650  155.9820 C   0  0  2  0  0  3  0  0  0  0  0  0
  159.4000  208.2800  155.3020 C   0  0  0  0  0  2  0  0  0  0  0  0
  160.5330  206.1770  151.1090 C   0  0  2  0  0  3  0  0  0  0  0  0
  162.4200  210.4250  150.5730 C   0  0  0  0  0  3  0  0  0  0  0  0
  160.6220  206.6720  149.6300 C   0  0  0  0  0  2  0  0  0  0  0  0
  161.1570  207.2330  151.9060 N   0  0  0  0  0  0  0  0  0  0  0  0
  161.8270  208.5600  153.7930 C   0  0  0  0  0  0  0  0  0  0  0  0
  162.0870  209.4370  151.5130 C   0  0  0  0  0  0  0  0  0  0  0  0
  162.2490  209.5780  152.9000 O   0  0  0  0  0  0  0  0  0  0  0  0
  159.5690  206.7680  155.0970 C   0  0  0  0  0  2  0  0  0  0  0  0
  160.9420  212.5290  157.2140 C   0  0  0  0  0  3  0  0  0  0  0  0
  161.1900  211.1720  156.9930 C   0  0  0  0  0  3  0  0  0  0  0  0
  160.3120  210.4150  156.2080 C   0  0  0  0  0  0  0  0  0  0  0  0
  158.9360  212.3850  155.8660 C   0  0  0  0  0  3  0  0  0  0  0  0
  159.1830  211.0280  155.6440 C   0  0  0  0  0  3  0  0  0  0  0  0
  159.8160  213.1360  156.6510 C   0  0  0  0  0  0  0  0  0  0  0  0
  159.5780  214.4520  156.8670 F   0  0  0  0  0  0  0  0  0  0  0  0
  160.6120  203.6630  150.9620 N   0  0  0  0  0  2  0  0  0  0  0  0
  162.4600  204.8850  151.6980 O   0  0  0  0  0  0  0  0  0  0  0  0
  161.2710  204.8880  151.2750 C   0  0  0  0  0  0  0  0  0  0  0  0
  161.2690  202.3740  151.1150 C   0  0  0  0  0  2  0  0  0  0  0  0
  160.1660  202.1480  148.9040 C   0  0  0  0  0  2  0  0  0  0  0  0
  161.8700  200.6330  149.5300 N   0  0  0  0  0  2  0  0  0  0  0  0
  160.7600  201.4050  150.0630 C   0  0  1  0  0  3  0  0  0  0  0  0
  161.5570  200.3280  148.1900 N   0  0  0  0  0  2  0  0  0  0  0  0
  160.5930  201.3200  147.7220 C   0  0  2  0  0  3  0  0  0  0  0  0
  161.1770  202.1920  146.6070 C   0  0  1  0  0  3  0  0  0  0  0  0
  160.4060  202.0560  145.3000 C   0  0  0  0  0  1  0  0  0  0  0  0
  161.5650  204.2410  145.8660 C   0  0  0  0  0  1  0  0  0  0  0  0
  161.1930  203.5300  147.0070 O   0  0  0  0  0  0  0  0  0  0  0  0
  1 15  2  0  0  0  0
  1  4  1  0  0  0  0
  2 12  1  0  0  0  0
  3  2  2  0  0  0  0
  3  7  1  0  0  0  0
  4 18  1  0  0  0  0
  5  2  1  0  0  0  0
  6  9  1  0  0  0  0
  7  8  2  0  0  0  0
  8 16  1  0  0  0  0
  8 14  1  0  0  0  0
  9 21  1  6  0  0  0
 10  9  1  0  0  0  0
 11 28  1  6  0  0  0
 11 14  1  0  0  0  0
 12 16  2  0  0  0  0
 13  7  1  0  0  0  0
 13 11  1  0  0  0  0
 14  1  1  0  0  0  0
 15  6  1  0  0  0  0
 16 17  1  0  0  0  0
 17 15  1  0  0  0  0
 18 10  1  0  0  0  0
 20 19  1  0  0  0  0
 21 20  2  0  0  0  0
 22 24  1  0  0  0  0
 23 22  2  0  0  0  0
 23 21  1  0  0  0  0
 24 25  1  0  0  0  0
 24 19  2  0  0  0  0
 26 29  1  0  0  0  0
 26 28  1  0  0  0  0
 28 27  2  0  0  0  0
 30 32  1  0  0  0  0
 31 32  1  0  0  0  0
 32 29  1  1  0  0  0
 33 31  1  0  0  0  0
 34 35  1  6  0  0  0
 34 33  1  0  0  0  0
 34 30  1  0  0  0  0
 35 36  1  6  0  0  0
 35 38  1  0  0  0  0
 37 38  1  0  0  0  0
M  END
>  <MODEL>
1

>  <REMARK>
 VINA RESULT:      -6.4      0.000      0.000
  Name = 
  6 active torsions:
  status: ('A' for Active; 'I' for Inactive)
    1  A    between atoms: C_10  and  O_26
    2  A    between atoms: C_10  and  C_36
    3  A    between atoms: C_14  and  C_15
    4  A    between atoms: C_18  and  C_33
    5  A    between atoms: C_19  and  C_20
    6  A    between atoms: C_19  and  N_24
                            x       y       z     vdW  Elec       q    Type
                         _______ _______ _______ _____ _____    ______ ____

>  <TORSDO>
F 6

$$$$
=
 OpenBabel11042422473D

 38 43  0  0  1  0  0  0  0  0999 V2000
  161.8370  209.3510  150.4430 C   0  0  0  0  0  0  0  0  0  0  0  0
  161.6110  205.2760  147.4620 C   0  0  0  0  0  0  0  0  0  0  0  0
  160.9750  204.9480  148.6830 C   0  0  0  0  0  3  0  0  0  0  0  0
  161.6300  210.3370  151.5600 C   0  0  0  0  0  2  0  0  0  0  0  0
  161.6710  204.3370  146.4420 O   0  0  0  0  0  1  0  0  0  0  0  0
  162.9210  211.1450  149.1190 C   0  0  0  0  0  2  0  0  0  0  0  0
  160.9430  205.9170  149.6900 C   0  0  0  0  0  0  0  0  0  0  0  0
  161.5120  207.1250  149.4840 C   0  0  0  0  0  0  0  0  0  0  0  0
  161.7730  212.1680  149.0240 C   0  0  2  0  0  3  0  0  0  0  0  0
  160.4660  211.7650  149.7290 C   0  0  0  0  0  2  0  0  0  0  0  0
  160.6080  207.3230  151.6080 C   0  0  2  0  0  3  0  0  0  0  0  0
  162.1790  206.5600  147.2680 C   0  0  0  0  0  3  0  0  0  0  0  0
  160.3200  205.8930  151.0500 C   0  0  0  0  0  2  0  0  0  0  0  0
  161.3750  207.9970  150.5610 N   0  0  0  0  0  0  0  0  0  0  0  0
  162.4440  209.7300  149.2860 C   0  0  0  0  0  0  0  0  0  0  0  0
  162.1150  207.5020  148.3060 C   0  0  0  0  0  0  0  0  0  0  0  0
  162.6050  208.8140  148.2160 O   0  0  0  0  0  0  0  0  0  0  0  0
  160.6260  211.4500  151.2230 C   0  0  0  0  0  2  0  0  0  0  0  0
  159.9530  212.6680  145.7400 C   0  0  0  0  0  3  0  0  0  0  0  0
  160.2250  212.3340  147.0700 C   0  0  0  0  0  3  0  0  0  0  0  0
  161.5060  212.5300  147.5970 C   0  0  0  0  0  0  0  0  0  0  0  0
  162.2430  213.3990  145.4540 C   0  0  0  0  0  3  0  0  0  0  0  0
  162.5160  213.0650  146.7820 C   0  0  0  0  0  3  0  0  0  0  0  0
  160.9620  213.2010  144.9320 C   0  0  0  0  0  0  0  0  0  0  0  0
  160.6960  213.5240  143.6440 F   0  0  0  0  0  0  0  0  0  0  0  0
  160.9030  207.8670  154.0510 N   0  0  0  0  0  2  0  0  0  0  0  0
  162.5100  206.6340  152.8900 O   0  0  0  0  0  0  0  0  0  0  0  0
  161.4030  207.2410  152.8710 C   0  0  0  0  0  0  0  0  0  0  0  0
  161.6340  207.8370  155.3080 C   0  0  0  0  0  2  0  0  0  0  0  0
  161.3300  210.2930  155.1350 C   0  0  0  0  0  2  0  0  0  0  0  0
  160.1190  209.0680  156.7550 N   0  0  0  0  0  2  0  0  0  0  0  0
  161.4020  209.1260  156.0740 C   0  0  1  0  0  3  0  0  0  0  0  0
  159.6230  210.3850  156.8190 N   0  0  0  0  0  2  0  0  0  0  0  0
  160.2580  211.1520  155.7500 C   0  0  2  0  0  3  0  0  0  0  0  0
  159.2390  211.6130  154.7040 C   0  0  1  0  0  3  0  0  0  0  0  0
  157.8020  211.3730  155.1490 C   0  0  0  0  0  1  0  0  0  0  0  0
  158.3620  213.3110  153.5860 C   0  0  0  0  0  1  0  0  0  0  0  0
  159.4250  212.9690  154.4230 O   0  0  0  0  0  0  0  0  0  0  0  0
  1 14  1  0  0  0  0
  1  4  1  0  0  0  0
  2  3  1  0  0  0  0
  3  7  2  0  0  0  0
  5  2  1  0  0  0  0
  6 15  1  0  0  0  0
  7 13  1  0  0  0  0
  8  7  1  0  0  0  0
  8 14  1  0  0  0  0
  9 21  1  6  0  0  0
  9  6  1  0  0  0  0
  9 10  1  0  0  0  0
 10 18  1  0  0  0  0
 11 28  1  1  0  0  0
 12  2  2  0  0  0  0
 12 16  1  0  0  0  0
 13 11  1  0  0  0  0
 14 11  1  0  0  0  0
 15  1  2  0  0  0  0
 16  8  2  0  0  0  0
 17 16  1  0  0  0  0
 17 15  1  0  0  0  0
 18  4  1  0  0  0  0
 19 20  1  0  0  0  0
 20 21  2  0  0  0  0
 22 23  2  0  0  0  0
 23 21  1  0  0  0  0
 24 22  1  0  0  0  0
 24 19  2  0  0  0  0
 25 24  1  0  0  0  0
 26 29  1  0  0  0  0
 28 27  2  0  0  0  0
 28 26  1  0  0  0  0
 30 34  1  0  0  0  0
 30 32  1  0  0  0  0
 31 33  1  0  0  0  0
 32 29  1  6  0  0  0
 32 31  1  0  0  0  0
 34 35  1  6  0  0  0
 34 33  1  0  0  0  0
 35 36  1  1  0  0  0
 37 38  1  0  0  0  0
 38 35  1  0  0  0  0
M  END
>  <MODEL>
2

>  <REMARK>
 VINA RESULT:      -6.2      3.492      8.375
  Name = 
  6 active torsions:
  status: ('A' for Active; 'I' for Inactive)
    1  A    between atoms: C_10  and  O_26
    2  A    between atoms: C_10  and  C_36
    3  A    between atoms: C_14  and  C_15
    4  A    between atoms: C_18  and  C_33
    5  A    between atoms: C_19  and  C_20
    6  A    between atoms: C_19  and  N_24
                            x       y       z     vdW  Elec       q    Type
                         _______ _______ _______ _____ _____    ______ ____

>  <TORSDO>
F 6

$$$$
=
 OpenBabel11042422473D

 38 43  0  0  1  0  0  0  0  0999 V2000
  161.7090  210.8250  150.1640 C   0  0  0  0  0  0  0  0  0  0  0  0
  161.7760  205.9810  148.7230 C   0  0  0  0  0  0  0  0  0  0  0  0
  161.2240  206.0310  150.0240 C   0  0  0  0  0  3  0  0  0  0  0  0
  161.4480  212.1080  150.9030 C   0  0  0  0  0  2  0  0  0  0  0  0
  161.8910  204.7610  148.0690 O   0  0  0  0  0  1  0  0  0  0  0  0
  162.5540  212.1510  148.2480 C   0  0  0  0  0  2  0  0  0  0  0  0
  161.1350  207.2760  150.6540 C   0  0  0  0  0  0  0  0  0  0  0  0
  161.5710  208.3870  150.0200 C   0  0  0  0  0  0  0  0  0  0  0  0
  161.3070  212.9860  147.9000 C   0  0  2  0  0  3  0  0  0  0  0  0
  160.0760  212.7380  148.7900 C   0  0  0  0  0  2  0  0  0  0  0  0
  160.7360  209.2130  152.0170 C   0  0  2  0  0  3  0  0  0  0  0  0
  162.2050  207.1660  148.0750 C   0  0  0  0  0  3  0  0  0  0  0  0
  160.5710  207.6590  151.9850 C   0  0  0  0  0  2  0  0  0  0  0  0
  161.3900  209.5560  150.7550 N   0  0  0  0  0  0  0  0  0  0  0  0
  162.2290  210.8410  148.9070 C   0  0  0  0  0  0  0  0  0  0  0  0
  162.0870  208.3940  148.7450 C   0  0  0  0  0  0  0  0  0  0  0  0
  162.4390  209.6350  148.1910 O   0  0  0  0  0  0  0  0  0  0  0  0
  160.3240  212.9570  150.2880 C   0  0  0  0  0  2  0  0  0  0  0  0
  161.5720  213.0300  144.1220 C   0  0  0  0  0  3  0  0  0  0  0  0
  161.8840  213.1770  145.4770 C   0  0  0  0  0  3  0  0  0  0  0  0
  160.9500  212.8240  146.4570 C   0  0  0  0  0  0  0  0  0  0  0  0
  159.3860  212.1740  144.7170 C   0  0  0  0  0  3  0  0  0  0  0  0
  159.6970  212.3200  146.0710 C   0  0  0  0  0  3  0  0  0  0  0  0
  160.3230  212.5290  143.7430 C   0  0  0  0  0  0  0  0  0  0  0  0
  160.0220  212.3880  142.4290 F   0  0  0  0  0  0  0  0  0  0  0  0
  161.0680  209.4900  154.5000 N   0  0  0  0  0  2  0  0  0  0  0  0
  162.7390  210.0960  152.9870 O   0  0  0  0  0  0  0  0  0  0  0  0
  161.5840  209.6250  153.1770 C   0  0  0  0  0  0  0  0  0  0  0  0
  161.8360  209.8860  155.6700 C   0  0  0  0  0  2  0  0  0  0  0  0
  160.4840  211.9650  155.6060 C   0  0  0  0  0  2  0  0  0  0  0  0
  159.9160  210.2380  157.1180 N   0  0  0  0  0  2  0  0  0  0  0  0
  161.0500  210.8940  156.4890 C   0  0  1  0  0  3  0  0  0  0  0  0
  158.8900  211.1980  157.2280 N   0  0  0  0  0  2  0  0  0  0  0  0
  159.1360  212.2280  156.2220 C   0  0  2  0  0  3  0  0  0  0  0  0
  158.0300  212.2560  155.1620 C   0  0  1  0  0  3  0  0  0  0  0  0
  158.5570  211.9530  153.7660 C   0  0  0  0  0  1  0  0  0  0  0  0
  155.8730  211.8420  154.8910 C   0  0  0  0  0  1  0  0  0  0  0  0
  157.0270  211.3430  155.4960 O   0  0  0  0  0  0  0  0  0  0  0  0
  1 14  1  0  0  0  0
  1  4  1  0  0  0  0
  2  3  1  0  0  0  0
  3  7  2  0  0  0  0
  5  2  1  0  0  0  0
  6 15  1  0  0  0  0
  7 13  1  0  0  0  0
  8  7  1  0  0  0  0
  8 14  1  0  0  0  0
  9 21  1  6  0  0  0
  9  6  1  0  0  0  0
  9 10  1  0  0  0  0
 10 18  1  0  0  0  0
 11 28  1  1  0  0  0
 12  2  2  0  0  0  0
 12 16  1  0  0  0  0
 13 11  1  0  0  0  0
 14 11  1  0  0  0  0
 15  1  2  0  0  0  0
 16  8  2  0  0  0  0
 17 16  1  0  0  0  0
 17 15  1  0  0  0  0
 18  4  1  0  0  0  0
 19 20  1  0  0  0  0
 20 21  2  0  0  0  0
 22 23  2  0  0  0  0
 23 21  1  0  0  0  0
 24 19  2  0  0  0  0
 24 22  1  0  0  0  0
 25 24  1  0  0  0  0
 26 29  1  0  0  0  0
 27 28  2  0  0  0  0
 28 26  1  0  0  0  0
 30 34  1  0  0  0  0
 30 32  1  0  0  0  0
 31 33  1  0  0  0  0
 32 29  1  6  0  0  0
 32 31  1  0  0  0  0
 34 35  1  6  0  0  0
 34 33  1  0  0  0  0
 35 36  1  6  0  0  0
 35 38  1  0  0  0  0
 37 38  1  0  0  0  0
M  END
>  <MODEL>
3

>  <REMARK>
 VINA RESULT:      -6.1      4.099      9.179
  Name = 
  6 active torsions:
  status: ('A' for Active; 'I' for Inactive)
    1  A    between atoms: C_10  and  O_26
    2  A    between atoms: C_10  and  C_36
    3  A    between atoms: C_14  and  C_15
    4  A    between atoms: C_18  and  C_33
    5  A    between atoms: C_19  and  C_20
    6  A    between atoms: C_19  and  N_24
                            x       y       z     vdW  Elec       q    Type
                         _______ _______ _______ _____ _____    ______ ____

>  <TORSDO>
F 6

$$$$
=
 OpenBabel11042422473D

 38 43  0  0  1  0  0  0  0  0999 V2000
  161.8340  208.0440  149.8660 C   0  0  0  0  0  0  0  0  0  0  0  0
  161.0090  208.0420  154.8520 C   0  0  0  0  0  0  0  0  0  0  0  0
  160.5510  209.2800  154.3440 C   0  0  0  0  0  3  0  0  0  0  0  0
  161.8350  208.3890  148.4030 C   0  0  0  0  0  2  0  0  0  0  0  0
  160.8800  207.7620  156.2060 O   0  0  0  0  0  1  0  0  0  0  0  0
  162.7750  205.8230  149.2980 C   0  0  0  0  0  2  0  0  0  0  0  0
  160.7070  209.5300  152.9780 C   0  0  0  0  0  0  0  0  0  0  0  0
  161.2850  208.6020  152.1830 C   0  0  0  0  0  0  0  0  0  0  0  0
  161.6670  205.2620  148.3870 C   0  0  2  0  0  3  0  0  0  0  0  0
  160.4650  206.1970  148.1560 C   0  0  0  0  0  2  0  0  0  0  0  0
  160.7170  210.2890  150.6990 C   0  0  2  0  0  3  0  0  0  0  0  0
  161.5910  207.0800  153.9900 C   0  0  0  0  0  3  0  0  0  0  0  0
  160.2940  210.7020  152.1450 C   0  0  0  0  0  2  0  0  0  0  0  0
  161.3440  208.9750  150.8430 N   0  0  0  0  0  0  0  0  0  0  0  0
  162.2750  206.8300  150.2930 C   0  0  0  0  0  0  0  0  0  0  0  0
  161.7180  207.3730  152.6230 C   0  0  0  0  0  0  0  0  0  0  0  0
  162.2390  206.4860  151.6690 O   0  0  0  0  0  0  0  0  0  0  0  0
  160.8340  207.5680  147.5740 C   0  0  0  0  0  2  0  0  0  0  0  0
  160.7240  201.5940  148.4290 C   0  0  0  0  0  3  0  0  0  0  0  0
  161.1510  202.8500  147.9880 C   0  0  0  0  0  3  0  0  0  0  0  0
  161.2030  203.9280  148.8790 C   0  0  0  0  0  0  0  0  0  0  0  0
  160.3990  202.4840  150.6570 C   0  0  0  0  0  3  0  0  0  0  0  0
  160.8250  203.7400  150.2180 C   0  0  0  0  0  3  0  0  0  0  0  0
  160.3480  201.4110  149.7620 C   0  0  0  0  0  0  0  0  0  0  0  0
  159.9350  200.1930  150.1870 F   0  0  0  0  0  0  0  0  0  0  0  0
  161.2210  212.2760  149.2330 N   0  0  0  0  0  2  0  0  0  0  0  0
  162.9100  211.2170  150.4490 O   0  0  0  0  0  0  0  0  0  0  0  0
  161.6890  211.2760  150.1360 C   0  0  0  0  0  0  0  0  0  0  0  0
  162.1170  213.2560  148.6390 C   0  0  0  0  0  2  0  0  0  0  0  0
  162.5170  214.3410  146.4440 C   0  0  0  0  0  2  0  0  0  0  0  0
  160.6910  212.8620  146.7110 N   0  0  0  0  0  2  0  0  0  0  0  0
  161.4710  213.8690  147.4100 C   0  0  1  0  0  3  0  0  0  0  0  0
  160.7250  213.1890  145.3400 N   0  0  0  0  0  2  0  0  0  0  0  0
  161.9120  214.0060  145.1070 C   0  0  2  0  0  3  0  0  0  0  0  0
  162.9180  213.2930  144.1980 C   0  0  1  0  0  3  0  0  0  0  0  0
  162.2430  212.5760  143.0370 C   0  0  0  0  0  1  0  0  0  0  0  0
  163.4560  214.4530  142.3910 C   0  0  0  0  0  1  0  0  0  0  0  0
  163.8500  214.2110  143.7080 O   0  0  0  0  0  0  0  0  0  0  0  0
  1 15  2  0  0  0  0
  1 14  1  0  0  0  0
  2  5  1  0  0  0  0
  3  2  1  0  0  0  0
  4  1  1  0  0  0  0
  6 15  1  0  0  0  0
  7  3  2  0  0  0  0
  8 16  2  0  0  0  0
  8  7  1  0  0  0  0
  9 21  1  1  0  0  0
  9  6  1  0  0  0  0
 10  9  1  0  0  0  0
 11 28  1  1  0  0  0
 11 14  1  0  0  0  0
 11 13  1  0  0  0  0
 12  2  2  0  0  0  0
 13  7  1  0  0  0  0
 14  8  1  0  0  0  0
 15 17  1  0  0  0  0
 16 12  1  0  0  0  0
 17 16  1  0  0  0  0
 18 10  1  0  0  0  0
 18  4  1  0  0  0  0
 19 24  1  0  0  0  0
 20 19  2  0  0  0  0
 20 21  1  0  0  0  0
 21 23  2  0  0  0  0
 23 22  1  0  0  0  0
 24 25  1  0  0  0  0
 24 22  2  0  0  0  0
 26 28  1  0  0  0  0
 28 27  2  0  0  0  0
 29 26  1  0  0  0  0
 30 32  1  0  0  0  0
 31 32  1  0  0  0  0
 32 29  1  1  0  0  0
 33 31  1  0  0  0  0
 34 35  1  6  0  0  0
 34 33  1  0  0  0  0
 34 30  1  0  0  0  0
 35 36  1  6  0  0  0
 37 38  1  0  0  0  0
 38 35  1  0  0  0  0
M  END
>  <MODEL>
4

>  <REMARK>
 VINA RESULT:      -5.7      4.463      9.252
  Name = 
  6 active torsions:
  status: ('A' for Active; 'I' for Inactive)
    1  A    between atoms: C_10  and  O_26
    2  A    between atoms: C_10  and  C_36
    3  A    between atoms: C_14  and  C_15
    4  A    between atoms: C_18  and  C_33
    5  A    between atoms: C_19  and  C_20
    6  A    between atoms: C_19  and  N_24
                            x       y       z     vdW  Elec       q    Type
                         _______ _______ _______ _____ _____    ______ ____

>  <TORSDO>
F 6

$$$$
=
 OpenBabel11042422473D

 38 43  0  0  1  0  0  0  0  0999 V2000
  161.8720  207.8400  150.0740 C   0  0  0  0  0  0  0  0  0  0  0  0
  160.8320  207.9080  155.0200 C   0  0  0  0  0  0  0  0  0  0  0  0
  160.4650  209.1670  154.4890 C   0  0  0  0  0  3  0  0  0  0  0  0
  161.9550  208.1780  148.6120 C   0  0  0  0  0  2  0  0  0  0  0  0
  160.6290  207.6420  156.3670 O   0  0  0  0  0  1  0  0  0  0  0  0
  162.7120  205.5680  149.5530 C   0  0  0  0  0  2  0  0  0  0  0  0
  160.6940  209.4010  153.1300 C   0  0  0  0  0  0  0  0  0  0  0  0
  161.2540  208.4390  152.3630 C   0  0  0  0  0  0  0  0  0  0  0  0
  161.6140  205.0650  148.5950 C   0  0  2  0  0  3  0  0  0  0  0  0
  160.4780  206.0630  148.3100 C   0  0  0  0  0  2  0  0  0  0  0  0
  160.8450  210.1470  150.8520 C   0  0  2  0  0  3  0  0  0  0  0  0
  161.3960  206.9110  154.1850 C   0  0  0  0  0  3  0  0  0  0  0  0
  160.3840  210.5900  152.2780 C   0  0  0  0  0  2  0  0  0  0  0  0
  161.3910  208.8020  151.0260 N   0  0  0  0  0  0  0  0  0  0  0  0
  162.2260  206.6060  150.5230 C   0  0  0  0  0  0  0  0  0  0  0  0
  161.5990  207.1910  152.8250 C   0  0  0  0  0  0  0  0  0  0  0  0
  162.1110  206.2710  151.8960 O   0  0  0  0  0  0  0  0  0  0  0  0
  160.9470  207.4090  147.7420 C   0  0  0  0  0  2  0  0  0  0  0  0
  160.2270  202.3910  150.8910 C   0  0  0  0  0  3  0  0  0  0  0  0
  160.7520  203.6000  150.4270 C   0  0  0  0  0  3  0  0  0  0  0  0
  161.0570  203.7610  149.0700 C   0  0  0  0  0  0  0  0  0  0  0  0
  160.3050  201.4920  148.6440 C   0  0  0  0  0  3  0  0  0  0  0  0
  160.8300  202.7010  148.1790 C   0  0  0  0  0  3  0  0  0  0  0  0
  160.0040  201.3380  150.0000 C   0  0  0  0  0  0  0  0  0  0  0  0
  159.4940  200.1660  150.4520 F   0  0  0  0  0  0  0  0  0  0  0  0
  161.5780  211.9390  149.2390 N   0  0  0  0  0  2  0  0  0  0  0  0
  163.0470  211.0880  150.8420 O   0  0  0  0  0  0  0  0  0  0  0  0
  161.8940  211.0760  150.3300 C   0  0  0  0  0  0  0  0  0  0  0  0
  162.5570  212.8560  148.6740 C   0  0  0  0  0  2  0  0  0  0  0  0
  161.7280  212.9550  146.3380 C   0  0  0  0  0  2  0  0  0  0  0  0
  160.5700  214.1070  148.0480 N   0  0  0  0  0  2  0  0  0  0  0  0
  161.9030  213.7230  147.6140 C   0  0  1  0  0  3  0  0  0  0  0  0
  159.7800  214.2430  146.8890 N   0  0  0  0  0  2  0  0  0  0  0  0
  160.3970  213.4430  145.8340 C   0  0  2  0  0  3  0  0  0  0  0  0
  159.4960  212.2800  145.4080 C   0  0  1  0  0  3  0  0  0  0  0  0
  158.0200  212.5740  145.6420 C   0  0  0  0  0  1  0  0  0  0  0  0
  159.3400  213.1360  143.3730 C   0  0  0  0  0  1  0  0  0  0  0  0
  159.7100  211.9800  144.0610 O   0  0  0  0  0  0  0  0  0  0  0  0
  1 15  2  0  0  0  0
  1 14  1  0  0  0  0
  2  5  1  0  0  0  0
  3  2  1  0  0  0  0
  4  1  1  0  0  0  0
  6 15  1  0  0  0  0
  7  3  2  0  0  0  0
  8 16  2  0  0  0  0
  8  7  1  0  0  0  0
  9 21  1  1  0  0  0
  9  6  1  0  0  0  0
 10  9  1  0  0  0  0
 11 28  1  1  0  0  0
 11 14  1  0  0  0  0
 11 13  1  0  0  0  0
 12  2  2  0  0  0  0
 13  7  1  0  0  0  0
 14  8  1  0  0  0  0
 15 17  1  0  0  0  0
 16 12  1  0  0  0  0
 17 16  1  0  0  0  0
 18 10  1  0  0  0  0
 18  4  1  0  0  0  0
 20 19  1  0  0  0  0
 21 20  2  0  0  0  0
 22 24  1  0  0  0  0
 23 22  2  0  0  0  0
 23 21  1  0  0  0  0
 24 25  1  0  0  0  0
 24 19  2  0  0  0  0
 26 28  1  0  0  0  0
 28 27  2  0  0  0  0
 29 26  1  0  0  0  0
 30 32  1  0  0  0  0
 32 31  1  0  0  0  0
 32 29  1  1  0  0  0
 33 31  1  0  0  0  0
 34 35  1  1  0  0  0
 34 30  1  0  0  0  0
 34 33  1  0  0  0  0
 35 36  1  6  0  0  0
 37 38  1  0  0  0  0
 38 35  1  0  0  0  0
M  END
>  <MODEL>
5

>  <REMARK>
 VINA RESULT:      -5.5      4.273      9.032
  Name = 
  6 active torsions:
  status: ('A' for Active; 'I' for Inactive)
    1  A    between atoms: C_10  and  O_26
    2  A    between atoms: C_10  and  C_36
    3  A    between atoms: C_14  and  C_15
    4  A    between atoms: C_18  and  C_33
    5  A    between atoms: C_19  and  C_20
    6  A    between atoms: C_19  and  N_24
                            x       y       z     vdW  Elec       q    Type
                         _______ _______ _______ _____ _____    ______ ____

>  <TORSDO>
F 6

$$$$
=
 OpenBabel11042422473D

 38 43  0  0  1  0  0  0  0  0999 V2000
  161.3150  211.6180  149.5670 C   0  0  0  0  0  0  0  0  0  0  0  0
  157.2490  213.9280  151.4830 C   0  0  0  0  0  0  0  0  0  0  0  0
  157.2000  214.0740  150.0770 C   0  0  0  0  0  3  0  0  0  0  0  0
  162.3150  210.9920  148.6350 C   0  0  0  0  0  2  0  0  0  0  0  0
  156.2300  214.4520  152.2670 O   0  0  0  0  0  1  0  0  0  0  0  0
  162.5200  210.5930  151.4760 C   0  0  0  0  0  2  0  0  0  0  0  0
  158.2490  213.5410  149.3230 C   0  0  0  0  0  0  0  0  0  0  0  0
  159.2730  212.9100  149.9390 C   0  0  0  0  0  0  0  0  0  0  0  0
  162.3980  209.0980  151.1270 C   0  0  2  0  0  3  0  0  0  0  0  0
  161.6440  208.7820  149.8230 C   0  0  0  0  0  2  0  0  0  0  0  0
  159.7990  212.6980  147.6930 C   0  0  2  0  0  3  0  0  0  0  0  0
  158.3250  213.2410  152.1000 C   0  0  0  0  0  3  0  0  0  0  0  0
  158.4630  213.4950  147.8430 C   0  0  0  0  0  2  0  0  0  0  0  0
  160.2270  212.4040  149.0600 N   0  0  0  0  0  0  0  0  0  0  0  0
  161.4070  211.4290  150.9110 C   0  0  0  0  0  0  0  0  0  0  0  0
  159.3510  212.7160  151.2980 C   0  0  0  0  0  0  0  0  0  0  0  0
  160.4430  211.9850  151.7910 O   0  0  0  0  0  0  0  0  0  0  0  0
  162.2290  209.4580  148.5750 C   0  0  0  0  0  2  0  0  0  0  0  0
  160.7790  208.3430  154.4660 C   0  0  0  0  0  3  0  0  0  0  0  0
  161.3390  209.0350  153.3890 C   0  0  0  0  0  3  0  0  0  0  0  0
  161.8050  208.3360  152.2700 C   0  0  0  0  0  0  0  0  0  0  0  0
  161.1460  206.2460  153.3130 C   0  0  0  0  0  3  0  0  0  0  0  0
  161.7060  206.9360  152.2360 C   0  0  0  0  0  3  0  0  0  0  0  0
  160.6820  206.9490  154.4280 C   0  0  0  0  0  0  0  0  0  0  0  0
  160.1390  206.2800  155.4740 F   0  0  0  0  0  0  0  0  0  0  0  0
  161.0060  213.3620  145.5820 N   0  0  0  0  0  2  0  0  0  0  0  0
  161.5290  214.3520  147.6310 O   0  0  0  0  0  0  0  0  0  0  0  0
  160.8250  213.5260  146.9870 C   0  0  0  0  0  0  0  0  0  0  0  0
  161.9960  214.1250  144.8390 C   0  0  0  0  0  2  0  0  0  0  0  0
  161.5400  212.4570  143.0610 C   0  0  0  0  0  2  0  0  0  0  0  0
  163.1960  214.1110  142.7260 N   0  0  0  0  0  2  0  0  0  0  0  0
  162.6020  213.2640  143.7460 C   0  0  1  0  0  3  0  0  0  0  0  0
  163.0840  213.4250  141.5000 N   0  0  0  0  0  2  0  0  0  0  0  0
  161.9850  212.4710  141.6230 C   0  0  2  0  0  3  0  0  0  0  0  0
  160.8280  212.8190  140.6810 C   0  0  1  0  0  3  0  0  0  0  0  0
  161.1680  212.5450  139.2210 C   0  0  0  0  0  1  0  0  0  0  0  0
  159.0960  211.7350  139.8310 C   0  0  0  0  0  1  0  0  0  0  0  0
  159.6870  212.0990  141.0410 O   0  0  0  0  0  0  0  0  0  0  0  0
  1 15  2  0  0  0  0
  2 12  1  0  0  0  0
  2  5  1  0  0  0  0
  3  2  2  0  0  0  0
  4  1  1  0  0  0  0
  7  8  2  0  0  0  0
  7  3  1  0  0  0  0
  8 16  1  0  0  0  0
  9  6  1  0  0  0  0
  9 21  1  1  0  0  0
 10  9  1  0  0  0  0
 11 28  1  1  0  0  0
 11 13  1  0  0  0  0
 11 14  1  0  0  0  0
 13  7  1  0  0  0  0
 14  1  1  0  0  0  0
 14  8  1  0  0  0  0
 15  6  1  0  0  0  0
 15 17  1  0  0  0  0
 16 17  1  0  0  0  0
 16 12  2  0  0  0  0
 18  4  1  0  0  0  0
 18 10  1  0  0  0  0
 20 19  2  0  0  0  0
 21 20  1  0  0  0  0
 22 24  2  0  0  0  0
 23 21  2  0  0  0  0
 23 22  1  0  0  0  0
 24 19  1  0  0  0  0
 24 25  1  0  0  0  0
 26 28  1  0  0  0  0
 28 27  2  0  0  0  0
 29 26  1  0  0  0  0
 30 32  1  0  0  0  0
 31 32  1  0  0  0  0
 32 29  1  1  0  0  0
 33 34  1  0  0  0  0
 33 31  1  0  0  0  0
 34 35  1  6  0  0  0
 34 30  1  0  0  0  0
 35 36  1  6  0  0  0
 35 38  1  0  0  0  0
 37 38  1  0  0  0  0
M  END
>  <MODEL>
6

>  <REMARK>
 VINA RESULT:      -5.1      5.808      8.695
  Name = 
  6 active torsions:
  status: ('A' for Active; 'I' for Inactive)
    1  A    between atoms: C_10  and  O_26
    2  A    between atoms: C_10  and  C_36
    3  A    between atoms: C_14  and  C_15
    4  A    between atoms: C_18  and  C_33
    5  A    between atoms: C_19  and  C_20
    6  A    between atoms: C_19  and  N_24
                            x       y       z     vdW  Elec       q    Type
                         _______ _______ _______ _____ _____    ______ ____

>  <TORSDO>
F 6

$$$$
=
 OpenBabel11042422473D

 38 43  0  0  1  0  0  0  0  0999 V2000
  160.9470  212.6410  145.2030 C   0  0  0  0  0  0  0  0  0  0  0  0
  156.8280  214.0020  147.7970 C   0  0  0  0  0  0  0  0  0  0  0  0
  157.9580  214.4190  148.5410 C   0  0  0  0  0  3  0  0  0  0  0  0
  162.3600  212.4860  144.7160 C   0  0  0  0  0  2  0  0  0  0  0  0
  155.5530  214.2740  148.2730 O   0  0  0  0  0  1  0  0  0  0  0  0
  160.1530  211.6160  143.0910 C   0  0  0  0  0  2  0  0  0  0  0  0
  159.2260  214.1180  148.0350 C   0  0  0  0  0  0  0  0  0  0  0  0
  159.3470  213.4460  146.8690 C   0  0  0  0  0  0  0  0  0  0  0  0
  160.7120  212.6130  142.0570 C   0  0  2  0  0  3  0  0  0  0  0  0
  161.5090  213.7930  142.6400 C   0  0  0  0  0  2  0  0  0  0  0  0
  161.5460  213.8710  147.4640 C   0  0  2  0  0  3  0  0  0  0  0  0
  156.9870  213.3190  146.5660 C   0  0  0  0  0  3  0  0  0  0  0  0
  160.5890  214.4530  148.5530 C   0  0  0  0  0  2  0  0  0  0  0  0
  160.6680  213.2470  146.4750 N   0  0  0  0  0  0  0  0  0  0  0  0
  159.9000  212.2340  144.4360 C   0  0  0  0  0  0  0  0  0  0  0  0
  158.2820  213.0480  146.0960 C   0  0  0  0  0  0  0  0  0  0  0  0
  158.5630  212.4150  144.8750 O   0  0  0  0  0  0  0  0  0  0  0  0
  162.7010  213.3810  143.5130 C   0  0  0  0  0  2  0  0  0  0  0  0
  158.6590  213.2610  138.9410 C   0  0  0  0  0  3  0  0  0  0  0  0
  159.6690  212.8090  139.7950 C   0  0  0  0  0  3  0  0  0  0  0  0
  159.6220  213.1100  141.1610 C   0  0  0  0  0  0  0  0  0  0  0  0
  157.5460  214.3180  140.8130 C   0  0  0  0  0  3  0  0  0  0  0  0
  158.5540  213.8670  141.6680 C   0  0  0  0  0  3  0  0  0  0  0  0
  157.5980  214.0150  139.4500 C   0  0  0  0  0  0  0  0  0  0  0  0
  156.6200  214.4520  138.6200 F   0  0  0  0  0  0  0  0  0  0  0  0
  161.9360  211.6020  148.4890 N   0  0  0  0  0  2  0  0  0  0  0  0
  163.6930  213.1120  148.2030 O   0  0  0  0  0  0  0  0  0  0  0  0
  162.4650  212.8560  148.0640 C   0  0  0  0  0  0  0  0  0  0  0  0
  162.7730  210.5780  149.0940 C   0  0  0  0  0  2  0  0  0  0  0  0
  161.4130  208.5950  148.4850 C   0  0  0  0  0  2  0  0  0  0  0  0
  162.7050  208.5730  150.4650 N   0  0  0  0  0  2  0  0  0  0  0  0
  161.9100  209.4440  149.6160 C   0  0  1  0  0  3  0  0  0  0  0  0
  162.1760  207.2730  150.3370 N   0  0  0  0  0  2  0  0  0  0  0  0
  161.4680  207.2050  149.0610 C   0  0  2  0  0  3  0  0  0  0  0  0
  162.1380  206.2230  148.0950 C   0  0  1  0  0  3  0  0  0  0  0  0
  161.6060  204.8040  148.2500 C   0  0  0  0  0  1  0  0  0  0  0  0
  161.4570  205.5400  146.1030 C   0  0  0  0  0  1  0  0  0  0  0  0
  161.9590  206.6530  146.7790 O   0  0  0  0  0  0  0  0  0  0  0  0
  1 14  1  0  0  0  0
  2  5  1  0  0  0  0
  2  3  1  0  0  0  0
  4  1  1  0  0  0  0
  6 15  1  0  0  0  0
  7  3  2  0  0  0  0
  7 13  1  0  0  0  0
  8  7  1  0  0  0  0
  9 21  1  1  0  0  0
  9 10  1  0  0  0  0
  9  6  1  0  0  0  0
 10 18  1  0  0  0  0
 11 28  1  1  0  0  0
 11 13  1  0  0  0  0
 12  2  2  0  0  0  0
 14  8  1  0  0  0  0
 14 11  1  0  0  0  0
 15 17  1  0  0  0  0
 15  1  2  0  0  0  0
 16 12  1  0  0  0  0
 16  8  2  0  0  0  0
 17 16  1  0  0  0  0
 18  4  1  0  0  0  0
 19 24  2  0  0  0  0
 19 20  1  0  0  0  0
 20 21  2  0  0  0  0
 21 23  1  0  0  0  0
 22 23  2  0  0  0  0
 24 22  1  0  0  0  0
 25 24  1  0  0  0  0
 26 29  1  0  0  0  0
 28 27  2  0  0  0  0
 28 26  1  0  0  0  0
 30 34  1  0  0  0  0
 30 32  1  0  0  0  0
 32 29  1  6  0  0  0
 32 31  1  0  0  0  0
 33 31  1  0  0  0  0
 34 35  1  6  0  0  0
 34 33  1  0  0  0  0
 35 36  1  6  0  0  0
 37 38  1  0  0  0  0
 38 35  1  0  0  0  0
M  END
>  <MODEL>
7

>  <REMARK>
 VINA RESULT:      -5.1      6.733     10.620
  Name = 
  6 active torsions:
  status: ('A' for Active; 'I' for Inactive)
    1  A    between atoms: C_10  and  O_26
    2  A    between atoms: C_10  and  C_36
    3  A    between atoms: C_14  and  C_15
    4  A    between atoms: C_18  and  C_33
    5  A    between atoms: C_19  and  C_20
    6  A    between atoms: C_19  and  N_24
                            x       y       z     vdW  Elec       q    Type
                         _______ _______ _______ _____ _____    ______ ____

>  <TORSDO>
F 6

$$$$
=
 OpenBabel11042422473D

 38 43  0  0  1  0  0  0  0  0999 V2000
  161.9040  209.7340  149.8110 C   0  0  0  0  0  0  0  0  0  0  0  0
  160.2750  211.6430  154.1980 C   0  0  0  0  0  0  0  0  0  0  0  0
  159.8600  212.5220  153.1700 C   0  0  0  0  0  3  0  0  0  0  0  0
  162.1320  209.4640  148.3500 C   0  0  0  0  0  2  0  0  0  0  0  0
  159.9370  211.9170  155.5160 O   0  0  0  0  0  1  0  0  0  0  0  0
  163.0070  207.5780  150.3370 C   0  0  0  0  0  2  0  0  0  0  0  0
  160.2290  212.2190  151.8560 C   0  0  0  0  0  0  0  0  0  0  0  0
  160.9630  211.1140  151.5980 C   0  0  0  0  0  0  0  0  0  0  0  0
  162.0830  206.5920  149.5970 C   0  0  2  0  0  3  0  0  0  0  0  0
  160.9030  207.2300  148.8430 C   0  0  0  0  0  2  0  0  0  0  0  0
  160.5840  212.0000  149.4910 C   0  0  2  0  0  3  0  0  0  0  0  0
  161.0250  210.4800  153.8930 C   0  0  0  0  0  3  0  0  0  0  0  0
  159.9150  212.9130  150.5680 C   0  0  0  0  0  2  0  0  0  0  0  0
  161.2260  210.9230  150.2440 N   0  0  0  0  0  0  0  0  0  0  0  0
  162.3140  208.8430  150.7540 C   0  0  0  0  0  0  0  0  0  0  0  0
  161.3630  210.2140  152.5570 C   0  0  0  0  0  0  0  0  0  0  0  0
  162.0660  209.0760  152.1310 O   0  0  0  0  0  0  0  0  0  0  0  0
  161.3110  208.2840  147.8050 C   0  0  0  0  0  2  0  0  0  0  0  0
  160.6730  203.3070  150.8480 C   0  0  0  0  0  3  0  0  0  0  0  0
  161.1300  204.3170  149.9970 C   0  0  0  0  0  3  0  0  0  0  0  0
  161.5950  205.5260  150.5260 C   0  0  0  0  0  0  0  0  0  0  0  0
  161.1430  204.7080  152.7660 C   0  0  0  0  0  3  0  0  0  0  0  0
  161.6000  205.7180  151.9170 C   0  0  0  0  0  3  0  0  0  0  0  0
  160.6790  203.5020  152.2320 C   0  0  0  0  0  0  0  0  0  0  0  0
  160.2350  202.5220  153.0560 F   0  0  0  0  0  0  0  0  0  0  0  0
  161.2510  213.2630  147.4150 N   0  0  0  0  0  2  0  0  0  0  0  0
  162.7480  212.9760  149.1830 O   0  0  0  0  0  0  0  0  0  0  0  0
  161.5970  212.7720  148.7090 C   0  0  0  0  0  0  0  0  0  0  0  0
  162.1960  214.0080  146.5970 C   0  0  0  0  0  2  0  0  0  0  0  0
  162.3770  214.0970  144.1240 C   0  0  0  0  0  2  0  0  0  0  0  0
  160.2710  213.7420  145.1380 N   0  0  0  0  0  2  0  0  0  0  0  0
  161.5280  214.4510  145.3080 C   0  0  1  0  0  3  0  0  0  0  0  0
  160.0600  213.5980  143.7520 N   0  0  0  0  0  2  0  0  0  0  0  0
  161.3600  213.6880  143.0930 C   0  0  2  0  0  3  0  0  0  0  0  0
  161.7430  212.3680  142.4170 C   0  0  1  0  0  3  0  0  0  0  0  0
  160.5290  211.5020  142.1070 C   0  0  0  0  0  1  0  0  0  0  0  0
  161.5420  212.3770  140.2130 C   0  0  0  0  0  1  0  0  0  0  0  0
  162.4530  212.6230  141.2410 O   0  0  0  0  0  0  0  0  0  0  0  0
  1 14  1  0  0  0  0
  1 15  2  0  0  0  0
  2  5  1  0  0  0  0
  3  2  2  0  0  0  0
  4  1  1  0  0  0  0
  6 15  1  0  0  0  0
  7  3  1  0  0  0  0
  8  7  2  0  0  0  0
  8 16  1  0  0  0  0
  9  6  1  0  0  0  0
  9 21  1  1  0  0  0
 10  9  1  0  0  0  0
 11 28  1  1  0  0  0
 11 14  1  0  0  0  0
 11 13  1  0  0  0  0
 12  2  1  0  0  0  0
 13  7  1  0  0  0  0
 14  8  1  0  0  0  0
 15 17  1  0  0  0  0
 16 12  2  0  0  0  0
 17 16  1  0  0  0  0
 18  4  1  0  0  0  0
 18 10  1  0  0  0  0
 19 24  1  0  0  0  0
 20 21  1  0  0  0  0
 20 19  2  0  0  0  0
 21 23  2  0  0  0  0
 23 22  1  0  0  0  0
 24 22  2  0  0  0  0
 24 25  1  0  0  0  0
 26 28  1  0  0  0  0
 28 27  2  0  0  0  0
 29 26  1  0  0  0  0
 30 32  1  0  0  0  0
 31 32  1  0  0  0  0
 32 29  1  1  0  0  0
 33 31  1  0  0  0  0
 34 35  1  1  0  0  0
 34 33  1  0  0  0  0
 34 30  1  0  0  0  0
 35 36  1  6  0  0  0
 37 38  1  0  0  0  0
 38 35  1  0  0  0  0
M  END
>  <MODEL>
8

>  <REMARK>
 VINA RESULT:      -5.0      4.905      8.827
  Name = 
  6 active torsions:
  status: ('A' for Active; 'I' for Inactive)
    1  A    between atoms: C_10  and  O_26
    2  A    between atoms: C_10  and  C_36
    3  A    between atoms: C_14  and  C_15
    4  A    between atoms: C_18  and  C_33
    5  A    between atoms: C_19  and  C_20
    6  A    between atoms: C_19  and  N_24
                            x       y       z     vdW  Elec       q    Type
                         _______ _______ _______ _____ _____    ______ ____

>  <TORSDO>
F 6

$$$$
=
 OpenBabel11042422473D

 38 43  0  0  1  0  0  0  0  0999 V2000
  161.9350  208.0360  149.7680 C   0  0  0  0  0  0  0  0  0  0  0  0
  161.0600  207.9280  154.7450 C   0  0  0  0  0  0  0  0  0  0  0  0
  160.6530  209.1960  154.2670 C   0  0  0  0  0  3  0  0  0  0  0  0
  161.9630  208.4210  148.3150 C   0  0  0  0  0  2  0  0  0  0  0  0
  160.9080  207.6170  156.0890 O   0  0  0  0  0  1  0  0  0  0  0  0
  162.7990  205.7980  149.1470 C   0  0  0  0  0  2  0  0  0  0  0  0
  160.8320  209.4770  152.9100 C   0  0  0  0  0  0  0  0  0  0  0  0
  161.3830  208.5510  152.0940 C   0  0  0  0  0  0  0  0  0  0  0  0
  161.6790  205.3050  148.2110 C   0  0  2  0  0  3  0  0  0  0  0  0
  160.5160  206.2890  147.9950 C   0  0  0  0  0  2  0  0  0  0  0  0
  160.8920  210.2970  150.6530 C   0  0  2  0  0  3  0  0  0  0  0  0
  161.6140  206.9690  153.8610 C   0  0  0  0  0  3  0  0  0  0  0  0
  160.4700  210.6860  152.1060 C   0  0  0  0  0  2  0  0  0  0  0  0
  161.4690  208.9580  150.7660 N   0  0  0  0  0  0  0  0  0  0  0  0
  162.3260  206.7960  150.1650 C   0  0  0  0  0  0  0  0  0  0  0  0
  161.7660  207.2950  152.5040 C   0  0  0  0  0  0  0  0  0  0  0  0
  162.2640  206.4150  151.5300 O   0  0  0  0  0  0  0  0  0  0  0  0
  160.9410  207.6610  147.4550 C   0  0  0  0  0  2  0  0  0  0  0  0
  160.7780  201.6260  148.2010 C   0  0  0  0  0  3  0  0  0  0  0  0
  161.2520  202.8780  147.7980 C   0  0  0  0  0  3  0  0  0  0  0  0
  161.1620  203.9750  148.6620 C   0  0  0  0  0  0  0  0  0  0  0  0
  160.1210  202.5600  150.3370 C   0  0  0  0  0  3  0  0  0  0  0  0
  160.5950  203.8110  149.9350 C   0  0  0  0  0  3  0  0  0  0  0  0
  160.2130  201.4670  149.4700 C   0  0  0  0  0  0  0  0  0  0  0  0
  159.7540  200.2530  149.8590 F   0  0  0  0  0  0  0  0  0  0  0  0
  161.6870  211.8780  148.8580 N   0  0  0  0  0  2  0  0  0  0  0  0
  162.9460  211.5210  150.7920 O   0  0  0  0  0  0  0  0  0  0  0  0
  161.9050  211.2630  150.1270 C   0  0  0  0  0  0  0  0  0  0  0  0
  162.6400  212.8140  148.2830 C   0  0  0  0  0  2  0  0  0  0  0  0
  162.2420  214.0550  146.1720 C   0  0  0  0  0  2  0  0  0  0  0  0
  160.4690  213.7410  147.7050 N   0  0  0  0  0  2  0  0  0  0  0  0
  161.9030  213.9690  147.6300 C   0  0  1  0  0  3  0  0  0  0  0  0
  159.8930  214.3440  146.5690 N   0  0  0  0  0  2  0  0  0  0  0  0
  160.9300  214.4470  145.5460 C   0  0  2  0  0  3  0  0  0  0  0  0
  160.6080  213.5780  144.3270 C   0  0  1  0  0  3  0  0  0  0  0  0
  159.1120  213.3450  144.1600 C   0  0  0  0  0  1  0  0  0  0  0  0
  161.4060  213.1000  142.3190 C   0  0  0  0  0  1  0  0  0  0  0  0
  161.1250  214.1680  143.1710 O   0  0  0  0  0  0  0  0  0  0  0  0
  1 15  2  0  0  0  0
  1 14  1  0  0  0  0
  2  5  1  0  0  0  0
  3  2  1  0  0  0  0
  4  1  1  0  0  0  0
  6 15  1  0  0  0  0
  7  3  2  0  0  0  0
  8 16  2  0  0  0  0
  8  7  1  0  0  0  0
  9 21  1  1  0  0  0
  9  6  1  0  0  0  0
 10  9  1  0  0  0  0
 11 28  1  1  0  0  0
 11 14  1  0  0  0  0
 11 13  1  0  0  0  0
 12  2  2  0  0  0  0
 13  7  1  0  0  0  0
 14  8  1  0  0  0  0
 15 17  1  0  0  0  0
 16 12  1  0  0  0  0
 17 16  1  0  0  0  0
 18 10  1  0  0  0  0
 18  4  1  0  0  0  0
 19 24  1  0  0  0  0
 20 19  2  0  0  0  0
 20 21  1  0  0  0  0
 21 23  2  0  0  0  0
 23 22  1  0  0  0  0
 24 25  1  0  0  0  0
 24 22  2  0  0  0  0
 26 28  1  0  0  0  0
 28 27  2  0  0  0  0
 29 26  1  0  0  0  0
 30 32  1  0  0  0  0
 32 31  1  0  0  0  0
 32 29  1  6  0  0  0
 33 31  1  0  0  0  0
 34 35  1  6  0  0  0
 34 30  1  0  0  0  0
 34 33  1  0  0  0  0
 35 36  1  6  0  0  0
 37 38  1  0  0  0  0
 38 35  1  0  0  0  0
M  END
>  <MODEL>
9

>  <REMARK>
 VINA RESULT:      -4.6      4.476      9.320
  Name = 
  6 active torsions:
  status: ('A' for Active; 'I' for Inactive)
    1  A    between atoms: C_10  and  O_26
    2  A    between atoms: C_10  and  C_36
    3  A    between atoms: C_14  and  C_15
    4  A    between atoms: C_18  and  C_33
    5  A    between atoms: C_19  and  C_20
    6  A    between atoms: C_19  and  N_24
                            x       y       z     vdW  Elec       q    Type
                         _______ _______ _______ _____ _____    ______ ____

>  <TORSDO>
F 6

$$$$
