=
 OpenBabel11052411143D

 26 29  0  0  1  0  0  0  0  0999 V2000
  161.0250  209.0630  152.6930 C   0  0  0  0  0  0  0  0  0  0  0  0
  160.9470  207.2150  154.2980 C   0  0  0  0  0  3  0  0  0  0  0  0
  160.9530  210.5160  152.3470 C   0  0  0  0  0  2  0  0  0  0  0  0
  160.1430  210.8460  154.8490 N   0  0  0  0  0  2  0  0  0  0  0  0
  161.6580  205.6500  151.0500 C   0  0  2  0  0  3  0  0  0  0  0  0
  159.5790  211.1030  152.7030 C   0  0  1  0  0  3  0  0  0  0  0  0
  161.2990  206.7940  151.9410 C   0  0  0  0  0  0  0  0  0  0  0  0
  160.8610  203.1230  150.2460 N   0  0  0  0  0  2  0  0  0  0  0  0
  161.1190  203.3300  151.6130 N   0  0  0  0  0  0  0  0  0  0  0  0
  160.6020  204.2240  149.4030 N   0  0  0  0  0  0  0  0  0  0  0  0
  160.8480  205.4410  149.7970 C   0  0  0  0  0  0  0  0  0  0  0  0
  161.4060  204.5290  152.0080 C   0  0  0  0  0  0  0  0  0  0  0  0
  161.1690  206.3390  153.2400 C   0  0  0  0  0  0  0  0  0  0  0  0
  161.2710  204.9600  153.3210 O   0  0  0  0  0  0  0  0  0  0  0  0
  160.8690  208.5950  154.0340 C   0  0  0  0  0  0  0  0  0  0  0  0
  161.8760  209.6440  156.0530 C   0  0  0  0  0  1  0  0  0  0  0  0
  161.2590  208.1540  151.6480 C   0  0  0  0  0  3  0  0  0  0  0  0
  160.6160  209.5110  155.2170 C   0  0  1  0  0  3  0  0  0  0  0  0
  160.5910  206.5720  148.8650 C   0  0  0  0  0  1  0  0  0  0  0  0
  159.1050  210.7120  153.9780 O   0  0  0  0  0  0  0  0  0  0  0  0
  159.5970  212.6170  152.5610 C   0  0  0  0  0  2  0  0  0  0  0  0
  159.0240  213.0010  151.2830 N   0  0  0  0  0  2  0  0  0  0  0  0
  159.9900  213.8710  150.6360 C   0  0  0  0  0  2  0  0  0  0  0  0
  161.4320  212.6020  149.0500 O   0  0  0  0  0  1  0  0  0  0  0  0
  160.2890  213.3590  149.2720 C   0  0  0  0  0  0  0  0  0  0  0  0
  159.5270  213.6430  148.3130 O   0  0  0  0  0  0  0  0  0  0  0  0
  1 15  1  0  0  0  0
  3  1  1  0  0  0  0
  3  6  1  0  0  0  0
  4 18  1  0  0  0  0
  5 11  1  6  0  0  0
  5  7  1  0  0  0  0
  5 12  1  0  0  0  0
  6 21  1  1  0  0  0
  6 20  1  0  0  0  0
  7 13  2  0  0  0  0
  8  9  1  0  0  0  0
  9 12  2  0  0  0  0
 10 11  2  0  0  0  0
 10  8  1  0  0  0  0
 12 14  1  0  0  0  0
 13 14  1  0  0  0  0
 13  2  1  0  0  0  0
 15  2  2  0  0  0  0
 15 18  1  0  0  0  0
 17  7  1  0  0  0  0
 17  1  2  0  0  0  0
 18 16  1  6  0  0  0
 19 11  1  0  0  0  0
 20  4  1  0  0  0  0
 22 21  1  0  0  0  0
 23 22  1  0  0  0  0
 24 25  1  0  0  0  0
 25 23  1  0  0  0  0
 26 25  2  0  0  0  0
M  END
>  <MODEL>
1

>  <REMARK>
 VINA RESULT:      -8.1      0.000      0.000
  Name = 
  4 active torsions:
  status: ('A' for Active; 'I' for Inactive)
    1  A    between atoms: C_1  and  N_7
    2  A    between atoms: C_1  and  C_10
    3  A    between atoms: N_7  and  C_8
    4  A    between atoms: C_8  and  C_16
                            x       y       z     vdW  Elec       q    Type
                         _______ _______ _______ _____ _____    ______ ____

>  <TORSDO>
F 4

$$$$
=
 OpenBabel11052411143D

 26 29  0  0  1  0  0  0  0  0999 V2000
  161.4580  206.2560  151.8990 C   0  0  0  0  0  0  0  0  0  0  0  0
  160.9910  208.4870  151.0030 C   0  0  0  0  0  3  0  0  0  0  0  0
  161.7490  204.7990  151.7290 C   0  0  0  0  0  2  0  0  0  0  0  0
  161.2010  205.2120  149.1690 N   0  0  0  0  0  2  0  0  0  0  0  0
  161.0750  208.9040  154.6530 C   0  0  2  0  0  3  0  0  0  0  0  0
  160.6010  204.0850  151.0010 C   0  0  1  0  0  3  0  0  0  0  0  0
  161.0820  208.1060  153.3910 C   0  0  0  0  0  0  0  0  0  0  0  0
  159.5980  210.7280  156.1220 N   0  0  0  0  0  2  0  0  0  0  0  0
  159.9810  211.0870  154.8170 N   0  0  0  0  0  0  0  0  0  0  0  0
  159.5880  209.3710  156.5060 N   0  0  0  0  0  0  0  0  0  0  0  0
  160.1670  208.4640  155.7710 C   0  0  0  0  0  0  0  0  0  0  0  0
  160.5950  210.2060  154.0940 C   0  0  0  0  0  0  0  0  0  0  0  0
  160.9130  208.9530  152.3120 C   0  0  0  0  0  0  0  0  0  0  0  0
  160.6540  210.2550  152.7080 O   0  0  0  0  0  0  0  0  0  0  0  0
  161.2620  207.1240  150.7810 C   0  0  0  0  0  0  0  0  0  0  0  0
  162.6260  207.1230  148.6990 C   0  0  0  0  0  1  0  0  0  0  0  0
  161.3830  206.7590  153.2080 C   0  0  0  0  0  3  0  0  0  0  0  0
  161.3280  206.6610  149.3370 C   0  0  1  0  0  3  0  0  0  0  0  0
  160.1620  207.0470  156.2280 C   0  0  0  0  0  1  0  0  0  0  0  0
  160.1160  204.7890  149.8730 O   0  0  0  0  0  0  0  0  0  0  0  0
  161.0070  202.6660  150.6350 C   0  0  0  0  0  2  0  0  0  0  0  0
  160.2000  202.1920  149.5250 N   0  0  0  0  0  2  0  0  0  0  0  0
  161.0080  201.2260  148.8030 C   0  0  0  0  0  2  0  0  0  0  0  0
  160.9720  200.5890  146.3950 O   0  0  0  0  0  0  0  0  0  0  0  0
  161.0460  201.5850  147.3610 C   0  0  0  0  0  0  0  0  0  0  0  0
  161.1830  202.7860  147.0140 O   0  0  0  0  0  1  0  0  0  0  0  0
  1 17  1  0  0  0  0
  2 13  2  0  0  0  0
  3  1  1  0  0  0  0
  4 18  1  0  0  0  0
  4 20  1  0  0  0  0
  5  7  1  6  0  0  0
  5 11  1  0  0  0  0
  6 21  1  6  0  0  0
  6  3  1  0  0  0  0
  8 10  1  0  0  0  0
  9  8  1  0  0  0  0
 11 19  1  0  0  0  0
 11 10  2  0  0  0  0
 12  5  1  0  0  0  0
 12  9  2  0  0  0  0
 13 14  1  0  0  0  0
 13  7  1  0  0  0  0
 14 12  1  0  0  0  0
 15  2  1  0  0  0  0
 15  1  2  0  0  0  0
 17  7  2  0  0  0  0
 18 16  1  1  0  0  0
 18 15  1  0  0  0  0
 20  6  1  0  0  0  0
 22 21  1  0  0  0  0
 23 22  1  0  0  0  0
 24 25  2  0  0  0  0
 25 23  1  0  0  0  0
 26 25  1  0  0  0  0
M  END
>  <MODEL>
2

>  <REMARK>
 VINA RESULT:      -8.0      2.800      7.844
  Name = 
  4 active torsions:
  status: ('A' for Active; 'I' for Inactive)
    1  A    between atoms: C_1  and  N_7
    2  A    between atoms: C_1  and  C_10
    3  A    between atoms: N_7  and  C_8
    4  A    between atoms: C_8  and  C_16
                            x       y       z     vdW  Elec       q    Type
                         _______ _______ _______ _____ _____    ______ ____

>  <TORSDO>
F 4

$$$$
=
 OpenBabel11052411143D

 26 29  0  0  1  0  0  0  0  0999 V2000
  161.0510  208.8620  152.7100 C   0  0  0  0  0  0  0  0  0  0  0  0
  160.9100  206.9860  154.2770 C   0  0  0  0  0  3  0  0  0  0  0  0
  161.0060  210.3230  152.3900 C   0  0  0  0  0  2  0  0  0  0  0  0
  160.1450  210.6170  154.8800 N   0  0  0  0  0  2  0  0  0  0  0  0
  161.6720  205.4730  151.0160 C   0  0  2  0  0  3  0  0  0  0  0  0
  159.6340  210.9230  152.7270 C   0  0  1  0  0  3  0  0  0  0  0  0
  161.3090  206.6040  151.9210 C   0  0  0  0  0  0  0  0  0  0  0  0
  160.8590  202.9730  150.1460 N   0  0  0  0  0  2  0  0  0  0  0  0
  161.0880  203.1510  151.5220 N   0  0  0  0  0  0  0  0  0  0  0  0
  160.6340  204.0930  149.3190 N   0  0  0  0  0  0  0  0  0  0  0  0
  160.8880  205.2990  149.7420 C   0  0  0  0  0  0  0  0  0  0  0  0
  161.3830  204.3370  151.9460 C   0  0  0  0  0  0  0  0  0  0  0  0
  161.1440  206.1270  153.2070 C   0  0  0  0  0  0  0  0  0  0  0  0
  161.2240  204.7450  153.2640 O   0  0  0  0  0  0  0  0  0  0  0  0
  160.8570  208.3720  154.0380 C   0  0  0  0  0  0  0  0  0  0  0  0
  161.8340  209.3670  156.0990 C   0  0  0  0  0  1  0  0  0  0  0  0
  161.2950  207.9700  151.6530 C   0  0  0  0  0  3  0  0  0  0  0  0
  160.5910  209.2680  155.2330 C   0  0  1  0  0  3  0  0  0  0  0  0
  160.6680  206.4520  148.8260 C   0  0  0  0  0  1  0  0  0  0  0  0
  159.1250  210.5140  153.9830 O   0  0  0  0  0  0  0  0  0  0  0  0
  159.6760  212.4390  152.6150 C   0  0  0  0  0  2  0  0  0  0  0  0
  158.3440  212.9530  152.3490 N   0  0  0  0  0  2  0  0  0  0  0  0
  158.0280  213.8710  153.4280 C   0  0  0  0  0  2  0  0  0  0  0  0
  157.1980  212.7720  155.5030 O   0  0  0  0  0  1  0  0  0  0  0  0
  156.9240  213.3130  154.2530 C   0  0  0  0  0  0  0  0  0  0  0  0
  155.7490  213.2980  153.8050 O   0  0  0  0  0  0  0  0  0  0  0  0
  1 15  1  0  0  0  0
  3  1  1  0  0  0  0
  3  6  1  0  0  0  0
  4 18  1  0  0  0  0
  5 11  1  6  0  0  0
  5  7  1  0  0  0  0
  5 12  1  0  0  0  0
  6 21  1  1  0  0  0
  6 20  1  0  0  0  0
  7 13  2  0  0  0  0
  8  9  1  0  0  0  0
  9 12  2  0  0  0  0
 10 11  2  0  0  0  0
 10  8  1  0  0  0  0
 12 14  1  0  0  0  0
 13 14  1  0  0  0  0
 13  2  1  0  0  0  0
 15  2  2  0  0  0  0
 15 18  1  0  0  0  0
 17  7  1  0  0  0  0
 17  1  2  0  0  0  0
 18 16  1  6  0  0  0
 19 11  1  0  0  0  0
 20  4  1  0  0  0  0
 22 21  1  0  0  0  0
 22 23  1  0  0  0  0
 23 25  1  0  0  0  0
 25 24  1  0  0  0  0
 26 25  2  0  0  0  0
M  END
>  <MODEL>
3

>  <REMARK>
 VINA RESULT:      -8.0      1.932      2.437
  Name = 
  4 active torsions:
  status: ('A' for Active; 'I' for Inactive)
    1  A    between atoms: C_1  and  N_7
    2  A    between atoms: C_1  and  C_10
    3  A    between atoms: N_7  and  C_8
    4  A    between atoms: C_8  and  C_16
                            x       y       z     vdW  Elec       q    Type
                         _______ _______ _______ _____ _____    ______ ____

>  <TORSDO>
F 4

$$$$
=
 OpenBabel11052411143D

 26 29  0  0  1  0  0  0  0  0999 V2000
  161.9680  206.3890  150.1010 C   0  0  0  0  0  0  0  0  0  0  0  0
  160.6170  204.4840  150.8350 C   0  0  0  0  0  3  0  0  0  0  0  0
  162.5710  207.7410  150.3130 C   0  0  0  0  0  2  0  0  0  0  0  0
  161.0580  207.8320  152.4870 N   0  0  0  0  0  2  0  0  0  0  0  0
  161.8730  203.5570  147.5090 C   0  0  2  0  0  3  0  0  0  0  0  0
  161.4850  208.8060  150.5230 C   0  0  1  0  0  3  0  0  0  0  0  0
  161.6510  204.4970  148.6480 C   0  0  0  0  0  0  0  0  0  0  0  0
  160.5720  201.9600  145.6590 N   0  0  0  0  0  2  0  0  0  0  0  0
  160.3510  201.7030  147.0240 N   0  0  0  0  0  0  0  0  0  0  0  0
  161.0740  203.2120  145.2490 N   0  0  0  0  0  0  0  0  0  0  0  0
  161.5810  204.0450  146.1140 C   0  0  0  0  0  0  0  0  0  0  0  0
  160.8860  202.5000  147.8920 C   0  0  0  0  0  0  0  0  0  0  0  0
  160.8840  203.8740  149.6130 C   0  0  0  0  0  0  0  0  0  0  0  0
  160.4330  202.6320  149.1980 O   0  0  0  0  0  0  0  0  0  0  0  0
  161.1570  205.7580  151.0930 C   0  0  0  0  0  0  0  0  0  0  0  0
  161.6350  205.7170  153.5340 C   0  0  0  0  0  1  0  0  0  0  0  0
  162.2280  205.7420  148.8810 C   0  0  0  0  0  3  0  0  0  0  0  0
  160.8310  206.3870  152.4350 C   0  0  1  0  0  3  0  0  0  0  0  0
  162.1300  205.3430  145.6370 C   0  0  0  0  0  1  0  0  0  0  0  0
  160.4560  208.4040  151.4090 O   0  0  0  0  0  0  0  0  0  0  0  0
  162.1100  210.1210  150.9620 C   0  0  0  0  0  2  0  0  0  0  0  0
  161.6670  211.1940  150.0900 N   0  0  0  0  0  2  0  0  0  0  0  0
  162.3280  210.9950  148.8140 C   0  0  0  0  0  2  0  0  0  0  0  0
  160.9590  212.2720  147.1710 O   0  0  0  0  0  0  0  0  0  0  0  0
  162.1080  212.1820  147.9460 C   0  0  0  0  0  0  0  0  0  0  0  0
  162.9790  213.0880  147.8860 O   0  0  0  0  0  1  0  0  0  0  0  0
  1  3  1  0  0  0  0
  1 15  1  0  0  0  0
  2 15  2  0  0  0  0
  3  6  1  0  0  0  0
  5 11  1  6  0  0  0
  5 12  1  0  0  0  0
  5  7  1  0  0  0  0
  6 21  1  1  0  0  0
  6 20  1  0  0  0  0
  7 17  1  0  0  0  0
  7 13  2  0  0  0  0
  8  9  1  0  0  0  0
  9 12  2  0  0  0  0
 10  8  1  0  0  0  0
 10 11  2  0  0  0  0
 12 14  1  0  0  0  0
 13  2  1  0  0  0  0
 14 13  1  0  0  0  0
 15 18  1  0  0  0  0
 17  1  2  0  0  0  0
 18  4  1  0  0  0  0
 18 16  1  1  0  0  0
 19 11  1  0  0  0  0
 20  4  1  0  0  0  0
 22 21  1  0  0  0  0
 23 22  1  0  0  0  0
 24 25  2  0  0  0  0
 25 23  1  0  0  0  0
 26 25  1  0  0  0  0
M  END
>  <MODEL>
4

>  <REMARK>
 VINA RESULT:      -7.9      2.958      4.026
  Name = 
  4 active torsions:
  status: ('A' for Active; 'I' for Inactive)
    1  A    between atoms: C_1  and  N_7
    2  A    between atoms: C_1  and  C_10
    3  A    between atoms: N_7  and  C_8
    4  A    between atoms: C_8  and  C_16
                            x       y       z     vdW  Elec       q    Type
                         _______ _______ _______ _____ _____    ______ ____

>  <TORSDO>
F 4

$$$$
=
 OpenBabel11052411143D

 26 29  0  0  1  0  0  0  0  0999 V2000
  161.0300  205.9510  149.3570 C   0  0  0  0  0  0  0  0  0  0  0  0
  161.3430  204.5140  151.3140 C   0  0  0  0  0  3  0  0  0  0  0  0
  160.9550  206.1750  147.8800 C   0  0  0  0  0  2  0  0  0  0  0  0
  161.8360  203.6820  147.6800 N   0  0  0  0  0  2  0  0  0  0  0  0
  160.6420  207.8570  152.6680 C   0  0  2  0  0  3  0  0  0  0  0  0
  162.2830  205.8170  147.1970 C   0  0  1  0  0  3  0  0  0  0  0  0
  160.9330  206.8840  151.5720 C   0  0  0  0  0  0  0  0  0  0  0  0
  161.6310  208.9000  155.0350 N   0  0  0  0  0  2  0  0  0  0  0  0
  161.4130  207.5120  154.9650 N   0  0  0  0  0  0  0  0  0  0  0  0
  161.7530  209.6550  153.8490 N   0  0  0  0  0  0  0  0  0  0  0  0
  161.4150  209.1500  152.6970 C   0  0  0  0  0  0  0  0  0  0  0  0
  161.0340  207.0070  153.8350 C   0  0  0  0  0  0  0  0  0  0  0  0
  161.1570  205.6350  152.1170 C   0  0  0  0  0  0  0  0  0  0  0  0
  161.1850  205.6680  153.5020 O   0  0  0  0  0  0  0  0  0  0  0  0
  161.2840  204.6610  149.9150 C   0  0  0  0  0  0  0  0  0  0  0  0
  160.2710  202.5270  149.1350 C   0  0  0  0  0  1  0  0  0  0  0  0
  160.8360  207.0610  150.1950 C   0  0  0  0  0  3  0  0  0  0  0  0
  161.5020  203.4130  149.0800 C   0  0  1  0  0  3  0  0  0  0  0  0
  161.5280  209.9910  151.4740 C   0  0  0  0  0  1  0  0  0  0  0  0
  162.8440  204.5970  147.6450 O   0  0  0  0  0  0  0  0  0  0  0  0
  162.1220  205.8280  145.6840 C   0  0  0  0  0  2  0  0  0  0  0  0
  160.7240  205.6540  145.3350 N   0  0  0  0  0  2  0  0  0  0  0  0
  160.6890  204.7960  144.1640 C   0  0  0  0  0  2  0  0  0  0  0  0
  160.8210  202.5550  145.2450 O   0  0  0  0  0  1  0  0  0  0  0  0
  160.0850  203.4860  144.5220 C   0  0  0  0  0  0  0  0  0  0  0  0
  158.9200  203.2040  144.1390 O   0  0  0  0  0  0  0  0  0  0  0  0
  1 15  2  0  0  0  0
  1 17  1  0  0  0  0
  2 13  2  0  0  0  0
  3  1  1  0  0  0  0
  4 18  1  0  0  0  0
  5  7  1  6  0  0  0
  5 11  1  0  0  0  0
  5 12  1  0  0  0  0
  6 21  1  6  0  0  0
  6 20  1  0  0  0  0
  6  3  1  0  0  0  0
  7 13  1  0  0  0  0
  9  8  1  0  0  0  0
 10  8  1  0  0  0  0
 11 10  2  0  0  0  0
 12  9  2  0  0  0  0
 13 14  1  0  0  0  0
 14 12  1  0  0  0  0
 15  2  1  0  0  0  0
 17  7  2  0  0  0  0
 18 16  1  6  0  0  0
 18 15  1  0  0  0  0
 19 11  1  0  0  0  0
 20  4  1  0  0  0  0
 22 21  1  0  0  0  0
 23 25  1  0  0  0  0
 23 22  1  0  0  0  0
 25 24  1  0  0  0  0
 26 25  2  0  0  0  0
M  END
>  <MODEL>
5

>  <REMARK>
 VINA RESULT:      -7.9      3.638      7.415
  Name = 
  4 active torsions:
  status: ('A' for Active; 'I' for Inactive)
    1  A    between atoms: C_1  and  N_7
    2  A    between atoms: C_1  and  C_10
    3  A    between atoms: N_7  and  C_8
    4  A    between atoms: C_8  and  C_16
                            x       y       z     vdW  Elec       q    Type
                         _______ _______ _______ _____ _____    ______ ____

>  <TORSDO>
F 4

$$$$
=
 OpenBabel11052411143D

 26 29  0  0  1  0  0  0  0  0999 V2000
  160.7340  206.3870  150.2360 C   0  0  0  0  0  0  0  0  0  0  0  0
  161.4380  205.0030  152.1300 C   0  0  0  0  0  3  0  0  0  0  0  0
  160.4330  206.5850  148.7850 C   0  0  0  0  0  2  0  0  0  0  0  0
  161.4760  204.1690  148.4640 N   0  0  0  0  0  2  0  0  0  0  0  0
  160.6680  208.2950  153.5670 C   0  0  2  0  0  3  0  0  0  0  0  0
  161.6750  206.3260  147.9200 C   0  0  1  0  0  3  0  0  0  0  0  0
  160.8780  207.3360  152.4420 C   0  0  0  0  0  0  0  0  0  0  0  0
  161.8950  209.4430  155.7680 N   0  0  0  0  0  2  0  0  0  0  0  0
  161.7830  208.0420  155.7310 N   0  0  0  0  0  0  0  0  0  0  0  0
  161.7870  210.1910  154.5770 N   0  0  0  0  0  0  0  0  0  0  0  0
  161.3300  209.6460  153.4850 C   0  0  0  0  0  0  0  0  0  0  0  0
  161.2900  207.4940  154.6670 C   0  0  0  0  0  0  0  0  0  0  0  0
  161.2780  206.1150  152.9510 C   0  0  0  0  0  0  0  0  0  0  0  0
  161.4990  206.1670  154.3170 O   0  0  0  0  0  0  0  0  0  0  0  0
  161.1700  205.1280  150.7540 C   0  0  0  0  0  0  0  0  0  0  0  0
  160.2320  202.9100  150.1280 C   0  0  0  0  0  1  0  0  0  0  0  0
  160.5730  207.4880  151.0930 C   0  0  0  0  0  3  0  0  0  0  0  0
  161.3670  203.8910  149.8970 C   0  0  1  0  0  3  0  0  0  0  0  0
  161.2000  210.4780  152.2580 C   0  0  0  0  0  1  0  0  0  0  0  0
  162.3910  205.1610  148.2850 O   0  0  0  0  0  0  0  0  0  0  0  0
  161.3000  206.3060  146.4460 C   0  0  0  0  0  2  0  0  0  0  0  0
  162.3650  205.6920  145.6730 N   0  0  0  0  0  2  0  0  0  0  0  0
  161.7590  205.1830  144.4560 C   0  0  0  0  0  2  0  0  0  0  0  0
  161.4410  202.9520  145.5160 O   0  0  0  0  0  1  0  0  0  0  0  0
  160.9150  204.0010  144.7740 C   0  0  0  0  0  0  0  0  0  0  0  0
  159.7360  203.9350  144.3400 O   0  0  0  0  0  0  0  0  0  0  0  0
  1 15  2  0  0  0  0
  1 17  1  0  0  0  0
  2 13  2  0  0  0  0
  3  1  1  0  0  0  0
  4 18  1  0  0  0  0
  5  7  1  6  0  0  0
  5 12  1  0  0  0  0
  6 21  1  6  0  0  0
  6 20  1  0  0  0  0
  6  3  1  0  0  0  0
  7 13  1  0  0  0  0
  9  8  1  0  0  0  0
 10  8  1  0  0  0  0
 11  5  1  0  0  0  0
 11 10  2  0  0  0  0
 12  9  2  0  0  0  0
 13 14  1  0  0  0  0
 14 12  1  0  0  0  0
 15  2  1  0  0  0  0
 17  7  2  0  0  0  0
 18 16  1  6  0  0  0
 18 15  1  0  0  0  0
 19 11  1  0  0  0  0
 20  4  1  0  0  0  0
 22 21  1  0  0  0  0
 23 25  1  0  0  0  0
 23 22  1  0  0  0  0
 25 24  1  0  0  0  0
 26 25  2  0  0  0  0
M  END
>  <MODEL>
6

>  <REMARK>
 VINA RESULT:      -7.9      3.338      7.110
  Name = 
  4 active torsions:
  status: ('A' for Active; 'I' for Inactive)
    1  A    between atoms: C_1  and  N_7
    2  A    between atoms: C_1  and  C_10
    3  A    between atoms: N_7  and  C_8
    4  A    between atoms: C_8  and  C_16
                            x       y       z     vdW  Elec       q    Type
                         _______ _______ _______ _____ _____    ______ ____

>  <TORSDO>
F 4

$$$$
=
 OpenBabel11052411143D

 26 29  0  0  1  0  0  0  0  0999 V2000
  161.9680  206.4080  150.1550 C   0  0  0  0  0  0  0  0  0  0  0  0
  160.6550  204.4100  150.6850 C   0  0  0  0  0  3  0  0  0  0  0  0
  162.5400  207.7440  150.5060 C   0  0  0  0  0  2  0  0  0  0  0  0
  161.0180  207.5820  152.6700 N   0  0  0  0  0  2  0  0  0  0  0  0
  161.9430  203.8520  147.2900 C   0  0  2  0  0  3  0  0  0  0  0  0
  161.4310  208.7590  150.8170 C   0  0  1  0  0  3  0  0  0  0  0  0
  161.6970  204.6670  148.5170 C   0  0  0  0  0  0  0  0  0  0  0  0
  160.6840  202.4230  145.2800 N   0  0  0  0  0  2  0  0  0  0  0  0
  160.4630  202.0250  146.6110 N   0  0  0  0  0  0  0  0  0  0  0  0
  161.1600  203.7210  145.0020 N   0  0  0  0  0  0  0  0  0  0  0  0
  161.6460  204.4730  145.9490 C   0  0  0  0  0  0  0  0  0  0  0  0
  160.9780  202.7410  147.5580 C   0  0  0  0  0  0  0  0  0  0  0  0
  160.9400  203.9330  149.4090 C   0  0  0  0  0  0  0  0  0  0  0  0
  160.5180  202.7300  148.8680 O   0  0  0  0  0  0  0  0  0  0  0  0
  161.1670  205.6620  151.0730 C   0  0  0  0  0  0  0  0  0  0  0  0
  161.6370  205.3850  153.5010 C   0  0  0  0  0  1  0  0  0  0  0  0
  162.2460  205.8940  148.8780 C   0  0  0  0  0  3  0  0  0  0  0  0
  160.8230  206.1450  152.4700 C   0  0  1  0  0  3  0  0  0  0  0  0
  162.1690  205.8240  145.6090 C   0  0  0  0  0  1  0  0  0  0  0  0
  160.4080  208.2470  151.6510 O   0  0  0  0  0  0  0  0  0  0  0  0
  162.0250  210.0360  151.3910 C   0  0  0  0  0  2  0  0  0  0  0  0
  160.9650  210.9770  151.7070 N   0  0  0  0  0  2  0  0  0  0  0  0
  160.9170  211.0830  153.1530 C   0  0  0  0  0  2  0  0  0  0  0  0
  159.2060  210.8940  154.9540 O   0  0  0  0  0  1  0  0  0  0  0  0
  159.5020  211.0770  153.6090 C   0  0  0  0  0  0  0  0  0  0  0  0
  158.5710  211.2020  152.7720 O   0  0  0  0  0  0  0  0  0  0  0  0
  1  3  1  0  0  0  0
  1 15  1  0  0  0  0
  2 15  2  0  0  0  0
  3  6  1  0  0  0  0
  5 11  1  6  0  0  0
  5 12  1  0  0  0  0
  5  7  1  0  0  0  0
  6 21  1  1  0  0  0
  6 20  1  0  0  0  0
  7 17  1  0  0  0  0
  7 13  2  0  0  0  0
  8  9  1  0  0  0  0
  9 12  2  0  0  0  0
 10  8  1  0  0  0  0
 10 11  2  0  0  0  0
 12 14  1  0  0  0  0
 13  2  1  0  0  0  0
 14 13  1  0  0  0  0
 15 18  1  0  0  0  0
 17  1  2  0  0  0  0
 18  4  1  0  0  0  0
 18 16  1  1  0  0  0
 19 11  1  0  0  0  0
 20  4  1  0  0  0  0
 21 22  1  0  0  0  0
 22 23  1  0  0  0  0
 23 25  1  0  0  0  0
 25 24  1  0  0  0  0
 26 25  2  0  0  0  0
M  END
>  <MODEL>
7

>  <REMARK>
 VINA RESULT:      -7.7      2.861      4.394
  Name = 
  4 active torsions:
  status: ('A' for Active; 'I' for Inactive)
    1  A    between atoms: C_1  and  N_7
    2  A    between atoms: C_1  and  C_10
    3  A    between atoms: N_7  and  C_8
    4  A    between atoms: C_8  and  C_16
                            x       y       z     vdW  Elec       q    Type
                         _______ _______ _______ _____ _____    ______ ____

>  <TORSDO>
F 4

$$$$
=
 OpenBabel11052411143D

 26 29  0  0  1  0  0  0  0  0999 V2000
  161.0900  208.0520  150.5570 C   0  0  0  0  0  0  0  0  0  0  0  0
  162.1520  207.8360  148.3610 C   0  0  0  0  0  3  0  0  0  0  0  0
  160.7260  208.8370  151.7760 C   0  0  0  0  0  2  0  0  0  0  0  0
  162.3440  210.6940  150.7960 N   0  0  0  0  0  2  0  0  0  0  0  0
  160.5920  204.5730  149.0100 C   0  0  2  0  0  3  0  0  0  0  0  0
  161.9800  209.3210  152.5200 C   0  0  1  0  0  3  0  0  0  0  0  0
  161.0220  205.9550  149.3800 C   0  0  0  0  0  0  0  0  0  0  0  0
  161.5200  202.1160  148.1340 N   0  0  0  0  0  2  0  0  0  0  0  0
  161.7670  203.2410  147.3270 N   0  0  0  0  0  0  0  0  0  0  0  0
  161.2070  202.2830  149.4990 N   0  0  0  0  0  0  0  0  0  0  0  0
  160.8860  203.4530  149.9740 C   0  0  0  0  0  0  0  0  0  0  0  0
  161.4140  204.4040  147.7710 C   0  0  0  0  0  0  0  0  0  0  0  0
  161.7270  206.5110  148.3300 C   0  0  0  0  0  0  0  0  0  0  0  0
  161.9490  205.5990  147.3110 O   0  0  0  0  0  0  0  0  0  0  0  0
  161.8400  208.6250  149.4830 C   0  0  0  0  0  0  0  0  0  0  0  0
  161.4880  210.8970  148.5320 C   0  0  0  0  0  1  0  0  0  0  0  0
  160.6670  206.7150  150.4910 C   0  0  0  0  0  3  0  0  0  0  0  0
  162.3320  210.0600  149.4760 C   0  0  1  0  0  3  0  0  0  0  0  0
  160.5300  203.5800  151.4130 C   0  0  0  0  0  1  0  0  0  0  0  0
  162.9740  209.8610  151.6690 O   0  0  0  0  0  0  0  0  0  0  0  0
  161.5990  210.3020  153.6180 C   0  0  0  0  0  2  0  0  0  0  0  0
  160.5510  209.7350  154.4460 N   0  0  0  0  0  2  0  0  0  0  0  0
  161.2040  208.8800  155.4210 C   0  0  0  0  0  2  0  0  0  0  0  0
  160.7740  206.6230  154.4600 O   0  0  0  0  0  0  0  0  0  0  0  0
  160.5280  207.5570  155.4580 C   0  0  0  0  0  0  0  0  0  0  0  0
  159.7050  207.2970  156.3740 O   0  0  0  0  0  1  0  0  0  0  0  0
  1  3  1  0  0  0  0
  2 15  1  0  0  0  0
  3  6  1  0  0  0  0
  4 20  1  0  0  0  0
  5 12  1  6  0  0  0
  5  7  1  0  0  0  0
  5 11  1  0  0  0  0
  6 21  1  1  0  0  0
  7 17  2  0  0  0  0
  8 10  1  0  0  0  0
  9 12  2  0  0  0  0
  9  8  1  0  0  0  0
 10 11  2  0  0  0  0
 11 19  1  0  0  0  0
 13  2  2  0  0  0  0
 13  7  1  0  0  0  0
 14 12  1  0  0  0  0
 14 13  1  0  0  0  0
 15  1  2  0  0  0  0
 17  1  1  0  0  0  0
 18 16  1  6  0  0  0
 18 15  1  0  0  0  0
 18  4  1  0  0  0  0
 20  6  1  0  0  0  0
 21 22  1  0  0  0  0
 22 23  1  0  0  0  0
 23 25  1  0  0  0  0
 24 25  2  0  0  0  0
 25 26  1  0  0  0  0
M  END
>  <MODEL>
8

>  <REMARK>
 VINA RESULT:      -7.3      2.557      5.129
  Name = 
  4 active torsions:
  status: ('A' for Active; 'I' for Inactive)
    1  A    between atoms: C_1  and  N_7
    2  A    between atoms: C_1  and  C_10
    3  A    between atoms: N_7  and  C_8
    4  A    between atoms: C_8  and  C_16
                            x       y       z     vdW  Elec       q    Type
                         _______ _______ _______ _____ _____    ______ ____

>  <TORSDO>
F 4

$$$$
=
 OpenBabel11052411143D

 26 29  0  0  1  0  0  0  0  0999 V2000
  160.8150  207.9800  152.1920 C   0  0  0  0  0  0  0  0  0  0  0  0
  161.2130  207.1420  154.4580 C   0  0  0  0  0  3  0  0  0  0  0  0
  160.8800  207.8460  150.7040 C   0  0  0  0  0  2  0  0  0  0  0  0
  162.3590  205.6990  151.1810 N   0  0  0  0  0  2  0  0  0  0  0  0
  159.5510  210.3890  154.9020 C   0  0  2  0  0  3  0  0  0  0  0  0
  162.3310  207.7160  150.2210 C   0  0  1  0  0  3  0  0  0  0  0  0
  160.2080  209.3140  154.1000 C   0  0  0  0  0  0  0  0  0  0  0  0
  159.9420  212.1500  157.0030 N   0  0  0  0  0  2  0  0  0  0  0  0
  160.0790  210.7740  157.2600 N   0  0  0  0  0  0  0  0  0  0  0  0
  160.0290  212.6310  155.6800 N   0  0  0  0  0  0  0  0  0  0  0  0
  159.9750  211.8150  154.6660 C   0  0  0  0  0  0  0  0  0  0  0  0
  159.9840  209.9510  156.2650 C   0  0  0  0  0  0  0  0  0  0  0  0
  160.6580  208.3200  154.9480 C   0  0  0  0  0  0  0  0  0  0  0  0
  160.4980  208.6620  156.2810 O   0  0  0  0  0  0  0  0  0  0  0  0
  161.3010  206.9590  153.0650 C   0  0  0  0  0  0  0  0  0  0  0  0
  160.9480  204.5140  152.7640 C   0  0  0  0  0  1  0  0  0  0  0  0
  160.2500  209.1530  152.7180 C   0  0  0  0  0  3  0  0  0  0  0  0
  161.9220  205.6630  152.5780 C   0  0  1  0  0  3  0  0  0  0  0  0
  160.0370  212.3670  153.2850 C   0  0  0  0  0  1  0  0  0  0  0  0
  163.1100  206.8180  150.9910 O   0  0  0  0  0  0  0  0  0  0  0  0
  162.3690  207.3530  148.7440 C   0  0  0  0  0  2  0  0  0  0  0  0
  161.1240  206.7120  148.3610 N   0  0  0  0  0  2  0  0  0  0  0  0
  161.3100  206.2090  147.0120 C   0  0  0  0  0  2  0  0  0  0  0  0
  161.5740  204.0770  148.2730 O   0  0  0  0  0  1  0  0  0  0  0  0
  161.5390  204.7400  147.0530 C   0  0  0  0  0  0  0  0  0  0  0  0
  161.7380  204.1050  145.9860 O   0  0  0  0  0  0  0  0  0  0  0  0
  1 17  2  0  0  0  0
  1 15  1  0  0  0  0
  2 13  1  0  0  0  0
  3  1  1  0  0  0  0
  4 18  1  0  0  0  0
  5  7  1  6  0  0  0
  5 12  1  0  0  0  0
  6 21  1  6  0  0  0
  6  3  1  0  0  0  0
  6 20  1  0  0  0  0
  7 13  2  0  0  0  0
  8  9  1  0  0  0  0
 10  8  1  0  0  0  0
 11  5  1  0  0  0  0
 11 10  2  0  0  0  0
 12 14  1  0  0  0  0
 12  9  2  0  0  0  0
 13 14  1  0  0  0  0
 15  2  2  0  0  0  0
 17  7  1  0  0  0  0
 18 16  1  6  0  0  0
 18 15  1  0  0  0  0
 19 11  1  0  0  0  0
 20  4  1  0  0  0  0
 22 21  1  0  0  0  0
 23 25  1  0  0  0  0
 23 22  1  0  0  0  0
 25 24  1  0  0  0  0
 26 25  2  0  0  0  0
M  END
>  <MODEL>
9

>  <REMARK>
 VINA RESULT:      -6.9      2.999      6.795
  Name = 
  4 active torsions:
  status: ('A' for Active; 'I' for Inactive)
    1  A    between atoms: C_1  and  N_7
    2  A    between atoms: C_1  and  C_10
    3  A    between atoms: N_7  and  C_8
    4  A    between atoms: C_8  and  C_16
                            x       y       z     vdW  Elec       q    Type
                         _______ _______ _______ _____ _____    ______ ____

>  <TORSDO>
F 4

$$$$
