=
 OpenBabel11052409513D

 26 29  0  0  1  0  0  0  0  0999 V2000
  159.3090  213.0270  138.4350 C   0  0  1  0  0  3  0  0  0  0  0  0
  155.9150  210.5500  138.5930 S   0  0  0  0  0  0  0  0  0  0  0  0
  160.2110  213.1360  139.4290 C   0  0  1  0  0  3  0  0  0  0  0  0
  155.9300  213.1310  139.8780 C   0  0  2  0  0  3  0  0  0  0  0  0
  159.3900  211.9440  137.3550 C   0  0  1  0  0  3  0  0  0  0  0  0
  159.6990  213.2900  140.8060 C   0  0  0  0  0  0  0  0  0  0  0  0
  155.4740  212.3430  138.6260 C   0  0  0  0  0  2  0  0  0  0  0  0
  157.9670  213.4590  138.6800 N   0  0  0  0  0  2  0  0  0  0  0  0
  162.2520  213.2220  137.9250 C   0  0  0  0  0  1  0  0  0  0  0  0
  155.1810  214.4480  139.9270 C   0  0  0  0  0  1  0  0  0  0  0  0
  158.5130  209.4490  138.5520 C   0  0  0  0  0  2  0  0  0  0  0  0
  161.6380  213.0560  139.2340 N   0  0  0  0  0  0  0  0  0  0  0  0
  160.4210  210.8140  137.5920 C   0  0  0  0  0  2  0  0  0  0  0  0
  160.5680  213.3220  141.8170 C   0  0  0  0  0  3  0  0  0  0  0  0
  162.4890  213.1440  140.3840 C   0  0  0  0  0  3  0  0  0  0  0  0
  158.2260  213.1400  141.0830 C   0  0  0  0  0  2  0  0  0  0  0  0
  161.9850  213.2690  141.5790 N   0  0  0  0  0  0  0  0  0  0  0  0
  157.7200  210.7260  138.3560 C   0  0  1  0  0  3  0  0  0  0  0  0
  157.4050  213.4020  139.8470 C   0  0  2  0  0  3  0  0  0  0  0  0
  158.1010  211.3620  137.1460 O   0  0  0  0  0  0  0  0  0  0  0  0
  159.9760  209.8600  138.7100 C   0  0  2  0  0  3  0  0  0  0  0  0
  161.5390  207.6970  138.7380 C   0  0  0  0  0  0  0  0  0  0  0  0
  160.8330  208.6740  138.7260 C   0  0  0  0  0  0  0  0  0  0  0  0
  162.3620  206.5620  138.7520 N   0  0  0  0  0  2  0  0  0  0  0  0
  163.0090  206.1940  139.8830 O   0  0  0  0  0  0  0  0  0  0  0  0
  162.1430  206.5370  140.9230 C   0  0  0  0  0  1  0  0  0  0  0  0
  1  8  1  1  0  0  0
  1  3  1  0  0  0  0
  2  7  1  0  0  0  0
  3  6  1  1  0  0  0
  4 10  1  6  0  0  0
  5 13  1  1  0  0  0
  5  1  1  0  0  0  0
  6 16  1  0  0  0  0
  6 14  2  0  0  0  0
  7  4  1  0  0  0  0
  8 19  1  0  0  0  0
  9 12  1  0  0  0  0
 11 21  1  0  0  0  0
 12  3  1  0  0  0  0
 12 15  1  0  0  0  0
 13 21  1  0  0  0  0
 15 17  2  0  0  0  0
 17 14  1  0  0  0  0
 18 11  1  6  0  0  0
 18  2  1  0  0  0  0
 19  4  1  0  0  0  0
 19 16  1  1  0  0  0
 20  5  1  0  0  0  0
 20 18  1  0  0  0  0
 21 23  1  6  0  0  0
 22 24  1  0  0  0  0
 23 22  3  0  0  0  0
 24 25  1  0  0  0  0
 25 26  1  0  0  0  0
M  END
>  <MODEL>
1

>  <REMARK>
 VINA RESULT:      -4.0      0.000      0.000
  Name = 
  3 active torsions:
  status: ('A' for Active; 'I' for Inactive)
    1  A    between atoms: C_7  and  N_9
    2  A    between atoms: N_9  and  O_14
    3  A    between atoms: C_12  and  C_26
                            x       y       z     vdW  Elec       q    Type
                         _______ _______ _______ _____ _____    ______ ____

>  <TORSDO>
F 3

$$$$
=
 OpenBabel11052409513D

 26 29  0  0  1  0  0  0  0  0999 V2000
  159.3000  209.9970  154.9670 C   0  0  1  0  0  3  0  0  0  0  0  0
  158.5470  213.4450  157.2520 S   0  0  0  0  0  0  0  0  0  0  0  0
  160.0510  209.9810  153.8490 C   0  0  1  0  0  3  0  0  0  0  0  0
  157.0510  212.9020  154.8490 C   0  0  2  0  0  3  0  0  0  0  0  0
  159.8940  209.8460  156.3700 C   0  0  1  0  0  3  0  0  0  0  0  0
  159.8210  211.0480  152.8540 C   0  0  0  0  0  0  0  0  0  0  0  0
  157.0310  212.8310  156.3940 C   0  0  0  0  0  2  0  0  0  0  0  0
  158.0860  210.7560  154.9640 N   0  0  0  0  0  2  0  0  0  0  0  0
  161.1980  207.7710  154.3330 C   0  0  0  0  0  1  0  0  0  0  0  0
  155.6360  212.7290  154.3320 C   0  0  0  0  0  1  0  0  0  0  0  0
  161.1490  212.3710  157.0640 C   0  0  0  0  0  2  0  0  0  0  0  0
  161.0970  209.0220  153.5960 N   0  0  0  0  0  0  0  0  0  0  0  0
  161.4370  209.9230  156.4730 C   0  0  0  0  0  2  0  0  0  0  0  0
  160.6030  211.1020  151.7750 C   0  0  0  0  0  3  0  0  0  0  0  0
  161.8530  209.1420  152.3840 C   0  0  0  0  0  3  0  0  0  0  0  0
  158.9100  212.2010  153.1810 C   0  0  0  0  0  2  0  0  0  0  0  0
  161.6170  210.1090  151.5440 N   0  0  0  0  0  0  0  0  0  0  0  0
  159.6870  212.0970  156.7740 C   0  0  1  0  0  3  0  0  0  0  0  0
  157.9260  211.8350  154.2620 C   0  0  2  0  0  3  0  0  0  0  0  0
  159.3210  210.8130  157.2540 O   0  0  0  0  0  0  0  0  0  0  0  0
  161.9540  211.3530  156.2580 C   0  0  2  0  0  3  0  0  0  0  0  0
  164.5370  211.4970  156.9160 C   0  0  0  0  0  0  0  0  0  0  0  0
  163.3700  211.4320  156.6180 C   0  0  0  0  0  0  0  0  0  0  0  0
  165.8930  211.5700  157.2610 N   0  0  0  0  0  2  0  0  0  0  0  0
  166.5440  212.7580  157.2520 O   0  0  0  0  0  0  0  0  0  0  0  0
  166.9010  212.9650  155.9190 C   0  0  0  0  0  1  0  0  0  0  0  0
  1  8  1  1  0  0  0
  1  5  1  0  0  0  0
  3  6  1  1  0  0  0
  3  1  1  0  0  0  0
  4 10  1  6  0  0  0
  4  7  1  0  0  0  0
  5 13  1  6  0  0  0
  5 20  1  0  0  0  0
  6 16  1  0  0  0  0
  7  2  1  0  0  0  0
 12  3  1  0  0  0  0
 12  9  1  0  0  0  0
 14  6  2  0  0  0  0
 15 12  1  0  0  0  0
 17 14  1  0  0  0  0
 17 15  2  0  0  0  0
 18 11  1  1  0  0  0
 18  2  1  0  0  0  0
 18 20  1  0  0  0  0
 19 16  1  1  0  0  0
 19  4  1  0  0  0  0
 19  8  1  0  0  0  0
 21 13  1  0  0  0  0
 21 23  1  1  0  0  0
 21 11  1  0  0  0  0
 22 24  1  0  0  0  0
 23 22  3  0  0  0  0
 25 24  1  0  0  0  0
 26 25  1  0  0  0  0
M  END
>  <MODEL>
2

>  <REMARK>
 VINA RESULT:      -3.4     14.424     16.592
  Name = 
  3 active torsions:
  status: ('A' for Active; 'I' for Inactive)
    1  A    between atoms: C_7  and  N_9
    2  A    between atoms: N_9  and  O_14
    3  A    between atoms: C_12  and  C_26
                            x       y       z     vdW  Elec       q    Type
                         _______ _______ _______ _____ _____    ______ ____

>  <TORSDO>
F 3

$$$$
=
 OpenBabel11052409513D

 26 29  0  0  1  0  0  0  0  0999 V2000
  161.7670  209.6510  153.7880 C   0  0  1  0  0  3  0  0  0  0  0  0
  158.6450  210.1420  156.5610 S   0  0  0  0  0  0  0  0  0  0  0  0
  161.6390  209.0050  152.6130 C   0  0  1  0  0  3  0  0  0  0  0  0
  160.1280  207.6740  156.4180 C   0  0  2  0  0  3  0  0  0  0  0  0
  161.4370  211.1370  153.9600 C   0  0  1  0  0  3  0  0  0  0  0  0
  160.9340  207.7070  152.6180 C   0  0  0  0  0  0  0  0  0  0  0  0
  159.9620  209.0080  157.1850 C   0  0  0  0  0  2  0  0  0  0  0  0
  161.5970  208.9070  154.9980 N   0  0  0  0  0  2  0  0  0  0  0  0
  163.0610  210.6190  151.2680 C   0  0  0  0  0  1  0  0  0  0  0  0
  160.9550  206.7240  157.2600 C   0  0  0  0  0  1  0  0  0  0  0  0
  158.5450  211.3870  154.0300 C   0  0  0  0  0  2  0  0  0  0  0  0
  162.0970  209.5310  151.3510 N   0  0  0  0  0  0  0  0  0  0  0  0
  160.7060  211.8180  152.7780 C   0  0  0  0  0  2  0  0  0  0  0  0
  160.7240  207.0840  151.4580 C   0  0  0  0  0  3  0  0  0  0  0  0
  161.8600  208.7610  150.1650 C   0  0  0  0  0  3  0  0  0  0  0  0
  160.2330  207.2350  153.8640 C   0  0  0  0  0  2  0  0  0  0  0  0
  161.2230  207.6270  150.2230 N   0  0  0  0  0  0  0  0  0  0  0  0
  159.4470  210.6440  154.9960 C   0  0  1  0  0  3  0  0  0  0  0  0
  160.8070  207.8830  155.0970 C   0  0  2  0  0  3  0  0  0  0  0  0
  160.6760  211.3360  155.1540 O   0  0  0  0  0  0  0  0  0  0  0  0
  159.2430  211.3640  152.6710 C   0  0  2  0  0  3  0  0  0  0  0  0
  157.9290  212.9130  150.9400 C   0  0  0  0  0  0  0  0  0  0  0  0
  158.5230  212.2130  151.7220 C   0  0  0  0  0  0  0  0  0  0  0  0
  157.2390  213.7290  150.0330 N   0  0  0  0  0  2  0  0  0  0  0  0
  156.4640  213.1820  149.0650 O   0  0  0  0  0  0  0  0  0  0  0  0
  157.3370  212.9290  148.0050 C   0  0  0  0  0  1  0  0  0  0  0  0
  1  5  1  0  0  0  0
  1  8  1  1  0  0  0
  2  7  1  0  0  0  0
  3  6  1  6  0  0  0
  3  1  1  0  0  0  0
  4  7  1  0  0  0  0
  4 10  1  1  0  0  0
  5 13  1  6  0  0  0
  5 20  1  0  0  0  0
  6 16  1  0  0  0  0
  8 19  1  0  0  0  0
  9 12  1  0  0  0  0
 12  3  1  0  0  0  0
 14  6  2  0  0  0  0
 15 17  2  0  0  0  0
 15 12  1  0  0  0  0
 17 14  1  0  0  0  0
 18 11  1  1  0  0  0
 18 20  1  0  0  0  0
 18  2  1  0  0  0  0
 19 16  1  6  0  0  0
 19  4  1  0  0  0  0
 21 23  1  6  0  0  0
 21 13  1  0  0  0  0
 21 11  1  0  0  0  0
 22 23  3  0  0  0  0
 24 22  1  0  0  0  0
 25 24  1  0  0  0  0
 26 25  1  0  0  0  0
M  END
>  <MODEL>
3

>  <REMARK>
 VINA RESULT:      -3.3     12.588     15.128
  Name = 
  3 active torsions:
  status: ('A' for Active; 'I' for Inactive)
    1  A    between atoms: C_7  and  N_9
    2  A    between atoms: N_9  and  O_14
    3  A    between atoms: C_12  and  C_26
                            x       y       z     vdW  Elec       q    Type
                         _______ _______ _______ _____ _____    ______ ____

>  <TORSDO>
F 3

$$$$
=
 OpenBabel11052409513D

 26 29  0  0  1  0  0  0  0  0999 V2000
  160.3370  211.5910  155.7840 C   0  0  1  0  0  3  0  0  0  0  0  0
  157.0720  212.2440  153.2170 S   0  0  0  0  0  0  0  0  0  0  0  0
  160.6760  210.3870  156.2840 C   0  0  1  0  0  3  0  0  0  0  0  0
  156.6970  212.0150  156.0660 C   0  0  2  0  0  3  0  0  0  0  0  0
  160.8230  212.0920  154.4210 C   0  0  1  0  0  3  0  0  0  0  0  0
  159.5940  209.5430  156.8310 C   0  0  0  0  0  0  0  0  0  0  0  0
  156.8160  213.0030  154.8810 C   0  0  0  0  0  2  0  0  0  0  0  0
  159.0770  212.1560  156.1580 N   0  0  0  0  0  2  0  0  0  0  0  0
  163.1820  210.6990  156.0490 C   0  0  0  0  0  1  0  0  0  0  0  0
  156.1230  212.7500  157.2610 C   0  0  0  0  0  1  0  0  0  0  0  0
  159.2870  210.7080  152.3830 C   0  0  0  0  0  2  0  0  0  0  0  0
  162.0160  209.8550  156.2640 N   0  0  0  0  0  0  0  0  0  0  0  0
  161.5270  211.0490  153.5180 C   0  0  0  0  0  2  0  0  0  0  0  0
  159.8900  208.3160  157.2610 C   0  0  0  0  0  3  0  0  0  0  0  0
  162.2350  208.5400  156.7910 C   0  0  0  0  0  3  0  0  0  0  0  0
  158.1560  209.9540  156.6570 C   0  0  0  0  0  2  0  0  0  0  0  0
  161.2440  207.8330  157.2520 N   0  0  0  0  0  0  0  0  0  0  0  0
  158.7860  211.6530  153.4570 C   0  0  1  0  0  3  0  0  0  0  0  0
  158.0320  211.4390  156.4350 C   0  0  2  0  0  3  0  0  0  0  0  0
  159.7380  212.6770  153.6960 O   0  0  0  0  0  0  0  0  0  0  0  0
  160.5350  210.0280  152.9430 C   0  0  2  0  0  3  0  0  0  0  0  0
  161.7200  208.5740  151.0450 C   0  0  0  0  0  0  0  0  0  0  0  0
  161.1840  209.2310  151.9020 C   0  0  0  0  0  0  0  0  0  0  0  0
  162.3420  207.8080  150.0490 N   0  0  0  0  0  2  0  0  0  0  0  0
  161.7390  207.6130  148.8520 O   0  0  0  0  0  0  0  0  0  0  0  0
  160.8310  206.5750  149.0700 C   0  0  0  0  0  1  0  0  0  0  0  0
  1  8  1  6  0  0  0
  1  3  1  0  0  0  0
  2 18  1  0  0  0  0
  2  7  1  0  0  0  0
  3  6  1  6  0  0  0
  4 19  1  0  0  0  0
  4 10  1  1  0  0  0
  5 13  1  6  0  0  0
  5  1  1  0  0  0  0
  6 14  2  0  0  0  0
  7  4  1  0  0  0  0
  8 19  1  0  0  0  0
  9 12  1  0  0  0  0
 11 21  1  0  0  0  0
 12  3  1  0  0  0  0
 12 15  1  0  0  0  0
 15 17  2  0  0  0  0
 16  6  1  0  0  0  0
 17 14  1  0  0  0  0
 18 11  1  6  0  0  0
 18 20  1  0  0  0  0
 19 16  1  6  0  0  0
 20  5  1  0  0  0  0
 21 23  1  6  0  0  0
 21 13  1  0  0  0  0
 22 23  3  0  0  0  0
 24 22  1  0  0  0  0
 25 26  1  0  0  0  0
 25 24  1  0  0  0  0
M  END
>  <MODEL>
4

>  <REMARK>
 VINA RESULT:      -2.5     13.696     15.550
  Name = 
  3 active torsions:
  status: ('A' for Active; 'I' for Inactive)
    1  A    between atoms: C_7  and  N_9
    2  A    between atoms: N_9  and  O_14
    3  A    between atoms: C_12  and  C_26
                            x       y       z     vdW  Elec       q    Type
                         _______ _______ _______ _____ _____    ______ ____

>  <TORSDO>
F 3

$$$$
=
 OpenBabel11052409513D

 26 29  0  0  1  0  0  0  0  0999 V2000
  161.2040  211.2630  153.0910 C   0  0  1  0  0  3  0  0  0  0  0  0
  161.5710  210.6280  148.9510 S   0  0  0  0  0  0  0  0  0  0  0  0
  160.1040  210.9610  153.8070 C   0  0  1  0  0  3  0  0  0  0  0  0
  160.1790  212.9320  149.9810 C   0  0  2  0  0  3  0  0  0  0  0  0
  162.3140  210.2470  152.8040 C   0  0  1  0  0  3  0  0  0  0  0  0
  158.7940  211.3550  153.2490 C   0  0  0  0  0  0  0  0  0  0  0  0
  161.5110  212.4230  149.3800 C   0  0  0  0  0  2  0  0  0  0  0  0
  161.1050  212.2680  152.0770 N   0  0  0  0  0  2  0  0  0  0  0  0
  161.3440  210.0740  155.8340 C   0  0  0  0  0  1  0  0  0  0  0  0
  160.1620  214.4470  149.9190 C   0  0  0  0  0  1  0  0  0  0  0  0
  161.3460  208.4550  150.7370 C   0  0  0  0  0  2  0  0  0  0  0  0
  160.1280  210.2300  155.0500 N   0  0  0  0  0  0  0  0  0  0  0  0
  162.0050  208.7740  153.1630 C   0  0  0  0  0  2  0  0  0  0  0  0
  157.6850  211.0000  153.8990 C   0  0  0  0  0  3  0  0  0  0  0  0
  158.8800  209.9360  155.6910 C   0  0  0  0  0  3  0  0  0  0  0  0
  158.7050  211.9040  151.8500 C   0  0  0  0  0  2  0  0  0  0  0  0
  157.7520  210.2970  155.1510 N   0  0  0  0  0  0  0  0  0  0  0  0
  161.5790  209.9500  150.6500 C   0  0  1  0  0  3  0  0  0  0  0  0
  160.0180  212.4940  151.4060 C   0  0  2  0  0  3  0  0  0  0  0  0
  162.7040  210.3200  151.4310 O   0  0  0  0  0  0  0  0  0  0  0  0
  160.9930  208.1490  152.1910 C   0  0  2  0  0  3  0  0  0  0  0  0
  160.8730  205.5100  152.5720 C   0  0  0  0  0  0  0  0  0  0  0  0
  160.9270  206.7020  152.4000 C   0  0  0  0  0  0  0  0  0  0  0  0
  160.8110  204.1240  152.7740 N   0  0  0  0  0  2  0  0  0  0  0  0
  161.4600  203.2760  151.9420 O   0  0  0  0  0  0  0  0  0  0  0  0
  160.8310  203.4310  150.7060 C   0  0  0  0  0  1  0  0  0  0  0  0
  1  8  1  6  0  0  0
  1  3  1  0  0  0  0
  2  7  1  0  0  0  0
  2 18  1  0  0  0  0
  3  6  1  6  0  0  0
  3 12  1  0  0  0  0
  4 10  1  1  0  0  0
  4 19  1  0  0  0  0
  5  1  1  0  0  0  0
  5 13  1  6  0  0  0
  6 14  2  0  0  0  0
  7  4  1  0  0  0  0
 11 21  1  0  0  0  0
 12 15  1  0  0  0  0
 12  9  1  0  0  0  0
 14 17  1  0  0  0  0
 16  6  1  0  0  0  0
 17 15  2  0  0  0  0
 18 11  1  6  0  0  0
 18 20  1  0  0  0  0
 19 16  1  6  0  0  0
 19  8  1  0  0  0  0
 20  5  1  0  0  0  0
 21 23  1  6  0  0  0
 21 13  1  0  0  0  0
 22 24  1  0  0  0  0
 23 22  3  0  0  0  0
 25 24  1  0  0  0  0
 26 25  1  0  0  0  0
M  END
>  <MODEL>
5

>  <REMARK>
 VINA RESULT:      -2.3     11.666     13.713
  Name = 
  3 active torsions:
  status: ('A' for Active; 'I' for Inactive)
    1  A    between atoms: C_7  and  N_9
    2  A    between atoms: N_9  and  O_14
    3  A    between atoms: C_12  and  C_26
                            x       y       z     vdW  Elec       q    Type
                         _______ _______ _______ _____ _____    ______ ____

>  <TORSDO>
F 3

$$$$
=
 OpenBabel11052409513D

 26 29  0  0  1  0  0  0  0  0999 V2000
  158.8170  210.7650  154.9310 C   0  0  1  0  0  3  0  0  0  0  0  0
  161.4880  208.0500  153.1480 S   0  0  0  0  0  0  0  0  0  0  0  0
  159.1760  211.9680  155.4160 C   0  0  1  0  0  3  0  0  0  0  0  0
  161.2810  208.2620  156.0160 C   0  0  2  0  0  3  0  0  0  0  0  0
  158.4450  210.5380  153.4630 C   0  0  1  0  0  3  0  0  0  0  0  0
  160.3920  212.0360  156.2520 C   0  0  0  0  0  0  0  0  0  0  0  0
  160.8550  207.4430  154.7730 C   0  0  0  0  0  2  0  0  0  0  0  0
  159.3550  209.5910  155.5480 N   0  0  0  0  0  2  0  0  0  0  0  0
  157.1230  213.2090  154.5910 C   0  0  0  0  0  1  0  0  0  0  0  0
  161.0100  207.4400  157.2600 C   0  0  0  0  0  1  0  0  0  0  0  0
  160.9080  210.5270  151.9280 C   0  0  0  0  0  2  0  0  0  0  0  0
  158.4780  213.1950  155.1240 N   0  0  0  0  0  0  0  0  0  0  0  0
  158.7370  211.7080  152.4920 C   0  0  0  0  0  2  0  0  0  0  0  0
  160.8140  213.2260  156.6810 C   0  0  0  0  0  3  0  0  0  0  0  0
  158.9890  214.4180  155.6700 C   0  0  0  0  0  3  0  0  0  0  0  0
  161.2820  210.8280  156.3870 C   0  0  0  0  0  2  0  0  0  0  0  0
  160.0730  214.4240  156.3920 N   0  0  0  0  0  0  0  0  0  0  0  0
  160.4820  209.5730  153.0250 C   0  0  1  0  0  3  0  0  0  0  0  0
  160.5270  209.5550  156.1030 C   0  0  2  0  0  3  0  0  0  0  0  0
  159.0810  209.3550  152.9720 O   0  0  0  0  0  0  0  0  0  0  0  0
  160.2420  211.8690  152.2290 C   0  0  2  0  0  3  0  0  0  0  0  0
  160.6380  213.5640  150.2060 C   0  0  0  0  0  0  0  0  0  0  0  0
  160.4590  212.7990  151.1200 C   0  0  0  0  0  0  0  0  0  0  0  0
  160.8460  214.4530  149.1430 N   0  0  0  0  0  2  0  0  0  0  0  0
  162.0050  214.4310  148.4420 O   0  0  0  0  0  0  0  0  0  0  0  0
  161.9780  213.2250  147.7390 C   0  0  0  0  0  1  0  0  0  0  0  0
  1  3  1  0  0  0  0
  1  8  1  6  0  0  0
  2  7  1  0  0  0  0
  3  6  1  6  0  0  0
  4 19  1  0  0  0  0
  4 10  1  1  0  0  0
  5 13  1  6  0  0  0
  5  1  1  0  0  0  0
  6 16  1  0  0  0  0
  6 14  2  0  0  0  0
  7  4  1  0  0  0  0
  8 19  1  0  0  0  0
  9 12  1  0  0  0  0
 11 21  1  0  0  0  0
 12  3  1  0  0  0  0
 12 15  1  0  0  0  0
 15 17  2  0  0  0  0
 17 14  1  0  0  0  0
 18 11  1  6  0  0  0
 18  2  1  0  0  0  0
 19 16  1  6  0  0  0
 20 18  1  0  0  0  0
 20  5  1  0  0  0  0
 21 23  1  6  0  0  0
 21 13  1  0  0  0  0
 22 23  3  0  0  0  0
 24 22  1  0  0  0  0
 25 24  1  0  0  0  0
 26 25  1  0  0  0  0
M  END
>  <MODEL>
6

>  <REMARK>
 VINA RESULT:      -2.2     13.019     15.464
  Name = 
  3 active torsions:
  status: ('A' for Active; 'I' for Inactive)
    1  A    between atoms: C_7  and  N_9
    2  A    between atoms: N_9  and  O_14
    3  A    between atoms: C_12  and  C_26
                            x       y       z     vdW  Elec       q    Type
                         _______ _______ _______ _____ _____    ______ ____

>  <TORSDO>
F 3

$$$$
=
 OpenBabel11052409513D

 26 29  0  0  1  0  0  0  0  0999 V2000
  160.2000  214.2160  146.9040 C   0  0  1  0  0  3  0  0  0  0  0  0
  163.7880  212.7520  145.2720 S   0  0  0  0  0  0  0  0  0  0  0  0
  159.0880  213.4750  147.0710 C   0  0  1  0  0  3  0  0  0  0  0  0
  161.5960  213.5360  143.5730 C   0  0  2  0  0  3  0  0  0  0  0  0
  161.3220  214.2770  147.9450 C   0  0  1  0  0  3  0  0  0  0  0  0
  158.6650  212.6120  145.9490 C   0  0  0  0  0  0  0  0  0  0  0  0
  162.9600  213.9710  144.1600 C   0  0  0  0  0  2  0  0  0  0  0  0
  160.6720  214.4500  145.5740 N   0  0  0  0  0  2  0  0  0  0  0  0
  158.4550  214.4500  149.3250 C   0  0  0  0  0  1  0  0  0  0  0  0
  161.2460  214.4520  142.4170 C   0  0  0  0  0  1  0  0  0  0  0  0
  162.8290  211.8040  147.7510 C   0  0  0  0  0  2  0  0  0  0  0  0
  158.3240  213.4320  148.2930 N   0  0  0  0  0  0  0  0  0  0  0  0
  161.2430  213.2490  149.1000 C   0  0  0  0  0  2  0  0  0  0  0  0
  157.6130  211.8090  146.1150 C   0  0  0  0  0  3  0  0  0  0  0  0
  157.1830  212.5670  148.3540 C   0  0  0  0  0  3  0  0  0  0  0  0
  159.5590  212.4440  144.7490 C   0  0  0  0  0  2  0  0  0  0  0  0
  156.8600  211.8180  147.3390 N   0  0  0  0  0  0  0  0  0  0  0  0
  162.6470  212.8770  146.6970 C   0  0  1  0  0  3  0  0  0  0  0  0
  160.5090  213.6040  144.6040 C   0  0  2  0  0  3  0  0  0  0  0  0
  162.5950  214.1590  147.3030 O   0  0  0  0  0  0  0  0  0  0  0  0
  161.5750  211.8280  148.6230 C   0  0  2  0  0  3  0  0  0  0  0  0
  161.8870  210.2110  150.7230 C   0  0  0  0  0  0  0  0  0  0  0  0
  161.7460  210.9410  149.7750 C   0  0  0  0  0  0  0  0  0  0  0  0
  162.0540  209.3620  151.8270 N   0  0  0  0  0  2  0  0  0  0  0  0
  161.6030  208.0860  151.7900 O   0  0  0  0  0  0  0  0  0  0  0  0
  162.4390  207.4340  150.8820 C   0  0  0  0  0  1  0  0  0  0  0  0
  1  8  1  6  0  0  0
  1  3  1  0  0  0  0
  1  5  1  0  0  0  0
  2 18  1  0  0  0  0
  3  6  1  1  0  0  0
  3 12  1  0  0  0  0
  4 10  1  6  0  0  0
  4  7  1  0  0  0  0
  4 19  1  0  0  0  0
  5 13  1  1  0  0  0
  6 14  2  0  0  0  0
  7  2  1  0  0  0  0
 11 21  1  0  0  0  0
 12 15  1  0  0  0  0
 12  9  1  0  0  0  0
 14 17  1  0  0  0  0
 16  6  1  0  0  0  0
 17 15  2  0  0  0  0
 18 20  1  0  0  0  0
 18 11  1  1  0  0  0
 19 16  1  1  0  0  0
 19  8  1  0  0  0  0
 20  5  1  0  0  0  0
 21 13  1  0  0  0  0
 21 23  1  1  0  0  0
 22 24  1  0  0  0  0
 23 22  3  0  0  0  0
 25 24  1  0  0  0  0
 26 25  1  0  0  0  0
M  END
>  <MODEL>
7

>  <REMARK>
 VINA RESULT:      -2.1      7.256      9.578
  Name = 
  3 active torsions:
  status: ('A' for Active; 'I' for Inactive)
    1  A    between atoms: C_7  and  N_9
    2  A    between atoms: N_9  and  O_14
    3  A    between atoms: C_12  and  C_26
                            x       y       z     vdW  Elec       q    Type
                         _______ _______ _______ _____ _____    ______ ____

>  <TORSDO>
F 3

$$$$
