=
 OpenBabel11042421373D

 45 51  0  0  1  0  0  0  0  0999 V2000
  159.3670  207.4730  155.5590 O   0  0  0  0  0  0  0  0  0  0  0  0
  161.1260  209.0230  154.9750 C   0  0  2  0  0  3  0  0  0  0  0  0
  161.2930  210.3270  155.3500 C   0  0  2  0  0  3  0  0  0  0  0  0
  161.4530  207.3950  150.3300 O   0  0  0  0  0  0  0  0  0  0  0  0
  161.2390  205.6440  151.9010 C   0  0  0  0  0  3  0  0  0  0  0  0
  161.4080  206.0090  154.3280 C   0  0  0  0  0  1  0  0  0  0  0  0
  161.6730  210.2780  153.2610 C   0  0  0  0  0  0  0  0  0  0  0  0
  161.3930  208.9710  153.6180 C   0  0  0  0  0  0  0  0  0  0  0  0
  161.8460  210.6550  151.9340 C   0  0  0  0  0  3  0  0  0  0  0  0
  160.4400  210.7000  156.5200 C   0  0  0  0  0  3  0  0  0  0  0  0
  161.7500  209.6680  150.9410 C   0  0  0  0  0  0  0  0  0  0  0  0
  161.3020  206.0960  150.5790 C   0  0  0  0  0  0  0  0  0  0  0  0
  161.5860  211.1310  154.3060 N   0  0  0  0  0  2  0  0  0  0  0  0
  159.6170  209.5050  156.7290 N   0  0  0  0  0  0  0  0  0  0  0  0
  160.0100  208.5340  155.7640 C   0  0  0  0  0  0  0  0  0  0  0  0
  161.2830  206.5600  152.9490 C   0  0  0  0  0  0  0  0  0  0  0  0
  161.3620  207.9380  152.6560 C   0  0  0  0  0  0  0  0  0  0  0  0
  161.5120  208.3160  151.2900 C   0  0  2  0  0  3  0  0  0  0  0  0
  161.1390  203.4140  147.2710 C   0  0  0  0  0  0  0  0  0  0  0  0
  161.3390  205.6190  148.1740 N   0  0  0  0  0  0  0  0  0  0  0  0
  161.0290  202.9030  148.5780 C   0  0  0  0  0  0  0  0  0  0  0  0
  161.0960  202.5200  146.0620 C   0  0  0  0  0  2  0  0  0  0  0  0
  161.2360  205.1500  149.4500 C   0  0  0  0  0  0  0  0  0  0  0  0
  160.9800  201.0580  146.4010 C   0  0  0  0  0  0  0  0  0  0  0  0
  160.8660  201.4620  148.8090 C   0  0  0  0  0  3  0  0  0  0  0  0
  161.2920  204.7910  147.0950 C   0  0  0  0  0  3  0  0  0  0  0  0
  160.8450  200.5990  147.7940 C   0  0  0  0  0  3  0  0  0  0  0  0
  161.0760  203.7740  149.6680 C   0  0  0  0  0  3  0  0  0  0  0  0
  160.9980  200.2080  145.4740 O   0  0  0  0  0  0  0  0  0  0  0  0
  161.9530  210.0660  149.5180 C   0  0  0  0  0  2  0  0  0  0  0  0
  161.5610  211.4550  149.3400 N   0  0  0  0  0  2  0  0  0  0  0  0
  162.0330  211.8690  148.0280 C   0  0  2  0  0  3  0  0  0  0  0  0
  163.3930  212.5410  148.1580 C   0  0  0  0  0  1  0  0  0  0  0  0
  160.9820  212.7590  147.3470 C   0  0  2  0  0  3  0  0  0  0  0  0
  162.1320  213.1360  145.1620 C   0  0  0  0  0  3  0  0  0  0  0  0
  160.9980  212.6900  145.8480 C   0  0  0  0  0  0  0  0  0  0  0  0
  159.9530  212.1330  143.7280 C   0  0  0  0  0  3  0  0  0  0  0  0
  159.9060  212.1880  145.1240 C   0  0  0  0  0  3  0  0  0  0  0  0
  162.1800  213.0790  143.7670 C   0  0  0  0  0  3  0  0  0  0  0  0
  161.0910  212.5730  143.0370 C   0  0  0  0  0  0  0  0  0  0  0  0
  161.1340  212.5040  141.6030 N   0  0  0  0  0  0  0  0  0  0  0  0
  160.1670  213.0990  140.8640 O   0  0  0  0  0  1  0  0  0  0  0  0
  162.1790  211.7630  140.9100 C   0  0  0  0  0  1  0  0  0  0  0  0
  159.7890  214.2960  148.7880 O   0  0  0  0  0  1  0  0  0  0  0  0
  160.8630  214.1830  147.9030 C   0  0  0  0  0  2  0  0  0  0  0  0
  1 15  2  0  0  0  0
  2  8  1  6  0  0  0
  2  3  1  0  0  0  0
  2 15  1  0  0  0  0
  3 10  1  6  0  0  0
  4 12  1  0  0  0  0
  5 16  1  0  0  0  0
  7  8  2  0  0  0  0
  7 13  1  0  0  0  0
  9  7  1  0  0  0  0
 10 14  2  0  0  0  0
 11 18  1  0  0  0  0
 11  9  2  0  0  0  0
 12  5  2  0  0  0  0
 13  3  1  0  0  0  0
 15 14  1  0  0  0  0
 16  6  1  0  0  0  0
 17 16  2  0  0  0  0
 17  8  1  0  0  0  0
 18  4  1  1  0  0  0
 18 17  1  0  0  0  0
 19 21  1  0  0  0  0
 20 23  2  0  0  0  0
 21 25  1  0  0  0  0
 21 28  2  0  0  0  0
 22 24  1  0  0  0  0
 22 19  1  0  0  0  0
 23 28  1  0  0  0  0
 23 12  1  0  0  0  0
 24 27  1  0  0  0  0
 26 19  2  0  0  0  0
 26 20  1  0  0  0  0
 27 25  2  0  0  0  0
 29 24  2  0  0  0  0
 30 11  1  0  0  0  0
 31 30  1  0  0  0  0
 32 33  1  1  0  0  0
 32 31  1  0  0  0  0
 34 45  1  6  0  0  0
 34 32  1  0  0  0  0
 35 36  1  0  0  0  0
 36 34  1  0  0  0  0
 37 38  1  0  0  0  0
 38 36  2  0  0  0  0
 39 35  2  0  0  0  0
 40 37  2  0  0  0  0
 40 39  1  0  0  0  0
 41 40  1  0  0  0  0
 42 41  1  0  0  0  0
 43 41  1  0  0  0  0
 45 44  1  0  0  0  0
M  END
>  <MODEL>
1

>  <REMARK>
 VINA RESULT:      -9.8      0.000      0.000
  Name = 
  8 active torsions:
  status: ('A' for Active; 'I' for Inactive)
    1  A    between atoms: C_1  and  C_12
    2  A    between atoms: C_1  and  N_30
    3  A    between atoms: C_9  and  C_12
    4  A    between atoms: C_12  and  C_31
    5  A    between atoms: N_16  and  C_43
    6  A    between atoms: C_17  and  C_28
    7  A    between atoms: C_24  and  C_33
    8  A    between atoms: N_30  and  C_33
                            x       y       z     vdW  Elec       q    Type
                         _______ _______ _______ _____ _____    ______ ____

>  <TORSDO>
F 8

$$$$
=
 OpenBabel11042421373D

 45 51  0  0  1  0  0  0  0  0999 V2000
  159.3330  207.4920  155.5930 O   0  0  0  0  0  0  0  0  0  0  0  0
  161.0120  209.1110  154.9650 C   0  0  2  0  0  3  0  0  0  0  0  0
  161.1240  210.4270  155.3180 C   0  0  2  0  0  3  0  0  0  0  0  0
  161.3630  207.4260  150.3420 O   0  0  0  0  0  0  0  0  0  0  0  0
  161.2460  205.6920  151.9420 C   0  0  0  0  0  3  0  0  0  0  0  0
  161.4250  206.1030  154.3610 C   0  0  0  0  0  1  0  0  0  0  0  0
  161.4820  210.3630  153.2260 C   0  0  0  0  0  0  0  0  0  0  0  0
  161.2670  209.0500  153.6060 C   0  0  0  0  0  0  0  0  0  0  0  0
  161.6230  210.7250  151.8920 C   0  0  0  0  0  3  0  0  0  0  0  0
  160.2670  210.7790  156.4920 C   0  0  0  0  0  3  0  0  0  0  0  0
  161.5620  209.7200  150.9150 C   0  0  0  0  0  0  0  0  0  0  0  0
  161.2740  206.1260  150.6120 C   0  0  0  0  0  0  0  0  0  0  0  0
  161.3680  211.2270  154.2580 N   0  0  0  0  0  2  0  0  0  0  0  0
  159.5030  209.5510  156.7290 N   0  0  0  0  0  0  0  0  0  0  0  0
  159.9290  208.5840  155.7740 C   0  0  0  0  0  0  0  0  0  0  0  0
  161.2600  206.6260  152.9760 C   0  0  0  0  0  0  0  0  0  0  0  0
  161.2720  208.0010  152.6600 C   0  0  0  0  0  0  0  0  0  0  0  0
  161.3900  208.3640  151.2870 C   0  0  2  0  0  3  0  0  0  0  0  0
  161.2040  203.3860  147.3490 C   0  0  0  0  0  0  0  0  0  0  0  0
  161.3980  205.6040  148.2190 N   0  0  0  0  0  0  0  0  0  0  0  0
  161.0360  202.9010  148.6600 C   0  0  0  0  0  0  0  0  0  0  0  0
  161.1950  202.4700  146.1560 C   0  0  0  0  0  2  0  0  0  0  0  0
  161.2400  205.1600  149.4990 C   0  0  0  0  0  0  0  0  0  0  0  0
  161.0470  201.0160  146.5160 C   0  0  0  0  0  0  0  0  0  0  0  0
  160.8440  201.4660  148.9100 C   0  0  0  0  0  3  0  0  0  0  0  0
  161.3820  204.7570  147.1550 C   0  0  0  0  0  3  0  0  0  0  0  0
  160.8510  200.5850  147.9100 C   0  0  0  0  0  3  0  0  0  0  0  0
  161.0530  203.7910  149.7350 C   0  0  0  0  0  3  0  0  0  0  0  0
  161.0890  200.1490  145.6060 O   0  0  0  0  0  0  0  0  0  0  0  0
  161.7310  210.1040  149.4830 C   0  0  0  0  0  2  0  0  0  0  0  0
  161.6540  211.5510  149.3550 N   0  0  0  0  0  2  0  0  0  0  0  0
  161.9850  211.8780  147.9770 C   0  0  2  0  0  3  0  0  0  0  0  0
  163.4400  212.3150  147.8860 C   0  0  0  0  0  1  0  0  0  0  0  0
  161.0030  212.9270  147.4340 C   0  0  2  0  0  3  0  0  0  0  0  0
  158.5590  213.0040  147.9430 C   0  0  0  0  0  3  0  0  0  0  0  0
  159.8700  213.2470  148.3640 C   0  0  0  0  0  0  0  0  0  0  0  0
  159.0220  214.0630  150.4880 C   0  0  0  0  0  3  0  0  0  0  0  0
  160.0980  213.7800  149.6420 C   0  0  0  0  0  3  0  0  0  0  0  0
  157.4840  213.2850  148.7890 C   0  0  0  0  0  3  0  0  0  0  0  0
  157.7060  213.8140  150.0710 C   0  0  0  0  0  0  0  0  0  0  0  0
  156.6060  214.1000  150.9510 N   0  0  0  0  0  0  0  0  0  0  0  0
  155.3360  214.0890  150.4780 O   0  0  0  0  0  1  0  0  0  0  0  0
  156.8230  214.4520  152.3470 C   0  0  0  0  0  1  0  0  0  0  0  0
  161.2440  213.6180  145.1260 O   0  0  0  0  0  1  0  0  0  0  0  0
  160.5740  212.7350  145.9750 C   0  0  0  0  0  2  0  0  0  0  0  0
  1 15  2  0  0  0  0
  2  8  1  6  0  0  0
  2  3  1  0  0  0  0
  2 15  1  0  0  0  0
  3 10  1  6  0  0  0
  4 12  1  0  0  0  0
  5 16  1  0  0  0  0
  7  8  2  0  0  0  0
  7 13  1  0  0  0  0
  9  7  1  0  0  0  0
 10 14  2  0  0  0  0
 11 18  1  0  0  0  0
 11  9  2  0  0  0  0
 12  5  2  0  0  0  0
 13  3  1  0  0  0  0
 15 14  1  0  0  0  0
 16  6  1  0  0  0  0
 17 16  2  0  0  0  0
 17  8  1  0  0  0  0
 18  4  1  1  0  0  0
 18 17  1  0  0  0  0
 19 21  1  0  0  0  0
 20 23  2  0  0  0  0
 21 25  1  0  0  0  0
 21 28  2  0  0  0  0
 22 24  1  0  0  0  0
 22 19  1  0  0  0  0
 23 28  1  0  0  0  0
 23 12  1  0  0  0  0
 24 27  1  0  0  0  0
 26 19  2  0  0  0  0
 26 20  1  0  0  0  0
 27 25  2  0  0  0  0
 29 24  2  0  0  0  0
 30 11  1  0  0  0  0
 31 30  1  0  0  0  0
 32 33  1  1  0  0  0
 32 31  1  0  0  0  0
 34 45  1  6  0  0  0
 34 32  1  0  0  0  0
 34 36  1  0  0  0  0
 35 36  2  0  0  0  0
 35 39  1  0  0  0  0
 36 38  1  0  0  0  0
 38 37  2  0  0  0  0
 39 40  2  0  0  0  0
 40 37  1  0  0  0  0
 40 41  1  0  0  0  0
 41 43  1  0  0  0  0
 42 41  1  0  0  0  0
 44 45  1  0  0  0  0
M  END
>  <MODEL>
2

>  <REMARK>
 VINA RESULT:      -9.6      1.886      3.736
  Name = 
  8 active torsions:
  status: ('A' for Active; 'I' for Inactive)
    1  A    between atoms: C_1  and  C_12
    2  A    between atoms: C_1  and  N_30
    3  A    between atoms: C_9  and  C_12
    4  A    between atoms: C_12  and  C_31
    5  A    between atoms: N_16  and  C_43
    6  A    between atoms: C_17  and  C_28
    7  A    between atoms: C_24  and  C_33
    8  A    between atoms: N_30  and  C_33
                            x       y       z     vdW  Elec       q    Type
                         _______ _______ _______ _____ _____    ______ ____

>  <TORSDO>
F 8

$$$$
=
 OpenBabel11042421373D

 45 51  0  0  1  0  0  0  0  0999 V2000
  160.7740  212.3550  155.5010 O   0  0  0  0  0  0  0  0  0  0  0  0
  160.1070  210.1030  154.9330 C   0  0  2  0  0  3  0  0  0  0  0  0
  160.2190  208.9540  155.6660 C   0  0  2  0  0  3  0  0  0  0  0  0
  161.4820  210.5460  150.2170 O   0  0  0  0  0  0  0  0  0  0  0  0
  160.3530  212.4570  151.0240 C   0  0  0  0  0  3  0  0  0  0  0  0
  159.1970  212.4980  153.1950 C   0  0  0  0  0  1  0  0  0  0  0  0
  160.8690  208.4510  153.7080 C   0  0  0  0  0  0  0  0  0  0  0  0
  160.5050  209.7840  153.6460 C   0  0  0  0  0  0  0  0  0  0  0  0
  161.4700  207.8050  152.6330 C   0  0  0  0  0  3  0  0  0  0  0  0
  160.4930  209.2210  157.1110 C   0  0  0  0  0  3  0  0  0  0  0  0
  161.6930  208.5330  151.4550 C   0  0  0  0  0  0  0  0  0  0  0  0
  161.0670  211.7950  150.0200 C   0  0  0  0  0  0  0  0  0  0  0  0
  160.7290  207.9310  154.9470 N   0  0  0  0  0  2  0  0  0  0  0  0
  160.6820  210.6740  157.1530 N   0  0  0  0  0  0  0  0  0  0  0  0
  160.4950  211.1730  155.8320 C   0  0  0  0  0  0  0  0  0  0  0  0
  160.1240  211.8240  152.2440 C   0  0  0  0  0  0  0  0  0  0  0  0
  160.6450  210.5300  152.4550 C   0  0  0  0  0  0  0  0  0  0  0  0
  161.2840  209.8860  151.3560 C   0  0  2  0  0  3  0  0  0  0  0  0
  161.9240  213.7120  146.3120 C   0  0  0  0  0  0  0  0  0  0  0  0
  162.3230  213.3920  148.6470 N   0  0  0  0  0  0  0  0  0  0  0  0
  160.9040  212.7430  146.3670 C   0  0  0  0  0  0  0  0  0  0  0  0
  162.2790  214.4190  145.0330 C   0  0  0  0  0  2  0  0  0  0  0  0
  161.3410  212.4500  148.7270 C   0  0  0  0  0  0  0  0  0  0  0  0
  161.4820  213.9490  143.8450 C   0  0  0  0  0  0  0  0  0  0  0  0
  160.1420  212.3870  145.1630 C   0  0  0  0  0  3  0  0  0  0  0  0
  162.6230  214.0220  147.4790 C   0  0  0  0  0  3  0  0  0  0  0  0
  160.4120  212.9480  143.9840 C   0  0  0  0  0  3  0  0  0  0  0  0
  160.6120  212.1140  147.5780 C   0  0  0  0  0  3  0  0  0  0  0  0
  161.7340  214.4240  142.7080 O   0  0  0  0  0  0  0  0  0  0  0  0
  162.3220  207.8380  150.2940 C   0  0  0  0  0  2  0  0  0  0  0  0
  162.4650  206.4220  150.5950 N   0  0  0  0  0  2  0  0  0  0  0  0
  161.8250  205.6880  149.5140 C   0  0  2  0  0  3  0  0  0  0  0  0
  160.6850  206.5130  148.9340 C   0  0  0  0  0  1  0  0  0  0  0  0
  161.3790  204.3030  150.0100 C   0  0  2  0  0  3  0  0  0  0  0  0
  161.4610  203.6630  147.5970 C   0  0  0  0  0  3  0  0  0  0  0  0
  161.1830  203.2940  148.9170 C   0  0  0  0  0  0  0  0  0  0  0  0
  160.5640  201.0750  148.1520 C   0  0  0  0  0  3  0  0  0  0  0  0
  160.7320  201.9940  149.1910 C   0  0  0  0  0  3  0  0  0  0  0  0
  161.2950  202.7430  146.5590 C   0  0  0  0  0  3  0  0  0  0  0  0
  160.8470  201.4390  146.8280 C   0  0  0  0  0  0  0  0  0  0  0  0
  160.6800  200.4840  145.7670 N   0  0  0  0  0  0  0  0  0  0  0  0
  159.9300  200.7980  144.6820 O   0  0  0  0  0  1  0  0  0  0  0  0
  161.2640  199.1520  145.8450 C   0  0  0  0  0  1  0  0  0  0  0  0
  160.7200  203.8380  152.2930 O   0  0  0  0  0  1  0  0  0  0  0  0
  160.2630  204.3080  151.0600 C   0  0  0  0  0  2  0  0  0  0  0  0
  1 15  2  0  0  0  0
  2  8  1  6  0  0  0
  2  3  1  0  0  0  0
  2 15  1  0  0  0  0
  3 10  1  1  0  0  0
  5 16  1  0  0  0  0
  7 13  1  0  0  0  0
  8  7  2  0  0  0  0
  9  7  1  0  0  0  0
 10 14  2  0  0  0  0
 11  9  2  0  0  0  0
 12  4  1  0  0  0  0
 12  5  2  0  0  0  0
 13  3  1  0  0  0  0
 15 14  1  0  0  0  0
 16 17  2  0  0  0  0
 16  6  1  0  0  0  0
 17  8  1  0  0  0  0
 18  4  1  6  0  0  0
 18 11  1  0  0  0  0
 18 17  1  0  0  0  0
 19 21  2  0  0  0  0
 19 26  1  0  0  0  0
 20 23  1  0  0  0  0
 21 28  1  0  0  0  0
 22 19  1  0  0  0  0
 23 12  1  0  0  0  0
 24 27  1  0  0  0  0
 24 22  1  0  0  0  0
 25 21  1  0  0  0  0
 26 20  2  0  0  0  0
 27 25  2  0  0  0  0
 28 23  2  0  0  0  0
 29 24  2  0  0  0  0
 30 31  1  0  0  0  0
 30 11  1  0  0  0  0
 32 33  1  1  0  0  0
 32 34  1  0  0  0  0
 32 31  1  0  0  0  0
 34 45  1  6  0  0  0
 35 36  1  0  0  0  0
 36 38  2  0  0  0  0
 36 34  1  0  0  0  0
 37 38  1  0  0  0  0
 39 40  1  0  0  0  0
 39 35  2  0  0  0  0
 40 37  2  0  0  0  0
 41 43  1  0  0  0  0
 41 40  1  0  0  0  0
 42 41  1  0  0  0  0
 45 44  1  0  0  0  0
M  END
>  <MODEL>
3

>  <REMARK>
 VINA RESULT:      -8.8      2.098      8.451
  Name = 
  8 active torsions:
  status: ('A' for Active; 'I' for Inactive)
    1  A    between atoms: C_1  and  C_12
    2  A    between atoms: C_1  and  N_30
    3  A    between atoms: C_9  and  C_12
    4  A    between atoms: C_12  and  C_31
    5  A    between atoms: N_16  and  C_43
    6  A    between atoms: C_17  and  C_28
    7  A    between atoms: C_24  and  C_33
    8  A    between atoms: N_30  and  C_33
                            x       y       z     vdW  Elec       q    Type
                         _______ _______ _______ _____ _____    ______ ____

>  <TORSDO>
F 8

$$$$
=
 OpenBabel11042421373D

 45 51  0  0  1  0  0  0  0  0999 V2000
  159.4680  214.0930  155.1250 O   0  0  0  0  0  0  0  0  0  0  0  0
  159.0140  211.7320  154.8890 C   0  0  2  0  0  3  0  0  0  0  0  0
  159.0530  210.7420  155.8320 C   0  0  2  0  0  3  0  0  0  0  0  0
  161.1480  211.4400  150.4520 O   0  0  0  0  0  0  0  0  0  0  0  0
  159.8090  213.3710  150.6980 C   0  0  0  0  0  3  0  0  0  0  0  0
  158.3010  213.7050  152.6130 C   0  0  0  0  0  1  0  0  0  0  0  0
  160.0490  209.9530  154.1310 C   0  0  0  0  0  0  0  0  0  0  0  0
  159.6400  211.2230  153.7650 C   0  0  0  0  0  0  0  0  0  0  0  0
  160.8540  209.1760  153.3050 C   0  0  0  0  0  3  0  0  0  0  0  0
  159.0660  211.2810  157.2270 C   0  0  0  0  0  3  0  0  0  0  0  0
  161.2390  209.6990  152.0620 C   0  0  0  0  0  0  0  0  0  0  0  0
  160.7140  212.5990  149.9620 C   0  0  0  0  0  0  0  0  0  0  0  0
  159.7250  209.6510  155.4080 N   0  0  0  0  0  2  0  0  0  0  0  0
  159.1760  212.7290  157.0260 N   0  0  0  0  0  0  0  0  0  0  0  0
  159.1930  212.9710  155.6220 C   0  0  0  0  0  0  0  0  0  0  0  0
  159.4060  212.9470  151.9630 C   0  0  0  0  0  0  0  0  0  0  0  0
  159.9450  211.7550  152.4930 C   0  0  0  0  0  0  0  0  0  0  0  0
  160.7900  210.9780  151.6490 C   0  0  2  0  0  3  0  0  0  0  0  0
  162.1030  213.8800  146.1430 C   0  0  0  0  0  0  0  0  0  0  0  0
  162.2360  213.8810  148.5290 N   0  0  0  0  0  0  0  0  0  0  0  0
  161.0020  213.0060  146.2170 C   0  0  0  0  0  0  0  0  0  0  0  0
  162.6460  214.3640  144.8250 C   0  0  0  0  0  2  0  0  0  0  0  0
  161.1730  213.0340  148.6300 C   0  0  0  0  0  0  0  0  0  0  0  0
  161.9340  213.7820  143.6330 C   0  0  0  0  0  0  0  0  0  0  0  0
  160.3370  212.5310  144.9970 C   0  0  0  0  0  3  0  0  0  0  0  0
  162.7060  214.3090  147.3260 C   0  0  0  0  0  3  0  0  0  0  0  0
  160.7730  212.8910  143.7900 C   0  0  0  0  0  3  0  0  0  0  0  0
  160.5370  212.5850  147.4630 C   0  0  0  0  0  3  0  0  0  0  0  0
  162.3400  214.0640  142.4760 O   0  0  0  0  0  0  0  0  0  0  0  0
  162.0880  208.8610  151.1660 C   0  0  0  0  0  2  0  0  0  0  0  0
  161.2480  207.9220  150.4390 N   0  0  0  0  0  2  0  0  0  0  0  0
  162.0050  207.4800  149.2780 C   0  0  2  0  0  3  0  0  0  0  0  0
  162.6990  208.6690  148.6320 C   0  0  0  0  0  1  0  0  0  0  0  0
  161.0870  206.7150  148.3110 C   0  0  2  0  0  3  0  0  0  0  0  0
  160.7280  204.6600  149.6840 C   0  0  0  0  0  3  0  0  0  0  0  0
  161.1340  205.2240  148.4700 C   0  0  0  0  0  0  0  0  0  0  0  0
  161.5990  203.0020  147.6090 C   0  0  0  0  0  3  0  0  0  0  0  0
  161.5710  204.3880  147.4320 C   0  0  0  0  0  3  0  0  0  0  0  0
  160.7530  203.2740  149.8600 C   0  0  0  0  0  3  0  0  0  0  0  0
  161.1860  202.4320  148.8220 C   0  0  0  0  0  0  0  0  0  0  0  0
  161.2090  201.0060  148.9920 N   0  0  0  0  0  0  0  0  0  0  0  0
  161.5610  200.2030  147.9580 O   0  0  0  0  0  1  0  0  0  0  0  0
  160.8160  200.3850  150.2500 C   0  0  0  0  0  1  0  0  0  0  0  0
  160.1920  206.5070  146.0710 O   0  0  0  0  0  1  0  0  0  0  0  0
  161.1280  207.1870  146.8530 C   0  0  0  0  0  2  0  0  0  0  0  0
  1 15  2  0  0  0  0
  2  8  1  6  0  0  0
  2 15  1  0  0  0  0
  2  3  1  0  0  0  0
  3 10  1  1  0  0  0
  5 16  1  0  0  0  0
  7 13  1  0  0  0  0
  8  7  2  0  0  0  0
  9  7  1  0  0  0  0
 11  9  2  0  0  0  0
 12  4  1  0  0  0  0
 12  5  2  0  0  0  0
 13  3  1  0  0  0  0
 14 10  2  0  0  0  0
 15 14  1  0  0  0  0
 16 17  2  0  0  0  0
 16  6  1  0  0  0  0
 17  8  1  0  0  0  0
 18  4  1  6  0  0  0
 18 11  1  0  0  0  0
 18 17  1  0  0  0  0
 19 21  2  0  0  0  0
 19 26  1  0  0  0  0
 20 23  1  0  0  0  0
 21 28  1  0  0  0  0
 22 19  1  0  0  0  0
 23 12  1  0  0  0  0
 24 27  1  0  0  0  0
 24 22  1  0  0  0  0
 25 21  1  0  0  0  0
 26 20  2  0  0  0  0
 27 25  2  0  0  0  0
 28 23  2  0  0  0  0
 29 24  2  0  0  0  0
 30 11  1  0  0  0  0
 31 30  1  0  0  0  0
 32 33  1  6  0  0  0
 32 31  1  0  0  0  0
 34 45  1  6  0  0  0
 34 36  1  0  0  0  0
 34 32  1  0  0  0  0
 35 39  1  0  0  0  0
 36 35  2  0  0  0  0
 37 40  1  0  0  0  0
 38 37  2  0  0  0  0
 38 36  1  0  0  0  0
 40 41  1  0  0  0  0
 40 39  2  0  0  0  0
 41 43  1  0  0  0  0
 42 41  1  0  0  0  0
 44 45  1  0  0  0  0
M  END
>  <MODEL>
4

>  <REMARK>
 VINA RESULT:      -8.1      2.399      8.388
  Name = 
  8 active torsions:
  status: ('A' for Active; 'I' for Inactive)
    1  A    between atoms: C_1  and  C_12
    2  A    between atoms: C_1  and  N_30
    3  A    between atoms: C_9  and  C_12
    4  A    between atoms: C_12  and  C_31
    5  A    between atoms: N_16  and  C_43
    6  A    between atoms: C_17  and  C_28
    7  A    between atoms: C_24  and  C_33
    8  A    between atoms: N_30  and  C_33
                            x       y       z     vdW  Elec       q    Type
                         _______ _______ _______ _____ _____    ______ ____

>  <TORSDO>
F 8

$$$$
=
 OpenBabel11042421373D

 45 51  0  0  1  0  0  0  0  0999 V2000
  159.5260  214.4460  154.8050 O   0  0  0  0  0  0  0  0  0  0  0  0
  159.0240  212.0820  154.8530 C   0  0  2  0  0  3  0  0  0  0  0  0
  159.0290  211.2160  155.9110 C   0  0  2  0  0  3  0  0  0  0  0  0
  161.2090  211.2050  150.5190 O   0  0  0  0  0  0  0  0  0  0  0  0
  159.9100  213.1780  150.5060 C   0  0  0  0  0  3  0  0  0  0  0  0
  158.3840  213.7750  152.3410 C   0  0  0  0  0  1  0  0  0  0  0  0
  160.0290  210.2040  154.3350 C   0  0  0  0  0  0  0  0  0  0  0  0
  159.6530  211.4270  153.8090 C   0  0  0  0  0  0  0  0  0  0  0  0
  160.8280  209.3160  153.6240 C   0  0  0  0  0  3  0  0  0  0  0  0
  159.0340  211.9220  157.2290 C   0  0  0  0  0  3  0  0  0  0  0  0
  161.2410  209.6740  152.3320 C   0  0  0  0  0  0  0  0  0  0  0  0
  160.8080  212.3030  149.8840 C   0  0  0  0  0  0  0  0  0  0  0  0
  159.6820  210.0680  155.6340 N   0  0  0  0  0  2  0  0  0  0  0  0
  159.1790  213.3310  156.8540 N   0  0  0  0  0  0  0  0  0  0  0  0
  159.2200  213.3990  155.4320 C   0  0  0  0  0  0  0  0  0  0  0  0
  159.4810  212.9210  151.8060 C   0  0  0  0  0  0  0  0  0  0  0  0
  159.9860  211.7920  152.4870 C   0  0  0  0  0  0  0  0  0  0  0  0
  160.8260  210.9010  151.7580 C   0  0  2  0  0  3  0  0  0  0  0  0
  162.2820  213.0520  145.9570 C   0  0  0  0  0  0  0  0  0  0  0  0
  162.5740  212.9910  148.3280 N   0  0  0  0  0  0  0  0  0  0  0  0
  160.9550  212.6120  146.1220 C   0  0  0  0  0  0  0  0  0  0  0  0
  162.8640  213.3280  144.5970 C   0  0  0  0  0  2  0  0  0  0  0  0
  161.2940  212.5620  148.5160 C   0  0  0  0  0  0  0  0  0  0  0  0
  161.9130  213.0360  143.4670 C   0  0  0  0  0  0  0  0  0  0  0  0
  160.0830  212.4050  144.9580 C   0  0  0  0  0  3  0  0  0  0  0  0
  163.0770  213.2390  147.0890 C   0  0  0  0  0  3  0  0  0  0  0  0
  160.5290  212.6000  143.7180 C   0  0  0  0  0  3  0  0  0  0  0  0
  160.4610  212.3690  147.4040 C   0  0  0  0  0  3  0  0  0  0  0  0
  162.3090  213.1680  142.2800 O   0  0  0  0  0  0  0  0  0  0  0  0
  162.0830  208.7160  151.5590 C   0  0  0  0  0  2  0  0  0  0  0  0
  162.3280  207.5280  152.3620 N   0  0  0  0  0  2  0  0  0  0  0  0
  161.1710  206.6590  152.2080 C   0  0  2  0  0  3  0  0  0  0  0  0
  160.5460  206.3880  153.5680 C   0  0  0  0  0  1  0  0  0  0  0  0
  161.5690  205.3780  151.4580 C   0  0  2  0  0  3  0  0  0  0  0  0
  161.2170  204.3010  149.2330 C   0  0  0  0  0  3  0  0  0  0  0  0
  161.4320  205.4720  149.9670 C   0  0  0  0  0  0  0  0  0  0  0  0
  161.3740  206.7570  147.9080 C   0  0  0  0  0  3  0  0  0  0  0  0
  161.5110  206.7020  149.2970 C   0  0  0  0  0  3  0  0  0  0  0  0
  161.0780  204.3560  147.8430 C   0  0  0  0  0  3  0  0  0  0  0  0
  161.1520  205.5860  147.1690 C   0  0  0  0  0  0  0  0  0  0  0  0
  161.0040  205.6530  145.7410 N   0  0  0  0  0  0  0  0  0  0  0  0
  159.8930  206.2090  145.1980 O   0  0  0  0  0  1  0  0  0  0  0  0
  162.0070  205.0920  144.8470 C   0  0  0  0  0  1  0  0  0  0  0  0
  161.9810  203.0530  151.9930 O   0  0  0  0  0  1  0  0  0  0  0  0
  161.0290  204.0720  152.0520 C   0  0  0  0  0  2  0  0  0  0  0  0
  1 15  2  0  0  0  0
  2  8  1  6  0  0  0
  2 15  1  0  0  0  0
  2  3  1  0  0  0  0
  3 10  1  1  0  0  0
  5 16  1  0  0  0  0
  7 13  1  0  0  0  0
  8  7  2  0  0  0  0
  9  7  1  0  0  0  0
 11  9  2  0  0  0  0
 12  5  2  0  0  0  0
 12  4  1  0  0  0  0
 13  3  1  0  0  0  0
 14 10  2  0  0  0  0
 15 14  1  0  0  0  0
 16  6  1  0  0  0  0
 16 17  2  0  0  0  0
 17  8  1  0  0  0  0
 18  4  1  6  0  0  0
 18 11  1  0  0  0  0
 18 17  1  0  0  0  0
 19 21  2  0  0  0  0
 19 26  1  0  0  0  0
 20 23  1  0  0  0  0
 21 28  1  0  0  0  0
 22 19  1  0  0  0  0
 23 12  1  0  0  0  0
 24 27  1  0  0  0  0
 24 22  1  0  0  0  0
 25 21  1  0  0  0  0
 26 20  2  0  0  0  0
 27 25  2  0  0  0  0
 28 23  2  0  0  0  0
 29 24  2  0  0  0  0
 30 11  1  0  0  0  0
 30 31  1  0  0  0  0
 32 31  1  0  0  0  0
 32 33  1  1  0  0  0
 34 45  1  1  0  0  0
 34 32  1  0  0  0  0
 35 36  1  0  0  0  0
 36 34  1  0  0  0  0
 37 38  1  0  0  0  0
 38 36  2  0  0  0  0
 39 35  2  0  0  0  0
 40 39  1  0  0  0  0
 40 37  2  0  0  0  0
 41 40  1  0  0  0  0
 42 41  1  0  0  0  0
 43 41  1  0  0  0  0
 44 45  1  0  0  0  0
M  END
>  <MODEL>
5

>  <REMARK>
 VINA RESULT:      -7.8      2.453      7.757
  Name = 
  8 active torsions:
  status: ('A' for Active; 'I' for Inactive)
    1  A    between atoms: C_1  and  C_12
    2  A    between atoms: C_1  and  N_30
    3  A    between atoms: C_9  and  C_12
    4  A    between atoms: C_12  and  C_31
    5  A    between atoms: N_16  and  C_43
    6  A    between atoms: C_17  and  C_28
    7  A    between atoms: C_24  and  C_33
    8  A    between atoms: N_30  and  C_33
                            x       y       z     vdW  Elec       q    Type
                         _______ _______ _______ _____ _____    ______ ____

>  <TORSDO>
F 8

$$$$
=
 OpenBabel11042421373D

 45 51  0  0  1  0  0  0  0  0999 V2000
  161.4340  201.4400  149.7470 O   0  0  0  0  0  0  0  0  0  0  0  0
  160.8300  202.9220  147.9360 C   0  0  2  0  0  3  0  0  0  0  0  0
  161.0920  202.8090  146.5990 C   0  0  2  0  0  3  0  0  0  0  0  0
  161.6060  207.0040  150.5950 O   0  0  0  0  0  0  0  0  0  0  0  0
  160.4770  205.3220  151.8090 C   0  0  0  0  0  3  0  0  0  0  0  0
  159.5870  203.2880  150.7480 C   0  0  0  0  0  1  0  0  0  0  0  0
  161.5310  204.8250  147.1010 C   0  0  0  0  0  0  0  0  0  0  0  0
  161.0890  204.2390  148.2740 C   0  0  2  0  0  3  0  0  0  0  0  0
  162.0340  206.1200  147.0750 C   0  0  0  0  0  3  0  0  0  0  0  0
  161.5210  201.4290  146.2140 C   0  0  0  0  0  3  0  0  0  0  0  0
  162.0740  206.8480  148.2740 C   0  0  0  0  0  0  0  0  0  0  0  0
  161.1020  206.5720  151.7480 C   0  0  0  0  0  0  0  0  0  0  0  0
  161.5680  203.9550  146.0680 N   0  0  0  0  0  2  0  0  0  0  0  0
  161.6330  200.7410  147.5040 N   0  0  0  0  0  0  0  0  0  0  0  0
  161.2620  201.6660  148.5220 C   0  0  0  0  0  0  0  0  0  0  0  0
  160.4300  204.5140  150.6750 C   0  0  0  0  0  0  0  0  0  0  0  0
  161.0440  204.9630  149.4860 C   0  0  0  0  0  0  0  0  0  0  0  0
  161.5820  206.2820  149.4750 C   0  0  0  0  0  0  0  0  0  0  0  0
  161.3780  209.0230  155.2220 C   0  0  0  0  0  0  0  0  0  0  0  0
  161.5960  206.9100  154.1260 N   0  0  0  0  0  0  0  0  0  0  0  0
  160.9470  209.5940  154.0100 C   0  0  0  0  0  0  0  0  0  0  0  0
  161.5030  209.8360  156.4820 C   0  0  0  0  0  2  0  0  0  0  0  0
  161.1830  207.4380  152.9380 C   0  0  0  0  0  0  0  0  0  0  0  0
  161.1780  211.2930  156.2910 C   0  0  0  0  0  0  0  0  0  0  0  0
  160.6000  211.0190  153.9330 C   0  0  0  0  0  3  0  0  0  0  0  0
  161.6970  207.6640  155.2540 C   0  0  0  0  0  3  0  0  0  0  0  0
  160.7100  211.8140  154.9970 C   0  0  0  0  0  3  0  0  0  0  0  0
  160.8490  208.7980  152.8680 C   0  0  0  0  0  3  0  0  0  0  0  0
  161.3080  212.0850  157.2610 O   0  0  0  0  0  0  0  0  0  0  0  0
  162.5980  208.2440  148.2450 C   0  0  0  0  0  2  0  0  0  0  0  0
  161.4850  209.1810  148.2290 N   0  0  0  0  0  2  0  0  0  0  0  0
  161.9970  210.4620  148.6890 C   0  0  2  0  0  3  0  0  0  0  0  0
  162.3420  210.3780  150.1690 C   0  0  0  0  0  1  0  0  0  0  0  0
  160.9910  211.5780  148.3660 C   0  0  2  0  0  3  0  0  0  0  0  0
  162.4200  212.7490  146.6860 C   0  0  0  0  0  3  0  0  0  0  0  0
  161.1770  212.1990  147.0130 C   0  0  0  0  0  0  0  0  0  0  0  0
  160.3420  212.8170  144.8180 C   0  0  0  0  0  3  0  0  0  0  0  0
  160.1360  212.2360  146.0720 C   0  0  0  0  0  3  0  0  0  0  0  0
  162.6260  213.3280  145.4310 C   0  0  0  0  0  3  0  0  0  0  0  0
  161.5890  213.3650  144.4850 C   0  0  0  0  0  0  0  0  0  0  0  0
  161.7950  213.9530  143.1890 N   0  0  0  0  0  0  0  0  0  0  0  0
  160.7310  214.2970  142.4230 O   0  0  0  0  0  1  0  0  0  0  0  0
  163.1330  214.1500  142.6490 C   0  0  0  0  0  1  0  0  0  0  0  0
  159.5570  213.2930  149.2960 O   0  0  0  0  0  1  0  0  0  0  0  0
  160.7500  212.5940  149.4880 C   0  0  0  0  0  2  0  0  0  0  0  0
  2  8  1  0  0  0  0
  2 15  1  1  0  0  0
  3 10  1  1  0  0  0
  3  2  1  0  0  0  0
  4 12  1  0  0  0  0
  8  7  1  1  0  0  0
  8 17  1  0  0  0  0
  9  7  2  0  0  0  0
  9 11  1  0  0  0  0
 10 14  2  0  0  0  0
 11 18  2  0  0  0  0
 12  5  2  0  0  0  0
 12 23  1  0  0  0  0
 13  3  1  0  0  0  0
 13  7  1  0  0  0  0
 14 15  1  0  0  0  0
 15  1  2  0  0  0  0
 16  6  1  0  0  0  0
 16  5  1  0  0  0  0
 17 16  2  0  0  0  0
 18 17  1  0  0  0  0
 18  4  1  0  0  0  0
 19 26  1  0  0  0  0
 19 22  1  0  0  0  0
 20 26  2  0  0  0  0
 21 19  2  0  0  0  0
 23 20  1  0  0  0  0
 24 22  1  0  0  0  0
 24 29  2  0  0  0  0
 25 21  1  0  0  0  0
 25 27  2  0  0  0  0
 27 24  1  0  0  0  0
 28 23  2  0  0  0  0
 28 21  1  0  0  0  0
 30 11  1  0  0  0  0
 31 30  1  0  0  0  0
 31 32  1  0  0  0  0
 32 33  1  1  0  0  0
 34 32  1  0  0  0  0
 34 45  1  1  0  0  0
 35 36  1  0  0  0  0
 36 34  1  0  0  0  0
 37 38  1  0  0  0  0
 38 36  2  0  0  0  0
 39 35  2  0  0  0  0
 40 37  2  0  0  0  0
 40 39  1  0  0  0  0
 41 40  1  0  0  0  0
 42 41  1  0  0  0  0
 43 41  1  0  0  0  0
 44 45  1  0  0  0  0
M  END
>  <MODEL>
6

>  <REMARK>
 VINA RESULT:      -7.5      1.924      7.385
  Name = 
  8 active torsions:
  status: ('A' for Active; 'I' for Inactive)
    1  A    between atoms: C_1  and  C_12
    2  A    between atoms: C_1  and  N_30
    3  A    between atoms: C_9  and  C_12
    4  A    between atoms: C_12  and  C_31
    5  A    between atoms: N_16  and  C_43
    6  A    between atoms: C_17  and  C_28
    7  A    between atoms: C_24  and  C_33
    8  A    between atoms: N_30  and  C_33
                            x       y       z     vdW  Elec       q    Type
                         _______ _______ _______ _____ _____    ______ ____

>  <TORSDO>
F 8

$$$$
