=
 OpenBabel11042422013D

 46 50  0  0  1  0  0  0  0  0999 V2000
  162.2060  212.0900  148.3140 C   0  0  2  0  0  3  0  0  0  0  0  0
  160.4640  212.1320  151.5540 C   0  0  0  0  0  3  0  0  0  0  0  0
  163.6740  212.3390  148.0290 C   0  0  0  0  0  1  0  0  0  0  0  0
  161.4310  213.4020  148.2690 C   0  0  2  0  0  3  0  0  0  0  0  0
  162.0320  211.5370  149.7240 C   0  0  1  0  0  3  0  0  0  0  0  0
  160.3480  213.3280  149.3520 C   0  0  1  0  0  3  0  0  0  0  0  0
  158.9990  212.8580  148.8170 C   0  0  0  0  0  1  0  0  0  0  0  0
  160.8850  212.3020  150.2930 C   0  0  0  0  0  0  0  0  0  0  0  0
  161.2960  207.9520  150.8600 C   0  0  0  0  0  0  0  0  0  0  0  0
  161.5680  209.3460  150.9060 C   0  0  0  0  0  0  0  0  0  0  0  0
  161.6460  210.9250  155.1460 C   0  0  0  0  0  1  0  0  0  0  0  0
  160.9750  205.9290  149.5670 O   0  0  0  0  0  1  0  0  0  0  0  0
  161.2350  207.2940  149.6250 C   0  0  0  0  0  0  0  0  0  0  0  0
  161.6970  209.3710  148.4790 C   0  0  0  0  0  3  0  0  0  0  0  0
  161.4340  208.0030  148.4410 C   0  0  0  0  0  3  0  0  0  0  0  0
  161.7700  210.0520  149.7040 C   0  0  0  0  0  0  0  0  0  0  0  0
  161.1350  207.7690  153.2320 C   0  0  0  0  0  0  0  0  0  0  0  0
  161.0830  207.2020  152.0690 N   0  0  0  0  0  0  0  0  0  0  0  0
  161.4070  209.1750  153.3990 C   0  0  0  0  0  0  0  0  0  0  0  0
  160.9280  207.0700  154.4460 N   0  0  0  0  0  2  0  0  0  0  0  0
  161.0740  208.1780  155.8220 S   0  0  0  0  0  0  0  0  0  0  0  0
  161.4060  209.5310  154.6770 C   0  0  0  0  0  0  0  0  0  0  0  0
  161.6270  210.0850  152.2290 C   0  0  0  0  0  2  0  0  0  0  0  0
  159.3440  212.9280  152.1440 C   0  0  0  0  0  2  0  0  0  0  0  0
  158.3690  212.4360  154.3330 C   0  0  1  0  0  3  0  0  0  0  0  0
  158.4160  212.0130  152.9180 C   0  0  1  0  0  3  0  0  0  0  0  0
  157.3410  212.7630  153.4290 O   0  0  0  0  0  0  0  0  0  0  0  0
  157.9240  211.2730  155.1990 C   0  0  0  0  0  2  0  0  0  0  0  0
  157.6690  211.7420  156.6200 C   0  0  0  0  0  2  0  0  0  0  0  0
  156.2970  211.8470  156.8530 O   0  0  0  0  0  0  0  0  0  0  0  0
  156.0870  213.2040  157.1010 C   0  0  0  0  0  2  0  0  0  0  0  0
  155.2160  213.7570  156.0790 N   0  0  0  0  0  1  0  0  0  0  0  0
  160.8920  213.6410  146.9370 N   0  0  0  0  0  2  0  0  0  0  0  0
  160.6980  212.8120  144.2810 O   0  0  0  0  0  0  0  0  0  0  0  0
  161.9780  213.6290  146.0520 N   0  0  0  0  0  2  0  0  0  0  0  0
  161.8240  213.1860  144.7050 C   0  0  0  0  0  0  0  0  0  0  0  0
  163.0110  213.1290  143.8080 C   0  0  0  0  0  2  0  0  0  0  0  0
  162.5780  213.0910  142.3830 C   0  0  0  0  0  0  0  0  0  0  0  0
  162.3170  214.1670  141.7840 O   0  0  0  0  0  0  0  0  0  0  0  0
  162.4290  211.8330  141.7210 N   0  0  0  0  0  2  0  0  0  0  0  0
  161.9730  211.7220  140.3440 C   0  0  1  0  0  3  0  0  0  0  0  0
  162.9610  211.0540  138.0110 O   0  0  0  0  0  0  0  0  0  0  0  0
  163.3800  211.8740  139.2230 S   0  0  0  0  0  3  0  0  0  0  0  0
  161.2980  210.3760  140.1520 C   0  0  0  0  0  2  0  0  0  0  0  0
  160.1130  210.5330  139.4330 O   0  0  0  0  0  0  0  0  0  0  0  0
  159.4640  211.5960  140.0590 C   0  0  0  0  0  1  0  0  0  0  0  0
  1  3  1  1  0  0  0
  1  5  1  0  0  0  0
  2 24  1  0  0  0  0
  4 33  1  6  0  0  0
  4  1  1  0  0  0  0
  4  6  1  0  0  0  0
  5 16  1  6  0  0  0
  5  8  1  0  0  0  0
  6  7  1  6  0  0  0
  6  8  1  0  0  0  0
  8  2  2  0  0  0  0
  9 10  1  0  0  0  0
  9 18  1  0  0  0  0
 10 23  1  0  0  0  0
 12 13  1  0  0  0  0
 13  9  2  0  0  0  0
 14 16  1  0  0  0  0
 15 14  2  0  0  0  0
 15 13  1  0  0  0  0
 16 10  2  0  0  0  0
 17 19  1  0  0  0  0
 17 20  1  0  0  0  0
 18 17  2  0  0  0  0
 19 22  2  0  0  0  0
 20 21  1  0  0  0  0
 22 11  1  0  0  0  0
 22 21  1  0  0  0  0
 23 19  1  0  0  0  0
 25 28  1  1  0  0  0
 26 24  1  6  0  0  0
 26 27  1  0  0  0  0
 26 25  1  0  0  0  0
 27 25  1  0  0  0  0
 28 29  1  0  0  0  0
 29 30  1  0  0  0  0
 30 31  1  0  0  0  0
 32 31  1  0  0  0  0
 34 36  2  0  0  0  0
 35 33  1  0  0  0  0
 36 35  1  0  0  0  0
 37 36  1  0  0  0  0
 38 37  1  0  0  0  0
 39 38  2  0  0  0  0
 40 38  1  0  0  0  0
 41 44  1  1  0  0  0
 41 40  1  0  0  0  0
 42 43  2  0  0  0  0
 43 41  1  0  0  0  0
 45 46  1  0  0  0  0
 45 44  1  0  0  0  0
M  END
>  <MODEL>
1

>  <REMARK>
 VINA RESULT:      -5.7      0.000      0.000
  Name = 
  15 active torsions:
  status: ('A' for Active; 'I' for Inactive)
    1  A    between atoms: C_1  and  C_10
    2  A    between atoms: C_1  and  N_34
    3  A    between atoms: C_1  and  S_36
    4  A    between atoms: C_2  and  O_37
    5  A    between atoms: O_3  and  C_10
    6  A    between atoms: C_8  and  C_16
    7  A    between atoms: C_8  and  C_19
    8  A    between atoms: C_9  and  C_11
    9  A    between atoms: C_11  and  C_21
   10  A    between atoms: C_13  and  C_15
   11  A    between atoms: C_13  and  C_45
   12  A    between atoms: C_21  and  O_37
   13  A    between atoms: N_24  and  N_25
   14  A    between atoms: N_25  and  C_35
   15  A    between atoms: C_26  and  C_38
                            x       y       z     vdW  Elec       q    Type
                         _______ _______ _______ _____ _____    ______ ____

>  <TORSDO>
F 15

$$$$
=
 OpenBabel11042422013D

 46 50  0  0  1  0  0  0  0  0999 V2000
  160.1290  211.8820  151.5740 C   0  0  2  0  0  3  0  0  0  0  0  0
  161.3980  214.1440  148.9640 C   0  0  0  0  0  3  0  0  0  0  0  0
  160.1270  212.0830  153.0760 C   0  0  0  0  0  1  0  0  0  0  0  0
  161.4220  211.2060  151.1360 C   0  0  2  0  0  3  0  0  0  0  0  0
  160.0870  213.2300  150.8650 C   0  0  1  0  0  3  0  0  0  0  0  0
  161.8130  211.8080  149.7800 C   0  0  1  0  0  3  0  0  0  0  0  0
  161.3280  210.9770  148.5950 C   0  0  0  0  0  1  0  0  0  0  0  0
  161.1040  213.1200  149.7790 C   0  0  0  0  0  0  0  0  0  0  0  0
  156.3490  214.0530  150.6720 C   0  0  0  0  0  0  0  0  0  0  0  0
  157.6320  213.7480  151.2040 C   0  0  0  0  0  0  0  0  0  0  0  0
  157.6180  213.6490  155.7280 C   0  0  0  0  0  1  0  0  0  0  0  0
  154.9170  214.4150  148.7530 O   0  0  0  0  0  1  0  0  0  0  0  0
  156.1680  214.1250  149.2850 C   0  0  0  0  0  0  0  0  0  0  0  0
  158.5050  213.6100  148.9400 C   0  0  0  0  0  3  0  0  0  0  0  0
  157.2430  213.9040  148.4250 C   0  0  0  0  0  3  0  0  0  0  0  0
  158.7110  213.5260  150.3250 C   0  0  0  0  0  0  0  0  0  0  0  0
  155.3480  214.2260  152.8300 C   0  0  0  0  0  0  0  0  0  0  0  0
  155.2270  214.2870  151.5420 N   0  0  0  0  0  0  0  0  0  0  0  0
  156.6000  213.9230  153.4790 C   0  0  0  0  0  0  0  0  0  0  0  0
  154.2730  214.4530  153.7220 N   0  0  0  0  0  2  0  0  0  0  0  0
  154.8230  214.2870  155.3990 S   0  0  0  0  0  0  0  0  0  0  0  0
  156.4840  213.9200  154.8000 C   0  0  0  0  0  0  0  0  0  0  0  0
  157.8570  213.6780  152.7010 C   0  0  0  0  0  2  0  0  0  0  0  0
  162.4480  214.0520  147.9040 C   0  0  0  0  0  2  0  0  0  0  0  0
  162.3910  213.3160  145.5720 C   0  0  1  0  0  3  0  0  0  0  0  0
  161.8220  214.2750  146.5420 C   0  0  1  0  0  3  0  0  0  0  0  0
  161.1250  213.1160  146.1540 O   0  0  0  0  0  0  0  0  0  0  0  0
  162.2160  213.8510  144.1630 C   0  0  0  0  0  2  0  0  0  0  0  0
  161.9720  212.7090  143.1930 C   0  0  0  0  0  2  0  0  0  0  0  0
  160.9780  213.0600  142.2780 O   0  0  0  0  0  0  0  0  0  0  0  0
  160.1190  213.8930  142.9970 C   0  0  0  0  0  2  0  0  0  0  0  0
  158.9010  213.1710  143.3200 N   0  0  0  0  0  1  0  0  0  0  0  0
  161.2640  209.7590  151.0940 N   0  0  0  0  0  2  0  0  0  0  0  0
  161.6970  207.0750  150.4750 O   0  0  0  0  0  0  0  0  0  0  0  0
  161.8070  209.3270  149.8780 N   0  0  0  0  0  2  0  0  0  0  0  0
  162.0150  207.9400  149.6170 C   0  0  0  0  0  0  0  0  0  0  0  0
  162.6500  207.5180  148.3370 C   0  0  0  0  0  2  0  0  0  0  0  0
  161.8000  206.5060  147.6510 C   0  0  0  0  0  0  0  0  0  0  0  0
  160.7680  206.8770  147.0320 O   0  0  0  0  0  0  0  0  0  0  0  0
  162.1430  205.1210  147.7300 N   0  0  0  0  0  2  0  0  0  0  0  0
  161.3370  204.0780  147.1160 C   0  0  1  0  0  3  0  0  0  0  0  0
  160.8320  204.5420  144.5870 O   0  0  0  0  0  0  0  0  0  0  0  0
  161.8790  203.8110  145.4140 S   0  0  0  0  0  3  0  0  0  0  0  0
  161.4890  202.7970  147.9160 C   0  0  0  0  0  2  0  0  0  0  0  0
  160.6050  201.8280  147.4410 O   0  0  0  0  0  0  0  0  0  0  0  0
  161.1390  200.6210  147.8900 C   0  0  0  0  0  1  0  0  0  0  0  0
  1  3  1  1  0  0  0
  2  8  2  0  0  0  0
  4 33  1  6  0  0  0
  4  1  1  0  0  0  0
  5 16  1  6  0  0  0
  5  1  1  0  0  0  0
  6  7  1  6  0  0  0
  6  4  1  0  0  0  0
  8  6  1  0  0  0  0
  8  5  1  0  0  0  0
  9 10  1  0  0  0  0
  9 18  1  0  0  0  0
 10 23  1  0  0  0  0
 12 13  1  0  0  0  0
 13  9  2  0  0  0  0
 14 16  1  0  0  0  0
 15 14  2  0  0  0  0
 15 13  1  0  0  0  0
 16 10  2  0  0  0  0
 17 19  1  0  0  0  0
 17 20  1  0  0  0  0
 18 17  2  0  0  0  0
 19 22  2  0  0  0  0
 20 21  1  0  0  0  0
 22 21  1  0  0  0  0
 22 11  1  0  0  0  0
 23 19  1  0  0  0  0
 24  2  1  0  0  0  0
 25 28  1  6  0  0  0
 25 27  1  0  0  0  0
 25 26  1  0  0  0  0
 26 24  1  1  0  0  0
 27 26  1  0  0  0  0
 29 28  1  0  0  0  0
 30 31  1  0  0  0  0
 30 29  1  0  0  0  0
 31 32  1  0  0  0  0
 35 33  1  0  0  0  0
 36 35  1  0  0  0  0
 36 34  2  0  0  0  0
 37 36  1  0  0  0  0
 38 40  1  0  0  0  0
 38 37  1  0  0  0  0
 39 38  2  0  0  0  0
 41 40  1  0  0  0  0
 41 44  1  1  0  0  0
 42 43  2  0  0  0  0
 43 41  1  0  0  0  0
 45 46  1  0  0  0  0
 45 44  1  0  0  0  0
M  END
>  <MODEL>
2

>  <REMARK>
 VINA RESULT:      -4.6      3.476      8.598
  Name = 
  15 active torsions:
  status: ('A' for Active; 'I' for Inactive)
    1  A    between atoms: C_1  and  C_10
    2  A    between atoms: C_1  and  N_34
    3  A    between atoms: C_1  and  S_36
    4  A    between atoms: C_2  and  O_37
    5  A    between atoms: O_3  and  C_10
    6  A    between atoms: C_8  and  C_16
    7  A    between atoms: C_8  and  C_19
    8  A    between atoms: C_9  and  C_11
    9  A    between atoms: C_11  and  C_21
   10  A    between atoms: C_13  and  C_15
   11  A    between atoms: C_13  and  C_45
   12  A    between atoms: C_21  and  O_37
   13  A    between atoms: N_24  and  N_25
   14  A    between atoms: N_25  and  C_35
   15  A    between atoms: C_26  and  C_38
                            x       y       z     vdW  Elec       q    Type
                         _______ _______ _______ _____ _____    ______ ____

>  <TORSDO>
F 15

$$$$
=
 OpenBabel11042422013D

 46 50  0  0  1  0  0  0  0  0999 V2000
  160.8130  211.4910  150.5470 C   0  0  2  0  0  3  0  0  0  0  0  0
  161.8000  214.2230  148.2900 C   0  0  0  0  0  3  0  0  0  0  0  0
  160.9850  211.4010  152.0510 C   0  0  0  0  0  1  0  0  0  0  0  0
  162.0400  210.9250  149.8430 C   0  0  2  0  0  3  0  0  0  0  0  0
  160.7050  212.9490  150.1180 C   0  0  1  0  0  3  0  0  0  0  0  0
  162.2800  211.7790  148.5920 C   0  0  1  0  0  3  0  0  0  0  0  0
  161.6540  211.1840  147.3330 C   0  0  0  0  0  1  0  0  0  0  0  0
  161.5900  213.0590  148.9220 C   0  0  0  0  0  0  0  0  0  0  0  0
  157.0360  213.9780  150.5260 C   0  0  0  0  0  0  0  0  0  0  0  0
  158.3680  213.5960  150.8460 C   0  0  0  0  0  0  0  0  0  0  0  0
  159.0680  213.4410  155.3140 C   0  0  0  0  0  1  0  0  0  0  0  0
  155.3400  214.4420  148.8610 O   0  0  0  0  0  1  0  0  0  0  0  0
  156.6420  214.0770  149.1860 C   0  0  0  0  0  0  0  0  0  0  0  0
  158.8610  213.4390  148.4710 C   0  0  0  0  0  3  0  0  0  0  0  0
  157.5520  213.8090  148.1650 C   0  0  0  0  0  3  0  0  0  0  0  0
  159.2790  213.3260  149.8060 C   0  0  0  0  0  0  0  0  0  0  0  0
  156.4020  214.1780  152.8170 C   0  0  0  0  0  0  0  0  0  0  0  0
  156.0820  214.2620  151.5650 N   0  0  0  0  0  0  0  0  0  0  0  0
  157.7220  213.7980  153.2570 C   0  0  0  0  0  0  0  0  0  0  0  0
  155.4960  214.4530  153.8690 N   0  0  0  0  0  2  0  0  0  0  0  0
  156.2960  214.2360  155.4370 S   0  0  0  0  0  0  0  0  0  0  0  0
  157.8170  213.7860  154.5790 C   0  0  0  0  0  0  0  0  0  0  0  0
  158.8240  213.4950  152.2880 C   0  0  0  0  0  2  0  0  0  0  0  0
  162.7200  214.3480  147.1180 C   0  0  0  0  0  2  0  0  0  0  0  0
  162.6610  214.4530  144.6750 C   0  0  1  0  0  3  0  0  0  0  0  0
  162.0280  213.8480  145.8660 C   0  0  1  0  0  3  0  0  0  0  0  0
  162.9490  213.1350  145.0770 O   0  0  0  0  0  0  0  0  0  0  0  0
  161.6900  214.4210  143.5100 C   0  0  0  0  0  2  0  0  0  0  0  0
  161.6580  213.0360  142.8890 C   0  0  0  0  0  2  0  0  0  0  0  0
  162.5390  212.9740  141.8070 O   0  0  0  0  0  0  0  0  0  0  0  0
  162.4770  214.2430  141.2330 C   0  0  0  0  0  2  0  0  0  0  0  0
  163.6410  214.4520  140.3910 N   0  0  0  0  0  1  0  0  0  0  0  0
  161.8630  209.5110  149.5450 N   0  0  0  0  0  2  0  0  0  0  0  0
  161.1870  206.8290  149.9010 O   0  0  0  0  0  0  0  0  0  0  0  0
  162.0760  208.8150  150.7410 N   0  0  0  0  0  2  0  0  0  0  0  0
  161.7030  207.4440  150.8710 C   0  0  0  0  0  0  0  0  0  0  0  0
  161.8870  206.7510  152.1760 C   0  0  0  0  0  2  0  0  0  0  0  0
  161.2090  207.5110  153.2630 C   0  0  0  0  0  0  0  0  0  0  0  0
  160.1610  208.1600  153.0070 O   0  0  0  0  0  0  0  0  0  0  0  0
  161.7730  207.5240  154.5770 N   0  0  0  0  0  2  0  0  0  0  0  0
  161.1830  208.2760  155.6740 C   0  0  1  0  0  3  0  0  0  0  0  0
  158.7250  207.5380  156.2010 O   0  0  0  0  0  0  0  0  0  0  0  0
  160.1330  207.1890  156.6620 S   0  0  0  0  0  3  0  0  0  0  0  0
  162.2940  208.8490  156.5350 C   0  0  0  0  0  2  0  0  0  0  0  0
  162.4620  210.2060  156.2600 O   0  0  0  0  0  0  0  0  0  0  0  0
  161.5450  210.8460  157.0910 C   0  0  0  0  0  1  0  0  0  0  0  0
  1  3  1  1  0  0  0
  2  8  2  0  0  0  0
  4 33  1  6  0  0  0
  4  1  1  0  0  0  0
  5 16  1  6  0  0  0
  5  1  1  0  0  0  0
  6  7  1  6  0  0  0
  6  8  1  0  0  0  0
  6  4  1  0  0  0  0
  8  5  1  0  0  0  0
  9 10  1  0  0  0  0
  9 18  1  0  0  0  0
 10 23  1  0  0  0  0
 12 13  1  0  0  0  0
 13  9  2  0  0  0  0
 14 16  1  0  0  0  0
 15 14  2  0  0  0  0
 15 13  1  0  0  0  0
 16 10  2  0  0  0  0
 17 19  1  0  0  0  0
 17 20  1  0  0  0  0
 18 17  2  0  0  0  0
 19 22  2  0  0  0  0
 20 21  1  0  0  0  0
 22 11  1  0  0  0  0
 22 21  1  0  0  0  0
 23 19  1  0  0  0  0
 24  2  1  0  0  0  0
 25 28  1  6  0  0  0
 25 27  1  0  0  0  0
 25 26  1  0  0  0  0
 26 24  1  1  0  0  0
 27 26  1  0  0  0  0
 29 28  1  0  0  0  0
 30 29  1  0  0  0  0
 31 30  1  0  0  0  0
 32 31  1  0  0  0  0
 33 35  1  0  0  0  0
 34 36  2  0  0  0  0
 35 36  1  0  0  0  0
 36 37  1  0  0  0  0
 37 38  1  0  0  0  0
 38 40  1  0  0  0  0
 39 38  2  0  0  0  0
 40 41  1  0  0  0  0
 41 44  1  1  0  0  0
 41 43  1  0  0  0  0
 42 43  2  0  0  0  0
 45 44  1  0  0  0  0
 45 46  1  0  0  0  0
M  END
>  <MODEL>
3

>  <REMARK>
 VINA RESULT:      -4.1      3.610     10.425
  Name = 
  15 active torsions:
  status: ('A' for Active; 'I' for Inactive)
    1  A    between atoms: C_1  and  C_10
    2  A    between atoms: C_1  and  N_34
    3  A    between atoms: C_1  and  S_36
    4  A    between atoms: C_2  and  O_37
    5  A    between atoms: O_3  and  C_10
    6  A    between atoms: C_8  and  C_16
    7  A    between atoms: C_8  and  C_19
    8  A    between atoms: C_9  and  C_11
    9  A    between atoms: C_11  and  C_21
   10  A    between atoms: C_13  and  C_15
   11  A    between atoms: C_13  and  C_45
   12  A    between atoms: C_21  and  O_37
   13  A    between atoms: N_24  and  N_25
   14  A    between atoms: N_25  and  C_35
   15  A    between atoms: C_26  and  C_38
                            x       y       z     vdW  Elec       q    Type
                         _______ _______ _______ _____ _____    ______ ____

>  <TORSDO>
F 15

$$$$
=
 OpenBabel11042422013D

 46 50  0  0  1  0  0  0  0  0999 V2000
  160.8140  211.0450  151.3280 C   0  0  2  0  0  3  0  0  0  0  0  0
  161.8340  213.4390  148.7270 C   0  0  0  0  0  3  0  0  0  0  0  0
  161.0710  211.1070  152.8200 C   0  0  0  0  0  1  0  0  0  0  0  0
  161.9570  210.3210  150.6270 C   0  0  2  0  0  3  0  0  0  0  0  0
  160.7740  212.4520  150.7430 C   0  0  1  0  0  3  0  0  0  0  0  0
  162.1750  211.0150  149.2760 C   0  0  1  0  0  3  0  0  0  0  0  0
  161.4360  210.3320  148.1290 C   0  0  0  0  0  1  0  0  0  0  0  0
  161.5890  212.3690  149.4970 C   0  0  0  0  0  0  0  0  0  0  0  0
  157.1870  213.7090  151.2390 C   0  0  0  0  0  0  0  0  0  0  0  0
  158.5090  213.2700  151.5260 C   0  0  0  0  0  0  0  0  0  0  0  0
  159.3910  213.3200  155.9650 C   0  0  0  0  0  1  0  0  0  0  0  0
  155.4490  214.1780  149.6190 O   0  0  0  0  0  1  0  0  0  0  0  0
  156.7410  213.7570  149.9120 C   0  0  0  0  0  0  0  0  0  0  0  0
  158.8890  212.9550  149.1460 C   0  0  0  0  0  3  0  0  0  0  0  0
  157.5910  213.3820  148.8730 C   0  0  0  0  0  3  0  0  0  0  0  0
  159.3580  212.8920  150.4670 C   0  0  0  0  0  0  0  0  0  0  0  0
  156.6640  214.0700  153.5380 C   0  0  0  0  0  0  0  0  0  0  0  0
  156.2960  214.1040  152.2970 N   0  0  0  0  0  0  0  0  0  0  0  0
  157.9790  213.6400  153.9460 C   0  0  0  0  0  0  0  0  0  0  0  0
  155.8210  214.4530  154.6080 N   0  0  0  0  0  2  0  0  0  0  0  0
  156.6740  214.2770  156.1520 S   0  0  0  0  0  0  0  0  0  0  0  0
  158.1300  213.6950  155.2620 C   0  0  0  0  0  0  0  0  0  0  0  0
  159.0200  213.2220  152.9520 C   0  0  0  0  0  2  0  0  0  0  0  0
  162.6870  213.3700  147.5020 C   0  0  0  0  0  2  0  0  0  0  0  0
  161.5900  213.1060  145.3320 C   0  0  1  0  0  3  0  0  0  0  0  0
  162.0000  214.0880  146.3570 C   0  0  1  0  0  3  0  0  0  0  0  0
  160.6700  213.6370  146.2560 O   0  0  0  0  0  0  0  0  0  0  0  0
  161.4180  213.8040  143.9960 C   0  0  0  0  0  2  0  0  0  0  0  0
  160.1860  213.2790  143.2820 C   0  0  0  0  0  2  0  0  0  0  0  0
  160.4960  212.9660  141.9570 O   0  0  0  0  0  0  0  0  0  0  0  0
  160.5720  211.5730  141.9360 C   0  0  0  0  0  2  0  0  0  0  0  0
  160.4910  211.1020  140.5650 N   0  0  0  0  0  1  0  0  0  0  0  0
  161.6720  208.8990  150.5000 N   0  0  0  0  0  2  0  0  0  0  0  0
  161.7820  206.2660  149.5870 O   0  0  0  0  0  0  0  0  0  0  0  0
  161.9080  208.5570  149.1630 N   0  0  0  0  0  2  0  0  0  0  0  0
  161.9630  207.1920  148.7520 C   0  0  0  0  0  0  0  0  0  0  0  0
  162.2760  206.8610  147.3340 C   0  0  0  0  0  2  0  0  0  0  0  0
  162.3720  205.3850  147.1600 C   0  0  0  0  0  0  0  0  0  0  0  0
  163.2550  204.9040  146.4020 O   0  0  0  0  0  0  0  0  0  0  0  0
  161.4400  204.5300  147.8270 N   0  0  0  0  0  2  0  0  0  0  0  0
  161.4540  203.0840  147.6710 C   0  0  1  0  0  3  0  0  0  0  0  0
  160.3390  203.4530  150.0130 O   0  0  0  0  0  0  0  0  0  0  0  0
  160.9190  202.3000  149.2070 S   0  0  0  0  0  3  0  0  0  0  0  0
  160.5190  202.6990  146.5380 C   0  0  0  0  0  2  0  0  0  0  0  0
  160.6360  201.3360  146.2640 O   0  0  0  0  0  0  0  0  0  0  0  0
  160.1350  201.1980  144.9710 C   0  0  0  0  0  1  0  0  0  0  0  0
  1  3  1  1  0  0  0
  2  8  2  0  0  0  0
  4 33  1  6  0  0  0
  4  1  1  0  0  0  0
  5 16  1  6  0  0  0
  5  1  1  0  0  0  0
  6  7  1  6  0  0  0
  6  8  1  0  0  0  0
  6  4  1  0  0  0  0
  8  5  1  0  0  0  0
  9 10  1  0  0  0  0
  9 18  1  0  0  0  0
 10 23  1  0  0  0  0
 12 13  1  0  0  0  0
 13  9  2  0  0  0  0
 14 16  1  0  0  0  0
 15 14  2  0  0  0  0
 15 13  1  0  0  0  0
 16 10  2  0  0  0  0
 17 19  1  0  0  0  0
 17 20  1  0  0  0  0
 18 17  2  0  0  0  0
 19 22  2  0  0  0  0
 20 21  1  0  0  0  0
 22 11  1  0  0  0  0
 22 21  1  0  0  0  0
 23 19  1  0  0  0  0
 24  2  1  0  0  0  0
 25 28  1  6  0  0  0
 25 27  1  0  0  0  0
 25 26  1  0  0  0  0
 26 24  1  1  0  0  0
 27 26  1  0  0  0  0
 29 28  1  0  0  0  0
 30 29  1  0  0  0  0
 31 30  1  0  0  0  0
 32 31  1  0  0  0  0
 35 33  1  0  0  0  0
 36 35  1  0  0  0  0
 36 34  2  0  0  0  0
 37 36  1  0  0  0  0
 38 37  1  0  0  0  0
 38 40  1  0  0  0  0
 39 38  2  0  0  0  0
 41 44  1  6  0  0  0
 41 40  1  0  0  0  0
 41 43  1  0  0  0  0
 43 42  2  0  0  0  0
 45 44  1  0  0  0  0
 46 45  1  0  0  0  0
M  END
>  <MODEL>
4

>  <REMARK>
 VINA RESULT:      -3.8      3.540      8.779
  Name = 
  15 active torsions:
  status: ('A' for Active; 'I' for Inactive)
    1  A    between atoms: C_1  and  C_10
    2  A    between atoms: C_1  and  N_34
    3  A    between atoms: C_1  and  S_36
    4  A    between atoms: C_2  and  O_37
    5  A    between atoms: O_3  and  C_10
    6  A    between atoms: C_8  and  C_16
    7  A    between atoms: C_8  and  C_19
    8  A    between atoms: C_9  and  C_11
    9  A    between atoms: C_11  and  C_21
   10  A    between atoms: C_13  and  C_15
   11  A    between atoms: C_13  and  C_45
   12  A    between atoms: C_21  and  O_37
   13  A    between atoms: N_24  and  N_25
   14  A    between atoms: N_25  and  C_35
   15  A    between atoms: C_26  and  C_38
                            x       y       z     vdW  Elec       q    Type
                         _______ _______ _______ _____ _____    ______ ____

>  <TORSDO>
F 15

$$$$
=
 OpenBabel11042422013D

 46 50  0  0  1  0  0  0  0  0999 V2000
  162.3430  207.1130  150.2350 C   0  0  2  0  0  3  0  0  0  0  0  0
  161.7090  206.6170  153.8250 C   0  0  0  0  0  3  0  0  0  0  0  0
  163.6680  207.0930  149.5000 C   0  0  0  0  0  1  0  0  0  0  0  0
  162.0350  208.5220  150.7250 C   0  0  2  0  0  3  0  0  0  0  0  0
  162.4190  206.2330  151.4770 C   0  0  1  0  0  3  0  0  0  0  0  0
  161.3430  208.3890  152.0880 C   0  0  1  0  0  3  0  0  0  0  0  0
  159.8200  208.4130  151.9880 C   0  0  0  0  0  1  0  0  0  0  0  0
  161.7800  207.0420  152.5550 C   0  0  0  0  0  0  0  0  0  0  0  0
  160.8610  203.1690  149.7830 C   0  0  0  0  0  0  0  0  0  0  0  0
  161.5010  204.4260  149.9590 C   0  0  0  0  0  0  0  0  0  0  0  0
  162.6150  206.3370  146.0110 C   0  0  0  0  0  1  0  0  0  0  0  0
  159.8120  201.2080  150.7410 O   0  0  0  0  0  1  0  0  0  0  0  0
  160.4450  202.4350  150.9010 C   0  0  0  0  0  0  0  0  0  0  0  0
  161.2950  204.1590  152.3660 C   0  0  0  0  0  3  0  0  0  0  0  0
  160.6640  202.9300  152.1860 C   0  0  0  0  0  3  0  0  0  0  0  0
  161.7150  204.9170  151.2620 C   0  0  0  0  0  0  0  0  0  0  0  0
  160.9920  203.2850  147.4040 C   0  0  0  0  0  0  0  0  0  0  0  0
  160.6290  202.6380  148.4650 N   0  0  0  0  0  0  0  0  0  0  0  0
  161.6470  204.5690  147.4630 C   0  0  0  0  0  0  0  0  0  0  0  0
  160.7870  202.7980  146.0910 N   0  0  0  0  0  2  0  0  0  0  0  0
  161.4180  203.9550  144.9040 S   0  0  0  0  0  0  0  0  0  0  0  0
  161.9280  205.0360  146.2540 C   0  0  0  0  0  0  0  0  0  0  0  0
  161.9720  205.2330  148.7660 C   0  0  0  0  0  2  0  0  0  0  0  0
  161.1110  207.4420  154.9180 C   0  0  0  0  0  2  0  0  0  0  0  0
  161.0810  209.7150  155.8230 C   0  0  1  0  0  3  0  0  0  0  0  0
  161.8910  208.7330  155.0710 C   0  0  1  0  0  3  0  0  0  0  0  0
  162.1140  208.9830  156.4380 O   0  0  0  0  0  0  0  0  0  0  0  0
  161.5720  211.1180  155.5210 C   0  0  0  0  0  2  0  0  0  0  0  0
  160.4180  211.9950  155.0700 C   0  0  0  0  0  2  0  0  0  0  0  0
  160.2890  211.9430  153.6810 O   0  0  0  0  0  0  0  0  0  0  0  0
  158.9350  211.6850  153.4650 C   0  0  0  0  0  2  0  0  0  0  0  0
  158.5460  212.1930  152.1610 N   0  0  0  0  0  1  0  0  0  0  0  0
  161.2380  209.2510  149.7480 N   0  0  0  0  0  2  0  0  0  0  0  0
  161.2480  212.0380  149.6790 O   0  0  0  0  0  0  0  0  0  0  0  0
  162.1330  209.9990  148.9730 N   0  0  0  0  0  2  0  0  0  0  0  0
  162.0880  211.4250  148.9690 C   0  0  0  0  0  0  0  0  0  0  0  0
  163.0140  212.1890  148.0880 C   0  0  0  0  0  2  0  0  0  0  0  0
  162.2390  213.0640  147.1630 C   0  0  0  0  0  0  0  0  0  0  0  0
  162.5270  214.2860  147.0770 O   0  0  0  0  0  0  0  0  0  0  0  0
  161.1550  212.5140  146.4100 N   0  0  0  0  0  2  0  0  0  0  0  0
  160.3340  213.3190  145.5190 C   0  0  1  0  0  3  0  0  0  0  0  0
  161.1240  212.2380  143.2670 O   0  0  0  0  0  0  0  0  0  0  0  0
  159.8460  212.3360  144.0860 S   0  0  0  0  0  3  0  0  0  0  0  0
  159.1020  213.7900  146.2700 C   0  0  0  0  0  2  0  0  0  0  0  0
  158.7490  212.8570  147.2450 O   0  0  0  0  0  0  0  0  0  0  0  0
  157.4390  212.5030  146.9300 C   0  0  0  0  0  1  0  0  0  0  0  0
  1  3  1  1  0  0  0
  1  4  1  0  0  0  0
  1  5  1  0  0  0  0
  2 24  1  0  0  0  0
  4 33  1  6  0  0  0
  4  6  1  0  0  0  0
  5 16  1  6  0  0  0
  5  8  1  0  0  0  0
  6  7  1  6  0  0  0
  6  8  1  0  0  0  0
  8  2  2  0  0  0  0
  9 10  2  0  0  0  0
  9 13  1  0  0  0  0
 10 16  1  0  0  0  0
 11 22  1  0  0  0  0
 12 13  1  0  0  0  0
 13 15  2  0  0  0  0
 15 14  1  0  0  0  0
 16 14  2  0  0  0  0
 17 19  1  0  0  0  0
 17 18  2  0  0  0  0
 18  9  1  0  0  0  0
 19 23  1  0  0  0  0
 20 17  1  0  0  0  0
 21 20  1  0  0  0  0
 21 22  1  0  0  0  0
 22 19  2  0  0  0  0
 23 10  1  0  0  0  0
 25 28  1  6  0  0  0
 25 27  1  0  0  0  0
 26 24  1  1  0  0  0
 26 25  1  0  0  0  0
 26 27  1  0  0  0  0
 29 28  1  0  0  0  0
 30 29  1  0  0  0  0
 31 30  1  0  0  0  0
 32 31  1  0  0  0  0
 35 33  1  0  0  0  0
 36 35  1  0  0  0  0
 36 34  2  0  0  0  0
 37 36  1  0  0  0  0
 38 37  1  0  0  0  0
 39 38  2  0  0  0  0
 40 38  1  0  0  0  0
 41 44  1  1  0  0  0
 41 40  1  0  0  0  0
 42 43  2  0  0  0  0
 43 41  1  0  0  0  0
 44 45  1  0  0  0  0
 46 45  1  0  0  0  0
M  END
>  <MODEL>
5

>  <REMARK>
 VINA RESULT:      -3.8      3.697      6.205
  Name = 
  15 active torsions:
  status: ('A' for Active; 'I' for Inactive)
    1  A    between atoms: C_1  and  C_10
    2  A    between atoms: C_1  and  N_34
    3  A    between atoms: C_1  and  S_36
    4  A    between atoms: C_2  and  O_37
    5  A    between atoms: O_3  and  C_10
    6  A    between atoms: C_8  and  C_16
    7  A    between atoms: C_8  and  C_19
    8  A    between atoms: C_9  and  C_11
    9  A    between atoms: C_11  and  C_21
   10  A    between atoms: C_13  and  C_15
   11  A    between atoms: C_13  and  C_45
   12  A    between atoms: C_21  and  O_37
   13  A    between atoms: N_24  and  N_25
   14  A    between atoms: N_25  and  C_35
   15  A    between atoms: C_26  and  C_38
                            x       y       z     vdW  Elec       q    Type
                         _______ _______ _______ _____ _____    ______ ____

>  <TORSDO>
F 15

$$$$
=
 OpenBabel11042422013D

 46 50  0  0  1  0  0  0  0  0999 V2000
  162.0900  208.5570  149.5440 C   0  0  2  0  0  3  0  0  0  0  0  0
  162.6490  209.1860  153.1250 C   0  0  0  0  0  3  0  0  0  0  0  0
  163.1130  208.2440  148.4700 C   0  0  0  0  0  1  0  0  0  0  0  0
  161.8940  210.0630  149.6600 C   0  0  2  0  0  3  0  0  0  0  0  0
  162.5930  208.0830  150.9020 C   0  0  1  0  0  3  0  0  0  0  0  0
  161.6760  210.3800  151.1450 C   0  0  1  0  0  3  0  0  0  0  0  0
  160.2000  210.4590  151.5280 C   0  0  0  0  0  1  0  0  0  0  0  0
  162.2960  209.2100  151.8320 C   0  0  0  0  0  0  0  0  0  0  0  0
  161.0130  204.5920  150.8040 C   0  0  0  0  0  0  0  0  0  0  0  0
  161.6280  205.8010  150.3770 C   0  0  0  0  0  0  0  0  0  0  0  0
  162.4190  205.8260  145.9210 C   0  0  0  0  0  1  0  0  0  0  0  0
  160.0870  203.2370  152.5840 O   0  0  0  0  0  1  0  0  0  0  0  0
  160.6940  204.4120  152.1560 C   0  0  0  0  0  0  0  0  0  0  0  0
  161.5910  206.5960  152.6740 C   0  0  0  0  0  3  0  0  0  0  0  0
  160.9840  205.4100  153.0840 C   0  0  0  0  0  3  0  0  0  0  0  0
  161.9150  206.8040  151.3240 C   0  0  0  0  0  0  0  0  0  0  0  0
  160.9810  203.6740  148.6020 C   0  0  0  0  0  0  0  0  0  0  0  0
  160.7090  203.5480  149.8620 N   0  0  0  0  0  0  0  0  0  0  0  0
  161.6010  204.8570  148.0570 C   0  0  0  0  0  0  0  0  0  0  0  0
  160.7030  202.6710  147.6440 N   0  0  0  0  0  2  0  0  0  0  0  0
  161.2190  203.2030  146.0340 S   0  0  0  0  0  0  0  0  0  0  0  0
  161.7880  204.7590  146.7480 C   0  0  0  0  0  0  0  0  0  0  0  0
  161.9950  206.0160  148.9220 C   0  0  0  0  0  2  0  0  0  0  0  0
  162.3940  210.3320  154.0500 C   0  0  0  0  0  2  0  0  0  0  0  0
  160.2670  210.3490  155.2580 C   0  0  1  0  0  3  0  0  0  0  0  0
  161.6550  209.8430  155.2800 C   0  0  1  0  0  3  0  0  0  0  0  0
  160.5780  209.0280  154.8840 O   0  0  0  0  0  0  0  0  0  0  0  0
  159.7020  210.3500  156.6660 C   0  0  0  0  0  2  0  0  0  0  0  0
  158.8280  211.5720  156.8820 C   0  0  0  0  0  2  0  0  0  0  0  0
  158.2540  211.9730  155.6740 O   0  0  0  0  0  0  0  0  0  0  0  0
  156.8790  211.8990  155.8990 C   0  0  0  0  0  2  0  0  0  0  0  0
  156.1840  211.7990  154.6290 N   0  0  0  0  0  1  0  0  0  0  0  0
  160.7980  210.5120  148.8130 N   0  0  0  0  0  2  0  0  0  0  0  0
  160.6510  213.2850  148.5610 O   0  0  0  0  0  0  0  0  0  0  0  0
  161.3720  211.2200  147.7500 N   0  0  0  0  0  2  0  0  0  0  0  0
  161.2590  212.6400  147.6660 C   0  0  0  0  0  0  0  0  0  0  0  0
  161.8290  213.3570  146.4910 C   0  0  0  0  0  2  0  0  0  0  0  0
  161.0220  213.0690  145.2730 C   0  0  0  0  0  0  0  0  0  0  0  0
  159.7730  212.9410  145.3700 O   0  0  0  0  0  0  0  0  0  0  0  0
  161.6750  212.9080  144.0120 N   0  0  0  0  0  2  0  0  0  0  0  0
  160.9520  212.5890  142.7900 C   0  0  1  0  0  3  0  0  0  0  0  0
  159.6460  213.6530  140.7830 O   0  0  0  0  0  0  0  0  0  0  0  0
  160.1310  214.0710  142.1640 S   0  0  0  0  0  3  0  0  0  0  0  0
  161.9320  212.0630  141.7570 C   0  0  0  0  0  2  0  0  0  0  0  0
  161.3980  210.9440  141.1170 O   0  0  0  0  0  0  0  0  0  0  0  0
  162.2870  210.6810  140.0770 C   0  0  0  0  0  1  0  0  0  0  0  0
  1  3  1  6  0  0  0
  1  4  1  0  0  0  0
  1  5  1  0  0  0  0
  2 24  1  0  0  0  0
  4 33  1  6  0  0  0
  4  6  1  0  0  0  0
  5 16  1  1  0  0  0
  5  8  1  0  0  0  0
  6  7  1  6  0  0  0
  6  8  1  0  0  0  0
  8  2  2  0  0  0  0
  9 13  1  0  0  0  0
 10  9  2  0  0  0  0
 10 16  1  0  0  0  0
 11 22  1  0  0  0  0
 13 12  1  0  0  0  0
 13 15  2  0  0  0  0
 14 15  1  0  0  0  0
 16 14  2  0  0  0  0
 17 18  2  0  0  0  0
 18  9  1  0  0  0  0
 19 17  1  0  0  0  0
 19 23  1  0  0  0  0
 20 17  1  0  0  0  0
 21 22  1  0  0  0  0
 21 20  1  0  0  0  0
 22 19  2  0  0  0  0
 23 10  1  0  0  0  0
 25 26  1  0  0  0  0
 25 28  1  1  0  0  0
 26 24  1  6  0  0  0
 27 25  1  0  0  0  0
 27 26  1  0  0  0  0
 28 29  1  0  0  0  0
 30 31  1  0  0  0  0
 30 29  1  0  0  0  0
 32 31  1  0  0  0  0
 35 33  1  0  0  0  0
 36 35  1  0  0  0  0
 36 34  2  0  0  0  0
 37 36  1  0  0  0  0
 38 39  2  0  0  0  0
 38 37  1  0  0  0  0
 40 38  1  0  0  0  0
 41 44  1  6  0  0  0
 41 40  1  0  0  0  0
 42 43  2  0  0  0  0
 43 41  1  0  0  0  0
 45 44  1  0  0  0  0
 46 45  1  0  0  0  0
M  END
>  <MODEL>
6

>  <REMARK>
 VINA RESULT:      -3.7      3.094      4.728
  Name = 
  15 active torsions:
  status: ('A' for Active; 'I' for Inactive)
    1  A    between atoms: C_1  and  C_10
    2  A    between atoms: C_1  and  N_34
    3  A    between atoms: C_1  and  S_36
    4  A    between atoms: C_2  and  O_37
    5  A    between atoms: O_3  and  C_10
    6  A    between atoms: C_8  and  C_16
    7  A    between atoms: C_8  and  C_19
    8  A    between atoms: C_9  and  C_11
    9  A    between atoms: C_11  and  C_21
   10  A    between atoms: C_13  and  C_15
   11  A    between atoms: C_13  and  C_45
   12  A    between atoms: C_21  and  O_37
   13  A    between atoms: N_24  and  N_25
   14  A    between atoms: N_25  and  C_35
   15  A    between atoms: C_26  and  C_38
                            x       y       z     vdW  Elec       q    Type
                         _______ _______ _______ _____ _____    ______ ____

>  <TORSDO>
F 15

$$$$
=
 OpenBabel11042422013D

 46 50  0  0  1  0  0  0  0  0999 V2000
  162.3070  204.4070  145.3880 C   0  0  2  0  0  3  0  0  0  0  0  0
  161.6720  206.6980  148.1960 C   0  0  0  0  0  3  0  0  0  0  0  0
  163.6320  203.8530  144.9040 C   0  0  0  0  0  1  0  0  0  0  0  0
  162.0010  205.7260  144.6900 C   0  0  2  0  0  3  0  0  0  0  0  0
  162.3810  204.7170  146.8780 C   0  0  1  0  0  3  0  0  0  0  0  0
  161.3080  206.6330  145.7140 C   0  0  1  0  0  3  0  0  0  0  0  0
  159.7850  206.5780  145.6270 C   0  0  0  0  0  1  0  0  0  0  0  0
  161.7440  206.0580  147.0200 C   0  0  0  0  0  0  0  0  0  0  0  0
  160.7690  202.8600  149.8180 C   0  0  0  0  0  0  0  0  0  0  0  0
  161.4620  203.8550  149.0750 C   0  0  0  0  0  0  0  0  0  0  0  0
  162.7020  207.3560  151.6600 C   0  0  0  0  0  1  0  0  0  0  0  0
  159.6380  200.7200  149.8940 O   0  0  0  0  0  1  0  0  0  0  0  0
  160.3110  201.7020  149.1760 C   0  0  0  0  0  0  0  0  0  0  0  0
  161.2010  202.4980  147.0750 C   0  0  0  0  0  3  0  0  0  0  0  0
  160.5270  201.5260  147.8110 C   0  0  0  0  0  3  0  0  0  0  0  0
  161.6750  203.6640  147.6950 C   0  0  0  0  0  0  0  0  0  0  0  0
  160.9430  204.0770  151.8630 C   0  0  0  0  0  0  0  0  0  0  0  0
  160.5330  203.0250  151.2280 N   0  0  0  0  0  0  0  0  0  0  0  0
  161.6580  205.1470  151.2110 C   0  0  0  0  0  0  0  0  0  0  0  0
  160.7290  204.2810  153.2460 N   0  0  0  0  0  2  0  0  0  0  0  0
  161.4270  205.8290  153.7520 S   0  0  0  0  0  0  0  0  0  0  0  0
  161.9710  206.1180  152.0570 C   0  0  0  0  0  0  0  0  0  0  0  0
  161.9560  205.1220  149.7430 C   0  0  0  0  0  2  0  0  0  0  0  0
  161.0750  208.0620  148.3340 C   0  0  0  0  0  2  0  0  0  0  0  0
  161.5840  210.4350  148.6350 C   0  0  1  0  0  3  0  0  0  0  0  0
  162.1720  209.0810  148.5640 C   0  0  1  0  0  3  0  0  0  0  0  0
  161.9560  209.7290  149.7950 O   0  0  0  0  0  0  0  0  0  0  0  0
  162.6460  211.4700  148.3160 C   0  0  0  0  0  2  0  0  0  0  0  0
  162.0820  212.5380  147.3960 C   0  0  0  0  0  2  0  0  0  0  0  0
  160.7820  212.2040  147.0120 O   0  0  0  0  0  0  0  0  0  0  0  0
  160.5680  212.9280  145.8390 C   0  0  0  0  0  2  0  0  0  0  0  0
  159.5190  212.2920  145.0600 N   0  0  0  0  0  1  0  0  0  0  0  0
  161.2050  205.5060  143.4900 N   0  0  0  0  0  2  0  0  0  0  0  0
  161.0510  207.4500  141.4960 O   0  0  0  0  0  0  0  0  0  0  0  0
  162.0870  205.5670  142.4030 N   0  0  0  0  0  2  0  0  0  0  0  0
  161.9560  206.5780  141.4060 C   0  0  0  0  0  0  0  0  0  0  0  0
  162.8720  206.5780  140.2320 C   0  0  0  0  0  2  0  0  0  0  0  0
  162.2890  207.3870  139.1250 C   0  0  0  0  0  0  0  0  0  0  0  0
  161.9900  206.8280  138.0370 O   0  0  0  0  0  0  0  0  0  0  0  0
  162.1060  208.7950  139.2960 N   0  0  0  0  0  2  0  0  0  0  0  0
  161.5780  209.6490  138.2440 C   0  0  1  0  0  3  0  0  0  0  0  0
  159.2020  208.6640  137.7440 O   0  0  0  0  0  0  0  0  0  0  0  0
  159.7990  209.8620  138.4670 S   0  0  0  0  0  3  0  0  0  0  0  0
  162.2740  210.9970  138.3030 C   0  0  0  0  0  2  0  0  0  0  0  0
  163.0740  211.0720  139.4440 O   0  0  0  0  0  0  0  0  0  0  0  0
  162.8890  212.3710  139.9130 C   0  0  0  0  0  1  0  0  0  0  0  0
  1  3  1  6  0  0  0
  1  5  1  0  0  0  0
  2 24  1  0  0  0  0
  4 33  1  6  0  0  0
  4  1  1  0  0  0  0
  4  6  1  0  0  0  0
  5  8  1  0  0  0  0
  5 16  1  1  0  0  0
  6  7  1  6  0  0  0
  6  8  1  0  0  0  0
  8  2  2  0  0  0  0
  9 18  1  0  0  0  0
 10 23  1  0  0  0  0
 10  9  2  0  0  0  0
 11 22  1  0  0  0  0
 13  9  1  0  0  0  0
 13 12  1  0  0  0  0
 14 16  2  0  0  0  0
 14 15  1  0  0  0  0
 15 13  2  0  0  0  0
 16 10  1  0  0  0  0
 17 20  1  0  0  0  0
 18 17  2  0  0  0  0
 19 17  1  0  0  0  0
 19 22  2  0  0  0  0
 20 21  1  0  0  0  0
 22 21  1  0  0  0  0
 23 19  1  0  0  0  0
 25 28  1  6  0  0  0
 25 27  1  0  0  0  0
 26 24  1  1  0  0  0
 26 25  1  0  0  0  0
 26 27  1  0  0  0  0
 29 28  1  0  0  0  0
 30 29  1  0  0  0  0
 31 30  1  0  0  0  0
 32 31  1  0  0  0  0
 35 33  1  0  0  0  0
 36 34  2  0  0  0  0
 36 35  1  0  0  0  0
 37 36  1  0  0  0  0
 38 40  1  0  0  0  0
 38 37  1  0  0  0  0
 39 38  2  0  0  0  0
 41 44  1  1  0  0  0
 41 43  1  0  0  0  0
 41 40  1  0  0  0  0
 42 43  2  0  0  0  0
 44 45  1  0  0  0  0
 45 46  1  0  0  0  0
M  END
>  <MODEL>
7

>  <REMARK>
 VINA RESULT:      -3.4      4.351      6.828
  Name = 
  15 active torsions:
  status: ('A' for Active; 'I' for Inactive)
    1  A    between atoms: C_1  and  C_10
    2  A    between atoms: C_1  and  N_34
    3  A    between atoms: C_1  and  S_36
    4  A    between atoms: C_2  and  O_37
    5  A    between atoms: O_3  and  C_10
    6  A    between atoms: C_8  and  C_16
    7  A    between atoms: C_8  and  C_19
    8  A    between atoms: C_9  and  C_11
    9  A    between atoms: C_11  and  C_21
   10  A    between atoms: C_13  and  C_15
   11  A    between atoms: C_13  and  C_45
   12  A    between atoms: C_21  and  O_37
   13  A    between atoms: N_24  and  N_25
   14  A    between atoms: N_25  and  C_35
   15  A    between atoms: C_26  and  C_38
                            x       y       z     vdW  Elec       q    Type
                         _______ _______ _______ _____ _____    ______ ____

>  <TORSDO>
F 15

$$$$
=
 OpenBabel11042422013D

 46 50  0  0  1  0  0  0  0  0999 V2000
  159.2410  213.1500  153.4190 C   0  0  2  0  0  3  0  0  0  0  0  0
  161.2460  211.4430  150.8500 C   0  0  0  0  0  3  0  0  0  0  0  0
  159.5370  214.4530  154.1340 C   0  0  0  0  0  1  0  0  0  0  0  0
  159.8500  211.9810  154.1820 C   0  0  2  0  0  3  0  0  0  0  0  0
  159.8920  213.1490  152.0410 C   0  0  1  0  0  3  0  0  0  0  0  0
  160.3460  210.9680  153.1430 C   0  0  1  0  0  3  0  0  0  0  0  0
  159.3330  209.8640  152.8540 C   0  0  0  0  0  1  0  0  0  0  0  0
  160.5220  211.8020  151.9190 C   0  0  0  0  0  0  0  0  0  0  0  0
  158.3080  213.7210  148.5980 C   0  0  0  0  0  0  0  0  0  0  0  0
  159.2860  213.5100  149.6090 C   0  0  0  0  0  0  0  0  0  0  0  0
  163.4700  213.2620  147.9040 C   0  0  0  0  0  1  0  0  0  0  0  0
  155.9920  214.0370  147.9680 O   0  0  0  0  0  1  0  0  0  0  0  0
  156.9550  213.8240  148.9470 C   0  0  0  0  0  0  0  0  0  0  0  0
  157.5160  213.5030  151.2760 C   0  0  0  0  0  3  0  0  0  0  0  0
  156.5640  213.7150  150.2800 C   0  0  0  0  0  3  0  0  0  0  0  0
  158.8790  213.4030  150.9530 C   0  0  0  0  0  0  0  0  0  0  0  0
  159.9300  213.7500  146.8490 C   0  0  0  0  0  0  0  0  0  0  0  0
  158.6900  213.8340  147.2150 N   0  0  0  0  0  0  0  0  0  0  0  0
  161.0040  213.5400  147.7880 C   0  0  0  0  0  0  0  0  0  0  0  0
  160.3490  213.8510  145.5010 N   0  0  0  0  0  2  0  0  0  0  0  0
  162.1100  213.6830  145.3930 S   0  0  0  0  0  0  0  0  0  0  0  0
  162.1830  213.4820  147.1840 C   0  0  0  0  0  0  0  0  0  0  0  0
  160.7540  213.3820  149.2570 C   0  0  0  0  0  2  0  0  0  0  0  0
  161.9160  210.1110  150.7430 C   0  0  0  0  0  2  0  0  0  0  0  0
  161.5860  208.6960  148.7750 C   0  0  1  0  0  3  0  0  0  0  0  0
  162.3290  209.8580  149.3070 C   0  0  1  0  0  3  0  0  0  0  0  0
  161.2110  210.0170  148.4660 O   0  0  0  0  0  0  0  0  0  0  0  0
  162.3400  208.1020  147.6010 C   0  0  0  0  0  2  0  0  0  0  0  0
  162.4300  206.5930  147.7410 C   0  0  0  0  0  2  0  0  0  0  0  0
  161.9000  205.9730  146.6080 O   0  0  0  0  0  0  0  0  0  0  0  0
  161.2080  204.8690  147.1050 C   0  0  0  0  0  2  0  0  0  0  0  0
  161.1940  204.9170  148.5560 N   0  0  0  0  0  1  0  0  0  0  0  0
  158.8880  211.4150  155.1190 N   0  0  0  0  0  2  0  0  0  0  0  0
  161.0480  210.8840  156.8010 O   0  0  0  0  0  0  0  0  0  0  0  0
  159.3310  210.1200  155.4200 N   0  0  0  0  0  2  0  0  0  0  0  0
  160.4480  209.9070  156.2810 C   0  0  0  0  0  0  0  0  0  0  0  0
  160.9290  208.5200  156.5320 C   0  0  0  0  0  2  0  0  0  0  0  0
  160.3990  207.5950  155.4920 C   0  0  0  0  0  0  0  0  0  0  0  0
  159.3170  206.9840  155.6970 O   0  0  0  0  0  0  0  0  0  0  0  0
  161.1400  207.3830  154.2880 N   0  0  0  0  0  2  0  0  0  0  0  0
  160.6990  206.4660  153.2490 C   0  0  1  0  0  3  0  0  0  0  0  0
  162.7040  206.8010  151.5960 O   0  0  0  0  0  0  0  0  0  0  0  0
  161.2090  207.0860  151.6320 S   0  0  0  0  0  3  0  0  0  0  0  0
  161.3130  205.1010  153.5000 C   0  0  0  0  0  2  0  0  0  0  0  0
  160.6190  204.1250  152.7850 O   0  0  0  0  0  0  0  0  0  0  0  0
  161.5750  203.5680  151.9370 C   0  0  0  0  0  1  0  0  0  0  0  0
  1  3  1  1  0  0  0
  1  4  1  0  0  0  0
  2  8  2  0  0  0  0
  4 33  1  1  0  0  0
  5 16  1  6  0  0  0
  5  1  1  0  0  0  0
  6  7  1  6  0  0  0
  6  4  1  0  0  0  0
  8  5  1  0  0  0  0
  8  6  1  0  0  0  0
  9 13  2  0  0  0  0
  9 10  1  0  0  0  0
 10 16  2  0  0  0  0
 12 13  1  0  0  0  0
 13 15  1  0  0  0  0
 15 14  2  0  0  0  0
 16 14  1  0  0  0  0
 17 18  2  0  0  0  0
 17 19  1  0  0  0  0
 18  9  1  0  0  0  0
 19 23  1  0  0  0  0
 20 17  1  0  0  0  0
 21 20  1  0  0  0  0
 21 22  1  0  0  0  0
 22 19  2  0  0  0  0
 22 11  1  0  0  0  0
 23 10  1  0  0  0  0
 24  2  1  0  0  0  0
 25 28  1  6  0  0  0
 25 26  1  0  0  0  0
 26 24  1  1  0  0  0
 27 25  1  0  0  0  0
 27 26  1  0  0  0  0
 28 29  1  0  0  0  0
 30 31  1  0  0  0  0
 30 29  1  0  0  0  0
 31 32  1  0  0  0  0
 33 35  1  0  0  0  0
 35 36  1  0  0  0  0
 36 37  1  0  0  0  0
 36 34  2  0  0  0  0
 38 39  2  0  0  0  0
 38 37  1  0  0  0  0
 40 38  1  0  0  0  0
 41 44  1  1  0  0  0
 41 40  1  0  0  0  0
 42 43  2  0  0  0  0
 43 41  1  0  0  0  0
 45 44  1  0  0  0  0
 46 45  1  0  0  0  0
M  END
>  <MODEL>
8

>  <REMARK>
 VINA RESULT:      -3.4      3.954     10.007
  Name = 
  15 active torsions:
  status: ('A' for Active; 'I' for Inactive)
    1  A    between atoms: C_1  and  C_10
    2  A    between atoms: C_1  and  N_34
    3  A    between atoms: C_1  and  S_36
    4  A    between atoms: C_2  and  O_37
    5  A    between atoms: O_3  and  C_10
    6  A    between atoms: C_8  and  C_16
    7  A    between atoms: C_8  and  C_19
    8  A    between atoms: C_9  and  C_11
    9  A    between atoms: C_11  and  C_21
   10  A    between atoms: C_13  and  C_15
   11  A    between atoms: C_13  and  C_45
   12  A    between atoms: C_21  and  O_37
   13  A    between atoms: N_24  and  N_25
   14  A    between atoms: N_25  and  C_35
   15  A    between atoms: C_26  and  C_38
                            x       y       z     vdW  Elec       q    Type
                         _______ _______ _______ _____ _____    ______ ____

>  <TORSDO>
F 15

$$$$
=
 OpenBabel11042422013D

 46 50  0  0  1  0  0  0  0  0999 V2000
  161.3060  210.5850  150.1270 C   0  0  2  0  0  3  0  0  0  0  0  0
  161.8850  213.9270  148.7030 C   0  0  0  0  0  3  0  0  0  0  0  0
  162.0430  209.9020  151.2620 C   0  0  0  0  0  1  0  0  0  0  0  0
  161.9850  210.2770  148.7990 C   0  0  2  0  0  3  0  0  0  0  0  0
  161.3640  212.0980  150.2990 C   0  0  1  0  0  3  0  0  0  0  0  0
  161.8850  211.5390  147.9340 C   0  0  1  0  0  3  0  0  0  0  0  0
  160.6900  211.5210  146.9850 C   0  0  0  0  0  1  0  0  0  0  0  0
  161.6930  212.6220  148.9410 C   0  0  0  0  0  0  0  0  0  0  0  0
  158.4860  213.0460  152.6460 C   0  0  0  0  0  0  0  0  0  0  0  0
  159.7110  212.4990  152.1750 C   0  0  0  0  0  0  0  0  0  0  0  0
  162.0380  210.4500  155.4720 C   0  0  0  0  0  1  0  0  0  0  0  0
  156.4320  214.2510  152.2060 O   0  0  0  0  0  1  0  0  0  0  0  0
  157.6350  213.7170  151.7580 C   0  0  0  0  0  0  0  0  0  0  0  0
  159.1900  213.3260  149.9490 C   0  0  0  0  0  3  0  0  0  0  0  0
  157.9890  213.8560  150.4170 C   0  0  0  0  0  3  0  0  0  0  0  0
  160.0570  212.6430  150.8170 C   0  0  0  0  0  0  0  0  0  0  0  0
  158.8570  212.3000  154.8810 C   0  0  0  0  0  0  0  0  0  0  0  0
  158.1040  212.9170  154.0270 N   0  0  0  0  0  0  0  0  0  0  0  0
  160.1190  211.7040  154.5150 C   0  0  0  0  0  0  0  0  0  0  0  0
  158.5220  212.1540  156.2480 N   0  0  0  0  0  2  0  0  0  0  0  0
  159.7950  211.2600  157.0980 S   0  0  0  0  0  0  0  0  0  0  0  0
  160.7150  211.1340  155.5520 C   0  0  0  0  0  0  0  0  0  0  0  0
  160.6550  211.7790  153.1170 C   0  0  0  0  0  2  0  0  0  0  0  0
  162.2590  214.4520  147.3540 C   0  0  0  0  0  2  0  0  0  0  0  0
  162.2570  213.9150  144.9680 C   0  0  1  0  0  3  0  0  0  0  0  0
  162.1620  213.3420  146.3270 C   0  0  1  0  0  3  0  0  0  0  0  0
  163.3570  213.2880  145.5850 O   0  0  0  0  0  0  0  0  0  0  0  0
  161.6330  212.9610  143.9670 C   0  0  0  0  0  2  0  0  0  0  0  0
  162.4020  212.9930  142.6590 C   0  0  0  0  0  2  0  0  0  0  0  0
  161.5240  212.8510  141.5820 O   0  0  0  0  0  0  0  0  0  0  0  0
  161.1570  211.5050  141.6060 C   0  0  0  0  0  2  0  0  0  0  0  0
  160.4860  211.1620  140.3650 N   0  0  0  0  0  1  0  0  0  0  0  0
  161.3900  209.1050  148.1710 N   0  0  0  0  0  2  0  0  0  0  0  0
  161.8940  206.5700  147.1230 O   0  0  0  0  0  0  0  0  0  0  0  0
  161.7420  208.0010  148.9580 N   0  0  0  0  0  2  0  0  0  0  0  0
  161.9800  206.7240  148.3700 C   0  0  0  0  0  0  0  0  0  0  0  0
  162.2920  205.5580  149.2420 C   0  0  0  0  0  2  0  0  0  0  0  0
  161.3030  204.4670  149.0150 C   0  0  0  0  0  0  0  0  0  0  0  0
  160.1530  204.5560  149.5190 O   0  0  0  0  0  0  0  0  0  0  0  0
  161.6800  203.3150  148.2570 N   0  0  0  0  0  2  0  0  0  0  0  0
  160.7770  202.1970  148.0300 C   0  0  1  0  0  3  0  0  0  0  0  0
  161.0780  203.0220  145.5610 O   0  0  0  0  0  0  0  0  0  0  0  0
  160.8360  201.7090  146.2920 S   0  0  0  0  0  3  0  0  0  0  0  0
  161.1960  201.0340  148.9110 C   0  0  0  0  0  2  0  0  0  0  0  0
  160.4430  201.0270  150.0840 O   0  0  0  0  0  0  0  0  0  0  0  0
  161.2480  201.6740  151.0190 C   0  0  0  0  0  1  0  0  0  0  0  0
  1  5  1  0  0  0  0
  1  3  1  1  0  0  0
  2  8  2  0  0  0  0
  4 33  1  6  0  0  0
  4  1  1  0  0  0  0
  5 16  1  6  0  0  0
  6  7  1  6  0  0  0
  6  4  1  0  0  0  0
  6  8  1  0  0  0  0
  8  5  1  0  0  0  0
  9 18  1  0  0  0  0
 10  9  1  0  0  0  0
 10 23  1  0  0  0  0
 11 22  1  0  0  0  0
 13 12  1  0  0  0  0
 13  9  2  0  0  0  0
 14 15  2  0  0  0  0
 14 16  1  0  0  0  0
 15 13  1  0  0  0  0
 16 10  2  0  0  0  0
 17 20  1  0  0  0  0
 18 17  2  0  0  0  0
 19 17  1  0  0  0  0
 19 22  2  0  0  0  0
 20 21  1  0  0  0  0
 22 21  1  0  0  0  0
 23 19  1  0  0  0  0
 24  2  1  0  0  0  0
 25 28  1  6  0  0  0
 25 27  1  0  0  0  0
 25 26  1  0  0  0  0
 26 24  1  1  0  0  0
 27 26  1  0  0  0  0
 29 28  1  0  0  0  0
 30 31  1  0  0  0  0
 30 29  1  0  0  0  0
 32 31  1  0  0  0  0
 33 35  1  0  0  0  0
 34 36  2  0  0  0  0
 36 35  1  0  0  0  0
 36 37  1  0  0  0  0
 38 37  1  0  0  0  0
 38 39  2  0  0  0  0
 40 38  1  0  0  0  0
 41 40  1  0  0  0  0
 41 44  1  1  0  0  0
 42 43  2  0  0  0  0
 43 41  1  0  0  0  0
 44 45  1  0  0  0  0
 45 46  1  0  0  0  0
M  END
>  <MODEL>
9

>  <REMARK>
 VINA RESULT:      -3.3      3.189      8.898
  Name = 
  15 active torsions:
  status: ('A' for Active; 'I' for Inactive)
    1  A    between atoms: C_1  and  C_10
    2  A    between atoms: C_1  and  N_34
    3  A    between atoms: C_1  and  S_36
    4  A    between atoms: C_2  and  O_37
    5  A    between atoms: O_3  and  C_10
    6  A    between atoms: C_8  and  C_16
    7  A    between atoms: C_8  and  C_19
    8  A    between atoms: C_9  and  C_11
    9  A    between atoms: C_11  and  C_21
   10  A    between atoms: C_13  and  C_15
   11  A    between atoms: C_13  and  C_45
   12  A    between atoms: C_21  and  O_37
   13  A    between atoms: N_24  and  N_25
   14  A    between atoms: N_25  and  C_35
   15  A    between atoms: C_26  and  C_38
                            x       y       z     vdW  Elec       q    Type
                         _______ _______ _______ _____ _____    ______ ____

>  <TORSDO>
F 15

$$$$
