=
 OpenBabel11042420313D

 49 54  0  0  1  0  0  0  0  0999 V2000
  160.5430  208.4560  155.3440 C   0  0  0  0  0  0  0  0  0  0  0  0
  160.1120  207.1220  155.2600 C   0  0  0  0  0  3  0  0  0  0  0  0
  161.4750  206.7720  153.2870 C   0  0  0  0  0  0  0  0  0  0  0  0
  161.9100  208.0980  153.3610 C   0  0  0  0  0  3  0  0  0  0  0  0
  160.5650  206.2860  154.2390 C   0  0  0  0  0  3  0  0  0  0  0  0
  161.4580  208.9530  154.3810 C   0  0  0  0  0  0  0  0  0  0  0  0
  161.1090  211.3930  153.7030 N   0  0  0  0  0  2  0  0  0  0  0  0
  161.8730  210.3760  154.3660 C   0  0  0  0  0  0  0  0  0  0  0  0
  162.9220  210.7210  154.9740 O   0  0  0  0  0  0  0  0  0  0  0  0
  160.0840  211.1430  152.6980 C   0  0  0  0  0  2  0  0  0  0  0  0
  159.1950  212.3690  152.5370 C   0  0  0  0  0  2  0  0  0  0  0  0
  160.0480  213.3660  149.1580 C   0  0  0  0  0  0  0  0  0  0  0  0
  158.1750  214.2900  147.9240 C   0  0  0  0  0  3  0  0  0  0  0  0
  156.9910  213.6300  150.7540 O   0  0  0  0  0  0  0  0  0  0  0  0
  160.3740  214.0620  146.8830 C   0  0  0  0  0  3  0  0  0  0  0  0
  158.1750  213.4490  150.3720 C   0  0  0  0  0  0  0  0  0  0  0  0
  159.2850  212.8750  151.1400 C   0  0  0  0  0  0  0  0  0  0  0  0
  160.3760  212.8230  150.4400 N   0  0  0  0  0  0  0  0  0  0  0  0
  160.9040  213.5120  148.0680 C   0  0  0  0  0  3  0  0  0  0  0  0
  158.7310  213.7500  149.0800 C   0  0  0  0  0  0  0  0  0  0  0  0
  159.0180  214.4450  146.8110 C   0  0  0  0  0  3  0  0  0  0  0  0
  161.9550  205.8940  152.1740 C   0  0  2  0  0  3  0  0  0  0  0  0
  162.9870  206.5390  151.4820 O   0  0  0  0  0  1  0  0  0  0  0  0
  160.7900  205.5260  151.2420 C   0  0  2  0  0  3  0  0  0  0  0  0
  161.7720  203.2120  151.7890 C   0  0  0  0  0  2  0  0  0  0  0  0
  160.3560  203.2640  152.3400 C   0  0  0  0  0  2  0  0  0  0  0  0
  160.6990  203.9920  151.0500 C   0  0  0  0  0  3  0  0  0  0  0  0
  161.2290  206.0440  148.8880 N   0  0  0  0  0  0  0  0  0  0  0  0
  160.6890  206.3950  150.0070 C   0  0  0  0  0  3  0  0  0  0  0  0
  161.8460  208.2420  148.0470 C   0  0  0  0  0  1  0  0  0  0  0  0
  161.1690  206.9090  147.7350 C   0  0  1  0  0  3  0  0  0  0  0  0
  161.5220  203.9330  146.2120 C   0  0  0  0  0  0  0  0  0  0  0  0
  161.0630  202.7870  145.9640 O   0  0  0  0  0  0  0  0  0  0  0  0
  162.9760  205.5820  146.8890 C   0  0  0  0  0  3  0  0  0  0  0  0
  162.8260  204.1490  146.6900 N   0  0  0  0  0  0  0  0  0  0  0  0
  160.7770  205.1910  146.0520 C   0  0  1  0  0  3  0  0  0  0  0  0
  161.6980  206.2370  146.5340 N   0  0  0  0  0  0  0  0  0  0  0  0
  161.5840  205.6190  143.6820 C   0  0  0  0  0  1  0  0  0  0  0  0
  160.3860  205.4460  144.5930 C   0  0  0  0  0  2  0  0  0  0  0  0
  160.1210  209.2840  156.4410 N   0  0  0  0  0  2  0  0  0  0  0  0
  159.5980  211.9240  157.1240 S   0  0  0  0  0  0  0  0  0  0  0  0
  158.1800  212.6640  156.6040 C   0  0  0  0  0  0  0  0  0  0  0  0
  157.8180  214.0680  156.9430 C   0  0  0  0  0  1  0  0  0  0  0  0
  159.3030  210.4540  156.3580 C   0  0  0  0  0  0  0  0  0  0  0  0
  158.0830  210.5050  155.6950 C   0  0  0  0  0  3  0  0  0  0  0  0
  157.4470  211.7510  155.8240 C   0  0  0  0  0  0  0  0  0  0  0  0
  156.1820  212.0340  155.1900 N   0  0  0  0  0  0  0  0  0  0  0  0
  155.2890  210.9850  154.7260 C   0  0  0  0  0  1  0  0  0  0  0  0
  155.7550  213.4130  154.9790 C   0  0  0  0  0  1  0  0  0  0  0  0
  1 40  1  0  0  0  0
  2  1  1  0  0  0  0
  3  4  2  0  0  0  0
  3  5  1  0  0  0  0
  4  6  1  0  0  0  0
  5  2  2  0  0  0  0
  6  1  2  0  0  0  0
  7  8  1  0  0  0  0
  8  6  1  0  0  0  0
  8  9  2  0  0  0  0
 10  7  1  0  0  0  0
 11 10  1  0  0  0  0
 12 18  1  0  0  0  0
 13 20  2  0  0  0  0
 15 19  1  0  0  0  0
 16 14  2  0  0  0  0
 16 17  1  0  0  0  0
 17 11  1  0  0  0  0
 18 17  2  0  0  0  0
 19 12  2  0  0  0  0
 20 12  1  0  0  0  0
 20 16  1  0  0  0  0
 21 15  2  0  0  0  0
 21 13  1  0  0  0  0
 22 23  1  6  0  0  0
 22  3  1  0  0  0  0
 24 29  1  6  0  0  0
 24 22  1  0  0  0  0
 25 26  1  0  0  0  0
 27 24  1  0  0  0  0
 27 25  1  0  0  0  0
 27 26  1  0  0  0  0
 28 29  2  0  0  0  0
 31 30  1  1  0  0  0
 31 28  1  0  0  0  0
 32 35  1  0  0  0  0
 33 32  2  0  0  0  0
 35 34  2  0  0  0  0
 36 39  1  6  0  0  0
 36 32  1  0  0  0  0
 36 37  1  0  0  0  0
 37 34  1  0  0  0  0
 37 31  1  0  0  0  0
 38 39  1  0  0  0  0
 42 43  1  0  0  0  0
 42 41  1  0  0  0  0
 44 40  1  0  0  0  0
 44 41  1  0  0  0  0
 45 46  1  0  0  0  0
 45 44  2  0  0  0  0
 46 42  2  0  0  0  0
 47 46  1  0  0  0  0
 48 47  1  0  0  0  0
 49 47  1  0  0  0  0
M  END
>  <MODEL>
1

>  <REMARK>
 VINA RESULT:      -7.6      0.000      0.000
  Name = 
  14 active torsions:
  status: ('A' for Active; 'I' for Inactive)
    1  A    between atoms: N_1  and  C_26
    2  A    between atoms: C_3  and  C_20
    3  A    between atoms: N_5  and  C_41
    4  A    between atoms: C_7  and  C_12
    5  A    between atoms: C_7  and  C_29
    6  A    between atoms: C_8  and  N_11
    7  A    between atoms: N_11  and  C_28
    8  A    between atoms: C_12  and  N_38
    9  A    between atoms: C_15  and  C_20
   10  A    between atoms: C_15  and  C_22
   11  A    between atoms: C_20  and  C_45
   12  A    between atoms: C_26  and  N_44
   13  A    between atoms: C_35  and  C_40
   14  A    between atoms: C_46  and  C_47
                            x       y       z     vdW  Elec       q    Type
                         _______ _______ _______ _____ _____    ______ ____

>  <TORSDO>
F 14

$$$$
=
 OpenBabel11042420313D

 49 54  0  0  1  0  0  0  0  0999 V2000
  160.4820  212.6440  147.1900 C   0  0  0  0  0  0  0  0  0  0  0  0
  159.2500  213.3120  147.2850 C   0  0  0  0  0  3  0  0  0  0  0  0
  159.6800  213.8430  149.6100 C   0  0  0  0  0  0  0  0  0  0  0  0
  160.9090  213.1810  149.5260 C   0  0  0  0  0  3  0  0  0  0  0  0
  158.8450  213.9000  148.4820 C   0  0  0  0  0  3  0  0  0  0  0  0
  161.3270  212.5780  148.3280 C   0  0  0  0  0  0  0  0  0  0  0  0
  162.6410  210.4010  148.5830 N   0  0  0  0  0  2  0  0  0  0  0  0
  162.5940  211.8080  148.3110 C   0  0  0  0  0  0  0  0  0  0  0  0
  163.6710  212.3960  148.0260 O   0  0  0  0  0  0  0  0  0  0  0  0
  161.5830  209.6430  149.2390 C   0  0  0  0  0  2  0  0  0  0  0  0
  162.1830  208.5700  150.1380 C   0  0  0  0  0  2  0  0  0  0  0  0
  161.7540  205.5490  148.1820 C   0  0  0  0  0  0  0  0  0  0  0  0
  160.9680  203.6600  149.4860 C   0  0  0  0  0  3  0  0  0  0  0  0
  161.1380  206.0140  151.5540 O   0  0  0  0  0  0  0  0  0  0  0  0
  161.4330  203.4310  147.0980 C   0  0  0  0  0  3  0  0  0  0  0  0
  161.4180  206.0660  150.3290 C   0  0  0  0  0  0  0  0  0  0  0  0
  161.9040  207.2230  149.5690 C   0  0  0  0  0  0  0  0  0  0  0  0
  162.1030  206.9290  148.3220 N   0  0  0  0  0  0  0  0  0  0  0  0
  161.8100  204.7870  147.0170 C   0  0  0  0  0  3  0  0  0  0  0  0
  161.3420  204.9960  149.3700 C   0  0  0  0  0  0  0  0  0  0  0  0
  161.0180  202.8710  148.3250 C   0  0  0  0  0  3  0  0  0  0  0  0
  159.2520  214.4520  150.9080 C   0  0  2  0  0  3  0  0  0  0  0  0
  160.3140  214.4080  151.8190 O   0  0  0  0  0  1  0  0  0  0  0  0
  158.0070  213.7340  151.4510 C   0  0  2  0  0  3  0  0  0  0  0  0
  155.5540  213.5150  150.7080 C   0  0  0  0  0  2  0  0  0  0  0  0
  155.5830  214.3020  152.0090 C   0  0  0  0  0  2  0  0  0  0  0  0
  156.7120  214.4530  151.0010 C   0  0  0  0  0  3  0  0  0  0  0  0
  158.0460  212.0910  153.2690 N   0  0  0  0  0  0  0  0  0  0  0  0
  158.1150  213.3280  152.9060 C   0  0  0  0  0  3  0  0  0  0  0  0
  156.6890  211.4410  155.1800 C   0  0  0  0  0  1  0  0  0  0  0  0
  158.0980  211.7260  154.6630 C   0  0  1  0  0  3  0  0  0  0  0  0
  161.2830  211.0040  155.4580 C   0  0  0  0  0  0  0  0  0  0  0  0
  162.3270  211.2930  156.1010 O   0  0  0  0  0  0  0  0  0  0  0  0
  159.9040  210.4860  153.6910 C   0  0  0  0  0  3  0  0  0  0  0  0
  161.2830  210.7420  154.0770 N   0  0  0  0  0  0  0  0  0  0  0  0
  159.9350  210.9080  156.0380 C   0  0  1  0  0  3  0  0  0  0  0  0
  159.0520  210.6250  154.8930 N   0  0  0  0  0  0  0  0  0  0  0  0
  160.6640  208.5750  156.7290 C   0  0  0  0  0  1  0  0  0  0  0  0
  159.8370  209.7940  157.0850 C   0  0  0  0  0  2  0  0  0  0  0  0
  160.9160  212.1030  145.9300 N   0  0  0  0  0  2  0  0  0  0  0  0
  159.1680  213.4760  144.2660 S   0  0  0  0  0  0  0  0  0  0  0  0
  159.4210  213.4900  142.6040 C   0  0  0  0  0  0  0  0  0  0  0  0
  158.5210  214.1860  141.6440 C   0  0  0  0  0  1  0  0  0  0  0  0
  160.5360  212.5650  144.6310 C   0  0  0  0  0  0  0  0  0  0  0  0
  161.2090  212.2370  143.4610 C   0  0  0  0  0  3  0  0  0  0  0  0
  160.5900  212.7610  142.3140 C   0  0  0  0  0  0  0  0  0  0  0  0
  161.1370  212.5680  140.9920 N   0  0  0  0  0  0  0  0  0  0  0  0
  160.7040  211.4900  140.1180 C   0  0  0  0  0  1  0  0  0  0  0  0
  162.1730  213.4610  140.4850 C   0  0  0  0  0  1  0  0  0  0  0  0
  1  2  2  0  0  0  0
  1  6  1  0  0  0  0
  2  5  1  0  0  0  0
  3 22  1  0  0  0  0
  4  3  1  0  0  0  0
  5  3  2  0  0  0  0
  6  4  2  0  0  0  0
  7 10  1  0  0  0  0
  8  6  1  0  0  0  0
  8  7  1  0  0  0  0
  9  8  2  0  0  0  0
 10 11  1  0  0  0  0
 12 18  1  0  0  0  0
 12 20  1  0  0  0  0
 15 21  2  0  0  0  0
 16 14  2  0  0  0  0
 17 11  1  0  0  0  0
 17 16  1  0  0  0  0
 18 17  2  0  0  0  0
 19 15  1  0  0  0  0
 19 12  2  0  0  0  0
 20 13  2  0  0  0  0
 20 16  1  0  0  0  0
 21 13  1  0  0  0  0
 22 24  1  0  0  0  0
 22 23  1  1  0  0  0
 24 29  1  1  0  0  0
 25 27  1  0  0  0  0
 25 26  1  0  0  0  0
 27 24  1  0  0  0  0
 27 26  1  0  0  0  0
 28 31  1  0  0  0  0
 29 28  2  0  0  0  0
 31 37  1  0  0  0  0
 31 30  1  6  0  0  0
 32 36  1  0  0  0  0
 32 33  2  0  0  0  0
 34 35  2  0  0  0  0
 34 37  1  0  0  0  0
 35 32  1  0  0  0  0
 36 39  1  1  0  0  0
 37 36  1  0  0  0  0
 38 39  1  0  0  0  0
 40  1  1  0  0  0  0
 41 44  1  0  0  0  0
 42 41  1  0  0  0  0
 43 42  1  0  0  0  0
 44 40  1  0  0  0  0
 45 44  2  0  0  0  0
 46 42  2  0  0  0  0
 46 45  1  0  0  0  0
 47 46  1  0  0  0  0
 48 47  1  0  0  0  0
 49 47  1  0  0  0  0
M  END
>  <MODEL>
2

>  <REMARK>
 VINA RESULT:      -7.0      3.541     10.488
  Name = 
  14 active torsions:
  status: ('A' for Active; 'I' for Inactive)
    1  A    between atoms: N_1  and  C_26
    2  A    between atoms: C_3  and  C_20
    3  A    between atoms: N_5  and  C_41
    4  A    between atoms: C_7  and  C_12
    5  A    between atoms: C_7  and  C_29
    6  A    between atoms: C_8  and  N_11
    7  A    between atoms: N_11  and  C_28
    8  A    between atoms: C_12  and  N_38
    9  A    between atoms: C_15  and  C_20
   10  A    between atoms: C_15  and  C_22
   11  A    between atoms: C_20  and  C_45
   12  A    between atoms: C_26  and  N_44
   13  A    between atoms: C_35  and  C_40
   14  A    between atoms: C_46  and  C_47
                            x       y       z     vdW  Elec       q    Type
                         _______ _______ _______ _____ _____    ______ ____

>  <TORSDO>
F 14

$$$$
=
 OpenBabel11042420313D

 49 54  0  0  1  0  0  0  0  0999 V2000
  159.9250  212.2560  153.2010 C   0  0  0  0  0  0  0  0  0  0  0  0
  160.5790  211.2730  153.9610 C   0  0  0  0  0  3  0  0  0  0  0  0
  161.4400  210.2410  151.9450 C   0  0  0  0  0  0  0  0  0  0  0  0
  160.7930  211.2150  151.1790 C   0  0  0  0  0  3  0  0  0  0  0  0
  161.3240  210.2690  153.3440 C   0  0  0  0  0  3  0  0  0  0  0  0
  160.0340  212.2290  151.7870 C   0  0  0  0  0  0  0  0  0  0  0  0
  159.6490  213.4360  149.5670 N   0  0  0  0  0  2  0  0  0  0  0  0
  159.2900  213.1850  150.9330 C   0  0  0  0  0  0  0  0  0  0  0  0
  158.2900  213.7890  151.4060 O   0  0  0  0  0  0  0  0  0  0  0  0
  160.9340  213.0970  148.9680 C   0  0  0  0  0  2  0  0  0  0  0  0
  161.3760  214.1980  148.0120 C   0  0  0  0  0  2  0  0  0  0  0  0
  161.9340  213.1090  144.6010 C   0  0  0  0  0  0  0  0  0  0  0  0
  159.9670  212.1350  143.5660 C   0  0  0  0  0  3  0  0  0  0  0  0
  159.0070  212.9600  146.4370 O   0  0  0  0  0  0  0  0  0  0  0  0
  162.0830  212.2840  142.3510 C   0  0  0  0  0  3  0  0  0  0  0  0
  160.1580  213.1130  145.9550 C   0  0  0  0  0  0  0  0  0  0  0  0
  161.3330  213.6960  146.6120 C   0  0  0  0  0  0  0  0  0  0  0  0
  162.3690  213.6950  145.8310 N   0  0  0  0  0  0  0  0  0  0  0  0
  162.7050  212.8920  143.4600 C   0  0  0  0  0  3  0  0  0  0  0  0
  160.6100  212.7430  144.6410 C   0  0  0  0  0  0  0  0  0  0  0  0
  160.7240  211.9050  142.4050 C   0  0  0  0  0  3  0  0  0  0  0  0
  162.2200  209.1590  151.2660 C   0  0  2  0  0  3  0  0  0  0  0  0
  162.3900  209.4830  149.9140 O   0  0  0  0  0  1  0  0  0  0  0  0
  161.5180  207.8030  151.4410 C   0  0  2  0  0  3  0  0  0  0  0  0
  160.9380  207.3230  153.9010 C   0  0  0  0  0  2  0  0  0  0  0  0
  161.0080  205.9930  153.1660 C   0  0  0  0  0  2  0  0  0  0  0  0
  161.9360  207.1320  152.7720 C   0  0  0  0  0  3  0  0  0  0  0  0
  160.4530  206.3170  149.8110 N   0  0  0  0  0  0  0  0  0  0  0  0
  161.5130  206.9450  150.1940 C   0  0  0  0  0  3  0  0  0  0  0  0
  160.9420  206.2550  147.4290 C   0  0  0  0  0  1  0  0  0  0  0  0
  160.4790  205.4620  148.6490 C   0  0  1  0  0  3  0  0  0  0  0  0
  160.2800  202.2400  149.5850 C   0  0  0  0  0  0  0  0  0  0  0  0
  159.6420  201.1530  149.5850 O   0  0  0  0  0  0  0  0  0  0  0  0
  161.4220  204.0780  150.3630 C   0  0  0  0  0  3  0  0  0  0  0  0
  160.7860  202.8300  150.7560 N   0  0  0  0  0  0  0  0  0  0  0  0
  160.5770  203.0410  148.3890 C   0  0  1  0  0  3  0  0  0  0  0  0
  161.2650  204.2400  148.9010 N   0  0  0  0  0  0  0  0  0  0  0  0
  161.1500  202.6090  145.9530 C   0  0  0  0  0  1  0  0  0  0  0  0
  161.4700  202.2880  147.3980 C   0  0  0  0  0  2  0  0  0  0  0  0
  159.2190  213.3240  153.8550 N   0  0  0  0  0  2  0  0  0  0  0  0
  157.2250  214.4530  155.4240 S   0  0  0  0  0  0  0  0  0  0  0  0
  156.0080  213.4860  156.0670 C   0  0  0  0  0  0  0  0  0  0  0  0
  154.9160  214.0110  156.9320 C   0  0  0  0  0  1  0  0  0  0  0  0
  158.0030  213.2080  154.6000 C   0  0  0  0  0  0  0  0  0  0  0  0
  157.3400  212.0080  154.8250 C   0  0  0  0  0  3  0  0  0  0  0  0
  156.2100  212.1580  155.6450 C   0  0  0  0  0  0  0  0  0  0  0  0
  155.3550  211.0450  155.9840 N   0  0  0  0  0  0  0  0  0  0  0  0
  155.1450  209.9210  155.0860 C   0  0  0  0  0  1  0  0  0  0  0  0
  154.6500  211.0180  157.2610 C   0  0  0  0  0  1  0  0  0  0  0  0
  1 40  1  0  0  0  0
  1  2  1  0  0  0  0
  3  5  1  0  0  0  0
  4  6  1  0  0  0  0
  4  3  2  0  0  0  0
  5  2  2  0  0  0  0
  6  1  2  0  0  0  0
  7  8  1  0  0  0  0
  8  9  2  0  0  0  0
  8  6  1  0  0  0  0
 10  7  1  0  0  0  0
 11 10  1  0  0  0  0
 12 20  1  0  0  0  0
 12 18  1  0  0  0  0
 13 20  2  0  0  0  0
 15 21  2  0  0  0  0
 15 19  1  0  0  0  0
 16 14  2  0  0  0  0
 16 17  1  0  0  0  0
 17 11  1  0  0  0  0
 18 17  2  0  0  0  0
 19 12  2  0  0  0  0
 20 16  1  0  0  0  0
 21 13  1  0  0  0  0
 22 23  1  6  0  0  0
 22 24  1  0  0  0  0
 22  3  1  0  0  0  0
 24 29  1  6  0  0  0
 24 27  1  0  0  0  0
 26 25  1  0  0  0  0
 27 26  1  0  0  0  0
 27 25  1  0  0  0  0
 28 29  2  0  0  0  0
 31 30  1  6  0  0  0
 31 37  1  0  0  0  0
 31 28  1  0  0  0  0
 32 35  1  0  0  0  0
 33 32  2  0  0  0  0
 34 35  2  0  0  0  0
 36 39  1  6  0  0  0
 36 37  1  0  0  0  0
 36 32  1  0  0  0  0
 37 34  1  0  0  0  0
 38 39  1  0  0  0  0
 40 44  1  0  0  0  0
 41 42  1  0  0  0  0
 42 43  1  0  0  0  0
 44 45  2  0  0  0  0
 44 41  1  0  0  0  0
 45 46  1  0  0  0  0
 46 47  1  0  0  0  0
 46 42  2  0  0  0  0
 47 49  1  0  0  0  0
 48 47  1  0  0  0  0
M  END
>  <MODEL>
3

>  <REMARK>
 VINA RESULT:      -6.9      2.467      4.031
  Name = 
  14 active torsions:
  status: ('A' for Active; 'I' for Inactive)
    1  A    between atoms: N_1  and  C_26
    2  A    between atoms: C_3  and  C_20
    3  A    between atoms: N_5  and  C_41
    4  A    between atoms: C_7  and  C_12
    5  A    between atoms: C_7  and  C_29
    6  A    between atoms: C_8  and  N_11
    7  A    between atoms: N_11  and  C_28
    8  A    between atoms: C_12  and  N_38
    9  A    between atoms: C_15  and  C_20
   10  A    between atoms: C_15  and  C_22
   11  A    between atoms: C_20  and  C_45
   12  A    between atoms: C_26  and  N_44
   13  A    between atoms: C_35  and  C_40
   14  A    between atoms: C_46  and  C_47
                            x       y       z     vdW  Elec       q    Type
                         _______ _______ _______ _____ _____    ______ ____

>  <TORSDO>
F 14

$$$$
=
 OpenBabel11042420313D

 49 54  0  0  1  0  0  0  0  0999 V2000
  161.8680  209.9350  150.4920 C   0  0  0  0  0  0  0  0  0  0  0  0
  162.0800  210.8080  149.4130 C   0  0  0  0  0  3  0  0  0  0  0  0
  160.7750  212.5320  150.5060 C   0  0  0  0  0  0  0  0  0  0  0  0
  160.5570  211.6710  151.5870 C   0  0  0  0  0  3  0  0  0  0  0  0
  161.5350  212.0910  149.4120 C   0  0  0  0  0  3  0  0  0  0  0  0
  161.0960  210.3730  151.5990 C   0  0  0  0  0  0  0  0  0  0  0  0
  161.1350  209.7470  154.0760 N   0  0  0  0  0  2  0  0  0  0  0  0
  160.7620  209.4640  152.7210 C   0  0  0  0  0  0  0  0  0  0  0  0
  160.1080  208.4110  152.4910 O   0  0  0  0  0  0  0  0  0  0  0  0
  162.1500  210.7130  154.4770 C   0  0  0  0  0  2  0  0  0  0  0  0
  161.6790  211.4990  155.6940 C   0  0  0  0  0  2  0  0  0  0  0  0
  158.2830  212.5250  154.9510 C   0  0  0  0  0  0  0  0  0  0  0  0
  156.6110  211.3300  156.2380 C   0  0  0  0  0  3  0  0  0  0  0  0
  159.3450  210.1600  157.2400 O   0  0  0  0  0  0  0  0  0  0  0  0
  155.9600  213.0180  154.5960 C   0  0  0  0  0  3  0  0  0  0  0  0
  159.1810  211.0510  156.3670 C   0  0  0  0  0  0  0  0  0  0  0  0
  160.2140  211.7480  155.5950 C   0  0  0  0  0  0  0  0  0  0  0  0
  159.6990  212.6060  154.7690 N   0  0  0  0  0  0  0  0  0  0  0  0
  157.3110  213.2600  154.2740 C   0  0  0  0  0  3  0  0  0  0  0  0
  157.9350  211.5980  155.9020 C   0  0  0  0  0  0  0  0  0  0  0  0
  155.6120  212.0570  155.5690 C   0  0  0  0  0  3  0  0  0  0  0  0
  160.1660  213.8990  150.5120 C   0  0  2  0  0  3  0  0  0  0  0  0
  159.3960  214.0630  151.6700 O   0  0  0  0  0  1  0  0  0  0  0  0
  159.3330  214.1190  149.2400 C   0  0  2  0  0  3  0  0  0  0  0  0
  156.9410  213.3670  149.8160 C   0  0  0  0  0  2  0  0  0  0  0  0
  157.0360  213.5190  148.3060 C   0  0  0  0  0  2  0  0  0  0  0  0
  158.2390  213.0330  149.0990 C   0  0  0  0  0  3  0  0  0  0  0  0
  160.3260  213.5910  147.0630 N   0  0  0  0  0  0  0  0  0  0  0  0
  160.1560  214.4480  148.0130 C   0  0  0  0  0  3  0  0  0  0  0  0
  162.5830  214.1940  146.3870 C   0  0  0  0  0  1  0  0  0  0  0  0
  161.1560  213.9020  145.9260 C   0  0  1  0  0  3  0  0  0  0  0  0
  159.8590  213.1470  142.9180 C   0  0  0  0  0  0  0  0  0  0  0  0
  159.5130  213.5230  141.7670 O   0  0  0  0  0  0  0  0  0  0  0  0
  159.7440  212.1970  145.0100 C   0  0  0  0  0  3  0  0  0  0  0  0
  159.0160  212.4110  143.7680 N   0  0  0  0  0  0  0  0  0  0  0  0
  161.1640  213.4220  143.5370 C   0  0  1  0  0  3  0  0  0  0  0  0
  161.0650  212.8530  144.8930 N   0  0  0  0  0  0  0  0  0  0  0  0
  162.8340  213.6460  141.6360 C   0  0  0  0  0  1  0  0  0  0  0  0
  162.3160  212.7740  142.7620 C   0  0  0  0  0  2  0  0  0  0  0  0
  162.4950  208.6410  150.5100 N   0  0  0  0  0  2  0  0  0  0  0  0
  161.5790  206.0210  150.4350 S   0  0  0  0  0  0  0  0  0  0  0  0
  161.3870  205.2360  148.9600 C   0  0  0  0  0  0  0  0  0  0  0  0
  160.9190  203.8280  148.8370 C   0  0  0  0  0  1  0  0  0  0  0  0
  162.0790  207.4860  149.7750 C   0  0  0  0  0  0  0  0  0  0  0  0
  162.1250  207.3880  148.3900 C   0  0  0  0  0  3  0  0  0  0  0  0
  161.7290  206.1240  147.9230 C   0  0  0  0  0  0  0  0  0  0  0  0
  161.6720  205.8110  146.5150 N   0  0  0  0  0  0  0  0  0  0  0  0
  162.7060  205.0390  145.8440 C   0  0  0  0  0  1  0  0  0  0  0  0
  160.5560  206.2780  145.7000 C   0  0  0  0  0  1  0  0  0  0  0  0
  1 40  1  0  0  0  0
  1  6  1  0  0  0  0
  2  1  2  0  0  0  0
  3 22  1  0  0  0  0
  3  4  1  0  0  0  0
  4  6  2  0  0  0  0
  5  2  1  0  0  0  0
  5  3  2  0  0  0  0
  6  8  1  0  0  0  0
  7 10  1  0  0  0  0
  8  7  1  0  0  0  0
  9  8  2  0  0  0  0
 10 11  1  0  0  0  0
 12 20  1  0  0  0  0
 15 21  2  0  0  0  0
 16 14  2  0  0  0  0
 17 11  1  0  0  0  0
 17 16  1  0  0  0  0
 18 12  1  0  0  0  0
 18 17  2  0  0  0  0
 19 15  1  0  0  0  0
 19 12  2  0  0  0  0
 20 13  2  0  0  0  0
 20 16  1  0  0  0  0
 21 13  1  0  0  0  0
 22 23  1  1  0  0  0
 24 29  1  6  0  0  0
 24 22  1  0  0  0  0
 26 27  1  0  0  0  0
 26 25  1  0  0  0  0
 27 24  1  0  0  0  0
 27 25  1  0  0  0  0
 28 29  2  0  0  0  0
 31 30  1  1  0  0  0
 31 28  1  0  0  0  0
 32 36  1  0  0  0  0
 32 35  1  0  0  0  0
 33 32  2  0  0  0  0
 35 34  2  0  0  0  0
 36 39  1  6  0  0  0
 36 37  1  0  0  0  0
 37 34  1  0  0  0  0
 37 31  1  0  0  0  0
 38 39  1  0  0  0  0
 42 41  1  0  0  0  0
 43 42  1  0  0  0  0
 44 41  1  0  0  0  0
 44 40  1  0  0  0  0
 45 44  2  0  0  0  0
 46 45  1  0  0  0  0
 46 42  2  0  0  0  0
 47 46  1  0  0  0  0
 48 47  1  0  0  0  0
 49 47  1  0  0  0  0
M  END
>  <MODEL>
4

>  <REMARK>
 VINA RESULT:      -6.7      3.155      8.306
  Name = 
  14 active torsions:
  status: ('A' for Active; 'I' for Inactive)
    1  A    between atoms: N_1  and  C_26
    2  A    between atoms: C_3  and  C_20
    3  A    between atoms: N_5  and  C_41
    4  A    between atoms: C_7  and  C_12
    5  A    between atoms: C_7  and  C_29
    6  A    between atoms: C_8  and  N_11
    7  A    between atoms: N_11  and  C_28
    8  A    between atoms: C_12  and  N_38
    9  A    between atoms: C_15  and  C_20
   10  A    between atoms: C_15  and  C_22
   11  A    between atoms: C_20  and  C_45
   12  A    between atoms: C_26  and  N_44
   13  A    between atoms: C_35  and  C_40
   14  A    between atoms: C_46  and  C_47
                            x       y       z     vdW  Elec       q    Type
                         _______ _______ _______ _____ _____    ______ ____

>  <TORSDO>
F 14

$$$$
=
 OpenBabel11042420313D

 49 54  0  0  1  0  0  0  0  0999 V2000
  161.1880  209.0690  153.6250 C   0  0  0  0  0  0  0  0  0  0  0  0
  161.6300  209.9920  152.6640 C   0  0  0  0  0  3  0  0  0  0  0  0
  161.8210  208.2310  151.0100 C   0  0  0  0  0  0  0  0  0  0  0  0
  161.3820  207.3030  151.9590 C   0  0  0  0  0  3  0  0  0  0  0  0
  161.9510  209.5820  151.3710 C   0  0  0  0  0  3  0  0  0  0  0  0
  161.0600  207.7010  153.2670 C   0  0  0  0  0  0  0  0  0  0  0  0
  161.0130  205.2840  154.0950 N   0  0  0  0  0  2  0  0  0  0  0  0
  160.6880  206.6700  154.2650 C   0  0  0  0  0  0  0  0  0  0  0  0
  160.0830  207.0150  155.3160 O   0  0  0  0  0  0  0  0  0  0  0  0
  161.3990  204.6670  152.8330 C   0  0  0  0  0  2  0  0  0  0  0  0
  160.5950  203.3940  152.6010 C   0  0  0  0  0  2  0  0  0  0  0  0
  161.0870  201.6520  149.4610 C   0  0  0  0  0  0  0  0  0  0  0  0
  160.8950  203.0930  147.5190 C   0  0  0  0  0  3  0  0  0  0  0  0
  160.4510  205.0150  149.9590 O   0  0  0  0  0  0  0  0  0  0  0  0
  161.3410  200.7040  147.2700 C   0  0  0  0  0  3  0  0  0  0  0  0
  160.6790  203.7790  150.0060 C   0  0  0  0  0  0  0  0  0  0  0  0
  160.7780  202.9310  151.1980 C   0  0  0  0  0  0  0  0  0  0  0  0
  161.0140  201.6940  150.8890 N   0  0  0  0  0  0  0  0  0  0  0  0
  161.3210  200.5300  148.6690 C   0  0  0  0  0  3  0  0  0  0  0  0
  160.8870  202.8880  148.8960 C   0  0  0  0  0  0  0  0  0  0  0  0
  161.1260  201.9760  146.6990 C   0  0  0  0  0  3  0  0  0  0  0  0
  162.1800  207.7710  149.6320 C   0  0  2  0  0  3  0  0  0  0  0  0
  163.5730  207.7110  149.5070 O   0  0  0  0  0  1  0  0  0  0  0  0
  161.5540  208.6980  148.5780 C   0  0  2  0  0  3  0  0  0  0  0  0
  162.0560  206.6170  147.1510 C   0  0  0  0  0  2  0  0  0  0  0  0
  160.5630  206.6380  147.4440 C   0  0  0  0  0  2  0  0  0  0  0  0
  161.3200  207.9430  147.2470 C   0  0  0  0  0  3  0  0  0  0  0  0
  161.4940  211.1260  148.2610 N   0  0  0  0  0  0  0  0  0  0  0  0
  162.1920  210.0680  148.5040 C   0  0  0  0  0  3  0  0  0  0  0  0
  163.5660  212.2510  147.6610 C   0  0  0  0  0  1  0  0  0  0  0  0
  162.1250  212.4180  148.1420 C   0  0  1  0  0  3  0  0  0  0  0  0
  160.0270  212.5840  145.5220 C   0  0  0  0  0  0  0  0  0  0  0  0
  159.1040  212.0600  144.8430 O   0  0  0  0  0  0  0  0  0  0  0  0
  162.0400  213.5660  146.0410 C   0  0  0  0  0  3  0  0  0  0  0  0
  161.2120  213.0770  144.9500 N   0  0  0  0  0  0  0  0  0  0  0  0
  160.0080  212.7490  146.9830 C   0  0  1  0  0  3  0  0  0  0  0  0
  161.3200  213.3330  147.3120 N   0  0  0  0  0  0  0  0  0  0  0  0
  158.6630  213.6410  148.9440 C   0  0  0  0  0  1  0  0  0  0  0  0
  158.8750  213.6710  147.4440 C   0  0  0  0  0  2  0  0  0  0  0  0
  160.7950  209.5180  154.9320 N   0  0  0  0  0  2  0  0  0  0  0  0
  160.6410  211.9500  156.2640 S   0  0  0  0  0  0  0  0  0  0  0  0
  159.2510  212.8890  156.1480 C   0  0  0  0  0  0  0  0  0  0  0  0
  159.0840  214.1930  156.8460 C   0  0  0  0  0  1  0  0  0  0  0  0
  160.0980  210.7290  155.2410 C   0  0  0  0  0  0  0  0  0  0  0  0
  158.8120  211.0190  154.8020 C   0  0  0  0  0  3  0  0  0  0  0  0
  158.3310  212.2400  155.3040 C   0  0  0  0  0  0  0  0  0  0  0  0
  157.0290  212.7520  154.9510 N   0  0  0  0  0  0  0  0  0  0  0  0
  156.7690  213.4240  153.6880 C   0  0  0  0  0  1  0  0  0  0  0  0
  155.9090  212.6200  155.8770 C   0  0  0  0  0  1  0  0  0  0  0  0
  1 40  1  0  0  0  0
  2  1  2  0  0  0  0
  3  5  2  0  0  0  0
  3  4  1  0  0  0  0
  4  6  2  0  0  0  0
  5  2  1  0  0  0  0
  6  1  1  0  0  0  0
  6  8  1  0  0  0  0
  7  8  1  0  0  0  0
  8  9  2  0  0  0  0
 10  7  1  0  0  0  0
 11 10  1  0  0  0  0
 12 18  1  0  0  0  0
 13 20  2  0  0  0  0
 14 16  2  0  0  0  0
 15 19  1  0  0  0  0
 16 17  1  0  0  0  0
 17 11  1  0  0  0  0
 18 17  2  0  0  0  0
 19 12  2  0  0  0  0
 20 12  1  0  0  0  0
 20 16  1  0  0  0  0
 21 15  2  0  0  0  0
 21 13  1  0  0  0  0
 22 23  1  1  0  0  0
 22  3  1  0  0  0  0
 24 29  1  6  0  0  0
 24 22  1  0  0  0  0
 25 27  1  0  0  0  0
 25 26  1  0  0  0  0
 27 26  1  0  0  0  0
 27 24  1  0  0  0  0
 28 29  2  0  0  0  0
 31 30  1  6  0  0  0
 31 28  1  0  0  0  0
 32 36  1  0  0  0  0
 33 32  2  0  0  0  0
 34 37  1  0  0  0  0
 35 32  1  0  0  0  0
 35 34  2  0  0  0  0
 36 37  1  0  0  0  0
 36 39  1  6  0  0  0
 37 31  1  0  0  0  0
 39 38  1  0  0  0  0
 40 44  1  0  0  0  0
 42 41  1  0  0  0  0
 42 43  1  0  0  0  0
 44 41  1  0  0  0  0
 45 44  2  0  0  0  0
 45 46  1  0  0  0  0
 46 42  2  0  0  0  0
 47 46  1  0  0  0  0
 47 49  1  0  0  0  0
 48 47  1  0  0  0  0
M  END
>  <MODEL>
5

>  <REMARK>
 VINA RESULT:      -6.7      2.473      7.043
  Name = 
  14 active torsions:
  status: ('A' for Active; 'I' for Inactive)
    1  A    between atoms: N_1  and  C_26
    2  A    between atoms: C_3  and  C_20
    3  A    between atoms: N_5  and  C_41
    4  A    between atoms: C_7  and  C_12
    5  A    between atoms: C_7  and  C_29
    6  A    between atoms: C_8  and  N_11
    7  A    between atoms: N_11  and  C_28
    8  A    between atoms: C_12  and  N_38
    9  A    between atoms: C_15  and  C_20
   10  A    between atoms: C_15  and  C_22
   11  A    between atoms: C_20  and  C_45
   12  A    between atoms: C_26  and  N_44
   13  A    between atoms: C_35  and  C_40
   14  A    between atoms: C_46  and  C_47
                            x       y       z     vdW  Elec       q    Type
                         _______ _______ _______ _____ _____    ______ ____

>  <TORSDO>
F 14

$$$$
=
 OpenBabel11042420313D

 49 54  0  0  1  0  0  0  0  0999 V2000
  162.2210  209.2230  150.9980 C   0  0  0  0  0  0  0  0  0  0  0  0
  162.5020  207.8520  150.8780 C   0  0  0  0  0  3  0  0  0  0  0  0
  161.9520  207.9120  148.5190 C   0  0  0  0  0  0  0  0  0  0  0  0
  161.6690  209.2770  148.6270 C   0  0  0  0  0  3  0  0  0  0  0  0
  162.3640  207.1970  149.6550 C   0  0  0  0  0  3  0  0  0  0  0  0
  161.7990  209.9490  149.8540 C   0  0  0  0  0  0  0  0  0  0  0  0
  161.7540  212.3350  148.9390 N   0  0  0  0  0  2  0  0  0  0  0  0
  161.4000  211.3740  149.9430 C   0  0  0  0  0  0  0  0  0  0  0  0
  160.7060  211.7620  150.9210 O   0  0  0  0  0  0  0  0  0  0  0  0
  162.8010  212.1520  147.9420 C   0  0  0  0  0  2  0  0  0  0  0  0
  162.9600  213.4150  147.1070 C   0  0  0  0  0  2  0  0  0  0  0  0
  162.0570  212.8250  143.6470 C   0  0  0  0  0  0  0  0  0  0  0  0
  159.6610  212.8140  143.2640 C   0  0  0  0  0  3  0  0  0  0  0  0
  159.9550  213.4010  146.3330 O   0  0  0  0  0  0  0  0  0  0  0  0
  161.2270  212.4150  141.4310 C   0  0  0  0  0  3  0  0  0  0  0  0
  160.8870  213.2190  145.5080 C   0  0  0  0  0  0  0  0  0  0  0  0
  162.3290  213.2190  145.7730 C   0  0  0  0  0  0  0  0  0  0  0  0
  163.0150  212.9890  144.6960 N   0  0  0  0  0  0  0  0  0  0  0  0
  162.3240  212.5550  142.3060 C   0  0  0  0  0  3  0  0  0  0  0  0
  160.7660  212.9520  144.1000 C   0  0  0  0  0  0  0  0  0  0  0  0
  159.9050  212.5410  141.9080 C   0  0  0  0  0  3  0  0  0  0  0  0
  161.7790  207.2200  147.2030 C   0  0  2  0  0  3  0  0  0  0  0  0
  160.4330  207.2720  146.8210 O   0  0  0  0  0  1  0  0  0  0  0  0
  162.2910  205.7740  147.2880 C   0  0  2  0  0  3  0  0  0  0  0  0
  162.9930  204.2390  145.3460 C   0  0  0  0  0  2  0  0  0  0  0  0
  162.7020  205.6190  144.7740 C   0  0  0  0  0  2  0  0  0  0  0  0
  163.3120  205.4810  146.1610 C   0  0  0  0  0  3  0  0  0  0  0  0
  161.4800  203.5650  147.9700 N   0  0  0  0  0  0  0  0  0  0  0  0
  161.2050  204.7490  147.5340 C   0  0  0  0  0  3  0  0  0  0  0  0
  160.8230  201.2810  147.4460 C   0  0  0  0  0  1  0  0  0  0  0  0
  160.4390  202.5830  148.1490 C   0  0  1  0  0  3  0  0  0  0  0  0
  161.7140  201.9540  151.1940 C   0  0  0  0  0  0  0  0  0  0  0  0
  162.6630  202.0770  152.0140 O   0  0  0  0  0  0  0  0  0  0  0  0
  160.0990  200.9690  149.8870 C   0  0  0  0  0  3  0  0  0  0  0  0
  161.1230  200.7160  150.8880 N   0  0  0  0  0  0  0  0  0  0  0  0
  161.1000  203.0600  150.4450 C   0  0  1  0  0  3  0  0  0  0  0  0
  160.1010  202.4150  149.5740 N   0  0  0  0  0  0  0  0  0  0  0  0
  161.4200  204.8070  152.2610 C   0  0  0  0  0  1  0  0  0  0  0  0
  160.4310  204.0810  151.3700 C   0  0  0  0  0  2  0  0  0  0  0  0
  162.4360  209.8980  152.2490 N   0  0  0  0  0  2  0  0  0  0  0  0
  161.2700  208.2100  154.1200 S   0  0  0  0  0  0  0  0  0  0  0  0
  160.3930  208.8500  155.4040 C   0  0  0  0  0  0  0  0  0  0  0  0
  159.7230  208.0130  156.4360 C   0  0  0  0  0  1  0  0  0  0  0  0
  161.7010  209.6970  153.4600 C   0  0  0  0  0  0  0  0  0  0  0  0
  161.1540  210.7250  154.2180 C   0  0  0  0  0  3  0  0  0  0  0  0
  160.4210  210.2550  155.3200 C   0  0  0  0  0  0  0  0  0  0  0  0
  159.7920  211.1520  156.2600 N   0  0  0  0  0  0  0  0  0  0  0  0
  160.5550  212.0070  157.1550 C   0  0  0  0  0  1  0  0  0  0  0  0
  158.3370  211.2220  156.3510 C   0  0  0  0  0  1  0  0  0  0  0  0
  1 40  1  0  0  0  0
  2  1  1  0  0  0  0
  3  4  2  0  0  0  0
  3  5  1  0  0  0  0
  4  6  1  0  0  0  0
  5  2  2  0  0  0  0
  6  8  1  0  0  0  0
  6  1  2  0  0  0  0
  7  8  1  0  0  0  0
  8  9  2  0  0  0  0
 10  7  1  0  0  0  0
 11 10  1  0  0  0  0
 12 20  1  0  0  0  0
 12 18  1  0  0  0  0
 13 20  2  0  0  0  0
 15 21  2  0  0  0  0
 15 19  1  0  0  0  0
 16 17  1  0  0  0  0
 16 14  2  0  0  0  0
 17 11  1  0  0  0  0
 18 17  2  0  0  0  0
 19 12  2  0  0  0  0
 20 16  1  0  0  0  0
 21 13  1  0  0  0  0
 22 23  1  1  0  0  0
 22 24  1  0  0  0  0
 22  3  1  0  0  0  0
 24 29  1  6  0  0  0
 25 27  1  0  0  0  0
 26 25  1  0  0  0  0
 26 27  1  0  0  0  0
 27 24  1  0  0  0  0
 28 31  1  0  0  0  0
 29 28  2  0  0  0  0
 31 30  1  1  0  0  0
 31 37  1  0  0  0  0
 32 33  2  0  0  0  0
 34 35  2  0  0  0  0
 35 32  1  0  0  0  0
 36 32  1  0  0  0  0
 36 39  1  1  0  0  0
 37 34  1  0  0  0  0
 37 36  1  0  0  0  0
 39 38  1  0  0  0  0
 40 44  1  0  0  0  0
 41 42  1  0  0  0  0
 42 43  1  0  0  0  0
 44 41  1  0  0  0  0
 44 45  2  0  0  0  0
 45 46  1  0  0  0  0
 46 42  2  0  0  0  0
 46 47  1  0  0  0  0
 47 49  1  0  0  0  0
 47 48  1  0  0  0  0
M  END
>  <MODEL>
6

>  <REMARK>
 VINA RESULT:      -6.2      3.025      5.417
  Name = 
  14 active torsions:
  status: ('A' for Active; 'I' for Inactive)
    1  A    between atoms: N_1  and  C_26
    2  A    between atoms: C_3  and  C_20
    3  A    between atoms: N_5  and  C_41
    4  A    between atoms: C_7  and  C_12
    5  A    between atoms: C_7  and  C_29
    6  A    between atoms: C_8  and  N_11
    7  A    between atoms: N_11  and  C_28
    8  A    between atoms: C_12  and  N_38
    9  A    between atoms: C_15  and  C_20
   10  A    between atoms: C_15  and  C_22
   11  A    between atoms: C_20  and  C_45
   12  A    between atoms: C_26  and  N_44
   13  A    between atoms: C_35  and  C_40
   14  A    between atoms: C_46  and  C_47
                            x       y       z     vdW  Elec       q    Type
                         _______ _______ _______ _____ _____    ______ ____

>  <TORSDO>
F 14

$$$$
=
 OpenBabel11042420313D

 49 54  0  0  1  0  0  0  0  0999 V2000
  161.5990  210.7280  151.0510 C   0  0  0  0  0  0  0  0  0  0  0  0
  161.2170  212.0510  150.7750 C   0  0  0  0  0  3  0  0  0  0  0  0
  161.3420  211.6250  148.3930 C   0  0  0  0  0  0  0  0  0  0  0  0
  161.7240  210.3060  148.6550 C   0  0  0  0  0  3  0  0  0  0  0  0
  161.0950  212.5020  149.4610 C   0  0  0  0  0  3  0  0  0  0  0  0
  161.8560  209.8400  149.9740 C   0  0  0  0  0  0  0  0  0  0  0  0
  162.5810  207.5370  149.1350 N   0  0  0  0  0  2  0  0  0  0  0  0
  162.3520  208.4620  150.2060 C   0  0  0  0  0  0  0  0  0  0  0  0
  162.6060  208.0860  151.3820 O   0  0  0  0  0  0  0  0  0  0  0  0
  162.0450  207.6740  147.7870 C   0  0  0  0  0  2  0  0  0  0  0  0
  160.7000  206.9670  147.6810 C   0  0  0  0  0  2  0  0  0  0  0  0
  160.7770  203.7380  149.3240 C   0  0  0  0  0  0  0  0  0  0  0  0
  161.4900  201.9320  147.8690 C   0  0  0  0  0  3  0  0  0  0  0  0
  161.6240  204.4910  146.0570 O   0  0  0  0  0  0  0  0  0  0  0  0
  160.8690  201.5010  150.1920 C   0  0  0  0  0  3  0  0  0  0  0  0
  161.2780  204.4410  147.2640 C   0  0  0  0  0  0  0  0  0  0  0  0
  160.8400  205.5510  148.1170 C   0  0  0  0  0  0  0  0  0  0  0  0
  160.5460  205.1490  149.3150 N   0  0  0  0  0  0  0  0  0  0  0  0
  160.5940  202.8680  150.3980 C   0  0  0  0  0  3  0  0  0  0  0  0
  161.2150  203.2760  148.1070 C   0  0  0  0  0  0  0  0  0  0  0  0
  161.3110  201.0360  148.9360 C   0  0  0  0  0  3  0  0  0  0  0  0
  161.2360  212.0990  146.9770 C   0  0  2  0  0  3  0  0  0  0  0  0
  162.4490  212.6770  146.5840 O   0  0  0  0  0  1  0  0  0  0  0  0
  160.0640  213.0820  146.8280 C   0  0  2  0  0  3  0  0  0  0  0  0
  158.0370  214.0560  148.0780 C   0  0  0  0  0  2  0  0  0  0  0  0
  157.6520  212.6800  147.5560 C   0  0  0  0  0  2  0  0  0  0  0  0
  159.0770  212.9500  148.0140 C   0  0  0  0  0  3  0  0  0  0  0  0
  160.1900  212.8570  144.3920 N   0  0  0  0  0  0  0  0  0  0  0  0
  159.4810  213.1400  145.4330 C   0  0  0  0  0  3  0  0  0  0  0  0
  158.5140  214.0070  143.0550 C   0  0  0  0  0  1  0  0  0  0  0  0
  159.6340  212.9670  143.0660 C   0  0  1  0  0  3  0  0  0  0  0  0
  161.8170  211.4780  140.9900 C   0  0  0  0  0  0  0  0  0  0  0  0
  162.0940  210.5180  140.2220 O   0  0  0  0  0  0  0  0  0  0  0  0
  162.0020  213.0000  142.7040 C   0  0  0  0  0  3  0  0  0  0  0  0
  162.6730  211.9060  142.0200 N   0  0  0  0  0  0  0  0  0  0  0  0
  160.5820  212.2730  140.9310 C   0  0  1  0  0  3  0  0  0  0  0  0
  160.6860  213.2130  142.0620 N   0  0  0  0  0  0  0  0  0  0  0  0
  159.6020  212.2980  138.5890 C   0  0  0  0  0  1  0  0  0  0  0  0
  160.4480  213.0330  139.6080 C   0  0  0  0  0  2  0  0  0  0  0  0
  161.6530  210.2590  152.4090 N   0  0  0  0  0  2  0  0  0  0  0  0
  161.2770  210.7030  155.1240 S   0  0  0  0  0  0  0  0  0  0  0  0
  159.8000  211.2740  155.6890 C   0  0  0  0  0  0  0  0  0  0  0  0
  159.5130  211.5190  157.1290 C   0  0  0  0  0  1  0  0  0  0  0  0
  160.8430  210.7130  153.4970 C   0  0  0  0  0  0  0  0  0  0  0  0
  159.5300  211.1450  153.3630 C   0  0  0  0  0  3  0  0  0  0  0  0
  158.9370  211.4700  154.5940 C   0  0  0  0  0  0  0  0  0  0  0  0
  157.5860  211.9690  154.6850 N   0  0  0  0  0  0  0  0  0  0  0  0
  157.2520  213.3660  154.4590 C   0  0  0  0  0  1  0  0  0  0  0  0
  156.4890  211.0690  155.0260 C   0  0  0  0  0  1  0  0  0  0  0  0
  1 40  1  0  0  0  0
  2  1  1  0  0  0  0
  3  4  2  0  0  0  0
  3  5  1  0  0  0  0
  4  6  1  0  0  0  0
  5  2  2  0  0  0  0
  6  8  1  0  0  0  0
  6  1  2  0  0  0  0
  7  8  1  0  0  0  0
  8  9  2  0  0  0  0
 10  7  1  0  0  0  0
 11 10  1  0  0  0  0
 11 17  1  0  0  0  0
 12 19  1  0  0  0  0
 13 20  1  0  0  0  0
 13 21  2  0  0  0  0
 14 16  2  0  0  0  0
 15 19  2  0  0  0  0
 16 20  1  0  0  0  0
 16 17  1  0  0  0  0
 17 18  2  0  0  0  0
 18 12  1  0  0  0  0
 20 12  2  0  0  0  0
 21 15  1  0  0  0  0
 22 23  1  1  0  0  0
 22  3  1  0  0  0  0
 24 29  1  6  0  0  0
 24 22  1  0  0  0  0
 24 27  1  0  0  0  0
 26 27  1  0  0  0  0
 26 25  1  0  0  0  0
 27 25  1  0  0  0  0
 28 29  2  0  0  0  0
 31 30  1  1  0  0  0
 31 28  1  0  0  0  0
 32 35  1  0  0  0  0
 33 32  2  0  0  0  0
 35 34  2  0  0  0  0
 36 39  1  6  0  0  0
 36 32  1  0  0  0  0
 36 37  1  0  0  0  0
 37 34  1  0  0  0  0
 37 31  1  0  0  0  0
 38 39  1  0  0  0  0
 40 44  1  0  0  0  0
 41 42  1  0  0  0  0
 42 43  1  0  0  0  0
 44 41  1  0  0  0  0
 45 44  2  0  0  0  0
 45 46  1  0  0  0  0
 46 47  1  0  0  0  0
 46 42  2  0  0  0  0
 47 49  1  0  0  0  0
 48 47  1  0  0  0  0
M  END
>  <MODEL>
7

>  <REMARK>
 VINA RESULT:      -6.2      3.730      8.020
  Name = 
  14 active torsions:
  status: ('A' for Active; 'I' for Inactive)
    1  A    between atoms: N_1  and  C_26
    2  A    between atoms: C_3  and  C_20
    3  A    between atoms: N_5  and  C_41
    4  A    between atoms: C_7  and  C_12
    5  A    between atoms: C_7  and  C_29
    6  A    between atoms: C_8  and  N_11
    7  A    between atoms: N_11  and  C_28
    8  A    between atoms: C_12  and  N_38
    9  A    between atoms: C_15  and  C_20
   10  A    between atoms: C_15  and  C_22
   11  A    between atoms: C_20  and  C_45
   12  A    between atoms: C_26  and  N_44
   13  A    between atoms: C_35  and  C_40
   14  A    between atoms: C_46  and  C_47
                            x       y       z     vdW  Elec       q    Type
                         _______ _______ _______ _____ _____    ______ ____

>  <TORSDO>
F 14

$$$$
=
 OpenBabel11042420313D

 49 54  0  0  1  0  0  0  0  0999 V2000
  160.1450  211.8700  153.7950 C   0  0  0  0  0  0  0  0  0  0  0  0
  160.9300  210.9660  154.5280 C   0  0  0  0  0  3  0  0  0  0  0  0
  161.5100  209.7720  152.5010 C   0  0  0  0  0  0  0  0  0  0  0  0
  160.7310  210.6660  151.7610 C   0  0  0  0  0  3  0  0  0  0  0  0
  161.6020  209.9220  153.8940 C   0  0  0  0  0  3  0  0  0  0  0  0
  160.0440  211.7200  152.3870 C   0  0  0  0  0  0  0  0  0  0  0  0
  159.5130  213.0360  150.2620 N   0  0  0  0  0  2  0  0  0  0  0  0
  159.1560  212.5860  151.5760 C   0  0  0  0  0  0  0  0  0  0  0  0
  158.0350  212.9290  152.0380 O   0  0  0  0  0  0  0  0  0  0  0  0
  160.8640  213.0210  149.7140 C   0  0  0  0  0  2  0  0  0  0  0  0
  161.1030  214.2650  148.8690 C   0  0  0  0  0  2  0  0  0  0  0  0
  162.0990  213.5100  145.4670 C   0  0  0  0  0  0  0  0  0  0  0  0
  160.3360  212.4880  144.1500 C   0  0  0  0  0  3  0  0  0  0  0  0
  159.0180  212.9960  146.9520 O   0  0  0  0  0  0  0  0  0  0  0  0
  162.5470  212.8910  143.1900 C   0  0  0  0  0  3  0  0  0  0  0  0
  160.1970  213.2720  146.6130 C   0  0  0  0  0  0  0  0  0  0  0  0
  161.2470  213.8810  147.4370 C   0  0  0  0  0  0  0  0  0  0  0  0
  162.3550  214.0210  146.7780 N   0  0  0  0  0  0  0  0  0  0  0  0
  162.9990  213.4470  144.4040 C   0  0  0  0  0  3  0  0  0  0  0  0
  160.8120  213.0480  145.3320 C   0  0  0  0  0  0  0  0  0  0  0  0
  161.2260  212.4120  143.0650 C   0  0  0  0  0  3  0  0  0  0  0  0
  162.2090  208.6450  151.8080 C   0  0  2  0  0  3  0  0  0  0  0  0
  162.6380  209.0680  150.5440 O   0  0  0  0  0  1  0  0  0  0  0  0
  161.2860  207.4200  151.7140 C   0  0  2  0  0  3  0  0  0  0  0  0
  160.9310  205.5520  153.4470 C   0  0  0  0  0  2  0  0  0  0  0  0
  161.8600  206.5900  154.0580 C   0  0  0  0  0  2  0  0  0  0  0  0
  160.7500  207.0220  153.1110 C   0  0  0  0  0  3  0  0  0  0  0  0
  161.0260  205.4630  150.2630 N   0  0  0  0  0  0  0  0  0  0  0  0
  161.8160  206.3150  150.8260 C   0  0  0  0  0  3  0  0  0  0  0  0
  160.4850  203.3040  149.2790 C   0  0  0  0  0  1  0  0  0  0  0  0
  161.5510  204.3840  149.4620 C   0  0  1  0  0  3  0  0  0  0  0  0
  160.7790  205.5550  146.4080 C   0  0  0  0  0  0  0  0  0  0  0  0
  160.0040  206.2210  145.6710 O   0  0  0  0  0  0  0  0  0  0  0  0
  162.0440  203.8020  147.1910 C   0  0  0  0  0  3  0  0  0  0  0  0
  161.1930  204.2480  146.0990 N   0  0  0  0  0  0  0  0  0  0  0  0
  161.3490  206.0300  147.6770 C   0  0  1  0  0  3  0  0  0  0  0  0
  162.1170  204.8850  148.1960 N   0  0  0  0  0  0  0  0  0  0  0  0
  161.5980  208.5490  147.8830 C   0  0  0  0  0  1  0  0  0  0  0  0
  162.2580  207.2470  147.4800 C   0  0  0  0  0  2  0  0  0  0  0  0
  159.5150  212.9820  154.4540 N   0  0  0  0  0  2  0  0  0  0  0  0
  157.5460  214.2600  155.9360 S   0  0  0  0  0  0  0  0  0  0  0  0
  156.1650  213.4220  156.4040 C   0  0  0  0  0  0  0  0  0  0  0  0
  155.0740  214.0300  157.2140 C   0  0  0  0  0  1  0  0  0  0  0  0
  158.2320  212.9790  155.0870 C   0  0  0  0  0  0  0  0  0  0  0  0
  157.4070  211.8650  155.1670 C   0  0  0  0  0  3  0  0  0  0  0  0
  156.2350  212.1090  155.9020 C   0  0  0  0  0  0  0  0  0  0  0  0
  155.2210  211.0990  156.0860 N   0  0  0  0  0  0  0  0  0  0  0  0
  155.0400  209.9960  155.1550 C   0  0  0  0  0  1  0  0  0  0  0  0
  154.3190  211.1590  157.2310 C   0  0  0  0  0  1  0  0  0  0  0  0
  1 40  1  0  0  0  0
  1  2  1  0  0  0  0
  3  5  1  0  0  0  0
  4  6  1  0  0  0  0
  4  3  2  0  0  0  0
  5  2  2  0  0  0  0
  6  1  2  0  0  0  0
  7  8  1  0  0  0  0
  8  9  2  0  0  0  0
  8  6  1  0  0  0  0
 10  7  1  0  0  0  0
 11 10  1  0  0  0  0
 12 18  1  0  0  0  0
 13 20  2  0  0  0  0
 15 19  1  0  0  0  0
 16 14  2  0  0  0  0
 16 17  1  0  0  0  0
 17 11  1  0  0  0  0
 18 17  2  0  0  0  0
 19 12  2  0  0  0  0
 20 12  1  0  0  0  0
 20 16  1  0  0  0  0
 21 15  2  0  0  0  0
 21 13  1  0  0  0  0
 22 23  1  6  0  0  0
 22  3  1  0  0  0  0
 24 29  1  1  0  0  0
 24 22  1  0  0  0  0
 24 27  1  0  0  0  0
 25 26  1  0  0  0  0
 27 25  1  0  0  0  0
 27 26  1  0  0  0  0
 28 29  2  0  0  0  0
 31 30  1  6  0  0  0
 31 28  1  0  0  0  0
 32 36  1  0  0  0  0
 33 32  2  0  0  0  0
 34 37  1  0  0  0  0
 35 32  1  0  0  0  0
 35 34  2  0  0  0  0
 36 39  1  6  0  0  0
 36 37  1  0  0  0  0
 37 31  1  0  0  0  0
 39 38  1  0  0  0  0
 40 44  1  0  0  0  0
 41 42  1  0  0  0  0
 42 43  1  0  0  0  0
 44 45  2  0  0  0  0
 44 41  1  0  0  0  0
 45 46  1  0  0  0  0
 46 47  1  0  0  0  0
 46 42  2  0  0  0  0
 47 49  1  0  0  0  0
 48 47  1  0  0  0  0
M  END
>  <MODEL>
8

>  <REMARK>
 VINA RESULT:      -6.2      2.093      3.568
  Name = 
  14 active torsions:
  status: ('A' for Active; 'I' for Inactive)
    1  A    between atoms: N_1  and  C_26
    2  A    between atoms: C_3  and  C_20
    3  A    between atoms: N_5  and  C_41
    4  A    between atoms: C_7  and  C_12
    5  A    between atoms: C_7  and  C_29
    6  A    between atoms: C_8  and  N_11
    7  A    between atoms: N_11  and  C_28
    8  A    between atoms: C_12  and  N_38
    9  A    between atoms: C_15  and  C_20
   10  A    between atoms: C_15  and  C_22
   11  A    between atoms: C_20  and  C_45
   12  A    between atoms: C_26  and  N_44
   13  A    between atoms: C_35  and  C_40
   14  A    between atoms: C_46  and  C_47
                            x       y       z     vdW  Elec       q    Type
                         _______ _______ _______ _____ _____    ______ ____

>  <TORSDO>
F 14

$$$$
=
 OpenBabel11042420313D

 49 54  0  0  1  0  0  0  0  0999 V2000
  161.3840  209.5770  150.9770 C   0  0  0  0  0  0  0  0  0  0  0  0
  160.9930  210.9250  151.0170 C   0  0  0  0  0  3  0  0  0  0  0  0
  162.1330  211.3530  148.9220 C   0  0  0  0  0  0  0  0  0  0  0  0
  162.5280  210.0130  148.8720 C   0  0  0  0  0  3  0  0  0  0  0  0
  161.3670  211.8100  150.0060 C   0  0  0  0  0  3  0  0  0  0  0  0
  162.1630  209.1120  149.8860 C   0  0  0  0  0  0  0  0  0  0  0  0
  162.7410  206.9660  148.6240 N   0  0  0  0  0  2  0  0  0  0  0  0
  162.6820  207.7240  149.8390 C   0  0  0  0  0  0  0  0  0  0  0  0
  163.1100  207.1870  150.8970 O   0  0  0  0  0  0  0  0  0  0  0  0
  162.0060  207.2850  147.4060 C   0  0  0  0  0  2  0  0  0  0  0  0
  160.6340  206.6240  147.4300 C   0  0  0  0  0  2  0  0  0  0  0  0
  161.1410  203.0630  147.8740 C   0  0  0  0  0  0  0  0  0  0  0  0
  160.8770  202.3300  150.1710 C   0  0  0  0  0  3  0  0  0  0  0  0
  160.3070  205.4140  150.2690 O   0  0  0  0  0  0  0  0  0  0  0  0
  161.4670  200.7440  148.4080 C   0  0  0  0  0  3  0  0  0  0  0  0
  160.6010  204.7340  149.2530 C   0  0  0  0  0  0  0  0  0  0  0  0
  160.7660  205.2090  147.8750 C   0  0  0  0  0  0  0  0  0  0  0  0
  161.0810  204.2430  147.0690 N   0  0  0  0  0  0  0  0  0  0  0  0
  161.4490  201.7730  147.4440 C   0  0  0  0  0  3  0  0  0  0  0  0
  160.8620  203.3210  149.1940 C   0  0  0  0  0  0  0  0  0  0  0  0
  161.1860  201.0220  149.7630 C   0  0  0  0  0  3  0  0  0  0  0  0
  162.5590  212.2940  147.8390 C   0  0  2  0  0  3  0  0  0  0  0  0
  163.5070  213.1920  148.3450 O   0  0  0  0  0  1  0  0  0  0  0  0
  161.3410  213.0240  147.2530 C   0  0  2  0  0  3  0  0  0  0  0  0
  159.2550  214.2950  148.0600 C   0  0  0  0  0  2  0  0  0  0  0  0
  158.8330  212.8790  147.7000 C   0  0  0  0  0  2  0  0  0  0  0  0
  160.2060  213.1350  148.3010 C   0  0  0  0  0  3  0  0  0  0  0  0
  161.4320  213.1670  144.8090 N   0  0  0  0  0  0  0  0  0  0  0  0
  160.9650  212.5760  145.8570 C   0  0  0  0  0  3  0  0  0  0  0  0
  159.5640  212.3080  143.5090 C   0  0  0  0  0  1  0  0  0  0  0  0
  161.0230  212.7610  143.4870 C   0  0  1  0  0  3  0  0  0  0  0  0
  162.7360  213.4620  140.6820 C   0  0  0  0  0  0  0  0  0  0  0  0
  163.2040  213.0760  139.5770 O   0  0  0  0  0  0  0  0  0  0  0  0
  162.6390  214.3850  142.7860 C   0  0  0  0  0  3  0  0  0  0  0  0
  163.5060  214.1380  141.6440 N   0  0  0  0  0  0  0  0  0  0  0  0
  161.3490  213.2620  141.1250 C   0  0  1  0  0  3  0  0  0  0  0  0
  161.3080  213.8110  142.4920 N   0  0  0  0  0  0  0  0  0  0  0  0
  158.9260  213.9240  140.7480 C   0  0  0  0  0  1  0  0  0  0  0  0
  160.3460  213.9850  140.2220 C   0  0  0  0  0  2  0  0  0  0  0  0
  160.9330  208.6630  151.9900 N   0  0  0  0  0  2  0  0  0  0  0  0
  160.1200  207.9640  154.5520 S   0  0  0  0  0  0  0  0  0  0  0  0
  160.5230  208.9400  155.8600 C   0  0  0  0  0  0  0  0  0  0  0  0
  160.1100  208.6450  157.2600 C   0  0  0  0  0  1  0  0  0  0  0  0
  160.9210  208.8960  153.4020 C   0  0  0  0  0  0  0  0  0  0  0  0
  161.5050  209.9990  154.0120 C   0  0  0  0  0  3  0  0  0  0  0  0
  161.2910  210.0270  155.4000 C   0  0  0  0  0  0  0  0  0  0  0  0
  161.8340  211.0680  156.2380 N   0  0  0  0  0  0  0  0  0  0  0  0
  161.0250  212.1650  156.7450 C   0  0  0  0  0  1  0  0  0  0  0  0
  163.2470  211.0600  156.6030 C   0  0  0  0  0  1  0  0  0  0  0  0
  1  2  1  0  0  0  0
  1 40  1  0  0  0  0
  3  5  1  0  0  0  0
  4  3  2  0  0  0  0
  4  6  1  0  0  0  0
  5  2  2  0  0  0  0
  6  1  2  0  0  0  0
  7  8  1  0  0  0  0
  8  6  1  0  0  0  0
  8  9  2  0  0  0  0
 10 11  1  0  0  0  0
 10  7  1  0  0  0  0
 11 17  1  0  0  0  0
 12 20  1  0  0  0  0
 15 21  2  0  0  0  0
 16 14  2  0  0  0  0
 17 16  1  0  0  0  0
 18 12  1  0  0  0  0
 18 17  2  0  0  0  0
 19 12  2  0  0  0  0
 19 15  1  0  0  0  0
 20 16  1  0  0  0  0
 20 13  2  0  0  0  0
 21 13  1  0  0  0  0
 22 23  1  1  0  0  0
 22  3  1  0  0  0  0
 24 29  1  6  0  0  0
 24 22  1  0  0  0  0
 24 27  1  0  0  0  0
 25 27  1  0  0  0  0
 26 25  1  0  0  0  0
 26 27  1  0  0  0  0
 28 29  2  0  0  0  0
 31 30  1  1  0  0  0
 31 28  1  0  0  0  0
 32 36  1  0  0  0  0
 32 35  1  0  0  0  0
 33 32  2  0  0  0  0
 35 34  2  0  0  0  0
 36 39  1  6  0  0  0
 36 37  1  0  0  0  0
 37 34  1  0  0  0  0
 37 31  1  0  0  0  0
 39 38  1  0  0  0  0
 40 44  1  0  0  0  0
 41 42  1  0  0  0  0
 42 43  1  0  0  0  0
 44 45  2  0  0  0  0
 44 41  1  0  0  0  0
 45 46  1  0  0  0  0
 46 42  2  0  0  0  0
 46 47  1  0  0  0  0
 47 49  1  0  0  0  0
 47 48  1  0  0  0  0
M  END
>  <MODEL>
9

>  <REMARK>
 VINA RESULT:      -6.0      3.972      8.430
  Name = 
  14 active torsions:
  status: ('A' for Active; 'I' for Inactive)
    1  A    between atoms: N_1  and  C_26
    2  A    between atoms: C_3  and  C_20
    3  A    between atoms: N_5  and  C_41
    4  A    between atoms: C_7  and  C_12
    5  A    between atoms: C_7  and  C_29
    6  A    between atoms: C_8  and  N_11
    7  A    between atoms: N_11  and  C_28
    8  A    between atoms: C_12  and  N_38
    9  A    between atoms: C_15  and  C_20
   10  A    between atoms: C_15  and  C_22
   11  A    between atoms: C_20  and  C_45
   12  A    between atoms: C_26  and  N_44
   13  A    between atoms: C_35  and  C_40
   14  A    between atoms: C_46  and  C_47
                            x       y       z     vdW  Elec       q    Type
                         _______ _______ _______ _____ _____    ______ ____

>  <TORSDO>
F 14

$$$$
