=
 OpenBabel11052412053D

 50 55  0  0  1  0  0  0  0  0999 V2000
  161.8330  211.9590  149.4410 C   0  0  2  0  0  3  0  0  0  0  0  0
  159.4220  211.5880  152.2790 N   0  0  0  0  0  0  0  0  0  0  0  0
  161.2240  214.4520  149.7840 C   0  0  0  0  0  2  0  0  0  0  0  0
  159.3010  212.9750  150.1940 N   0  0  0  0  0  0  0  0  0  0  0  0
  161.3620  213.2920  148.8180 C   0  0  2  0  0  0  0  0  0  0  0  0
  160.0090  212.0620  151.0550 C   0  0  0  0  0  0  0  0  0  0  0  0
  161.6120  210.7970  148.4760 C   0  0  0  0  0  1  0  0  0  0  0  0
  157.8440  212.9930  150.2020 C   0  0  0  0  0  1  0  0  0  0  0  0
  161.1910  211.6470  150.7140 N   0  0  0  0  0  0  0  0  0  0  0  0
  159.9720  213.8020  149.1850 C   0  0  2  0  0  3  0  0  0  0  0  0
  157.4790  212.5220  153.4940 C   0  0  0  0  0  3  0  0  0  0  0  0
  159.1680  214.1020  155.0630 C   0  0  0  0  0  3  0  0  0  0  0  0
  156.9460  213.3320  154.5030 C   0  0  0  0  0  3  0  0  0  0  0  0
  157.7900  214.1210  155.2890 C   0  0  0  0  0  3  0  0  0  0  0  0
  159.7000  213.2950  154.0520 C   0  0  0  0  0  3  0  0  0  0  0  0
  158.8640  212.4970  153.2520 C   0  0  0  0  0  0  0  0  0  0  0  0
  163.0110  214.3840  147.4890 O   0  0  0  0  0  0  0  0  0  0  0  0
  161.9560  213.6930  147.4880 C   0  0  0  0  0  0  0  0  0  0  0  0
  161.4040  213.3080  146.2210 N   0  0  0  0  0  2  0  0  0  0  0  0
  157.6820  214.3310  141.4920 O   0  0  0  0  0  0  0  0  0  0  0  0
  159.0580  212.5470  140.7140 C   0  0  0  0  0  2  0  0  0  0  0  0
  158.5500  213.4640  141.7850 C   0  0  0  0  0  0  0  0  0  0  0  0
  159.6060  213.3300  139.5620 C   0  0  0  0  0  3  0  0  0  0  0  0
  161.4940  211.7250  139.2460 C   0  0  0  0  0  2  0  0  0  0  0  0
  159.4550  214.4460  145.2900 C   0  0  0  0  0  2  0  0  0  0  0  0
  162.7830  212.1070  139.9670 C   0  0  0  0  0  2  0  0  0  0  0  0
  161.9130  211.8730  142.1900 O   0  0  0  0  0  0  0  0  0  0  0  0
  161.3770  212.6870  143.1850 C   0  0  0  0  0  2  0  0  0  0  0  0
  160.6940  212.9450  138.8830 C   0  0  0  0  0  3  0  0  0  0  0  0
  159.0130  213.3380  143.1400 N   0  0  0  0  0  0  0  0  0  0  0  0
  159.9480  212.2660  143.5110 C   0  0  2  0  0  3  0  0  0  0  0  0
  159.8110  211.9210  145.0020 C   0  0  0  0  0  2  0  0  0  0  0  0
  158.4350  214.2010  144.1760 C   0  0  0  0  0  2  0  0  0  0  0  0
  162.5180  212.7720  141.3120 C   0  0  0  0  0  2  0  0  0  0  0  0
  159.9880  213.1470  145.9130 C   0  0  1  0  0  3  0  0  0  0  0  0
  159.6640  210.1990  152.6580 C   0  0  0  0  0  2  0  0  0  0  0  0
  161.1150  209.8280  152.3930 C   0  0  0  0  0  2  0  0  0  0  0  0
  161.4090  208.4680  152.9990 C   0  0  0  0  0  2  0  0  0  0  0  0
  161.2510  206.7410  149.6180 C   0  0  0  0  0  0  0  0  0  0  0  0
  160.7430  205.3730  150.0260 C   0  0  0  0  0  2  0  0  0  0  0  0
  161.1040  205.0670  151.4130 N   0  0  0  0  0  0  0  0  0  0  0  0
  161.4820  207.6780  150.5440 C   0  0  0  0  0  3  0  0  0  0  0  0
  161.2120  206.1120  152.3850 C   0  0  0  0  0  3  0  0  0  0  0  0
  161.3390  207.3790  151.9820 C   0  0  0  0  0  0  0  0  0  0  0  0
  161.1080  203.6870  151.8540 C   0  0  0  0  0  1  0  0  0  0  0  0
  161.5130  207.0340  148.2810 O   0  0  0  0  0  0  0  0  0  0  0  0
  160.8150  206.3960  147.2100 C   0  0  0  0  0  2  0  0  0  0  0  0
  161.7040  205.4370  146.4730 C   0  0  0  0  0  0  0  0  0  0  0  0
  161.9370  204.0760  147.0360 C   0  0  0  0  0  1  0  0  0  0  0  0
  162.2690  205.7640  145.4440 O   0  0  0  0  0  0  0  0  0  0  0  0
  1  7  1  6  0  0  0
  1  9  1  0  0  0  0
  2 36  1  0  0  0  0
  2 16  1  0  0  0  0
  4  8  1  0  0  0  0
  4  6  1  0  0  0  0
  5 18  1  6  0  0  0
  5 10  1  0  0  0  0
  5  1  1  0  0  0  0
  5  3  1  0  0  0  0
  6  2  1  0  0  0  0
  9  6  2  0  0  0  0
 10  3  1  1  0  0  0
 10  4  1  0  0  0  0
 11 13  1  0  0  0  0
 12 14  1  0  0  0  0
 13 14  2  0  0  0  0
 15 12  2  0  0  0  0
 16 11  2  0  0  0  0
 16 15  1  0  0  0  0
 18 17  2  0  0  0  0
 19 18  1  0  0  0  0
 20 22  2  0  0  0  0
 21 22  1  0  0  0  0
 22 30  1  0  0  0  0
 23 21  1  0  0  0  0
 24 26  1  0  0  0  0
 25 35  1  0  0  0  0
 26 34  1  0  0  0  0
 27 28  1  0  0  0  0
 29 24  1  0  0  0  0
 29 23  2  0  0  0  0
 30 31  1  0  0  0  0
 30 33  1  0  0  0  0
 31 28  1  1  0  0  0
 31 32  1  0  0  0  0
 32 35  1  0  0  0  0
 33 25  1  0  0  0  0
 34 27  1  0  0  0  0
 35 19  1  6  0  0  0
 37 36  1  0  0  0  0
 37 38  1  0  0  0  0
 39 40  1  0  0  0  0
 39 42  2  0  0  0  0
 40 41  1  0  0  0  0
 41 45  1  0  0  0  0
 41 43  1  0  0  0  0
 42 44  1  0  0  0  0
 44 43  2  0  0  0  0
 44 38  1  0  0  0  0
 46 39  1  0  0  0  0
 47 46  1  0  0  0  0
 48 49  1  0  0  0  0
 48 47  1  0  0  0  0
 50 48  2  0  0  0  0
M  END
>  <MODEL>
1

>  <REMARK>
 VINA RESULT:      -6.8      0.000      0.000
  Name = 
  10 active torsions:
  status: ('A' for Active; 'I' for Inactive)
    1  A    between atoms: C_2  and  C_7
    2  A    between atoms: C_2  and  O_42
    3  A    between atoms: C_5  and  O_42
    4  A    between atoms: C_9  and  C_44
    5  A    between atoms: C_9  and  C_50
    6  A    between atoms: N_10  and  C_26
    7  A    between atoms: N_10  and  C_38
    8  A    between atoms: C_22  and  C_30
    9  A    between atoms: C_26  and  C_50
   10  A    between atoms: C_47  and  N_49
                            x       y       z     vdW  Elec       q    Type
                         _______ _______ _______ _____ _____    ______ ____

>  <TORSDO>
F 10

$$$$
=
 OpenBabel11052412053D

 50 55  0  0  1  0  0  0  0  0999 V2000
  160.7950  209.5580  152.0860 C   0  0  2  0  0  3  0  0  0  0  0  0
  159.2540  212.2140  154.2230 N   0  0  0  0  0  0  0  0  0  0  0  0
  159.8220  208.0580  153.9610 C   0  0  0  0  0  2  0  0  0  0  0  0
  160.6290  210.2100  154.8360 N   0  0  0  0  0  0  0  0  0  0  0  0
  161.0280  208.4350  153.1230 C   0  0  2  0  0  0  0  0  0  0  0  0
  159.9610  211.0200  153.8490 C   0  0  0  0  0  0  0  0  0  0  0  0
  162.1210  210.0890  151.5500 C   0  0  0  0  0  1  0  0  0  0  0  0
  161.1040  210.8200  156.0700 C   0  0  0  0  0  1  0  0  0  0  0  0
  160.0080  210.6740  152.5980 N   0  0  0  0  0  0  0  0  0  0  0  0
  160.9940  208.8080  154.6010 C   0  0  2  0  0  3  0  0  0  0  0  0
  158.3060  213.1930  156.2890 C   0  0  0  0  0  3  0  0  0  0  0  0
  156.1920  211.3660  156.2320 C   0  0  0  0  0  3  0  0  0  0  0  0
  157.3000  213.2520  157.2610 C   0  0  0  0  0  3  0  0  0  0  0  0
  156.2420  212.3400  157.2320 C   0  0  0  0  0  3  0  0  0  0  0  0
  157.2000  211.3040  155.2640 C   0  0  0  0  0  3  0  0  0  0  0  0
  158.2710  212.2140  155.2800 C   0  0  0  0  0  0  0  0  0  0  0  0
  162.6360  206.7250  153.5320 O   0  0  0  0  0  0  0  0  0  0  0  0
  161.8500  207.2430  152.6930 C   0  0  0  0  0  0  0  0  0  0  0  0
  161.7670  206.6470  151.3910 N   0  0  0  0  0  2  0  0  0  0  0  0
  162.5160  205.5930  145.4250 O   0  0  0  0  0  0  0  0  0  0  0  0
  160.7920  204.0600  146.0270 C   0  0  0  0  0  2  0  0  0  0  0  0
  161.7000  205.2180  146.3110 C   0  0  0  0  0  0  0  0  0  0  0  0
  161.5830  202.8510  145.6350 C   0  0  0  0  0  3  0  0  0  0  0  0
  160.0730  201.3290  146.9160 C   0  0  0  0  0  2  0  0  0  0  0  0
  162.7860  207.2650  149.2600 C   0  0  0  0  0  2  0  0  0  0  0  0
  160.5330  201.0240  148.3380 C   0  0  0  0  0  2  0  0  0  0  0  0
  160.2920  203.2600  149.1720 O   0  0  0  0  0  0  0  0  0  0  0  0
  161.0940  204.3770  149.3900 C   0  0  0  0  0  2  0  0  0  0  0  0
  161.2440  201.6130  146.0160 C   0  0  0  0  0  3  0  0  0  0  0  0
  161.6210  205.9240  147.5610 N   0  0  0  0  0  0  0  0  0  0  0  0
  160.6050  205.5590  148.5590 C   0  0  2  0  0  3  0  0  0  0  0  0
  160.2790  206.7590  149.4620 C   0  0  0  0  0  2  0  0  0  0  0  0
  162.4700  207.1010  147.7720 C   0  0  0  0  0  2  0  0  0  0  0  0
  161.2060  202.2210  148.9980 C   0  0  0  0  0  2  0  0  0  0  0  0
  161.5280  207.3500  150.1360 C   0  0  1  0  0  3  0  0  0  0  0  0
  159.3300  213.3620  153.3230 C   0  0  0  0  0  2  0  0  0  0  0  0
  158.8010  212.9860  151.9470 C   0  0  0  0  0  2  0  0  0  0  0  0
  159.0590  214.1230  150.9760 C   0  0  0  0  0  2  0  0  0  0  0  0
  159.3360  213.2720  147.2830 C   0  0  0  0  0  0  0  0  0  0  0  0
  160.5000  212.3020  147.3060 C   0  0  0  0  0  2  0  0  0  0  0  0
  161.3730  212.5510  148.4560 N   0  0  0  0  0  0  0  0  0  0  0  0
  158.9180  213.8510  148.4150 C   0  0  0  0  0  3  0  0  0  0  0  0
  160.8350  213.0570  149.6820 C   0  0  0  0  0  3  0  0  0  0  0  0
  159.6320  213.6360  149.6880 C   0  0  0  0  0  0  0  0  0  0  0  0
  162.7330  212.0530  148.4310 C   0  0  0  0  0  1  0  0  0  0  0  0
  158.7030  213.5970  146.0850 O   0  0  0  0  0  0  0  0  0  0  0  0
  158.4610  212.6280  145.0630 C   0  0  0  0  0  2  0  0  0  0  0  0
  159.1850  212.9790  143.7960 C   0  0  0  0  0  0  0  0  0  0  0  0
  160.4000  212.2060  143.4100 C   0  0  0  0  0  1  0  0  0  0  0  0
  158.8210  213.9100  143.0970 O   0  0  0  0  0  0  0  0  0  0  0  0
  1  7  1  1  0  0  0
  1  9  1  0  0  0  0
  1  5  1  0  0  0  0
  2 16  1  0  0  0  0
  4  8  1  0  0  0  0
  5 18  1  6  0  0  0
  5  3  1  0  0  0  0
  5 10  1  0  0  0  0
  6  2  1  0  0  0  0
  6  4  1  0  0  0  0
  9  6  2  0  0  0  0
 10  3  1  1  0  0  0
 10  4  1  0  0  0  0
 11 13  1  0  0  0  0
 12 14  1  0  0  0  0
 14 13  2  0  0  0  0
 15 16  1  0  0  0  0
 15 12  2  0  0  0  0
 16 11  2  0  0  0  0
 18 17  2  0  0  0  0
 19 18  1  0  0  0  0
 20 22  2  0  0  0  0
 21 22  1  0  0  0  0
 22 30  1  0  0  0  0
 23 29  2  0  0  0  0
 23 21  1  0  0  0  0
 24 26  1  0  0  0  0
 25 35  1  0  0  0  0
 26 34  1  0  0  0  0
 27 28  1  0  0  0  0
 29 24  1  0  0  0  0
 30 33  1  0  0  0  0
 30 31  1  0  0  0  0
 31 28  1  1  0  0  0
 31 32  1  0  0  0  0
 32 35  1  0  0  0  0
 33 25  1  0  0  0  0
 34 27  1  0  0  0  0
 35 19  1  1  0  0  0
 36  2  1  0  0  0  0
 37 36  1  0  0  0  0
 38 37  1  0  0  0  0
 39 40  1  0  0  0  0
 39 42  2  0  0  0  0
 40 41  1  0  0  0  0
 41 43  1  0  0  0  0
 42 44  1  0  0  0  0
 43 44  2  0  0  0  0
 44 38  1  0  0  0  0
 45 41  1  0  0  0  0
 46 39  1  0  0  0  0
 47 46  1  0  0  0  0
 48 47  1  0  0  0  0
 49 48  1  0  0  0  0
 50 48  2  0  0  0  0
M  END
>  <MODEL>
2

>  <REMARK>
 VINA RESULT:      -6.7      2.325      8.030
  Name = 
  10 active torsions:
  status: ('A' for Active; 'I' for Inactive)
    1  A    between atoms: C_2  and  C_7
    2  A    between atoms: C_2  and  O_42
    3  A    between atoms: C_5  and  O_42
    4  A    between atoms: C_9  and  C_44
    5  A    between atoms: C_9  and  C_50
    6  A    between atoms: N_10  and  C_26
    7  A    between atoms: N_10  and  C_38
    8  A    between atoms: C_22  and  C_30
    9  A    between atoms: C_26  and  C_50
   10  A    between atoms: C_47  and  N_49
                            x       y       z     vdW  Elec       q    Type
                         _______ _______ _______ _____ _____    ______ ____

>  <TORSDO>
F 10

$$$$
=
 OpenBabel11052412053D

 50 55  0  0  1  0  0  0  0  0999 V2000
  160.9140  209.6380  152.2840 C   0  0  2  0  0  3  0  0  0  0  0  0
  159.2620  212.1890  154.4670 N   0  0  0  0  0  0  0  0  0  0  0  0
  159.6760  208.0430  153.9060 C   0  0  0  0  0  2  0  0  0  0  0  0
  160.4740  210.0710  155.0460 N   0  0  0  0  0  0  0  0  0  0  0  0
  160.9820  208.4240  153.2380 C   0  0  2  0  0  0  0  0  0  0  0  0
  159.9540  210.9930  154.0680 C   0  0  0  0  0  0  0  0  0  0  0  0
  162.3120  210.1420  151.9390 C   0  0  0  0  0  1  0  0  0  0  0  0
  160.8360  210.5530  156.3720 C   0  0  0  0  0  1  0  0  0  0  0  0
  160.1240  210.7490  152.8040 N   0  0  0  0  0  0  0  0  0  0  0  0
  160.8020  208.6760  154.7310 C   0  0  2  0  0  3  0  0  0  0  0  0
  158.0530  213.1390  156.4060 C   0  0  0  0  0  3  0  0  0  0  0  0
  156.0360  211.2230  156.1370 C   0  0  0  0  0  3  0  0  0  0  0  0
  156.9450  213.1620  157.2600 C   0  0  0  0  0  3  0  0  0  0  0  0
  155.9350  212.2060  157.1250 C   0  0  0  0  0  3  0  0  0  0  0  0
  157.1460  211.1990  155.2860 C   0  0  0  0  0  3  0  0  0  0  0  0
  158.1700  212.1530  155.4100 C   0  0  0  0  0  0  0  0  0  0  0  0
  162.5540  206.6790  153.6370 O   0  0  0  0  0  0  0  0  0  0  0  0
  161.7940  207.2300  152.7950 C   0  0  0  0  0  0  0  0  0  0  0  0
  161.7290  206.6670  151.4770 N   0  0  0  0  0  2  0  0  0  0  0  0
  162.6240  205.7620  145.5070 O   0  0  0  0  0  0  0  0  0  0  0  0
  160.8740  204.2280  146.0250 C   0  0  0  0  0  2  0  0  0  0  0  0
  161.7830  205.3710  146.3620 C   0  0  0  0  0  0  0  0  0  0  0  0
  161.6660  203.0230  145.6210 C   0  0  0  0  0  3  0  0  0  0  0  0
  160.1130  201.4810  146.8230 C   0  0  0  0  0  2  0  0  0  0  0  0
  162.8070  207.3320  149.3900 C   0  0  0  0  0  2  0  0  0  0  0  0
  160.5340  201.1350  148.2480 C   0  0  0  0  0  2  0  0  0  0  0  0
  160.2870  203.3500  149.1340 O   0  0  0  0  0  0  0  0  0  0  0  0
  161.0910  204.4550  149.4020 C   0  0  0  0  0  2  0  0  0  0  0  0
  161.3080  201.7790  145.9620 C   0  0  0  0  0  3  0  0  0  0  0  0
  161.6770  206.0450  147.6270 N   0  0  0  0  0  0  0  0  0  0  0  0
  160.6320  205.6620  148.5900 C   0  0  2  0  0  3  0  0  0  0  0  0
  160.2920  206.8410  149.5140 C   0  0  0  0  0  2  0  0  0  0  0  0
  162.5280  207.2090  147.8900 C   0  0  0  0  0  2  0  0  0  0  0  0
  161.1980  202.3090  148.9560 C   0  0  0  0  0  2  0  0  0  0  0  0
  161.5270  207.4040  150.2360 C   0  0  1  0  0  3  0  0  0  0  0  0
  159.4870  213.4000  153.6840 C   0  0  0  0  0  2  0  0  0  0  0  0
  159.0430  213.1840  152.2450 C   0  0  0  0  0  2  0  0  0  0  0  0
  159.7390  214.1880  151.3440 C   0  0  0  0  0  2  0  0  0  0  0  0
  160.4300  213.2900  147.7170 C   0  0  0  0  0  0  0  0  0  0  0  0
  159.1600  213.7890  147.0580 C   0  0  0  0  0  2  0  0  0  0  0  0
  158.0420  213.7990  148.0050 N   0  0  0  0  0  0  0  0  0  0  0  0
  160.5870  213.3900  149.0410 C   0  0  0  0  0  3  0  0  0  0  0  0
  158.2700  214.0370  149.3980 C   0  0  0  0  0  3  0  0  0  0  0  0
  159.5000  213.8970  149.9000 C   0  0  0  0  0  0  0  0  0  0  0  0
  156.6860  213.8150  147.4960 C   0  0  0  0  0  1  0  0  0  0  0  0
  161.4390  212.6950  146.9610 O   0  0  0  0  0  0  0  0  0  0  0  0
  162.4250  213.4620  146.2680 C   0  0  0  0  0  2  0  0  0  0  0  0
  162.4110  213.1680  144.7960 C   0  0  0  0  0  0  0  0  0  0  0  0
  161.1160  212.8550  144.1250 C   0  0  0  0  0  1  0  0  0  0  0  0
  163.4430  213.1420  144.1460 O   0  0  0  0  0  0  0  0  0  0  0  0
  1  7  1  1  0  0  0
  1  9  1  0  0  0  0
  1  5  1  0  0  0  0
  2 16  1  0  0  0  0
  4  8  1  0  0  0  0
  5 18  1  6  0  0  0
  5  3  1  0  0  0  0
  5 10  1  0  0  0  0
  6  2  1  0  0  0  0
  6  4  1  0  0  0  0
  9  6  2  0  0  0  0
 10  3  1  6  0  0  0
 10  4  1  0  0  0  0
 11 13  1  0  0  0  0
 12 14  1  0  0  0  0
 14 13  2  0  0  0  0
 15 16  1  0  0  0  0
 15 12  2  0  0  0  0
 16 11  2  0  0  0  0
 18 17  2  0  0  0  0
 19 18  1  0  0  0  0
 20 22  2  0  0  0  0
 21 22  1  0  0  0  0
 22 30  1  0  0  0  0
 23 29  2  0  0  0  0
 23 21  1  0  0  0  0
 24 26  1  0  0  0  0
 25 35  1  0  0  0  0
 26 34  1  0  0  0  0
 27 28  1  0  0  0  0
 29 24  1  0  0  0  0
 30 33  1  0  0  0  0
 30 31  1  0  0  0  0
 31 28  1  1  0  0  0
 31 32  1  0  0  0  0
 32 35  1  0  0  0  0
 33 25  1  0  0  0  0
 34 27  1  0  0  0  0
 35 19  1  1  0  0  0
 36  2  1  0  0  0  0
 37 36  1  0  0  0  0
 38 37  1  0  0  0  0
 39 42  2  0  0  0  0
 40 39  1  0  0  0  0
 40 41  1  0  0  0  0
 41 43  1  0  0  0  0
 42 44  1  0  0  0  0
 43 44  2  0  0  0  0
 44 38  1  0  0  0  0
 45 41  1  0  0  0  0
 46 39  1  0  0  0  0
 47 46  1  0  0  0  0
 48 47  1  0  0  0  0
 49 48  1  0  0  0  0
 50 48  2  0  0  0  0
M  END
>  <MODEL>
3

>  <REMARK>
 VINA RESULT:      -6.5      2.589      8.117
  Name = 
  10 active torsions:
  status: ('A' for Active; 'I' for Inactive)
    1  A    between atoms: C_2  and  C_7
    2  A    between atoms: C_2  and  O_42
    3  A    between atoms: C_5  and  O_42
    4  A    between atoms: C_9  and  C_44
    5  A    between atoms: C_9  and  C_50
    6  A    between atoms: N_10  and  C_26
    7  A    between atoms: N_10  and  C_38
    8  A    between atoms: C_22  and  C_30
    9  A    between atoms: C_26  and  C_50
   10  A    between atoms: C_47  and  N_49
                            x       y       z     vdW  Elec       q    Type
                         _______ _______ _______ _____ _____    ______ ____

>  <TORSDO>
F 10

$$$$
=
 OpenBabel11052412053D

 50 55  0  0  1  0  0  0  0  0999 V2000
  160.4810  212.6880  149.3090 C   0  0  2  0  0  3  0  0  0  0  0  0
  160.5840  210.1160  152.0240 N   0  0  0  0  0  0  0  0  0  0  0  0
  161.8070  210.8410  148.0680 C   0  0  0  0  0  2  0  0  0  0  0  0
  162.3710  210.9230  150.4610 N   0  0  0  0  0  0  0  0  0  0  0  0
  161.7250  212.2980  148.4780 C   0  0  2  0  0  0  0  0  0  0  0  0
  161.0060  210.9400  150.9240 C   0  0  0  0  0  0  0  0  0  0  0  0
  160.6610  214.0620  149.9490 C   0  0  0  0  0  1  0  0  0  0  0  0
  163.4410  210.5670  151.3820 C   0  0  0  0  0  1  0  0  0  0  0  0
  160.1430  211.7210  150.3480 N   0  0  0  0  0  0  0  0  0  0  0  0
  162.7650  211.3940  149.1290 C   0  0  2  0  0  3  0  0  0  0  0  0
  160.8960  208.0100  153.2870 C   0  0  0  0  0  3  0  0  0  0  0  0
  161.1740  206.5760  150.9040 C   0  0  0  0  0  3  0  0  0  0  0  0
  161.0720  206.6220  153.3190 C   0  0  0  0  0  3  0  0  0  0  0  0
  161.2090  205.9040  152.1280 C   0  0  0  0  0  3  0  0  0  0  0  0
  161.0020  207.9640  150.8730 C   0  0  0  0  0  3  0  0  0  0  0  0
  160.8630  208.7000  152.0620 C   0  0  0  0  0  0  0  0  0  0  0  0
  163.1450  214.0080  147.6190 O   0  0  0  0  0  0  0  0  0  0  0  0
  162.1660  213.2480  147.3890 C   0  0  0  0  0  0  0  0  0  0  0  0
  161.5520  213.3150  146.0940 N   0  0  0  0  0  2  0  0  0  0  0  0
  157.7670  214.1610  141.3800 O   0  0  0  0  0  0  0  0  0  0  0  0
  159.1790  212.3960  140.6230 C   0  0  0  0  0  2  0  0  0  0  0  0
  158.6590  213.3200  141.6810 C   0  0  0  0  0  0  0  0  0  0  0  0
  159.6990  213.1710  139.4520 C   0  0  0  0  0  3  0  0  0  0  0  0
  161.6230  211.6070  139.1480 C   0  0  0  0  0  2  0  0  0  0  0  0
  159.5680  214.3880  145.1590 C   0  0  0  0  0  2  0  0  0  0  0  0
  162.9080  212.0340  139.8510 C   0  0  0  0  0  2  0  0  0  0  0  0
  162.0620  211.8190  142.0850 O   0  0  0  0  0  0  0  0  0  0  0  0
  161.5150  212.6380  143.0700 C   0  0  0  0  0  2  0  0  0  0  0  0
  160.7900  212.8010  138.7700 C   0  0  0  0  0  3  0  0  0  0  0  0
  159.1350  213.2310  143.0340 N   0  0  0  0  0  0  0  0  0  0  0  0
  160.1000  212.1880  143.4160 C   0  0  2  0  0  3  0  0  0  0  0  0
  159.9830  211.8680  144.9140 C   0  0  0  0  0  2  0  0  0  0  0  0
  158.5450  214.0980  144.0590 C   0  0  0  0  0  2  0  0  0  0  0  0
  162.6380  212.7160  141.1850 C   0  0  0  0  0  2  0  0  0  0  0  0
  160.1380  213.1140  145.8010 C   0  0  1  0  0  3  0  0  0  0  0  0
  159.6150  210.6750  152.9620 C   0  0  0  0  0  2  0  0  0  0  0  0
  160.3320  211.2770  154.1620 C   0  0  0  0  0  2  0  0  0  0  0  0
  159.4260  211.2130  155.3780 C   0  0  0  0  0  2  0  0  0  0  0  0
  157.0560  213.8010  153.9200 C   0  0  0  0  0  0  0  0  0  0  0  0
  156.2280  214.1420  155.1420 C   0  0  0  0  0  2  0  0  0  0  0  0
  156.2060  213.0290  156.0940 N   0  0  0  0  0  0  0  0  0  0  0  0
  158.0190  212.8760  153.9940 C   0  0  0  0  0  3  0  0  0  0  0  0
  157.3280  212.1480  156.2090 C   0  0  0  0  0  3  0  0  0  0  0  0
  158.2370  212.1030  155.2320 C   0  0  0  0  0  0  0  0  0  0  0  0
  155.1540  212.9700  157.0880 C   0  0  0  0  0  1  0  0  0  0  0  0
  156.8090  214.4200  152.6960 O   0  0  0  0  0  0  0  0  0  0  0  0
  157.3610  213.9350  151.4710 C   0  0  0  0  0  2  0  0  0  0  0  0
  156.3460  213.9620  150.3650 C   0  0  0  0  0  0  0  0  0  0  0  0
  156.7230  213.4600  149.0130 C   0  0  0  0  0  1  0  0  0  0  0  0
  155.2310  214.4210  150.5430 O   0  0  0  0  0  0  0  0  0  0  0  0
  1  7  1  1  0  0  0
  1  9  1  0  0  0  0
  2 16  1  0  0  0  0
  2 36  1  0  0  0  0
  3  5  1  0  0  0  0
  4  6  1  0  0  0  0
  4  8  1  0  0  0  0
  5 18  1  6  0  0  0
  5 10  1  0  0  0  0
  5  1  1  0  0  0  0
  6  2  1  0  0  0  0
  9  6  2  0  0  0  0
 10  3  1  6  0  0  0
 10  4  1  0  0  0  0
 11 13  1  0  0  0  0
 12 14  1  0  0  0  0
 14 13  2  0  0  0  0
 15 12  2  0  0  0  0
 15 16  1  0  0  0  0
 16 11  2  0  0  0  0
 18 17  2  0  0  0  0
 19 18  1  0  0  0  0
 20 22  2  0  0  0  0
 21 22  1  0  0  0  0
 22 30  1  0  0  0  0
 23 21  1  0  0  0  0
 24 26  1  0  0  0  0
 25 35  1  0  0  0  0
 26 34  1  0  0  0  0
 27 28  1  0  0  0  0
 29 24  1  0  0  0  0
 29 23  2  0  0  0  0
 30 31  1  0  0  0  0
 30 33  1  0  0  0  0
 31 28  1  1  0  0  0
 31 32  1  0  0  0  0
 32 35  1  0  0  0  0
 33 25  1  0  0  0  0
 34 27  1  0  0  0  0
 35 19  1  6  0  0  0
 36 37  1  0  0  0  0
 37 38  1  0  0  0  0
 39 42  2  0  0  0  0
 39 40  1  0  0  0  0
 40 41  1  0  0  0  0
 41 43  1  0  0  0  0
 41 45  1  0  0  0  0
 42 44  1  0  0  0  0
 44 38  1  0  0  0  0
 44 43  2  0  0  0  0
 46 39  1  0  0  0  0
 47 46  1  0  0  0  0
 48 50  2  0  0  0  0
 48 47  1  0  0  0  0
 49 48  1  0  0  0  0
M  END
>  <MODEL>
4

>  <REMARK>
 VINA RESULT:      -5.0      2.140      5.745
  Name = 
  10 active torsions:
  status: ('A' for Active; 'I' for Inactive)
    1  A    between atoms: C_2  and  C_7
    2  A    between atoms: C_2  and  O_42
    3  A    between atoms: C_5  and  O_42
    4  A    between atoms: C_9  and  C_44
    5  A    between atoms: C_9  and  C_50
    6  A    between atoms: N_10  and  C_26
    7  A    between atoms: N_10  and  C_38
    8  A    between atoms: C_22  and  C_30
    9  A    between atoms: C_26  and  C_50
   10  A    between atoms: C_47  and  N_49
                            x       y       z     vdW  Elec       q    Type
                         _______ _______ _______ _____ _____    ______ ____

>  <TORSDO>
F 10

$$$$
