=
 OpenBabel11052410513D

 28 32  0  0  1  0  0  0  0  0999 V2000
  161.7460  207.9770  151.5020 C   0  0  2  0  0  3  0  0  0  0  0  0
  161.4070  207.8130  150.0630 N   0  0  0  0  0  0  0  0  0  0  0  0
  161.5270  205.6250  151.6050 C   0  0  1  0  0  3  0  0  0  0  0  0
  160.9420  201.8650  150.0690 C   0  0  0  0  0  0  0  0  0  0  0  0
  161.5830  204.1460  151.4350 C   0  0  0  0  0  0  0  0  0  0  0  0
  162.2100  206.6570  152.0640 C   0  0  0  0  0  2  0  0  0  0  0  0
  160.2780  203.0560  149.6770 C   0  0  0  0  0  3  0  0  0  0  0  0
  161.8180  208.8130  149.1160 C   0  0  0  0  0  0  0  0  0  0  0  0
  160.6470  204.1740  150.3950 C   0  0  0  0  0  0  0  0  0  0  0  0
  160.7850  206.5660  149.5430 C   0  0  0  0  0  2  0  0  0  0  0  0
  161.4840  208.7120  147.9040 O   0  0  0  0  0  0  0  0  0  0  0  0
  162.2280  202.9840  151.7990 C   0  0  0  0  0  3  0  0  0  0  0  0
  160.6400  200.6490  149.3950 N   0  0  0  0  0  1  0  0  0  0  0  0
  161.8710  201.8600  151.0960 N   0  0  0  0  0  0  0  0  0  0  0  0
  160.4360  205.5880  150.6750 C   0  0  2  0  0  3  0  0  0  0  0  0
  160.6820  208.2130  153.6560 O   0  0  0  0  0  0  0  0  0  0  0  0
  160.5300  208.4870  152.2860 C   0  0  1  0  0  3  0  0  0  0  0  0
  160.7390  209.5850  153.9490 C   0  0  0  0  0  2  0  0  0  0  0  0
  160.5960  209.9740  152.5050 C   0  0  0  0  0  2  0  0  0  0  0  0
  162.6570  209.9790  149.5360 C   0  0  0  0  0  2  0  0  0  0  0  0
  161.8840  211.2090  149.4610 N   0  0  0  0  0  2  0  0  0  0  0  0
  161.0530  212.8540  147.8990 C   0  0  1  0  0  3  0  0  0  0  0  0
  162.0680  211.7520  148.1260 C   0  0  1  0  0  3  0  0  0  0  0  0
  162.4870  213.2050  148.2270 C   0  0  0  0  0  2  0  0  0  0  0  0
  160.7520  213.0400  146.1160 P   0  0  0  0  0  0  0  0  0  0  0  0
  162.2380  213.1120  145.3100 O   0  0  0  0  0  0  0  0  0  0  0  0
  159.9740  211.8460  145.6160 O   0  0  0  0  0  1  0  0  0  0  0  0
  159.8750  214.4530  145.7930 O   0  0  0  0  0  1  0  0  0  0  0  0
  1  6  1  1  0  0  0
  1 17  1  0  0  0  0
  2  1  1  0  0  0  0
  3  6  1  6  0  0  0
  4 14  1  0  0  0  0
  5  3  1  0  0  0  0
  5 12  1  0  0  0  0
  7  4  2  0  0  0  0
  7  9  1  0  0  0  0
  8 20  1  0  0  0  0
  8  2  1  0  0  0  0
  9 15  1  0  0  0  0
  9  5  2  0  0  0  0
 10  2  1  0  0  0  0
 11  8  2  0  0  0  0
 13  4  1  0  0  0  0
 14 12  2  0  0  0  0
 15 10  1  6  0  0  0
 15  3  1  0  0  0  0
 16 18  1  0  0  0  0
 17 19  1  1  0  0  0
 17 16  1  0  0  0  0
 19 18  1  0  0  0  0
 21 20  1  0  0  0  0
 22 25  1  6  0  0  0
 22 23  1  0  0  0  0
 22 24  1  0  0  0  0
 23 24  1  0  0  0  0
 23 21  1  1  0  0  0
 26 25  2  0  0  0  0
 27 25  1  0  0  0  0
 28 25  1  0  0  0  0
M  END
>  <MODEL>
1

>  <REMARK>
 VINA RESULT:      -6.4      0.000      0.000
  Name = 
  5 active torsions:
  status: ('A' for Active; 'I' for Inactive)
    1  A    between atoms: C_1  and  C_13
    2  A    between atoms: C_7  and  P_11
    3  A    between atoms: N_10  and  C_16
    4  A    between atoms: N_10  and  C_24
    5  A    between atoms: C_12  and  C_24
                            x       y       z     vdW  Elec       q    Type
                         _______ _______ _______ _____ _____    ______ ____

>  <TORSDO>
F 5

$$$$
=
 OpenBabel11052410513D

 28 32  0  0  1  0  0  0  0  0999 V2000
  161.0860  207.1940  151.7600 C   0  0  2  0  0  3  0  0  0  0  0  0
  161.7560  208.4600  151.3570 N   0  0  0  0  0  0  0  0  0  0  0  0
  160.7460  208.2800  153.8320 C   0  0  1  0  0  3  0  0  0  0  0  0
  160.8830  211.4330  156.4550 C   0  0  0  0  0  0  0  0  0  0  0  0
  160.4140  209.1870  154.9670 C   0  0  0  0  0  0  0  0  0  0  0  0
  160.2080  207.4480  152.9590 C   0  0  0  0  0  2  0  0  0  0  0  0
  161.8730  211.0750  155.5050 C   0  0  0  0  0  3  0  0  0  0  0  0
  161.8470  208.8060  149.9650 C   0  0  0  0  0  0  0  0  0  0  0  0
  161.5790  209.9390  154.7790 C   0  0  0  0  0  0  0  0  0  0  0  0
  162.2060  209.4610  152.3620 C   0  0  0  0  0  2  0  0  0  0  0  0
  162.4650  209.8470  149.6110 O   0  0  0  0  0  0  0  0  0  0  0  0
  159.4560  209.5520  155.8870 C   0  0  0  0  0  3  0  0  0  0  0  0
  161.0810  212.5890  157.2600 N   0  0  0  0  0  1  0  0  0  0  0  0
  159.7340  210.6790  156.6200 N   0  0  0  0  0  0  0  0  0  0  0  0
  162.0120  208.9530  153.7990 C   0  0  2  0  0  3  0  0  0  0  0  0
  161.6550  205.2760  153.1090 O   0  0  0  0  0  0  0  0  0  0  0  0
  162.1260  206.1140  152.0850 C   0  0  1  0  0  3  0  0  0  0  0  0
  161.6200  204.1810  152.2300 C   0  0  0  0  0  2  0  0  0  0  0  0
  162.1070  205.0030  151.0710 C   0  0  0  0  0  2  0  0  0  0  0  0
  161.2040  207.9590  148.9130 C   0  0  0  0  0  2  0  0  0  0  0  0
  162.1980  207.1140  148.2690 N   0  0  0  0  0  2  0  0  0  0  0  0
  162.2210  205.9080  146.1760 C   0  0  1  0  0  3  0  0  0  0  0  0
  161.4790  206.1300  147.4790 C   0  0  1  0  0  3  0  0  0  0  0  0
  162.3460  204.8990  147.2970 C   0  0  0  0  0  2  0  0  0  0  0  0
  161.0600  205.3040  144.9140 P   0  0  0  0  0  0  0  0  0  0  0  0
  160.9200  203.6230  145.0510 O   0  0  0  0  0  1  0  0  0  0  0  0
  159.7060  205.9340  145.1430 O   0  0  0  0  0  1  0  0  0  0  0  0
  161.6000  205.6920  143.3570 O   0  0  0  0  0  0  0  0  0  0  0  0
  1 17  1  0  0  0  0
  1  6  1  1  0  0  0
  2  1  1  0  0  0  0
  2 10  1  0  0  0  0
  3  6  1  6  0  0  0
  3  5  1  0  0  0  0
  4 14  1  0  0  0  0
  4 13  1  0  0  0  0
  5 12  1  0  0  0  0
  7  4  2  0  0  0  0
  8  2  1  0  0  0  0
  9  5  2  0  0  0  0
  9  7  1  0  0  0  0
 11  8  2  0  0  0  0
 12 14  2  0  0  0  0
 15 10  1  6  0  0  0
 15  3  1  0  0  0  0
 15  9  1  0  0  0  0
 17 19  1  6  0  0  0
 17 16  1  0  0  0  0
 18 16  1  0  0  0  0
 19 18  1  0  0  0  0
 20  8  1  0  0  0  0
 21 20  1  0  0  0  0
 22 25  1  6  0  0  0
 22 24  1  0  0  0  0
 22 23  1  0  0  0  0
 23 21  1  1  0  0  0
 24 23  1  0  0  0  0
 25 26  1  0  0  0  0
 25 27  1  0  0  0  0
 28 25  2  0  0  0  0
M  END
>  <MODEL>
2

>  <REMARK>
 VINA RESULT:      -6.0      3.622      6.850
  Name = 
  5 active torsions:
  status: ('A' for Active; 'I' for Inactive)
    1  A    between atoms: C_1  and  C_13
    2  A    between atoms: C_7  and  P_11
    3  A    between atoms: N_10  and  C_16
    4  A    between atoms: N_10  and  C_24
    5  A    between atoms: C_12  and  C_24
                            x       y       z     vdW  Elec       q    Type
                         _______ _______ _______ _____ _____    ______ ____

>  <TORSDO>
F 5

$$$$
=
 OpenBabel11052410513D

 28 32  0  0  1  0  0  0  0  0999 V2000
  160.9880  208.1550  152.1070 C   0  0  2  0  0  3  0  0  0  0  0  0
  161.1190  207.3100  153.3260 N   0  0  0  0  0  0  0  0  0  0  0  0
  161.0310  206.1040  150.9350 C   0  0  1  0  0  3  0  0  0  0  0  0
  161.1060  202.0160  150.5750 C   0  0  0  0  0  0  0  0  0  0  0  0
  160.8350  204.7310  150.3880 C   0  0  0  0  0  0  0  0  0  0  0  0
  160.4990  207.3110  150.9580 C   0  0  0  0  0  2  0  0  0  0  0  0
  161.8050  202.7980  151.5300 C   0  0  0  0  0  3  0  0  0  0  0  0
  160.6670  207.8130  154.5940 C   0  0  0  0  0  0  0  0  0  0  0  0
  161.6250  204.1580  151.3920 C   0  0  0  0  0  0  0  0  0  0  0  0
  161.5660  205.8930  153.2500 C   0  0  0  0  0  2  0  0  0  0  0  0
  160.8270  207.1280  155.6400 O   0  0  0  0  0  0  0  0  0  0  0  0
  160.1540  203.9590  149.4720 C   0  0  0  0  0  3  0  0  0  0  0  0
  161.2180  200.5990  150.6230 N   0  0  0  0  0  1  0  0  0  0  0  0
  160.3240  202.6020  149.5940 N   0  0  0  0  0  0  0  0  0  0  0  0
  161.9830  205.5020  151.8240 C   0  0  2  0  0  3  0  0  0  0  0  0
  162.3930  209.0850  150.3800 O   0  0  0  0  0  0  0  0  0  0  0  0
  162.3340  208.8010  151.7550 C   0  0  1  0  0  3  0  0  0  0  0  0
  162.4400  210.4630  150.6410 C   0  0  0  0  0  2  0  0  0  0  0  0
  162.3650  210.2580  152.1280 C   0  0  0  0  0  2  0  0  0  0  0  0
  159.9870  209.1420  154.7010 C   0  0  0  0  0  2  0  0  0  0  0  0
  160.7550  210.0340  155.5560 N   0  0  0  0  0  2  0  0  0  0  0  0
  159.1390  211.8090  155.2830 C   0  0  1  0  0  3  0  0  0  0  0  0
  160.5740  211.3810  155.0450 C   0  0  1  0  0  3  0  0  0  0  0  0
  160.2380  212.3140  156.1930 C   0  0  0  0  0  2  0  0  0  0  0  0
  158.6830  213.0900  154.0780 P   0  0  0  0  0  0  0  0  0  0  0  0
  157.0500  212.9130  153.6740 O   0  0  0  0  0  1  0  0  0  0  0  0
  158.8960  214.4520  154.6970 O   0  0  0  0  0  1  0  0  0  0  0  0
  159.6190  212.9630  152.6730 O   0  0  0  0  0  0  0  0  0  0  0  0
  1  6  1  6  0  0  0
  1  2  1  0  0  0  0
  2  8  1  0  0  0  0
  3  6  1  1  0  0  0
  3 15  1  0  0  0  0
  4 13  1  0  0  0  0
  4  7  1  0  0  0  0
  5  3  1  0  0  0  0
  5  9  1  0  0  0  0
  8 20  1  0  0  0  0
  8 11  2  0  0  0  0
  9  7  2  0  0  0  0
  9 15  1  0  0  0  0
 10  2  1  0  0  0  0
 12 14  1  0  0  0  0
 12  5  2  0  0  0  0
 14  4  2  0  0  0  0
 15 10  1  1  0  0  0
 16 18  1  0  0  0  0
 16 17  1  0  0  0  0
 17  1  1  0  0  0  0
 17 19  1  1  0  0  0
 18 19  1  0  0  0  0
 20 21  1  0  0  0  0
 22 25  1  6  0  0  0
 22 24  1  0  0  0  0
 23 22  1  0  0  0  0
 23 21  1  1  0  0  0
 23 24  1  0  0  0  0
 25 27  1  0  0  0  0
 26 25  1  0  0  0  0
 28 25  2  0  0  0  0
M  END
>  <MODEL>
3

>  <REMARK>
 VINA RESULT:      -5.9      3.324      5.185
  Name = 
  5 active torsions:
  status: ('A' for Active; 'I' for Inactive)
    1  A    between atoms: C_1  and  C_13
    2  A    between atoms: C_7  and  P_11
    3  A    between atoms: N_10  and  C_16
    4  A    between atoms: N_10  and  C_24
    5  A    between atoms: C_12  and  C_24
                            x       y       z     vdW  Elec       q    Type
                         _______ _______ _______ _____ _____    ______ ____

>  <TORSDO>
F 5

$$$$
=
 OpenBabel11052410513D

 28 32  0  0  1  0  0  0  0  0999 V2000
  162.0350  206.8820  150.9640 C   0  0  2  0  0  3  0  0  0  0  0  0
  161.6320  208.0740  150.1690 N   0  0  0  0  0  0  0  0  0  0  0  0
  161.9200  205.7290  148.9040 C   0  0  1  0  0  3  0  0  0  0  0  0
  161.4180  205.3890  144.8450 C   0  0  0  0  0  0  0  0  0  0  0  0
  162.0300  205.2260  147.5050 C   0  0  0  0  0  0  0  0  0  0  0  0
  162.5820  205.8220  150.0430 C   0  0  0  0  0  2  0  0  0  0  0  0
  160.6860  206.2270  145.7250 C   0  0  0  0  0  3  0  0  0  0  0  0
  161.9530  209.3910  150.6460 C   0  0  0  0  0  0  0  0  0  0  0  0
  161.0430  206.1080  147.0510 C   0  0  0  0  0  0  0  0  0  0  0  0
  161.0370  207.9430  148.8110 C   0  0  0  0  0  2  0  0  0  0  0  0
  161.5640  210.4070  150.0090 O   0  0  0  0  0  0  0  0  0  0  0  0
  162.7400  204.4240  146.6390 C   0  0  0  0  0  3  0  0  0  0  0  0
  161.1340  205.4300  143.4520 N   0  0  0  0  0  1  0  0  0  0  0  0
  162.3960  204.5290  145.3140 N   0  0  0  0  0  0  0  0  0  0  0  0
  160.7860  206.4740  148.4380 C   0  0  2  0  0  3  0  0  0  0  0  0
  160.8580  204.9280  151.7510 O   0  0  0  0  0  0  0  0  0  0  0  0
  160.8390  206.3330  151.7520 C   0  0  1  0  0  3  0  0  0  0  0  0
  161.0640  204.9060  153.1400 C   0  0  0  0  0  2  0  0  0  0  0  0
  161.0730  206.4050  153.2360 C   0  0  0  0  0  2  0  0  0  0  0  0
  162.7620  209.5880  151.8900 C   0  0  0  0  0  2  0  0  0  0  0  0
  162.1550  210.6090  152.7290 N   0  0  0  0  0  2  0  0  0  0  0  0
  161.0500  210.8030  154.8690 C   0  0  1  0  0  3  0  0  0  0  0  0
  161.2520  209.9330  153.6450 C   0  0  1  0  0  3  0  0  0  0  0  0
  159.9840  210.7490  153.7960 C   0  0  0  0  0  2  0  0  0  0  0  0
  160.5740  209.7610  156.2800 P   0  0  0  0  0  0  0  0  0  0  0  0
  159.4940  210.6170  157.2600 O   0  0  0  0  0  1  0  0  0  0  0  0
  159.8950  208.5110  155.7680 O   0  0  0  0  0  0  0  0  0  0  0  0
  161.9300  209.3240  157.1950 O   0  0  0  0  0  1  0  0  0  0  0  0
  1  6  1  6  0  0  0
  1 17  1  0  0  0  0
  2  8  1  0  0  0  0
  2  1  1  0  0  0  0
  3  6  1  6  0  0  0
  4 14  2  0  0  0  0
  4  7  1  0  0  0  0
  5  3  1  0  0  0  0
  7  9  2  0  0  0  0
  8 20  1  0  0  0  0
  9  5  1  0  0  0  0
  9 15  1  0  0  0  0
 10  2  1  0  0  0  0
 11  8  2  0  0  0  0
 12  5  2  0  0  0  0
 13  4  1  0  0  0  0
 14 12  1  0  0  0  0
 15 10  1  6  0  0  0
 15  3  1  0  0  0  0
 16 17  1  0  0  0  0
 16 18  1  0  0  0  0
 17 19  1  1  0  0  0
 18 19  1  0  0  0  0
 20 21  1  0  0  0  0
 22 25  1  1  0  0  0
 23 21  1  6  0  0  0
 23 24  1  0  0  0  0
 23 22  1  0  0  0  0
 24 22  1  0  0  0  0
 25 28  1  0  0  0  0
 25 26  1  0  0  0  0
 27 25  2  0  0  0  0
M  END
>  <MODEL>
4

>  <REMARK>
 VINA RESULT:      -5.7      3.858      5.996
  Name = 
  5 active torsions:
  status: ('A' for Active; 'I' for Inactive)
    1  A    between atoms: C_1  and  C_13
    2  A    between atoms: C_7  and  P_11
    3  A    between atoms: N_10  and  C_16
    4  A    between atoms: N_10  and  C_24
    5  A    between atoms: C_12  and  C_24
                            x       y       z     vdW  Elec       q    Type
                         _______ _______ _______ _____ _____    ______ ____

>  <TORSDO>
F 5

$$$$
=
 OpenBabel11052410513D

 28 32  0  0  1  0  0  0  0  0999 V2000
  162.1050  207.2000  151.1910 C   0  0  2  0  0  3  0  0  0  0  0  0
  161.6680  208.3500  150.3550 N   0  0  0  0  0  0  0  0  0  0  0  0
  162.0110  205.9680  149.1760 C   0  0  1  0  0  3  0  0  0  0  0  0
  161.4980  205.4650  145.1350 C   0  0  0  0  0  0  0  0  0  0  0  0
  162.1270  205.4160  147.7970 C   0  0  0  0  0  0  0  0  0  0  0  0
  162.6750  206.1200  150.3070 C   0  0  0  0  0  2  0  0  0  0  0  0
  160.7480  206.3160  145.9880 C   0  0  0  0  0  3  0  0  0  0  0  0
  161.9570  209.6920  150.7810 C   0  0  0  0  0  0  0  0  0  0  0  0
  161.1150  206.2550  147.3160 C   0  0  0  0  0  0  0  0  0  0  0  0
  161.0700  208.1540  149.0070 C   0  0  0  0  0  2  0  0  0  0  0  0
  161.5380  210.6730  150.1090 O   0  0  0  0  0  0  0  0  0  0  0  0
  162.8530  204.6010  146.9570 C   0  0  0  0  0  3  0  0  0  0  0  0
  161.2060  205.4460  143.7440 N   0  0  0  0  0  1  0  0  0  0  0  0
  162.5000  204.6480  145.6310 N   0  0  0  0  0  0  0  0  0  0  0  0
  160.8560  206.6660  148.6890 C   0  0  2  0  0  3  0  0  0  0  0  0
  161.0250  205.2520  152.1220 O   0  0  0  0  0  0  0  0  0  0  0  0
  160.9270  206.6490  152.0060 C   0  0  1  0  0  3  0  0  0  0  0  0
  161.2060  205.3560  153.5110 C   0  0  0  0  0  2  0  0  0  0  0  0
  161.1300  206.8560  153.4820 C   0  0  0  0  0  2  0  0  0  0  0  0
  162.7660  209.9550  152.0120 C   0  0  0  0  0  2  0  0  0  0  0  0
  161.9590  209.7370  153.2020 N   0  0  0  0  0  2  0  0  0  0  0  0
  159.8530  210.6160  153.9960 C   0  0  1  0  0  3  0  0  0  0  0  0
  161.2260  210.9650  153.4570 C   0  0  1  0  0  3  0  0  0  0  0  0
  160.9400  211.0830  154.9410 C   0  0  0  0  0  2  0  0  0  0  0  0
  158.7010  211.9770  153.6430 P   0  0  0  0  0  0  0  0  0  0  0  0
  157.1760  211.5840  154.2590 O   0  0  0  0  0  1  0  0  0  0  0  0
  159.1980  213.2360  154.3160 O   0  0  0  0  0  1  0  0  0  0  0  0
  158.5750  212.2480  151.9770 O   0  0  0  0  0  0  0  0  0  0  0  0
  1  6  1  6  0  0  0
  1 17  1  0  0  0  0
  2  8  1  0  0  0  0
  2  1  1  0  0  0  0
  3  6  1  6  0  0  0
  4 14  2  0  0  0  0
  4  7  1  0  0  0  0
  5  3  1  0  0  0  0
  7  9  2  0  0  0  0
  8 20  1  0  0  0  0
  9  5  1  0  0  0  0
  9 15  1  0  0  0  0
 10  2  1  0  0  0  0
 11  8  2  0  0  0  0
 12  5  2  0  0  0  0
 13  4  1  0  0  0  0
 14 12  1  0  0  0  0
 15 10  1  6  0  0  0
 15  3  1  0  0  0  0
 16 18  1  0  0  0  0
 17 16  1  0  0  0  0
 17 19  1  1  0  0  0
 19 18  1  0  0  0  0
 20 21  1  0  0  0  0
 22 25  1  6  0  0  0
 22 24  1  0  0  0  0
 23 21  1  1  0  0  0
 23 22  1  0  0  0  0
 23 24  1  0  0  0  0
 25 26  1  0  0  0  0
 25 27  1  0  0  0  0
 28 25  2  0  0  0  0
M  END
>  <MODEL>
5

>  <REMARK>
 VINA RESULT:      -5.7      3.648      5.097
  Name = 
  5 active torsions:
  status: ('A' for Active; 'I' for Inactive)
    1  A    between atoms: C_1  and  C_13
    2  A    between atoms: C_7  and  P_11
    3  A    between atoms: N_10  and  C_16
    4  A    between atoms: N_10  and  C_24
    5  A    between atoms: C_12  and  C_24
                            x       y       z     vdW  Elec       q    Type
                         _______ _______ _______ _____ _____    ______ ____

>  <TORSDO>
F 5

$$$$
=
 OpenBabel11052410513D

 28 32  0  0  1  0  0  0  0  0999 V2000
  160.9290  209.3610  154.1480 C   0  0  2  0  0  3  0  0  0  0  0  0
  160.4280  208.1120  154.7840 N   0  0  0  0  0  0  0  0  0  0  0  0
  161.2490  208.0100  152.2350 C   0  0  1  0  0  3  0  0  0  0  0  0
  161.0240  204.5550  150.0300 C   0  0  0  0  0  0  0  0  0  0  0  0
  161.1590  207.0800  151.0740 C   0  0  0  0  0  0  0  0  0  0  0  0
  160.8940  209.2130  152.6480 C   0  0  0  0  0  2  0  0  0  0  0  0
  161.3240  204.6640  151.4130 C   0  0  0  0  0  3  0  0  0  0  0  0
  159.5320  208.1920  155.9040 C   0  0  0  0  0  0  0  0  0  0  0  0
  161.3700  205.9590  151.8840 C   0  0  0  0  0  0  0  0  0  0  0  0
  160.7060  206.7720  154.2000 C   0  0  0  0  0  2  0  0  0  0  0  0
  159.1500  207.1410  156.4860 O   0  0  0  0  0  0  0  0  0  0  0  0
  160.8590  206.9610  149.7340 C   0  0  0  0  0  3  0  0  0  0  0  0
  160.9490  203.2660  149.4360 N   0  0  0  0  0  1  0  0  0  0  0  0
  160.8110  205.6780  149.2480 N   0  0  0  0  0  0  0  0  0  0  0  0
  161.6520  206.8610  152.9930 C   0  0  2  0  0  3  0  0  0  0  0  0
  162.5340  211.0530  154.7700 O   0  0  0  0  0  0  0  0  0  0  0  0
  162.3570  209.6670  154.6170 C   0  0  1  0  0  3  0  0  0  0  0  0
  162.7140  210.9010  156.1540 C   0  0  0  0  0  2  0  0  0  0  0  0
  162.5240  209.4130  156.0900 C   0  0  0  0  0  2  0  0  0  0  0  0
  159.0220  209.5110  156.3940 C   0  0  0  0  0  2  0  0  0  0  0  0
  157.8730  209.9320  155.6060 N   0  0  0  0  0  2  0  0  0  0  0  0
  157.8180  211.5470  153.8110 C   0  0  1  0  0  3  0  0  0  0  0  0
  158.0590  211.3380  155.2920 C   0  0  1  0  0  3  0  0  0  0  0  0
  156.7460  211.9240  154.8110 C   0  0  0  0  0  2  0  0  0  0  0  0
  158.7100  213.0310  153.2570 P   0  0  0  0  0  0  0  0  0  0  0  0
  158.9160  214.0750  154.5720 O   0  0  0  0  0  1  0  0  0  0  0  0
  160.0650  212.6260  152.7270 O   0  0  0  0  0  1  0  0  0  0  0  0
  157.8510  213.8350  152.0380 O   0  0  0  0  0  0  0  0  0  0  0  0
  1  6  1  6  0  0  0
  1 17  1  0  0  0  0
  1  2  1  0  0  0  0
  2  8  1  0  0  0  0
  3  6  1  1  0  0  0
  3 15  1  0  0  0  0
  4  7  1  0  0  0  0
  5  9  1  0  0  0  0
  5  3  1  0  0  0  0
  7  9  2  0  0  0  0
  8 20  1  0  0  0  0
  8 11  2  0  0  0  0
  9 15  1  0  0  0  0
 10  2  1  0  0  0  0
 12  5  2  0  0  0  0
 13  4  1  0  0  0  0
 14 12  1  0  0  0  0
 14  4  2  0  0  0  0
 15 10  1  1  0  0  0
 16 18  1  0  0  0  0
 17 16  1  0  0  0  0
 17 19  1  1  0  0  0
 19 18  1  0  0  0  0
 21 20  1  0  0  0  0
 22 25  1  1  0  0  0
 22 24  1  0  0  0  0
 22 23  1  0  0  0  0
 23 21  1  6  0  0  0
 24 23  1  0  0  0  0
 25 26  1  0  0  0  0
 27 25  1  0  0  0  0
 28 25  2  0  0  0  0
M  END
>  <MODEL>
6

>  <REMARK>
 VINA RESULT:      -5.4      4.004      5.652
  Name = 
  5 active torsions:
  status: ('A' for Active; 'I' for Inactive)
    1  A    between atoms: C_1  and  C_13
    2  A    between atoms: C_7  and  P_11
    3  A    between atoms: N_10  and  C_16
    4  A    between atoms: N_10  and  C_24
    5  A    between atoms: C_12  and  C_24
                            x       y       z     vdW  Elec       q    Type
                         _______ _______ _______ _____ _____    ______ ____

>  <TORSDO>
F 5

$$$$
=
 OpenBabel11052410513D

 28 32  0  0  1  0  0  0  0  0999 V2000
  160.4920  209.5150  154.2460 C   0  0  2  0  0  3  0  0  0  0  0  0
  161.1540  209.1710  152.9590 N   0  0  0  0  0  0  0  0  0  0  0  0
  159.6290  211.3720  153.0660 C   0  0  1  0  0  3  0  0  0  0  0  0
  158.9750  213.7090  149.7570 C   0  0  0  0  0  0  0  0  0  0  0  0
  158.9940  212.3330  152.1200 C   0  0  0  0  0  0  0  0  0  0  0  0
  159.3540  210.4690  153.9900 C   0  0  0  0  0  2  0  0  0  0  0  0
  160.1730  213.0300  150.0940 C   0  0  0  0  0  3  0  0  0  0  0  0
  161.5330  207.8110  152.6920 C   0  0  0  0  0  0  0  0  0  0  0  0
  160.1220  212.3470  151.2910 C   0  0  0  0  0  0  0  0  0  0  0  0
  161.3040  210.1700  151.8660 C   0  0  0  0  0  2  0  0  0  0  0  0
  162.1470  207.5210  151.6300 O   0  0  0  0  0  0  0  0  0  0  0  0
  157.8330  212.9900  151.7760 C   0  0  0  0  0  3  0  0  0  0  0  0
  158.9140  214.4470  148.5420 N   0  0  0  0  0  1  0  0  0  0  0  0
  157.8680  213.6770  150.5880 N   0  0  0  0  0  0  0  0  0  0  0  0
  160.8250  211.5650  152.2980 C   0  0  2  0  0  3  0  0  0  0  0  0
  160.8350  210.9540  156.1520 O   0  0  0  0  0  0  0  0  0  0  0  0
  161.5000  210.1410  155.2190 C   0  0  1  0  0  3  0  0  0  0  0  0
  161.2100  210.0990  157.2010 C   0  0  0  0  0  2  0  0  0  0  0  0
  161.9330  209.1630  156.2750 C   0  0  0  0  0  2  0  0  0  0  0  0
  161.1960  206.7120  153.6510 C   0  0  0  0  0  2  0  0  0  0  0  0
  161.8190  205.4670  153.2290 N   0  0  0  0  0  2  0  0  0  0  0  0
  161.8770  204.2770  151.1270 C   0  0  1  0  0  3  0  0  0  0  0  0
  160.9850  204.9030  152.1810 C   0  0  1  0  0  3  0  0  0  0  0  0
  161.1760  203.3990  152.1410 C   0  0  0  0  0  2  0  0  0  0  0  0
  160.9930  204.2310  149.5390 P   0  0  0  0  0  0  0  0  0  0  0  0
  160.0640  202.8200  149.4640 O   0  0  0  0  0  1  0  0  0  0  0  0
  160.0800  205.4310  149.4430 O   0  0  0  0  0  1  0  0  0  0  0  0
  162.0790  204.2510  148.2400 O   0  0  0  0  0  0  0  0  0  0  0  0
  1  6  1  6  0  0  0
  1 17  1  0  0  0  0
  2  1  1  0  0  0  0
  3  6  1  6  0  0  0
  4  7  2  0  0  0  0
  4 14  1  0  0  0  0
  5  3  1  0  0  0  0
  7  9  1  0  0  0  0
  8  2  1  0  0  0  0
  8 20  1  0  0  0  0
  9  5  2  0  0  0  0
  9 15  1  0  0  0  0
 10  2  1  0  0  0  0
 11  8  2  0  0  0  0
 12  5  1  0  0  0  0
 13  4  1  0  0  0  0
 14 12  2  0  0  0  0
 15 10  1  6  0  0  0
 15  3  1  0  0  0  0
 16 18  1  0  0  0  0
 17 16  1  0  0  0  0
 17 19  1  1  0  0  0
 19 18  1  0  0  0  0
 21 20  1  0  0  0  0
 22 25  1  6  0  0  0
 22 24  1  0  0  0  0
 22 23  1  0  0  0  0
 23 21  1  1  0  0  0
 24 23  1  0  0  0  0
 26 25  1  0  0  0  0
 27 25  1  0  0  0  0
 28 25  2  0  0  0  0
M  END
>  <MODEL>
7

>  <REMARK>
 VINA RESULT:      -5.3      4.167      8.040
  Name = 
  5 active torsions:
  status: ('A' for Active; 'I' for Inactive)
    1  A    between atoms: C_1  and  C_13
    2  A    between atoms: C_7  and  P_11
    3  A    between atoms: N_10  and  C_16
    4  A    between atoms: N_10  and  C_24
    5  A    between atoms: C_12  and  C_24
                            x       y       z     vdW  Elec       q    Type
                         _______ _______ _______ _____ _____    ______ ____

>  <TORSDO>
F 5

$$$$
=
 OpenBabel11052410513D

 28 32  0  0  1  0  0  0  0  0999 V2000
  161.7900  206.5320  150.7130 C   0  0  2  0  0  3  0  0  0  0  0  0
  161.0880  205.8450  151.8310 N   0  0  0  0  0  0  0  0  0  0  0  0
  161.8090  208.4050  152.1550 C   0  0  1  0  0  3  0  0  0  0  0  0
  161.1510  210.4040  155.6780 C   0  0  0  0  0  0  0  0  0  0  0  0
  161.9430  209.3910  153.2640 C   0  0  0  0  0  0  0  0  0  0  0  0
  162.5010  207.7530  151.2390 C   0  0  0  0  0  2  0  0  0  0  0  0
  160.3060  209.4340  155.0810 C   0  0  0  0  0  3  0  0  0  0  0  0
  161.1380  204.4120  151.9310 C   0  0  0  0  0  0  0  0  0  0  0  0
  160.7600  208.9530  153.8700 C   0  0  0  0  0  0  0  0  0  0  0  0
  160.4560  206.6060  152.9420 C   0  0  0  0  0  2  0  0  0  0  0  0
  160.4970  203.8180  152.8390 O   0  0  0  0  0  0  0  0  0  0  0  0
  162.7590  210.3280  153.8590 C   0  0  0  0  0  3  0  0  0  0  0  0
  160.7820  210.9690  156.9300 N   0  0  0  0  0  1  0  0  0  0  0  0
  162.3210  210.8190  155.0640 N   0  0  0  0  0  0  0  0  0  0  0  0
  160.5130  208.1220  152.7000 C   0  0  2  0  0  3  0  0  0  0  0  0
  161.3940  207.8260  148.7150 O   0  0  0  0  0  0  0  0  0  0  0  0
  160.7940  206.9300  149.6160 C   0  0  1  0  0  3  0  0  0  0  0  0
  161.2960  206.8850  147.6770 C   0  0  0  0  0  2  0  0  0  0  0  0
  160.6610  205.8570  148.5710 C   0  0  0  0  0  2  0  0  0  0  0  0
  161.9570  203.5980  150.9780 C   0  0  0  0  0  2  0  0  0  0  0  0
  161.3270  202.3070  150.7470 N   0  0  0  0  0  2  0  0  0  0  0  0
  160.9320  201.0490  148.7230 C   0  0  1  0  0  3  0  0  0  0  0  0
  160.6970  202.3640  149.4400 C   0  0  1  0  0  3  0  0  0  0  0  0
  159.5920  201.3290  149.3680 C   0  0  0  0  0  2  0  0  0  0  0  0
  160.8320  201.3130  146.9280 P   0  0  0  0  0  0  0  0  0  0  0  0
  161.5560  200.0050  146.1360 O   0  0  0  0  0  0  0  0  0  0  0  0
  159.3800  201.3990  146.5180 O   0  0  0  0  0  1  0  0  0  0  0  0
  161.6240  202.7410  146.4800 O   0  0  0  0  0  1  0  0  0  0  0  0
  1  6  1  1  0  0  0
  1  2  1  0  0  0  0
  2  8  1  0  0  0  0
  2 10  1  0  0  0  0
  3  6  1  1  0  0  0
  3 15  1  0  0  0  0
  3  5  1  0  0  0  0
  4 13  1  0  0  0  0
  5 12  2  0  0  0  0
  5  9  1  0  0  0  0
  7  4  1  0  0  0  0
  8 11  2  0  0  0  0
  9  7  2  0  0  0  0
 12 14  1  0  0  0  0
 14  4  2  0  0  0  0
 15 10  1  1  0  0  0
 15  9  1  0  0  0  0
 16 17  1  0  0  0  0
 17 19  1  6  0  0  0
 17  1  1  0  0  0  0
 18 19  1  0  0  0  0
 18 16  1  0  0  0  0
 20  8  1  0  0  0  0
 21 20  1  0  0  0  0
 22 25  1  6  0  0  0
 22 24  1  0  0  0  0
 22 23  1  0  0  0  0
 23 21  1  1  0  0  0
 24 23  1  0  0  0  0
 26 25  2  0  0  0  0
 27 25  1  0  0  0  0
 28 25  1  0  0  0  0
M  END
>  <MODEL>
8

>  <REMARK>
 VINA RESULT:      -5.3      4.073      8.152
  Name = 
  5 active torsions:
  status: ('A' for Active; 'I' for Inactive)
    1  A    between atoms: C_1  and  C_13
    2  A    between atoms: C_7  and  P_11
    3  A    between atoms: N_10  and  C_16
    4  A    between atoms: N_10  and  C_24
    5  A    between atoms: C_12  and  C_24
                            x       y       z     vdW  Elec       q    Type
                         _______ _______ _______ _____ _____    ______ ____

>  <TORSDO>
F 5

$$$$
=
 OpenBabel11052410513D

 28 32  0  0  1  0  0  0  0  0999 V2000
  161.5730  204.8730  150.6300 C   0  0  2  0  0  3  0  0  0  0  0  0
  161.1060  206.2430  150.2850 N   0  0  0  0  0  0  0  0  0  0  0  0
  161.6740  204.5460  148.2910 C   0  0  1  0  0  3  0  0  0  0  0  0
  161.4200  205.6780  144.3540 C   0  0  0  0  0  0  0  0  0  0  0  0
  161.9030  204.5960  146.8190 C   0  0  0  0  0  0  0  0  0  0  0  0
  162.2630  204.2600  149.4370 C   0  0  0  0  0  2  0  0  0  0  0  0
  160.5690  206.0870  145.4130 C   0  0  0  0  0  3  0  0  0  0  0  0
  161.2800  207.3130  151.2290 C   0  0  0  0  0  0  0  0  0  0  0  0
  160.8650  205.5150  146.6330 C   0  0  0  0  0  0  0  0  0  0  0  0
  160.5990  206.5770  148.9280 C   0  0  0  0  0  2  0  0  0  0  0  0
  160.8340  208.4640  150.9690 O   0  0  0  0  0  0  0  0  0  0  0  0
  162.7280  204.2140  145.7840 C   0  0  0  0  0  3  0  0  0  0  0  0
  161.2080  206.2050  143.0510 N   0  0  0  0  0  1  0  0  0  0  0  0
  162.4460  204.7720  144.5620 N   0  0  0  0  0  0  0  0  0  0  0  0
  160.5030  205.3330  148.0320 C   0  0  2  0  0  3  0  0  0  0  0  0
  160.4320  202.7590  150.4020 O   0  0  0  0  0  0  0  0  0  0  0  0
  160.3920  203.9960  151.0660 C   0  0  1  0  0  3  0  0  0  0  0  0
  160.6500  202.0870  151.6160 C   0  0  0  0  0  2  0  0  0  0  0  0
  160.6380  203.3630  152.4080 C   0  0  0  0  0  2  0  0  0  0  0  0
  162.0010  207.0950  152.5220 C   0  0  0  0  0  2  0  0  0  0  0  0
  161.0810  206.5970  153.5330 N   0  0  0  0  0  2  0  0  0  0  0  0
  160.5850  208.6260  154.7460 C   0  0  1  0  0  3  0  0  0  0  0  0
  161.3580  207.3220  154.7610 C   0  0  1  0  0  3  0  0  0  0  0  0
  160.0790  207.4580  155.5650 C   0  0  0  0  0  2  0  0  0  0  0  0
  161.4160  209.8340  155.8220 P   0  0  0  0  0  0  0  0  0  0  0  0
  162.3420  209.0050  156.9700 O   0  0  0  0  0  1  0  0  0  0  0  0
  162.3260  210.7020  154.9840 O   0  0  0  0  0  0  0  0  0  0  0  0
  160.2880  210.8130  156.6190 O   0  0  0  0  0  1  0  0  0  0  0  0
  1  6  1  6  0  0  0
  1 17  1  0  0  0  0
  2  1  1  0  0  0  0
  2  8  1  0  0  0  0
  3  6  1  1  0  0  0
  4 14  2  0  0  0  0
  4  7  1  0  0  0  0
  5  3  1  0  0  0  0
  7  9  2  0  0  0  0
  8 20  1  0  0  0  0
  9  5  1  0  0  0  0
  9 15  1  0  0  0  0
 10  2  1  0  0  0  0
 11  8  2  0  0  0  0
 12  5  2  0  0  0  0
 13  4  1  0  0  0  0
 14 12  1  0  0  0  0
 15  3  1  0  0  0  0
 15 10  1  1  0  0  0
 16 17  1  0  0  0  0
 16 18  1  0  0  0  0
 17 19  1  1  0  0  0
 18 19  1  0  0  0  0
 20 21  1  0  0  0  0
 22 23  1  0  0  0  0
 22 24  1  0  0  0  0
 22 25  1  1  0  0  0
 23 21  1  6  0  0  0
 23 24  1  0  0  0  0
 25 28  1  0  0  0  0
 25 26  1  0  0  0  0
 27 25  2  0  0  0  0
M  END
>  <MODEL>
9

>  <REMARK>
 VINA RESULT:      -5.1      4.325      6.719
  Name = 
  5 active torsions:
  status: ('A' for Active; 'I' for Inactive)
    1  A    between atoms: C_1  and  C_13
    2  A    between atoms: C_7  and  P_11
    3  A    between atoms: N_10  and  C_16
    4  A    between atoms: N_10  and  C_24
    5  A    between atoms: C_12  and  C_24
                            x       y       z     vdW  Elec       q    Type
                         _______ _______ _______ _____ _____    ______ ____

>  <TORSDO>
F 5

$$$$
