=
 OpenBabel11052409353D

 44 48  0  0  1  0  0  0  0  0999 V2000
  161.1440  204.3430  146.5650 C   0  0  0  0  0  3  0  0  0  0  0  0
  161.1330  204.3330  150.7000 C   0  0  0  0  0  3  0  0  0  0  0  0
  161.1620  203.0710  147.1880 C   0  0  0  0  0  0  0  0  0  0  0  0
  161.1190  206.3540  149.6590 N   0  0  0  0  0  0  0  0  0  0  0  0
  161.1120  205.7210  150.8580 C   0  0  0  0  0  0  0  0  0  0  0  0
  161.1300  205.5200  147.3320 C   0  0  0  0  0  3  0  0  0  0  0  0
  161.1440  204.1580  149.3280 C   0  0  0  0  0  0  0  0  0  0  0  0
  161.1620  202.9750  148.5910 C   0  0  0  0  0  3  0  0  0  0  0  0
  161.1350  205.3880  148.7220 C   0  0  0  0  0  0  0  0  0  0  0  0
  161.0940  206.3980  152.1680 C   0  0  0  0  0  0  0  0  0  0  0  0
  161.1860  207.9120  153.6390 C   0  0  0  0  0  0  0  0  0  0  0  0
  160.9540  205.7460  153.3420 N   0  0  0  0  0  0  0  0  0  0  0  0
  161.0070  206.7070  154.2840 C   0  0  0  0  0  2  0  0  0  0  0  0
  161.2330  207.7320  152.3070 N   0  0  0  0  0  0  0  0  0  0  0  0
  159.8920  209.6790  154.7690 C   0  0  0  0  0  2  0  0  0  0  0  0
  161.2520  209.2420  154.3170 C   0  0  2  0  0  3  0  0  0  0  0  0
  161.6790  210.3270  153.3580 C   0  0  0  0  0  2  0  0  0  0  0  0
  159.7240  211.0610  154.1580 C   0  0  2  0  0  3  0  0  0  0  0  0
  160.9760  211.4950  153.6830 O   0  0  0  0  0  0  0  0  0  0  0  0
  158.0850  211.4380  155.8590 O   0  0  0  0  0  1  0  0  0  0  0  0
  159.1340  212.0610  155.1740 C   0  0  0  0  0  0  0  0  0  0  0  0
  160.1170  212.4340  156.0970 O   0  0  0  0  0  1  0  0  0  0  0  0
  158.5810  213.3080  154.4580 C   0  0  2  0  0  3  0  0  0  0  0  0
  158.0980  214.2940  155.4150 N   0  0  0  0  0  1  0  0  0  0  0  0
  157.4510  212.9420  153.4940 C   0  0  0  0  0  2  0  0  0  0  0  0
  158.7020  213.1400  151.4710 O   0  0  0  0  0  0  0  0  0  0  0  0
  157.7060  213.5190  152.1410 C   0  0  0  0  0  0  0  0  0  0  0  0
  156.8260  214.4510  151.6060 O   0  0  0  0  0  1  0  0  0  0  0  0
  160.2010  201.5830  145.3800 C   0  0  0  0  0  1  0  0  0  0  0  0
  161.1830  201.8710  146.4120 N   0  0  0  0  0  2  0  0  0  0  0  0
  161.1500  207.7490  149.4690 N   0  0  0  0  0  2  0  0  0  0  0  0
  162.3660  208.4920  149.1730 C   0  0  0  0  0  2  0  0  0  0  0  0
  162.0500  209.6270  148.3210 N   0  0  0  0  0  2  0  0  0  0  0  0
  161.8720  210.9480  148.8330 C   0  0  0  0  0  0  0  0  0  0  0  0
  161.9160  211.1630  150.0770 O   0  0  0  0  0  0  0  0  0  0  0  0
  161.6250  212.0720  147.8770 C   0  0  1  0  0  3  0  0  0  0  0  0
  160.2410  212.0680  147.4310 N   0  0  0  0  0  0  0  0  0  0  0  0
  161.7370  213.3920  148.5720 C   0  0  0  0  0  3  0  0  0  0  0  0
  160.6150  214.0290  148.5220 N   0  0  0  0  0  0  0  0  0  0  0  0
  159.7200  213.1840  147.8140 C   0  0  0  0  0  0  0  0  0  0  0  0
  158.2920  213.5370  147.5490 C   0  0  0  0  0  2  0  0  0  0  0  0
  157.9100  213.4520  146.0730 C   0  0  0  0  0  3  0  0  0  0  0  0
  158.9620  214.0770  145.1750 C   0  0  0  0  0  1  0  0  0  0  0  0
  156.5450  214.0600  145.8040 C   0  0  0  0  0  1  0  0  0  0  0  0
  1  3  2  0  0  0  0
  1  6  1  0  0  0  0
  2  5  2  0  0  0  0
  3  8  1  0  0  0  0
  4  5  1  0  0  0  0
  5 10  1  0  0  0  0
  6  9  2  0  0  0  0
  7  2  1  0  0  0  0
  8  7  2  0  0  0  0
  9  7  1  0  0  0  0
  9  4  1  0  0  0  0
 10 14  1  0  0  0  0
 10 12  2  0  0  0  0
 11 13  1  0  0  0  0
 12 13  1  0  0  0  0
 14 11  2  0  0  0  0
 16 11  1  6  0  0  0
 16 15  1  0  0  0  0
 17 19  1  0  0  0  0
 17 16  1  0  0  0  0
 18 15  1  0  0  0  0
 18 21  1  1  0  0  0
 19 18  1  0  0  0  0
 21 20  1  0  0  0  0
 21 22  1  0  0  0  0
 23 21  1  0  0  0  0
 23 24  1  1  0  0  0
 25 23  1  0  0  0  0
 26 27  2  0  0  0  0
 27 25  1  0  0  0  0
 28 27  1  0  0  0  0
 29 30  1  0  0  0  0
 30  3  1  0  0  0  0
 31  4  1  0  0  0  0
 32 31  1  0  0  0  0
 33 34  1  0  0  0  0
 33 32  1  0  0  0  0
 34 35  2  0  0  0  0
 36 38  1  0  0  0  0
 36 34  1  1  0  0  0
 37 40  2  0  0  0  0
 37 36  1  0  0  0  0
 39 38  2  0  0  0  0
 40 39  1  0  0  0  0
 41 40  1  0  0  0  0
 42 41  1  0  0  0  0
 43 42  1  0  0  0  0
 44 42  1  0  0  0  0
M  END
>  <MODEL>
1

>  <REMARK>
 VINA RESULT:      -7.8      0.000      0.000
  Name = 
  13 active torsions:
  status: ('A' for Active; 'I' for Inactive)
    1  A    between atoms: C_6  and  C_33
    2  A    between atoms: C_7  and  C_41
    3  A    between atoms: C_8  and  C_18
    4  A    between atoms: C_8  and  C_25
    5  A    between atoms: C_9  and  C_12
    6  A    between atoms: C_13  and  N_24
    7  A    between atoms: C_14  and  C_17
    8  A    between atoms: N_15  and  C_38
    9  A    between atoms: N_16  and  N_23
   10  A    between atoms: C_18  and  C_27
   11  A    between atoms: C_19  and  C_25
   12  A    between atoms: N_23  and  C_38
   13  A    between atoms: C_41  and  C_44
                            x       y       z     vdW  Elec       q    Type
                         _______ _______ _______ _____ _____    ______ ____

>  <TORSDO>
F 13

$$$$
=
 OpenBabel11052409353D

 44 48  0  0  1  0  0  0  0  0999 V2000
  161.1680  204.1160  147.0110 C   0  0  0  0  0  3  0  0  0  0  0  0
  161.0380  204.6510  151.1090 C   0  0  0  0  0  3  0  0  0  0  0  0
  161.1450  202.9370  147.7960 C   0  0  0  0  0  0  0  0  0  0  0  0
  161.0910  206.5170  149.8110 N   0  0  0  0  0  0  0  0  0  0  0  0
  161.0390  206.0480  151.0830 C   0  0  0  0  0  0  0  0  0  0  0  0
  161.1540  205.3830  147.6160 C   0  0  0  0  0  3  0  0  0  0  0  0
  161.0850  204.2960  149.7730 C   0  0  0  0  0  0  0  0  0  0  0  0
  161.1030  203.0260  149.1990 C   0  0  0  0  0  3  0  0  0  0  0  0
  161.1160  205.4360  149.0110 C   0  0  0  0  0  0  0  0  0  0  0  0
  160.9950  206.8920  152.2910 C   0  0  0  0  0  0  0  0  0  0  0  0
  160.9840  208.5930  153.5440 C   0  0  0  0  0  0  0  0  0  0  0  0
  160.9580  206.3950  153.5460 N   0  0  0  0  0  0  0  0  0  0  0  0
  160.9460  207.4760  154.3490 C   0  0  0  0  0  2  0  0  0  0  0  0
  161.0050  208.2390  152.2460 N   0  0  0  0  0  0  0  0  0  0  0  0
  160.0690  210.1180  155.2510 C   0  0  0  0  0  2  0  0  0  0  0  0
  160.9390  210.0040  154.0360 C   0  0  2  0  0  3  0  0  0  0  0  0
  160.2780  210.9160  153.0320 C   0  0  0  0  0  2  0  0  0  0  0  0
  159.0760  211.2140  154.8940 C   0  0  2  0  0  3  0  0  0  0  0  0
  159.5330  211.8720  153.7370 O   0  0  0  0  0  0  0  0  0  0  0  0
  158.8530  211.4840  157.2600 O   0  0  0  0  0  1  0  0  0  0  0  0
  158.8840  212.2040  156.0620 C   0  0  0  0  0  0  0  0  0  0  0  0
  159.9560  213.1020  156.1020 O   0  0  0  0  0  1  0  0  0  0  0  0
  157.5570  212.9720  155.9150 C   0  0  2  0  0  3  0  0  0  0  0  0
  157.7770  214.3080  155.3790 N   0  0  0  0  0  1  0  0  0  0  0  0
  156.8230  213.0770  157.2530 C   0  0  0  0  0  2  0  0  0  0  0  0
  154.4810  213.5100  157.0840 O   0  0  0  0  0  1  0  0  0  0  0  0
  155.4000  212.6500  157.1080 C   0  0  0  0  0  0  0  0  0  0  0  0
  155.0900  211.3030  156.9680 O   0  0  0  0  0  0  0  0  0  0  0  0
  161.3880  200.4210  147.9380 C   0  0  0  0  0  1  0  0  0  0  0  0
  161.1650  201.6440  147.1850 N   0  0  0  0  0  2  0  0  0  0  0  0
  161.1530  207.8740  149.4410 N   0  0  0  0  0  2  0  0  0  0  0  0
  162.3550  208.5100  148.9220 C   0  0  0  0  0  2  0  0  0  0  0  0
  162.0100  209.7860  148.3170 N   0  0  0  0  0  2  0  0  0  0  0  0
  162.0160  211.0120  149.0490 C   0  0  0  0  0  0  0  0  0  0  0  0
  162.2610  211.0170  150.2870 O   0  0  0  0  0  0  0  0  0  0  0  0
  161.7240  212.2910  148.3280 C   0  0  1  0  0  3  0  0  0  0  0  0
  160.9370  212.0340  147.1310 N   0  0  0  0  0  0  0  0  0  0  0  0
  160.8080  213.1560  149.1360 C   0  0  0  0  0  3  0  0  0  0  0  0
  159.7010  213.3600  148.5050 N   0  0  0  0  0  0  0  0  0  0  0  0
  159.8160  212.6550  147.2780 C   0  0  0  0  0  0  0  0  0  0  0  0
  158.7330  212.6100  146.2500 C   0  0  0  0  0  2  0  0  0  0  0  0
  158.2390  213.9940  145.8300 C   0  0  0  0  0  3  0  0  0  0  0  0
  156.7650  214.1890  146.1350 C   0  0  0  0  0  1  0  0  0  0  0  0
  158.5260  214.2770  144.3660 C   0  0  0  0  0  1  0  0  0  0  0  0
  1  6  2  0  0  0  0
  1  3  1  0  0  0  0
  3  8  2  0  0  0  0
  4  5  1  0  0  0  0
  5  2  2  0  0  0  0
  5 10  1  0  0  0  0
  6  9  1  0  0  0  0
  7  2  1  0  0  0  0
  8  7  1  0  0  0  0
  9  7  2  0  0  0  0
  9  4  1  0  0  0  0
 10 12  2  0  0  0  0
 11 13  1  0  0  0  0
 12 13  1  0  0  0  0
 14 10  1  0  0  0  0
 14 11  2  0  0  0  0
 16 11  1  6  0  0  0
 16 15  1  0  0  0  0
 17 19  1  0  0  0  0
 17 16  1  0  0  0  0
 18 15  1  0  0  0  0
 18 21  1  1  0  0  0
 19 18  1  0  0  0  0
 21 22  1  0  0  0  0
 21 20  1  0  0  0  0
 23 24  1  1  0  0  0
 23 21  1  0  0  0  0
 23 25  1  0  0  0  0
 26 27  1  0  0  0  0
 27 25  1  0  0  0  0
 28 27  2  0  0  0  0
 30  3  1  0  0  0  0
 30 29  1  0  0  0  0
 31  4  1  0  0  0  0
 32 31  1  0  0  0  0
 33 32  1  0  0  0  0
 33 34  1  0  0  0  0
 34 35  2  0  0  0  0
 36 34  1  1  0  0  0
 36 38  1  0  0  0  0
 37 40  2  0  0  0  0
 37 36  1  0  0  0  0
 39 38  2  0  0  0  0
 40 39  1  0  0  0  0
 41 40  1  0  0  0  0
 42 43  1  0  0  0  0
 42 41  1  0  0  0  0
 44 42  1  0  0  0  0
M  END
>  <MODEL>
2

>  <REMARK>
 VINA RESULT:      -7.6      1.423      2.044
  Name = 
  13 active torsions:
  status: ('A' for Active; 'I' for Inactive)
    1  A    between atoms: C_6  and  C_33
    2  A    between atoms: C_7  and  C_41
    3  A    between atoms: C_8  and  C_18
    4  A    between atoms: C_8  and  C_25
    5  A    between atoms: C_9  and  C_12
    6  A    between atoms: C_13  and  N_24
    7  A    between atoms: C_14  and  C_17
    8  A    between atoms: N_15  and  C_38
    9  A    between atoms: N_16  and  N_23
   10  A    between atoms: C_18  and  C_27
   11  A    between atoms: C_19  and  C_25
   12  A    between atoms: N_23  and  C_38
   13  A    between atoms: C_41  and  C_44
                            x       y       z     vdW  Elec       q    Type
                         _______ _______ _______ _____ _____    ______ ____

>  <TORSDO>
F 13

$$$$
=
 OpenBabel11052409353D

 44 48  0  0  1  0  0  0  0  0999 V2000
  161.5420  205.6450  146.5850 C   0  0  0  0  0  3  0  0  0  0  0  0
  161.0970  205.1810  150.6700 C   0  0  0  0  0  3  0  0  0  0  0  0
  161.3750  204.3170  147.0500 C   0  0  0  0  0  0  0  0  0  0  0  0
  161.3840  207.2940  149.8820 N   0  0  0  0  0  0  0  0  0  0  0  0
  161.1920  206.5370  150.9910 C   0  0  0  0  0  0  0  0  0  0  0  0
  161.5600  206.7250  147.4840 C   0  0  0  0  0  3  0  0  0  0  0  0
  161.2360  205.1570  149.2940 C   0  0  0  0  0  0  0  0  0  0  0  0
  161.2190  204.0680  148.4260 C   0  0  0  0  0  3  0  0  0  0  0  0
  161.4060  206.4410  148.8420 C   0  0  0  0  0  0  0  0  0  0  0  0
  161.1000  207.0640  152.3650 C   0  0  0  0  0  0  0  0  0  0  0  0
  161.0350  208.4120  153.9900 C   0  0  0  0  0  0  0  0  0  0  0  0
  161.0220  206.2790  153.4610 N   0  0  0  0  0  0  0  0  0  0  0  0
  160.9750  207.1340  154.5000 C   0  0  0  0  0  2  0  0  0  0  0  0
  161.1040  208.3820  152.6470 N   0  0  0  0  0  0  0  0  0  0  0  0
  159.5790  209.8760  155.3380 C   0  0  0  0  0  2  0  0  0  0  0  0
  160.9640  209.6630  154.8070 C   0  0  2  0  0  3  0  0  0  0  0  0
  161.2190  210.8860  153.9610 C   0  0  0  0  0  2  0  0  0  0  0  0
  159.2210  211.2830  154.8840 C   0  0  2  0  0  3  0  0  0  0  0  0
  160.3920  211.9170  154.4290 O   0  0  0  0  0  0  0  0  0  0  0  0
  158.4890  211.2860  157.1620 O   0  0  0  0  0  1  0  0  0  0  0  0
  158.5530  212.0890  156.0180 C   0  0  0  0  0  0  0  0  0  0  0  0
  159.3190  213.2240  156.3060 O   0  0  0  0  0  1  0  0  0  0  0  0
  157.1220  212.5030  155.6260 C   0  0  2  0  0  3  0  0  0  0  0  0
  157.0090  213.9490  155.4920 N   0  0  0  0  0  1  0  0  0  0  0  0
  156.0980  212.0070  156.6470 C   0  0  0  0  0  2  0  0  0  0  0  0
  154.4650  210.2730  156.8110 O   0  0  0  0  0  1  0  0  0  0  0  0
  155.2960  210.8800  156.0850 C   0  0  0  0  0  0  0  0  0  0  0  0
  155.4410  210.5220  154.7510 O   0  0  0  0  0  0  0  0  0  0  0  0
  160.9120  201.8850  146.5200 C   0  0  0  0  0  1  0  0  0  0  0  0
  161.3630  203.2140  146.1410 N   0  0  0  0  0  2  0  0  0  0  0  0
  161.5660  208.6910  149.8650 N   0  0  0  0  0  2  0  0  0  0  0  0
  162.2180  209.4010  148.7740 C   0  0  0  0  0  2  0  0  0  0  0  0
  161.5080  210.6410  148.5060 N   0  0  0  0  0  2  0  0  0  0  0  0
  162.1730  211.8360  148.0960 C   0  0  0  0  0  0  0  0  0  0  0  0
  163.4330  211.8730  148.0190 O   0  0  0  0  0  0  0  0  0  0  0  0
  161.3570  213.0460  147.7660 C   0  0  1  0  0  3  0  0  0  0  0  0
  161.8760  213.7020  146.5750 N   0  0  0  0  0  0  0  0  0  0  0  0
  159.9770  212.6540  147.3410 C   0  0  0  0  0  3  0  0  0  0  0  0
  159.7510  213.0280  146.1270 N   0  0  0  0  0  0  0  0  0  0  0  0
  160.9400  213.6680  145.6890 C   0  0  0  0  0  0  0  0  0  0  0  0
  161.1110  214.2360  144.3170 C   0  0  0  0  0  2  0  0  0  0  0  0
  161.0130  213.1880  143.2100 C   0  0  0  0  0  3  0  0  0  0  0  0
  162.3530  212.5340  142.9250 C   0  0  0  0  0  1  0  0  0  0  0  0
  160.4140  213.7610  141.9390 C   0  0  0  0  0  1  0  0  0  0  0  0
  1  3  2  0  0  0  0
  1  6  1  0  0  0  0
  2  5  2  0  0  0  0
  3  8  1  0  0  0  0
  4  5  1  0  0  0  0
  5 10  1  0  0  0  0
  6  9  2  0  0  0  0
  7  2  1  0  0  0  0
  8  7  2  0  0  0  0
  9  7  1  0  0  0  0
  9  4  1  0  0  0  0
 10 14  1  0  0  0  0
 10 12  2  0  0  0  0
 11 13  1  0  0  0  0
 12 13  1  0  0  0  0
 14 11  2  0  0  0  0
 16 11  1  6  0  0  0
 16 15  1  0  0  0  0
 17 19  1  0  0  0  0
 17 16  1  0  0  0  0
 18 15  1  0  0  0  0
 18 21  1  1  0  0  0
 19 18  1  0  0  0  0
 21 22  1  0  0  0  0
 21 20  1  0  0  0  0
 23 24  1  1  0  0  0
 23 21  1  0  0  0  0
 23 25  1  0  0  0  0
 27 25  1  0  0  0  0
 27 26  1  0  0  0  0
 28 27  2  0  0  0  0
 30 29  1  0  0  0  0
 30  3  1  0  0  0  0
 31  4  1  0  0  0  0
 32 31  1  0  0  0  0
 33 32  1  0  0  0  0
 34 33  1  0  0  0  0
 35 34  2  0  0  0  0
 36 34  1  6  0  0  0
 37 36  1  0  0  0  0
 38 36  1  0  0  0  0
 39 38  2  0  0  0  0
 40 39  1  0  0  0  0
 40 37  2  0  0  0  0
 41 40  1  0  0  0  0
 42 41  1  0  0  0  0
 43 42  1  0  0  0  0
 44 42  1  0  0  0  0
M  END
>  <MODEL>
3

>  <REMARK>
 VINA RESULT:      -7.4      1.835      2.509
  Name = 
  13 active torsions:
  status: ('A' for Active; 'I' for Inactive)
    1  A    between atoms: C_6  and  C_33
    2  A    between atoms: C_7  and  C_41
    3  A    between atoms: C_8  and  C_18
    4  A    between atoms: C_8  and  C_25
    5  A    between atoms: C_9  and  C_12
    6  A    between atoms: C_13  and  N_24
    7  A    between atoms: C_14  and  C_17
    8  A    between atoms: N_15  and  C_38
    9  A    between atoms: N_16  and  N_23
   10  A    between atoms: C_18  and  C_27
   11  A    between atoms: C_19  and  C_25
   12  A    between atoms: N_23  and  C_38
   13  A    between atoms: C_41  and  C_44
                            x       y       z     vdW  Elec       q    Type
                         _______ _______ _______ _____ _____    ______ ____

>  <TORSDO>
F 13

$$$$
=
 OpenBabel11052409353D

 44 48  0  0  1  0  0  0  0  0999 V2000
  160.7620  210.7250  153.7870 C   0  0  0  0  0  3  0  0  0  0  0  0
  160.9100  206.5970  153.9760 C   0  0  0  0  0  3  0  0  0  0  0  0
  160.7050  210.1550  155.0820 C   0  0  0  0  0  0  0  0  0  0  0  0
  160.9830  207.5530  151.9140 N   0  0  0  0  0  0  0  0  0  0  0  0
  161.0000  206.3820  152.5980 C   0  0  0  0  0  0  0  0  0  0  0  0
  160.8560  209.9100  152.6460 C   0  0  0  0  0  3  0  0  0  0  0  0
  160.8450  207.9740  154.0910 C   0  0  0  0  0  0  0  0  0  0  0  0
  160.7470  208.7570  155.2390 C   0  0  0  0  0  3  0  0  0  0  0  0
  160.8910  208.5280  152.8370 C   0  0  0  0  0  0  0  0  0  0  0  0
  161.0940  205.0460  151.9800 C   0  0  0  0  0  0  0  0  0  0  0  0
  161.3950  203.5210  150.5490 C   0  0  0  0  0  0  0  0  0  0  0  0
  160.7900  203.9020  152.6280 N   0  0  0  0  0  0  0  0  0  0  0  0
  160.9850  202.9250  151.7220 C   0  0  0  0  0  2  0  0  0  0  0  0
  161.4770  204.8550  150.7010 N   0  0  0  0  0  0  0  0  0  0  0  0
  161.2660  203.5130  148.0880 C   0  0  0  0  0  2  0  0  0  0  0  0
  161.7640  202.7870  149.3000 C   0  0  2  0  0  3  0  0  0  0  0  0
  161.0730  201.4470  149.2270 C   0  0  0  0  0  2  0  0  0  0  0  0
  160.4610  202.4670  147.3330 C   0  0  2  0  0  3  0  0  0  0  0  0
  160.7390  201.2030  147.8870 O   0  0  0  0  0  0  0  0  0  0  0  0
  162.1520  202.6440  145.6510 O   0  0  0  0  0  1  0  0  0  0  0  0
  160.7710  202.4960  145.8220 C   0  0  0  0  0  0  0  0  0  0  0  0
  160.3710  201.2910  145.2340 O   0  0  0  0  0  1  0  0  0  0  0  0
  160.0610  203.6790  145.1390 C   0  0  2  0  0  3  0  0  0  0  0  0
  159.1590  203.2200  144.0920 N   0  0  0  0  0  1  0  0  0  0  0  0
  161.0670  204.6660  144.5450 C   0  0  0  0  0  2  0  0  0  0  0  0
  160.1820  206.6520  145.5300 O   0  0  0  0  0  0  0  0  0  0  0  0
  161.1730  205.8880  145.3970 C   0  0  0  0  0  0  0  0  0  0  0  0
  162.3570  206.1650  146.0680 O   0  0  0  0  0  1  0  0  0  0  0  0
  160.4040  212.4170  156.1790 C   0  0  0  0  0  1  0  0  0  0  0  0
  160.6030  210.9790  156.2470 N   0  0  0  0  0  2  0  0  0  0  0  0
  161.0110  207.6840  150.5120 N   0  0  0  0  0  2  0  0  0  0  0  0
  162.2220  207.9740  149.7580 C   0  0  0  0  0  2  0  0  0  0  0  0
  161.9530  209.0220  148.7870 N   0  0  0  0  0  2  0  0  0  0  0  0
  162.1200  210.4090  149.0860 C   0  0  0  0  0  0  0  0  0  0  0  0
  162.4470  210.7780  150.2480 O   0  0  0  0  0  0  0  0  0  0  0  0
  161.8950  211.4180  148.0040 C   0  0  1  0  0  3  0  0  0  0  0  0
  160.5190  211.8900  148.0240 N   0  0  0  0  0  0  0  0  0  0  0  0
  162.6690  212.6690  148.2790 C   0  0  0  0  0  3  0  0  0  0  0  0
  161.8720  213.6740  148.4210 N   0  0  0  0  0  0  0  0  0  0  0  0
  160.5600  213.1570  148.2590 C   0  0  0  0  0  0  0  0  0  0  0  0
  159.3270  213.9940  148.3690 C   0  0  0  0  0  2  0  0  0  0  0  0
  158.4270  213.5960  149.5380 C   0  0  0  0  0  3  0  0  0  0  0  0
  156.9580  213.8060  149.2230 C   0  0  0  0  0  1  0  0  0  0  0  0
  158.8100  214.3170  150.8180 C   0  0  0  0  0  1  0  0  0  0  0  0
  1  3  1  0  0  0  0
  2  7  1  0  0  0  0
  3  8  2  0  0  0  0
  3 30  1  0  0  0  0
  4  5  1  0  0  0  0
  4  9  1  0  0  0  0
  5  2  2  0  0  0  0
  6  9  1  0  0  0  0
  6  1  2  0  0  0  0
  7  8  1  0  0  0  0
  9  7  2  0  0  0  0
 10  5  1  0  0  0  0
 10 12  2  0  0  0  0
 11 14  2  0  0  0  0
 11 13  1  0  0  0  0
 13 12  1  0  0  0  0
 14 10  1  0  0  0  0
 15 16  1  0  0  0  0
 16 11  1  1  0  0  0
 17 16  1  0  0  0  0
 18 21  1  6  0  0  0
 18 19  1  0  0  0  0
 18 15  1  0  0  0  0
 19 17  1  0  0  0  0
 20 21  1  0  0  0  0
 22 21  1  0  0  0  0
 23 24  1  6  0  0  0
 23 21  1  0  0  0  0
 25 23  1  0  0  0  0
 25 27  1  0  0  0  0
 27 26  2  0  0  0  0
 27 28  1  0  0  0  0
 29 30  1  0  0  0  0
 31  4  1  0  0  0  0
 32 31  1  0  0  0  0
 33 34  1  0  0  0  0
 33 32  1  0  0  0  0
 34 35  2  0  0  0  0
 36 37  1  0  0  0  0
 36 38  1  0  0  0  0
 36 34  1  1  0  0  0
 37 40  2  0  0  0  0
 38 39  2  0  0  0  0
 40 41  1  0  0  0  0
 40 39  1  0  0  0  0
 41 42  1  0  0  0  0
 42 44  1  0  0  0  0
 43 42  1  0  0  0  0
M  END
>  <MODEL>
4

>  <REMARK>
 VINA RESULT:      -7.0      3.363      8.293
  Name = 
  13 active torsions:
  status: ('A' for Active; 'I' for Inactive)
    1  A    between atoms: C_6  and  C_33
    2  A    between atoms: C_7  and  C_41
    3  A    between atoms: C_8  and  C_18
    4  A    between atoms: C_8  and  C_25
    5  A    between atoms: C_9  and  C_12
    6  A    between atoms: C_13  and  N_24
    7  A    between atoms: C_14  and  C_17
    8  A    between atoms: N_15  and  C_38
    9  A    between atoms: N_16  and  N_23
   10  A    between atoms: C_18  and  C_27
   11  A    between atoms: C_19  and  C_25
   12  A    between atoms: N_23  and  C_38
   13  A    between atoms: C_41  and  C_44
                            x       y       z     vdW  Elec       q    Type
                         _______ _______ _______ _____ _____    ______ ____

>  <TORSDO>
F 13

$$$$
=
 OpenBabel11052409353D

 44 48  0  0  1  0  0  0  0  0999 V2000
  161.2050  210.5370  154.3160 C   0  0  0  0  0  3  0  0  0  0  0  0
  161.1550  206.4040  154.2130 C   0  0  0  0  0  3  0  0  0  0  0  0
  161.2450  209.8790  155.5690 C   0  0  0  0  0  0  0  0  0  0  0  0
  161.0760  207.5000  152.2230 N   0  0  0  0  0  0  0  0  0  0  0  0
  161.0980  206.2840  152.8220 C   0  0  0  0  0  0  0  0  0  0  0  0
  161.1440  209.8030  153.1200 C   0  0  0  0  0  3  0  0  0  0  0  0
  161.1730  207.7700  154.4260 C   0  0  0  0  0  0  0  0  0  0  0  0
  161.2290  208.4740  155.6270 C   0  0  0  0  0  3  0  0  0  0  0  0
  161.1260  208.4100  153.2130 C   0  0  0  0  0  0  0  0  0  0  0  0
  161.0610  204.9930  152.1100 C   0  0  0  0  0  0  0  0  0  0  0  0
  161.3090  203.5310  150.6060 C   0  0  0  0  0  0  0  0  0  0  0  0
  160.4910  203.8790  152.6150 N   0  0  0  0  0  0  0  0  0  0  0  0
  160.6500  202.9410  151.6620 C   0  0  0  0  0  2  0  0  0  0  0  0
  161.5820  204.8200  150.8790 N   0  0  0  0  0  0  0  0  0  0  0  0
  161.2250  203.5470  148.1420 C   0  0  0  0  0  2  0  0  0  0  0  0
  161.7250  202.8240  149.3560 C   0  0  2  0  0  3  0  0  0  0  0  0
  161.0820  201.4620  149.2560 C   0  0  0  0  0  2  0  0  0  0  0  0
  160.4690  202.4820  147.3620 C   0  0  2  0  0  3  0  0  0  0  0  0
  160.7810  201.2220  147.9080 O   0  0  0  0  0  0  0  0  0  0  0  0
  162.1730  202.7950  145.7120 O   0  0  0  0  0  1  0  0  0  0  0  0
  160.8060  202.5380  145.8570 C   0  0  0  0  0  0  0  0  0  0  0  0
  160.5130  201.3070  145.2600 O   0  0  0  0  0  1  0  0  0  0  0  0
  160.0170  203.6640  145.1620 C   0  0  2  0  0  3  0  0  0  0  0  0
  159.1430  203.1320  144.1240 N   0  0  0  0  0  1  0  0  0  0  0  0
  160.9540  204.7050  144.5490 C   0  0  0  0  0  2  0  0  0  0  0  0
  160.0820  206.5810  145.7400 O   0  0  0  0  0  0  0  0  0  0  0  0
  161.0910  205.8870  145.4520 C   0  0  0  0  0  0  0  0  0  0  0  0
  162.3280  206.2020  146.0000 O   0  0  0  0  0  1  0  0  0  0  0  0
  162.4620  211.4000  157.1870 C   0  0  0  0  0  1  0  0  0  0  0  0
  161.3000  210.6220  156.7900 N   0  0  0  0  0  2  0  0  0  0  0  0
  160.9740  207.7290  150.8380 N   0  0  0  0  0  2  0  0  0  0  0  0
  162.1190  208.0080  149.9830 C   0  0  0  0  0  2  0  0  0  0  0  0
  162.3800  209.4380  149.9670 N   0  0  0  0  0  2  0  0  0  0  0  0
  161.9540  210.2860  148.9000 C   0  0  0  0  0  0  0  0  0  0  0  0
  161.3860  209.7990  147.8830 O   0  0  0  0  0  0  0  0  0  0  0  0
  162.1970  211.7590  149.0010 C   0  0  1  0  0  3  0  0  0  0  0  0
  162.7660  212.2690  147.7630 N   0  0  0  0  0  0  0  0  0  0  0  0
  160.9020  212.5040  149.0910 C   0  0  0  0  0  3  0  0  0  0  0  0
  160.7650  213.3010  148.0850 N   0  0  0  0  0  0  0  0  0  0  0  0
  161.9290  213.1290  147.2900 C   0  0  0  0  0  0  0  0  0  0  0  0
  162.1640  213.8580  146.0070 C   0  0  0  0  0  2  0  0  0  0  0  0
  162.0900  212.9570  144.7760 C   0  0  0  0  0  3  0  0  0  0  0  0
  163.0830  213.3740  143.7050 C   0  0  0  0  0  1  0  0  0  0  0  0
  160.6850  212.8880  144.2070 C   0  0  0  0  0  1  0  0  0  0  0  0
  1  3  1  0  0  0  0
  2  7  1  0  0  0  0
  3  8  2  0  0  0  0
  3 30  1  0  0  0  0
  4  5  1  0  0  0  0
  4  9  1  0  0  0  0
  5  2  2  0  0  0  0
  6  9  1  0  0  0  0
  6  1  2  0  0  0  0
  7  8  1  0  0  0  0
  9  7  2  0  0  0  0
 10 12  2  0  0  0  0
 10  5  1  0  0  0  0
 11 14  2  0  0  0  0
 11 13  1  0  0  0  0
 13 12  1  0  0  0  0
 14 10  1  0  0  0  0
 15 16  1  0  0  0  0
 16 11  1  1  0  0  0
 17 16  1  0  0  0  0
 18 21  1  6  0  0  0
 18 19  1  0  0  0  0
 18 15  1  0  0  0  0
 19 17  1  0  0  0  0
 20 21  1  0  0  0  0
 22 21  1  0  0  0  0
 23 24  1  6  0  0  0
 23 21  1  0  0  0  0
 25 23  1  0  0  0  0
 25 27  1  0  0  0  0
 27 26  2  0  0  0  0
 27 28  1  0  0  0  0
 30 29  1  0  0  0  0
 31  4  1  0  0  0  0
 32 31  1  0  0  0  0
 33 32  1  0  0  0  0
 34 33  1  0  0  0  0
 35 34  2  0  0  0  0
 36 34  1  6  0  0  0
 36 38  1  0  0  0  0
 37 36  1  0  0  0  0
 39 38  2  0  0  0  0
 40 37  2  0  0  0  0
 40 39  1  0  0  0  0
 41 40  1  0  0  0  0
 42 41  1  0  0  0  0
 43 42  1  0  0  0  0
 44 42  1  0  0  0  0
M  END
>  <MODEL>
5

>  <REMARK>
 VINA RESULT:      -6.7      3.564      8.365
  Name = 
  13 active torsions:
  status: ('A' for Active; 'I' for Inactive)
    1  A    between atoms: C_6  and  C_33
    2  A    between atoms: C_7  and  C_41
    3  A    between atoms: C_8  and  C_18
    4  A    between atoms: C_8  and  C_25
    5  A    between atoms: C_9  and  C_12
    6  A    between atoms: C_13  and  N_24
    7  A    between atoms: C_14  and  C_17
    8  A    between atoms: N_15  and  C_38
    9  A    between atoms: N_16  and  N_23
   10  A    between atoms: C_18  and  C_27
   11  A    between atoms: C_19  and  C_25
   12  A    between atoms: N_23  and  C_38
   13  A    between atoms: C_41  and  C_44
                            x       y       z     vdW  Elec       q    Type
                         _______ _______ _______ _____ _____    ______ ____

>  <TORSDO>
F 13

$$$$
=
 OpenBabel11052409353D

 44 48  0  0  1  0  0  0  0  0999 V2000
  161.1890  202.5460  145.6270 C   0  0  0  0  0  3  0  0  0  0  0  0
  160.8170  202.5110  149.7450 C   0  0  0  0  0  3  0  0  0  0  0  0
  160.8160  201.3110  146.2120 C   0  0  0  0  0  0  0  0  0  0  0  0
  161.4290  204.4700  148.7660 N   0  0  0  0  0  0  0  0  0  0  0  0
  161.1520  203.8540  149.9420 C   0  0  0  0  0  0  0  0  0  0  0  0
  161.4210  203.6780  146.4250 C   0  0  0  0  0  3  0  0  0  0  0  0
  160.9010  202.3480  148.3740 C   0  0  0  0  0  0  0  0  0  0  0  0
  160.6690  201.2090  147.6070 C   0  0  0  0  0  3  0  0  0  0  0  0
  161.2700  203.5410  147.8060 C   0  0  0  0  0  0  0  0  0  0  0  0
  161.2000  204.5020  151.2650 C   0  0  0  0  0  0  0  0  0  0  0  0
  161.5320  205.9400  152.7770 C   0  0  0  0  0  0  0  0  0  0  0  0
  160.8430  203.8850  152.4110 N   0  0  0  0  0  0  0  0  0  0  0  0
  161.0480  204.7990  153.3790 C   0  0  0  0  0  2  0  0  0  0  0  0
  161.6230  205.7690  151.4460 N   0  0  0  0  0  0  0  0  0  0  0  0
  161.2850  207.2020  154.8800 C   0  0  0  0  0  2  0  0  0  0  0  0
  161.8490  207.2140  153.4920 C   0  0  2  0  0  3  0  0  0  0  0  0
  161.1720  208.3940  152.8380 C   0  0  0  0  0  2  0  0  0  0  0  0
  160.4570  208.4760  154.9550 C   0  0  2  0  0  3  0  0  0  0  0  0
  160.7770  209.2830  153.8470 O   0  0  0  0  0  0  0  0  0  0  0  0
  159.8120  208.7260  157.2450 O   0  0  0  0  0  1  0  0  0  0  0  0
  160.6940  209.2270  156.2820 C   0  0  0  0  0  0  0  0  0  0  0  0
  162.0060  209.0140  156.7180 O   0  0  0  0  0  1  0  0  0  0  0  0
  160.4310  210.7350  156.1120 C   0  0  2  0  0  3  0  0  0  0  0  0
  161.4130  211.5270  156.8400 N   0  0  0  0  0  1  0  0  0  0  0  0
  159.0260  211.1130  156.5820 C   0  0  0  0  0  2  0  0  0  0  0  0
  156.9620  210.7040  155.4550 O   0  0  0  0  0  1  0  0  0  0  0  0
  158.0980  211.2450  155.4200 C   0  0  0  0  0  0  0  0  0  0  0  0
  158.4760  211.9910  154.3110 O   0  0  0  0  0  0  0  0  0  0  0  0
  161.2370  198.8780  145.6520 C   0  0  0  0  0  1  0  0  0  0  0  0
  160.5850  200.1530  145.4050 N   0  0  0  0  0  2  0  0  0  0  0  0
  161.8450  205.8080  148.6200 N   0  0  0  0  0  2  0  0  0  0  0  0
  161.2090  206.7510  147.7120 C   0  0  0  0  0  2  0  0  0  0  0  0
  161.7960  208.0690  147.8870 N   0  0  0  0  0  2  0  0  0  0  0  0
  161.6490  208.8240  149.0900 C   0  0  0  0  0  0  0  0  0  0  0  0
  160.9320  208.3900  150.0340 O   0  0  0  0  0  0  0  0  0  0  0  0
  162.3510  210.1390  149.2140 C   0  0  1  0  0  3  0  0  0  0  0  0
  162.0560  210.9860  148.0680 N   0  0  0  0  0  0  0  0  0  0  0  0
  161.7920  210.9330  150.3530 C   0  0  0  0  0  3  0  0  0  0  0  0
  161.2780  212.0380  149.9280 N   0  0  0  0  0  0  0  0  0  0  0  0
  161.4580  212.0350  148.5200 C   0  0  0  0  0  0  0  0  0  0  0  0
  160.9810  213.1350  147.6280 C   0  0  0  0  0  2  0  0  0  0  0  0
  160.3020  212.6320  146.3550 C   0  0  0  0  0  3  0  0  0  0  0  0
  161.0050  213.1230  145.1020 C   0  0  0  0  0  1  0  0  0  0  0  0
  158.8280  212.9920  146.3190 C   0  0  0  0  0  1  0  0  0  0  0  0
  1  3  2  0  0  0  0
  1  6  1  0  0  0  0
  2  5  2  0  0  0  0
  3  8  1  0  0  0  0
  4  5  1  0  0  0  0
  5 10  1  0  0  0  0
  6  9  2  0  0  0  0
  7  2  1  0  0  0  0
  8  7  2  0  0  0  0
  9  7  1  0  0  0  0
  9  4  1  0  0  0  0
 10 14  1  0  0  0  0
 10 12  2  0  0  0  0
 11 13  1  0  0  0  0
 12 13  1  0  0  0  0
 14 11  2  0  0  0  0
 15 18  1  0  0  0  0
 16 11  1  6  0  0  0
 16 15  1  0  0  0  0
 17 16  1  0  0  0  0
 17 19  1  0  0  0  0
 18 21  1  1  0  0  0
 19 18  1  0  0  0  0
 21 22  1  0  0  0  0
 21 20  1  0  0  0  0
 23 21  1  0  0  0  0
 23 25  1  0  0  0  0
 23 24  1  1  0  0  0
 27 26  1  0  0  0  0
 27 25  1  0  0  0  0
 28 27  2  0  0  0  0
 30 29  1  0  0  0  0
 30  3  1  0  0  0  0
 31  4  1  0  0  0  0
 32 33  1  0  0  0  0
 32 31  1  0  0  0  0
 33 34  1  0  0  0  0
 34 35  2  0  0  0  0
 36 34  1  6  0  0  0
 36 38  1  0  0  0  0
 37 40  2  0  0  0  0
 37 36  1  0  0  0  0
 39 38  2  0  0  0  0
 40 39  1  0  0  0  0
 41 40  1  0  0  0  0
 42 41  1  0  0  0  0
 43 42  1  0  0  0  0
 44 42  1  0  0  0  0
M  END
>  <MODEL>
6

>  <REMARK>
 VINA RESULT:      -6.6      1.972      2.756
  Name = 
  13 active torsions:
  status: ('A' for Active; 'I' for Inactive)
    1  A    between atoms: C_6  and  C_33
    2  A    between atoms: C_7  and  C_41
    3  A    between atoms: C_8  and  C_18
    4  A    between atoms: C_8  and  C_25
    5  A    between atoms: C_9  and  C_12
    6  A    between atoms: C_13  and  N_24
    7  A    between atoms: C_14  and  C_17
    8  A    between atoms: N_15  and  C_38
    9  A    between atoms: N_16  and  N_23
   10  A    between atoms: C_18  and  C_27
   11  A    between atoms: C_19  and  C_25
   12  A    between atoms: N_23  and  C_38
   13  A    between atoms: C_41  and  C_44
                            x       y       z     vdW  Elec       q    Type
                         _______ _______ _______ _____ _____    ______ ____

>  <TORSDO>
F 13

$$$$
=
 OpenBabel11052409353D

 44 48  0  0  1  0  0  0  0  0999 V2000
  158.1090  213.7400  155.1470 C   0  0  0  0  0  3  0  0  0  0  0  0
  158.9540  209.6990  155.3880 C   0  0  0  0  0  3  0  0  0  0  0  0
  157.4250  213.0150  156.1540 C   0  0  0  0  0  0  0  0  0  0  0  0
  160.0190  210.8970  153.7750 N   0  0  0  0  0  0  0  0  0  0  0  0
  159.8720  209.6700  154.3340 C   0  0  0  0  0  0  0  0  0  0  0  0
  159.0130  213.0950  154.2870 C   0  0  0  0  0  3  0  0  0  0  0  0
  158.5560  211.0230  155.4410 C   0  0  0  0  0  0  0  0  0  0  0  0
  157.6510  211.6350  156.3050 C   0  0  0  0  0  3  0  0  0  0  0  0
  159.2110  211.7240  154.4610 C   0  0  0  0  0  0  0  0  0  0  0  0
  160.5770  208.4520  153.8930 C   0  0  0  0  0  0  0  0  0  0  0  0
  161.4430  206.9830  152.6470 C   0  0  0  0  0  0  0  0  0  0  0  0
  161.0270  207.5030  154.7410 N   0  0  0  0  0  0  0  0  0  0  0  0
  161.5850  206.5650  153.9520 C   0  0  0  0  0  2  0  0  0  0  0  0
  160.8190  208.1730  152.5970 N   0  0  0  0  0  0  0  0  0  0  0  0
  161.6000  206.9620  150.1870 C   0  0  0  0  0  2  0  0  0  0  0  0
  161.9680  206.2510  151.4530 C   0  0  2  0  0  3  0  0  0  0  0  0
  161.3170  204.8970  151.3090 C   0  0  0  0  0  2  0  0  0  0  0  0
  160.9070  205.8960  149.3510 C   0  0  2  0  0  3  0  0  0  0  0  0
  161.1440  204.6410  149.9420 O   0  0  0  0  0  0  0  0  0  0  0  0
  160.2980  206.2140  147.0600 O   0  0  0  0  0  1  0  0  0  0  0  0
  161.3900  205.9250  147.8860 C   0  0  0  0  0  0  0  0  0  0  0  0
  162.3540  206.9270  147.7240 O   0  0  0  0  0  1  0  0  0  0  0  0
  161.9710  204.5600  147.4730 C   0  0  2  0  0  3  0  0  0  0  0  0
  163.2470  204.7160  146.7870 N   0  0  0  0  0  1  0  0  0  0  0  0
  161.0030  203.7900  146.5740 C   0  0  0  0  0  2  0  0  0  0  0  0
  161.0930  201.9900  148.1390 O   0  0  0  0  0  1  0  0  0  0  0  0
  160.9880  202.3410  146.9350 C   0  0  0  0  0  0  0  0  0  0  0  0
  160.8250  201.3810  145.9450 O   0  0  0  0  0  0  0  0  0  0  0  0
  155.0820  213.7860  156.7260 C   0  0  0  0  0  1  0  0  0  0  0  0
  156.4990  213.6650  157.0290 N   0  0  0  0  0  2  0  0  0  0  0  0
  160.8320  211.1980  152.6650 N   0  0  0  0  0  2  0  0  0  0  0  0
  160.4290  212.1030  151.5980 C   0  0  0  0  0  2  0  0  0  0  0  0
  161.1460  211.7700  150.3780 N   0  0  0  0  0  2  0  0  0  0  0  0
  160.9130  212.4430  149.1400 C   0  0  0  0  0  0  0  0  0  0  0  0
  160.0100  213.3200  149.0490 O   0  0  0  0  0  0  0  0  0  0  0  0
  161.7520  212.0900  147.9520 C   0  0  1  0  0  3  0  0  0  0  0  0
  160.9780  212.2150  146.7260 N   0  0  0  0  0  0  0  0  0  0  0  0
  162.8380  213.1000  147.7520 C   0  0  0  0  0  3  0  0  0  0  0  0
  162.7070  213.6880  146.6100 N   0  0  0  0  0  0  0  0  0  0  0  0
  161.5540  213.1190  146.0090 C   0  0  0  0  0  0  0  0  0  0  0  0
  161.0310  213.5380  144.6730 C   0  0  0  0  0  2  0  0  0  0  0  0
  159.9130  212.6380  144.1500 C   0  0  0  0  0  3  0  0  0  0  0  0
  160.1530  212.2090  142.7140 C   0  0  0  0  0  1  0  0  0  0  0  0
  158.5480  213.2870  144.2950 C   0  0  0  0  0  1  0  0  0  0  0  0
  1  3  1  0  0  0  0
  2  7  1  0  0  0  0
  3  8  2  0  0  0  0
  3 30  1  0  0  0  0
  4  5  1  0  0  0  0
  4  9  1  0  0  0  0
  5  2  2  0  0  0  0
  6  9  1  0  0  0  0
  6  1  2  0  0  0  0
  7  8  1  0  0  0  0
  9  7  2  0  0  0  0
 10  5  1  0  0  0  0
 10 12  2  0  0  0  0
 11 13  1  0  0  0  0
 13 12  1  0  0  0  0
 14 11  2  0  0  0  0
 14 10  1  0  0  0  0
 15 16  1  0  0  0  0
 16 11  1  1  0  0  0
 17 16  1  0  0  0  0
 18 21  1  6  0  0  0
 18 19  1  0  0  0  0
 18 15  1  0  0  0  0
 19 17  1  0  0  0  0
 20 21  1  0  0  0  0
 22 21  1  0  0  0  0
 23 24  1  6  0  0  0
 23 21  1  0  0  0  0
 25 27  1  0  0  0  0
 25 23  1  0  0  0  0
 27 26  1  0  0  0  0
 28 27  2  0  0  0  0
 29 30  1  0  0  0  0
 31  4  1  0  0  0  0
 32 31  1  0  0  0  0
 33 32  1  0  0  0  0
 34 33  1  0  0  0  0
 35 34  2  0  0  0  0
 36 34  1  1  0  0  0
 37 36  1  0  0  0  0
 38 36  1  0  0  0  0
 39 38  2  0  0  0  0
 40 39  1  0  0  0  0
 40 37  2  0  0  0  0
 41 40  1  0  0  0  0
 42 44  1  0  0  0  0
 42 41  1  0  0  0  0
 43 42  1  0  0  0  0
M  END
>  <MODEL>
7

>  <REMARK>
 VINA RESULT:      -6.4      3.225      8.441
  Name = 
  13 active torsions:
  status: ('A' for Active; 'I' for Inactive)
    1  A    between atoms: C_6  and  C_33
    2  A    between atoms: C_7  and  C_41
    3  A    between atoms: C_8  and  C_18
    4  A    between atoms: C_8  and  C_25
    5  A    between atoms: C_9  and  C_12
    6  A    between atoms: C_13  and  N_24
    7  A    between atoms: C_14  and  C_17
    8  A    between atoms: N_15  and  C_38
    9  A    between atoms: N_16  and  N_23
   10  A    between atoms: C_18  and  C_27
   11  A    between atoms: C_19  and  C_25
   12  A    between atoms: N_23  and  C_38
   13  A    between atoms: C_41  and  C_44
                            x       y       z     vdW  Elec       q    Type
                         _______ _______ _______ _____ _____    ______ ____

>  <TORSDO>
F 13

$$$$
=
 OpenBabel11052409353D

 44 48  0  0  1  0  0  0  0  0999 V2000
  162.0020  205.6170  146.2310 C   0  0  0  0  0  3  0  0  0  0  0  0
  161.0190  205.9990  150.2290 C   0  0  0  0  0  3  0  0  0  0  0  0
  161.4990  204.4550  146.8650 C   0  0  0  0  0  0  0  0  0  0  0  0
  161.8460  207.8360  149.1750 N   0  0  0  0  0  0  0  0  0  0  0  0
  161.3720  207.3460  150.3470 C   0  0  0  0  0  0  0  0  0  0  0  0
  162.1560  206.8170  146.9450 C   0  0  0  0  0  3  0  0  0  0  0  0
  161.3000  205.6990  148.9080 C   0  0  0  0  0  0  0  0  0  0  0  0
  161.1410  204.4950  148.2260 C   0  0  0  0  0  3  0  0  0  0  0  0
  161.7960  206.8210  148.2930 C   0  0  0  0  0  0  0  0  0  0  0  0
  161.2470  208.1210  151.5950 C   0  0  0  0  0  0  0  0  0  0  0  0
  160.8280  209.6980  152.9370 C   0  0  0  0  0  0  0  0  0  0  0  0
  161.6570  207.6680  152.7990 N   0  0  0  0  0  0  0  0  0  0  0  0
  161.3880  208.6680  153.6600 C   0  0  0  0  0  2  0  0  0  0  0  0
  160.7260  209.3640  151.6380 N   0  0  0  0  0  0  0  0  0  0  0  0
  159.0140  210.7960  154.1940 C   0  0  0  0  0  2  0  0  0  0  0  0
  160.3400  210.9850  153.5210 C   0  0  2  0  0  3  0  0  0  0  0  0
  160.0560  212.0040  152.4450 C   0  0  0  0  0  2  0  0  0  0  0  0
  158.1200  211.8470  153.5530 C   0  0  2  0  0  3  0  0  0  0  0  0
  158.9310  212.7450  152.8330 O   0  0  0  0  0  0  0  0  0  0  0  0
  157.3840  213.9620  154.3940 O   0  0  0  0  0  1  0  0  0  0  0  0
  157.2690  212.5840  154.6070 C   0  0  0  0  0  0  0  0  0  0  0  0
  155.9250  212.2180  154.4710 O   0  0  0  0  0  1  0  0  0  0  0  0
  157.7620  212.2650  156.0310 C   0  0  2  0  0  3  0  0  0  0  0  0
  156.7020  211.6710  156.8350 N   0  0  0  0  0  1  0  0  0  0  0  0
  158.2900  213.5160  156.7330 C   0  0  0  0  0  2  0  0  0  0  0  0
  160.4570  214.4490  157.0940 O   0  0  0  0  0  1  0  0  0  0  0  0
  159.7600  213.4080  156.9690 C   0  0  0  0  0  0  0  0  0  0  0  0
  160.3560  212.1590  157.0820 O   0  0  0  0  0  0  0  0  0  0  0  0
  160.8190  202.0190  146.7540 C   0  0  0  0  0  1  0  0  0  0  0  0
  161.3460  203.2290  146.1460 N   0  0  0  0  0  2  0  0  0  0  0  0
  162.3300  209.1430  148.9690 N   0  0  0  0  0  2  0  0  0  0  0  0
  161.5770  210.3400  149.3110 C   0  0  0  0  0  2  0  0  0  0  0  0
  161.8150  211.3690  148.3130 N   0  0  0  0  0  2  0  0  0  0  0  0
  161.4020  212.7250  148.4900 C   0  0  0  0  0  0  0  0  0  0  0  0
  160.7420  213.0640  149.5110 O   0  0  0  0  0  0  0  0  0  0  0  0
  161.7570  213.7360  147.4450 C   0  0  1  0  0  3  0  0  0  0  0  0
  162.7080  213.1770  146.4970 N   0  0  0  0  0  0  0  0  0  0  0  0
  160.5750  214.0380  146.5780 C   0  0  0  0  0  3  0  0  0  0  0  0
  160.8170  213.7150  145.3520 N   0  0  0  0  0  0  0  0  0  0  0  0
  162.1360  213.1890  145.3410 C   0  0  0  0  0  0  0  0  0  0  0  0
  162.8050  212.6720  144.1080 C   0  0  0  0  0  2  0  0  0  0  0  0
  162.1610  213.1690  142.8150 C   0  0  0  0  0  3  0  0  0  0  0  0
  161.7060  212.0240  141.9290 C   0  0  0  0  0  1  0  0  0  0  0  0
  163.0760  214.1080  142.0510 C   0  0  0  0  0  1  0  0  0  0  0  0
  1  3  2  0  0  0  0
  1  6  1  0  0  0  0
  2  5  2  0  0  0  0
  3  8  1  0  0  0  0
  4  5  1  0  0  0  0
  5 10  1  0  0  0  0
  6  9  2  0  0  0  0
  7  2  1  0  0  0  0
  8  7  2  0  0  0  0
  9  7  1  0  0  0  0
  9  4  1  0  0  0  0
 10 14  1  0  0  0  0
 10 12  2  0  0  0  0
 11 13  1  0  0  0  0
 12 13  1  0  0  0  0
 14 11  2  0  0  0  0
 16 11  1  6  0  0  0
 16 15  1  0  0  0  0
 17 19  1  0  0  0  0
 17 16  1  0  0  0  0
 18 15  1  0  0  0  0
 18 21  1  1  0  0  0
 19 18  1  0  0  0  0
 20 21  1  0  0  0  0
 21 23  1  0  0  0  0
 22 21  1  0  0  0  0
 23 25  1  0  0  0  0
 23 24  1  1  0  0  0
 25 27  1  0  0  0  0
 27 28  2  0  0  0  0
 27 26  1  0  0  0  0
 30 29  1  0  0  0  0
 30  3  1  0  0  0  0
 31  4  1  0  0  0  0
 31 32  1  0  0  0  0
 33 34  1  0  0  0  0
 33 32  1  0  0  0  0
 34 35  2  0  0  0  0
 36 34  1  1  0  0  0
 37 36  1  0  0  0  0
 38 36  1  0  0  0  0
 39 38  2  0  0  0  0
 40 39  1  0  0  0  0
 40 37  2  0  0  0  0
 41 40  1  0  0  0  0
 42 41  1  0  0  0  0
 43 42  1  0  0  0  0
 44 42  1  0  0  0  0
M  END
>  <MODEL>
8

>  <REMARK>
 VINA RESULT:      -6.2      2.141      3.169
  Name = 
  13 active torsions:
  status: ('A' for Active; 'I' for Inactive)
    1  A    between atoms: C_6  and  C_33
    2  A    between atoms: C_7  and  C_41
    3  A    between atoms: C_8  and  C_18
    4  A    between atoms: C_8  and  C_25
    5  A    between atoms: C_9  and  C_12
    6  A    between atoms: C_13  and  N_24
    7  A    between atoms: C_14  and  C_17
    8  A    between atoms: N_15  and  C_38
    9  A    between atoms: N_16  and  N_23
   10  A    between atoms: C_18  and  C_27
   11  A    between atoms: C_19  and  C_25
   12  A    between atoms: N_23  and  C_38
   13  A    between atoms: C_41  and  C_44
                            x       y       z     vdW  Elec       q    Type
                         _______ _______ _______ _____ _____    ______ ____

>  <TORSDO>
F 13

$$$$
=
 OpenBabel11052409353D

 44 48  0  0  1  0  0  0  0  0999 V2000
  161.5640  203.8180  150.0930 C   0  0  0  0  0  3  0  0  0  0  0  0
  160.7230  205.1560  153.9140 C   0  0  0  0  0  3  0  0  0  0  0  0
  160.9550  202.8820  150.9640 C   0  0  0  0  0  0  0  0  0  0  0  0
  161.7150  206.6220  152.4860 N   0  0  0  0  0  0  0  0  0  0  0  0
  161.2200  206.4510  153.7380 C   0  0  0  0  0  0  0  0  0  0  0  0
  161.8620  205.1190  150.5300 C   0  0  0  0  0  3  0  0  0  0  0  0
  160.9390  204.5510  152.6890 C   0  0  0  0  0  0  0  0  0  0  0  0
  160.6370  203.2530  152.2840 C   0  0  0  0  0  3  0  0  0  0  0  0
  161.5360  205.4530  151.8460 C   0  0  0  0  0  0  0  0  0  0  0  0
  161.2080  207.4850  154.7880 C   0  0  0  0  0  0  0  0  0  0  0  0
  160.9540  209.3410  155.7650 C   0  0  0  0  0  0  0  0  0  0  0  0
  161.6560  207.2770  156.0440 N   0  0  0  0  0  0  0  0  0  0  0  0
  161.4920  208.4560  156.6740 C   0  0  0  0  0  2  0  0  0  0  0  0
  160.7620  208.7400  154.5770 N   0  0  0  0  0  0  0  0  0  0  0  0
  159.1110  210.8570  156.3810 C   0  0  0  0  0  2  0  0  0  0  0  0
  160.5730  210.7540  156.0710 C   0  0  2  0  0  3  0  0  0  0  0  0
  160.7500  211.6430  154.8640 C   0  0  0  0  0  2  0  0  0  0  0  0
  158.6040  211.9270  155.4270 C   0  0  2  0  0  3  0  0  0  0  0  0
  159.7130  212.5870  154.8650 O   0  0  0  0  0  0  0  0  0  0  0  0
  156.9420  212.2310  157.1200 O   0  0  0  0  0  1  0  0  0  0  0  0
  157.6640  212.9210  156.1400 C   0  0  0  0  0  0  0  0  0  0  0  0
  158.4170  213.9250  156.7580 O   0  0  0  0  0  1  0  0  0  0  0  0
  156.6680  213.5450  155.1430 C   0  0  2  0  0  3  0  0  0  0  0  0
  155.3000  213.4440  155.6320 N   0  0  0  0  0  1  0  0  0  0  0  0
  156.7660  212.8830  153.7690 C   0  0  0  0  0  2  0  0  0  0  0  0
  156.1110  214.3520  152.0050 O   0  0  0  0  0  0  0  0  0  0  0  0
  157.0490  213.8990  152.7120 C   0  0  0  0  0  0  0  0  0  0  0  0
  158.3430  214.3700  152.5300 O   0  0  0  0  0  1  0  0  0  0  0  0
  161.1050  201.0250  149.2500 C   0  0  0  0  0  1  0  0  0  0  0  0
  160.6560  201.5540  150.5270 N   0  0  0  0  0  2  0  0  0  0  0  0
  162.3310  207.7930  152.0020 N   0  0  0  0  0  2  0  0  0  0  0  0
  161.6310  208.8040  151.2240 C   0  0  0  0  0  2  0  0  0  0  0  0
  161.1290  208.2140  149.9950 N   0  0  0  0  0  2  0  0  0  0  0  0
  161.7410  208.4430  148.7250 C   0  0  0  0  0  0  0  0  0  0  0  0
  162.7170  209.2370  148.6190 O   0  0  0  0  0  0  0  0  0  0  0  0
  161.2050  207.7340  147.5210 C   0  0  1  0  0  3  0  0  0  0  0  0
  162.2470  206.9340  146.8950 N   0  0  0  0  0  0  0  0  0  0  0  0
  160.2000  206.6990  147.9200 C   0  0  0  0  0  3  0  0  0  0  0  0
  160.5990  205.5210  147.5730 N   0  0  0  0  0  0  0  0  0  0  0  0
  161.8590  205.7050  146.9470 C   0  0  0  0  0  0  0  0  0  0  0  0
  162.6840  204.5790  146.4120 C   0  0  0  0  0  2  0  0  0  0  0  0
  162.0300  203.8540  145.2370 C   0  0  0  0  0  3  0  0  0  0  0  0
  161.1900  204.7900  144.3860 C   0  0  0  0  0  1  0  0  0  0  0  0
  161.2090  202.6620  145.6920 C   0  0  0  0  0  1  0  0  0  0  0  0
  1  6  2  0  0  0  0
  1  3  1  0  0  0  0
  3  8  2  0  0  0  0
  4  5  1  0  0  0  0
  5  2  2  0  0  0  0
  5 10  1  0  0  0  0
  6  9  1  0  0  0  0
  7  2  1  0  0  0  0
  8  7  1  0  0  0  0
  9  4  1  0  0  0  0
  9  7  2  0  0  0  0
 10 12  2  0  0  0  0
 11 13  1  0  0  0  0
 12 13  1  0  0  0  0
 14 10  1  0  0  0  0
 14 11  2  0  0  0  0
 16 11  1  6  0  0  0
 16 15  1  0  0  0  0
 17 19  1  0  0  0  0
 17 16  1  0  0  0  0
 18 21  1  1  0  0  0
 18 15  1  0  0  0  0
 19 18  1  0  0  0  0
 21 22  1  0  0  0  0
 21 20  1  0  0  0  0
 23 24  1  1  0  0  0
 23 21  1  0  0  0  0
 25 23  1  0  0  0  0
 26 27  2  0  0  0  0
 27 25  1  0  0  0  0
 28 27  1  0  0  0  0
 29 30  1  0  0  0  0
 30  3  1  0  0  0  0
 31  4  1  0  0  0  0
 32 31  1  0  0  0  0
 33 32  1  0  0  0  0
 34 33  1  0  0  0  0
 35 34  2  0  0  0  0
 36 38  1  0  0  0  0
 36 34  1  1  0  0  0
 37 40  2  0  0  0  0
 37 36  1  0  0  0  0
 39 38  2  0  0  0  0
 40 39  1  0  0  0  0
 41 40  1  0  0  0  0
 42 44  1  0  0  0  0
 42 41  1  0  0  0  0
 43 42  1  0  0  0  0
M  END
>  <MODEL>
9

>  <REMARK>
 VINA RESULT:      -6.0      2.997      4.658
  Name = 
  13 active torsions:
  status: ('A' for Active; 'I' for Inactive)
    1  A    between atoms: C_6  and  C_33
    2  A    between atoms: C_7  and  C_41
    3  A    between atoms: C_8  and  C_18
    4  A    between atoms: C_8  and  C_25
    5  A    between atoms: C_9  and  C_12
    6  A    between atoms: C_13  and  N_24
    7  A    between atoms: C_14  and  C_17
    8  A    between atoms: N_15  and  C_38
    9  A    between atoms: N_16  and  N_23
   10  A    between atoms: C_18  and  C_27
   11  A    between atoms: C_19  and  C_25
   12  A    between atoms: N_23  and  C_38
   13  A    between atoms: C_41  and  C_44
                            x       y       z     vdW  Elec       q    Type
                         _______ _______ _______ _____ _____    ______ ____

>  <TORSDO>
F 13

$$$$
