=
 OpenBabel11042420063D

 58 64  0  0  1  0  0  0  0  0999 V2000
  163.1720  214.2110  148.0930 C   0  0  0  0  0  1  0  0  0  0  0  0
  159.9460  211.3110  149.0630 C   0  0  0  0  0  2  0  0  0  0  0  0
  162.2330  212.0990  148.4780 C   0  0  2  0  0  3  0  0  0  0  0  0
  160.7720  211.9800  148.2520 C   0  0  0  0  0  0  0  0  0  0  0  0
  161.9110  212.8090  145.1410 C   0  0  0  0  0  1  0  0  0  0  0  0
  160.3310  212.7490  147.0700 C   0  0  2  0  0  3  0  0  0  0  0  0
  162.7490  212.9870  147.4350 N   0  0  0  0  0  0  0  0  0  0  0  0
  161.6360  213.3410  146.5390 C   0  0  1  0  0  3  0  0  0  0  0  0
  158.1350  213.8200  146.5820 N   0  0  0  0  0  0  0  0  0  0  0  0
  158.9960  213.7950  148.9220 C   0  0  0  0  0  3  0  0  0  0  0  0
  156.6950  214.1960  148.4140 N   0  0  0  0  0  2  0  0  0  0  0  0
  156.9310  214.0140  147.0170 C   0  0  0  0  0  0  0  0  0  0  0  0
  159.3220  213.8440  147.4500 C   0  0  1  0  0  3  0  0  0  0  0  0
  157.7540  214.0250  149.3630 C   0  0  0  0  0  0  0  0  0  0  0  0
  155.7880  214.0250  146.0620 C   0  0  0  0  0  1  0  0  0  0  0  0
  157.4530  214.0510  150.8060 C   0  0  0  0  0  0  0  0  0  0  0  0
  156.0810  214.4130  151.2980 C   0  0  0  0  0  1  0  0  0  0  0  0
  158.3820  213.7200  151.6500 N   0  0  0  0  0  0  0  0  0  0  0  0
  158.1790  213.7130  153.0110 O   0  0  0  0  0  0  0  0  0  0  0  0
  155.9600  210.1480  154.2450 C   0  0  0  0  0  1  0  0  0  0  0  0
  157.1150  212.9520  153.5560 C   0  0  1  0  0  3  0  0  0  0  0  0
  156.4730  211.2040  155.2170 C   0  0  1  0  0  3  0  0  0  0  0  0
  157.5430  212.0010  154.6020 N   0  0  0  0  0  0  0  0  0  0  0  0
  156.0710  213.8950  154.1310 C   0  0  0  0  0  2  0  0  0  0  0  0
  155.3420  212.1060  155.7220 C   0  0  0  0  0  2  0  0  0  0  0  0
  154.8840  213.0910  154.6470 C   0  0  0  0  0  2  0  0  0  0  0  0
  160.7290  211.5830  156.5830 C   0  0  0  0  0  3  0  0  0  0  0  0
  159.3980  211.8720  156.2630 C   0  0  0  0  0  3  0  0  0  0  0  0
  163.2680  210.7740  155.9800 Cl  0  0  0  0  0  0  0  0  0  0  0  0
  158.9150  211.7000  154.9570 C   0  0  0  0  0  0  0  0  0  0  0  0
  159.8060  211.2290  153.9760 C   0  0  0  0  0  3  0  0  0  0  0  0
  161.1390  210.9460  154.2900 C   0  0  0  0  0  3  0  0  0  0  0  0
  161.5990  211.1190  155.5940 C   0  0  0  0  0  0  0  0  0  0  0  0
  162.8950  210.7340  148.3510 C   0  0  0  0  0  2  0  0  0  0  0  0
  161.8440  209.6480  148.4300 C   0  0  0  0  0  2  0  0  0  0  0  0
  162.3880  208.4730  149.0930 N   0  0  0  0  0  2  0  0  0  0  0  0
  161.5960  207.3250  148.6720 C   0  0  2  0  0  3  0  0  0  0  0  0
  162.2650  205.3800  151.5690 S   0  0  0  0  0  0  0  0  0  0  0  0
  160.8700  207.6480  150.9980 N   0  0  0  0  0  2  0  0  0  0  0  0
  161.0970  205.4120  150.2330 C   0  0  1  0  0  3  0  0  0  0  0  0
  159.9720  204.2560  150.1390 S   0  0  0  0  0  0  0  0  0  0  0  0
  162.0160  207.1770  151.7770 C   0  0  1  0  0  3  0  0  0  0  0  0
  160.7280  206.7920  149.8230 C   0  0  2  0  0  3  0  0  0  0  0  0
  160.8710  202.7680  149.6880 C   0  0  2  0  0  3  0  0  0  0  0  0
  160.6310  202.4760  148.2180 C   0  0  2  0  0  3  0  0  0  0  0  0
  159.8850  201.6990  149.2770 C   0  0  0  0  0  2  0  0  0  0  0  0
  161.7550  201.6120  147.6660 C   0  0  0  0  0  2  0  0  0  0  0  0
  160.4090  201.1470  145.5670 C   0  0  0  0  0  0  0  0  0  0  0  0
  161.2170  200.6840  146.6190 C   0  0  0  0  0  0  0  0  0  0  0  0
  160.0230  200.2910  144.5860 N   0  0  0  0  0  0  0  0  0  0  0  0
  159.9970  202.5770  145.4820 C   0  0  0  0  0  1  0  0  0  0  0  0
  161.1870  198.4780  145.6260 C   0  0  0  0  0  3  0  0  0  0  0  0
  160.3940  198.9800  144.5930 C   0  0  0  0  0  3  0  0  0  0  0  0
  161.5960  199.3380  146.6410 C   0  0  0  0  0  3  0  0  0  0  0  0
  161.6700  207.7990  154.3010 N   0  0  0  0  0  0  0  0  0  0  0  0
  161.8230  207.5160  153.1860 C   0  0  0  0  0  0  0  0  0  0  0  0
  162.5220  206.2200  148.1770 C   0  0  0  0  0  2  0  0  0  0  0  0
  161.9180  205.5700  146.9460 C   0  0  0  0  0  1  0  0  0  0  0  0
  3 34  1  6  0  0  0
  4  3  1  0  0  0  0
  4  2  2  0  0  0  0
  6 13  1  0  0  0  0
  6  4  1  1  0  0  0
  7  1  1  0  0  0  0
  7  3  1  0  0  0  0
  8  5  1  6  0  0  0
  8  6  1  0  0  0  0
  8  7  1  0  0  0  0
  9 12  2  0  0  0  0
  9 13  1  0  0  0  0
 10 14  2  0  0  0  0
 11 14  1  0  0  0  0
 12 11  1  0  0  0  0
 13 10  1  1  0  0  0
 14 16  1  0  0  0  0
 15 12  1  0  0  0  0
 16 17  1  0  0  0  0
 16 18  2  0  0  0  0
 18 19  1  0  0  0  0
 21 19  1  1  0  0  0
 21 24  1  0  0  0  0
 21 23  1  0  0  0  0
 22 20  1  6  0  0  0
 22 25  1  0  0  0  0
 23 30  1  0  0  0  0
 23 22  1  0  0  0  0
 24 26  1  0  0  0  0
 26 25  1  0  0  0  0
 28 27  1  0  0  0  0
 30 28  2  0  0  0  0
 31 32  2  0  0  0  0
 31 30  1  0  0  0  0
 32 33  1  0  0  0  0
 33 29  1  0  0  0  0
 33 27  2  0  0  0  0
 34 35  1  0  0  0  0
 35 36  1  0  0  0  0
 37 57  1  1  0  0  0
 37 36  1  0  0  0  0
 38 42  1  0  0  0  0
 39 42  1  0  0  0  0
 40 41  1  1  0  0  0
 40 38  1  0  0  0  0
 42 56  1  1  0  0  0
 43 37  1  6  0  0  0
 43 40  1  0  0  0  0
 43 39  1  0  0  0  0
 44 41  1  6  0  0  0
 45 47  1  1  0  0  0
 45 46  1  0  0  0  0
 45 44  1  0  0  0  0
 46 44  1  0  0  0  0
 48 49  1  0  0  0  0
 49 54  2  0  0  0  0
 49 47  1  0  0  0  0
 50 53  1  0  0  0  0
 50 48  2  0  0  0  0
 51 48  1  0  0  0  0
 52 54  1  0  0  0  0
 53 52  2  0  0  0  0
 56 55  3  0  0  0  0
 58 57  1  0  0  0  0
M  END
>  <MODEL>
1

>  <REMARK>
 VINA RESULT:      -1.8      0.000      0.000
  Name = 
  15 active torsions:
  status: ('A' for Active; 'I' for Inactive)
    1  A    between atoms: C_2  and  C_25
    2  A    between atoms: C_5  and  C_7
    3  A    between atoms: C_5  and  N_8
    4  A    between atoms: C_7  and  C_22
    5  A    between atoms: N_8  and  C_15
    6  A    between atoms: C_9  and  O_39
    7  A    between atoms: N_12  and  C_49
    8  A    between atoms: C_14  and  C_15
    9  A    between atoms: C_15  and  C_56
   10  A    between atoms: C_17  and  C_46
   11  A    between atoms: C_18  and  S_43
   12  A    between atoms: C_25  and  C_28
   13  A    between atoms: N_35  and  O_39
   14  A    between atoms: C_40  and  C_45
   15  A    between atoms: C_47  and  C_54
                            x       y       z     vdW  Elec       q    Type
                         _______ _______ _______ _____ _____    ______ ____

>  <TORSDO>
F 15

$$$$
=
 OpenBabel11042420063D

 58 64  0  0  1  0  0  0  0  0999 V2000
  161.1810  210.3440  148.1430 C   0  0  0  0  0  1  0  0  0  0  0  0
  161.1450  214.4480  149.8490 C   0  0  0  0  0  2  0  0  0  0  0  0
  160.4710  212.0710  149.5610 C   0  0  2  0  0  3  0  0  0  0  0  0
  160.7010  213.4530  149.0760 C   0  0  0  0  0  0  0  0  0  0  0  0
  158.5860  212.2050  146.7010 C   0  0  0  0  0  1  0  0  0  0  0  0
  160.4530  213.5780  147.6240 C   0  0  2  0  0  3  0  0  0  0  0  0
  160.0920  211.2720  148.3930 N   0  0  0  0  0  0  0  0  0  0  0  0
  160.0130  212.1690  147.2280 C   0  0  1  0  0  3  0  0  0  0  0  0
  162.8970  213.2320  147.2790 N   0  0  0  0  0  0  0  0  0  0  0  0
  161.4870  214.0210  145.3790 C   0  0  0  0  0  3  0  0  0  0  0  0
  163.6490  213.0580  145.0480 N   0  0  0  0  0  2  0  0  0  0  0  0
  163.8010  212.8200  146.4490 C   0  0  0  0  0  0  0  0  0  0  0  0
  161.7190  214.0130  146.8690 C   0  0  1  0  0  3  0  0  0  0  0  0
  162.4390  213.6200  144.5280 C   0  0  0  0  0  0  0  0  0  0  0  0
  164.9910  212.0790  146.9520 C   0  0  0  0  0  1  0  0  0  0  0  0
  162.2370  213.7000  143.0710 C   0  0  0  0  0  0  0  0  0  0  0  0
  163.4100  213.7500  142.1350 C   0  0  0  0  0  1  0  0  0  0  0  0
  161.0270  213.6890  142.6000 N   0  0  0  0  0  0  0  0  0  0  0  0
  160.7560  213.7550  141.2520 O   0  0  0  0  0  0  0  0  0  0  0  0
  157.3620  213.6370  138.4900 C   0  0  0  0  0  1  0  0  0  0  0  0
  159.4130  213.8810  140.8140 C   0  0  1  0  0  3  0  0  0  0  0  0
  157.4910  212.7360  139.7120 C   0  0  1  0  0  3  0  0  0  0  0  0
  158.8870  212.6650  140.1620 N   0  0  0  0  0  0  0  0  0  0  0  0
  158.5330  214.2360  142.0020 C   0  0  0  0  0  2  0  0  0  0  0  0
  156.5730  213.1920  140.8510 C   0  0  0  0  0  2  0  0  0  0  0  0
  157.1010  214.4530  141.5300 C   0  0  0  0  0  2  0  0  0  0  0  0
  160.0480  209.5060  138.4520 C   0  0  0  0  0  3  0  0  0  0  0  0
  159.2880  210.6380  138.7660 C   0  0  0  0  0  3  0  0  0  0  0  0
  162.1420  207.7880  138.8170 Cl  0  0  0  0  0  0  0  0  0  0  0  0
  159.6630  211.4930  139.8140 C   0  0  0  0  0  0  0  0  0  0  0  0
  160.8250  211.1800  140.5430 C   0  0  0  0  0  3  0  0  0  0  0  0
  161.5830  210.0450  140.2360 C   0  0  0  0  0  3  0  0  0  0  0  0
  161.1970  209.2110  139.1890 C   0  0  0  0  0  0  0  0  0  0  0  0
  159.3350  212.0530  150.5740 C   0  0  0  0  0  2  0  0  0  0  0  0
  159.8970  211.8610  151.9660 C   0  0  0  0  0  2  0  0  0  0  0  0
  159.0130  211.0120  152.7490 N   0  0  0  0  0  2  0  0  0  0  0  0
  159.3400  211.2130  154.1540 C   0  0  2  0  0  3  0  0  0  0  0  0
  162.7560  210.2920  153.8330 S   0  0  0  0  0  0  0  0  0  0  0  0
  160.9550  210.4980  155.8640 N   0  0  0  0  0  2  0  0  0  0  0  0
  161.1580  209.5290  153.7060 C   0  0  1  0  0  3  0  0  0  0  0  0
  161.0570  207.9730  153.2820 S   0  0  0  0  0  0  0  0  0  0  0  0
  162.2170  211.0700  155.3940 C   0  0  1  0  0  3  0  0  0  0  0  0
  160.1890  210.0550  154.7020 C   0  0  2  0  0  3  0  0  0  0  0  0
  161.5230  207.9330  151.5480 C   0  0  2  0  0  3  0  0  0  0  0  0
  160.8350  206.7560  150.8820 C   0  0  2  0  0  3  0  0  0  0  0  0
  162.2910  206.6610  151.2710 C   0  0  0  0  0  2  0  0  0  0  0  0
  160.7350  206.9900  149.3820 C   0  0  0  0  0  2  0  0  0  0  0  0
  161.0170  204.4790  149.1580 C   0  0  0  0  0  0  0  0  0  0  0  0
  161.2060  205.7730  148.6440 C   0  0  0  0  0  0  0  0  0  0  0  0
  161.3710  203.4000  148.4140 N   0  0  0  0  0  0  0  0  0  0  0  0
  160.3950  204.2630  150.4950 C   0  0  0  0  0  1  0  0  0  0  0  0
  162.1310  204.8010  146.6310 C   0  0  0  0  0  3  0  0  0  0  0  0
  161.9160  203.5330  147.1730 C   0  0  0  0  0  3  0  0  0  0  0  0
  161.7730  205.9220  147.3750 C   0  0  0  0  0  3  0  0  0  0  0  0
  164.0390  210.7950  157.2610 N   0  0  0  0  0  0  0  0  0  0  0  0
  163.2390  210.9190  156.4300 C   0  0  0  0  0  0  0  0  0  0  0  0
  158.0550  211.3320  154.9650 C   0  0  0  0  0  2  0  0  0  0  0  0
  156.8930  210.7960  154.1500 C   0  0  0  0  0  1  0  0  0  0  0  0
  1  7  1  0  0  0  0
  3 34  1  1  0  0  0
  4  3  1  0  0  0  0
  4  2  2  0  0  0  0
  6  4  1  1  0  0  0
  7  3  1  0  0  0  0
  8  5  1  1  0  0  0
  8  6  1  0  0  0  0
  8  7  1  0  0  0  0
 11 12  1  0  0  0  0
 12 15  1  0  0  0  0
 12  9  2  0  0  0  0
 13 10  1  6  0  0  0
 13  9  1  0  0  0  0
 13  6  1  0  0  0  0
 14 11  1  0  0  0  0
 14 10  2  0  0  0  0
 16 14  1  0  0  0  0
 17 16  1  0  0  0  0
 18 16  2  0  0  0  0
 19 18  1  0  0  0  0
 21 19  1  1  0  0  0
 21 24  1  0  0  0  0
 22 20  1  6  0  0  0
 22 23  1  0  0  0  0
 22 25  1  0  0  0  0
 23 21  1  0  0  0  0
 25 26  1  0  0  0  0
 26 24  1  0  0  0  0
 27 28  2  0  0  0  0
 27 33  1  0  0  0  0
 28 30  1  0  0  0  0
 29 33  1  0  0  0  0
 30 23  1  0  0  0  0
 30 31  2  0  0  0  0
 32 31  1  0  0  0  0
 33 32  2  0  0  0  0
 34 35  1  0  0  0  0
 35 36  1  0  0  0  0
 36 37  1  0  0  0  0
 37 57  1  1  0  0  0
 38 42  1  0  0  0  0
 40 41  1  1  0  0  0
 40 38  1  0  0  0  0
 40 43  1  0  0  0  0
 42 39  1  0  0  0  0
 42 56  1  1  0  0  0
 43 37  1  6  0  0  0
 43 39  1  0  0  0  0
 44 41  1  1  0  0  0
 45 47  1  6  0  0  0
 45 46  1  0  0  0  0
 45 44  1  0  0  0  0
 46 44  1  0  0  0  0
 48 51  1  0  0  0  0
 49 48  1  0  0  0  0
 49 47  1  0  0  0  0
 50 48  2  0  0  0  0
 52 53  2  0  0  0  0
 52 54  1  0  0  0  0
 53 50  1  0  0  0  0
 54 49  2  0  0  0  0
 56 55  3  0  0  0  0
 58 57  1  0  0  0  0
M  END
>  <MODEL>
2

>  <REMARK>
 VINA RESULT:      -1.5      4.509      9.264
  Name = 
  15 active torsions:
  status: ('A' for Active; 'I' for Inactive)
    1  A    between atoms: C_2  and  C_25
    2  A    between atoms: C_5  and  C_7
    3  A    between atoms: C_5  and  N_8
    4  A    between atoms: C_7  and  C_22
    5  A    between atoms: N_8  and  C_15
    6  A    between atoms: C_9  and  O_39
    7  A    between atoms: N_12  and  C_49
    8  A    between atoms: C_14  and  C_15
    9  A    between atoms: C_15  and  C_56
   10  A    between atoms: C_17  and  C_46
   11  A    between atoms: C_18  and  S_43
   12  A    between atoms: C_25  and  C_28
   13  A    between atoms: N_35  and  O_39
   14  A    between atoms: C_40  and  C_45
   15  A    between atoms: C_47  and  C_54
                            x       y       z     vdW  Elec       q    Type
                         _______ _______ _______ _____ _____    ______ ____

>  <TORSDO>
F 15

$$$$
=
 OpenBabel11042420063D

 58 64  0  0  1  0  0  0  0  0999 V2000
  160.5370  206.9630  147.6780 C   0  0  0  0  0  1  0  0  0  0  0  0
  161.1700  202.6430  148.5100 C   0  0  0  0  0  2  0  0  0  0  0  0
  160.8430  205.0580  149.0090 C   0  0  2  0  0  3  0  0  0  0  0  0
  161.5440  203.9180  148.3710 C   0  0  0  0  0  0  0  0  0  0  0  0
  163.9320  206.3600  148.2960 C   0  0  0  0  0  1  0  0  0  0  0  0
  162.6560  204.3670  147.5070 C   0  0  2  0  0  3  0  0  0  0  0  0
  161.4950  206.2780  148.5270 N   0  0  0  0  0  0  0  0  0  0  0  0
  162.6280  205.8870  147.6720 C   0  0  1  0  0  3  0  0  0  0  0  0
  161.3720  202.9460  145.9120 N   0  0  0  0  0  0  0  0  0  0  0  0
  162.2510  205.1540  145.1560 C   0  0  0  0  0  3  0  0  0  0  0  0
  160.5120  204.0060  143.9860 N   0  0  0  0  0  2  0  0  0  0  0  0
  160.5060  202.9510  144.9500 C   0  0  0  0  0  0  0  0  0  0  0  0
  162.4400  203.9490  146.0440 C   0  0  1  0  0  3  0  0  0  0  0  0
  161.3730  205.1390  144.1470 C   0  0  0  0  0  0  0  0  0  0  0  0
  159.4870  201.8680  144.8610 C   0  0  0  0  0  1  0  0  0  0  0  0
  161.2430  206.2900  143.2360 C   0  0  0  0  0  0  0  0  0  0  0  0
  160.4480  207.4990  143.6350 C   0  0  0  0  0  1  0  0  0  0  0  0
  161.8570  206.2610  142.0920 N   0  0  0  0  0  0  0  0  0  0  0  0
  161.7900  207.2980  141.1890 O   0  0  0  0  0  0  0  0  0  0  0  0
  160.1560  207.4610  137.1320 C   0  0  0  0  0  1  0  0  0  0  0  0
  161.6810  207.0140  139.8050 C   0  0  1  0  0  3  0  0  0  0  0  0
  161.5380  207.9810  137.5090 C   0  0  1  0  0  3  0  0  0  0  0  0
  161.6260  208.2210  138.9550 N   0  0  0  0  0  0  0  0  0  0  0  0
  162.8580  206.1520  139.3790 C   0  0  0  0  0  2  0  0  0  0  0  0
  162.6460  207.0300  137.0450 C   0  0  0  0  0  2  0  0  0  0  0  0
  162.7090  205.7730  137.9110 C   0  0  0  0  0  2  0  0  0  0  0  0
  162.5080  211.6540  140.2550 C   0  0  0  0  0  3  0  0  0  0  0  0
  162.6400  210.3420  139.7890 C   0  0  0  0  0  3  0  0  0  0  0  0
  161.0640  213.8580  140.9800 Cl  0  0  0  0  0  0  0  0  0  0  0  0
  161.5140  209.5840  139.4340 C   0  0  0  0  0  0  0  0  0  0  0  0
  160.2460  210.1790  139.5620 C   0  0  0  0  0  3  0  0  0  0  0  0
  160.1090  211.4880  140.0350 C   0  0  0  0  0  3  0  0  0  0  0  0
  161.2400  212.2260  140.3780 C   0  0  0  0  0  0  0  0  0  0  0  0
  160.9800  204.9770  150.5230 C   0  0  0  0  0  2  0  0  0  0  0  0
  160.4680  206.2560  151.1500 C   0  0  0  0  0  2  0  0  0  0  0  0
  161.4770  206.8180  152.0350 N   0  0  0  0  0  2  0  0  0  0  0  0
  160.8170  207.7930  152.8920 C   0  0  2  0  0  3  0  0  0  0  0  0
  160.0880  211.1680  153.7270 S   0  0  0  0  0  0  0  0  0  0  0  0
  161.9300  209.3090  154.4760 N   0  0  0  0  0  2  0  0  0  0  0  0
  161.0180  210.2730  152.5080 C   0  0  1  0  0  3  0  0  0  0  0  0
  161.7750  211.0900  151.3360 S   0  0  0  0  0  0  0  0  0  0  0  0
  160.8250  210.1030  155.0140 C   0  0  1  0  0  3  0  0  0  0  0  0
  161.6720  209.0590  153.0600 C   0  0  2  0  0  3  0  0  0  0  0  0
  160.4620  211.7140  150.2830 C   0  0  2  0  0  3  0  0  0  0  0  0
  161.0680  212.6250  149.2310 C   0  0  2  0  0  3  0  0  0  0  0  0
  160.3760  213.2160  150.4360 C   0  0  0  0  0  2  0  0  0  0  0  0
  160.1420  212.7220  148.0270 C   0  0  0  0  0  2  0  0  0  0  0  0
  160.3540  212.7940  145.5010 C   0  0  0  0  0  0  0  0  0  0  0  0
  160.9500  212.8510  146.7720 C   0  0  0  0  0  0  0  0  0  0  0  0
  161.1070  213.0120  144.3930 N   0  0  0  0  0  0  0  0  0  0  0  0
  158.8940  212.5400  145.3440 C   0  0  0  0  0  1  0  0  0  0  0  0
  163.0730  213.3330  145.7170 C   0  0  0  0  0  3  0  0  0  0  0  0
  162.4410  213.2800  144.4740 C   0  0  0  0  0  3  0  0  0  0  0  0
  162.3200  213.1150  146.8670 C   0  0  0  0  0  3  0  0  0  0  0  0
  161.6820  211.5490  157.0270 N   0  0  0  0  0  0  0  0  0  0  0  0
  161.3020  210.9030  156.1420 C   0  0  0  0  0  0  0  0  0  0  0  0
  160.5500  207.1720  154.2590 C   0  0  0  0  0  2  0  0  0  0  0  0
  161.1810  205.7930  154.3170 C   0  0  0  0  0  1  0  0  0  0  0  0
  1  7  1  0  0  0  0
  3 34  1  1  0  0  0
  4  2  2  0  0  0  0
  4  3  1  0  0  0  0
  6  8  1  0  0  0  0
  6  4  1  1  0  0  0
  7  3  1  0  0  0  0
  8  5  1  1  0  0  0
  8  7  1  0  0  0  0
  9 13  1  0  0  0  0
 11 14  1  0  0  0  0
 11 12  1  0  0  0  0
 12  9  2  0  0  0  0
 13 10  1  6  0  0  0
 13  6  1  0  0  0  0
 14 10  2  0  0  0  0
 15 12  1  0  0  0  0
 16 17  1  0  0  0  0
 16 14  1  0  0  0  0
 18 16  2  0  0  0  0
 19 18  1  0  0  0  0
 21 19  1  1  0  0  0
 22 20  1  1  0  0  0
 22 23  1  0  0  0  0
 23 30  1  0  0  0  0
 23 21  1  0  0  0  0
 24 21  1  0  0  0  0
 25 22  1  0  0  0  0
 25 26  1  0  0  0  0
 26 24  1  0  0  0  0
 27 33  1  0  0  0  0
 28 27  2  0  0  0  0
 30 31  2  0  0  0  0
 30 28  1  0  0  0  0
 31 32  1  0  0  0  0
 32 33  2  0  0  0  0
 33 29  1  0  0  0  0
 34 35  1  0  0  0  0
 35 36  1  0  0  0  0
 36 37  1  0  0  0  0
 37 57  1  1  0  0  0
 38 42  1  0  0  0  0
 39 42  1  0  0  0  0
 40 41  1  1  0  0  0
 40 43  1  0  0  0  0
 40 38  1  0  0  0  0
 42 56  1  1  0  0  0
 43 37  1  1  0  0  0
 43 39  1  0  0  0  0
 44 46  1  0  0  0  0
 44 41  1  1  0  0  0
 45 47  1  6  0  0  0
 45 44  1  0  0  0  0
 45 46  1  0  0  0  0
 48 49  1  0  0  0  0
 49 54  2  0  0  0  0
 49 47  1  0  0  0  0
 50 53  1  0  0  0  0
 50 48  2  0  0  0  0
 51 48  1  0  0  0  0
 52 54  1  0  0  0  0
 53 52  2  0  0  0  0
 56 55  3  0  0  0  0
 57 58  1  0  0  0  0
M  END
>  <MODEL>
3

>  <REMARK>
 VINA RESULT:      -1.2      5.048     11.781
  Name = 
  15 active torsions:
  status: ('A' for Active; 'I' for Inactive)
    1  A    between atoms: C_2  and  C_25
    2  A    between atoms: C_5  and  C_7
    3  A    between atoms: C_5  and  N_8
    4  A    between atoms: C_7  and  C_22
    5  A    between atoms: N_8  and  C_15
    6  A    between atoms: C_9  and  O_39
    7  A    between atoms: N_12  and  C_49
    8  A    between atoms: C_14  and  C_15
    9  A    between atoms: C_15  and  C_56
   10  A    between atoms: C_17  and  C_46
   11  A    between atoms: C_18  and  S_43
   12  A    between atoms: C_25  and  C_28
   13  A    between atoms: N_35  and  O_39
   14  A    between atoms: C_40  and  C_45
   15  A    between atoms: C_47  and  C_54
                            x       y       z     vdW  Elec       q    Type
                         _______ _______ _______ _____ _____    ______ ____

>  <TORSDO>
F 15

$$$$
=
 OpenBabel11042420063D

 58 64  0  0  1  0  0  0  0  0999 V2000
  160.2720  210.0370  148.8480 C   0  0  0  0  0  1  0  0  0  0  0  0
  163.1660  212.2360  146.2890 C   0  0  0  0  0  2  0  0  0  0  0  0
  162.2740  211.1460  148.3400 C   0  0  2  0  0  3  0  0  0  0  0  0
  162.2190  212.1210  147.2240 C   0  0  0  0  0  0  0  0  0  0  0  0
  160.0290  213.4760  149.4680 C   0  0  0  0  0  1  0  0  0  0  0  0
  160.9590  212.8940  147.2280 C   0  0  2  0  0  3  0  0  0  0  0  0
  161.0110  211.2680  149.0700 N   0  0  0  0  0  0  0  0  0  0  0  0
  160.2290  212.3560  148.4590 C   0  0  1  0  0  3  0  0  0  0  0  0
  158.8070  213.2590  146.0270 N   0  0  0  0  0  0  0  0  0  0  0  0
  160.9280  213.1030  144.7260 C   0  0  0  0  0  3  0  0  0  0  0  0
  158.9390  214.0610  143.8110 N   0  0  0  0  0  2  0  0  0  0  0  0
  158.2350  213.8720  145.0400 C   0  0  0  0  0  0  0  0  0  0  0  0
  160.1500  212.6660  145.9410 C   0  0  1  0  0  3  0  0  0  0  0  0
  160.3230  213.7100  143.6980 C   0  0  0  0  0  0  0  0  0  0  0  0
  156.8510  214.3990  145.1930 C   0  0  0  0  0  1  0  0  0  0  0  0
  161.0710  214.0690  142.4810 C   0  0  0  0  0  0  0  0  0  0  0  0
  162.5330  214.4050  142.5490 C   0  0  0  0  0  1  0  0  0  0  0  0
  160.4580  214.0560  141.3370 N   0  0  0  0  0  0  0  0  0  0  0  0
  161.0870  214.3730  140.1540 O   0  0  0  0  0  0  0  0  0  0  0  0
  162.1760  210.4080  138.6540 C   0  0  0  0  0  1  0  0  0  0  0  0
  161.8550  213.3880  139.4840 C   0  0  1  0  0  3  0  0  0  0  0  0
  161.8390  211.5910  137.7530 C   0  0  1  0  0  3  0  0  0  0  0  0
  161.0830  212.6090  138.4940 N   0  0  0  0  0  0  0  0  0  0  0  0
  163.0300  214.0570  138.7920 C   0  0  0  0  0  2  0  0  0  0  0  0
  163.0950  212.1970  137.1200 C   0  0  0  0  0  2  0  0  0  0  0  0
  163.9070  212.9990  138.1350 C   0  0  0  0  0  2  0  0  0  0  0  0
  157.6710  213.6140  137.2280 C   0  0  0  0  0  3  0  0  0  0  0  0
  159.0600  213.5620  137.3910 C   0  0  0  0  0  3  0  0  0  0  0  0
  155.1120  212.8480  137.8020 Cl  0  0  0  0  0  0  0  0  0  0  0  0
  159.6480  212.6740  138.3040 C   0  0  0  0  0  0  0  0  0  0  0  0
  158.8030  211.8360  139.0540 C   0  0  0  0  0  3  0  0  0  0  0  0
  157.4140  211.8910  138.9000 C   0  0  0  0  0  3  0  0  0  0  0  0
  156.8490  212.7760  137.9840 C   0  0  0  0  0  0  0  0  0  0  0  0
  163.4300  211.4810  149.2720 C   0  0  0  0  0  2  0  0  0  0  0  0
  163.0860  211.0550  150.6830 C   0  0  0  0  0  2  0  0  0  0  0  0
  162.6230  209.6760  150.6890 N   0  0  0  0  0  2  0  0  0  0  0  0
  162.3250  209.3180  152.0690 C   0  0  2  0  0  3  0  0  0  0  0  0
  161.5280  206.1360  153.4340 S   0  0  0  0  0  0  0  0  0  0  0  0
  160.4430  208.6320  153.4940 N   0  0  0  0  0  2  0  0  0  0  0  0
  161.2570  207.0420  151.9320 C   0  0  1  0  0  3  0  0  0  0  0  0
  160.4720  206.3300  150.7110 S   0  0  0  0  0  0  0  0  0  0  0  0
  161.0370  207.6230  154.3720 C   0  0  1  0  0  3  0  0  0  0  0  0
  161.0330  208.4910  152.1660 C   0  0  2  0  0  3  0  0  0  0  0  0
  161.6120  205.0900  150.0870 C   0  0  2  0  0  3  0  0  0  0  0  0
  160.8350  204.0790  149.2640 C   0  0  2  0  0  3  0  0  0  0  0  0
  161.2510  203.7450  150.6770 C   0  0  0  0  0  2  0  0  0  0  0  0
  161.7660  203.3710  148.2900 C   0  0  0  0  0  2  0  0  0  0  0  0
  161.0810  203.1390  145.8590 C   0  0  0  0  0  0  0  0  0  0  0  0
  161.5780  203.9270  146.9110 C   0  0  0  0  0  0  0  0  0  0  0  0
  160.8330  203.7070  144.6510 N   0  0  0  0  0  0  0  0  0  0  0  0
  160.7770  201.6930  146.0540 C   0  0  0  0  0  1  0  0  0  0  0  0
  161.5660  205.8450  145.4350 C   0  0  0  0  0  3  0  0  0  0  0  0
  161.0610  205.0300  144.4200 C   0  0  0  0  0  3  0  0  0  0  0  0
  161.8240  205.2850  146.6840 C   0  0  0  0  0  3  0  0  0  0  0  0
  159.3350  206.9960  156.2670 N   0  0  0  0  0  0  0  0  0  0  0  0
  160.0900  207.2790  155.4330 C   0  0  0  0  0  0  0  0  0  0  0  0
  162.1850  210.5840  152.9060 C   0  0  0  0  0  2  0  0  0  0  0  0
  162.9620  210.4220  154.2000 C   0  0  0  0  0  1  0  0  0  0  0  0
  1  7  1  0  0  0  0
  2  4  2  0  0  0  0
  3  7  1  0  0  0  0
  3 34  1  1  0  0  0
  4  3  1  0  0  0  0
  6  4  1  6  0  0  0
  6  8  1  0  0  0  0
  8  7  1  0  0  0  0
  8  5  1  1  0  0  0
 11 12  1  0  0  0  0
 12 15  1  0  0  0  0
 12  9  2  0  0  0  0
 13 10  1  6  0  0  0
 13  9  1  0  0  0  0
 13  6  1  0  0  0  0
 14 11  1  0  0  0  0
 14 10  2  0  0  0  0
 16 17  1  0  0  0  0
 16 14  1  0  0  0  0
 18 16  2  0  0  0  0
 19 18  1  0  0  0  0
 21 19  1  6  0  0  0
 22 23  1  0  0  0  0
 22 20  1  1  0  0  0
 23 21  1  0  0  0  0
 24 21  1  0  0  0  0
 25 22  1  0  0  0  0
 25 26  1  0  0  0  0
 26 24  1  0  0  0  0
 27 28  2  0  0  0  0
 27 33  1  0  0  0  0
 28 30  1  0  0  0  0
 29 33  1  0  0  0  0
 30 23  1  0  0  0  0
 30 31  2  0  0  0  0
 32 31  1  0  0  0  0
 33 32  2  0  0  0  0
 34 35  1  0  0  0  0
 35 36  1  0  0  0  0
 36 37  1  0  0  0  0
 37 57  1  1  0  0  0
 38 42  1  0  0  0  0
 39 42  1  0  0  0  0
 40 41  1  1  0  0  0
 40 43  1  0  0  0  0
 40 38  1  0  0  0  0
 42 56  1  1  0  0  0
 43 37  1  1  0  0  0
 43 39  1  0  0  0  0
 44 46  1  0  0  0  0
 44 41  1  1  0  0  0
 45 47  1  6  0  0  0
 45 44  1  0  0  0  0
 45 46  1  0  0  0  0
 48 51  1  0  0  0  0
 48 49  1  0  0  0  0
 49 47  1  0  0  0  0
 50 48  2  0  0  0  0
 52 54  1  0  0  0  0
 53 50  1  0  0  0  0
 53 52  2  0  0  0  0
 54 49  2  0  0  0  0
 56 55  3  0  0  0  0
 57 58  1  0  0  0  0
M  END
>  <MODEL>
4

>  <REMARK>
 VINA RESULT:      -1.1      5.108      9.692
  Name = 
  15 active torsions:
  status: ('A' for Active; 'I' for Inactive)
    1  A    between atoms: C_2  and  C_25
    2  A    between atoms: C_5  and  C_7
    3  A    between atoms: C_5  and  N_8
    4  A    between atoms: C_7  and  C_22
    5  A    between atoms: N_8  and  C_15
    6  A    between atoms: C_9  and  O_39
    7  A    between atoms: N_12  and  C_49
    8  A    between atoms: C_14  and  C_15
    9  A    between atoms: C_15  and  C_56
   10  A    between atoms: C_17  and  C_46
   11  A    between atoms: C_18  and  S_43
   12  A    between atoms: C_25  and  C_28
   13  A    between atoms: N_35  and  O_39
   14  A    between atoms: C_40  and  C_45
   15  A    between atoms: C_47  and  C_54
                            x       y       z     vdW  Elec       q    Type
                         _______ _______ _______ _____ _____    ______ ____

>  <TORSDO>
F 15

$$$$
=
 OpenBabel11042420063D

 58 64  0  0  1  0  0  0  0  0999 V2000
  163.1310  205.7000  152.0220 C   0  0  0  0  0  1  0  0  0  0  0  0
  160.4230  209.2230  152.1510 C   0  0  0  0  0  2  0  0  0  0  0  0
  161.7010  207.2700  153.0140 C   0  0  2  0  0  3  0  0  0  0  0  0
  160.7160  207.9200  152.1160 C   0  0  0  0  0  0  0  0  0  0  0  0
  159.7940  204.6350  151.9330 C   0  0  0  0  0  1  0  0  0  0  0  0
  160.1550  206.9700  151.1320 C   0  0  2  0  0  3  0  0  0  0  0  0
  161.8040  205.8730  152.5870 N   0  0  0  0  0  0  0  0  0  0  0  0
  160.8380  205.6520  151.4980 C   0  0  1  0  0  3  0  0  0  0  0  0
  161.2560  208.6400  149.6460 N   0  0  0  0  0  0  0  0  0  0  0  0
  161.0950  206.2620  148.9130 C   0  0  0  0  0  3  0  0  0  0  0  0
  162.6360  207.7980  147.9250 N   0  0  0  0  0  2  0  0  0  0  0  0
  162.2290  208.8400  148.8150 C   0  0  0  0  0  0  0  0  0  0  0  0
  160.4730  207.3950  149.6900 C   0  0  1  0  0  3  0  0  0  0  0  0
  162.0800  206.4830  148.0360 C   0  0  0  0  0  0  0  0  0  0  0  0
  162.9380  210.1490  148.8000 C   0  0  0  0  0  1  0  0  0  0  0  0
  162.6340  205.3850  147.2240 C   0  0  0  0  0  0  0  0  0  0  0  0
  164.1110  205.2890  146.9680 C   0  0  0  0  0  1  0  0  0  0  0  0
  161.8320  204.4760  146.7600 N   0  0  0  0  0  0  0  0  0  0  0  0
  162.2720  203.4170  145.9990 O   0  0  0  0  0  0  0  0  0  0  0  0
  160.1920  199.6750  145.0900 C   0  0  0  0  0  1  0  0  0  0  0  0
  161.3280  202.5540  145.3880 C   0  0  1  0  0  3  0  0  0  0  0  0
  159.5310  200.8660  145.7730 C   0  0  1  0  0  3  0  0  0  0  0  0
  160.5420  201.7590  146.3540 N   0  0  0  0  0  0  0  0  0  0  0  0
  160.3830  203.3780  144.5290 C   0  0  0  0  0  2  0  0  0  0  0  0
  158.6140  201.6320  144.8140 C   0  0  0  0  0  2  0  0  0  0  0  0
  159.4130  202.4530  143.8040 C   0  0  0  0  0  2  0  0  0  0  0  0
  160.8280  202.7060  149.9970 C   0  0  0  0  0  3  0  0  0  0  0  0
  160.5820  202.7930  148.6230 C   0  0  0  0  0  3  0  0  0  0  0  0
  161.6120  201.3940  152.2630 Cl  0  0  0  0  0  0  0  0  0  0  0  0
  160.7830  201.6890  147.7810 C   0  0  0  0  0  0  0  0  0  0  0  0
  161.2390  200.4890  148.3570 C   0  0  0  0  0  3  0  0  0  0  0  0
  161.4920  200.4000  149.7290 C   0  0  0  0  0  3  0  0  0  0  0  0
  161.2830  201.5070  150.5490 C   0  0  0  0  0  0  0  0  0  0  0  0
  161.2110  207.3220  154.4550 C   0  0  0  0  0  2  0  0  0  0  0  0
  161.2090  208.7560  154.9410 C   0  0  0  0  0  2  0  0  0  0  0  0
  159.9740  209.0390  155.6560 N   0  0  0  0  0  2  0  0  0  0  0  0
  160.2850  210.0000  156.7060 C   0  0  2  0  0  3  0  0  0  0  0  0
  157.6140  211.0430  154.6080 S   0  0  0  0  0  0  0  0  0  0  0  0
  158.3390  211.4180  157.2050 N   0  0  0  0  0  2  0  0  0  0  0  0
  159.2590  211.5670  155.0220 C   0  0  1  0  0  3  0  0  0  0  0  0
  159.8890  212.8550  154.2760 S   0  0  0  0  0  0  0  0  0  0  0  0
  157.2770  210.8290  156.3890 C   0  0  1  0  0  3  0  0  0  0  0  0
  159.5890  211.3480  156.4530 C   0  0  2  0  0  3  0  0  0  0  0  0
  160.1850  212.3150  152.5890 C   0  0  2  0  0  3  0  0  0  0  0  0
  159.8540  213.4540  151.6430 C   0  0  2  0  0  3  0  0  0  0  0  0
  158.8770  212.3190  151.8310 C   0  0  0  0  0  2  0  0  0  0  0  0
  160.5860  213.2680  150.3230 C   0  0  0  0  0  2  0  0  0  0  0  0
  160.2010  214.1240  147.9660 C   0  0  0  0  0  0  0  0  0  0  0  0
  159.6880  213.6480  149.1840 C   0  0  0  0  0  0  0  0  0  0  0  0
  159.3600  214.3640  146.9280 N   0  0  0  0  0  0  0  0  0  0  0  0
  161.6640  214.3340  147.7740 C   0  0  0  0  0  1  0  0  0  0  0  0
  157.4660  213.7000  148.2290 C   0  0  0  0  0  3  0  0  0  0  0  0
  158.0160  214.1620  147.0330 C   0  0  0  0  0  3  0  0  0  0  0  0
  158.3100  213.4450  149.3070 C   0  0  0  0  0  3  0  0  0  0  0  0
  154.9740  211.8960  157.0500 N   0  0  0  0  0  0  0  0  0  0  0  0
  155.9930  211.4290  156.7510 C   0  0  0  0  0  0  0  0  0  0  0  0
  161.7930  210.2100  156.7760 C   0  0  0  0  0  2  0  0  0  0  0  0
  162.0840  211.6440  157.1780 C   0  0  0  0  0  1  0  0  0  0  0  0
  1  7  1  0  0  0  0
  3 34  1  1  0  0  0
  4  2  2  0  0  0  0
  4  3  1  0  0  0  0
  6  8  1  0  0  0  0
  6  4  1  1  0  0  0
  7  3  1  0  0  0  0
  8  5  1  1  0  0  0
  8  7  1  0  0  0  0
  9 13  1  0  0  0  0
 11 14  1  0  0  0  0
 11 12  1  0  0  0  0
 12  9  2  0  0  0  0
 13 10  1  1  0  0  0
 13  6  1  0  0  0  0
 14 10  2  0  0  0  0
 15 12  1  0  0  0  0
 16 14  1  0  0  0  0
 17 16  1  0  0  0  0
 18 16  2  0  0  0  0
 19 18  1  0  0  0  0
 21 19  1  1  0  0  0
 21 23  1  0  0  0  0
 22 20  1  6  0  0  0
 22 23  1  0  0  0  0
 23 30  1  0  0  0  0
 24 21  1  0  0  0  0
 25 22  1  0  0  0  0
 26 24  1  0  0  0  0
 26 25  1  0  0  0  0
 27 33  1  0  0  0  0
 28 27  2  0  0  0  0
 30 31  2  0  0  0  0
 30 28  1  0  0  0  0
 31 32  1  0  0  0  0
 32 33  2  0  0  0  0
 33 29  1  0  0  0  0
 34 35  1  0  0  0  0
 35 36  1  0  0  0  0
 36 37  1  0  0  0  0
 37 57  1  6  0  0  0
 38 40  1  0  0  0  0
 38 42  1  0  0  0  0
 40 41  1  1  0  0  0
 40 43  1  0  0  0  0
 42 56  1  1  0  0  0
 42 39  1  0  0  0  0
 43 37  1  6  0  0  0
 43 39  1  0  0  0  0
 44 41  1  1  0  0  0
 45 47  1  6  0  0  0
 45 46  1  0  0  0  0
 45 44  1  0  0  0  0
 46 44  1  0  0  0  0
 48 49  1  0  0  0  0
 49 54  2  0  0  0  0
 49 47  1  0  0  0  0
 50 53  1  0  0  0  0
 50 48  2  0  0  0  0
 51 48  1  0  0  0  0
 52 54  1  0  0  0  0
 53 52  2  0  0  0  0
 56 55  3  0  0  0  0
 57 58  1  0  0  0  0
M  END
>  <MODEL>
5

>  <REMARK>
 VINA RESULT:       0.0      3.246     10.860
  Name = 
  15 active torsions:
  status: ('A' for Active; 'I' for Inactive)
    1  A    between atoms: C_2  and  C_25
    2  A    between atoms: C_5  and  C_7
    3  A    between atoms: C_5  and  N_8
    4  A    between atoms: C_7  and  C_22
    5  A    between atoms: N_8  and  C_15
    6  A    between atoms: C_9  and  O_39
    7  A    between atoms: N_12  and  C_49
    8  A    between atoms: C_14  and  C_15
    9  A    between atoms: C_15  and  C_56
   10  A    between atoms: C_17  and  C_46
   11  A    between atoms: C_18  and  S_43
   12  A    between atoms: C_25  and  C_28
   13  A    between atoms: N_35  and  O_39
   14  A    between atoms: C_40  and  C_45
   15  A    between atoms: C_47  and  C_54
                            x       y       z     vdW  Elec       q    Type
                         _______ _______ _______ _____ _____    ______ ____

>  <TORSDO>
F 15

$$$$
=
 OpenBabel11042420063D

 58 64  0  0  1  0  0  0  0  0999 V2000
  157.7680  211.2120  147.3370 C   0  0  0  0  0  1  0  0  0  0  0  0
  160.9550  214.2640  147.8720 C   0  0  0  0  0  2  0  0  0  0  0  0
  159.0120  212.8350  148.4830 C   0  0  2  0  0  3  0  0  0  0  0  0
  159.7090  213.8400  147.6440 C   0  0  0  0  0  0  0  0  0  0  0  0
  156.4310  214.4170  146.8740 C   0  0  0  0  0  1  0  0  0  0  0  0
  158.8900  214.2570  146.4870 C   0  0  2  0  0  3  0  0  0  0  0  0
  157.7210  212.5730  147.8410 N   0  0  0  0  0  0  0  0  0  0  0  0
  157.5980  213.4620  146.6740 C   0  0  1  0  0  3  0  0  0  0  0  0
  160.0820  212.5380  145.1330 N   0  0  0  0  0  0  0  0  0  0  0  0
  158.6920  214.2590  143.9830 C   0  0  0  0  0  3  0  0  0  0  0  0
  159.3500  212.2270  142.9100 N   0  0  0  0  0  2  0  0  0  0  0  0
  160.0080  211.7690  144.0930 C   0  0  0  0  0  0  0  0  0  0  0  0
  159.5780  213.9200  145.1540 C   0  0  1  0  0  3  0  0  0  0  0  0
  158.6440  213.4730  142.9010 C   0  0  0  0  0  0  0  0  0  0  0  0
  160.5890  210.3990  144.1380 C   0  0  0  0  0  1  0  0  0  0  0  0
  157.8340  213.8450  141.7280 C   0  0  0  0  0  0  0  0  0  0  0  0
  156.4350  214.3650  141.8940 C   0  0  0  0  0  1  0  0  0  0  0  0
  158.3580  213.7510  140.5440 N   0  0  0  0  0  0  0  0  0  0  0  0
  157.6690  214.0840  139.3990 O   0  0  0  0  0  0  0  0  0  0  0  0
  155.0390  211.5270  137.0110 C   0  0  0  0  0  1  0  0  0  0  0  0
  156.4990  213.3630  139.0530 C   0  0  1  0  0  3  0  0  0  0  0  0
  155.5670  211.1460  138.3890 C   0  0  1  0  0  3  0  0  0  0  0  0
  156.7520  211.9440  138.7300 N   0  0  0  0  0  0  0  0  0  0  0  0
  155.5030  213.4490  140.1970 C   0  0  0  0  0  2  0  0  0  0  0  0
  154.4880  211.2820  139.4670 C   0  0  0  0  0  2  0  0  0  0  0  0
  154.2100  212.7460  139.8050 C   0  0  0  0  0  2  0  0  0  0  0  0
  159.9430  210.0810  139.5020 C   0  0  0  0  0  3  0  0  0  0  0  0
  158.6790  210.6590  139.6560 C   0  0  0  0  0  3  0  0  0  0  0  0
  162.1960  209.4680  138.0820 Cl  0  0  0  0  0  0  0  0  0  0  0  0
  158.0570  211.3310  138.5920 C   0  0  0  0  0  0  0  0  0  0  0  0
  158.7410  211.4080  137.3650 C   0  0  0  0  0  3  0  0  0  0  0  0
  160.0090  210.8370  137.2100 C   0  0  0  0  0  3  0  0  0  0  0  0
  160.6080  210.1710  138.2770 C   0  0  0  0  0  0  0  0  0  0  0  0
  158.7760  213.3930  149.8800 C   0  0  0  0  0  2  0  0  0  0  0  0
  159.6790  212.6860  150.8680 C   0  0  0  0  0  2  0  0  0  0  0  0
  158.9050  211.7510  151.6710 N   0  0  0  0  0  2  0  0  0  0  0  0
  159.3890  211.8440  153.0420 C   0  0  2  0  0  3  0  0  0  0  0  0
  162.4610  210.1050  153.4470 S   0  0  0  0  0  0  0  0  0  0  0  0
  160.2530  210.5830  154.9680 N   0  0  0  0  0  2  0  0  0  0  0  0
  160.8340  209.7950  152.8050 C   0  0  1  0  0  3  0  0  0  0  0  0
  160.5110  208.3630  152.1290 S   0  0  0  0  0  0  0  0  0  0  0  0
  161.6920  210.8500  154.9260 C   0  0  1  0  0  3  0  0  0  0  0  0
  159.7670  210.4610  153.5960 C   0  0  2  0  0  3  0  0  0  0  0  0
  161.4260  208.3620  150.5840 C   0  0  2  0  0  3  0  0  0  0  0  0
  161.2960  206.9950  149.9380 C   0  0  2  0  0  3  0  0  0  0  0  0
  162.5580  207.3650  150.6790 C   0  0  0  0  0  2  0  0  0  0  0  0
  161.5500  207.0980  148.4410 C   0  0  0  0  0  2  0  0  0  0  0  0
  160.9560  205.6620  146.4360 C   0  0  0  0  0  0  0  0  0  0  0  0
  161.3110  205.7680  147.7910 C   0  0  0  0  0  0  0  0  0  0  0  0
  160.8450  204.4370  145.8630 N   0  0  0  0  0  0  0  0  0  0  0  0
  160.7400  206.8750  145.5970 C   0  0  0  0  0  1  0  0  0  0  0  0
  161.4040  203.3540  147.9210 C   0  0  0  0  0  3  0  0  0  0  0  0
  161.0610  203.2920  146.5700 C   0  0  0  0  0  3  0  0  0  0  0  0
  161.5270  204.6000  148.5300 C   0  0  0  0  0  3  0  0  0  0  0  0
  162.8070  209.9550  157.1240 N   0  0  0  0  0  0  0  0  0  0  0  0
  162.3190  210.3470  156.1470 C   0  0  0  0  0  0  0  0  0  0  0  0
  158.3130  212.4690  153.9220 C   0  0  0  0  0  2  0  0  0  0  0  0
  157.0440  211.6400  153.8310 C   0  0  0  0  0  1  0  0  0  0  0  0
  1  7  1  0  0  0  0
  3 34  1  1  0  0  0
  4  2  2  0  0  0  0
  4  3  1  0  0  0  0
  6  8  1  0  0  0  0
  6  4  1  1  0  0  0
  7  3  1  0  0  0  0
  8  5  1  1  0  0  0
  8  7  1  0  0  0  0
  9 13  1  0  0  0  0
 11 12  1  0  0  0  0
 12 15  1  0  0  0  0
 12  9  2  0  0  0  0
 13 10  1  6  0  0  0
 13  6  1  0  0  0  0
 14 11  1  0  0  0  0
 14 10  2  0  0  0  0
 16 17  1  0  0  0  0
 16 14  1  0  0  0  0
 18 16  2  0  0  0  0
 19 18  1  0  0  0  0
 21 19  1  1  0  0  0
 21 24  1  0  0  0  0
 22 20  1  6  0  0  0
 22 23  1  0  0  0  0
 22 25  1  0  0  0  0
 23 21  1  0  0  0  0
 25 26  1  0  0  0  0
 26 24  1  0  0  0  0
 27 28  1  0  0  0  0
 29 33  1  0  0  0  0
 30 23  1  0  0  0  0
 30 28  2  0  0  0  0
 31 30  1  0  0  0  0
 32 31  2  0  0  0  0
 32 33  1  0  0  0  0
 33 27  2  0  0  0  0
 34 35  1  0  0  0  0
 35 36  1  0  0  0  0
 36 37  1  0  0  0  0
 37 57  1  1  0  0  0
 38 42  1  0  0  0  0
 40 41  1  1  0  0  0
 40 38  1  0  0  0  0
 40 43  1  0  0  0  0
 42 39  1  0  0  0  0
 42 56  1  1  0  0  0
 43 37  1  6  0  0  0
 43 39  1  0  0  0  0
 44 46  1  0  0  0  0
 44 41  1  1  0  0  0
 45 47  1  6  0  0  0
 45 44  1  0  0  0  0
 45 46  1  0  0  0  0
 48 49  1  0  0  0  0
 49 47  1  0  0  0  0
 49 54  2  0  0  0  0
 50 48  2  0  0  0  0
 50 53  1  0  0  0  0
 51 48  1  0  0  0  0
 52 54  1  0  0  0  0
 53 52  2  0  0  0  0
 56 55  3  0  0  0  0
 58 57  1  0  0  0  0
M  END
>  <MODEL>
6

>  <REMARK>
 VINA RESULT:       0.2      5.172      9.626
  Name = 
  15 active torsions:
  status: ('A' for Active; 'I' for Inactive)
    1  A    between atoms: C_2  and  C_25
    2  A    between atoms: C_5  and  C_7
    3  A    between atoms: C_5  and  N_8
    4  A    between atoms: C_7  and  C_22
    5  A    between atoms: N_8  and  C_15
    6  A    between atoms: C_9  and  O_39
    7  A    between atoms: N_12  and  C_49
    8  A    between atoms: C_14  and  C_15
    9  A    between atoms: C_15  and  C_56
   10  A    between atoms: C_17  and  C_46
   11  A    between atoms: C_18  and  S_43
   12  A    between atoms: C_25  and  C_28
   13  A    between atoms: N_35  and  O_39
   14  A    between atoms: C_40  and  C_45
   15  A    between atoms: C_47  and  C_54
                            x       y       z     vdW  Elec       q    Type
                         _______ _______ _______ _____ _____    ______ ____

>  <TORSDO>
F 15

$$$$
=
 OpenBabel11042420063D

 58 64  0  0  1  0  0  0  0  0999 V2000
  160.0640  206.9240  147.7450 C   0  0  0  0  0  1  0  0  0  0  0  0
  161.4750  202.8180  148.7000 C   0  0  0  0  0  2  0  0  0  0  0  0
  160.6850  205.1380  149.1300 C   0  0  2  0  0  3  0  0  0  0  0  0
  161.6060  204.1380  148.5380 C   0  0  0  0  0  0  0  0  0  0  0  0
  163.4930  206.9850  148.4600 C   0  0  0  0  0  1  0  0  0  0  0  0
  162.6370  204.7720  147.6900 C   0  0  2  0  0  3  0  0  0  0  0  0
  161.1100  206.4490  148.6340 N   0  0  0  0  0  0  0  0  0  0  0  0
  162.3200  206.2620  147.8170 C   0  0  1  0  0  3  0  0  0  0  0  0
  161.5760  203.1960  146.0770 N   0  0  0  0  0  0  0  0  0  0  0  0
  162.3090  205.4470  145.2930 C   0  0  0  0  0  3  0  0  0  0  0  0
  160.7470  204.1170  144.0680 N   0  0  0  0  0  2  0  0  0  0  0  0
  160.7720  203.0960  145.0670 C   0  0  0  0  0  0  0  0  0  0  0  0
  162.5460  204.2920  146.2330 C   0  0  1  0  0  3  0  0  0  0  0  0
  161.4970  205.3250  144.2370 C   0  0  0  0  0  0  0  0  0  0  0  0
  159.8560  201.9270  144.9590 C   0  0  0  0  0  1  0  0  0  0  0  0
  161.3260  206.4310  143.2790 C   0  0  0  0  0  0  0  0  0  0  0  0
  160.4680  207.6160  143.6200 C   0  0  0  0  0  1  0  0  0  0  0  0
  161.9570  206.3880  142.1450 N   0  0  0  0  0  0  0  0  0  0  0  0
  161.8530  207.3840  141.2000 O   0  0  0  0  0  0  0  0  0  0  0  0
  160.1980  207.3830  137.1480 C   0  0  0  0  0  1  0  0  0  0  0  0
  161.7330  207.0390  139.8310 C   0  0  1  0  0  3  0  0  0  0  0  0
  161.5870  207.9030  137.4950 C   0  0  1  0  0  3  0  0  0  0  0  0
  161.6860  208.2070  138.9280 N   0  0  0  0  0  0  0  0  0  0  0  0
  162.8980  206.1460  139.4380 C   0  0  0  0  0  2  0  0  0  0  0  0
  162.6830  206.9210  137.0680 C   0  0  0  0  0  2  0  0  0  0  0  0
  162.7370  205.7030  137.9890 C   0  0  0  0  0  2  0  0  0  0  0  0
  160.4570  211.7510  139.3580 C   0  0  0  0  0  3  0  0  0  0  0  0
  160.5260  210.4150  138.9490 C   0  0  0  0  0  3  0  0  0  0  0  0
  161.3920  213.9580  140.6700 Cl  0  0  0  0  0  0  0  0  0  0  0  0
  161.5910  209.5910  139.3460 C   0  0  0  0  0  0  0  0  0  0  0  0
  162.5890  210.1470  140.1670 C   0  0  0  0  0  3  0  0  0  0  0  0
  162.5270  211.4840  140.5710 C   0  0  0  0  0  3  0  0  0  0  0  0
  161.4600  212.2840  140.1710 C   0  0  0  0  0  0  0  0  0  0  0  0
  160.7920  205.1150  150.6490 C   0  0  0  0  0  2  0  0  0  0  0  0
  160.2770  206.4200  151.2160 C   0  0  0  0  0  2  0  0  0  0  0  0
  161.3390  207.1060  151.9350 N   0  0  0  0  0  2  0  0  0  0  0  0
  160.7140  207.9460  152.9480 C   0  0  2  0  0  3  0  0  0  0  0  0
  160.4410  210.6520  155.2330 S   0  0  0  0  0  0  0  0  0  0  0  0
  162.4490  209.0910  154.2600 N   0  0  0  0  0  2  0  0  0  0  0  0
  160.6300  210.4050  153.4850 C   0  0  1  0  0  3  0  0  0  0  0  0
  160.6540  211.6890  152.5030 S   0  0  0  0  0  0  0  0  0  0  0  0
  161.7610  209.4220  155.5090 C   0  0  1  0  0  3  0  0  0  0  0  0
  161.5020  209.2480  153.1590 C   0  0  2  0  0  3  0  0  0  0  0  0
  158.9710  212.3150  152.5170 C   0  0  2  0  0  3  0  0  0  0  0  0
  158.8910  213.5270  151.6070 C   0  0  2  0  0  3  0  0  0  0  0  0
  158.9660  213.7080  153.1040 C   0  0  0  0  0  2  0  0  0  0  0  0
  157.4560  213.7440  151.1500 C   0  0  0  0  0  2  0  0  0  0  0  0
  156.1980  213.9880  148.9610 C   0  0  0  0  0  0  0  0  0  0  0  0
  157.4140  213.8990  149.6600 C   0  0  0  0  0  0  0  0  0  0  0  0
  156.2050  214.2250  147.6240 N   0  0  0  0  0  0  0  0  0  0  0  0
  154.8910  213.8680  149.6670 C   0  0  0  0  0  1  0  0  0  0  0  0
  158.5960  214.2820  147.5840 C   0  0  0  0  0  3  0  0  0  0  0  0
  157.3670  214.3750  146.9290 C   0  0  0  0  0  3  0  0  0  0  0  0
  158.6140  214.0420  148.9550 C   0  0  0  0  0  3  0  0  0  0  0  0
  163.5100  210.3060  157.2520 N   0  0  0  0  0  0  0  0  0  0  0  0
  162.7330  209.9120  156.4870 C   0  0  0  0  0  0  0  0  0  0  0  0
  160.6290  207.1810  154.2640 C   0  0  0  0  0  2  0  0  0  0  0  0
  159.2190  207.2830  154.8150 C   0  0  0  0  0  1  0  0  0  0  0  0
  1  7  1  0  0  0  0
  3 34  1  1  0  0  0
  4  2  2  0  0  0  0
  4  3  1  0  0  0  0
  6  8  1  0  0  0  0
  6  4  1  1  0  0  0
  7  3  1  0  0  0  0
  8  5  1  1  0  0  0
  8  7  1  0  0  0  0
  9 13  1  0  0  0  0
 11 14  1  0  0  0  0
 11 12  1  0  0  0  0
 12  9  2  0  0  0  0
 13 10  1  6  0  0  0
 13  6  1  0  0  0  0
 14 10  2  0  0  0  0
 15 12  1  0  0  0  0
 16 17  1  0  0  0  0
 16 14  1  0  0  0  0
 18 16  2  0  0  0  0
 19 18  1  0  0  0  0
 21 19  1  1  0  0  0
 22 20  1  1  0  0  0
 22 23  1  0  0  0  0
 23 30  1  0  0  0  0
 23 21  1  0  0  0  0
 24 21  1  0  0  0  0
 25 22  1  0  0  0  0
 25 26  1  0  0  0  0
 26 24  1  0  0  0  0
 27 33  1  0  0  0  0
 28 30  1  0  0  0  0
 28 27  2  0  0  0  0
 30 31  2  0  0  0  0
 31 32  1  0  0  0  0
 33 32  2  0  0  0  0
 33 29  1  0  0  0  0
 34 35  1  0  0  0  0
 35 36  1  0  0  0  0
 36 37  1  0  0  0  0
 37 57  1  1  0  0  0
 38 42  1  0  0  0  0
 39 42  1  0  0  0  0
 40 41  1  1  0  0  0
 40 38  1  0  0  0  0
 42 56  1  1  0  0  0
 43 37  1  1  0  0  0
 43 40  1  0  0  0  0
 43 39  1  0  0  0  0
 44 41  1  6  0  0  0
 44 46  1  0  0  0  0
 45 47  1  1  0  0  0
 45 44  1  0  0  0  0
 45 46  1  0  0  0  0
 48 49  1  0  0  0  0
 48 51  1  0  0  0  0
 49 47  1  0  0  0  0
 50 48  2  0  0  0  0
 52 54  1  0  0  0  0
 53 52  2  0  0  0  0
 53 50  1  0  0  0  0
 54 49  2  0  0  0  0
 56 55  3  0  0  0  0
 57 58  1  0  0  0  0
M  END
>  <MODEL>
7

>  <REMARK>
 VINA RESULT:       0.3      5.084     12.143
  Name = 
  15 active torsions:
  status: ('A' for Active; 'I' for Inactive)
    1  A    between atoms: C_2  and  C_25
    2  A    between atoms: C_5  and  C_7
    3  A    between atoms: C_5  and  N_8
    4  A    between atoms: C_7  and  C_22
    5  A    between atoms: N_8  and  C_15
    6  A    between atoms: C_9  and  O_39
    7  A    between atoms: N_12  and  C_49
    8  A    between atoms: C_14  and  C_15
    9  A    between atoms: C_15  and  C_56
   10  A    between atoms: C_17  and  C_46
   11  A    between atoms: C_18  and  S_43
   12  A    between atoms: C_25  and  C_28
   13  A    between atoms: N_35  and  O_39
   14  A    between atoms: C_40  and  C_45
   15  A    between atoms: C_47  and  C_54
                            x       y       z     vdW  Elec       q    Type
                         _______ _______ _______ _____ _____    ______ ____

>  <TORSDO>
F 15

$$$$
=
 OpenBabel11042420063D

 58 64  0  0  1  0  0  0  0  0999 V2000
  159.3200  203.8690  144.5630 C   0  0  0  0  0  1  0  0  0  0  0  0
  161.2250  207.6850  145.8150 C   0  0  0  0  0  2  0  0  0  0  0  0
  160.6370  205.7910  144.3120 C   0  0  2  0  0  3  0  0  0  0  0  0
  161.1910  206.3740  145.5580 C   0  0  0  0  0  0  0  0  0  0  0  0
  162.6420  203.2820  145.5090 C   0  0  0  0  0  1  0  0  0  0  0  0
  161.6300  205.3310  146.5080 C   0  0  2  0  0  3  0  0  0  0  0  0
  160.6920  204.3360  144.4670 N   0  0  0  0  0  0  0  0  0  0  0  0
  161.3430  204.0340  145.7530 C   0  0  1  0  0  3  0  0  0  0  0  0
  160.9470  204.1520  148.5950 N   0  0  0  0  0  0  0  0  0  0  0  0
  161.2360  206.6290  148.6220 C   0  0  0  0  0  3  0  0  0  0  0  0
  161.2150  205.3250  150.6260 N   0  0  0  0  0  2  0  0  0  0  0  0
  161.0830  204.1120  149.8820 C   0  0  0  0  0  0  0  0  0  0  0  0
  160.8490  205.4050  147.8300 C   0  0  1  0  0  3  0  0  0  0  0  0
  161.3450  206.5840  149.9550 C   0  0  0  0  0  0  0  0  0  0  0  0
  161.1220  202.8000  150.5860 C   0  0  0  0  0  1  0  0  0  0  0  0
  161.6500  207.7980  150.7330 C   0  0  0  0  0  0  0  0  0  0  0  0
  161.9770  209.0900  150.0420 C   0  0  0  0  0  1  0  0  0  0  0  0
  161.5970  207.7460  152.0290 N   0  0  0  0  0  0  0  0  0  0  0  0
  161.8630  208.8370  152.8260 O   0  0  0  0  0  0  0  0  0  0  0  0
  161.3370  210.2380  156.9390 C   0  0  0  0  0  1  0  0  0  0  0  0
  161.6370  208.7540  154.2230 C   0  0  1  0  0  3  0  0  0  0  0  0
  160.2430  209.5470  156.1340 C   0  0  1  0  0  3  0  0  0  0  0  0
  160.5340  209.6150  154.6960 N   0  0  0  0  0  0  0  0  0  0  0  0
  161.3440  207.3110  154.5960 C   0  0  0  0  0  2  0  0  0  0  0  0
  160.0420  208.0960  156.5820 C   0  0  0  0  0  2  0  0  0  0  0  0
  161.1800  207.1950  156.1060 C   0  0  0  0  0  2  0  0  0  0  0  0
  157.8610  211.9540  153.4180 C   0  0  0  0  0  3  0  0  0  0  0  0
  158.5240  211.0080  154.2070 C   0  0  0  0  0  3  0  0  0  0  0  0
  157.6680  213.6700  151.3010 Cl  0  0  0  0  0  0  0  0  0  0  0  0
  159.8310  210.5980  153.8980 C   0  0  0  0  0  0  0  0  0  0  0  0
  160.4560  211.1650  152.7730 C   0  0  0  0  0  3  0  0  0  0  0  0
  159.7930  212.1050  151.9780 C   0  0  0  0  0  3  0  0  0  0  0  0
  158.4980  212.5030  152.3030 C   0  0  0  0  0  0  0  0  0  0  0  0
  161.4880  206.2030  143.1180 C   0  0  0  0  0  2  0  0  0  0  0  0
  160.8540  207.3920  142.4280 C   0  0  0  0  0  2  0  0  0  0  0  0
  161.3170  207.4750  141.0510 N   0  0  0  0  0  2  0  0  0  0  0  0
  160.8730  208.7550  140.5140 C   0  0  2  0  0  3  0  0  0  0  0  0
  160.4700  211.3320  138.1020 S   0  0  0  0  0  0  0  0  0  0  0  0
  162.4410  209.5940  138.8170 N   0  0  0  0  0  2  0  0  0  0  0  0
  160.1340  209.5960  138.2590 C   0  0  1  0  0  3  0  0  0  0  0  0
  159.3840  208.8240  137.0520 S   0  0  0  0  0  0  0  0  0  0  0  0
  162.1440  211.0270  138.7650 C   0  0  1  0  0  3  0  0  0  0  0  0
  161.1880  208.8710  139.0150 C   0  0  2  0  0  3  0  0  0  0  0  0
  157.6980  209.4390  137.0850 C   0  0  2  0  0  3  0  0  0  0  0  0
  157.3670  209.8930  138.4950 C   0  0  2  0  0  3  0  0  0  0  0  0
  156.8680  208.5600  137.9920 C   0  0  0  0  0  2  0  0  0  0  0  0
  156.2240  210.8960  138.4670 C   0  0  0  0  0  2  0  0  0  0  0  0
  155.8720  213.3370  139.0590 C   0  0  0  0  0  0  0  0  0  0  0  0
  156.6460  212.1670  139.1400 C   0  0  0  0  0  0  0  0  0  0  0  0
  156.2400  214.4380  139.7630 N   0  0  0  0  0  0  0  0  0  0  0  0
  154.6250  213.3830  138.2450 C   0  0  0  0  0  1  0  0  0  0  0  0
  158.1550  213.3100  140.6470 C   0  0  0  0  0  3  0  0  0  0  0  0
  157.3530  214.4480  140.5490 C   0  0  0  0  0  3  0  0  0  0  0  0
  157.7950  212.1680  139.9360 C   0  0  0  0  0  3  0  0  0  0  0  0
  163.9670  212.2420  137.3240 N   0  0  0  0  0  0  0  0  0  0  0  0
  163.1550  211.7070  137.9560 C   0  0  0  0  0  0  0  0  0  0  0  0
  161.5570  209.8890  141.2690 C   0  0  0  0  0  2  0  0  0  0  0  0
  160.5040  210.8290  141.8270 C   0  0  0  0  0  1  0  0  0  0  0  0
  3 34  1  6  0  0  0
  3  7  1  0  0  0  0
  3  4  1  0  0  0  0
  4  2  2  0  0  0  0
  6  4  1  6  0  0  0
  6 13  1  0  0  0  0
  7  1  1  0  0  0  0
  7  8  1  0  0  0  0
  8  5  1  6  0  0  0
  8  6  1  0  0  0  0
  9 12  2  0  0  0  0
 10 14  2  0  0  0  0
 12 15  1  0  0  0  0
 12 11  1  0  0  0  0
 13  9  1  0  0  0  0
 13 10  1  1  0  0  0
 14 11  1  0  0  0  0
 14 16  1  0  0  0  0
 16 18  2  0  0  0  0
 17 16  1  0  0  0  0
 18 19  1  0  0  0  0
 21 19  1  6  0  0  0
 21 24  1  0  0  0  0
 21 23  1  0  0  0  0
 22 25  1  0  0  0  0
 22 20  1  1  0  0  0
 23 22  1  0  0  0  0
 24 26  1  0  0  0  0
 26 25  1  0  0  0  0
 27 28  1  0  0  0  0
 29 33  1  0  0  0  0
 30 28  2  0  0  0  0
 30 23  1  0  0  0  0
 31 30  1  0  0  0  0
 32 33  1  0  0  0  0
 32 31  2  0  0  0  0
 33 27  2  0  0  0  0
 35 34  1  0  0  0  0
 36 35  1  0  0  0  0
 37 36  1  0  0  0  0
 37 57  1  1  0  0  0
 38 40  1  0  0  0  0
 38 42  1  0  0  0  0
 39 43  1  0  0  0  0
 40 41  1  6  0  0  0
 40 43  1  0  0  0  0
 42 56  1  6  0  0  0
 42 39  1  0  0  0  0
 43 37  1  1  0  0  0
 44 41  1  1  0  0  0
 44 46  1  0  0  0  0
 44 45  1  0  0  0  0
 45 47  1  6  0  0  0
 46 45  1  0  0  0  0
 47 49  1  0  0  0  0
 48 49  2  0  0  0  0
 48 50  1  0  0  0  0
 49 54  1  0  0  0  0
 50 53  2  0  0  0  0
 51 48  1  0  0  0  0
 53 52  1  0  0  0  0
 54 52  2  0  0  0  0
 55 56  3  0  0  0  0
 57 58  1  0  0  0  0
M  END
>  <MODEL>
8

>  <REMARK>
 VINA RESULT:       1.1      5.675     10.348
  Name = 
  15 active torsions:
  status: ('A' for Active; 'I' for Inactive)
    1  A    between atoms: C_2  and  C_25
    2  A    between atoms: C_5  and  C_7
    3  A    between atoms: C_5  and  N_8
    4  A    between atoms: C_7  and  C_22
    5  A    between atoms: N_8  and  C_15
    6  A    between atoms: C_9  and  O_39
    7  A    between atoms: N_12  and  C_49
    8  A    between atoms: C_14  and  C_15
    9  A    between atoms: C_15  and  C_56
   10  A    between atoms: C_17  and  C_46
   11  A    between atoms: C_18  and  S_43
   12  A    between atoms: C_25  and  C_28
   13  A    between atoms: N_35  and  O_39
   14  A    between atoms: C_40  and  C_45
   15  A    between atoms: C_47  and  C_54
                            x       y       z     vdW  Elec       q    Type
                         _______ _______ _______ _____ _____    ______ ____

>  <TORSDO>
F 15

$$$$
