=
 OpenBabel11052411183D

 31 34  0  0  1  0  0  0  0  0999 V2000
  160.8450  206.8840  152.6470 C   0  0  2  0  0  3  0  0  0  0  0  0
  161.9590  206.8780  151.6960 N   0  0  0  0  0  2  0  0  0  0  0  0
  161.1360  210.5090  151.7500 C   0  0  0  0  0  0  0  0  0  0  0  0
  160.4500  208.3230  152.8990 C   0  0  0  0  0  2  0  0  0  0  0  0
  161.7860  211.0380  150.8060 O   0  0  0  0  0  0  0  0  0  0  0  0
  161.1750  209.0770  151.9050 N   0  0  0  0  0  0  0  0  0  0  0  0
  162.0200  208.2120  151.1060 C   0  0  2  0  0  3  0  0  0  0  0  0
  159.9540  212.3230  154.8340 N   0  0  0  0  0  0  0  0  0  0  0  0
  160.3650  211.3860  152.6700 C   0  0  0  0  0  0  0  0  0  0  0  0
  161.8640  210.8930  154.5730 N   0  0  0  0  0  1  0  0  0  0  0  0
  160.7120  211.5320  154.0290 C   0  0  0  0  0  0  0  0  0  0  0  0
  158.4910  212.8550  153.0790 C   0  0  0  0  0  0  0  0  0  0  0  0
  159.2290  212.0590  152.2080 C   0  0  0  0  0  3  0  0  0  0  0  0
  158.8760  212.9630  154.3760 N   0  0  0  0  0  0  0  0  0  0  0  0
  157.3370  213.5460  152.6150 N   0  0  0  0  0  1  0  0  0  0  0  0
  161.5080  208.1590  149.6720 C   0  0  0  0  0  2  0  0  0  0  0  0
  162.0060  206.9020  148.9780 C   0  0  1  0  0  3  0  0  0  0  0  0
  160.8250  206.0400  148.5730 C   0  0  1  0  0  3  0  0  0  0  0  0
  162.2920  207.1930  147.5150 C   0  0  0  0  0  2  0  0  0  0  0  0
  161.1180  206.3220  147.1090 C   0  0  0  0  0  2  0  0  0  0  0  0
  159.6940  200.8040  150.1900 O   0  0  0  0  0  0  0  0  0  0  0  0
  160.6430  204.1410  150.0860 C   0  0  0  0  0  3  0  0  0  0  0  0
  161.7850  203.7500  148.0080 N   0  0  0  0  0  2  0  0  0  0  0  0
  160.9350  201.5170  148.3620 N   0  0  0  0  0  2  0  0  0  0  0  0
  161.1290  202.6000  147.4040 C   0  0  0  0  0  2  0  0  0  0  0  0
  161.0720  204.6000  148.9120 C   0  0  0  0  0  0  0  0  0  0  0  0
  160.4580  201.6750  149.7020 C   0  0  0  0  0  0  0  0  0  0  0  0
  160.9630  202.7700  150.5880 C   0  0  0  0  0  2  0  0  0  0  0  0
  161.2640  206.2310  153.9520 C   0  0  0  0  0  2  0  0  0  0  0  0
  160.0380  207.1040  156.2210 S   0  0  0  0  0  1  0  0  0  0  0  0
  161.4020  207.2780  155.0390 C   0  0  0  0  0  2  0  0  0  0  0  0
  1  4  1  0  0  0  0
  1 29  1  1  0  0  0
  2  1  1  0  0  0  0
  3  6  1  0  0  0  0
  3  9  1  0  0  0  0
  5  3  2  0  0  0  0
  6  4  1  0  0  0  0
  7 16  1  6  0  0  0
  7  2  1  0  0  0  0
  7  6  1  0  0  0  0
  9 11  1  0  0  0  0
 11 10  1  0  0  0  0
 11  8  2  0  0  0  0
 12 14  2  0  0  0  0
 13  9  2  0  0  0  0
 13 12  1  0  0  0  0
 14  8  1  0  0  0  0
 15 12  1  0  0  0  0
 17 16  1  1  0  0  0
 18 26  1  6  0  0  0
 18 17  1  0  0  0  0
 19 17  1  0  0  0  0
 20 19  1  0  0  0  0
 20 18  1  0  0  0  0
 22 28  1  0  0  0  0
 23 26  1  0  0  0  0
 24 27  1  0  0  0  0
 25 23  1  0  0  0  0
 25 24  1  0  0  0  0
 26 22  2  0  0  0  0
 27 21  2  0  0  0  0
 27 28  1  0  0  0  0
 29 31  1  0  0  0  0
 31 30  1  0  0  0  0
M  END
>  <MODEL>
1

>  <REMARK>
 VINA RESULT:      -8.1      0.000      0.000
  Name = 
  6 active torsions:
  status: ('A' for Active; 'I' for Inactive)
    1  A    between atoms: C_1  and  C_10
    2  A    between atoms: C_1  and  C_29
    3  A    between atoms: C_2  and  C_16
    4  A    between atoms: C_5  and  C_8
    5  A    between atoms: C_11  and  C_26
    6  A    between atoms: C_14  and  C_16
                            x       y       z     vdW  Elec       q    Type
                         _______ _______ _______ _____ _____    ______ ____

>  <TORSDO>
F 6

$$$$
=
 OpenBabel11052411183D

 31 34  0  0  1  0  0  0  0  0999 V2000
  162.1290  209.5580  151.0180 C   0  0  2  0  0  3  0  0  0  0  0  0
  161.2290  208.4360  150.7330 N   0  0  0  0  0  2  0  0  0  0  0  0
  160.8210  208.7100  154.4240 C   0  0  0  0  0  0  0  0  0  0  0  0
  161.9970  209.9040  152.4840 C   0  0  0  0  0  2  0  0  0  0  0  0
  160.1830  207.6850  154.7910 O   0  0  0  0  0  0  0  0  0  0  0  0
  161.2240  208.8230  153.0450 N   0  0  0  0  0  0  0  0  0  0  0  0
  160.8300  207.8750  152.0210 C   0  0  2  0  0  3  0  0  0  0  0  0
  160.4690  211.6040  156.8110 N   0  0  0  0  0  0  0  0  0  0  0  0
  161.1250  209.7650  155.4270 C   0  0  0  0  0  0  0  0  0  0  0  0
  158.7690  210.5080  155.5190 N   0  0  0  0  0  1  0  0  0  0  0  0
  160.1310  210.6370  155.9170 C   0  0  0  0  0  0  0  0  0  0  0  0
  162.7230  210.9530  156.7950 C   0  0  0  0  0  0  0  0  0  0  0  0
  162.4360  209.9460  155.8790 C   0  0  0  0  0  3  0  0  0  0  0  0
  161.7250  211.7600  157.2360 N   0  0  0  0  0  0  0  0  0  0  0  0
  164.0540  211.1410  157.2610 N   0  0  0  0  0  1  0  0  0  0  0  0
  161.5380  206.5450  152.2390 C   0  0  0  0  0  2  0  0  0  0  0  0
  160.8280  205.4360  151.4800 C   0  0  1  0  0  3  0  0  0  0  0  0
  161.8430  204.6090  150.7120 C   0  0  1  0  0  3  0  0  0  0  0  0
  160.5670  204.2570  152.4010 C   0  0  0  0  0  2  0  0  0  0  0  0
  161.5740  203.4270  151.6270 C   0  0  0  0  0  2  0  0  0  0  0  0
  162.0730  204.0680  145.1480 O   0  0  0  0  0  0  0  0  0  0  0  0
  161.6040  205.2530  148.3760 C   0  0  0  0  0  3  0  0  0  0  0  0
  160.6460  203.1420  149.0100 N   0  0  0  0  0  2  0  0  0  0  0  0
  161.1420  202.6190  146.7050 N   0  0  0  0  0  2  0  0  0  0  0  0
  161.2000  202.1610  148.0880 C   0  0  0  0  0  2  0  0  0  0  0  0
  161.3670  204.3390  149.3160 C   0  0  0  0  0  0  0  0  0  0  0  0
  161.4910  203.9320  146.2540 C   0  0  0  0  0  0  0  0  0  0  0  0
  161.0480  205.1560  146.9920 C   0  0  0  0  0  2  0  0  0  0  0  0
  161.7540  210.7600  150.1700 C   0  0  0  0  0  2  0  0  0  0  0  0
  162.6150  212.2420  148.0540 S   0  0  0  0  0  1  0  0  0  0  0  0
  162.3090  210.6040  148.7680 C   0  0  0  0  0  2  0  0  0  0  0  0
  1 29  1  6  0  0  0
  1  4  1  0  0  0  0
  2  1  1  0  0  0  0
  2  7  1  0  0  0  0
  3  5  2  0  0  0  0
  3  9  1  0  0  0  0
  4  6  1  0  0  0  0
  6  3  1  0  0  0  0
  7 16  1  1  0  0  0
  7  6  1  0  0  0  0
  8 14  1  0  0  0  0
  9 13  2  0  0  0  0
  9 11  1  0  0  0  0
 10 11  1  0  0  0  0
 11  8  2  0  0  0  0
 12 14  2  0  0  0  0
 12 15  1  0  0  0  0
 13 12  1  0  0  0  0
 17 16  1  1  0  0  0
 17 19  1  0  0  0  0
 18 26  1  6  0  0  0
 18 17  1  0  0  0  0
 18 20  1  0  0  0  0
 20 19  1  0  0  0  0
 21 27  2  0  0  0  0
 22 26  2  0  0  0  0
 23 26  1  0  0  0  0
 24 25  1  0  0  0  0
 25 23  1  0  0  0  0
 27 24  1  0  0  0  0
 27 28  1  0  0  0  0
 28 22  1  0  0  0  0
 30 31  1  0  0  0  0
 31 29  1  0  0  0  0
M  END
>  <MODEL>
2

>  <REMARK>
 VINA RESULT:      -8.0      3.070      4.462
  Name = 
  6 active torsions:
  status: ('A' for Active; 'I' for Inactive)
    1  A    between atoms: C_1  and  C_10
    2  A    between atoms: C_1  and  C_29
    3  A    between atoms: C_2  and  C_16
    4  A    between atoms: C_5  and  C_8
    5  A    between atoms: C_11  and  C_26
    6  A    between atoms: C_14  and  C_16
                            x       y       z     vdW  Elec       q    Type
                         _______ _______ _______ _____ _____    ______ ____

>  <TORSDO>
F 6

$$$$
=
 OpenBabel11052411183D

 31 34  0  0  1  0  0  0  0  0999 V2000
  160.8070  207.1030  152.9920 C   0  0  2  0  0  3  0  0  0  0  0  0
  161.8790  207.0290  151.9960 N   0  0  0  0  0  2  0  0  0  0  0  0
  161.0950  210.6670  151.8770 C   0  0  0  0  0  0  0  0  0  0  0  0
  160.4380  208.5580  153.1770 C   0  0  0  0  0  2  0  0  0  0  0  0
  161.7090  211.1330  150.8770 O   0  0  0  0  0  0  0  0  0  0  0  0
  161.1260  209.2460  152.1120 N   0  0  0  0  0  0  0  0  0  0  0  0
  161.9280  208.3260  151.3280 C   0  0  2  0  0  3  0  0  0  0  0  0
  158.9200  213.4700  153.1440 N   0  0  0  0  0  0  0  0  0  0  0  0
  160.3730  211.6040  152.7770 C   0  0  0  0  0  0  0  0  0  0  0  0
  159.2870  212.7590  150.8800 N   0  0  0  0  0  1  0  0  0  0  0  0
  159.5330  212.6210  152.2770 C   0  0  0  0  0  0  0  0  0  0  0  0
  159.8970  212.4200  155.0000 C   0  0  0  0  0  0  0  0  0  0  0  0
  160.5510  211.5230  154.1610 C   0  0  0  0  0  3  0  0  0  0  0  0
  159.0960  213.3760  154.4640 N   0  0  0  0  0  0  0  0  0  0  0  0
  160.0710  212.3410  156.4100 N   0  0  0  0  0  1  0  0  0  0  0  0
  161.3550  208.1980  149.9230 C   0  0  0  0  0  2  0  0  0  0  0  0
  161.9490  206.9910  149.2170 C   0  0  1  0  0  3  0  0  0  0  0  0
  160.8350  206.1240  148.6590 C   0  0  1  0  0  3  0  0  0  0  0  0
  162.3620  207.3640  147.8040 C   0  0  0  0  0  2  0  0  0  0  0  0
  161.2550  206.4890  147.2460 C   0  0  0  0  0  2  0  0  0  0  0  0
  159.7420  200.8450  150.1570 O   0  0  0  0  0  0  0  0  0  0  0  0
  160.6960  204.1820  150.1210 C   0  0  0  0  0  3  0  0  0  0  0  0
  161.7690  203.8500  147.9960 N   0  0  0  0  0  2  0  0  0  0  0  0
  160.9240  201.6090  148.3110 N   0  0  0  0  0  2  0  0  0  0  0  0
  161.0900  202.7200  147.3800 C   0  0  0  0  0  2  0  0  0  0  0  0
  161.0890  204.6750  148.9470 C   0  0  0  0  0  0  0  0  0  0  0  0
  160.4920  201.7290  149.6700 C   0  0  0  0  0  0  0  0  0  0  0  0
  161.0280  202.7960  150.5710 C   0  0  0  0  0  2  0  0  0  0  0  0
  161.2750  206.5200  154.3130 C   0  0  0  0  0  2  0  0  0  0  0  0
  160.1270  207.1160  156.7090 S   0  0  0  0  0  1  0  0  0  0  0  0
  161.2720  207.5910  155.3870 C   0  0  0  0  0  2  0  0  0  0  0  0
  1  4  1  0  0  0  0
  1 29  1  1  0  0  0
  2  1  1  0  0  0  0
  3  6  1  0  0  0  0
  3  9  1  0  0  0  0
  5  3  2  0  0  0  0
  6  4  1  0  0  0  0
  7 16  1  6  0  0  0
  7  2  1  0  0  0  0
  7  6  1  0  0  0  0
  8 14  1  0  0  0  0
  9 13  2  0  0  0  0
 10 11  1  0  0  0  0
 11  9  1  0  0  0  0
 11  8  2  0  0  0  0
 12 15  1  0  0  0  0
 13 12  1  0  0  0  0
 14 12  2  0  0  0  0
 17 16  1  1  0  0  0
 18 26  1  6  0  0  0
 18 17  1  0  0  0  0
 19 17  1  0  0  0  0
 20 19  1  0  0  0  0
 20 18  1  0  0  0  0
 22 28  1  0  0  0  0
 23 26  1  0  0  0  0
 24 27  1  0  0  0  0
 25 23  1  0  0  0  0
 25 24  1  0  0  0  0
 26 22  2  0  0  0  0
 27 21  2  0  0  0  0
 27 28  1  0  0  0  0
 29 31  1  0  0  0  0
 31 30  1  0  0  0  0
M  END
>  <MODEL>
3

>  <REMARK>
 VINA RESULT:      -7.7      0.756      1.521
  Name = 
  6 active torsions:
  status: ('A' for Active; 'I' for Inactive)
    1  A    between atoms: C_1  and  C_10
    2  A    between atoms: C_1  and  C_29
    3  A    between atoms: C_2  and  C_16
    4  A    between atoms: C_5  and  C_8
    5  A    between atoms: C_11  and  C_26
    6  A    between atoms: C_14  and  C_16
                            x       y       z     vdW  Elec       q    Type
                         _______ _______ _______ _____ _____    ______ ____

>  <TORSDO>
F 6

$$$$
=
 OpenBabel11052411183D

 31 34  0  0  1  0  0  0  0  0999 V2000
  161.2650  208.1130  150.1480 C   0  0  2  0  0  3  0  0  0  0  0  0
  161.9840  208.0150  151.4220 N   0  0  0  0  0  2  0  0  0  0  0  0
  161.6230  204.4080  150.5720 C   0  0  0  0  0  0  0  0  0  0  0  0
  161.1360  206.7190  149.5750 C   0  0  0  0  0  2  0  0  0  0  0  0
  161.9670  203.7620  151.6000 O   0  0  0  0  0  0  0  0  0  0  0  0
  161.5570  205.8460  150.6430 N   0  0  0  0  0  0  0  0  0  0  0  0
  161.9840  206.6060  151.8020 C   0  0  2  0  0  3  0  0  0  0  0  0
  160.4740  201.7310  148.1840 N   0  0  0  0  0  0  0  0  0  0  0  0
  161.3080  203.6610  149.3260 C   0  0  0  0  0  0  0  0  0  0  0  0
  160.3260  201.7700  150.5790 N   0  0  0  0  0  1  0  0  0  0  0  0
  160.7130  202.3830  149.3520 C   0  0  0  0  0  0  0  0  0  0  0  0
  161.3750  203.4880  146.9170 C   0  0  0  0  0  0  0  0  0  0  0  0
  161.6430  204.2030  148.0810 C   0  0  0  0  0  3  0  0  0  0  0  0
  160.7950  202.2640  147.0030 N   0  0  0  0  0  0  0  0  0  0  0  0
  161.7100  204.0340  145.6470 N   0  0  0  0  0  1  0  0  0  0  0  0
  161.0140  206.3890  152.9560 C   0  0  0  0  0  2  0  0  0  0  0  0
  161.2590  207.4120  154.0540 C   0  0  1  0  0  3  0  0  0  0  0  0
  159.9620  208.1250  154.3880 C   0  0  1  0  0  3  0  0  0  0  0  0
  161.2340  206.7350  155.4130 C   0  0  0  0  0  2  0  0  0  0  0  0
  159.9430  207.4560  155.7510 C   0  0  0  0  0  2  0  0  0  0  0  0
  158.9120  213.5990  153.8970 O   0  0  0  0  0  0  0  0  0  0  0  0
  160.0510  210.3560  153.4160 C   0  0  0  0  0  3  0  0  0  0  0  0
  160.5530  210.1870  155.7600 N   0  0  0  0  0  2  0  0  0  0  0  0
  159.6610  212.4310  155.7580 N   0  0  0  0  0  2  0  0  0  0  0  0
  159.6710  211.1340  156.4250 C   0  0  0  0  0  2  0  0  0  0  0  0
  160.1800  209.6040  154.5080 C   0  0  0  0  0  0  0  0  0  0  0  0
  159.5800  212.6320  154.3430 C   0  0  0  0  0  0  0  0  0  0  0  0
  160.3890  211.8120  153.3890 C   0  0  0  0  0  2  0  0  0  0  0  0
  162.0290  208.9980  149.1800 C   0  0  0  0  0  2  0  0  0  0  0  0
  162.0980  211.6070  148.4020 S   0  0  0  0  0  1  0  0  0  0  0  0
  162.1680  210.3960  149.7500 C   0  0  0  0  0  2  0  0  0  0  0  0
  1 29  1  6  0  0  0
  1  2  1  0  0  0  0
  2  7  1  0  0  0  0
  3  6  1  0  0  0  0
  3  5  2  0  0  0  0
  4  1  1  0  0  0  0
  4  6  1  0  0  0  0
  6  7  1  0  0  0  0
  7 16  1  1  0  0  0
  8 11  1  0  0  0  0
  9 11  2  0  0  0  0
  9  3  1  0  0  0  0
 11 10  1  0  0  0  0
 12 14  1  0  0  0  0
 12 13  2  0  0  0  0
 13  9  1  0  0  0  0
 14  8  2  0  0  0  0
 15 12  1  0  0  0  0
 17 16  1  6  0  0  0
 17 18  1  0  0  0  0
 17 19  1  0  0  0  0
 18 26  1  1  0  0  0
 18 20  1  0  0  0  0
 19 20  1  0  0  0  0
 21 27  2  0  0  0  0
 22 26  2  0  0  0  0
 23 25  1  0  0  0  0
 24 25  1  0  0  0  0
 26 23  1  0  0  0  0
 27 24  1  0  0  0  0
 28 22  1  0  0  0  0
 28 27  1  0  0  0  0
 29 31  1  0  0  0  0
 30 31  1  0  0  0  0
M  END
>  <MODEL>
4

>  <REMARK>
 VINA RESULT:      -7.1      2.507      8.879
  Name = 
  6 active torsions:
  status: ('A' for Active; 'I' for Inactive)
    1  A    between atoms: C_1  and  C_10
    2  A    between atoms: C_1  and  C_29
    3  A    between atoms: C_2  and  C_16
    4  A    between atoms: C_5  and  C_8
    5  A    between atoms: C_11  and  C_26
    6  A    between atoms: C_14  and  C_16
                            x       y       z     vdW  Elec       q    Type
                         _______ _______ _______ _____ _____    ______ ____

>  <TORSDO>
F 6

$$$$
=
 OpenBabel11052411183D

 31 34  0  0  1  0  0  0  0  0999 V2000
  162.3870  209.7330  149.2690 C   0  0  2  0  0  3  0  0  0  0  0  0
  161.5550  208.6280  148.7850 N   0  0  0  0  0  2  0  0  0  0  0  0
  160.7790  208.5160  152.4250 C   0  0  0  0  0  0  0  0  0  0  0  0
  162.1010  209.9250  150.7420 C   0  0  0  0  0  2  0  0  0  0  0  0
  160.1400  207.4450  152.6230 O   0  0  0  0  0  0  0  0  0  0  0  0
  161.3110  208.7770  151.1110 N   0  0  0  0  0  0  0  0  0  0  0  0
  161.0490  207.9300  149.9640 C   0  0  2  0  0  3  0  0  0  0  0  0
  160.5860  211.5990  154.5820 N   0  0  0  0  0  0  0  0  0  0  0  0
  160.9490  209.4690  153.5530 C   0  0  0  0  0  0  0  0  0  0  0  0
  159.5420  211.1820  152.4610 N   0  0  0  0  0  1  0  0  0  0  0  0
  160.3720  210.7550  153.5380 C   0  0  0  0  0  0  0  0  0  0  0  0
  161.9210  210.0230  155.6950 C   0  0  0  0  0  0  0  0  0  0  0  0
  161.7380  209.1180  154.6540 C   0  0  0  0  0  3  0  0  0  0  0  0
  161.3370  211.2460  155.6280 N   0  0  0  0  0  0  0  0  0  0  0  0
  162.7200  209.6710  156.8190 N   0  0  0  0  0  1  0  0  0  0  0  0
  161.7730  206.6000  150.1190 C   0  0  0  0  0  2  0  0  0  0  0  0
  160.9960  205.4900  149.4300 C   0  0  1  0  0  3  0  0  0  0  0  0
  161.8550  204.2420  149.3430 C   0  0  1  0  0  3  0  0  0  0  0  0
  160.0880  204.7920  150.4280 C   0  0  0  0  0  2  0  0  0  0  0  0
  160.9400  203.5400  150.3320 C   0  0  0  0  0  2  0  0  0  0  0  0
  159.5300  201.7590  144.8990 O   0  0  0  0  0  0  0  0  0  0  0  0
  161.2080  202.4170  147.8650 C   0  0  0  0  0  3  0  0  0  0  0  0
  162.2890  204.2990  146.8340 N   0  0  0  0  0  2  0  0  0  0  0  0
  160.9490  203.5960  144.9520 N   0  0  0  0  0  2  0  0  0  0  0  0
  161.4080  204.7230  145.7570 C   0  0  0  0  0  2  0  0  0  0  0  0
  161.7620  203.6230  147.9800 C   0  0  0  0  0  0  0  0  0  0  0  0
  160.4840  202.3460  145.4720 C   0  0  0  0  0  0  0  0  0  0  0  0
  161.1970  201.6470  146.5850 C   0  0  0  0  0  2  0  0  0  0  0  0
  162.0590  211.0070  148.5110 C   0  0  0  0  0  2  0  0  0  0  0  0
  160.7610  213.4010  148.5200 S   0  0  0  0  0  1  0  0  0  0  0  0
  161.5360  212.0620  149.4660 C   0  0  0  0  0  2  0  0  0  0  0  0
  1 29  1  6  0  0  0
  1  4  1  0  0  0  0
  2  1  1  0  0  0  0
  2  7  1  0  0  0  0
  3  5  2  0  0  0  0
  3  9  1  0  0  0  0
  4  6  1  0  0  0  0
  6  3  1  0  0  0  0
  7 16  1  1  0  0  0
  7  6  1  0  0  0  0
  8 14  1  0  0  0  0
  9 13  2  0  0  0  0
 10 11  1  0  0  0  0
 11  9  1  0  0  0  0
 11  8  2  0  0  0  0
 12 15  1  0  0  0  0
 13 12  1  0  0  0  0
 14 12  2  0  0  0  0
 17 16  1  1  0  0  0
 17 19  1  0  0  0  0
 18 26  1  6  0  0  0
 18 17  1  0  0  0  0
 18 20  1  0  0  0  0
 20 19  1  0  0  0  0
 21 27  2  0  0  0  0
 22 26  2  0  0  0  0
 23 26  1  0  0  0  0
 24 27  1  0  0  0  0
 24 25  1  0  0  0  0
 25 23  1  0  0  0  0
 27 28  1  0  0  0  0
 28 22  1  0  0  0  0
 29 31  1  0  0  0  0
 30 31  1  0  0  0  0
M  END
>  <MODEL>
5

>  <REMARK>
 VINA RESULT:      -6.9      2.789      4.256
  Name = 
  6 active torsions:
  status: ('A' for Active; 'I' for Inactive)
    1  A    between atoms: C_1  and  C_10
    2  A    between atoms: C_1  and  C_29
    3  A    between atoms: C_2  and  C_16
    4  A    between atoms: C_5  and  C_8
    5  A    between atoms: C_11  and  C_26
    6  A    between atoms: C_14  and  C_16
                            x       y       z     vdW  Elec       q    Type
                         _______ _______ _______ _____ _____    ______ ____

>  <TORSDO>
F 6

$$$$
=
 OpenBabel11052411183D

 31 34  0  0  1  0  0  0  0  0999 V2000
  162.3350  210.9470  149.1800 C   0  0  2  0  0  3  0  0  0  0  0  0
  161.8920  209.6710  148.6100 N   0  0  0  0  0  2  0  0  0  0  0  0
  161.1220  209.1080  152.2100 C   0  0  0  0  0  0  0  0  0  0  0  0
  161.9770  210.9540  150.6490 C   0  0  0  0  0  2  0  0  0  0  0  0
  160.8400  207.8840  152.3280 O   0  0  0  0  0  0  0  0  0  0  0  0
  161.5720  209.5980  150.9310 N   0  0  0  0  0  0  0  0  0  0  0  0
  161.6040  208.7830  149.7320 C   0  0  2  0  0  3  0  0  0  0  0  0
  159.8680  211.7680  154.5650 N   0  0  0  0  0  0  0  0  0  0  0  0
  160.9710  209.9980  153.3910 C   0  0  0  0  0  0  0  0  0  0  0  0
  158.9550  211.0800  152.4540 N   0  0  0  0  0  1  0  0  0  0  0  0
  159.9420  210.9590  153.4750 C   0  0  0  0  0  0  0  0  0  0  0  0
  161.7660  210.7840  155.5320 C   0  0  0  0  0  0  0  0  0  0  0  0
  161.8920  209.9300  154.4420 C   0  0  0  0  0  3  0  0  0  0  0  0
  160.7520  211.6860  155.5630 N   0  0  0  0  0  0  0  0  0  0  0  0
  162.6970  210.7180  156.6070 N   0  0  0  0  0  1  0  0  0  0  0  0
  162.6990  207.7310  149.8440 C   0  0  0  0  0  2  0  0  0  0  0  0
  162.4010  206.5570  148.9260 C   0  0  1  0  0  3  0  0  0  0  0  0
  161.0830  205.9180  149.3230 C   0  0  1  0  0  3  0  0  0  0  0  0
  161.7710  207.0490  147.6360 C   0  0  0  0  0  2  0  0  0  0  0  0
  160.4560  206.4020  148.0270 C   0  0  0  0  0  2  0  0  0  0  0  0
  159.4700  200.5780  149.7610 O   0  0  0  0  0  0  0  0  0  0  0  0
  160.6930  203.7640  150.3910 C   0  0  0  0  0  3  0  0  0  0  0  0
  161.8700  203.7250  148.2960 N   0  0  0  0  0  2  0  0  0  0  0  0
  160.8260  201.5520  148.1480 N   0  0  0  0  0  2  0  0  0  0  0  0
  161.1420  202.7920  147.4480 C   0  0  0  0  0  2  0  0  0  0  0  0
  161.1990  204.4230  149.3490 C   0  0  0  0  0  0  0  0  0  0  0  0
  160.3190  201.4630  149.4830 C   0  0  0  0  0  0  0  0  0  0  0  0
  160.8820  202.2950  150.5920 C   0  0  0  0  0  2  0  0  0  0  0  0
  161.6460  212.1030  148.4780 C   0  0  0  0  0  2  0  0  0  0  0  0
  162.2970  213.5280  146.2500 S   0  0  0  0  0  1  0  0  0  0  0  0
  162.6750  213.0940  147.9700 C   0  0  0  0  0  2  0  0  0  0  0  0
  1 29  1  6  0  0  0
  1  4  1  0  0  0  0
  2  1  1  0  0  0  0
  2  7  1  0  0  0  0
  3  5  2  0  0  0  0
  3  9  1  0  0  0  0
  4  6  1  0  0  0  0
  6  3  1  0  0  0  0
  7 16  1  1  0  0  0
  7  6  1  0  0  0  0
  8 14  1  0  0  0  0
  9 11  1  0  0  0  0
  9 13  2  0  0  0  0
 10 11  1  0  0  0  0
 11  8  2  0  0  0  0
 12 14  2  0  0  0  0
 12 15  1  0  0  0  0
 13 12  1  0  0  0  0
 17 18  1  0  0  0  0
 17 16  1  1  0  0  0
 18 26  1  6  0  0  0
 19 20  1  0  0  0  0
 19 17  1  0  0  0  0
 20 18  1  0  0  0  0
 22 28  1  0  0  0  0
 23 26  1  0  0  0  0
 24 27  1  0  0  0  0
 25 24  1  0  0  0  0
 25 23  1  0  0  0  0
 26 22  2  0  0  0  0
 27 21  2  0  0  0  0
 27 28  1  0  0  0  0
 30 31  1  0  0  0  0
 31 29  1  0  0  0  0
M  END
>  <MODEL>
6

>  <REMARK>
 VINA RESULT:      -6.6      2.850      4.004
  Name = 
  6 active torsions:
  status: ('A' for Active; 'I' for Inactive)
    1  A    between atoms: C_1  and  C_10
    2  A    between atoms: C_1  and  C_29
    3  A    between atoms: C_2  and  C_16
    4  A    between atoms: C_5  and  C_8
    5  A    between atoms: C_11  and  C_26
    6  A    between atoms: C_14  and  C_16
                            x       y       z     vdW  Elec       q    Type
                         _______ _______ _______ _____ _____    ______ ____

>  <TORSDO>
F 6

$$$$
=
 OpenBabel11052411183D

 31 34  0  0  1  0  0  0  0  0999 V2000
  162.2950  210.9350  149.3370 C   0  0  2  0  0  3  0  0  0  0  0  0
  161.9890  209.8180  148.4380 N   0  0  0  0  0  2  0  0  0  0  0  0
  161.0560  208.3200  151.7160 C   0  0  0  0  0  0  0  0  0  0  0  0
  161.8510  210.5490  150.7300 C   0  0  0  0  0  2  0  0  0  0  0  0
  160.8660  207.0900  151.5060 O   0  0  0  0  0  0  0  0  0  0  0  0
  161.5400  209.1430  150.6360 N   0  0  0  0  0  0  0  0  0  0  0  0
  161.7070  208.6600  149.2800 C   0  0  2  0  0  3  0  0  0  0  0  0
  160.6360  208.6560  155.4450 N   0  0  0  0  0  0  0  0  0  0  0  0
  160.7640  208.8720  153.0650 C   0  0  0  0  0  0  0  0  0  0  0  0
  161.4840  206.7930  154.1910 N   0  0  0  0  0  1  0  0  0  0  0  0
  160.9480  208.1120  154.2380 C   0  0  0  0  0  0  0  0  0  0  0  0
  159.9480  210.6700  154.4580 C   0  0  0  0  0  0  0  0  0  0  0  0
  160.2490  210.1660  153.1960 C   0  0  0  0  0  3  0  0  0  0  0  0
  160.1510  209.8950  155.5530 N   0  0  0  0  0  0  0  0  0  0  0  0
  159.4270  211.9860  154.5980 N   0  0  0  0  0  1  0  0  0  0  0  0
  162.8750  207.6840  149.2120 C   0  0  0  0  0  2  0  0  0  0  0  0
  162.4980  206.4630  148.3890 C   0  0  1  0  0  3  0  0  0  0  0  0
  161.1590  205.9240  148.8570 C   0  0  1  0  0  3  0  0  0  0  0  0
  161.8650  206.8930  147.0780 C   0  0  0  0  0  2  0  0  0  0  0  0
  160.5280  206.3440  147.5410 C   0  0  0  0  0  2  0  0  0  0  0  0
  159.2910  200.7210  149.7240 O   0  0  0  0  0  0  0  0  0  0  0  0
  160.6890  203.8770  150.0890 C   0  0  0  0  0  3  0  0  0  0  0  0
  161.8080  203.6240  147.9770 N   0  0  0  0  0  2  0  0  0  0  0  0
  160.6530  201.5030  148.0140 N   0  0  0  0  0  2  0  0  0  0  0  0
  161.0120  202.6710  147.2170 C   0  0  0  0  0  2  0  0  0  0  0  0
  161.2000  204.4310  148.9910 C   0  0  0  0  0  0  0  0  0  0  0  0
  160.1770  201.5380  149.3630 C   0  0  0  0  0  0  0  0  0  0  0  0
  160.8090  202.4180  150.3940 C   0  0  0  0  0  2  0  0  0  0  0  0
  161.5580  212.1850  148.8910 C   0  0  0  0  0  2  0  0  0  0  0  0
  159.6470  212.9660  147.1150 S   0  0  0  0  0  1  0  0  0  0  0  0
  161.2020  212.0850  147.4210 C   0  0  0  0  0  2  0  0  0  0  0  0
  1 29  1  6  0  0  0
  1  4  1  0  0  0  0
  2  7  1  0  0  0  0
  2  1  1  0  0  0  0
  3  9  1  0  0  0  0
  5  3  2  0  0  0  0
  6  4  1  0  0  0  0
  6  3  1  0  0  0  0
  7 16  1  1  0  0  0
  7  6  1  0  0  0  0
  8 14  1  0  0  0  0
  9 13  2  0  0  0  0
  9 11  1  0  0  0  0
 10 11  1  0  0  0  0
 11  8  2  0  0  0  0
 12 15  1  0  0  0  0
 12 14  2  0  0  0  0
 13 12  1  0  0  0  0
 17 18  1  0  0  0  0
 17 16  1  1  0  0  0
 18 26  1  6  0  0  0
 19 20  1  0  0  0  0
 19 17  1  0  0  0  0
 20 18  1  0  0  0  0
 22 28  1  0  0  0  0
 23 26  1  0  0  0  0
 24 27  1  0  0  0  0
 25 23  1  0  0  0  0
 25 24  1  0  0  0  0
 26 22  2  0  0  0  0
 27 21  2  0  0  0  0
 27 28  1  0  0  0  0
 30 31  1  0  0  0  0
 31 29  1  0  0  0  0
M  END
>  <MODEL>
7

>  <REMARK>
 VINA RESULT:      -6.5      2.668      3.768
  Name = 
  6 active torsions:
  status: ('A' for Active; 'I' for Inactive)
    1  A    between atoms: C_1  and  C_10
    2  A    between atoms: C_1  and  C_29
    3  A    between atoms: C_2  and  C_16
    4  A    between atoms: C_5  and  C_8
    5  A    between atoms: C_11  and  C_26
    6  A    between atoms: C_14  and  C_16
                            x       y       z     vdW  Elec       q    Type
                         _______ _______ _______ _____ _____    ______ ____

>  <TORSDO>
F 6

$$$$
=
 OpenBabel11052411183D

 31 34  0  0  1  0  0  0  0  0999 V2000
  161.5500  209.5620  149.8460 C   0  0  2  0  0  3  0  0  0  0  0  0
  162.2850  209.8550  151.0800 N   0  0  0  0  0  2  0  0  0  0  0  0
  161.7880  206.1830  151.4450 C   0  0  0  0  0  0  0  0  0  0  0  0
  161.3650  208.0640  149.7550 C   0  0  0  0  0  2  0  0  0  0  0  0
  162.1260  205.8910  152.6260 O   0  0  0  0  0  0  0  0  0  0  0  0
  161.7730  207.5680  151.0480 N   0  0  0  0  0  0  0  0  0  0  0  0
  162.2430  208.6450  151.8960 C   0  0  2  0  0  3  0  0  0  0  0  0
  160.6880  202.8520  150.0700 N   0  0  0  0  0  0  0  0  0  0  0  0
  161.4280  205.0850  150.5090 C   0  0  0  0  0  0  0  0  0  0  0  0
  160.7770  203.5770  152.3560 N   0  0  0  0  0  1  0  0  0  0  0  0
  160.9740  203.8320  150.9680 C   0  0  0  0  0  0  0  0  0  0  0  0
  161.2720  204.2240  148.2580 C   0  0  0  0  0  0  0  0  0  0  0  0
  161.5800  205.2630  149.1300 C   0  0  0  0  0  3  0  0  0  0  0  0
  160.8330  203.0400  148.7560 N   0  0  0  0  0  0  0  0  0  0  0  0
  161.4200  204.3990  146.8530 N   0  0  0  0  0  1  0  0  0  0  0  0
  161.2840  208.8500  153.0620 C   0  0  0  0  0  2  0  0  0  0  0  0
  161.2920  210.3030  153.5070 C   0  0  1  0  0  3  0  0  0  0  0  0
  159.9480  210.6610  154.1120 C   0  0  1  0  0  3  0  0  0  0  0  0
  161.9380  210.4260  154.8750 C   0  0  0  0  0  2  0  0  0  0  0  0
  160.5960  210.7950  155.4790 C   0  0  0  0  0  2  0  0  0  0  0  0
  157.0230  214.3090  151.0380 O   0  0  0  0  0  0  0  0  0  0  0  0
  159.4870  212.2090  152.2890 C   0  0  0  0  0  3  0  0  0  0  0  0
  159.0330  213.0040  154.5110 N   0  0  0  0  0  2  0  0  0  0  0  0
  157.3770  214.3080  153.3320 N   0  0  0  0  0  2  0  0  0  0  0  0
  157.6540  213.4700  154.4940 C   0  0  0  0  0  2  0  0  0  0  0  0
  159.4680  211.9880  153.6030 C   0  0  0  0  0  0  0  0  0  0  0  0
  157.7920  214.0250  151.9920 C   0  0  0  0  0  0  0  0  0  0  0  0
  159.1730  213.5400  151.6850 C   0  0  0  0  0  2  0  0  0  0  0  0
  162.3290  210.0570  148.6410 C   0  0  0  0  0  2  0  0  0  0  0  0
  161.1130  212.2050  147.4890 S   0  0  0  0  0  1  0  0  0  0  0  0
  162.3700  211.5730  148.6330 C   0  0  0  0  0  2  0  0  0  0  0  0
  1 29  1  6  0  0  0
  1  2  1  0  0  0  0
  2  7  1  0  0  0  0
  3  5  2  0  0  0  0
  4  1  1  0  0  0  0
  4  6  1  0  0  0  0
  6  3  1  0  0  0  0
  6  7  1  0  0  0  0
  7 16  1  1  0  0  0
  8 11  1  0  0  0  0
  9 11  2  0  0  0  0
  9  3  1  0  0  0  0
 11 10  1  0  0  0  0
 12 14  1  0  0  0  0
 12 13  2  0  0  0  0
 13  9  1  0  0  0  0
 14  8  2  0  0  0  0
 15 12  1  0  0  0  0
 17 16  1  1  0  0  0
 17 18  1  0  0  0  0
 17 19  1  0  0  0  0
 18 26  1  6  0  0  0
 18 20  1  0  0  0  0
 19 20  1  0  0  0  0
 21 27  2  0  0  0  0
 22 26  2  0  0  0  0
 24 25  1  0  0  0  0
 25 23  1  0  0  0  0
 26 23  1  0  0  0  0
 27 24  1  0  0  0  0
 28 27  1  0  0  0  0
 28 22  1  0  0  0  0
 30 31  1  0  0  0  0
 31 29  1  0  0  0  0
M  END
>  <MODEL>
8

>  <REMARK>
 VINA RESULT:      -6.5      2.831      8.823
  Name = 
  6 active torsions:
  status: ('A' for Active; 'I' for Inactive)
    1  A    between atoms: C_1  and  C_10
    2  A    between atoms: C_1  and  C_29
    3  A    between atoms: C_2  and  C_16
    4  A    between atoms: C_5  and  C_8
    5  A    between atoms: C_11  and  C_26
    6  A    between atoms: C_14  and  C_16
                            x       y       z     vdW  Elec       q    Type
                         _______ _______ _______ _____ _____    ______ ____

>  <TORSDO>
F 6

$$$$
=
 OpenBabel11052411183D

 31 34  0  0  1  0  0  0  0  0999 V2000
  161.9570  209.2170  152.3330 C   0  0  2  0  0  3  0  0  0  0  0  0
  161.5290  210.3750  151.5440 N   0  0  0  0  0  2  0  0  0  0  0  0
  161.3730  207.7000  148.9590 C   0  0  0  0  0  0  0  0  0  0  0  0
  161.8320  207.9860  151.4640 C   0  0  0  0  0  2  0  0  0  0  0  0
  161.2060  208.2820  147.8510 O   0  0  0  0  0  0  0  0  0  0  0  0
  161.5800  208.4990  150.1400 N   0  0  0  0  0  0  0  0  0  0  0  0
  161.4870  209.9460  150.1490 C   0  0  2  0  0  3  0  0  0  0  0  0
  161.5820  204.0730  147.9620 N   0  0  0  0  0  0  0  0  0  0  0  0
  161.3400  206.2150  149.0020 C   0  0  0  0  0  0  0  0  0  0  0  0
  162.0910  206.0210  146.6550 N   0  0  0  0  0  1  0  0  0  0  0  0
  161.6580  205.4270  147.8760 C   0  0  0  0  0  0  0  0  0  0  0  0
  160.8800  204.1670  150.1980 C   0  0  0  0  0  0  0  0  0  0  0  0
  160.9390  205.5570  150.1690 C   0  0  0  0  0  3  0  0  0  0  0  0
  161.2040  203.4600  149.0860 N   0  0  0  0  0  0  0  0  0  0  0  0
  160.4770  203.4910  151.3840 N   0  0  0  0  0  1  0  0  0  0  0  0
  162.6630  210.5510  149.3940 C   0  0  0  0  0  2  0  0  0  0  0  0
  162.1680  211.4390  148.2650 C   0  0  1  0  0  3  0  0  0  0  0  0
  161.5620  212.7060  148.8390 C   0  0  1  0  0  3  0  0  0  0  0  0
  163.3180  212.2510  147.6960 C   0  0  0  0  0  2  0  0  0  0  0  0
  162.7070  213.5190  148.2610 C   0  0  0  0  0  2  0  0  0  0  0  0
  156.7530  211.8470  146.1110 O   0  0  0  0  0  0  0  0  0  0  0  0
  160.0480  212.5560  146.9380 C   0  0  0  0  0  3  0  0  0  0  0  0
  159.2950  213.8670  148.8060 N   0  0  0  0  0  2  0  0  0  0  0  0
  157.1360  213.1580  147.9880 N   0  0  0  0  0  2  0  0  0  0  0  0
  157.9860  213.3390  149.1600 C   0  0  0  0  0  2  0  0  0  0  0  0
  160.2640  213.0330  148.1630 C   0  0  0  0  0  0  0  0  0  0  0  0
  157.5530  212.5780  146.7480 C   0  0  0  0  0  0  0  0  0  0  0  0
  158.8600  212.9390  146.1150 C   0  0  0  0  0  2  0  0  0  0  0  0
  161.0810  209.0680  153.5640 C   0  0  0  0  0  2  0  0  0  0  0  0
  160.3900  207.5200  155.6950 S   0  0  0  0  0  1  0  0  0  0  0  0
  161.0480  207.6190  154.0090 C   0  0  0  0  0  2  0  0  0  0  0  0
  1 29  1  1  0  0  0
  2  1  1  0  0  0  0
  3  9  1  0  0  0  0
  3  6  1  0  0  0  0
  4  1  1  0  0  0  0
  5  3  2  0  0  0  0
  6  7  1  0  0  0  0
  6  4  1  0  0  0  0
  7 16  1  6  0  0  0
  7  2  1  0  0  0  0
  8 14  1  0  0  0  0
  9 13  2  0  0  0  0
 10 11  1  0  0  0  0
 11  8  2  0  0  0  0
 11  9  1  0  0  0  0
 12 15  1  0  0  0  0
 13 12  1  0  0  0  0
 14 12  2  0  0  0  0
 17 18  1  0  0  0  0
 17 16  1  1  0  0  0
 18 26  1  6  0  0  0
 19 20  1  0  0  0  0
 19 17  1  0  0  0  0
 20 18  1  0  0  0  0
 21 27  2  0  0  0  0
 22 26  2  0  0  0  0
 23 25  1  0  0  0  0
 24 25  1  0  0  0  0
 26 23  1  0  0  0  0
 27 24  1  0  0  0  0
 28 27  1  0  0  0  0
 28 22  1  0  0  0  0
 29 31  1  0  0  0  0
 31 30  1  0  0  0  0
M  END
>  <MODEL>
9

>  <REMARK>
 VINA RESULT:      -6.2      3.398      7.783
  Name = 
  6 active torsions:
  status: ('A' for Active; 'I' for Inactive)
    1  A    between atoms: C_1  and  C_10
    2  A    between atoms: C_1  and  C_29
    3  A    between atoms: C_2  and  C_16
    4  A    between atoms: C_5  and  C_8
    5  A    between atoms: C_11  and  C_26
    6  A    between atoms: C_14  and  C_16
                            x       y       z     vdW  Elec       q    Type
                         _______ _______ _______ _____ _____    ______ ____

>  <TORSDO>
F 6

$$$$
