=
 OpenBabel11052411153D

 26 28  0  0  1  0  0  0  0  0999 V2000
  161.1560  205.9910  150.2080 C   0  0  2  0  0  3  0  0  0  0  0  0
  160.6740  209.2530  151.9770 C   0  0  0  0  0  2  0  0  0  0  0  0
  161.9920  206.8070  151.2280 C   0  0  2  0  0  0  0  0  0  0  0  0
  163.2240  206.0390  151.6790 C   0  0  0  0  0  1  0  0  0  0  0  0
  161.1300  207.1080  152.4730 C   0  0  0  0  0  2  0  0  0  0  0  0
  161.3750  209.2000  150.6100 C   0  0  2  0  0  3  0  0  0  0  0  0
  162.4650  208.1230  150.5860 C   0  0  0  0  0  2  0  0  0  0  0  0
  161.3130  208.4280  152.9220 O   0  0  0  0  0  0  0  0  0  0  0  0
  161.9520  210.5000  150.3050 N   0  0  0  0  0  2  0  0  0  0  0  0
  162.0270  211.0170  148.9710 C   0  0  0  0  0  0  0  0  0  0  0  0
  161.5590  210.3560  148.0060 O   0  0  0  0  0  0  0  0  0  0  0  0
  163.0250  212.6830  147.4930 C   0  0  0  0  0  2  0  0  0  0  0  0
  162.6420  212.3210  148.7100 C   0  0  0  0  0  3  0  0  0  0  0  0
  161.0750  204.5090  150.4640 C   0  0  0  0  0  0  0  0  0  0  0  0
  161.2370  202.5920  151.9420 C   0  0  0  0  0  3  0  0  0  0  0  0
  160.9040  201.7440  150.8830 C   0  0  0  0  0  3  0  0  0  0  0  0
  161.3260  203.9700  151.7350 C   0  0  0  0  0  3  0  0  0  0  0  0
  160.7420  203.6570  149.4060 C   0  0  0  0  0  3  0  0  0  0  0  0
  160.6670  202.2720  149.6060 C   0  0  0  0  0  0  0  0  0  0  0  0
  161.3620  200.5550  148.1200 O   0  0  0  0  0  0  0  0  0  0  0  0
  161.0930  201.6440  147.2740 C   0  0  0  0  0  2  0  0  0  0  0  0
  160.2720  201.3730  148.4780 C   0  0  2  0  0  3  0  0  0  0  0  0
  161.3700  206.3270  148.7540 C   0  0  0  0  0  0  0  0  0  0  0  0
  162.7600  206.6240  148.3010 C   0  0  0  0  0  1  0  0  0  0  0  0
  160.3430  206.3820  147.9030 C   0  0  0  0  0  3  0  0  0  0  0  0
  160.5250  206.7100  146.5280 N   0  0  0  0  0  1  0  0  0  0  0  0
  1 23  1  6  0  0  0
  1 14  1  0  0  0  0
  1  3  1  0  0  0  0
  2  8  1  0  0  0  0
  3  4  1  1  0  0  0
  3  5  1  0  0  0  0
  5  8  1  0  0  0  0
  6  9  1  1  0  0  0
  6  2  1  0  0  0  0
  7  6  1  0  0  0  0
  7  3  1  0  0  0  0
 10  9  1  0  0  0  0
 11 10  2  0  0  0  0
 12 13  2  0  0  0  0
 13 10  1  0  0  0  0
 14 17  1  0  0  0  0
 16 15  1  0  0  0  0
 17 15  2  0  0  0  0
 18 19  1  0  0  0  0
 18 14  2  0  0  0  0
 19 16  2  0  0  0  0
 20 22  1  0  0  0  0
 21 20  1  0  0  0  0
 21 22  1  0  0  0  0
 22 19  1  1  0  0  0
 24 23  1  0  0  0  0
 25 23  2  0  0  0  0
 26 25  1  0  0  0  0
M  END
>  <MODEL>
1

>  <REMARK>
 VINA RESULT:      -7.4      0.000      0.000
  Name = 
  6 active torsions:
  status: ('A' for Active; 'I' for Inactive)
    1  A    between atoms: C_4  and  C_25
    2  A    between atoms: C_5  and  C_25
    3  A    between atoms: C_6  and  C_25
    4  A    between atoms: N_10  and  C_12
    5  A    between atoms: C_15  and  C_18
    6  A    between atoms: C_22  and  C_24
                            x       y       z     vdW  Elec       q    Type
                         _______ _______ _______ _____ _____    ______ ____

>  <TORSDO>
F 6

$$$$
=
 OpenBabel11052411153D

 26 28  0  0  1  0  0  0  0  0999 V2000
  161.7560  205.2400  149.7270 C   0  0  2  0  0  3  0  0  0  0  0  0
  162.4600  208.6930  150.9860 C   0  0  0  0  0  2  0  0  0  0  0  0
  161.0860  206.6250  149.5320 C   0  0  2  0  0  0  0  0  0  0  0  0
  159.9610  206.5600  148.5100 C   0  0  0  0  0  1  0  0  0  0  0  0
  162.1370  207.6360  149.0270 C   0  0  0  0  0  2  0  0  0  0  0  0
  161.5420  207.7450  151.7740 C   0  0  2  0  0  3  0  0  0  0  0  0
  160.4850  207.1100  150.8630 C   0  0  0  0  0  2  0  0  0  0  0  0
  162.0040  208.8820  149.6670 O   0  0  0  0  0  0  0  0  0  0  0  0
  160.8960  208.4730  152.8540 N   0  0  0  0  0  2  0  0  0  0  0  0
  160.8700  207.9920  154.2020 C   0  0  0  0  0  0  0  0  0  0  0  0
  161.4430  206.9100  154.5030 O   0  0  0  0  0  0  0  0  0  0  0  0
  160.1570  208.3340  156.5110 C   0  0  0  0  0  2  0  0  0  0  0  0
  160.1830  208.7490  155.2530 C   0  0  0  0  0  3  0  0  0  0  0  0
  161.5450  204.2480  148.6140 C   0  0  0  0  0  0  0  0  0  0  0  0
  160.8950  202.0500  147.8160 C   0  0  0  0  0  3  0  0  0  0  0  0
  161.1660  202.4450  146.5020 C   0  0  0  0  0  3  0  0  0  0  0  0
  161.0860  202.9460  148.8690 C   0  0  0  0  0  3  0  0  0  0  0  0
  161.8160  204.6390  147.2980 C   0  0  0  0  0  3  0  0  0  0  0  0
  161.6390  203.7380  146.2400 C   0  0  0  0  0  0  0  0  0  0  0  0
  162.1060  205.5700  144.8010 O   0  0  0  0  0  0  0  0  0  0  0  0
  160.8450  205.1190  144.3750 C   0  0  0  0  0  2  0  0  0  0  0  0
  161.8940  204.1770  144.8330 C   0  0  2  0  0  3  0  0  0  0  0  0
  161.6240  204.6250  151.0980 C   0  0  0  0  0  0  0  0  0  0  0  0
  162.7300  204.8460  152.0740 C   0  0  0  0  0  1  0  0  0  0  0  0
  160.5600  203.8850  151.4200 C   0  0  0  0  0  3  0  0  0  0  0  0
  160.4240  203.2860  152.7060 N   0  0  0  0  0  1  0  0  0  0  0  0
  1 23  1  1  0  0  0
  2  6  1  0  0  0  0
  3  4  1  6  0  0  0
  3  1  1  0  0  0  0
  3  7  1  0  0  0  0
  5  3  1  0  0  0  0
  5  8  1  0  0  0  0
  6  9  1  1  0  0  0
  7  6  1  0  0  0  0
  8  2  1  0  0  0  0
  9 10  1  0  0  0  0
 10 11  2  0  0  0  0
 10 13  1  0  0  0  0
 13 12  2  0  0  0  0
 14 17  1  0  0  0  0
 14  1  1  0  0  0  0
 15 17  2  0  0  0  0
 16 15  1  0  0  0  0
 18 14  2  0  0  0  0
 19 16  2  0  0  0  0
 19 18  1  0  0  0  0
 20 22  1  0  0  0  0
 21 20  1  0  0  0  0
 21 22  1  0  0  0  0
 22 19  1  1  0  0  0
 23 25  2  0  0  0  0
 23 24  1  0  0  0  0
 25 26  1  0  0  0  0
M  END
>  <MODEL>
2

>  <REMARK>
 VINA RESULT:      -7.2      2.722      4.738
  Name = 
  6 active torsions:
  status: ('A' for Active; 'I' for Inactive)
    1  A    between atoms: C_4  and  C_25
    2  A    between atoms: C_5  and  C_25
    3  A    between atoms: C_6  and  C_25
    4  A    between atoms: N_10  and  C_12
    5  A    between atoms: C_15  and  C_18
    6  A    between atoms: C_22  and  C_24
                            x       y       z     vdW  Elec       q    Type
                         _______ _______ _______ _____ _____    ______ ____

>  <TORSDO>
F 6

$$$$
=
 OpenBabel11052411153D

 26 28  0  0  1  0  0  0  0  0999 V2000
  161.1050  206.1660  150.4240 C   0  0  2  0  0  3  0  0  0  0  0  0
  160.4320  206.7390  154.0600 C   0  0  0  0  0  2  0  0  0  0  0  0
  161.9940  206.2640  151.6910 C   0  0  2  0  0  0  0  0  0  0  0  0
  163.4460  205.9410  151.3780 C   0  0  0  0  0  1  0  0  0  0  0  0
  161.4940  205.2540  152.7470 C   0  0  0  0  0  2  0  0  0  0  0  0
  160.6900  207.9240  153.1160 C   0  0  2  0  0  3  0  0  0  0  0  0
  161.9410  207.6910  152.2620 C   0  0  0  0  0  2  0  0  0  0  0  0
  161.4930  205.8140  154.0370 O   0  0  0  0  0  0  0  0  0  0  0  0
  160.8360  209.1460  153.8920 N   0  0  0  0  0  2  0  0  0  0  0  0
  160.2970  210.4010  153.4630 C   0  0  0  0  0  0  0  0  0  0  0  0
  159.6420  210.4790  152.3890 O   0  0  0  0  0  0  0  0  0  0  0  0
  160.8080  211.5540  155.5520 C   0  0  0  0  0  2  0  0  0  0  0  0
  160.4940  211.6110  154.2660 C   0  0  0  0  0  3  0  0  0  0  0  0
  161.0140  204.8030  149.7900 C   0  0  0  0  0  0  0  0  0  0  0  0
  160.4020  202.4570  149.8650 C   0  0  0  0  0  3  0  0  0  0  0  0
  160.8660  202.2920  148.5570 C   0  0  0  0  0  3  0  0  0  0  0  0
  160.4780  203.7070  150.4820 C   0  0  0  0  0  3  0  0  0  0  0  0
  161.4780  204.6340  148.4810 C   0  0  0  0  0  3  0  0  0  0  0  0
  161.4180  203.3780  147.8640 C   0  0  0  0  0  0  0  0  0  0  0  0
  162.4140  204.4320  145.9820 O   0  0  0  0  0  0  0  0  0  0  0  0
  161.1210  204.1040  145.5400 C   0  0  0  0  0  2  0  0  0  0  0  0
  161.8800  203.2150  146.4510 C   0  0  2  0  0  3  0  0  0  0  0  0
  161.2620  207.2760  149.4160 C   0  0  0  0  0  0  0  0  0  0  0  0
  160.7210  207.0570  148.0430 C   0  0  0  0  0  1  0  0  0  0  0  0
  161.8890  208.4110  149.7340 C   0  0  0  0  0  3  0  0  0  0  0  0
  162.0580  209.4660  148.7910 N   0  0  0  0  0  1  0  0  0  0  0  0
  1 23  1  6  0  0  0
  1  3  1  0  0  0  0
  3  4  1  6  0  0  0
  3  7  1  0  0  0  0
  3  5  1  0  0  0  0
  5  8  1  0  0  0  0
  6  9  1  1  0  0  0
  6  2  1  0  0  0  0
  7  6  1  0  0  0  0
  8  2  1  0  0  0  0
 10  9  1  0  0  0  0
 10 13  1  0  0  0  0
 11 10  2  0  0  0  0
 13 12  2  0  0  0  0
 14  1  1  0  0  0  0
 14 17  1  0  0  0  0
 15 17  2  0  0  0  0
 16 15  1  0  0  0  0
 18 14  2  0  0  0  0
 19 18  1  0  0  0  0
 19 16  2  0  0  0  0
 20 22  1  0  0  0  0
 21 20  1  0  0  0  0
 21 22  1  0  0  0  0
 22 19  1  1  0  0  0
 23 25  2  0  0  0  0
 24 23  1  0  0  0  0
 26 25  1  0  0  0  0
M  END
>  <MODEL>
3

>  <REMARK>
 VINA RESULT:      -7.2      2.362      3.373
  Name = 
  6 active torsions:
  status: ('A' for Active; 'I' for Inactive)
    1  A    between atoms: C_4  and  C_25
    2  A    between atoms: C_5  and  C_25
    3  A    between atoms: C_6  and  C_25
    4  A    between atoms: N_10  and  C_12
    5  A    between atoms: C_15  and  C_18
    6  A    between atoms: C_22  and  C_24
                            x       y       z     vdW  Elec       q    Type
                         _______ _______ _______ _____ _____    ______ ____

>  <TORSDO>
F 6

$$$$
=
 OpenBabel11052411153D

 26 28  0  0  1  0  0  0  0  0999 V2000
  161.7260  205.2560  149.2150 C   0  0  2  0  0  3  0  0  0  0  0  0
  162.4990  208.4630  150.9810 C   0  0  0  0  0  2  0  0  0  0  0  0
  161.0410  206.6450  149.2940 C   0  0  2  0  0  0  0  0  0  0  0  0
  159.8540  206.7340  148.3470 C   0  0  0  0  0  1  0  0  0  0  0  0
  162.0550  207.7400  148.8990 C   0  0  0  0  0  2  0  0  0  0  0  0
  161.6350  207.3860  151.6570 C   0  0  2  0  0  3  0  0  0  0  0  0
  160.5250  206.8960  150.7210 C   0  0  0  0  0  2  0  0  0  0  0  0
  161.9600  208.8610  149.7430 O   0  0  0  0  0  0  0  0  0  0  0  0
  161.0570  207.9180  152.8810 N   0  0  0  0  0  2  0  0  0  0  0  0
  160.9250  207.1370  154.0750 C   0  0  0  0  0  0  0  0  0  0  0  0
  161.3400  205.9480  154.1060 O   0  0  0  0  0  0  0  0  0  0  0  0
  160.0810  206.9810  156.3590 C   0  0  0  0  0  2  0  0  0  0  0  0
  160.3100  207.7100  155.2760 C   0  0  0  0  0  3  0  0  0  0  0  0
  161.9390  204.7080  147.8290 C   0  0  0  0  0  0  0  0  0  0  0  0
  162.9770  204.8040  145.6380 C   0  0  0  0  0  3  0  0  0  0  0  0
  162.3020  203.6380  145.2640 C   0  0  0  0  0  3  0  0  0  0  0  0
  162.7950  205.3390  146.9140 C   0  0  0  0  0  3  0  0  0  0  0  0
  161.2640  203.5420  147.4510 C   0  0  0  0  0  3  0  0  0  0  0  0
  161.4320  203.0100  146.1660 C   0  0  0  0  0  0  0  0  0  0  0  0
  159.9970  201.2560  146.8800 O   0  0  0  0  0  0  0  0  0  0  0  0
  161.2130  200.6080  146.6100 C   0  0  0  0  0  2  0  0  0  0  0  0
  160.7370  201.7420  145.7830 C   0  0  2  0  0  3  0  0  0  0  0  0
  161.2340  204.2160  150.1910 C   0  0  0  0  0  0  0  0  0  0  0  0
  160.0080  203.4460  149.8330 C   0  0  0  0  0  1  0  0  0  0  0  0
  161.8620  204.0100  151.3500 C   0  0  0  0  0  3  0  0  0  0  0  0
  161.4040  203.0400  152.2890 N   0  0  0  0  0  1  0  0  0  0  0  0
  1  3  1  0  0  0  0
  1 23  1  1  0  0  0
  2  6  1  0  0  0  0
  3  4  1  6  0  0  0
  3  7  1  0  0  0  0
  5  3  1  0  0  0  0
  5  8  1  0  0  0  0
  6  9  1  1  0  0  0
  7  6  1  0  0  0  0
  8  2  1  0  0  0  0
  9 10  1  0  0  0  0
 10 11  2  0  0  0  0
 10 13  1  0  0  0  0
 13 12  2  0  0  0  0
 14  1  1  0  0  0  0
 15 17  1  0  0  0  0
 16 15  2  0  0  0  0
 16 19  1  0  0  0  0
 17 14  2  0  0  0  0
 18 14  1  0  0  0  0
 19 18  2  0  0  0  0
 21 20  1  0  0  0  0
 22 19  1  1  0  0  0
 22 21  1  0  0  0  0
 22 20  1  0  0  0  0
 23 25  2  0  0  0  0
 24 23  1  0  0  0  0
 25 26  1  0  0  0  0
M  END
>  <MODEL>
4

>  <REMARK>
 VINA RESULT:      -7.0      2.524      4.865
  Name = 
  6 active torsions:
  status: ('A' for Active; 'I' for Inactive)
    1  A    between atoms: C_4  and  C_25
    2  A    between atoms: C_5  and  C_25
    3  A    between atoms: C_6  and  C_25
    4  A    between atoms: N_10  and  C_12
    5  A    between atoms: C_15  and  C_18
    6  A    between atoms: C_22  and  C_24
                            x       y       z     vdW  Elec       q    Type
                         _______ _______ _______ _____ _____    ______ ____

>  <TORSDO>
F 6

$$$$
=
 OpenBabel11052411153D

 26 28  0  0  1  0  0  0  0  0999 V2000
  161.8500  205.5120  149.6120 C   0  0  2  0  0  3  0  0  0  0  0  0
  162.4680  208.8740  151.1330 C   0  0  0  0  0  2  0  0  0  0  0  0
  161.1060  206.8720  149.5800 C   0  0  2  0  0  0  0  0  0  0  0  0
  159.9260  206.8380  148.6210 C   0  0  0  0  0  1  0  0  0  0  0  0
  162.0760  207.9760  149.1090 C   0  0  0  0  0  2  0  0  0  0  0  0
  161.6440  207.8160  151.8840 C   0  0  2  0  0  3  0  0  0  0  0  0
  160.5650  207.2080  150.9800 C   0  0  0  0  0  2  0  0  0  0  0  0
  161.9250  209.1530  149.8640 O   0  0  0  0  0  0  0  0  0  0  0  0
  161.0320  208.4140  153.0590 N   0  0  0  0  0  2  0  0  0  0  0  0
  160.7340  207.6620  154.2410 C   0  0  0  0  0  0  0  0  0  0  0  0
  161.0270  206.4380  154.3070 O   0  0  0  0  0  0  0  0  0  0  0  0
  160.2840  207.8740  156.6310 C   0  0  0  0  0  2  0  0  0  0  0  0
  160.0910  208.3040  155.3910 C   0  0  0  0  0  3  0  0  0  0  0  0
  161.7560  204.6830  148.3580 C   0  0  0  0  0  0  0  0  0  0  0  0
  162.1010  204.3810  145.9760 C   0  0  0  0  0  3  0  0  0  0  0  0
  161.5630  203.0930  146.0590 C   0  0  0  0  0  3  0  0  0  0  0  0
  162.1950  205.1750  147.1200 C   0  0  0  0  0  3  0  0  0  0  0  0
  161.2180  203.3940  148.4370 C   0  0  0  0  0  3  0  0  0  0  0  0
  161.1080  202.5990  147.2890 C   0  0  0  0  0  0  0  0  0  0  0  0
  160.9390  200.6420  148.6250 O   0  0  0  0  0  0  0  0  0  0  0  0
  161.6650  200.2210  147.4990 C   0  0  0  0  0  2  0  0  0  0  0  0
  160.5660  201.2090  147.3900 C   0  0  2  0  0  3  0  0  0  0  0  0
  161.6890  204.6960  150.8710 C   0  0  0  0  0  0  0  0  0  0  0  0
  162.7890  204.7380  151.8780 C   0  0  0  0  0  1  0  0  0  0  0  0
  160.6060  203.9400  151.0660 C   0  0  0  0  0  3  0  0  0  0  0  0
  160.4430  203.1540  152.2440 N   0  0  0  0  0  1  0  0  0  0  0  0
  1 23  1  1  0  0  0
  2  6  1  0  0  0  0
  3  4  1  6  0  0  0
  3  1  1  0  0  0  0
  3  7  1  0  0  0  0
  5  3  1  0  0  0  0
  5  8  1  0  0  0  0
  6  9  1  1  0  0  0
  7  6  1  0  0  0  0
  8  2  1  0  0  0  0
  9 10  1  0  0  0  0
 10 11  2  0  0  0  0
 10 13  1  0  0  0  0
 13 12  2  0  0  0  0
 14 18  1  0  0  0  0
 14  1  1  0  0  0  0
 15 16  2  0  0  0  0
 15 17  1  0  0  0  0
 16 19  1  0  0  0  0
 17 14  2  0  0  0  0
 19 18  2  0  0  0  0
 21 20  1  0  0  0  0
 22 19  1  1  0  0  0
 22 21  1  0  0  0  0
 22 20  1  0  0  0  0
 23 25  2  0  0  0  0
 23 24  1  0  0  0  0
 25 26  1  0  0  0  0
M  END
>  <MODEL>
5

>  <REMARK>
 VINA RESULT:      -6.8      2.431      4.560
  Name = 
  6 active torsions:
  status: ('A' for Active; 'I' for Inactive)
    1  A    between atoms: C_4  and  C_25
    2  A    between atoms: C_5  and  C_25
    3  A    between atoms: C_6  and  C_25
    4  A    between atoms: N_10  and  C_12
    5  A    between atoms: C_15  and  C_18
    6  A    between atoms: C_22  and  C_24
                            x       y       z     vdW  Elec       q    Type
                         _______ _______ _______ _____ _____    ______ ____

>  <TORSDO>
F 6

$$$$
=
 OpenBabel11052411153D

 26 28  0  0  1  0  0  0  0  0999 V2000
  161.1240  206.0090  150.5000 C   0  0  2  0  0  3  0  0  0  0  0  0
  160.4560  208.2400  153.4300 C   0  0  0  0  0  2  0  0  0  0  0  0
  162.0110  206.6700  151.5870 C   0  0  2  0  0  0  0  0  0  0  0  0
  163.4540  206.2040  151.4860 C   0  0  0  0  0  1  0  0  0  0  0  0
  161.4790  206.2870  152.9850 C   0  0  0  0  0  2  0  0  0  0  0  0
  160.7500  208.8360  152.0440 C   0  0  2  0  0  3  0  0  0  0  0  0
  161.9960  208.1990  151.4190 C   0  0  0  0  0  2  0  0  0  0  0  0
  161.4900  207.3880  153.8610 O   0  0  0  0  0  0  0  0  0  0  0  0
  160.9290  210.2750  152.1570 N   0  0  0  0  0  2  0  0  0  0  0  0
  159.8590  211.1590  152.5070 C   0  0  0  0  0  0  0  0  0  0  0  0
  158.7120  210.7020  152.7600 O   0  0  0  0  0  0  0  0  0  0  0  0
  159.2450  213.4720  152.0260 C   0  0  0  0  0  2  0  0  0  0  0  0
  160.0810  212.6060  152.5820 C   0  0  0  0  0  3  0  0  0  0  0  0
  161.0410  204.5070  150.5460 C   0  0  0  0  0  0  0  0  0  0  0  0
  161.2060  202.4000  151.7390 C   0  0  0  0  0  3  0  0  0  0  0  0
  160.8660  201.7100  150.5720 C   0  0  0  0  0  3  0  0  0  0  0  0
  161.2960  203.7930  151.7270 C   0  0  0  0  0  3  0  0  0  0  0  0
  160.7020  203.8120  149.3800 C   0  0  0  0  0  3  0  0  0  0  0  0
  160.6250  202.4130  149.3840 C   0  0  0  0  0  0  0  0  0  0  0  0
  161.2060  200.7250  147.8170 O   0  0  0  0  0  0  0  0  0  0  0  0
  161.2060  201.9060  147.0560 C   0  0  0  0  0  2  0  0  0  0  0  0
  160.2240  201.6810  148.1430 C   0  0  2  0  0  3  0  0  0  0  0  0
  161.2760  206.5490  149.1000 C   0  0  0  0  0  0  0  0  0  0  0  0
  162.3540  207.5480  148.8490 C   0  0  0  0  0  1  0  0  0  0  0  0
  160.4550  206.1630  148.1210 C   0  0  0  0  0  3  0  0  0  0  0  0
  160.5760  206.6720  146.7950 N   0  0  0  0  0  1  0  0  0  0  0  0
  1 23  1  6  0  0  0
  1 14  1  0  0  0  0
  1  3  1  0  0  0  0
  2  8  1  0  0  0  0
  3  4  1  6  0  0  0
  3  5  1  0  0  0  0
  5  8  1  0  0  0  0
  6  9  1  1  0  0  0
  6  2  1  0  0  0  0
  7  3  1  0  0  0  0
  7  6  1  0  0  0  0
  9 10  1  0  0  0  0
 10 13  1  0  0  0  0
 10 11  2  0  0  0  0
 12 13  2  0  0  0  0
 14 17  1  0  0  0  0
 16 15  1  0  0  0  0
 17 15  2  0  0  0  0
 18 19  1  0  0  0  0
 18 14  2  0  0  0  0
 19 16  2  0  0  0  0
 20 22  1  0  0  0  0
 21 20  1  0  0  0  0
 21 22  1  0  0  0  0
 22 19  1  1  0  0  0
 24 23  1  0  0  0  0
 25 23  2  0  0  0  0
 26 25  1  0  0  0  0
M  END
>  <MODEL>
6

>  <REMARK>
 VINA RESULT:      -6.6      2.027      2.168
  Name = 
  6 active torsions:
  status: ('A' for Active; 'I' for Inactive)
    1  A    between atoms: C_4  and  C_25
    2  A    between atoms: C_5  and  C_25
    3  A    between atoms: C_6  and  C_25
    4  A    between atoms: N_10  and  C_12
    5  A    between atoms: C_15  and  C_18
    6  A    between atoms: C_22  and  C_24
                            x       y       z     vdW  Elec       q    Type
                         _______ _______ _______ _____ _____    ______ ____

>  <TORSDO>
F 6

$$$$
=
 OpenBabel11052411153D

 26 28  0  0  1  0  0  0  0  0999 V2000
  161.3120  206.6230  150.3810 C   0  0  2  0  0  3  0  0  0  0  0  0
  160.3470  206.5810  153.9960 C   0  0  0  0  0  2  0  0  0  0  0  0
  162.0800  206.3870  151.7080 C   0  0  2  0  0  0  0  0  0  0  0  0
  163.5200  205.9720  151.4510 C   0  0  0  0  0  1  0  0  0  0  0  0
  161.3900  205.2590  152.5060 C   0  0  0  0  0  2  0  0  0  0  0  0
  160.8030  207.8860  153.3230 C   0  0  2  0  0  3  0  0  0  0  0  0
  162.1030  207.6810  152.5390 C   0  0  0  0  0  2  0  0  0  0  0  0
  161.3160  205.5670  153.8760 O   0  0  0  0  0  0  0  0  0  0  0  0
  160.9850  208.9190  154.3300 N   0  0  0  0  0  2  0  0  0  0  0  0
  160.5670  210.2740  154.1290 C   0  0  0  0  0  0  0  0  0  0  0  0
  159.9920  210.6110  153.0600 O   0  0  0  0  0  0  0  0  0  0  0  0
  161.6760  211.1030  156.1400 C   0  0  0  0  0  2  0  0  0  0  0  0
  160.7970  211.2870  155.1640 C   0  0  0  0  0  3  0  0  0  0  0  0
  161.3220  205.4760  149.4050 C   0  0  0  0  0  0  0  0  0  0  0  0
  161.8610  204.5310  147.2360 C   0  0  0  0  0  3  0  0  0  0  0  0
  161.3190  203.3060  147.6330 C   0  0  0  0  0  3  0  0  0  0  0  0
  161.8610  205.6140  148.1170 C   0  0  0  0  0  3  0  0  0  0  0  0
  160.7790  204.2480  149.7980 C   0  0  0  0  0  3  0  0  0  0  0  0
  160.7640  203.1630  148.9120 C   0  0  0  0  0  0  0  0  0  0  0  0
  161.0590  201.2840  150.3360 O   0  0  0  0  0  0  0  0  0  0  0  0
  161.1650  200.7470  149.0430 C   0  0  0  0  0  2  0  0  0  0  0  0
  160.2170  201.8430  149.3540 C   0  0  2  0  0  3  0  0  0  0  0  0
  161.5250  207.9610  149.7200 C   0  0  0  0  0  0  0  0  0  0  0  0
  161.3680  208.0440  148.2390 C   0  0  0  0  0  1  0  0  0  0  0  0
  161.8680  209.0350  150.4360 C   0  0  0  0  0  3  0  0  0  0  0  0
  162.0850  210.3050  149.8270 N   0  0  0  0  0  1  0  0  0  0  0  0
  1 23  1  6  0  0  0
  1  3  1  0  0  0  0
  3  4  1  6  0  0  0
  3  5  1  0  0  0  0
  3  7  1  0  0  0  0
  5  8  1  0  0  0  0
  6  2  1  0  0  0  0
  6  9  1  1  0  0  0
  7  6  1  0  0  0  0
  8  2  1  0  0  0  0
 10  9  1  0  0  0  0
 10 13  1  0  0  0  0
 11 10  2  0  0  0  0
 13 12  2  0  0  0  0
 14 18  1  0  0  0  0
 14  1  1  0  0  0  0
 15 16  2  0  0  0  0
 15 17  1  0  0  0  0
 16 19  1  0  0  0  0
 17 14  2  0  0  0  0
 19 18  2  0  0  0  0
 21 22  1  0  0  0  0
 21 20  1  0  0  0  0
 22 19  1  6  0  0  0
 22 20  1  0  0  0  0
 23 25  2  0  0  0  0
 24 23  1  0  0  0  0
 26 25  1  0  0  0  0
M  END
>  <MODEL>
7

>  <REMARK>
 VINA RESULT:      -6.2      2.336      3.722
  Name = 
  6 active torsions:
  status: ('A' for Active; 'I' for Inactive)
    1  A    between atoms: C_4  and  C_25
    2  A    between atoms: C_5  and  C_25
    3  A    between atoms: C_6  and  C_25
    4  A    between atoms: N_10  and  C_12
    5  A    between atoms: C_15  and  C_18
    6  A    between atoms: C_22  and  C_24
                            x       y       z     vdW  Elec       q    Type
                         _______ _______ _______ _____ _____    ______ ____

>  <TORSDO>
F 6

$$$$
=
 OpenBabel11052411153D

 26 28  0  0  1  0  0  0  0  0999 V2000
  161.5870  204.9770  149.8920 C   0  0  2  0  0  3  0  0  0  0  0  0
  163.0240  208.3360  149.0800 C   0  0  0  0  0  2  0  0  0  0  0  0
  161.1220  206.1780  149.0280 C   0  0  2  0  0  0  0  0  0  0  0  0
  159.8500  205.8510  148.2600 C   0  0  0  0  0  1  0  0  0  0  0  0
  162.2230  206.5300  148.0050 C   0  0  0  0  0  2  0  0  0  0  0  0
  162.1090  208.1510  150.3010 C   0  0  2  0  0  3  0  0  0  0  0  0
  160.8310  207.3920  149.9270 C   0  0  0  0  0  2  0  0  0  0  0  0
  162.3960  207.9220  147.8900 O   0  0  0  0  0  0  0  0  0  0  0  0
  161.7720  209.4500  150.8610 N   0  0  0  0  0  2  0  0  0  0  0  0
  160.9280  209.5990  152.0090 C   0  0  0  0  0  0  0  0  0  0  0  0
  160.4650  208.5840  152.5950 O   0  0  0  0  0  0  0  0  0  0  0  0
  159.4100  211.1990  153.0530 C   0  0  0  0  0  2  0  0  0  0  0  0
  160.5940  210.9310  152.5210 C   0  0  0  0  0  3  0  0  0  0  0  0
  161.2500  203.6120  149.3540 C   0  0  0  0  0  0  0  0  0  0  0  0
  160.4910  201.3290  149.6650 C   0  0  0  0  0  3  0  0  0  0  0  0
  160.6300  201.0930  148.2950 C   0  0  0  0  0  3  0  0  0  0  0  0
  160.8020  202.5830  150.1950 C   0  0  0  0  0  3  0  0  0  0  0  0
  161.3890  203.3720  147.9820 C   0  0  0  0  0  3  0  0  0  0  0  0
  161.0920  202.1110  147.4490 C   0  0  0  0  0  0  0  0  0  0  0  0
  161.1290  203.1030  145.2910 O   0  0  0  0  0  0  0  0  0  0  0  0
  159.9740  202.3040  145.2750 C   0  0  0  0  0  2  0  0  0  0  0  0
  161.2060  201.8750  145.9760 C   0  0  2  0  0  3  0  0  0  0  0  0
  161.3550  205.0990  151.3770 C   0  0  0  0  0  0  0  0  0  0  0  0
  160.0820  204.5580  151.9340 C   0  0  0  0  0  1  0  0  0  0  0  0
  162.2520  205.6960  152.1660 C   0  0  0  0  0  3  0  0  0  0  0  0
  162.0440  205.8310  153.5700 N   0  0  0  0  0  1  0  0  0  0  0  0
  1 23  1  1  0  0  0
  2  6  1  0  0  0  0
  3  4  1  6  0  0  0
  3  1  1  0  0  0  0
  3  7  1  0  0  0  0
  5  3  1  0  0  0  0
  6  9  1  6  0  0  0
  7  6  1  0  0  0  0
  8  5  1  0  0  0  0
  8  2  1  0  0  0  0
  9 10  1  0  0  0  0
 10 13  1  0  0  0  0
 10 11  2  0  0  0  0
 13 12  2  0  0  0  0
 14  1  1  0  0  0  0
 14 17  1  0  0  0  0
 15 17  2  0  0  0  0
 16 15  1  0  0  0  0
 18 14  2  0  0  0  0
 19 18  1  0  0  0  0
 19 16  2  0  0  0  0
 20 22  1  0  0  0  0
 21 20  1  0  0  0  0
 21 22  1  0  0  0  0
 22 19  1  1  0  0  0
 23 24  1  0  0  0  0
 23 25  2  0  0  0  0
 25 26  1  0  0  0  0
M  END
>  <MODEL>
8

>  <REMARK>
 VINA RESULT:      -6.2      2.116      3.768
  Name = 
  6 active torsions:
  status: ('A' for Active; 'I' for Inactive)
    1  A    between atoms: C_4  and  C_25
    2  A    between atoms: C_5  and  C_25
    3  A    between atoms: C_6  and  C_25
    4  A    between atoms: N_10  and  C_12
    5  A    between atoms: C_15  and  C_18
    6  A    between atoms: C_22  and  C_24
                            x       y       z     vdW  Elec       q    Type
                         _______ _______ _______ _____ _____    ______ ____

>  <TORSDO>
F 6

$$$$
=
 OpenBabel11052411153D

 26 28  0  0  1  0  0  0  0  0999 V2000
  161.0640  205.9280  148.8590 C   0  0  2  0  0  3  0  0  0  0  0  0
  161.9570  206.9090  152.3580 C   0  0  0  0  0  2  0  0  0  0  0  0
  162.0280  206.9710  149.4820 C   0  0  2  0  0  0  0  0  0  0  0  0
  162.8670  207.6590  148.4180 C   0  0  0  0  0  1  0  0  0  0  0  0
  162.9840  206.2620  150.4650 C   0  0  0  0  0  2  0  0  0  0  0  0
  160.7990  207.6020  151.6220 C   0  0  2  0  0  3  0  0  0  0  0  0
  161.2230  208.0540  150.2210 C   0  0  0  0  0  2  0  0  0  0  0  0
  163.1650  207.0110  151.6420 O   0  0  0  0  0  0  0  0  0  0  0  0
  160.3400  208.7430  152.3970 N   0  0  0  0  0  2  0  0  0  0  0  0
  161.1590  209.8930  152.6360 C   0  0  0  0  0  0  0  0  0  0  0  0
  162.3190  209.9610  152.1480 O   0  0  0  0  0  0  0  0  0  0  0  0
  160.9430  211.1140  154.7390 C   0  0  0  0  0  2  0  0  0  0  0  0
  160.6610  211.0080  153.4470 C   0  0  0  0  0  3  0  0  0  0  0  0
  160.9840  204.6030  149.5690 C   0  0  0  0  0  0  0  0  0  0  0  0
  160.7390  203.2810  151.5900 C   0  0  0  0  0  3  0  0  0  0  0  0
  160.8350  202.1080  150.8360 C   0  0  0  0  0  3  0  0  0  0  0  0
  160.8160  204.5250  150.9600 C   0  0  0  0  0  3  0  0  0  0  0  0
  161.0800  203.4260  148.8190 C   0  0  0  0  0  3  0  0  0  0  0  0
  161.0180  202.1760  149.4480 C   0  0  0  0  0  0  0  0  0  0  0  0
  161.8890  201.1360  147.4970 O   0  0  0  0  0  0  0  0  0  0  0  0
  160.5000  201.1360  147.2890 C   0  0  0  0  0  2  0  0  0  0  0  0
  161.0830  200.9230  148.6340 C   0  0  2  0  0  3  0  0  0  0  0  0
  161.1160  205.7900  147.3580 C   0  0  0  0  0  0  0  0  0  0  0  0
  162.2810  205.0750  146.7600 C   0  0  0  0  0  1  0  0  0  0  0  0
  160.1610  206.3140  146.5860 C   0  0  0  0  0  3  0  0  0  0  0  0
  160.2000  206.2040  145.1650 N   0  0  0  0  0  1  0  0  0  0  0  0
  1 23  1  6  0  0  0
  1  3  1  0  0  0  0
  1 14  1  0  0  0  0
  3  4  1  6  0  0  0
  3  7  1  0  0  0  0
  3  5  1  0  0  0  0
  5  8  1  0  0  0  0
  6  2  1  0  0  0  0
  6  9  1  1  0  0  0
  7  6  1  0  0  0  0
  8  2  1  0  0  0  0
  9 10  1  0  0  0  0
 10 13  1  0  0  0  0
 11 10  2  0  0  0  0
 13 12  2  0  0  0  0
 14 17  1  0  0  0  0
 16 15  1  0  0  0  0
 17 15  2  0  0  0  0
 18 19  1  0  0  0  0
 18 14  2  0  0  0  0
 19 16  2  0  0  0  0
 20 22  1  0  0  0  0
 21 20  1  0  0  0  0
 21 22  1  0  0  0  0
 22 19  1  1  0  0  0
 24 23  1  0  0  0  0
 25 23  2  0  0  0  0
 26 25  1  0  0  0  0
M  END
>  <MODEL>
9

>  <REMARK>
 VINA RESULT:      -6.1      2.063      2.736
  Name = 
  6 active torsions:
  status: ('A' for Active; 'I' for Inactive)
    1  A    between atoms: C_4  and  C_25
    2  A    between atoms: C_5  and  C_25
    3  A    between atoms: C_6  and  C_25
    4  A    between atoms: N_10  and  C_12
    5  A    between atoms: C_15  and  C_18
    6  A    between atoms: C_22  and  C_24
                            x       y       z     vdW  Elec       q    Type
                         _______ _______ _______ _____ _____    ______ ____

>  <TORSDO>
F 6

$$$$
