=
 OpenBabel11052409523D

 26 30  0  0  1  0  0  0  0  0999 V2000
  162.8000  205.6700  152.4720 C   0  0  0  0  0  1  0  0  0  0  0  0
  160.3570  204.4770  152.0440 S   0  0  0  0  0  0  0  0  0  0  0  0
  160.9250  207.1000  151.5190 C   0  0  2  0  0  3  0  0  0  0  0  0
  161.6680  208.4300  151.6990 C   0  0  2  0  0  3  0  0  0  0  0  0
  160.8380  204.3600  150.3010 C   0  0  0  0  0  0  0  0  0  0  0  0
  161.4380  205.3670  148.1490 C   0  0  0  0  0  0  0  0  0  0  0  0
  161.3070  205.9830  152.5000 C   0  0  2  0  0  0  0  0  0  0  0  0
  161.4690  204.0980  147.5670 C   0  0  0  0  0  3  0  0  0  0  0  0
  161.5240  207.6420  154.4790 C   0  0  1  0  0  3  0  0  0  0  0  0
  160.8740  206.3660  153.9260 C   0  0  0  0  0  2  0  0  0  0  0  0
  160.9280  209.2620  152.7010 C   0  0  0  0  0  0  0  0  0  0  0  0
  162.1630  210.1070  149.9720 O   0  0  0  0  0  0  0  0  0  0  0  0
  160.8430  208.8140  154.0220 O   0  0  0  0  0  0  0  0  0  0  0  0
  160.8910  203.0970  149.7010 C   0  0  0  0  0  3  0  0  0  0  0  0
  160.3360  210.3580  152.3570 N   0  0  0  0  0  2  0  0  0  0  0  0
  161.7970  206.5050  147.3990 C   0  0  0  0  0  3  0  0  0  0  0  0
  161.5470  207.8610  149.3680 C   0  0  0  0  0  0  0  0  0  0  0  0
  161.1050  205.4970  149.5210 C   0  0  0  0  0  0  0  0  0  0  0  0
  161.1510  206.7630  150.0900 C   0  0  0  0  0  0  0  0  0  0  0  0
  161.7750  208.9530  150.2940 C   0  0  0  0  0  0  0  0  0  0  0  0
  161.1980  202.9600  148.3360 C   0  0  0  0  0  0  0  0  0  0  0  0
  161.8740  207.7680  148.0150 C   0  0  0  0  0  3  0  0  0  0  0  0
  161.4810  207.5950  155.9680 C   0  0  0  0  0  3  0  0  0  0  0  0
  162.0230  208.4690  156.6260 O   0  0  0  0  0  0  0  0  0  0  0  0
  161.2440  201.7060  147.7200 O   0  0  0  0  0  0  0  0  0  0  0  0
  160.8010  201.4890  146.3870 C   0  0  0  0  0  1  0  0  0  0  0  0
  2  7  1  0  0  0  0
  3 19  1  6  0  0  0
  3  4  1  0  0  0  0
  3  7  1  0  0  0  0
  4 20  1  6  0  0  0
  4 11  1  0  0  0  0
  5  2  1  0  0  0  0
  6 18  1  0  0  0  0
  7  1  1  6  0  0  0
  7 10  1  0  0  0  0
  8  6  2  0  0  0  0
  8 21  1  0  0  0  0
  9 23  1  1  0  0  0
 10  9  1  0  0  0  0
 11 13  1  0  0  0  0
 12 20  2  0  0  0  0
 13  9  1  0  0  0  0
 14  5  1  0  0  0  0
 15 11  2  0  0  0  0
 16 22  2  0  0  0  0
 16  6  1  0  0  0  0
 17 19  2  0  0  0  0
 17 20  1  0  0  0  0
 18 19  1  0  0  0  0
 18  5  2  0  0  0  0
 21 14  2  0  0  0  0
 22 17  1  0  0  0  0
 23 24  2  0  0  0  0
 25 21  1  0  0  0  0
 26 25  1  0  0  0  0
M  END
>  <MODEL>
1

>  <REMARK>
 VINA RESULT:      -9.5      0.000      0.000
  Name = 
  2 active torsions:
  status: ('A' for Active; 'I' for Inactive)
    1  A    between atoms: C_6  and  C_11
    2  A    between atoms: O_8  and  C_24
                            x       y       z     vdW  Elec       q    Type
                         _______ _______ _______ _____ _____    ______ ____

>  <TORSDO>
F 2

$$$$
=
 OpenBabel11052409523D

 26 30  0  0  1  0  0  0  0  0999 V2000
  163.0680  205.3940  147.7600 C   0  0  0  0  0  1  0  0  0  0  0  0
  160.7910  206.7740  148.4560 S   0  0  0  0  0  0  0  0  0  0  0  0
  160.8690  204.1180  147.8100 C   0  0  2  0  0  3  0  0  0  0  0  0
  161.4270  202.8650  147.1240 C   0  0  2  0  0  3  0  0  0  0  0  0
  160.9810  206.0460  150.1050 C   0  0  0  0  0  0  0  0  0  0  0  0
  161.0520  204.1300  151.6300 C   0  0  0  0  0  0  0  0  0  0  0  0
  161.5720  205.4370  147.4650 C   0  0  2  0  0  0  0  0  0  0  0  0
  161.1700  205.0000  152.7140 C   0  0  0  0  0  3  0  0  0  0  0  0
  161.8750  204.7570  144.9830 C   0  0  1  0  0  3  0  0  0  0  0  0
  161.3360  205.7870  145.9850 C   0  0  0  0  0  2  0  0  0  0  0  0
  160.7540  202.7020  145.7970 C   0  0  0  0  0  0  0  0  0  0  0  0
  161.3690  200.5550  147.9630 O   0  0  0  0  0  0  0  0  0  0  0  0
  160.9610  203.6700  144.8100 O   0  0  0  0  0  0  0  0  0  0  0  0
  161.1170  206.9000  151.2050 C   0  0  0  0  0  3  0  0  0  0  0  0
  159.9570  201.7120  145.5640 N   0  0  0  0  0  2  0  0  0  0  0  0
  161.1060  202.7350  151.8250 C   0  0  0  0  0  3  0  0  0  0  0  0
  160.9970  202.4140  149.4440 C   0  0  0  0  0  0  0  0  0  0  0  0
  160.9410  204.6590  150.3190 C   0  0  0  0  0  0  0  0  0  0  0  0
  160.8960  203.7690  149.2540 C   0  0  0  0  0  0  0  0  0  0  0  0
  161.2160  201.7900  148.1550 C   0  0  0  0  0  0  0  0  0  0  0  0
  161.2040  206.3840  152.5110 C   0  0  0  0  0  0  0  0  0  0  0  0
  161.1000  201.8610  150.7220 C   0  0  0  0  0  3  0  0  0  0  0  0
  162.0930  205.4320  143.6720 C   0  0  0  0  0  3  0  0  0  0  0  0
  161.1390  205.7930  143.0010 O   0  0  0  0  0  0  0  0  0  0  0  0
  161.3290  207.2250  153.6200 O   0  0  0  0  0  0  0  0  0  0  0  0
  160.5870  207.0310  154.8180 C   0  0  0  0  0  1  0  0  0  0  0  0
  2  5  1  0  0  0  0
  3 19  1  1  0  0  0
  4 11  1  6  0  0  0
  4  3  1  0  0  0  0
  4 20  1  0  0  0  0
  5 18  2  0  0  0  0
  5 14  1  0  0  0  0
  6 16  1  0  0  0  0
  6  8  2  0  0  0  0
  7  1  1  1  0  0  0
  7  3  1  0  0  0  0
  7  2  1  0  0  0  0
  9 23  1  6  0  0  0
  9 10  1  0  0  0  0
 10  7  1  0  0  0  0
 12 20  2  0  0  0  0
 13  9  1  0  0  0  0
 13 11  1  0  0  0  0
 14 21  2  0  0  0  0
 15 11  2  0  0  0  0
 17 22  1  0  0  0  0
 18  6  1  0  0  0  0
 19 17  2  0  0  0  0
 19 18  1  0  0  0  0
 20 17  1  0  0  0  0
 21  8  1  0  0  0  0
 21 25  1  0  0  0  0
 22 16  2  0  0  0  0
 24 23  2  0  0  0  0
 25 26  1  0  0  0  0
M  END
>  <MODEL>
2

>  <REMARK>
 VINA RESULT:      -9.5      3.053      7.605
  Name = 
  2 active torsions:
  status: ('A' for Active; 'I' for Inactive)
    1  A    between atoms: C_6  and  C_11
    2  A    between atoms: O_8  and  C_24
                            x       y       z     vdW  Elec       q    Type
                         _______ _______ _______ _____ _____    ______ ____

>  <TORSDO>
F 2

$$$$
=
 OpenBabel11052409523D

 26 30  0  0  1  0  0  0  0  0999 V2000
  162.8290  204.7430  147.5020 C   0  0  0  0  0  1  0  0  0  0  0  0
  160.7130  206.4650  147.1430 S   0  0  0  0  0  0  0  0  0  0  0  0
  160.7530  204.3960  148.9310 C   0  0  2  0  0  3  0  0  0  0  0  0
  161.1930  203.0320  149.4760 C   0  0  2  0  0  3  0  0  0  0  0  0
  161.3010  207.3300  148.6230 C   0  0  0  0  0  0  0  0  0  0  0  0
  161.7960  207.4240  151.0210 C   0  0  0  0  0  0  0  0  0  0  0  0
  161.3040  204.7730  147.5490 C   0  0  2  0  0  0  0  0  0  0  0  0
  162.1200  208.7760  150.8990 C   0  0  0  0  0  3  0  0  0  0  0  0
  161.0650  202.3480  146.6680 C   0  0  1  0  0  3  0  0  0  0  0  0
  160.7250  203.8320  146.4780 C   0  0  0  0  0  2  0  0  0  0  0  0
  160.2440  201.9860  148.9780 C   0  0  0  0  0  0  0  0  0  0  0  0
  161.4240  202.3710  151.8320 O   0  0  0  0  0  0  0  0  0  0  0  0
  160.1820  201.7270  147.6060 O   0  0  0  0  0  0  0  0  0  0  0  0
  161.6470  208.6810  148.5200 C   0  0  0  0  0  3  0  0  0  0  0  0
  159.4580  201.3540  149.7850 N   0  0  0  0  0  2  0  0  0  0  0  0
  161.9520  206.7620  152.2560 C   0  0  0  0  0  3  0  0  0  0  0  0
  161.3200  204.6920  151.2070 C   0  0  0  0  0  0  0  0  0  0  0  0
  161.3690  206.7030  149.8780 C   0  0  0  0  0  0  0  0  0  0  0  0
  161.1210  205.3430  150.0150 C   0  0  0  0  0  0  0  0  0  0  0  0
  161.2660  203.2660  150.9590 C   0  0  0  0  0  0  0  0  0  0  0  0
  162.0500  209.4110  149.6530 C   0  0  0  0  0  0  0  0  0  0  0  0
  161.7320  205.3750  152.3530 C   0  0  0  0  0  3  0  0  0  0  0  0
  160.9520  201.6570  145.3520 C   0  0  0  0  0  3  0  0  0  0  0  0
  159.8550  201.3520  144.9110 O   0  0  0  0  0  0  0  0  0  0  0  0
  162.3870  210.7640  149.5680 O   0  0  0  0  0  0  0  0  0  0  0  0
  162.0400  211.5740  148.4520 C   0  0  0  0  0  1  0  0  0  0  0  0
  2  7  1  0  0  0  0
  2  5  1  0  0  0  0
  3  4  1  0  0  0  0
  3 19  1  1  0  0  0
  4 11  1  1  0  0  0
  4 20  1  0  0  0  0
  5 18  1  0  0  0  0
  6 16  1  0  0  0  0
  7  1  1  6  0  0  0
  7  3  1  0  0  0  0
  8  6  1  0  0  0  0
  9 23  1  6  0  0  0
  9 13  1  0  0  0  0
 10  9  1  0  0  0  0
 10  7  1  0  0  0  0
 11 15  2  0  0  0  0
 13 11  1  0  0  0  0
 14  5  2  0  0  0  0
 14 21  1  0  0  0  0
 16 22  2  0  0  0  0
 17 22  1  0  0  0  0
 18 19  1  0  0  0  0
 18  6  2  0  0  0  0
 19 17  2  0  0  0  0
 20 17  1  0  0  0  0
 20 12  2  0  0  0  0
 21  8  2  0  0  0  0
 24 23  2  0  0  0  0
 25 21  1  0  0  0  0
 26 25  1  0  0  0  0
M  END
>  <MODEL>
3

>  <REMARK>
 VINA RESULT:      -9.0      3.056      7.230
  Name = 
  2 active torsions:
  status: ('A' for Active; 'I' for Inactive)
    1  A    between atoms: C_6  and  C_11
    2  A    between atoms: O_8  and  C_24
                            x       y       z     vdW  Elec       q    Type
                         _______ _______ _______ _____ _____    ______ ____

>  <TORSDO>
F 2

$$$$
=
 OpenBabel11052409523D

 26 30  0  0  1  0  0  0  0  0999 V2000
  160.0490  206.3250  147.8540 C   0  0  0  0  0  1  0  0  0  0  0  0
  162.2860  205.2490  146.6650 S   0  0  0  0  0  0  0  0  0  0  0  0
  161.8890  205.4300  149.3650 C   0  0  2  0  0  3  0  0  0  0  0  0
  161.3040  206.0240  150.6520 C   0  0  2  0  0  3  0  0  0  0  0  0
  161.5500  203.6250  146.9920 C   0  0  0  0  0  0  0  0  0  0  0  0
  160.7400  201.8830  148.5130 C   0  0  0  0  0  0  0  0  0  0  0  0
  161.5530  206.1810  148.0690 C   0  0  2  0  0  0  0  0  0  0  0  0
  160.5110  201.0420  147.4230 C   0  0  0  0  0  3  0  0  0  0  0  0
  161.7740  208.4920  149.2190 C   0  0  1  0  0  3  0  0  0  0  0  0
  162.2190  207.5680  148.0780 C   0  0  0  0  0  2  0  0  0  0  0  0
  162.2520  207.0550  151.1810 C   0  0  0  0  0  0  0  0  0  0  0  0
  160.7190  204.8250  152.7170 O   0  0  0  0  0  0  0  0  0  0  0  0
  162.4860  208.2090  150.4270 O   0  0  0  0  0  0  0  0  0  0  0  0
  161.2970  202.7730  145.9130 C   0  0  0  0  0  3  0  0  0  0  0  0
  162.8850  206.8780  152.2930 N   0  0  0  0  0  2  0  0  0  0  0  0
  160.3810  201.4790  149.8140 C   0  0  0  0  0  3  0  0  0  0  0  0
  161.0350  203.6370  150.6480 C   0  0  0  0  0  0  0  0  0  0  0  0
  161.2780  203.1770  148.2950 C   0  0  0  0  0  0  0  0  0  0  0  0
  161.4300  204.0170  149.3900 C   0  0  0  0  0  0  0  0  0  0  0  0
  161.0420  204.8100  151.4990 C   0  0  0  0  0  0  0  0  0  0  0  0
  160.7850  201.4790  146.1220 C   0  0  0  0  0  0  0  0  0  0  0  0
  160.5090  202.3680  150.8970 C   0  0  0  0  0  3  0  0  0  0  0  0
  162.0280  209.9060  148.8180 C   0  0  0  0  0  3  0  0  0  0  0  0
  162.1080  210.7800  149.6660 O   0  0  0  0  0  0  0  0  0  0  0  0
  160.5370  200.6110  145.0550 O   0  0  0  0  0  0  0  0  0  0  0  0
  160.7780  199.2120  145.1310 C   0  0  0  0  0  1  0  0  0  0  0  0
  2  5  1  0  0  0  0
  2  7  1  0  0  0  0
  3 19  1  6  0  0  0
  3  4  1  0  0  0  0
  4 11  1  1  0  0  0
  4 20  1  0  0  0  0
  5 18  1  0  0  0  0
  6 16  1  0  0  0  0
  7  1  1  6  0  0  0
  7 10  1  0  0  0  0
  7  3  1  0  0  0  0
  8  6  1  0  0  0  0
  9 23  1  6  0  0  0
  9 13  1  0  0  0  0
 10  9  1  0  0  0  0
 11 15  2  0  0  0  0
 13 11  1  0  0  0  0
 14 21  1  0  0  0  0
 14  5  2  0  0  0  0
 16 22  2  0  0  0  0
 17 22  1  0  0  0  0
 17 20  1  0  0  0  0
 18  6  2  0  0  0  0
 18 19  1  0  0  0  0
 19 17  2  0  0  0  0
 20 12  2  0  0  0  0
 21  8  2  0  0  0  0
 23 24  2  0  0  0  0
 25 26  1  0  0  0  0
 25 21  1  0  0  0  0
M  END
>  <MODEL>
4

>  <REMARK>
 VINA RESULT:      -8.6      2.620      4.616
  Name = 
  2 active torsions:
  status: ('A' for Active; 'I' for Inactive)
    1  A    between atoms: C_6  and  C_11
    2  A    between atoms: O_8  and  C_24
                            x       y       z     vdW  Elec       q    Type
                         _______ _______ _______ _____ _____    ______ ____

>  <TORSDO>
F 2

$$$$
=
 OpenBabel11052409523D

 26 30  0  0  1  0  0  0  0  0999 V2000
  162.7100  204.6240  152.0640 C   0  0  0  0  0  1  0  0  0  0  0  0
  160.1920  203.5500  151.7820 S   0  0  0  0  0  0  0  0  0  0  0  0
  160.9200  206.0540  150.9590 C   0  0  2  0  0  3  0  0  0  0  0  0
  161.7470  207.3460  150.9850 C   0  0  2  0  0  3  0  0  0  0  0  0
  160.6470  203.2050  150.0610 C   0  0  0  0  0  0  0  0  0  0  0  0
  161.2880  203.9200  147.8070 C   0  0  0  0  0  0  0  0  0  0  0  0
  161.2400  205.0340  152.0600 C   0  0  2  0  0  0  0  0  0  0  0  0
  161.2320  202.5940  147.3740 C   0  0  0  0  0  3  0  0  0  0  0  0
  161.5820  206.8890  153.8370 C   0  0  1  0  0  3  0  0  0  0  0  0
  160.8470  205.6030  153.4340 C   0  0  0  0  0  2  0  0  0  0  0  0
  161.0720  208.3320  151.8870 C   0  0  0  0  0  0  0  0  0  0  0  0
  162.3310  208.7810  149.0760 O   0  0  0  0  0  0  0  0  0  0  0  0
  160.9720  208.0430  153.2510 O   0  0  0  0  0  0  0  0  0  0  0  0
  160.6140  201.8820  149.6100 C   0  0  0  0  0  3  0  0  0  0  0  0
  160.5480  209.4170  151.4230 N   0  0  0  0  0  2  0  0  0  0  0  0
  161.7110  204.9400  146.9320 C   0  0  0  0  0  3  0  0  0  0  0  0
  161.5670  206.5250  148.7340 C   0  0  0  0  0  0  0  0  0  0  0  0
  160.9770  204.2260  149.1570 C   0  0  0  0  0  0  0  0  0  0  0  0
  161.1090  205.5440  149.5770 C   0  0  0  0  0  0  0  0  0  0  0  0
  161.8740  207.6980  149.5290 C   0  0  0  0  0  0  0  0  0  0  0  0
  160.8980  201.5710  148.2680 C   0  0  0  0  0  0  0  0  0  0  0  0
  161.8740  206.2570  147.3990 C   0  0  0  0  0  3  0  0  0  0  0  0
  161.5510  207.0150  155.3210 C   0  0  0  0  0  3  0  0  0  0  0  0
  160.8830  207.8900  155.8500 O   0  0  0  0  0  0  0  0  0  0  0  0
  160.8570  200.2550  147.7990 O   0  0  0  0  0  0  0  0  0  0  0  0
  161.5810  199.8250  146.6530 C   0  0  0  0  0  1  0  0  0  0  0  0
  2  7  1  0  0  0  0
  3 19  1  6  0  0  0
  3  4  1  0  0  0  0
  3  7  1  0  0  0  0
  4 20  1  6  0  0  0
  4 11  1  0  0  0  0
  5  2  1  0  0  0  0
  6 18  1  0  0  0  0
  7  1  1  6  0  0  0
  7 10  1  0  0  0  0
  8  6  2  0  0  0  0
  8 21  1  0  0  0  0
  9 23  1  1  0  0  0
 10  9  1  0  0  0  0
 11 13  1  0  0  0  0
 12 20  2  0  0  0  0
 13  9  1  0  0  0  0
 14  5  1  0  0  0  0
 15 11  2  0  0  0  0
 16 22  2  0  0  0  0
 16  6  1  0  0  0  0
 17 20  1  0  0  0  0
 17 19  2  0  0  0  0
 18 19  1  0  0  0  0
 18  5  2  0  0  0  0
 21 14  2  0  0  0  0
 22 17  1  0  0  0  0
 23 24  2  0  0  0  0
 25 21  1  0  0  0  0
 26 25  1  0  0  0  0
M  END
>  <MODEL>
5

>  <REMARK>
 VINA RESULT:      -8.0      1.100      1.343
  Name = 
  2 active torsions:
  status: ('A' for Active; 'I' for Inactive)
    1  A    between atoms: C_6  and  C_11
    2  A    between atoms: O_8  and  C_24
                            x       y       z     vdW  Elec       q    Type
                         _______ _______ _______ _____ _____    ______ ____

>  <TORSDO>
F 2

$$$$
=
 OpenBabel11052409523D

 26 30  0  0  1  0  0  0  0  0999 V2000
  163.2670  206.2050  148.8130 C   0  0  0  0  0  1  0  0  0  0  0  0
  161.0470  207.8270  148.6870 S   0  0  0  0  0  0  0  0  0  0  0  0
  161.0150  205.1940  149.4250 C   0  0  2  0  0  3  0  0  0  0  0  0
  161.5230  203.7470  149.4540 C   0  0  2  0  0  3  0  0  0  0  0  0
  161.1970  207.9940  150.4860 C   0  0  0  0  0  0  0  0  0  0  0  0
  161.1790  207.0680  152.7540 C   0  0  0  0  0  0  0  0  0  0  0  0
  161.7750  206.1500  148.4960 C   0  0  2  0  0  0  0  0  0  0  0  0
  161.3280  208.3540  153.2770 C   0  0  0  0  0  3  0  0  0  0  0  0
  162.0630  204.3310  146.6730 C   0  0  1  0  0  3  0  0  0  0  0  0
  161.5630  205.7380  147.0290 C   0  0  0  0  0  2  0  0  0  0  0  0
  160.8510  202.9780  148.3590 C   0  0  0  0  0  0  0  0  0  0  0  0
  161.3630  202.1470  151.3140 O   0  0  0  0  0  0  0  0  0  0  0  0
  161.1040  203.3310  147.0310 O   0  0  0  0  0  0  0  0  0  0  0  0
  161.3640  209.2710  151.0300 C   0  0  0  0  0  3  0  0  0  0  0  0
  160.0140  202.0290  148.6200 N   0  0  0  0  0  2  0  0  0  0  0  0
  161.1730  205.9470  153.6080 C   0  0  0  0  0  3  0  0  0  0  0  0
  161.0630  204.5050  151.6870 C   0  0  0  0  0  0  0  0  0  0  0  0
  161.0970  206.8920  151.3500 C   0  0  0  0  0  0  0  0  0  0  0  0
  161.0200  205.5960  150.8550 C   0  0  0  0  0  0  0  0  0  0  0  0
  161.2620  203.3230  150.8730 C   0  0  0  0  0  0  0  0  0  0  0  0
  161.4230  209.4590  152.4230 C   0  0  0  0  0  0  0  0  0  0  0  0
  161.1350  204.6460  153.0730 C   0  0  0  0  0  3  0  0  0  0  0  0
  162.3150  204.2690  145.2050 C   0  0  0  0  0  3  0  0  0  0  0  0
  161.5920  204.8760  144.4310 O   0  0  0  0  0  0  0  0  0  0  0  0
  161.5770  210.7300  152.9820 O   0  0  0  0  0  0  0  0  0  0  0  0
  160.9450  211.1170  154.1960 C   0  0  0  0  0  1  0  0  0  0  0  0
  2  5  1  0  0  0  0
  3  4  1  0  0  0  0
  3 19  1  1  0  0  0
  4 11  1  6  0  0  0
  4 20  1  0  0  0  0
  5 14  2  0  0  0  0
  5 18  1  0  0  0  0
  6  8  1  0  0  0  0
  6 16  1  0  0  0  0
  7  2  1  0  0  0  0
  7  1  1  1  0  0  0
  7  3  1  0  0  0  0
  9 23  1  6  0  0  0
  9 10  1  0  0  0  0
  9 13  1  0  0  0  0
 10  7  1  0  0  0  0
 11 15  2  0  0  0  0
 13 11  1  0  0  0  0
 14 21  1  0  0  0  0
 17 22  1  0  0  0  0
 18  6  2  0  0  0  0
 19 18  1  0  0  0  0
 19 17  2  0  0  0  0
 20 12  2  0  0  0  0
 20 17  1  0  0  0  0
 21 25  1  0  0  0  0
 21  8  2  0  0  0  0
 22 16  2  0  0  0  0
 24 23  2  0  0  0  0
 25 26  1  0  0  0  0
M  END
>  <MODEL>
6

>  <REMARK>
 VINA RESULT:      -7.8      2.647      7.250
  Name = 
  2 active torsions:
  status: ('A' for Active; 'I' for Inactive)
    1  A    between atoms: C_6  and  C_11
    2  A    between atoms: O_8  and  C_24
                            x       y       z     vdW  Elec       q    Type
                         _______ _______ _______ _____ _____    ______ ____

>  <TORSDO>
F 2

$$$$
=
 OpenBabel11052409523D

 26 30  0  0  1  0  0  0  0  0999 V2000
  159.4330  204.3240  150.5350 C   0  0  0  0  0  1  0  0  0  0  0  0
  161.5650  203.9970  152.2450 S   0  0  0  0  0  0  0  0  0  0  0  0
  161.7310  205.0640  149.7330 C   0  0  2  0  0  3  0  0  0  0  0  0
  161.3010  205.2760  148.2760 C   0  0  2  0  0  3  0  0  0  0  0  0
  161.3900  205.7590  152.6310 C   0  0  0  0  0  0  0  0  0  0  0  0
  161.4380  208.1270  152.0030 C   0  0  0  0  0  0  0  0  0  0  0  0
  160.9290  204.0200  150.5210 C   0  0  2  0  0  0  0  0  0  0  0  0
  161.2160  208.4810  153.3350 C   0  0  0  0  0  3  0  0  0  0  0  0
  160.7550  202.4420  148.4730 C   0  0  1  0  0  3  0  0  0  0  0  0
  161.1760  202.6170  149.9380 C   0  0  0  0  0  2  0  0  0  0  0  0
  162.0230  204.2890  147.4120 C   0  0  0  0  0  0  0  0  0  0  0  0
  161.5300  207.3250  146.9370 O   0  0  0  0  0  0  0  0  0  0  0  0
  161.7630  202.9260  147.5800 O   0  0  0  0  0  0  0  0  0  0  0  0
  161.1510  206.1360  153.9560 C   0  0  0  0  0  3  0  0  0  0  0  0
  162.9070  204.6700  146.5510 N   0  0  0  0  0  2  0  0  0  0  0  0
  161.4960  209.1160  151.0020 C   0  0  0  0  0  3  0  0  0  0  0  0
  161.7000  207.3950  149.3360 C   0  0  0  0  0  0  0  0  0  0  0  0
  161.5410  206.7560  151.6550 C   0  0  0  0  0  0  0  0  0  0  0  0
  161.6920  206.4310  150.3130 C   0  0  0  0  0  0  0  0  0  0  0  0
  161.5720  206.7370  148.0500 C   0  0  0  0  0  0  0  0  0  0  0  0
  161.0700  207.4940  154.3160 C   0  0  0  0  0  0  0  0  0  0  0  0
  161.6080  208.7520  149.6470 C   0  0  0  0  0  3  0  0  0  0  0  0
  160.5190  200.9940  148.2110 C   0  0  0  0  0  3  0  0  0  0  0  0
  161.4470  200.2670  147.8960 O   0  0  0  0  0  0  0  0  0  0  0  0
  160.8430  207.8870  155.6380 O   0  0  0  0  0  0  0  0  0  0  0  0
  159.9950  207.1620  156.5200 C   0  0  0  0  0  1  0  0  0  0  0  0
  2  5  1  0  0  0  0
  3 19  1  1  0  0  0
  3  7  1  0  0  0  0
  4 11  1  6  0  0  0
  4  3  1  0  0  0  0
  5 14  1  0  0  0  0
  6  8  2  0  0  0  0
  7  1  1  6  0  0  0
  7  2  1  0  0  0  0
  8 21  1  0  0  0  0
  9 23  1  6  0  0  0
  9 10  1  0  0  0  0
 10  7  1  0  0  0  0
 11 13  1  0  0  0  0
 12 20  2  0  0  0  0
 13  9  1  0  0  0  0
 14 21  2  0  0  0  0
 15 11  2  0  0  0  0
 16  6  1  0  0  0  0
 17 22  1  0  0  0  0
 17 19  2  0  0  0  0
 18  6  1  0  0  0  0
 18  5  2  0  0  0  0
 19 18  1  0  0  0  0
 20  4  1  0  0  0  0
 20 17  1  0  0  0  0
 21 25  1  0  0  0  0
 22 16  2  0  0  0  0
 24 23  2  0  0  0  0
 25 26  1  0  0  0  0
M  END
>  <MODEL>
7

>  <REMARK>
 VINA RESULT:      -7.8      2.106      6.394
  Name = 
  2 active torsions:
  status: ('A' for Active; 'I' for Inactive)
    1  A    between atoms: C_6  and  C_11
    2  A    between atoms: O_8  and  C_24
                            x       y       z     vdW  Elec       q    Type
                         _______ _______ _______ _____ _____    ______ ____

>  <TORSDO>
F 2

$$$$
=
 OpenBabel11052409523D

 26 30  0  0  1  0  0  0  0  0999 V2000
  160.0700  207.2500  148.4710 C   0  0  0  0  0  1  0  0  0  0  0  0
  162.3950  205.9980  147.6940 S   0  0  0  0  0  0  0  0  0  0  0  0
  161.9370  207.0320  150.1840 C   0  0  2  0  0  3  0  0  0  0  0  0
  161.2910  207.9770  151.2050 C   0  0  2  0  0  3  0  0  0  0  0  0
  161.7620  204.5270  148.5430 C   0  0  0  0  0  0  0  0  0  0  0  0
  161.0410  203.3340  150.5580 C   0  0  0  0  0  0  0  0  0  0  0  0
  161.5760  207.2880  148.7150 C   0  0  2  0  0  0  0  0  0  0  0  0
  160.8880  202.1660  149.8090 C   0  0  0  0  0  3  0  0  0  0  0  0
  161.6230  209.8600  149.0340 C   0  0  1  0  0  3  0  0  0  0  0  0
  162.1490  208.6430  148.2610 C   0  0  0  0  0  2  0  0  0  0  0  0
  162.1600  209.1870  151.3580 C   0  0  0  0  0  0  0  0  0  0  0  0
  160.7490  207.4900  153.5530 O   0  0  0  0  0  0  0  0  0  0  0  0
  162.3310  210.0400  150.2650 O   0  0  0  0  0  0  0  0  0  0  0  0
  161.5850  203.3500  147.8080 C   0  0  0  0  0  3  0  0  0  0  0  0
  162.7830  209.4310  152.4640 N   0  0  0  0  0  2  0  0  0  0  0  0
  160.6870  203.3580  151.9220 C   0  0  0  0  0  3  0  0  0  0  0  0
  161.1800  205.7100  151.9920 C   0  0  0  0  0  0  0  0  0  0  0  0
  161.4960  204.5160  149.9220 C   0  0  0  0  0  0  0  0  0  0  0  0
  161.5720  205.6800  150.6770 C   0  0  0  0  0  0  0  0  0  0  0  0
  161.0950  207.0960  152.4070 C   0  0  0  0  0  0  0  0  0  0  0  0
  161.1560  202.1670  148.4350 C   0  0  0  0  0  0  0  0  0  0  0  0
  160.7350  204.5620  152.6490 C   0  0  0  0  0  3  0  0  0  0  0  0
  161.7900  211.0750  148.1870 C   0  0  0  0  0  3  0  0  0  0  0  0
  162.7670  211.7930  148.3290 O   0  0  0  0  0  0  0  0  0  0  0  0
  160.9860  200.9800  147.7160 O   0  0  0  0  0  0  0  0  0  0  0  0
  160.8330  200.9530  146.3030 C   0  0  0  0  0  1  0  0  0  0  0  0
  2  5  1  0  0  0  0
  2  7  1  0  0  0  0
  3 19  1  1  0  0  0
  3  4  1  0  0  0  0
  4 11  1  1  0  0  0
  4 20  1  0  0  0  0
  5 18  1  0  0  0  0
  6 16  1  0  0  0  0
  7  1  1  6  0  0  0
  7  3  1  0  0  0  0
  8  6  1  0  0  0  0
  9 23  1  6  0  0  0
  9 13  1  0  0  0  0
 10  7  1  0  0  0  0
 10  9  1  0  0  0  0
 11 15  2  0  0  0  0
 13 11  1  0  0  0  0
 14 21  1  0  0  0  0
 14  5  2  0  0  0  0
 16 22  2  0  0  0  0
 17 20  1  0  0  0  0
 17 22  1  0  0  0  0
 18  6  2  0  0  0  0
 18 19  1  0  0  0  0
 19 17  2  0  0  0  0
 20 12  2  0  0  0  0
 21  8  2  0  0  0  0
 23 24  2  0  0  0  0
 25 21  1  0  0  0  0
 26 25  1  0  0  0  0
M  END
>  <MODEL>
8

>  <REMARK>
 VINA RESULT:      -7.1      1.827      4.223
  Name = 
  2 active torsions:
  status: ('A' for Active; 'I' for Inactive)
    1  A    between atoms: C_6  and  C_11
    2  A    between atoms: O_8  and  C_24
                            x       y       z     vdW  Elec       q    Type
                         _______ _______ _______ _____ _____    ______ ____

>  <TORSDO>
F 2

$$$$
=
 OpenBabel11052409523D

 26 30  0  0  1  0  0  0  0  0999 V2000
  159.7740  206.1900  149.0320 C   0  0  0  0  0  1  0  0  0  0  0  0
  162.2180  206.7010  147.8750 S   0  0  0  0  0  0  0  0  0  0  0  0
  161.5830  204.4140  149.2330 C   0  0  2  0  0  3  0  0  0  0  0  0
  160.8240  203.5690  150.2640 C   0  0  2  0  0  3  0  0  0  0  0  0
  161.6690  205.6530  146.5020 C   0  0  0  0  0  0  0  0  0  0  0  0
  160.9640  203.4990  145.5720 C   0  0  0  0  0  0  0  0  0  0  0  0
  161.2610  205.9140  149.2330 C   0  0  2  0  0  0  0  0  0  0  0  0
  160.9320  204.0630  144.2960 C   0  0  0  0  0  3  0  0  0  0  0  0
  161.0950  205.9930  151.8180 C   0  0  1  0  0  3  0  0  0  0  0  0
  161.7440  206.5550  150.5460 C   0  0  0  0  0  2  0  0  0  0  0  0
  161.5890  203.5790  151.5510 C   0  0  0  0  0  0  0  0  0  0  0  0
  160.2290  201.1890  150.0940 O   0  0  0  0  0  0  0  0  0  0  0  0
  161.7360  204.7860  152.2410 O   0  0  0  0  0  0  0  0  0  0  0  0
  161.6140  206.2020  145.2180 C   0  0  0  0  0  3  0  0  0  0  0  0
  162.1460  202.5080  152.0110 N   0  0  0  0  0  2  0  0  0  0  0  0
  160.5540  202.1650  145.7730 C   0  0  0  0  0  3  0  0  0  0  0  0
  160.8600  202.4450  148.1410 C   0  0  0  0  0  0  0  0  0  0  0  0
  161.3500  204.2970  146.6780 C   0  0  0  0  0  0  0  0  0  0  0  0
  161.3050  203.7280  147.9450 C   0  0  0  0  0  0  0  0  0  0  0  0
  160.6500  202.2510  149.5620 C   0  0  0  0  0  0  0  0  0  0  0  0
  161.2540  205.4130  144.1110 C   0  0  0  0  0  0  0  0  0  0  0  0
  160.4800  201.6310  147.0720 C   0  0  0  0  0  3  0  0  0  0  0  0
  161.2000  207.0130  152.9000 C   0  0  0  0  0  3  0  0  0  0  0  0
  160.9550  208.1850  152.6660 O   0  0  0  0  0  0  0  0  0  0  0  0
  161.2060  205.9450  142.8190 O   0  0  0  0  0  0  0  0  0  0  0  0
  162.3740  206.2020  142.0500 C   0  0  0  0  0  1  0  0  0  0  0  0
  2  7  1  0  0  0  0
  3 19  1  6  0  0  0
  3  7  1  0  0  0  0
  3  4  1  0  0  0  0
  4 20  1  6  0  0  0
  4 11  1  0  0  0  0
  5 18  1  0  0  0  0
  5  2  1  0  0  0  0
  6 16  2  0  0  0  0
  6 18  1  0  0  0  0
  7  1  1  6  0  0  0
  7 10  1  0  0  0  0
  8  6  1  0  0  0  0
  9 13  1  0  0  0  0
  9 23  1  1  0  0  0
 10  9  1  0  0  0  0
 11 15  2  0  0  0  0
 11 13  1  0  0  0  0
 14  5  2  0  0  0  0
 16 22  1  0  0  0  0
 17 20  1  0  0  0  0
 18 19  2  0  0  0  0
 19 17  1  0  0  0  0
 20 12  2  0  0  0  0
 21  8  2  0  0  0  0
 21 14  1  0  0  0  0
 22 17  2  0  0  0  0
 24 23  2  0  0  0  0
 25 21  1  0  0  0  0
 26 25  1  0  0  0  0
M  END
>  <MODEL>
9

>  <REMARK>
 VINA RESULT:      -7.1      3.033      5.156
  Name = 
  2 active torsions:
  status: ('A' for Active; 'I' for Inactive)
    1  A    between atoms: C_6  and  C_11
    2  A    between atoms: O_8  and  C_24
                            x       y       z     vdW  Elec       q    Type
                         _______ _______ _______ _____ _____    ______ ____

>  <TORSDO>
F 2

$$$$
