=
 OpenBabel11042422373D

 33 36  0  0  1  0  0  0  0  0999 V2000
  161.5890  207.6340  151.1160 N   0  0  0  0  0  2  0  0  0  0  0  0
  161.4210  209.0340  151.3710 C   0  0  0  0  0  0  0  0  0  0  0  0
  161.1500  211.0710  154.9200 S   0  0  0  0  0  0  0  0  0  0  0  0
  160.0760  206.6180  157.2610 F   0  0  0  0  0  0  0  0  0  0  0  0
  160.3480  207.3020  156.1230 C   0  0  0  0  0  0  0  0  0  0  0  0
  160.8960  208.6670  153.8230 C   0  0  0  0  0  0  0  0  0  0  0  0
  160.3830  206.6320  154.8900 C   0  0  0  0  0  3  0  0  0  0  0  0
  160.8530  209.3200  155.0260 C   0  0  0  0  0  0  0  0  0  0  0  0
  161.1460  209.5040  152.7020 N   0  0  0  0  0  0  0  0  0  0  0  0
  161.2570  210.9190  153.0810 C   0  0  1  0  0  3  0  0  0  0  0  0
  161.5340  209.8600  150.4240 O   0  0  0  0  0  0  0  0  0  0  0  0
  160.6520  207.3320  153.7520 N   0  0  0  0  0  0  0  0  0  0  0  0
  160.5840  208.6440  156.1710 N   0  0  0  0  0  0  0  0  0  0  0  0
  160.1990  211.7460  152.4170 C   0  0  0  0  0  0  0  0  0  0  0  0
  158.8480  211.6200  152.7640 C   0  0  0  0  0  3  0  0  0  0  0  0
  157.8800  212.3800  152.1030 C   0  0  0  0  0  3  0  0  0  0  0  0
  158.2520  213.2760  151.0860 C   0  0  0  0  0  0  0  0  0  0  0  0
  160.5730  212.6440  151.4140 C   0  0  0  0  0  3  0  0  0  0  0  0
  159.6070  213.4070  150.7430 C   0  0  0  0  0  0  0  0  0  0  0  0
  156.5310  213.5210  149.3250 C   0  0  0  0  0  1  0  0  0  0  0  0
  157.3020  214.0390  150.3990 O   0  0  0  0  0  0  0  0  0  0  0  0
  159.9820  214.2760  149.7130 O   0  0  0  0  0  0  0  0  0  0  0  0
  160.8020  213.8830  148.7290 O   0  0  0  0  0  0  0  0  0  0  0  0
  159.9520  213.3460  147.7580 C   0  0  0  0  0  1  0  0  0  0  0  0
  161.7990  207.1080  149.7730 C   0  0  0  0  0  2  0  0  0  0  0  0
  160.9030  202.9160  149.6670 C   0  0  0  0  0  3  0  0  0  0  0  0
  161.3980  204.9880  148.5140 C   0  0  0  0  0  3  0  0  0  0  0  0
  161.2580  204.9520  150.9320 C   0  0  0  0  0  3  0  0  0  0  0  0
  161.4610  205.6590  149.7410 C   0  0  0  0  0  0  0  0  0  0  0  0
  160.7850  202.8770  152.0750 O   0  0  0  0  0  1  0  0  0  0  0  0
  161.0440  202.9740  147.2870 F   0  0  0  0  0  0  0  0  0  0  0  0
  160.9820  203.5800  150.8940 C   0  0  0  0  0  0  0  0  0  0  0  0
  161.1150  203.6200  148.4760 C   0  0  0  0  0  0  0  0  0  0  0  0
  1  2  1  0  0  0  0
  2  9  1  0  0  0  0
  3  8  1  0  0  0  0
  5 13  1  0  0  0  0
  5  4  1  0  0  0  0
  6  8  1  0  0  0  0
  7  5  2  0  0  0  0
  8 13  2  0  0  0  0
  9 10  1  0  0  0  0
  9  6  1  0  0  0  0
 10 14  1  6  0  0  0
 10  3  1  0  0  0  0
 11  2  2  0  0  0  0
 12  6  2  0  0  0  0
 12  7  1  0  0  0  0
 14 15  1  0  0  0  0
 16 15  2  0  0  0  0
 17 16  1  0  0  0  0
 18 14  2  0  0  0  0
 19 17  2  0  0  0  0
 19 18  1  0  0  0  0
 20 21  1  0  0  0  0
 21 17  1  0  0  0  0
 22 19  1  0  0  0  0
 23 22  1  0  0  0  0
 24 23  1  0  0  0  0
 25  1  1  0  0  0  0
 26 32  1  0  0  0  0
 27 29  2  0  0  0  0
 29 25  1  0  0  0  0
 29 28  1  0  0  0  0
 31 33  1  0  0  0  0
 32 28  2  0  0  0  0
 32 30  1  0  0  0  0
 33 27  1  0  0  0  0
 33 26  2  0  0  0  0
M  END
>  <MODEL>
1

>  <REMARK>
 VINA RESULT:      -7.7      0.000      0.000
  Name = 
  6 active torsions:
  status: ('A' for Active; 'I' for Inactive)
    1  A    between atoms: N_1  and  C_12
    2  A    between atoms: C_3  and  C_26
    3  A    between atoms: O_10  and  O_29
    4  A    between atoms: C_12  and  C_14
    5  A    between atoms: C_21  and  O_33
    6  A    between atoms: C_27  and  O_29
                            x       y       z     vdW  Elec       q    Type
                         _______ _______ _______ _____ _____    ______ ____

>  <TORSDO>
F 6

$$$$
=
 OpenBabel11042422373D

 33 36  0  0  1  0  0  0  0  0999 V2000
  161.6480  207.8040  151.1760 N   0  0  0  0  0  2  0  0  0  0  0  0
  161.4300  209.1920  151.4590 C   0  0  0  0  0  0  0  0  0  0  0  0
  161.0170  211.1360  155.0460 S   0  0  0  0  0  0  0  0  0  0  0  0
  160.0300  206.5990  157.2600 F   0  0  0  0  0  0  0  0  0  0  0  0
  160.3070  207.3180  156.1450 C   0  0  0  0  0  0  0  0  0  0  0  0
  160.8630  208.7520  153.8900 C   0  0  0  0  0  0  0  0  0  0  0  0
  160.3900  206.6780  154.8980 C   0  0  0  0  0  3  0  0  0  0  0  0
  160.7720  209.3750  155.1050 C   0  0  0  0  0  0  0  0  0  0  0  0
  161.1110  209.6230  152.7930 N   0  0  0  0  0  0  0  0  0  0  0  0
  161.1700  211.0300  153.2070 C   0  0  1  0  0  3  0  0  0  0  0  0
  161.5380  210.0430  150.5340 O   0  0  0  0  0  0  0  0  0  0  0  0
  160.6620  207.4120  153.7830 N   0  0  0  0  0  0  0  0  0  0  0  0
  160.4990  208.6650  156.2280 N   0  0  0  0  0  0  0  0  0  0  0  0
  160.1020  211.8400  152.5370 C   0  0  0  0  0  0  0  0  0  0  0  0
  158.7610  211.7500  152.9330 C   0  0  0  0  0  3  0  0  0  0  0  0
  157.7820  212.4910  152.2670 C   0  0  0  0  0  3  0  0  0  0  0  0
  158.1330  213.3330  151.1970 C   0  0  0  0  0  0  0  0  0  0  0  0
  160.4540  212.6840  151.4820 C   0  0  0  0  0  3  0  0  0  0  0  0
  159.4770  213.4280  150.8050 C   0  0  0  0  0  0  0  0  0  0  0  0
  156.5310  213.6000  149.3280 C   0  0  0  0  0  1  0  0  0  0  0  0
  157.1710  214.0760  150.5040 O   0  0  0  0  0  0  0  0  0  0  0  0
  159.8300  214.2420  149.7240 O   0  0  0  0  0  0  0  0  0  0  0  0
  160.8160  213.9010  148.8830 O   0  0  0  0  0  0  0  0  0  0  0  0
  160.1600  213.3330  147.7860 C   0  0  0  0  0  1  0  0  0  0  0  0
  161.9040  207.3160  149.8270 C   0  0  0  0  0  2  0  0  0  0  0  0
  160.8770  203.1590  149.5940 C   0  0  0  0  0  3  0  0  0  0  0  0
  161.2110  205.1710  150.9020 C   0  0  0  0  0  3  0  0  0  0  0  0
  161.5740  205.2100  148.5070 C   0  0  0  0  0  3  0  0  0  0  0  0
  161.5740  205.8670  149.7440 C   0  0  0  0  0  0  0  0  0  0  0  0
  161.2180  203.2050  147.2070 O   0  0  0  0  0  1  0  0  0  0  0  0
  160.5260  203.1430  151.9520 F   0  0  0  0  0  0  0  0  0  0  0  0
  161.2230  203.8570  148.4340 C   0  0  0  0  0  0  0  0  0  0  0  0
  160.8670  203.8180  150.8290 C   0  0  0  0  0  0  0  0  0  0  0  0
  1  2  1  0  0  0  0
  2  9  1  0  0  0  0
  3  8  1  0  0  0  0
  5 13  1  0  0  0  0
  5  4  1  0  0  0  0
  6  8  1  0  0  0  0
  7  5  2  0  0  0  0
  8 13  2  0  0  0  0
  9 10  1  0  0  0  0
  9  6  1  0  0  0  0
 10 14  1  6  0  0  0
 10  3  1  0  0  0  0
 11  2  2  0  0  0  0
 12  6  2  0  0  0  0
 12  7  1  0  0  0  0
 14 15  1  0  0  0  0
 16 15  2  0  0  0  0
 17 16  1  0  0  0  0
 18 14  2  0  0  0  0
 19 17  2  0  0  0  0
 19 18  1  0  0  0  0
 20 21  1  0  0  0  0
 21 17  1  0  0  0  0
 22 19  1  0  0  0  0
 23 22  1  0  0  0  0
 24 23  1  0  0  0  0
 25  1  1  0  0  0  0
 26 33  1  0  0  0  0
 28 29  2  0  0  0  0
 29 25  1  0  0  0  0
 29 27  1  0  0  0  0
 30 32  1  0  0  0  0
 32 28  1  0  0  0  0
 32 26  2  0  0  0  0
 33 27  2  0  0  0  0
 33 31  1  0  0  0  0
M  END
>  <MODEL>
2

>  <REMARK>
 VINA RESULT:      -7.6      1.195      1.461
  Name = 
  6 active torsions:
  status: ('A' for Active; 'I' for Inactive)
    1  A    between atoms: N_1  and  C_12
    2  A    between atoms: C_3  and  C_26
    3  A    between atoms: O_10  and  O_29
    4  A    between atoms: C_12  and  C_14
    5  A    between atoms: C_21  and  O_33
    6  A    between atoms: C_27  and  O_29
                            x       y       z     vdW  Elec       q    Type
                         _______ _______ _______ _____ _____    ______ ____

>  <TORSDO>
F 6

$$$$
=
 OpenBabel11042422373D

 33 36  0  0  1  0  0  0  0  0999 V2000
  161.5260  207.9620  151.1690 N   0  0  0  0  0  2  0  0  0  0  0  0
  161.3250  209.3350  151.5250 C   0  0  0  0  0  0  0  0  0  0  0  0
  161.0860  211.1130  155.2130 S   0  0  0  0  0  0  0  0  0  0  0  0
  160.1940  206.4790  157.2610 F   0  0  0  0  0  0  0  0  0  0  0  0
  160.4190  207.2480  156.1680 C   0  0  0  0  0  0  0  0  0  0  0  0
  160.8720  208.7840  153.9570 C   0  0  0  0  0  0  0  0  0  0  0  0
  160.4420  206.6660  154.8910 C   0  0  0  0  0  3  0  0  0  0  0  0
  160.8400  209.3500  155.2030 C   0  0  0  0  0  0  0  0  0  0  0  0
  161.0710  209.7040  152.8920 N   0  0  0  0  0  0  0  0  0  0  0  0
  161.1520  211.0910  153.3660 C   0  0  1  0  0  3  0  0  0  0  0  0
  161.3920  210.2280  150.6360 O   0  0  0  0  0  0  0  0  0  0  0  0
  160.6630  207.4500  153.7990 N   0  0  0  0  0  0  0  0  0  0  0  0
  160.6180  208.5900  156.3040 N   0  0  0  0  0  0  0  0  0  0  0  0
  160.0550  211.9310  152.7850 C   0  0  0  0  0  0  0  0  0  0  0  0
  160.2310  212.6330  151.5850 C   0  0  0  0  0  3  0  0  0  0  0  0
  159.2030  213.4360  151.0860 C   0  0  0  0  0  3  0  0  0  0  0  0
  157.9850  213.5460  151.7800 C   0  0  0  0  0  0  0  0  0  0  0  0
  158.8430  212.0300  153.4710 C   0  0  0  0  0  3  0  0  0  0  0  0
  157.8070  212.8370  152.9790 C   0  0  0  0  0  0  0  0  0  0  0  0
  156.2460  214.0810  150.1020 C   0  0  0  0  0  1  0  0  0  0  0  0
  156.9450  214.3530  151.3090 O   0  0  0  0  0  0  0  0  0  0  0  0
  156.6090  212.9630  153.6890 O   0  0  0  0  0  0  0  0  0  0  0  0
  156.5490  213.6340  154.8480 O   0  0  0  0  0  0  0  0  0  0  0  0
  156.0790  212.6960  155.7710 C   0  0  0  0  0  1  0  0  0  0  0  0
  161.7170  207.5360  149.7880 C   0  0  0  0  0  2  0  0  0  0  0  0
  160.9940  203.3250  149.4280 C   0  0  0  0  0  3  0  0  0  0  0  0
  161.4600  205.4720  148.4060 C   0  0  0  0  0  3  0  0  0  0  0  0
  161.2090  205.3040  150.8100 C   0  0  0  0  0  3  0  0  0  0  0  0
  161.4390  206.0790  149.6670 C   0  0  0  0  0  0  0  0  0  0  0  0
  160.7650  203.1560  151.8230 O   0  0  0  0  0  1  0  0  0  0  0  0
  161.2450  203.5130  147.0640 F   0  0  0  0  0  0  0  0  0  0  0  0
  160.9890  203.9270  150.6890 C   0  0  0  0  0  0  0  0  0  0  0  0
  161.2340  204.0980  148.2860 C   0  0  0  0  0  0  0  0  0  0  0  0
  1  2  1  0  0  0  0
  2  9  1  0  0  0  0
  5 13  1  0  0  0  0
  5  4  1  0  0  0  0
  6  8  1  0  0  0  0
  7  5  2  0  0  0  0
  8  3  1  0  0  0  0
  8 13  2  0  0  0  0
  9 10  1  0  0  0  0
  9  6  1  0  0  0  0
 10 14  1  6  0  0  0
 10  3  1  0  0  0  0
 11  2  2  0  0  0  0
 12  6  2  0  0  0  0
 12  7  1  0  0  0  0
 14 18  1  0  0  0  0
 15 14  2  0  0  0  0
 16 15  1  0  0  0  0
 16 17  2  0  0  0  0
 17 19  1  0  0  0  0
 19 18  2  0  0  0  0
 19 22  1  0  0  0  0
 20 21  1  0  0  0  0
 21 17  1  0  0  0  0
 22 23  1  0  0  0  0
 23 24  1  0  0  0  0
 25  1  1  0  0  0  0
 26 32  1  0  0  0  0
 27 29  2  0  0  0  0
 29 25  1  0  0  0  0
 29 28  1  0  0  0  0
 31 33  1  0  0  0  0
 32 28  2  0  0  0  0
 32 30  1  0  0  0  0
 33 27  1  0  0  0  0
 33 26  2  0  0  0  0
M  END
>  <MODEL>
3

>  <REMARK>
 VINA RESULT:      -7.5      1.321      2.426
  Name = 
  6 active torsions:
  status: ('A' for Active; 'I' for Inactive)
    1  A    between atoms: N_1  and  C_12
    2  A    between atoms: C_3  and  C_26
    3  A    between atoms: O_10  and  O_29
    4  A    between atoms: C_12  and  C_14
    5  A    between atoms: C_21  and  O_33
    6  A    between atoms: C_27  and  O_29
                            x       y       z     vdW  Elec       q    Type
                         _______ _______ _______ _____ _____    ______ ____

>  <TORSDO>
F 6

$$$$
=
 OpenBabel11042422373D

 33 36  0  0  1  0  0  0  0  0999 V2000
  161.3540  207.2740  151.0030 N   0  0  0  0  0  2  0  0  0  0  0  0
  161.4480  208.6770  151.2750 C   0  0  0  0  0  0  0  0  0  0  0  0
  161.8520  210.6680  154.8380 S   0  0  0  0  0  0  0  0  0  0  0  0
  160.2610  206.4180  157.2610 F   0  0  0  0  0  0  0  0  0  0  0  0
  160.5400  207.0670  156.1040 C   0  0  0  0  0  0  0  0  0  0  0  0
  161.0970  208.3600  153.7660 C   0  0  0  0  0  0  0  0  0  0  0  0
  160.3480  206.4220  154.8720 C   0  0  0  0  0  3  0  0  0  0  0  0
  161.2750  208.9900  154.9680 C   0  0  0  0  0  0  0  0  0  0  0  0
  161.3800  209.1640  152.6270 N   0  0  0  0  0  0  0  0  0  0  0  0
  161.7630  210.5320  152.9970 C   0  0  1  0  0  3  0  0  0  0  0  0
  161.6120  209.4900  150.3240 O   0  0  0  0  0  0  0  0  0  0  0  0
  160.6260  207.0870  153.7150 N   0  0  0  0  0  0  0  0  0  0  0  0
  161.0020  208.3490  156.1320 N   0  0  0  0  0  0  0  0  0  0  0  0
  160.8040  211.5370  152.4360 C   0  0  0  0  0  0  0  0  0  0  0  0
  161.0520  212.1820  151.2170 C   0  0  0  0  0  3  0  0  0  0  0  0
  160.1560  213.1400  150.7350 C   0  0  0  0  0  3  0  0  0  0  0  0
  159.0000  213.4630  151.4670 C   0  0  0  0  0  0  0  0  0  0  0  0
  159.6500  211.8490  153.1590 C   0  0  0  0  0  3  0  0  0  0  0  0
  158.7480  212.8120  152.6850 C   0  0  0  0  0  0  0  0  0  0  0  0
  157.1820  214.1890  149.9510 C   0  0  0  0  0  1  0  0  0  0  0  0
  158.0940  214.4280  151.0140 O   0  0  0  0  0  0  0  0  0  0  0  0
  157.6150  213.1490  153.4320 O   0  0  0  0  0  0  0  0  0  0  0  0
  157.5790  212.9890  154.7610 O   0  0  0  0  0  0  0  0  0  0  0  0
  157.9280  214.2410  155.2740 C   0  0  0  0  0  1  0  0  0  0  0  0
  161.3480  206.7430  149.6450 C   0  0  0  0  0  2  0  0  0  0  0  0
  160.8100  202.4910  149.7650 C   0  0  0  0  0  3  0  0  0  0  0  0
  161.0150  204.6160  150.9110 C   0  0  0  0  0  3  0  0  0  0  0  0
  161.1580  204.5240  148.4940 C   0  0  0  0  0  3  0  0  0  0  0  0
  161.1880  205.2640  149.6830 C   0  0  0  0  0  0  0  0  0  0  0  0
  160.9320  202.4050  147.3580 O   0  0  0  0  0  1  0  0  0  0  0  0
  160.6730  202.6030  152.1430 F   0  0  0  0  0  0  0  0  0  0  0  0
  160.9670  203.1390  148.5360 C   0  0  0  0  0  0  0  0  0  0  0  0
  160.8300  203.2310  150.9530 C   0  0  0  0  0  0  0  0  0  0  0  0
  1  2  1  0  0  0  0
  2  9  1  0  0  0  0
  3  8  1  0  0  0  0
  5 13  1  0  0  0  0
  5  4  1  0  0  0  0
  6  8  1  0  0  0  0
  7  5  2  0  0  0  0
  8 13  2  0  0  0  0
  9 10  1  0  0  0  0
  9  6  1  0  0  0  0
 10 14  1  1  0  0  0
 10  3  1  0  0  0  0
 11  2  2  0  0  0  0
 12  6  2  0  0  0  0
 12  7  1  0  0  0  0
 14 18  1  0  0  0  0
 15 14  2  0  0  0  0
 16 15  1  0  0  0  0
 16 17  2  0  0  0  0
 17 19  1  0  0  0  0
 19 18  2  0  0  0  0
 19 22  1  0  0  0  0
 20 21  1  0  0  0  0
 21 17  1  0  0  0  0
 22 23  1  0  0  0  0
 23 24  1  0  0  0  0
 25 29  1  0  0  0  0
 25  1  1  0  0  0  0
 26 33  1  0  0  0  0
 27 33  2  0  0  0  0
 28 32  1  0  0  0  0
 28 29  2  0  0  0  0
 29 27  1  0  0  0  0
 30 32  1  0  0  0  0
 32 26  2  0  0  0  0
 33 31  1  0  0  0  0
M  END
>  <MODEL>
4

>  <REMARK>
 VINA RESULT:      -6.9      1.750      2.651
  Name = 
  6 active torsions:
  status: ('A' for Active; 'I' for Inactive)
    1  A    between atoms: N_1  and  C_12
    2  A    between atoms: C_3  and  C_26
    3  A    between atoms: O_10  and  O_29
    4  A    between atoms: C_12  and  C_14
    5  A    between atoms: C_21  and  O_33
    6  A    between atoms: C_27  and  O_29
                            x       y       z     vdW  Elec       q    Type
                         _______ _______ _______ _____ _____    ______ ____

>  <TORSDO>
F 6

$$$$
=
 OpenBabel11042422373D

 33 36  0  0  1  0  0  0  0  0999 V2000
  161.5800  206.7960  149.4350 N   0  0  0  0  0  2  0  0  0  0  0  0
  161.8940  208.1830  149.6110 C   0  0  0  0  0  0  0  0  0  0  0  0
  162.6080  210.3300  153.0310 S   0  0  0  0  0  0  0  0  0  0  0  0
  160.3730  206.5610  155.7260 F   0  0  0  0  0  0  0  0  0  0  0  0
  160.7490  207.0750  154.5300 C   0  0  0  0  0  0  0  0  0  0  0  0
  161.4990  208.0990  152.1130 C   0  0  0  0  0  0  0  0  0  0  0  0
  160.4570  206.3840  153.3440 C   0  0  0  0  0  3  0  0  0  0  0  0
  161.7750  208.7760  153.2710 C   0  0  0  0  0  0  0  0  0  0  0  0
  161.9040  208.7670  150.9250 N   0  0  0  0  0  0  0  0  0  0  0  0
  162.4970  210.0810  151.2030 C   0  0  1  0  0  3  0  0  0  0  0  0
  162.1820  208.8910  148.6070 O   0  0  0  0  0  0  0  0  0  0  0  0
  160.8340  206.9150  152.1460 N   0  0  0  0  0  0  0  0  0  0  0  0
  161.4060  208.2690  154.4740 N   0  0  0  0  0  0  0  0  0  0  0  0
  161.7060  211.1820  150.5640 C   0  0  0  0  0  0  0  0  0  0  0  0
  161.9500  211.5850  149.2440 C   0  0  0  0  0  3  0  0  0  0  0  0
  161.2210  212.6380  148.6860 C   0  0  0  0  0  3  0  0  0  0  0  0
  160.2370  213.3000  149.4420 C   0  0  0  0  0  0  0  0  0  0  0  0
  160.7220  211.8310  151.3130 C   0  0  0  0  0  3  0  0  0  0  0  0
  159.9880  212.8910  150.7620 C   0  0  0  0  0  0  0  0  0  0  0  0
  158.5680  214.2040  147.8530 C   0  0  0  0  0  1  0  0  0  0  0  0
  159.5010  214.3650  148.9120 O   0  0  0  0  0  0  0  0  0  0  0  0
  159.0310  213.5630  151.5280 O   0  0  0  0  0  0  0  0  0  0  0  0
  157.8330  213.0210  151.7860 O   0  0  0  0  0  0  0  0  0  0  0  0
  157.0810  214.0710  152.3200 C   0  0  0  0  0  1  0  0  0  0  0  0
  161.4900  206.1790  148.1180 C   0  0  0  0  0  2  0  0  0  0  0  0
  160.8900  201.9530  148.5230 C   0  0  0  0  0  3  0  0  0  0  0  0
  161.3290  203.8890  147.1340 C   0  0  0  0  0  3  0  0  0  0  0  0
  161.0110  204.1580  149.5210 C   0  0  0  0  0  3  0  0  0  0  0  0
  161.2540  204.7170  148.2600 C   0  0  0  0  0  0  0  0  0  0  0  0
  160.5960  202.2190  150.9020 O   0  0  0  0  0  1  0  0  0  0  0  0
  161.2050  201.7110  146.1720 F   0  0  0  0  0  0  0  0  0  0  0  0
  160.8320  202.7760  149.6510 C   0  0  0  0  0  0  0  0  0  0  0  0
  161.1430  202.5100  147.2640 C   0  0  0  0  0  0  0  0  0  0  0  0
  1  2  1  0  0  0  0
  2  9  1  0  0  0  0
  3  8  1  0  0  0  0
  5  4  1  0  0  0  0
  6 12  2  0  0  0  0
  6  8  1  0  0  0  0
  7  5  2  0  0  0  0
  8 13  2  0  0  0  0
  9 10  1  0  0  0  0
  9  6  1  0  0  0  0
 10 14  1  6  0  0  0
 10  3  1  0  0  0  0
 11  2  2  0  0  0  0
 12  7  1  0  0  0  0
 13  5  1  0  0  0  0
 14 18  1  0  0  0  0
 15 14  2  0  0  0  0
 16 15  1  0  0  0  0
 16 17  2  0  0  0  0
 17 19  1  0  0  0  0
 19 18  2  0  0  0  0
 19 22  1  0  0  0  0
 20 21  1  0  0  0  0
 21 17  1  0  0  0  0
 22 23  1  0  0  0  0
 23 24  1  0  0  0  0
 25 29  1  0  0  0  0
 25  1  1  0  0  0  0
 26 32  1  0  0  0  0
 27 33  1  0  0  0  0
 27 29  2  0  0  0  0
 28 32  2  0  0  0  0
 29 28  1  0  0  0  0
 31 33  1  0  0  0  0
 32 30  1  0  0  0  0
 33 26  2  0  0  0  0
M  END
>  <MODEL>
5

>  <REMARK>
 VINA RESULT:      -6.5      1.598      2.467
  Name = 
  6 active torsions:
  status: ('A' for Active; 'I' for Inactive)
    1  A    between atoms: N_1  and  C_12
    2  A    between atoms: C_3  and  C_26
    3  A    between atoms: O_10  and  O_29
    4  A    between atoms: C_12  and  C_14
    5  A    between atoms: C_21  and  O_33
    6  A    between atoms: C_27  and  O_29
                            x       y       z     vdW  Elec       q    Type
                         _______ _______ _______ _____ _____    ______ ____

>  <TORSDO>
F 6

$$$$
=
 OpenBabel11042422373D

 33 36  0  0  1  0  0  0  0  0999 V2000
  162.2210  210.3030  148.7720 N   0  0  0  0  0  2  0  0  0  0  0  0
  162.1480  210.0510  150.1800 C   0  0  0  0  0  0  0  0  0  0  0  0
  161.9640  206.5070  152.2350 S   0  0  0  0  0  0  0  0  0  0  0  0
  160.5420  204.1830  147.8710 F   0  0  0  0  0  0  0  0  0  0  0  0
  160.8800  205.3160  148.5330 C   0  0  0  0  0  0  0  0  0  0  0  0
  161.5590  207.6070  149.8530 C   0  0  0  0  0  0  0  0  0  0  0  0
  160.8880  206.5490  147.8610 C   0  0  0  0  0  3  0  0  0  0  0  0
  161.5430  206.4050  150.5090 C   0  0  0  0  0  0  0  0  0  0  0  0
  161.8860  208.7240  150.6700 N   0  0  0  0  0  0  0  0  0  0  0  0
  162.0900  208.3430  152.0740 C   0  0  1  0  0  3  0  0  0  0  0  0
  162.3340  210.9960  150.9950 O   0  0  0  0  0  0  0  0  0  0  0  0
  161.2230  207.6820  148.5390 N   0  0  0  0  0  0  0  0  0  0  0  0
  161.2090  205.2650  149.8560 N   0  0  0  0  0  0  0  0  0  0  0  0
  161.1040  209.0250  152.9720 C   0  0  0  0  0  0  0  0  0  0  0  0
  160.1760  209.9490  152.4720 C   0  0  0  0  0  3  0  0  0  0  0  0
  159.2920  210.5950  153.3400 C   0  0  0  0  0  3  0  0  0  0  0  0
  159.3240  210.3230  154.7190 C   0  0  0  0  0  0  0  0  0  0  0  0
  161.1290  208.7450  154.3410 C   0  0  0  0  0  3  0  0  0  0  0  0
  160.2480  209.3920  155.2190 C   0  0  0  0  0  0  0  0  0  0  0  0
  157.1480  211.3780  155.2490 C   0  0  0  0  0  1  0  0  0  0  0  0
  158.4590  210.9650  155.6110 O   0  0  0  0  0  0  0  0  0  0  0  0
  160.3040  209.1380  156.5930 O   0  0  0  0  0  0  0  0  0  0  0  0
  161.0370  208.1320  157.0900 O   0  0  0  0  0  0  0  0  0  0  0  0
  160.1250  207.0850  157.2590 C   0  0  0  0  0  1  0  0  0  0  0  0
  162.4150  211.6430  148.2300 C   0  0  0  0  0  2  0  0  0  0  0  0
  158.6460  213.5480  147.4850 C   0  0  0  0  0  3  0  0  0  0  0  0
  160.5000  213.0670  148.9680 C   0  0  0  0  0  3  0  0  0  0  0  0
  160.4680  212.1390  146.7300 C   0  0  0  0  0  3  0  0  0  0  0  0
  161.0940  212.2790  147.9750 C   0  0  0  0  0  0  0  0  0  0  0  0
  158.6260  212.6400  145.2500 O   0  0  0  0  0  1  0  0  0  0  0  0
  158.6980  214.4510  149.6910 F   0  0  0  0  0  0  0  0  0  0  0  0
  159.2450  212.7750  146.4860 C   0  0  0  0  0  0  0  0  0  0  0  0
  159.2770  213.6980  148.7250 C   0  0  0  0  0  0  0  0  0  0  0  0
  1  2  1  0  0  0  0
  2  9  1  0  0  0  0
  2 11  2  0  0  0  0
  4  5  1  0  0  0  0
  5 13  1  0  0  0  0
  6  8  1  0  0  0  0
  6  9  1  0  0  0  0
  7  5  2  0  0  0  0
  7 12  1  0  0  0  0
  8  3  1  0  0  0  0
  9 10  1  0  0  0  0
 10  3  1  0  0  0  0
 10 14  1  1  0  0  0
 12  6  2  0  0  0  0
 13  8  2  0  0  0  0
 14 18  1  0  0  0  0
 15 14  2  0  0  0  0
 15 16  1  0  0  0  0
 16 17  2  0  0  0  0
 17 19  1  0  0  0  0
 17 21  1  0  0  0  0
 18 19  2  0  0  0  0
 19 22  1  0  0  0  0
 20 21  1  0  0  0  0
 22 23  1  0  0  0  0
 23 24  1  0  0  0  0
 25  1  1  0  0  0  0
 26 33  1  0  0  0  0
 28 29  2  0  0  0  0
 29 25  1  0  0  0  0
 29 27  1  0  0  0  0
 30 32  1  0  0  0  0
 32 28  1  0  0  0  0
 32 26  2  0  0  0  0
 33 27  2  0  0  0  0
 33 31  1  0  0  0  0
M  END
>  <MODEL>
6

>  <REMARK>
 VINA RESULT:      -6.4      3.380      7.202
  Name = 
  6 active torsions:
  status: ('A' for Active; 'I' for Inactive)
    1  A    between atoms: N_1  and  C_12
    2  A    between atoms: C_3  and  C_26
    3  A    between atoms: O_10  and  O_29
    4  A    between atoms: C_12  and  C_14
    5  A    between atoms: C_21  and  O_33
    6  A    between atoms: C_27  and  O_29
                            x       y       z     vdW  Elec       q    Type
                         _______ _______ _______ _____ _____    ______ ____

>  <TORSDO>
F 6

$$$$
=
 OpenBabel11042422373D

 33 36  0  0  1  0  0  0  0  0999 V2000
  161.5540  210.2610  151.9280 N   0  0  0  0  0  2  0  0  0  0  0  0
  161.0240  211.4040  151.2470 C   0  0  0  0  0  0  0  0  0  0  0  0
  158.6550  214.4530  152.6290 S   0  0  0  0  0  0  0  0  0  0  0  0
  157.4110  211.5060  156.6580 F   0  0  0  0  0  0  0  0  0  0  0  0
  158.0790  211.6640  155.4900 C   0  0  0  0  0  0  0  0  0  0  0  0
  159.4300  211.9660  153.1370 C   0  0  0  0  0  0  0  0  0  0  0  0
  158.8450  210.6090  154.9690 C   0  0  0  0  0  3  0  0  0  0  0  0
  158.6760  212.9910  153.6420 C   0  0  0  0  0  0  0  0  0  0  0  0
  160.0430  212.2420  151.8840 N   0  0  0  0  0  0  0  0  0  0  0  0
  159.6860  213.5720  151.3740 C   0  0  1  0  0  3  0  0  0  0  0  0
  161.4360  211.6890  150.0890 O   0  0  0  0  0  0  0  0  0  0  0  0
  159.5080  210.7770  153.7900 N   0  0  0  0  0  0  0  0  0  0  0  0
  158.0050  212.8450  154.8120 N   0  0  0  0  0  0  0  0  0  0  0  0
  158.9650  213.4780  150.0640 C   0  0  0  0  0  0  0  0  0  0  0  0
  157.5930  213.1960  150.0040 C   0  0  0  0  0  3  0  0  0  0  0  0
  156.9550  213.0810  148.7670 C   0  0  0  0  0  3  0  0  0  0  0  0
  157.6810  213.2470  147.5740 C   0  0  0  0  0  0  0  0  0  0  0  0
  159.6850  213.6550  148.8810 C   0  0  0  0  0  3  0  0  0  0  0  0
  159.0530  213.5360  147.6350 C   0  0  0  0  0  0  0  0  0  0  0  0
  156.3640  214.1900  145.7020 C   0  0  0  0  0  1  0  0  0  0  0  0
  157.0690  213.1240  146.3230 O   0  0  0  0  0  0  0  0  0  0  0  0
  159.7870  213.6750  146.4530 O   0  0  0  0  0  0  0  0  0  0  0  0
  160.5050  212.6620  145.9510 O   0  0  0  0  0  0  0  0  0  0  0  0
  161.6510  213.2700  145.4290 C   0  0  0  0  0  1  0  0  0  0  0  0
  162.4960  209.3460  151.2950 C   0  0  0  0  0  2  0  0  0  0  0  0
  160.6750  205.5290  150.5830 C   0  0  0  0  0  3  0  0  0  0  0  0
  161.3050  207.7350  149.8030 C   0  0  0  0  0  3  0  0  0  0  0  0
  161.8060  207.0660  152.0770 C   0  0  0  0  0  3  0  0  0  0  0  0
  161.8410  208.0290  151.0620 C   0  0  0  0  0  0  0  0  0  0  0  0
  161.1940  204.8570  152.8400 O   0  0  0  0  0  1  0  0  0  0  0  0
  160.1910  206.2080  148.3490 F   0  0  0  0  0  0  0  0  0  0  0  0
  161.2250  205.8150  151.8360 C   0  0  0  0  0  0  0  0  0  0  0  0
  160.7200  206.4880  149.5650 C   0  0  0  0  0  0  0  0  0  0  0  0
  2  9  1  0  0  0  0
  2  1  1  0  0  0  0
  3  8  1  0  0  0  0
  5  4  1  0  0  0  0
  6  8  2  0  0  0  0
  6 12  1  0  0  0  0
  7  5  1  0  0  0  0
  8 13  1  0  0  0  0
  9  6  1  0  0  0  0
 10 14  1  6  0  0  0
 10  9  1  0  0  0  0
 10  3  1  0  0  0  0
 11  2  2  0  0  0  0
 12  7  2  0  0  0  0
 13  5  2  0  0  0  0
 15 14  1  0  0  0  0
 16 15  2  0  0  0  0
 17 19  2  0  0  0  0
 17 16  1  0  0  0  0
 18 14  2  0  0  0  0
 19 18  1  0  0  0  0
 20 21  1  0  0  0  0
 21 17  1  0  0  0  0
 22 19  1  0  0  0  0
 23 22  1  0  0  0  0
 24 23  1  0  0  0  0
 25  1  1  0  0  0  0
 26 32  1  0  0  0  0
 27 29  2  0  0  0  0
 29 25  1  0  0  0  0
 29 28  1  0  0  0  0
 31 33  1  0  0  0  0
 32 28  2  0  0  0  0
 32 30  1  0  0  0  0
 33 27  1  0  0  0  0
 33 26  2  0  0  0  0
M  END
>  <MODEL>
7

>  <REMARK>
 VINA RESULT:      -6.3      2.576      3.500
  Name = 
  6 active torsions:
  status: ('A' for Active; 'I' for Inactive)
    1  A    between atoms: N_1  and  C_12
    2  A    between atoms: C_3  and  C_26
    3  A    between atoms: O_10  and  O_29
    4  A    between atoms: C_12  and  C_14
    5  A    between atoms: C_21  and  O_33
    6  A    between atoms: C_27  and  O_29
                            x       y       z     vdW  Elec       q    Type
                         _______ _______ _______ _____ _____    ______ ____

>  <TORSDO>
F 6

$$$$
=
 OpenBabel11042422373D

 33 36  0  0  1  0  0  0  0  0999 V2000
  162.2560  210.2230  148.8330 N   0  0  0  0  0  2  0  0  0  0  0  0
  162.1820  209.9980  150.2460 C   0  0  0  0  0  0  0  0  0  0  0  0
  161.9360  206.4950  152.3660 S   0  0  0  0  0  0  0  0  0  0  0  0
  160.4570  204.1210  148.0490 F   0  0  0  0  0  0  0  0  0  0  0  0
  160.8190  205.2590  148.6890 C   0  0  0  0  0  0  0  0  0  0  0  0
  161.5460  207.5600  149.9660 C   0  0  0  0  0  0  0  0  0  0  0  0
  160.8480  206.4780  147.9950 C   0  0  0  0  0  3  0  0  0  0  0  0
  161.5080  206.3710  150.6430 C   0  0  0  0  0  0  0  0  0  0  0  0
  161.8960  208.6850  150.7610 N   0  0  0  0  0  0  0  0  0  0  0  0
  162.0960  208.3260  152.1710 C   0  0  1  0  0  3  0  0  0  0  0  0
  162.3890  210.9530  151.0440 O   0  0  0  0  0  0  0  0  0  0  0  0
  161.2070  207.6170  148.6510 N   0  0  0  0  0  0  0  0  0  0  0  0
  161.1500  205.2250  150.0120 N   0  0  0  0  0  0  0  0  0  0  0  0
  161.1260  209.0430  153.0600 C   0  0  0  0  0  0  0  0  0  0  0  0
  161.0860  208.8040  154.4400 C   0  0  0  0  0  3  0  0  0  0  0  0
  160.1470  209.4610  155.2380 C   0  0  0  0  0  3  0  0  0  0  0  0
  159.2370  210.3680  154.6660 C   0  0  0  0  0  0  0  0  0  0  0  0
  160.2310  209.9510  152.4910 C   0  0  0  0  0  3  0  0  0  0  0  0
  159.2830  210.6120  153.2840 C   0  0  0  0  0  0  0  0  0  0  0  0
  158.5900  212.1470  156.2610 C   0  0  0  0  0  1  0  0  0  0  0  0
  158.2790  211.0300  155.4400 O   0  0  0  0  0  0  0  0  0  0  0  0
  158.3630  211.4920  152.7040 O   0  0  0  0  0  0  0  0  0  0  0  0
  158.7550  212.6360  152.1280 O   0  0  0  0  0  0  0  0  0  0  0  0
  158.0940  213.6350  152.8500 C   0  0  0  0  0  1  0  0  0  0  0  0
  162.4740  211.5480  148.2670 C   0  0  0  0  0  2  0  0  0  0  0  0
  158.7410  213.5060  147.4810 C   0  0  0  0  0  3  0  0  0  0  0  0
  160.5850  213.0190  148.9760 C   0  0  0  0  0  3  0  0  0  0  0  0
  160.5380  212.0510  146.7560 C   0  0  0  0  0  3  0  0  0  0  0  0
  161.1650  212.2030  147.9990 C   0  0  0  0  0  0  0  0  0  0  0  0
  158.7080  212.5580  145.2630 O   0  0  0  0  0  1  0  0  0  0  0  0
  158.8060  214.4470  149.6710 F   0  0  0  0  0  0  0  0  0  0  0  0
  159.3280  212.7040  146.4970 C   0  0  0  0  0  0  0  0  0  0  0  0
  159.3720  213.6660  148.7200 C   0  0  0  0  0  0  0  0  0  0  0  0
  1  2  1  0  0  0  0
  2  9  1  0  0  0  0
  2 11  2  0  0  0  0
  4  5  1  0  0  0  0
  5 13  1  0  0  0  0
  6  8  1  0  0  0  0
  6  9  1  0  0  0  0
  7 12  1  0  0  0  0
  7  5  2  0  0  0  0
  8  3  1  0  0  0  0
  9 10  1  0  0  0  0
 10  3  1  0  0  0  0
 10 14  1  1  0  0  0
 12  6  2  0  0  0  0
 13  8  2  0  0  0  0
 14 15  1  0  0  0  0
 15 16  2  0  0  0  0
 17 16  1  0  0  0  0
 17 21  1  0  0  0  0
 18 14  2  0  0  0  0
 18 19  1  0  0  0  0
 19 17  2  0  0  0  0
 21 20  1  0  0  0  0
 22 19  1  0  0  0  0
 23 22  1  0  0  0  0
 23 24  1  0  0  0  0
 25  1  1  0  0  0  0
 26 33  1  0  0  0  0
 28 29  2  0  0  0  0
 29 25  1  0  0  0  0
 29 27  1  0  0  0  0
 30 32  1  0  0  0  0
 32 28  1  0  0  0  0
 32 26  2  0  0  0  0
 33 27  2  0  0  0  0
 33 31  1  0  0  0  0
M  END
>  <MODEL>
8

>  <REMARK>
 VINA RESULT:      -6.2      3.223      6.622
  Name = 
  6 active torsions:
  status: ('A' for Active; 'I' for Inactive)
    1  A    between atoms: N_1  and  C_12
    2  A    between atoms: C_3  and  C_26
    3  A    between atoms: O_10  and  O_29
    4  A    between atoms: C_12  and  C_14
    5  A    between atoms: C_21  and  O_33
    6  A    between atoms: C_27  and  O_29
                            x       y       z     vdW  Elec       q    Type
                         _______ _______ _______ _____ _____    ______ ____

>  <TORSDO>
F 6

$$$$
=
 OpenBabel11042422373D

 33 36  0  0  1  0  0  0  0  0999 V2000
  161.9550  209.5400  150.4280 N   0  0  0  0  0  2  0  0  0  0  0  0
  161.8420  210.6830  149.5720 C   0  0  0  0  0  0  0  0  0  0  0  0
  160.4300  214.4530  150.3530 S   0  0  0  0  0  0  0  0  0  0  0  0
  158.1010  212.5880  154.5440 F   0  0  0  0  0  0  0  0  0  0  0  0
  158.8570  212.3790  153.4390 C   0  0  0  0  0  0  0  0  0  0  0  0
  160.3800  211.9430  151.2160 C   0  0  0  0  0  0  0  0  0  0  0  0
  159.2970  211.0840  153.1210 C   0  0  0  0  0  3  0  0  0  0  0  0
  159.9430  213.2040  151.5230 C   0  0  0  0  0  0  0  0  0  0  0  0
  161.1240  211.8510  150.0070 N   0  0  0  0  0  0  0  0  0  0  0  0
  161.2210  213.1430  149.3170 C   0  0  1  0  0  3  0  0  0  0  0  0
  162.3920  210.6710  148.4370 O   0  0  0  0  0  0  0  0  0  0  0  0
  160.0510  210.8860  152.0040 N   0  0  0  0  0  0  0  0  0  0  0  0
  159.1880  213.4240  152.6280 N   0  0  0  0  0  0  0  0  0  0  0  0
  160.5880  213.0850  147.9600 C   0  0  0  0  0  0  0  0  0  0  0  0
  159.2010  212.9550  147.8060 C   0  0  0  0  0  3  0  0  0  0  0  0
  158.6430  212.8690  146.5280 C   0  0  0  0  0  3  0  0  0  0  0  0
  159.4660  212.9120  145.3880 C   0  0  0  0  0  0  0  0  0  0  0  0
  161.4060  213.1390  146.8290 C   0  0  0  0  0  3  0  0  0  0  0  0
  160.8540  213.0480  145.5430 C   0  0  0  0  0  0  0  0  0  0  0  0
  158.5890  213.9510  143.3200 C   0  0  0  0  0  1  0  0  0  0  0  0
  158.9340  212.8140  144.0990 O   0  0  0  0  0  0  0  0  0  0  0  0
  161.6810  213.0640  144.4150 O   0  0  0  0  0  0  0  0  0  0  0  0
  163.0160  213.0350  144.5250 O   0  0  0  0  0  0  0  0  0  0  0  0
  163.4640  213.9800  143.5970 C   0  0  0  0  0  1  0  0  0  0  0  0
  162.6120  208.3100  150.0010 C   0  0  0  0  0  2  0  0  0  0  0  0
  160.8200  204.8960  151.8780 C   0  0  0  0  0  3  0  0  0  0  0  0
  161.4950  206.0800  149.8740 C   0  0  0  0  0  3  0  0  0  0  0  0
  161.8760  207.0700  152.0530 C   0  0  0  0  0  3  0  0  0  0  0  0
  161.9660  207.1400  150.6570 C   0  0  0  0  0  0  0  0  0  0  0  0
  161.2190  205.8740  154.0460 O   0  0  0  0  0  1  0  0  0  0  0  0
  160.4540  203.9400  149.7240 F   0  0  0  0  0  0  0  0  0  0  0  0
  161.3050  205.9470  152.6620 C   0  0  0  0  0  0  0  0  0  0  0  0
  160.9200  204.9610  150.4830 C   0  0  0  0  0  0  0  0  0  0  0  0
  2  9  1  0  0  0  0
  2  1  1  0  0  0  0
  3  8  1  0  0  0  0
  5  4  1  0  0  0  0
  6  8  2  0  0  0  0
  6 12  1  0  0  0  0
  7  5  1  0  0  0  0
  8 13  1  0  0  0  0
  9  6  1  0  0  0  0
 10 14  1  6  0  0  0
 10  9  1  0  0  0  0
 10  3  1  0  0  0  0
 11  2  2  0  0  0  0
 12  7  2  0  0  0  0
 13  5  2  0  0  0  0
 15 14  1  0  0  0  0
 16 15  2  0  0  0  0
 17 19  2  0  0  0  0
 17 16  1  0  0  0  0
 18 14  2  0  0  0  0
 19 18  1  0  0  0  0
 20 21  1  0  0  0  0
 21 17  1  0  0  0  0
 22 23  1  0  0  0  0
 22 19  1  0  0  0  0
 24 23  1  0  0  0  0
 25  1  1  0  0  0  0
 25 29  1  0  0  0  0
 26 32  1  0  0  0  0
 27 33  1  0  0  0  0
 27 29  2  0  0  0  0
 28 32  2  0  0  0  0
 29 28  1  0  0  0  0
 31 33  1  0  0  0  0
 32 30  1  0  0  0  0
 33 26  2  0  0  0  0
M  END
>  <MODEL>
9

>  <REMARK>
 VINA RESULT:      -6.0      3.076      4.538
  Name = 
  6 active torsions:
  status: ('A' for Active; 'I' for Inactive)
    1  A    between atoms: N_1  and  C_12
    2  A    between atoms: C_3  and  C_26
    3  A    between atoms: O_10  and  O_29
    4  A    between atoms: C_12  and  C_14
    5  A    between atoms: C_21  and  O_33
    6  A    between atoms: C_27  and  O_29
                            x       y       z     vdW  Elec       q    Type
                         _______ _______ _______ _____ _____    ______ ____

>  <TORSDO>
F 6

$$$$
