=
 OpenBabel11052411543D

 32 37  0  0  1  0  0  0  0  0999 V2000
  163.1960  204.3180  145.0070 C   0  0  0  0  0  1  0  0  0  0  0  0
  161.8740  206.5310  147.1960 C   0  0  0  0  0  0  0  0  0  0  0  0
  161.7930  210.9040  149.2330 C   0  0  0  0  0  1  0  0  0  0  0  0
  160.8260  204.6800  151.1350 C   0  0  0  0  0  0  0  0  0  0  0  0
  162.2160  206.3400  145.8760 O   0  0  0  0  0  0  0  0  0  0  0  0
  160.4430  209.7030  154.4870 C   0  0  0  0  0  0  0  0  0  0  0  0
  160.6690  203.8230  152.2680 N   0  0  0  0  0  2  0  0  0  0  0  0
  160.2540  211.8210  153.1510 C   0  0  0  0  0  3  0  0  0  0  0  0
  161.6720  209.9290  150.3030 N   0  0  0  0  0  0  0  0  0  0  0  0
  160.8280  206.1850  151.2390 C   0  0  1  0  0  3  0  0  0  0  0  0
  161.7340  207.6600  149.3310 C   0  0  0  0  0  0  0  0  0  0  0  0
  162.2850  208.1710  151.7110 N   0  0  0  0  0  0  0  0  0  0  0  0
  161.7860  209.3410  153.9460 C   0  0  0  0  0  2  0  0  0  0  0  0
  162.1150  207.6790  147.9710 C   0  0  0  0  0  3  0  0  0  0  0  0
  160.8430  204.2290  149.9130 N   0  0  0  0  0  0  0  0  0  0  0  0
  161.3520  205.3850  147.7380 C   0  0  0  0  0  0  0  0  0  0  0  0
  161.4220  210.2640  151.6600 C   0  0  0  0  0  0  0  0  0  0  0  0
  161.7720  209.2720  152.4580 C   0  0  0  0  0  0  0  0  0  0  0  0
  160.9370  211.5490  152.0760 N   0  0  0  0  0  0  0  0  0  0  0  0
  160.9820  205.3680  149.0790 C   0  0  0  0  0  0  0  0  0  0  0  0
  162.3450  208.6370  150.3080 C   0  0  2  0  0  3  0  0  0  0  0  0
  161.9030  206.8280  152.0590 C   0  0  0  0  0  0  0  0  0  0  0  0
  162.3470  206.2830  153.1040 O   0  0  0  0  0  0  0  0  0  0  0  0
  161.3930  204.2830  146.7460 C   0  0  0  0  0  2  0  0  0  0  0  0
  161.9260  204.9970  145.4830 C   0  0  2  0  0  3  0  0  0  0  0  0
  161.0710  206.5190  149.8210 C   0  0  0  0  0  0  0  0  0  0  0  0
  159.8230  210.8420  154.1720 C   0  0  0  0  0  3  0  0  0  0  0  0
  159.8640  208.8590  155.4930 C   0  0  0  0  0  0  0  0  0  0  0  0
  159.3990  208.1760  156.3040 N   0  0  0  0  0  0  0  0  0  0  0  0
  160.6350  202.3720  152.1540 C   0  0  0  0  0  2  0  0  0  0  0  0
  161.6950  201.9250  151.2670 N   0  0  0  0  0  2  0  0  0  0  0  0
  161.0720  201.0730  150.2700 C   0  0  0  0  0  1  0  0  0  0  0  0
  2 16  2  0  0  0  0
  2 14  1  0  0  0  0
  3  9  1  0  0  0  0
  4 10  1  0  0  0  0
  4  7  1  0  0  0  0
  5  2  1  0  0  0  0
  6 28  1  0  0  0  0
  8 27  1  0  0  0  0
  9 21  1  0  0  0  0
  9 17  1  0  0  0  0
 10 26  1  6  0  0  0
 10 22  1  0  0  0  0
 11 26  1  0  0  0  0
 12 22  1  0  0  0  0
 12 18  1  0  0  0  0
 13  6  1  0  0  0  0
 14 11  2  0  0  0  0
 15  4  2  0  0  0  0
 16 20  1  0  0  0  0
 17 19  1  0  0  0  0
 17 18  2  0  0  0  0
 18 13  1  0  0  0  0
 19  8  2  0  0  0  0
 20 26  2  0  0  0  0
 20 15  1  0  0  0  0
 21 11  1  6  0  0  0
 21 12  1  0  0  0  0
 22 23  2  0  0  0  0
 24 16  1  0  0  0  0
 25  1  1  1  0  0  0
 25  5  1  0  0  0  0
 25 24  1  0  0  0  0
 27  6  2  0  0  0  0
 28 29  3  0  0  0  0
 30  7  1  0  0  0  0
 31 30  1  0  0  0  0
 32 31  1  0  0  0  0
M  END
>  <MODEL>
1

>  <REMARK>
 VINA RESULT:      -7.9      0.000      0.000
  Name = 
  3 active torsions:
  status: ('A' for Active; 'I' for Inactive)
    1  A    between atoms: C_4  and  C_8
    2  A    between atoms: N_7  and  C_25
    3  A    between atoms: N_9  and  C_25
                            x       y       z     vdW  Elec       q    Type
                         _______ _______ _______ _____ _____    ______ ____

>  <TORSDO>
F 3

$$$$
=
 OpenBabel11052411543D

 32 37  0  0  1  0  0  0  0  0999 V2000
  160.9530  205.3050  145.5940 C   0  0  0  0  0  1  0  0  0  0  0  0
  161.6560  205.7930  148.8660 C   0  0  0  0  0  0  0  0  0  0  0  0
  161.0460  204.6710  153.5180 C   0  0  0  0  0  1  0  0  0  0  0  0
  161.9820  210.1230  149.9560 C   0  0  0  0  0  0  0  0  0  0  0  0
  161.6060  204.8470  147.8670 O   0  0  0  0  0  0  0  0  0  0  0  0
  161.3560  209.6540  155.9560 C   0  0  0  0  0  0  0  0  0  0  0  0
  161.9550  211.5510  149.9900 N   0  0  0  0  0  2  0  0  0  0  0  0
  161.6860  207.3290  156.8480 C   0  0  0  0  0  3  0  0  0  0  0  0
  161.0040  206.1190  153.4160 N   0  0  0  0  0  0  0  0  0  0  0  0
  161.8660  209.2700  151.1950 C   0  0  1  0  0  3  0  0  0  0  0  0
  161.2830  206.7650  151.0500 C   0  0  0  0  0  0  0  0  0  0  0  0
  160.2240  208.2240  152.7750 N   0  0  0  0  0  0  0  0  0  0  0  0
  160.1780  209.2920  155.1140 C   0  0  0  0  0  2  0  0  0  0  0  0
  161.1910  205.6520  150.1850 C   0  0  0  0  0  3  0  0  0  0  0  0
  162.2450  209.4540  148.8700 N   0  0  0  0  0  0  0  0  0  0  0  0
  162.1250  206.9890  148.3850 C   0  0  0  0  0  0  0  0  0  0  0  0
  160.9480  206.9940  154.5330 C   0  0  0  0  0  0  0  0  0  0  0  0
  160.5020  208.1830  154.1730 C   0  0  0  0  0  0  0  0  0  0  0  0
  161.2570  206.5790  155.8720 N   0  0  0  0  0  0  0  0  0  0  0  0
  162.2110  208.0840  149.2380 C   0  0  0  0  0  0  0  0  0  0  0  0
  160.4250  206.8410  152.2900 C   0  0  2  0  0  3  0  0  0  0  0  0
  160.6080  209.3730  151.9990 C   0  0  0  0  0  0  0  0  0  0  0  0
  159.9930  210.4650  152.1200 O   0  0  0  0  0  0  0  0  0  0  0  0
  162.3570  206.8980  146.9230 C   0  0  0  0  0  2  0  0  0  0  0  0
  162.0520  205.4110  146.6320 C   0  0  2  0  0  3  0  0  0  0  0  0
  161.9000  207.9340  150.5660 C   0  0  0  0  0  0  0  0  0  0  0  0
  161.9560  208.7800  156.7680 C   0  0  0  0  0  3  0  0  0  0  0  0
  161.7660  211.0280  155.9980 C   0  0  0  0  0  0  0  0  0  0  0  0
  162.0990  212.1370  156.0340 N   0  0  0  0  0  0  0  0  0  0  0  0
  162.1010  212.3670  148.7930 C   0  0  0  0  0  2  0  0  0  0  0  0
  160.8040  212.8800  148.3880 N   0  0  0  0  0  2  0  0  0  0  0  0
  160.4710  212.2260  147.1350 C   0  0  0  0  0  1  0  0  0  0  0  0
  2 14  1  0  0  0  0
  4  7  1  0  0  0  0
  5  2  1  0  0  0  0
  6 28  1  0  0  0  0
  6 27  2  0  0  0  0
  9  3  1  0  0  0  0
  9 17  1  0  0  0  0
 10  4  1  6  0  0  0
 10 22  1  0  0  0  0
 12 18  1  0  0  0  0
 13  6  1  0  0  0  0
 14 11  2  0  0  0  0
 15 20  1  0  0  0  0
 15  4  2  0  0  0  0
 16  2  2  0  0  0  0
 16 20  1  0  0  0  0
 17 19  1  0  0  0  0
 18 17  2  0  0  0  0
 18 13  1  0  0  0  0
 19  8  2  0  0  0  0
 20 26  2  0  0  0  0
 21 11  1  6  0  0  0
 21 12  1  0  0  0  0
 21  9  1  0  0  0  0
 22 23  2  0  0  0  0
 22 12  1  0  0  0  0
 24 16  1  0  0  0  0
 25  1  1  6  0  0  0
 25 24  1  0  0  0  0
 25  5  1  0  0  0  0
 26 11  1  0  0  0  0
 26 10  1  0  0  0  0
 27  8  1  0  0  0  0
 28 29  3  0  0  0  0
 30  7  1  0  0  0  0
 31 30  1  0  0  0  0
 32 31  1  0  0  0  0
M  END
>  <MODEL>
2

>  <REMARK>
 VINA RESULT:      -5.0      2.236      5.175
  Name = 
  3 active torsions:
  status: ('A' for Active; 'I' for Inactive)
    1  A    between atoms: C_4  and  C_8
    2  A    between atoms: N_7  and  C_25
    3  A    between atoms: N_9  and  C_25
                            x       y       z     vdW  Elec       q    Type
                         _______ _______ _______ _____ _____    ______ ____

>  <TORSDO>
F 3

$$$$
