=
 OpenBabel11042420513D

 41 45  0  0  1  0  0  0  0  0999 V2000
  161.2330  208.4280  152.4850 C   0  0  0  0  0  0  0  0  0  0  0  0
  161.1560  207.2040  151.9500 C   0  0  0  0  0  3  0  0  0  0  0  0
  161.5430  206.9700  150.5480 C   0  0  0  0  0  0  0  0  0  0  0  0
  162.0260  209.4080  150.3630 C   0  0  0  0  0  0  0  0  0  0  0  0
  161.4830  205.7440  150.0160 C   0  0  0  0  0  3  0  0  0  0  0  0
  161.6710  209.5670  151.6470 C   0  0  0  0  0  3  0  0  0  0  0  0
  161.9870  208.0970  149.7630 N   0  0  0  0  0  0  0  0  0  0  0  0
  161.0980  207.6770  154.8320 C   0  0  0  0  0  3  0  0  0  0  0  0
  160.1290  209.8450  154.2960 C   0  0  0  0  0  0  0  0  0  0  0  0
  160.7430  207.8390  156.1680 C   0  0  0  0  0  3  0  0  0  0  0  0
  160.8110  208.6700  153.8850 C   0  0  0  0  0  0  0  0  0  0  0  0
  159.5300  210.9980  153.0960 Cl  0  0  0  0  0  0  0  0  0  0  0  0
  159.8020  210.0180  155.6630 C   0  0  0  0  0  0  0  0  0  0  0  0
  160.1010  209.0030  156.5790 C   0  0  0  0  0  3  0  0  0  0  0  0
  159.7800  212.2570  156.6650 N   0  0  0  0  0  0  0  0  0  0  0  0
  155.6790  214.4510  156.9740 N   0  0  0  0  0  1  0  0  0  0  0  0
  159.1360  211.2310  156.1780 C   0  0  0  0  0  0  0  0  0  0  0  0
  155.5900  212.2040  155.9820 C   0  0  0  0  0  3  0  0  0  0  0  0
  158.8240  213.2950  156.9790 C   0  0  0  0  0  3  0  0  0  0  0  0
  156.2500  213.2150  156.5620 C   0  0  0  0  0  0  0  0  0  0  0  0
  156.5610  211.1100  155.6750 C   0  0  0  0  0  3  0  0  0  0  0  0
  157.7260  211.5560  156.1260 C   0  0  0  0  0  0  0  0  0  0  0  0
  157.6310  212.8340  156.6540 C   0  0  0  0  0  0  0  0  0  0  0  0
  161.0400  204.5280  150.7720 C   0  0  2  0  0  3  0  0  0  0  0  0
  161.8720  204.3140  151.8740 O   0  0  0  0  0  1  0  0  0  0  0  0
  160.9860  200.9630  149.7740 C   0  0  0  0  0  3  0  0  0  0  0  0
  161.0500  203.3580  149.9030 N   0  0  0  0  0  0  0  0  0  0  0  0
  160.9660  203.5270  148.4460 C   0  0  0  0  0  2  0  0  0  0  0  0
  161.1380  201.0510  148.3150 C   0  0  0  0  0  0  0  0  0  0  0  0
  161.2620  199.9080  147.5960 F   0  0  0  0  0  0  0  0  0  0  0  0
  161.1710  202.2360  147.6960 C   0  0  0  0  0  0  0  0  0  0  0  0
  161.3150  202.2840  146.3490 F   0  0  0  0  0  0  0  0  0  0  0  0
  160.9490  202.0670  150.5160 C   0  0  0  0  0  3  0  0  0  0  0  0
  161.1710  207.8920  147.5850 O   0  0  0  0  0  1  0  0  0  0  0  0
  162.3350  207.9410  148.3530 C   0  0  0  0  0  2  0  0  0  0  0  0
  162.4450  210.5360  149.5840 N   0  0  0  0  0  2  0  0  0  0  0  0
  161.5550  211.2770  148.7030 C   0  0  0  0  0  2  0  0  0  0  0  0
  162.2700  212.5040  148.1810 C   0  0  0  0  0  2  0  0  0  0  0  0
  161.5790  213.7500  148.7020 C   0  0  0  0  0  2  0  0  0  0  0  0
  160.0900  214.2430  150.6400 C   0  0  0  0  0  1  0  0  0  0  0  0
  160.2840  213.3840  149.4050 C   0  0  0  0  0  2  0  0  0  0  0  0
  1 11  1  0  0  0  0
  2  1  2  0  0  0  0
  3  2  1  0  0  0  0
  4  6  2  0  0  0  0
  5  3  2  0  0  0  0
  5 24  1  0  0  0  0
  6  1  1  0  0  0  0
  7  4  1  0  0  0  0
  7  3  1  0  0  0  0
  8 10  1  0  0  0  0
  9 13  2  0  0  0  0
 10 14  2  0  0  0  0
 11  9  1  0  0  0  0
 11  8  2  0  0  0  0
 12  9  1  0  0  0  0
 13 17  1  0  0  0  0
 13 14  1  0  0  0  0
 15 19  1  0  0  0  0
 17 15  2  0  0  0  0
 18 20  2  0  0  0  0
 20 23  1  0  0  0  0
 20 16  1  0  0  0  0
 21 18  1  0  0  0  0
 21 22  2  0  0  0  0
 22 17  1  0  0  0  0
 22 23  1  0  0  0  0
 23 19  2  0  0  0  0
 24 25  1  1  0  0  0
 26 33  2  0  0  0  0
 27 33  1  0  0  0  0
 27 24  1  0  0  0  0
 28 27  1  0  0  0  0
 29 26  1  0  0  0  0
 30 29  1  0  0  0  0
 31 29  2  0  0  0  0
 31 28  1  0  0  0  0
 32 31  1  0  0  0  0
 34 35  1  0  0  0  0
 35  7  1  0  0  0  0
 36  4  1  0  0  0  0
 37 36  1  0  0  0  0
 38 39  1  0  0  0  0
 38 37  1  0  0  0  0
 39 41  1  0  0  0  0
 41 40  1  0  0  0  0
M  END
>  <MODEL>
1

>  <REMARK>
 VINA RESULT:      -8.7      0.000      0.000
  Name = 
  10 active torsions:
  status: ('A' for Active; 'I' for Inactive)
    1  A    between atoms: C_2  and  C_18
    2  A    between atoms: C_6  and  N_11
    3  A    between atoms: C_6  and  C_29
    4  A    between atoms: C_8  and  C_25
    5  A    between atoms: C_8  and  N_40
    6  A    between atoms: C_9  and  C_22
    7  A    between atoms: C_20  and  C_35
    8  A    between atoms: C_25  and  C_35
    9  A    between atoms: C_26  and  N_40
   10  A    between atoms: C_28  and  N_31
                            x       y       z     vdW  Elec       q    Type
                         _______ _______ _______ _____ _____    ______ ____

>  <TORSDO>
F 10

$$$$
=
 OpenBabel11042420513D

 41 45  0  0  1  0  0  0  0  0999 V2000
  160.9810  209.3880  151.5470 C   0  0  0  0  0  0  0  0  0  0  0  0
  161.3390  210.1510  150.5070 C   0  0  0  0  0  3  0  0  0  0  0  0
  161.0540  211.5960  150.5010 C   0  0  0  0  0  0  0  0  0  0  0  0
  159.9620  211.3050  152.7220 C   0  0  0  0  0  0  0  0  0  0  0  0
  161.4270  212.3640  149.4700 C   0  0  0  0  0  3  0  0  0  0  0  0
  160.2520  209.9960  152.6830 C   0  0  0  0  0  3  0  0  0  0  0  0
  160.3620  212.1620  151.6330 N   0  0  0  0  0  0  0  0  0  0  0  0
  161.4960  207.3050  152.7670 C   0  0  0  0  0  3  0  0  0  0  0  0
  161.2390  207.1500  150.3520 C   0  0  0  0  0  0  0  0  0  0  0  0
  161.7330  205.9360  152.8390 C   0  0  0  0  0  3  0  0  0  0  0  0
  161.2370  207.9290  151.5380 C   0  0  0  0  0  0  0  0  0  0  0  0
  161.1660  207.9340  148.7670 Cl  0  0  0  0  0  0  0  0  0  0  0  0
  161.4460  205.7510  150.4360 C   0  0  0  0  0  0  0  0  0  0  0  0
  161.7060  205.1660  151.6810 C   0  0  0  0  0  3  0  0  0  0  0  0
  161.8730  205.2090  148.0820 N   0  0  0  0  0  0  0  0  0  0  0  0
  161.0220  200.8480  146.6750 N   0  0  0  0  0  1  0  0  0  0  0  0
  161.4150  204.8660  149.2550 C   0  0  0  0  0  0  0  0  0  0  0  0
  160.5370  201.2960  149.0430 C   0  0  0  0  0  3  0  0  0  0  0  0
  161.7730  204.0720  147.1960 C   0  0  0  0  0  3  0  0  0  0  0  0
  160.9250  201.6860  147.8210 C   0  0  0  0  0  0  0  0  0  0  0  0
  160.6090  202.4700  149.9660 C   0  0  0  0  0  3  0  0  0  0  0  0
  161.0140  203.4750  149.2030 C   0  0  0  0  0  0  0  0  0  0  0  0
  161.2540  203.0810  147.8960 C   0  0  0  0  0  0  0  0  0  0  0  0
  162.1550  211.8460  148.2670 C   0  0  2  0  0  3  0  0  0  0  0  0
  163.5070  212.1920  148.3330 O   0  0  0  0  0  1  0  0  0  0  0  0
  159.5740  212.6030  145.7220 C   0  0  0  0  0  3  0  0  0  0  0  0
  161.5620  212.3790  147.0470 N   0  0  0  0  0  0  0  0  0  0  0  0
  162.3470  213.2660  146.1770 C   0  0  0  0  0  2  0  0  0  0  0  0
  160.3550  213.3010  144.6920 C   0  0  0  0  0  0  0  0  0  0  0  0
  159.7480  213.6530  143.5320 F   0  0  0  0  0  0  0  0  0  0  0  0
  161.6500  213.5760  144.8770 C   0  0  0  0  0  0  0  0  0  0  0  0
  162.3450  214.2180  143.9060 F   0  0  0  0  0  0  0  0  0  0  0  0
  160.1610  212.1680  146.8340 C   0  0  0  0  0  3  0  0  0  0  0  0
  158.7080  213.7450  151.1750 O   0  0  0  0  0  1  0  0  0  0  0  0
  160.0040  213.5780  151.6650 C   0  0  0  0  0  2  0  0  0  0  0  0
  159.2550  211.8560  153.8400 N   0  0  0  0  0  2  0  0  0  0  0  0
  159.8020  211.9070  155.1880 C   0  0  0  0  0  2  0  0  0  0  0  0
  159.1660  210.8240  156.0310 C   0  0  0  0  0  2  0  0  0  0  0  0
  160.2080  209.7780  156.3790 C   0  0  0  0  0  2  0  0  0  0  0  0
  160.2170  207.3350  156.8790 C   0  0  0  0  0  1  0  0  0  0  0  0
  159.7620  208.4060  155.9060 C   0  0  0  0  0  2  0  0  0  0  0  0
  1  6  1  0  0  0  0
  2  1  2  0  0  0  0
  3  2  1  0  0  0  0
  3  7  1  0  0  0  0
  4 36  1  0  0  0  0
  5  3  2  0  0  0  0
  6  4  2  0  0  0  0
  7 35  1  0  0  0  0
  7  4  1  0  0  0  0
  8 10  1  0  0  0  0
  9 13  2  0  0  0  0
  9 11  1  0  0  0  0
 11  1  1  0  0  0  0
 11  8  2  0  0  0  0
 12  9  1  0  0  0  0
 13 14  1  0  0  0  0
 14 10  2  0  0  0  0
 15 17  1  0  0  0  0
 16 20  1  0  0  0  0
 17 13  1  0  0  0  0
 18 21  2  0  0  0  0
 19 23  1  0  0  0  0
 19 15  2  0  0  0  0
 20 23  2  0  0  0  0
 20 18  1  0  0  0  0
 22 17  2  0  0  0  0
 22 21  1  0  0  0  0
 23 22  1  0  0  0  0
 24 25  1  1  0  0  0
 24  5  1  0  0  0  0
 26 33  2  0  0  0  0
 27 24  1  0  0  0  0
 28 27  1  0  0  0  0
 29 31  2  0  0  0  0
 29 26  1  0  0  0  0
 30 29  1  0  0  0  0
 31 28  1  0  0  0  0
 32 31  1  0  0  0  0
 33 27  1  0  0  0  0
 34 35  1  0  0  0  0
 36 37  1  0  0  0  0
 37 38  1  0  0  0  0
 38 39  1  0  0  0  0
 41 39  1  0  0  0  0
 41 40  1  0  0  0  0
M  END
>  <MODEL>
2

>  <REMARK>
 VINA RESULT:      -8.4      3.929      9.389
  Name = 
  10 active torsions:
  status: ('A' for Active; 'I' for Inactive)
    1  A    between atoms: C_2  and  C_18
    2  A    between atoms: C_6  and  N_11
    3  A    between atoms: C_6  and  C_29
    4  A    between atoms: C_8  and  C_25
    5  A    between atoms: C_8  and  N_40
    6  A    between atoms: C_9  and  C_22
    7  A    between atoms: C_20  and  C_35
    8  A    between atoms: C_25  and  C_35
    9  A    between atoms: C_26  and  N_40
   10  A    between atoms: C_28  and  N_31
                            x       y       z     vdW  Elec       q    Type
                         _______ _______ _______ _____ _____    ______ ____

>  <TORSDO>
F 10

$$$$
=
 OpenBabel11042420513D

 41 45  0  0  1  0  0  0  0  0999 V2000
  160.9390  209.3020  151.4340 C   0  0  0  0  0  0  0  0  0  0  0  0
  160.2710  209.9850  152.3710 C   0  0  0  0  0  3  0  0  0  0  0  0
  160.1000  211.4440  152.2580 C   0  0  0  0  0  0  0  0  0  0  0  0
  161.4280  211.3530  150.1520 C   0  0  0  0  0  0  0  0  0  0  0  0
  159.4170  212.1270  153.1850 C   0  0  0  0  0  3  0  0  0  0  0  0
  161.5490  210.0250  150.2950 C   0  0  0  0  0  3  0  0  0  0  0  0
  160.6870  212.1170  151.1250 N   0  0  0  0  0  0  0  0  0  0  0  0
  161.3350  207.3210  152.8520 C   0  0  0  0  0  3  0  0  0  0  0  0
  161.1580  206.9570  150.4520 C   0  0  0  0  0  0  0  0  0  0  0  0
  161.5200  205.9570  153.0550 C   0  0  0  0  0  3  0  0  0  0  0  0
  161.1420  207.8400  151.5640 C   0  0  0  0  0  0  0  0  0  0  0  0
  161.1690  207.5970  148.8030 Cl  0  0  0  0  0  0  0  0  0  0  0  0
  161.3110  205.5660  150.6690 C   0  0  0  0  0  0  0  0  0  0  0  0
  161.5060  205.0870  151.9700 C   0  0  0  0  0  3  0  0  0  0  0  0
  161.5940  204.8670  148.3340 N   0  0  0  0  0  0  0  0  0  0  0  0
  161.1910  200.3250  147.3700 N   0  0  0  0  0  1  0  0  0  0  0  0
  161.2900  204.5790  149.5710 C   0  0  0  0  0  0  0  0  0  0  0  0
  160.8650  200.9250  149.7310 C   0  0  0  0  0  3  0  0  0  0  0  0
  161.5630  203.6500  147.5560 C   0  0  0  0  0  3  0  0  0  0  0  0
  161.0890  201.2450  148.4500 C   0  0  0  0  0  0  0  0  0  0  0  0
  160.8670  202.1780  150.5460 C   0  0  0  0  0  3  0  0  0  0  0  0
  161.0690  203.1510  149.6700 C   0  0  0  0  0  0  0  0  0  0  0  0
  161.2410  202.6710  148.3800 C   0  0  0  0  0  0  0  0  0  0  0  0
  158.7740  211.4940  154.3810 C   0  0  2  0  0  3  0  0  0  0  0  0
  158.1490  212.4660  155.1660 O   0  0  0  0  0  1  0  0  0  0  0  0
  161.8770  210.8840  156.3070 C   0  0  0  0  0  3  0  0  0  0  0  0
  159.7670  210.7760  155.1710 N   0  0  0  0  0  0  0  0  0  0  0  0
  159.4770  209.4190  155.6540 C   0  0  0  0  0  2  0  0  0  0  0  0
  161.7630  209.4550  156.6290 C   0  0  0  0  0  0  0  0  0  0  0  0
  162.7910  208.8380  157.2610 F   0  0  0  0  0  0  0  0  0  0  0  0
  160.6710  208.7590  156.2940 C   0  0  0  0  0  0  0  0  0  0  0  0
  160.5970  207.4410  156.6010 F   0  0  0  0  0  0  0  0  0  0  0  0
  160.9230  211.4980  155.6120 C   0  0  0  0  0  3  0  0  0  0  0  0
  159.5880  213.8890  150.0740 O   0  0  0  0  0  1  0  0  0  0  0  0
  160.5970  213.5680  150.9830 C   0  0  0  0  0  2  0  0  0  0  0  0
  162.0330  212.0180  149.0350 N   0  0  0  0  0  2  0  0  0  0  0  0
  161.4820  211.9830  147.6880 C   0  0  0  0  0  2  0  0  0  0  0  0
  162.2890  212.8960  146.7910 C   0  0  0  0  0  2  0  0  0  0  0  0
  161.3500  213.7940  146.0090 C   0  0  0  0  0  2  0  0  0  0  0  0
  163.0240  213.2450  144.2450 C   0  0  0  0  0  1  0  0  0  0  0  0
  161.5850  213.6370  144.5180 C   0  0  0  0  0  2  0  0  0  0  0  0
  1 11  1  0  0  0  0
  1  2  2  0  0  0  0
  3  2  1  0  0  0  0
  3  5  2  0  0  0  0
  4  6  2  0  0  0  0
  4  7  1  0  0  0  0
  5 24  1  0  0  0  0
  6  1  1  0  0  0  0
  7  3  1  0  0  0  0
  8 10  1  0  0  0  0
  9 13  2  0  0  0  0
  9 11  1  0  0  0  0
 11  8  2  0  0  0  0
 12  9  1  0  0  0  0
 13 14  1  0  0  0  0
 14 10  2  0  0  0  0
 15 17  1  0  0  0  0
 16 20  1  0  0  0  0
 17 22  2  0  0  0  0
 17 13  1  0  0  0  0
 18 21  2  0  0  0  0
 19 15  2  0  0  0  0
 19 23  1  0  0  0  0
 20 18  1  0  0  0  0
 22 21  1  0  0  0  0
 23 20  2  0  0  0  0
 23 22  1  0  0  0  0
 24 25  1  1  0  0  0
 24 27  1  0  0  0  0
 26 29  1  0  0  0  0
 27 33  1  0  0  0  0
 27 28  1  0  0  0  0
 28 31  1  0  0  0  0
 29 30  1  0  0  0  0
 31 32  1  0  0  0  0
 31 29  2  0  0  0  0
 33 26  2  0  0  0  0
 34 35  1  0  0  0  0
 35  7  1  0  0  0  0
 36  4  1  0  0  0  0
 37 36  1  0  0  0  0
 38 37  1  0  0  0  0
 39 38  1  0  0  0  0
 40 41  1  0  0  0  0
 41 39  1  0  0  0  0
M  END
>  <MODEL>
3

>  <REMARK>
 VINA RESULT:      -8.0      3.796      8.838
  Name = 
  10 active torsions:
  status: ('A' for Active; 'I' for Inactive)
    1  A    between atoms: C_2  and  C_18
    2  A    between atoms: C_6  and  N_11
    3  A    between atoms: C_6  and  C_29
    4  A    between atoms: C_8  and  C_25
    5  A    between atoms: C_8  and  N_40
    6  A    between atoms: C_9  and  C_22
    7  A    between atoms: C_20  and  C_35
    8  A    between atoms: C_25  and  C_35
    9  A    between atoms: C_26  and  N_40
   10  A    between atoms: C_28  and  N_31
                            x       y       z     vdW  Elec       q    Type
                         _______ _______ _______ _____ _____    ______ ____

>  <TORSDO>
F 10

$$$$
=
 OpenBabel11042420513D

 41 45  0  0  1  0  0  0  0  0999 V2000
  161.4480  209.6460  152.0180 C   0  0  0  0  0  0  0  0  0  0  0  0
  161.6670  210.3850  150.9250 C   0  0  0  0  0  3  0  0  0  0  0  0
  161.9340  209.7460  149.6240 C   0  0  0  0  0  0  0  0  0  0  0  0
  161.7660  207.5400  150.7710 C   0  0  0  0  0  0  0  0  0  0  0  0
  162.1350  210.4840  148.5260 C   0  0  0  0  0  3  0  0  0  0  0  0
  161.5180  208.1700  151.9290 C   0  0  0  0  0  3  0  0  0  0  0  0
  161.9730  208.3050  149.5660 N   0  0  0  0  0  0  0  0  0  0  0  0
  162.1500  210.0520  154.3490 C   0  0  0  0  0  3  0  0  0  0  0  0
  160.0910  211.1150  153.6020 C   0  0  0  0  0  0  0  0  0  0  0  0
  162.0030  210.6320  155.6050 C   0  0  0  0  0  3  0  0  0  0  0  0
  161.2140  210.2890  153.3320 C   0  0  0  0  0  0  0  0  0  0  0  0
  158.7680  211.2340  152.4340 Cl  0  0  0  0  0  0  0  0  0  0  0  0
  159.9670  211.7300  154.8720 C   0  0  0  0  0  0  0  0  0  0  0  0
  160.9200  211.4660  155.8630 C   0  0  0  0  0  3  0  0  0  0  0  0
  158.8180  213.8970  154.8660 N   0  0  0  0  0  0  0  0  0  0  0  0
  154.5110  214.0700  156.6400 N   0  0  0  0  0  1  0  0  0  0  0  0
  158.8560  212.6400  155.2140 C   0  0  0  0  0  0  0  0  0  0  0  0
  155.5860  211.8600  156.7170 C   0  0  0  0  0  3  0  0  0  0  0  0
  157.5500  214.4530  155.2800 C   0  0  0  0  0  3  0  0  0  0  0  0
  155.5940  213.1700  156.4350 C   0  0  0  0  0  0  0  0  0  0  0  0
  156.9030  211.2750  156.3190 C   0  0  0  0  0  3  0  0  0  0  0  0
  157.6010  212.3010  155.8530 C   0  0  0  0  0  0  0  0  0  0  0  0
  156.8730  213.4810  155.8630 C   0  0  0  0  0  0  0  0  0  0  0  0
  162.1000  211.9820  148.5110 C   0  0  2  0  0  3  0  0  0  0  0  0
  161.1000  212.4520  149.3650 O   0  0  0  0  0  1  0  0  0  0  0  0
  160.2520  213.0230  145.4770 C   0  0  0  0  0  3  0  0  0  0  0  0
  161.8730  212.4710  147.1570 N   0  0  0  0  0  0  0  0  0  0  0  0
  162.9990  212.9820  146.3640 C   0  0  0  0  0  2  0  0  0  0  0  0
  161.3430  213.3310  144.5430 C   0  0  0  0  0  0  0  0  0  0  0  0
  161.0420  213.6610  143.2640 F   0  0  0  0  0  0  0  0  0  0  0  0
  162.6210  213.2750  144.9350 C   0  0  0  0  0  0  0  0  0  0  0  0
  163.6060  213.5620  144.0490 F   0  0  0  0  0  0  0  0  0  0  0  0
  160.5170  212.6120  146.7140 C   0  0  0  0  0  3  0  0  0  0  0  0
  161.1110  207.1060  147.7570 O   0  0  0  0  0  1  0  0  0  0  0  0
  162.2850  207.6110  148.3190 C   0  0  0  0  0  2  0  0  0  0  0  0
  161.8250  206.1080  150.7250 N   0  0  0  0  0  2  0  0  0  0  0  0
  161.3080  205.2510  151.7820 C   0  0  0  0  0  2  0  0  0  0  0  0
  160.7140  204.0010  151.1700 C   0  0  0  0  0  2  0  0  0  0  0  0
  161.1670  203.8810  149.7280 C   0  0  0  0  0  2  0  0  0  0  0  0
  160.8950  201.4170  149.9960 C   0  0  0  0  0  1  0  0  0  0  0  0
  160.6180  202.6110  149.1030 C   0  0  0  0  0  2  0  0  0  0  0  0
  1 11  1  0  0  0  0
  2  1  2  0  0  0  0
  3  2  1  0  0  0  0
  4  6  2  0  0  0  0
  5  3  2  0  0  0  0
  6  1  1  0  0  0  0
  7  3  1  0  0  0  0
  7  4  1  0  0  0  0
  8 10  1  0  0  0  0
  9 13  2  0  0  0  0
 10 14  2  0  0  0  0
 11  9  1  0  0  0  0
 11  8  2  0  0  0  0
 12  9  1  0  0  0  0
 13 17  1  0  0  0  0
 13 14  1  0  0  0  0
 15 17  2  0  0  0  0
 15 19  1  0  0  0  0
 17 22  1  0  0  0  0
 19 23  2  0  0  0  0
 20 16  1  0  0  0  0
 20 18  2  0  0  0  0
 21 18  1  0  0  0  0
 22 23  1  0  0  0  0
 22 21  2  0  0  0  0
 23 20  1  0  0  0  0
 24  5  1  0  0  0  0
 24 25  1  1  0  0  0
 26 33  2  0  0  0  0
 27 24  1  0  0  0  0
 28 27  1  0  0  0  0
 29 31  2  0  0  0  0
 29 26  1  0  0  0  0
 30 29  1  0  0  0  0
 31 28  1  0  0  0  0
 32 31  1  0  0  0  0
 33 27  1  0  0  0  0
 34 35  1  0  0  0  0
 35  7  1  0  0  0  0
 36  4  1  0  0  0  0
 36 37  1  0  0  0  0
 38 37  1  0  0  0  0
 39 38  1  0  0  0  0
 41 39  1  0  0  0  0
 41 40  1  0  0  0  0
M  END
>  <MODEL>
4

>  <REMARK>
 VINA RESULT:      -7.9      3.396      6.801
  Name = 
  10 active torsions:
  status: ('A' for Active; 'I' for Inactive)
    1  A    between atoms: C_2  and  C_18
    2  A    between atoms: C_6  and  N_11
    3  A    between atoms: C_6  and  C_29
    4  A    between atoms: C_8  and  C_25
    5  A    between atoms: C_8  and  N_40
    6  A    between atoms: C_9  and  C_22
    7  A    between atoms: C_20  and  C_35
    8  A    between atoms: C_25  and  C_35
    9  A    between atoms: C_26  and  N_40
   10  A    between atoms: C_28  and  N_31
                            x       y       z     vdW  Elec       q    Type
                         _______ _______ _______ _____ _____    ______ ____

>  <TORSDO>
F 10

$$$$
=
 OpenBabel11042420513D

 41 45  0  0  1  0  0  0  0  0999 V2000
  160.9360  209.3550  151.6300 C   0  0  0  0  0  0  0  0  0  0  0  0
  161.3160  210.1270  150.6060 C   0  0  0  0  0  3  0  0  0  0  0  0
  161.0390  211.5740  150.6100 C   0  0  0  0  0  0  0  0  0  0  0  0
  159.9040  211.2640  152.8070 C   0  0  0  0  0  0  0  0  0  0  0  0
  161.4340  212.3510  149.5940 C   0  0  0  0  0  3  0  0  0  0  0  0
  160.1890  209.9540  152.7600 C   0  0  0  0  0  3  0  0  0  0  0  0
  160.3290  212.1320  151.7350 N   0  0  0  0  0  0  0  0  0  0  0  0
  161.4180  207.2570  152.8370 C   0  0  0  0  0  3  0  0  0  0  0  0
  161.2030  207.1280  150.4160 C   0  0  0  0  0  0  0  0  0  0  0  0
  161.6470  205.8860  152.8980 C   0  0  0  0  0  3  0  0  0  0  0  0
  161.1840  207.8950  151.6100 C   0  0  0  0  0  0  0  0  0  0  0  0
  161.1630  207.9300  148.8390 Cl  0  0  0  0  0  0  0  0  0  0  0  0
  161.4020  205.7280  150.4890 C   0  0  0  0  0  0  0  0  0  0  0  0
  161.6370  205.1280  151.7320 C   0  0  0  0  0  3  0  0  0  0  0  0
  161.9120  205.1910  148.1500 N   0  0  0  0  0  0  0  0  0  0  0  0
  160.9470  200.8810  146.6590 N   0  0  0  0  0  1  0  0  0  0  0  0
  161.3880  204.8560  149.2980 C   0  0  0  0  0  0  0  0  0  0  0  0
  160.3750  201.3280  149.0080 C   0  0  0  0  0  3  0  0  0  0  0  0
  161.8050  204.0670  147.2480 C   0  0  0  0  0  3  0  0  0  0  0  0
  160.8330  201.7120  147.8090 C   0  0  0  0  0  0  0  0  0  0  0  0
  160.4530  202.4880  149.9460 C   0  0  0  0  0  3  0  0  0  0  0  0
  160.9330  203.4830  149.2130 C   0  0  0  0  0  0  0  0  0  0  0  0
  161.2150  203.0910  147.9130 C   0  0  0  0  0  0  0  0  0  0  0  0
  162.1820  211.8430  148.3990 C   0  0  2  0  0  3  0  0  0  0  0  0
  163.5230  212.2270  148.4670 O   0  0  0  0  0  1  0  0  0  0  0  0
  161.8630  213.7080  145.2170 C   0  0  0  0  0  3  0  0  0  0  0  0
  161.5790  212.3460  147.1710 N   0  0  0  0  0  0  0  0  0  0  0  0
  160.2760  211.8310  146.7300 C   0  0  0  0  0  2  0  0  0  0  0  0
  160.4750  213.4210  144.8310 C   0  0  0  0  0  0  0  0  0  0  0  0
  159.9560  214.0310  143.7370 F   0  0  0  0  0  0  0  0  0  0  0  0
  159.7190  212.5840  145.5490 C   0  0  0  0  0  0  0  0  0  0  0  0
  158.4410  212.3420  145.1690 F   0  0  0  0  0  0  0  0  0  0  0  0
  162.3740  213.1930  146.3320 C   0  0  0  0  0  3  0  0  0  0  0  0
  158.7860  213.7570  151.0780 O   0  0  0  0  0  1  0  0  0  0  0  0
  159.9770  213.5490  151.7750 C   0  0  0  0  0  2  0  0  0  0  0  0
  159.1800  211.8070  153.9180 N   0  0  0  0  0  2  0  0  0  0  0  0
  159.7010  211.8370  155.2770 C   0  0  0  0  0  2  0  0  0  0  0  0
  158.5490  211.9060  156.2560 C   0  0  0  0  0  2  0  0  0  0  0  0
  157.5200  212.9000  155.7530 C   0  0  0  0  0  2  0  0  0  0  0  0
  155.9700  210.9850  155.3700 C   0  0  0  0  0  1  0  0  0  0  0  0
  156.1150  212.3680  155.9750 C   0  0  0  0  0  2  0  0  0  0  0  0
  1  6  1  0  0  0  0
  2  3  1  0  0  0  0
  2  1  2  0  0  0  0
  3  7  1  0  0  0  0
  4 36  1  0  0  0  0
  5  3  2  0  0  0  0
  6  4  2  0  0  0  0
  7 35  1  0  0  0  0
  7  4  1  0  0  0  0
  8 10  1  0  0  0  0
  9 13  2  0  0  0  0
  9 11  1  0  0  0  0
 11  1  1  0  0  0  0
 11  8  2  0  0  0  0
 12  9  1  0  0  0  0
 13 14  1  0  0  0  0
 14 10  2  0  0  0  0
 15 17  1  0  0  0  0
 16 20  1  0  0  0  0
 17 13  1  0  0  0  0
 18 21  2  0  0  0  0
 19 23  1  0  0  0  0
 19 15  2  0  0  0  0
 20 23  2  0  0  0  0
 20 18  1  0  0  0  0
 22 17  2  0  0  0  0
 22 21  1  0  0  0  0
 23 22  1  0  0  0  0
 24 25  1  1  0  0  0
 24  5  1  0  0  0  0
 26 33  2  0  0  0  0
 27 24  1  0  0  0  0
 28 27  1  0  0  0  0
 29 26  1  0  0  0  0
 29 31  2  0  0  0  0
 30 29  1  0  0  0  0
 31 28  1  0  0  0  0
 32 31  1  0  0  0  0
 33 27  1  0  0  0  0
 34 35  1  0  0  0  0
 36 37  1  0  0  0  0
 37 38  1  0  0  0  0
 39 41  1  0  0  0  0
 39 38  1  0  0  0  0
 40 41  1  0  0  0  0
M  END
>  <MODEL>
5

>  <REMARK>
 VINA RESULT:      -7.8      3.635      9.280
  Name = 
  10 active torsions:
  status: ('A' for Active; 'I' for Inactive)
    1  A    between atoms: C_2  and  C_18
    2  A    between atoms: C_6  and  N_11
    3  A    between atoms: C_6  and  C_29
    4  A    between atoms: C_8  and  C_25
    5  A    between atoms: C_8  and  N_40
    6  A    between atoms: C_9  and  C_22
    7  A    between atoms: C_20  and  C_35
    8  A    between atoms: C_25  and  C_35
    9  A    between atoms: C_26  and  N_40
   10  A    between atoms: C_28  and  N_31
                            x       y       z     vdW  Elec       q    Type
                         _______ _______ _______ _____ _____    ______ ____

>  <TORSDO>
F 10

$$$$
=
 OpenBabel11042420513D

 41 45  0  0  1  0  0  0  0  0999 V2000
  160.4020  210.8690  152.6430 C   0  0  0  0  0  0  0  0  0  0  0  0
  160.8190  209.6870  152.1720 C   0  0  0  0  0  3  0  0  0  0  0  0
  161.1720  208.5930  153.0930 C   0  0  0  0  0  0  0  0  0  0  0  0
  160.6550  210.1310  154.9850 C   0  0  0  0  0  0  0  0  0  0  0  0
  161.5720  207.4050  152.6250 C   0  0  0  0  0  3  0  0  0  0  0  0
  160.3370  211.0930  154.1050 C   0  0  0  0  0  3  0  0  0  0  0  0
  161.0760  208.8350  154.5130 N   0  0  0  0  0  0  0  0  0  0  0  0
  159.0210  212.8300  152.0630 C   0  0  0  0  0  3  0  0  0  0  0  0
  160.7870  212.2110  150.5080 C   0  0  0  0  0  0  0  0  0  0  0  0
  158.6680  213.9020  151.2500 C   0  0  0  0  0  3  0  0  0  0  0  0
  160.0810  211.9800  151.7180 C   0  0  0  0  0  0  0  0  0  0  0  0
  161.9570  211.0230  149.9150 Cl  0  0  0  0  0  0  0  0  0  0  0  0
  160.4460  213.3250  149.7020 C   0  0  0  0  0  0  0  0  0  0  0  0
  159.3780  214.1480  150.0790 C   0  0  0  0  0  3  0  0  0  0  0  0
  162.2960  214.3070  148.4250 N   0  0  0  0  0  0  0  0  0  0  0  0
  162.3920  213.5550  143.8260 N   0  0  0  0  0  1  0  0  0  0  0  0
  161.1630  213.6590  148.4560 C   0  0  0  0  0  0  0  0  0  0  0  0
  160.4850  212.5520  145.0100 C   0  0  0  0  0  3  0  0  0  0  0  0
  162.7550  214.3700  147.0570 C   0  0  0  0  0  3  0  0  0  0  0  0
  161.6000  213.2940  144.9800 C   0  0  0  0  0  0  0  0  0  0  0  0
  159.9820  212.5000  146.4170 C   0  0  0  0  0  3  0  0  0  0  0  0
  160.8340  213.2430  147.1080 C   0  0  0  0  0  0  0  0  0  0  0  0
  161.8600  213.7410  146.3190 C   0  0  0  0  0  0  0  0  0  0  0  0
  161.6870  207.0810  151.1670 C   0  0  2  0  0  3  0  0  0  0  0  0
  160.8310  207.8940  150.4200 O   0  0  0  0  0  1  0  0  0  0  0  0
  160.9500  203.5310  151.9180 C   0  0  0  0  0  3  0  0  0  0  0  0
  161.3740  205.6770  150.9320 N   0  0  0  0  0  0  0  0  0  0  0  0
  161.0510  205.2150  149.5750 C   0  0  0  0  0  2  0  0  0  0  0  0
  160.8450  202.9480  150.5740 C   0  0  0  0  0  0  0  0  0  0  0  0
  160.6740  201.6090  150.4480 F   0  0  0  0  0  0  0  0  0  0  0  0
  160.9320  203.7150  149.4820 C   0  0  0  0  0  0  0  0  0  0  0  0
  160.8350  203.1470  148.2550 F   0  0  0  0  0  0  0  0  0  0  0  0
  161.2040  204.8280  152.0740 C   0  0  0  0  0  3  0  0  0  0  0  0
  160.3360  207.0780  155.8600 O   0  0  0  0  0  1  0  0  0  0  0  0
  161.4610  207.8090  155.4780 C   0  0  0  0  0  2  0  0  0  0  0  0
  160.5780  210.3870  156.3930 N   0  0  0  0  0  2  0  0  0  0  0  0
  159.3360  210.7000  157.0840 C   0  0  0  0  0  2  0  0  0  0  0  0
  159.1970  212.2010  157.2140 C   0  0  0  0  0  2  0  0  0  0  0  0
  157.9370  212.6550  156.5010 C   0  0  0  0  0  2  0  0  0  0  0  0
  156.6290  211.6450  154.6330 C   0  0  0  0  0  1  0  0  0  0  0  0
  157.1180  211.4560  156.0560 C   0  0  0  0  0  2  0  0  0  0  0  0
  1  6  1  0  0  0  0
  2  1  2  0  0  0  0
  2  3  1  0  0  0  0
  3  7  1  0  0  0  0
  4 36  1  0  0  0  0
  5  3  2  0  0  0  0
  6  4  2  0  0  0  0
  7  4  1  0  0  0  0
  7 35  1  0  0  0  0
  9 11  2  0  0  0  0
 10  8  2  0  0  0  0
 11  8  1  0  0  0  0
 11  1  1  0  0  0  0
 12  9  1  0  0  0  0
 13 14  2  0  0  0  0
 13  9  1  0  0  0  0
 14 10  1  0  0  0  0
 15 17  1  0  0  0  0
 16 20  1  0  0  0  0
 17 13  1  0  0  0  0
 18 21  2  0  0  0  0
 19 15  2  0  0  0  0
 20 18  1  0  0  0  0
 20 23  2  0  0  0  0
 21 22  1  0  0  0  0
 22 17  2  0  0  0  0
 23 19  1  0  0  0  0
 23 22  1  0  0  0  0
 24 25  1  6  0  0  0
 24  5  1  0  0  0  0
 26 33  2  0  0  0  0
 27 24  1  0  0  0  0
 27 33  1  0  0  0  0
 28 27  1  0  0  0  0
 29 26  1  0  0  0  0
 30 29  1  0  0  0  0
 31 28  1  0  0  0  0
 31 29  2  0  0  0  0
 32 31  1  0  0  0  0
 35 34  1  0  0  0  0
 36 37  1  0  0  0  0
 37 38  1  0  0  0  0
 39 38  1  0  0  0  0
 40 41  1  0  0  0  0
 41 39  1  0  0  0  0
M  END
>  <MODEL>
6

>  <REMARK>
 VINA RESULT:      -7.5      2.405      7.090
  Name = 
  10 active torsions:
  status: ('A' for Active; 'I' for Inactive)
    1  A    between atoms: C_2  and  C_18
    2  A    between atoms: C_6  and  N_11
    3  A    between atoms: C_6  and  C_29
    4  A    between atoms: C_8  and  C_25
    5  A    between atoms: C_8  and  N_40
    6  A    between atoms: C_9  and  C_22
    7  A    between atoms: C_20  and  C_35
    8  A    between atoms: C_25  and  C_35
    9  A    between atoms: C_26  and  N_40
   10  A    between atoms: C_28  and  N_31
                            x       y       z     vdW  Elec       q    Type
                         _______ _______ _______ _____ _____    ______ ____

>  <TORSDO>
F 10

$$$$
=
 OpenBabel11042420513D

 41 45  0  0  1  0  0  0  0  0999 V2000
  160.9880  209.4780  151.7980 C   0  0  0  0  0  0  0  0  0  0  0  0
  161.1510  208.3990  151.0230 C   0  0  0  0  0  3  0  0  0  0  0  0
  161.3380  207.0650  151.6190 C   0  0  0  0  0  0  0  0  0  0  0  0
  161.2160  208.1430  153.8620 C   0  0  0  0  0  0  0  0  0  0  0  0
  161.4830  205.9830  150.8440 C   0  0  0  0  0  3  0  0  0  0  0  0
  161.0400  209.3340  153.2710 C   0  0  0  0  0  3  0  0  0  0  0  0
  161.3610  206.9550  153.0570 N   0  0  0  0  0  0  0  0  0  0  0  0
  160.1630  211.7990  151.9510 C   0  0  0  0  0  3  0  0  0  0  0  0
  161.3250  211.1590  149.9100 C   0  0  0  0  0  0  0  0  0  0  0  0
  159.9910  213.0890  151.4590 C   0  0  0  0  0  3  0  0  0  0  0  0
  160.8350  210.8240  151.2000 C   0  0  0  0  0  0  0  0  0  0  0  0
  161.9510  209.9000  148.8360 Cl  0  0  0  0  0  0  0  0  0  0  0  0
  161.1780  212.4840  149.4310 C   0  0  0  0  0  0  0  0  0  0  0  0
  160.4980  213.4280  150.2090 C   0  0  0  0  0  3  0  0  0  0  0  0
  162.9120  213.3800  147.9450 N   0  0  0  0  0  0  0  0  0  0  0  0
  162.0110  213.4720  143.3730 N   0  0  0  0  0  1  0  0  0  0  0  0
  161.7020  212.9230  148.1230 C   0  0  0  0  0  0  0  0  0  0  0  0
  160.2010  212.5820  144.7780 C   0  0  0  0  0  3  0  0  0  0  0  0
  163.1140  213.6190  146.5350 C   0  0  0  0  0  3  0  0  0  0  0  0
  161.4110  213.1330  144.6180 C   0  0  0  0  0  0  0  0  0  0  0  0
  159.9660  212.3540  146.2360 C   0  0  0  0  0  3  0  0  0  0  0  0
  161.0570  212.8160  146.8310 C   0  0  0  0  0  0  0  0  0  0  0  0
  161.9940  213.2820  145.9210 C   0  0  0  0  0  0  0  0  0  0  0  0
  161.4600  206.0210  149.3470 C   0  0  2  0  0  3  0  0  0  0  0  0
  160.4200  206.8400  148.8990 O   0  0  0  0  0  1  0  0  0  0  0  0
  160.8090  202.3770  149.2780 C   0  0  0  0  0  3  0  0  0  0  0  0
  161.3060  204.6760  148.8070 N   0  0  0  0  0  0  0  0  0  0  0  0
  161.3430  204.4620  147.3540 C   0  0  0  0  0  2  0  0  0  0  0  0
  161.0630  202.0470  147.8690 C   0  0  0  0  0  0  0  0  0  0  0  0
  161.0170  200.7490  147.4790 F   0  0  0  0  0  0  0  0  0  0  0  0
  161.3510  203.0020  146.9790 C   0  0  0  0  0  0  0  0  0  0  0  0
  161.5830  202.6650  145.6860 F   0  0  0  0  0  0  0  0  0  0  0  0
  160.9310  203.6290  149.7100 C   0  0  0  0  0  3  0  0  0  0  0  0
  160.8340  204.6810  153.0840 O   0  0  0  0  0  1  0  0  0  0  0  0
  161.5950  205.6690  153.7090 C   0  0  0  0  0  2  0  0  0  0  0  0
  161.2600  208.0450  155.2910 N   0  0  0  0  0  2  0  0  0  0  0  0
  161.4350  209.1930  156.1680 C   0  0  0  0  0  2  0  0  0  0  0  0
  160.0840  209.6490  156.6750 C   0  0  0  0  0  2  0  0  0  0  0  0
  160.0450  211.1650  156.7140 C   0  0  0  0  0  2  0  0  0  0  0  0
  158.1520  211.2220  155.0920 C   0  0  0  0  0  1  0  0  0  0  0  0
  158.6350  211.6660  156.4590 C   0  0  0  0  0  2  0  0  0  0  0  0
  1  6  1  0  0  0  0
  2  3  1  0  0  0  0
  2  1  2  0  0  0  0
  3  7  1  0  0  0  0
  4 36  1  0  0  0  0
  5  3  2  0  0  0  0
  6  4  2  0  0  0  0
  7 35  1  0  0  0  0
  7  4  1  0  0  0  0
  9 11  1  0  0  0  0
 10  8  1  0  0  0  0
 11  1  1  0  0  0  0
 11  8  2  0  0  0  0
 12  9  1  0  0  0  0
 13  9  2  0  0  0  0
 13 14  1  0  0  0  0
 14 10  2  0  0  0  0
 15 17  1  0  0  0  0
 16 20  1  0  0  0  0
 17 13  1  0  0  0  0
 18 21  2  0  0  0  0
 19 15  2  0  0  0  0
 20 18  1  0  0  0  0
 20 23  2  0  0  0  0
 21 22  1  0  0  0  0
 22 17  2  0  0  0  0
 23 19  1  0  0  0  0
 23 22  1  0  0  0  0
 24 25  1  1  0  0  0
 24  5  1  0  0  0  0
 26 33  2  0  0  0  0
 27 24  1  0  0  0  0
 27 33  1  0  0  0  0
 28 27  1  0  0  0  0
 29 26  1  0  0  0  0
 30 29  1  0  0  0  0
 31 28  1  0  0  0  0
 31 29  2  0  0  0  0
 32 31  1  0  0  0  0
 34 35  1  0  0  0  0
 36 37  1  0  0  0  0
 37 38  1  0  0  0  0
 38 39  1  0  0  0  0
 40 41  1  0  0  0  0
 41 39  1  0  0  0  0
M  END
>  <MODEL>
7

>  <REMARK>
 VINA RESULT:      -7.0      2.318      6.815
  Name = 
  10 active torsions:
  status: ('A' for Active; 'I' for Inactive)
    1  A    between atoms: C_2  and  C_18
    2  A    between atoms: C_6  and  N_11
    3  A    between atoms: C_6  and  C_29
    4  A    between atoms: C_8  and  C_25
    5  A    between atoms: C_8  and  N_40
    6  A    between atoms: C_9  and  C_22
    7  A    between atoms: C_20  and  C_35
    8  A    between atoms: C_25  and  C_35
    9  A    between atoms: C_26  and  N_40
   10  A    between atoms: C_28  and  N_31
                            x       y       z     vdW  Elec       q    Type
                         _______ _______ _______ _____ _____    ______ ____

>  <TORSDO>
F 10

$$$$
=
 OpenBabel11042420513D

 41 45  0  0  1  0  0  0  0  0999 V2000
  161.0360  210.7870  151.6560 C   0  0  0  0  0  0  0  0  0  0  0  0
  160.8890  210.9510  152.9760 C   0  0  0  0  0  3  0  0  0  0  0  0
  161.1060  209.8260  153.9030 C   0  0  0  0  0  0  0  0  0  0  0  0
  161.5780  208.3930  151.9190 C   0  0  0  0  0  0  0  0  0  0  0  0
  160.9770  209.9920  155.2240 C   0  0  0  0  0  3  0  0  0  0  0  0
  161.3770  209.4500  151.1180 C   0  0  0  0  0  3  0  0  0  0  0  0
  161.4610  208.5420  153.3490 N   0  0  0  0  0  0  0  0  0  0  0  0
  160.0290  212.9920  151.1940 C   0  0  0  0  0  3  0  0  0  0  0  0
  161.2600  211.9260  149.3850 C   0  0  0  0  0  0  0  0  0  0  0  0
  159.7610  214.0860  150.3780 C   0  0  0  0  0  3  0  0  0  0  0  0
  160.7830  211.9090  150.7220 C   0  0  0  0  0  0  0  0  0  0  0  0
  161.9940  210.4790  148.6790 Cl  0  0  0  0  0  0  0  0  0  0  0  0
  161.0130  213.0580  148.5710 C   0  0  0  0  0  0  0  0  0  0  0  0
  160.2520  214.1190  149.0770 C   0  0  0  0  0  3  0  0  0  0  0  0
  162.7400  213.5110  146.8890 N   0  0  0  0  0  0  0  0  0  0  0  0
  161.6930  212.6620  142.4270 N   0  0  0  0  0  1  0  0  0  0  0  0
  161.5150  213.1730  147.1880 C   0  0  0  0  0  0  0  0  0  0  0  0
  159.8870  212.2020  144.0310 C   0  0  0  0  0  3  0  0  0  0  0  0
  162.9060  213.4260  145.4560 C   0  0  0  0  0  3  0  0  0  0  0  0
  161.1180  212.6350  143.7290 C   0  0  0  0  0  0  0  0  0  0  0  0
  159.6900  212.3090  145.5090 C   0  0  0  0  0  3  0  0  0  0  0  0
  160.8220  212.8260  145.9640 C   0  0  0  0  0  0  0  0  0  0  0  0
  161.7510  213.0300  144.9550 C   0  0  0  0  0  0  0  0  0  0  0  0
  160.6200  211.2970  155.8690 C   0  0  2  0  0  3  0  0  0  0  0  0
  160.6730  211.1800  157.2600 O   0  0  0  0  0  1  0  0  0  0  0  0
  156.9570  211.1720  155.3470 C   0  0  0  0  0  3  0  0  0  0  0  0
  159.2900  211.7220  155.4530 N   0  0  0  0  0  0  0  0  0  0  0  0
  159.0810  213.0850  154.9460 C   0  0  0  0  0  2  0  0  0  0  0  0
  156.7070  212.4250  154.6210 C   0  0  0  0  0  0  0  0  0  0  0  0
  155.4580  212.6820  154.1620 F   0  0  0  0  0  0  0  0  0  0  0  0
  157.6950  213.2980  154.3950 C   0  0  0  0  0  0  0  0  0  0  0  0
  157.4340  214.4440  153.7190 F   0  0  0  0  0  0  0  0  0  0  0  0
  158.1880  210.8500  155.7340 C   0  0  0  0  0  3  0  0  0  0  0  0
  160.4230  206.7040  154.3480 O   0  0  0  0  0  1  0  0  0  0  0  0
  161.6380  207.3750  154.2100 C   0  0  0  0  0  2  0  0  0  0  0  0
  161.9080  207.1160  151.3600 N   0  0  0  0  0  2  0  0  0  0  0  0
  160.9310  206.2370  150.7350 C   0  0  0  0  0  2  0  0  0  0  0  0
  161.3660  204.7980  150.9050 C   0  0  0  0  0  2  0  0  0  0  0  0
  161.0930  204.0340  149.6230 C   0  0  0  0  0  2  0  0  0  0  0  0
  160.6670  201.7620  148.6870 C   0  0  0  0  0  1  0  0  0  0  0  0
  160.6310  202.6220  149.9360 C   0  0  0  0  0  2  0  0  0  0  0  0
  1  2  2  0  0  0  0
  2  3  1  0  0  0  0
  3  5  2  0  0  0  0
  4  7  1  0  0  0  0
  5 24  1  0  0  0  0
  6  1  1  0  0  0  0
  6  4  2  0  0  0  0
  7  3  1  0  0  0  0
  7 35  1  0  0  0  0
  9 11  2  0  0  0  0
 10  8  2  0  0  0  0
 11  8  1  0  0  0  0
 11  1  1  0  0  0  0
 12  9  1  0  0  0  0
 13 14  2  0  0  0  0
 13  9  1  0  0  0  0
 14 10  1  0  0  0  0
 15 17  1  0  0  0  0
 16 20  1  0  0  0  0
 17 13  1  0  0  0  0
 18 21  2  0  0  0  0
 19 15  2  0  0  0  0
 20 18  1  0  0  0  0
 20 23  2  0  0  0  0
 21 22  1  0  0  0  0
 22 17  2  0  0  0  0
 23 19  1  0  0  0  0
 23 22  1  0  0  0  0
 24 25  1  1  0  0  0
 26 33  2  0  0  0  0
 27 33  1  0  0  0  0
 27 24  1  0  0  0  0
 28 27  1  0  0  0  0
 29 26  1  0  0  0  0
 30 29  1  0  0  0  0
 31 29  2  0  0  0  0
 31 28  1  0  0  0  0
 32 31  1  0  0  0  0
 35 34  1  0  0  0  0
 36  4  1  0  0  0  0
 37 38  1  0  0  0  0
 37 36  1  0  0  0  0
 39 41  1  0  0  0  0
 39 38  1  0  0  0  0
 40 41  1  0  0  0  0
M  END
>  <MODEL>
8

>  <REMARK>
 VINA RESULT:      -6.9      4.291      9.647
  Name = 
  10 active torsions:
  status: ('A' for Active; 'I' for Inactive)
    1  A    between atoms: C_2  and  C_18
    2  A    between atoms: C_6  and  N_11
    3  A    between atoms: C_6  and  C_29
    4  A    between atoms: C_8  and  C_25
    5  A    between atoms: C_8  and  N_40
    6  A    between atoms: C_9  and  C_22
    7  A    between atoms: C_20  and  C_35
    8  A    between atoms: C_25  and  C_35
    9  A    between atoms: C_26  and  N_40
   10  A    between atoms: C_28  and  N_31
                            x       y       z     vdW  Elec       q    Type
                         _______ _______ _______ _____ _____    ______ ____

>  <TORSDO>
F 10

$$$$
=
 OpenBabel11042420513D

 41 45  0  0  1  0  0  0  0  0999 V2000
  161.1570  209.3160  153.7030 C   0  0  0  0  0  0  0  0  0  0  0  0
  160.3890  210.3010  153.2240 C   0  0  0  0  0  3  0  0  0  0  0  0
  160.2290  211.5620  153.9700 C   0  0  0  0  0  0  0  0  0  0  0  0
  161.6990  210.6020  155.7390 C   0  0  0  0  0  0  0  0  0  0  0  0
  159.4750  212.5550  153.4840 C   0  0  0  0  0  3  0  0  0  0  0  0
  161.8190  209.4780  155.0180 C   0  0  0  0  0  3  0  0  0  0  0  0
  160.9050  211.6970  155.2380 N   0  0  0  0  0  0  0  0  0  0  0  0
  161.2980  206.8520  153.7220 C   0  0  0  0  0  3  0  0  0  0  0  0
  161.4170  207.9600  151.5580 C   0  0  0  0  0  0  0  0  0  0  0  0
  161.4070  205.6120  153.1020 C   0  0  0  0  0  3  0  0  0  0  0  0
  161.2900  208.0360  152.9700 C   0  0  0  0  0  0  0  0  0  0  0  0
  161.6620  209.4300  150.6030 Cl  0  0  0  0  0  0  0  0  0  0  0  0
  161.4920  206.6930  150.9310 C   0  0  0  0  0  0  0  0  0  0  0  0
  161.5010  205.5340  151.7160 C   0  0  0  0  0  3  0  0  0  0  0  0
  161.9260  207.4870  148.6510 N   0  0  0  0  0  0  0  0  0  0  0  0
  161.8090  204.3490  145.2060 N   0  0  0  0  0  1  0  0  0  0  0  0
  161.5770  206.5290  149.4660 C   0  0  0  0  0  0  0  0  0  0  0  0
  161.3350  203.4590  147.4480 C   0  0  0  0  0  3  0  0  0  0  0  0
  161.9970  206.9500  147.3110 C   0  0  0  0  0  3  0  0  0  0  0  0
  161.6060  204.4680  146.6090 C   0  0  0  0  0  0  0  0  0  0  0  0
  161.2310  204.0030  148.8360 C   0  0  0  0  0  3  0  0  0  0  0  0
  161.4260  205.3080  148.7030 C   0  0  0  0  0  0  0  0  0  0  0  0
  161.6860  205.6700  147.3900 C   0  0  0  0  0  0  0  0  0  0  0  0
  158.7520  212.4880  152.1740 C   0  0  2  0  0  3  0  0  0  0  0  0
  159.4680  213.1740  151.1900 O   0  0  0  0  0  1  0  0  0  0  0  0
  155.6140  213.6090  153.7860 C   0  0  0  0  0  3  0  0  0  0  0  0
  157.4140  213.0500  152.3020 N   0  0  0  0  0  0  0  0  0  0  0  0
  156.7710  213.6830  151.1420 C   0  0  0  0  0  2  0  0  0  0  0  0
  154.8160  214.0470  152.6330 C   0  0  0  0  0  0  0  0  0  0  0  0
  153.5340  214.4410  152.8310 F   0  0  0  0  0  0  0  0  0  0  0  0
  155.3310  214.0460  151.3990 C   0  0  0  0  0  0  0  0  0  0  0  0
  154.5680  214.4520  150.3540 F   0  0  0  0  0  0  0  0  0  0  0  0
  156.8450  213.1360  153.6140 C   0  0  0  0  0  3  0  0  0  0  0  0
  159.4600  212.9340  156.5920 O   0  0  0  0  0  1  0  0  0  0  0  0
  160.7460  212.9000  156.0500 C   0  0  0  0  0  2  0  0  0  0  0  0
  162.3560  210.7200  157.0070 N   0  0  0  0  0  2  0  0  0  0  0  0
  163.7950  210.5890  157.1800 C   0  0  0  0  0  2  0  0  0  0  0  0
  164.4290  211.9630  157.1810 C   0  0  0  0  0  2  0  0  0  0  0  0
  165.9240  211.8290  156.9630 C   0  0  0  0  0  2  0  0  0  0  0  0
  167.3780  213.8320  157.2610 C   0  0  0  0  0  1  0  0  0  0  0  0
  166.4780  213.0780  156.3010 C   0  0  0  0  0  2  0  0  0  0  0  0
  1  6  1  0  0  0  0
  2  1  2  0  0  0  0
  2  3  1  0  0  0  0
  3  7  1  0  0  0  0
  4 36  1  0  0  0  0
  5  3  2  0  0  0  0
  6  4  2  0  0  0  0
  7  4  1  0  0  0  0
  7 35  1  0  0  0  0
  9 11  1  0  0  0  0
 10  8  1  0  0  0  0
 11  1  1  0  0  0  0
 11  8  2  0  0  0  0
 12  9  1  0  0  0  0
 13  9  2  0  0  0  0
 13 14  1  0  0  0  0
 14 10  2  0  0  0  0
 15 17  1  0  0  0  0
 16 20  1  0  0  0  0
 17 13  1  0  0  0  0
 18 21  2  0  0  0  0
 19 23  1  0  0  0  0
 19 15  2  0  0  0  0
 20 23  2  0  0  0  0
 20 18  1  0  0  0  0
 22 21  1  0  0  0  0
 22 17  2  0  0  0  0
 23 22  1  0  0  0  0
 24 25  1  6  0  0  0
 24 27  1  0  0  0  0
 24  5  1  0  0  0  0
 27 33  1  0  0  0  0
 28 31  1  0  0  0  0
 28 27  1  0  0  0  0
 29 30  1  0  0  0  0
 29 26  1  0  0  0  0
 31 29  2  0  0  0  0
 32 31  1  0  0  0  0
 33 26  2  0  0  0  0
 35 34  1  0  0  0  0
 36 37  1  0  0  0  0
 37 38  1  0  0  0  0
 39 38  1  0  0  0  0
 41 39  1  0  0  0  0
 41 40  1  0  0  0  0
M  END
>  <MODEL>
9

>  <REMARK>
 VINA RESULT:      -6.7      4.989      9.914
  Name = 
  10 active torsions:
  status: ('A' for Active; 'I' for Inactive)
    1  A    between atoms: C_2  and  C_18
    2  A    between atoms: C_6  and  N_11
    3  A    between atoms: C_6  and  C_29
    4  A    between atoms: C_8  and  C_25
    5  A    between atoms: C_8  and  N_40
    6  A    between atoms: C_9  and  C_22
    7  A    between atoms: C_20  and  C_35
    8  A    between atoms: C_25  and  C_35
    9  A    between atoms: C_26  and  N_40
   10  A    between atoms: C_28  and  N_31
                            x       y       z     vdW  Elec       q    Type
                         _______ _______ _______ _____ _____    ______ ____

>  <TORSDO>
F 10

$$$$
