=
 OpenBabel11042422563D

 62 69  0  0  1  0  0  0  0  0999 V2000
  160.7800  210.3590  145.4460 C   0  0  0  0  0  3  0  0  0  0  0  0
  157.1820  213.4180  147.5570 N   0  0  0  0  0  2  0  0  0  0  0  0
  159.0310  213.2550  143.8880 C   0  0  0  0  0  0  0  0  0  0  0  0
  160.5390  210.5500  146.8310 C   0  0  0  0  0  0  0  0  0  0  0  0
  161.8120  209.0730  148.6710 C   0  0  0  0  0  3  0  0  0  0  0  0
  158.2690  214.2780  144.3120 N   0  0  0  0  0  0  0  0  0  0  0  0
  157.9010  214.4480  145.6410 N   0  0  0  0  0  0  0  0  0  0  0  0
  159.0310  212.3490  146.1900 C   0  0  2  0  0  3  0  0  0  0  0  0
  159.8100  212.5640  144.9530 C   0  0  1  0  0  3  0  0  0  0  0  0
  158.1620  213.5720  146.5630 C   0  0  0  0  0  0  0  0  0  0  0  0
  159.8100  211.7740  147.2860 C   0  0  0  0  0  2  0  0  0  0  0  0
  158.9600  212.7830  142.5340 N   0  0  0  0  0  2  0  0  0  0  0  0
  160.4180  211.3100  144.6170 N   0  0  0  0  0  0  0  0  0  0  0  0
  161.1130  209.7010  147.7390 C   0  0  0  0  0  0  0  0  0  0  0  0
  161.0030  213.3090  139.4530 C   0  0  0  0  0  0  0  0  0  0  0  0
  161.3450  214.2350  137.2150 C   0  0  0  0  0  1  0  0  0  0  0  0
  159.1270  213.9270  138.0490 C   0  0  0  0  0  3  0  0  0  0  0  0
  158.0410  213.3160  140.2450 C   0  0  0  0  0  3  0  0  0  0  0  0
  158.0430  213.5130  138.9320 C   0  0  0  0  0  3  0  0  0  0  0  0
  162.3550  213.0660  139.5910 N   0  0  0  0  0  0  0  0  0  0  0  0
  159.1450  213.4800  141.2130 C   0  0  2  0  0  3  0  0  0  0  0  0
  160.4470  213.0600  140.7070 N   0  0  0  0  0  0  0  0  0  0  0  0
  160.4160  213.8660  138.2750 C   0  0  0  0  0  0  0  0  0  0  0  0
  161.3540  212.6740  141.5520 N   0  0  0  0  0  0  0  0  0  0  0  0
  162.5130  212.6800  140.8750 C   0  0  0  0  0  3  0  0  0  0  0  0
  162.0440  207.7460  149.4520 C   0  0  0  0  0  0  0  0  0  0  0  0
  163.2000  207.2950  149.2170 O   0  0  0  0  0  0  0  0  0  0  0  0
  161.1220  206.9910  150.3180 N   0  0  0  0  0  2  0  0  0  0  0  0
  160.4540  203.3900  150.3240 C   0  0  0  0  0  0  0  0  0  0  0  0
  161.6890  203.5290  147.7060 C   0  0  0  0  0  3  0  0  0  0  0  0
  160.7680  201.2410  147.1750 C   0  0  0  0  0  1  0  0  0  0  0  0
  161.5020  205.6430  150.9670 C   0  0  2  0  0  0  0  0  0  0  0  0
  161.3740  202.1590  148.2850 C   0  0  2  0  0  3  0  0  0  0  0  0
  160.4010  202.2880  149.4260 C   0  0  0  0  0  0  0  0  0  0  0  0
  159.7580  201.2910  149.7920 O   0  0  0  0  0  0  0  0  0  0  0  0
  160.2530  204.0610  152.6210 C   0  0  0  0  0  3  0  0  0  0  0  0
  161.5290  204.6200  148.5280 C   0  0  0  0  0  3  0  0  0  0  0  0
  161.0960  204.5450  149.9720 C   0  0  0  0  0  0  0  0  0  0  0  0
  160.6270  205.4530  152.2490 C   0  0  0  0  0  2  0  0  0  0  0  0
  160.0720  203.0830  151.7360 C   0  0  0  0  0  3  0  0  0  0  0  0
  163.4240  204.4210  151.6260 O   0  0  0  0  0  0  0  0  0  0  0  0
  162.9770  205.5940  151.3630 C   0  0  0  0  0  0  0  0  0  0  0  0
  163.6600  206.6590  151.9420 O   0  0  0  0  0  1  0  0  0  0  0  0
  156.7100  214.4520  148.4380 C   0  0  0  0  0  2  0  0  0  0  0  0
  155.4050  214.0150  149.1870 C   0  0  0  0  0  2  0  0  0  0  0  0
  157.0960  213.3420  150.9800 N   0  0  0  0  0  2  0  0  0  0  0  0
  155.1110  214.4490  151.4460 O   0  0  0  0  0  0  0  0  0  0  0  0
  155.8450  213.9520  150.6120 C   0  0  0  0  0  0  0  0  0  0  0  0
  159.5380  212.2730  151.5190 O   0  0  0  0  0  1  0  0  0  0  0  0
  159.2220  214.0230  154.6940 O   0  0  0  0  0  1  0  0  0  0  0  0
  159.5900  213.0650  153.7450 C   0  0  1  0  0  3  0  0  0  0  0  0
  157.0620  211.7510  152.9430 C   0  0  0  0  0  2  0  0  0  0  0  0
  157.6750  211.5300  154.3660 C   0  0  0  0  0  2  0  0  0  0  0  0
  157.5050  213.1430  152.3680 C   0  0  1  0  0  3  0  0  0  0  0  0
  159.1890  211.7000  154.2550 C   0  0  2  0  0  3  0  0  0  0  0  0
  159.0240  213.2520  152.3570 C   0  0  2  0  0  3  0  0  0  0  0  0
  160.0410  211.1960  155.3640 N   0  0  1  0  0  0  0  0  0  0  0  0
  159.4240  210.1900  156.0560 O   0  0  0  0  0  0  0  0  0  0  0  0
  162.2920  210.7790  156.3600 C   0  0  0  0  0  2  0  0  0  0  0  0
  161.4970  211.0870  155.1110 C   0  0  0  0  0  2  0  0  0  0  0  0
  161.4840  209.7750  157.2600 C   0  0  0  0  0  2  0  0  0  0  0  0
  160.3680  209.2070  156.4540 C   0  0  0  0  0  2  0  0  0  0  0  0
  1  4  1  0  0  0  0
  2 44  1  0  0  0  0
  3  6  2  0  0  0  0
  4 11  1  0  0  0  0
  4 14  2  0  0  0  0
  5 26  1  0  0  0  0
  6  7  1  0  0  0  0
  7 10  2  0  0  0  0
  8 10  1  0  0  0  0
  8 11  1  1  0  0  0
  9  3  1  6  0  0  0
  9  8  1  0  0  0  0
 10  2  1  0  0  0  0
 12  3  1  0  0  0  0
 13  9  1  0  0  0  0
 13  1  2  0  0  0  0
 14  5  2  0  0  0  0
 15 20  2  0  0  0  0
 15 22  1  0  0  0  0
 16 23  1  0  0  0  0
 17 23  2  0  0  0  0
 17 19  1  0  0  0  0
 18 21  1  0  0  0  0
 19 18  2  0  0  0  0
 20 25  1  0  0  0  0
 21 12  1  1  0  0  0
 22 21  1  0  0  0  0
 22 24  1  0  0  0  0
 23 15  1  0  0  0  0
 25 24  2  0  0  0  0
 26 28  1  0  0  0  0
 27 26  2  0  0  0  0
 29 40  1  0  0  0  0
 30 33  1  0  0  0  0
 30 37  2  0  0  0  0
 32 28  1  6  0  0  0
 32 42  1  0  0  0  0
 32 39  1  0  0  0  0
 33 31  1  6  0  0  0
 33 34  1  0  0  0  0
 34 35  2  0  0  0  0
 34 29  1  0  0  0  0
 37 38  1  0  0  0  0
 38 29  2  0  0  0  0
 38 32  1  0  0  0  0
 39 36  1  0  0  0  0
 40 36  2  0  0  0  0
 42 41  2  0  0  0  0
 42 43  1  0  0  0  0
 44 45  1  0  0  0  0
 45 48  1  0  0  0  0
 48 46  1  0  0  0  0
 48 47  2  0  0  0  0
 51 55  1  0  0  0  0
 51 50  1  1  0  0  0
 52 53  1  0  0  0  0
 54 46  1  6  0  0  0
 54 52  1  0  0  0  0
 55 53  1  1  0  0  0
 55 57  1  0  0  0  0
 56 49  1  6  0  0  0
 56 54  1  0  0  0  0
 56 51  1  0  0  0  0
 57 60  1  6  0  0  0
 57 58  1  0  0  0  0
 58 62  1  0  0  0  0
 59 61  1  0  0  0  0
 60 59  1  0  0  0  0
 62 61  1  0  0  0  0
M  END
>  <MODEL>
1

>  <REMARK>
 VINA RESULT:       3.7      0.000      0.000
  Name = 
  9 active torsions:
  status: ('A' for Active; 'I' for Inactive)
    1  A    between atoms: N_5  and  C_51
    2  A    between atoms: C_7  and  N_33
    3  A    between atoms: C_7  and  C_52
    4  A    between atoms: C_10  and  C_18
    5  A    between atoms: N_16  and  C_41
    6  A    between atoms: N_21  and  C_50
    7  A    between atoms: N_43  and  C_56
    8  A    between atoms: C_49  and  C_53
    9  A    between atoms: C_51  and  C_53
                            x       y       z     vdW  Elec       q    Type
                         _______ _______ _______ _____ _____    ______ ____

>  <TORSDO>
F 9

$$$$
