=
 OpenBabel11052412143D

 41 45  0  0  1  0  0  0  0  0999 V2000
  159.7850  211.8120  153.8550 C   0  0  1  0  0  3  0  0  0  0  0  0
  157.7540  211.5600  155.3640 N   0  0  0  0  0  0  0  0  0  0  0  0
  159.2610  212.8410  151.5760 C   0  0  0  0  0  0  0  0  0  0  0  0
  159.6880  210.2260  155.7620 C   0  0  0  0  0  0  0  0  0  0  0  0
  161.7770  210.0640  152.1440 N   0  0  0  0  0  0  0  0  0  0  0  0
  158.3750  210.7080  156.0810 N   0  0  0  0  0  0  0  0  0  0  0  0
  158.1180  213.3320  152.0810 C   0  0  0  0  0  3  0  0  0  0  0  0
  157.5940  212.8670  153.3760 C   0  0  0  0  0  3  0  0  0  0  0  0
  160.8700  211.0610  151.6590 C   0  0  0  0  0  3  0  0  0  0  0  0
  161.7920  210.3810  154.5670 C   0  0  0  0  0  3  0  0  0  0  0  0
  160.3640  210.6910  154.6870 C   0  0  0  0  0  0  0  0  0  0  0  0
  160.0310  211.8400  152.3540 C   0  0  0  0  0  0  0  0  0  0  0  0
  158.3330  212.0940  154.1750 C   0  0  0  0  0  0  0  0  0  0  0  0
  160.2870  209.2070  156.6800 C   0  0  0  0  0  1  0  0  0  0  0  0
  162.4170  210.1180  153.4290 C   0  0  0  0  0  3  0  0  0  0  0  0
  161.9850  209.6660  149.7350 C   0  0  0  0  0  0  0  0  0  0  0  0
  162.1610  206.6880  151.9330 C   0  0  0  0  0  2  0  0  0  0  0  0
  162.3360  209.2000  151.0980 C   0  0  2  0  0  3  0  0  0  0  0  0
  161.1010  207.5110  149.7230 N   0  0  0  0  0  0  0  0  0  0  0  0
  160.8190  207.3590  152.2000 C   0  0  0  0  0  2  0  0  0  0  0  0
  161.6800  207.8180  151.0410 C   0  0  0  0  0  0  0  0  0  0  0  0
  161.2710  208.7020  149.0420 O   0  0  0  0  0  0  0  0  0  0  0  0
  162.3280  210.8340  149.2150 C   0  0  0  0  0  2  0  0  0  0  0  0
  161.9450  206.5330  149.0410 C   0  0  0  0  0  2  0  0  0  0  0  0
  161.0940  205.5860  148.2120 C   0  0  0  0  0  2  0  0  0  0  0  0
  161.3770  204.1440  148.5930 C   0  0  0  0  0  2  0  0  0  0  0  0
  160.7770  203.8530  149.9540 C   0  0  0  0  0  2  0  0  0  0  0  0
  160.5870  201.6260  148.8630 C   0  0  0  0  0  1  0  0  0  0  0  0
  160.7140  202.3560  150.1870 C   0  0  0  0  0  2  0  0  0  0  0  0
  159.7290  213.2490  150.3170 O   0  0  0  0  0  0  0  0  0  0  0  0
  158.9930  214.0840  149.4310 C   0  0  0  0  0  2  0  0  0  0  0  0
  159.7190  214.2280  148.0990 C   0  0  0  0  0  2  0  0  0  0  0  0
  159.3840  213.1180  147.2160 N   0  0  0  0  0  2  0  0  0  0  0  0
  159.9300  212.9690  145.9010 C   0  0  0  0  0  0  0  0  0  0  0  0
  159.6530  211.9410  145.2310 O   0  0  0  0  0  0  0  0  0  0  0  0
  160.7940  214.0270  145.2950 C   0  0  0  0  0  2  0  0  0  0  0  0
  162.8020  213.1220  146.3620 C   0  0  0  0  0  2  0  0  0  0  0  0
  162.2240  213.5870  145.2560 C   0  0  0  0  0  0  0  0  0  0  0  0
  162.9810  213.5760  143.9640 C   0  0  0  0  0  2  0  0  0  0  0  0
  161.9850  212.9290  141.8070 C   0  0  0  0  0  2  0  0  0  0  0  0
  162.4190  212.5650  143.0130 C   0  0  0  0  0  3  0  0  0  0  0  0
  1 12  1  6  0  0  0
  1 13  1  0  0  0  0
  1 11  1  0  0  0  0
  2  6  2  0  0  0  0
  3  7  2  0  0  0  0
  3 12  1  0  0  0  0
  4  6  1  0  0  0  0
  4 14  1  0  0  0  0
  5 15  1  0  0  0  0
  7  8  1  0  0  0  0
  8 13  2  0  0  0  0
  9  5  1  0  0  0  0
  9 12  2  0  0  0  0
 10 11  1  0  0  0  0
 11  4  2  0  0  0  0
 13  2  1  0  0  0  0
 15 10  2  0  0  0  0
 16 18  1  0  0  0  0
 17 20  1  0  0  0  0
 18  5  1  1  0  0  0
 19 21  1  0  0  0  0
 21 18  1  0  0  0  0
 21 17  1  0  0  0  0
 21 20  1  0  0  0  0
 22 19  1  0  0  0  0
 22 16  1  0  0  0  0
 23 16  2  0  0  0  0
 24 19  1  0  0  0  0
 25 26  1  0  0  0  0
 25 24  1  0  0  0  0
 26 27  1  0  0  0  0
 27 29  1  0  0  0  0
 28 29  1  0  0  0  0
 30  3  1  0  0  0  0
 31 30  1  0  0  0  0
 32 31  1  0  0  0  0
 33 32  1  0  0  0  0
 34 33  1  0  0  0  0
 35 34  2  0  0  0  0
 36 34  1  0  0  0  0
 38 36  1  0  0  0  0
 38 37  2  0  0  0  0
 39 38  1  0  0  0  0
 40 41  2  0  0  0  0
 41 39  1  0  0  0  0
M  END
>  <MODEL>
1

>  <REMARK>
 VINA RESULT:      -7.0      0.000      0.000
  Name = 
  14 active torsions:
  status: ('A' for Active; 'I' for Inactive)
    1  A    between atoms: C_6  and  N_15
    2  A    between atoms: C_7  and  O_16
    3  A    between atoms: N_8  and  C_13
    4  A    between atoms: C_10  and  O_16
    5  A    between atoms: C_10  and  C_27
    6  A    between atoms: C_13  and  C_32
    7  A    between atoms: N_14  and  C_27
    8  A    between atoms: C_17  and  C_20
    9  A    between atoms: C_17  and  C_23
   10  A    between atoms: C_20  and  C_22
   11  A    between atoms: C_21  and  C_32
   12  A    between atoms: C_21  and  C_33
   13  A    between atoms: C_23  and  C_40
   14  A    between atoms: C_33  and  C_39
                            x       y       z     vdW  Elec       q    Type
                         _______ _______ _______ _____ _____    ______ ____

>  <TORSDO>
F 14

$$$$
=
 OpenBabel11052412143D

 41 45  0  0  1  0  0  0  0  0999 V2000
  161.1530  209.1900  153.8090 C   0  0  1  0  0  3  0  0  0  0  0  0
  159.9040  210.4470  155.6320 N   0  0  0  0  0  0  0  0  0  0  0  0
  161.1100  210.3500  151.5330 C   0  0  0  0  0  0  0  0  0  0  0  0
  160.3090  208.1120  155.8800 C   0  0  0  0  0  0  0  0  0  0  0  0
  160.8970  206.5980  152.0280 N   0  0  0  0  0  0  0  0  0  0  0  0
  159.8410  209.3890  156.3390 N   0  0  0  0  0  0  0  0  0  0  0  0
  160.7970  211.5020  152.1470 C   0  0  0  0  0  3  0  0  0  0  0  0
  160.3600  211.5240  153.5530 C   0  0  0  0  0  3  0  0  0  0  0  0
  160.9170  207.9570  151.5750 C   0  0  0  0  0  3  0  0  0  0  0  0
  161.5960  206.7240  154.3660 C   0  0  0  0  0  3  0  0  0  0  0  0
  160.8900  207.9730  154.6670 C   0  0  0  0  0  0  0  0  0  0  0  0
  161.0510  209.0780  152.2950 C   0  0  0  0  0  0  0  0  0  0  0  0
  160.4480  210.4300  154.3140 C   0  0  0  0  0  0  0  0  0  0  0  0
  160.1490  206.9490  156.8080 C   0  0  0  0  0  1  0  0  0  0  0  0
  161.6080  206.1260  153.1830 C   0  0  0  0  0  3  0  0  0  0  0  0
  160.8650  204.2480  151.3340 C   0  0  0  0  0  0  0  0  0  0  0  0
  160.6860  206.7800  148.6360 C   0  0  0  0  0  2  0  0  0  0  0  0
  160.4480  205.6350  151.0160 C   0  0  2  0  0  3  0  0  0  0  0  0
  161.8490  204.5530  149.2460 N   0  0  0  0  0  0  0  0  0  0  0  0
  161.9750  207.0420  149.4060 C   0  0  0  0  0  2  0  0  0  0  0  0
  161.1710  205.7860  149.6750 C   0  0  0  0  0  0  0  0  0  0  0  0
  161.6680  203.7220  150.3350 O   0  0  0  0  0  0  0  0  0  0  0  0
  160.5030  203.5690  152.4120 C   0  0  0  0  0  2  0  0  0  0  0  0
  161.0980  203.9470  148.1480 C   0  0  0  0  0  2  0  0  0  0  0  0
  162.0130  203.6790  146.9650 C   0  0  0  0  0  2  0  0  0  0  0  0
  162.6580  204.9680  146.4880 C   0  0  0  0  0  2  0  0  0  0  0  0
  162.5570  205.0570  144.9780 C   0  0  0  0  0  2  0  0  0  0  0  0
  160.3210  206.1430  145.0760 C   0  0  0  0  0  1  0  0  0  0  0  0
  161.1070  204.9590  144.5450 C   0  0  0  0  0  2  0  0  0  0  0  0
  161.4770  210.3290  150.1780 O   0  0  0  0  0  0  0  0  0  0  0  0
  162.2720  211.3330  149.5580 C   0  0  0  0  0  2  0  0  0  0  0  0
  161.5110  211.9920  148.4150 C   0  0  0  0  0  2  0  0  0  0  0  0
  160.4820  212.8830  148.9360 N   0  0  0  0  0  2  0  0  0  0  0  0
  159.7140  213.7630  148.1100 C   0  0  0  0  0  0  0  0  0  0  0  0
  158.7890  214.4430  148.6260 O   0  0  0  0  0  0  0  0  0  0  0  0
  160.0100  213.9170  146.6530 C   0  0  0  0  0  2  0  0  0  0  0  0
  157.8780  213.0050  145.8690 C   0  0  0  0  0  2  0  0  0  0  0  0
  159.2090  212.9470  145.8430 C   0  0  0  0  0  0  0  0  0  0  0  0
  159.8900  211.9720  144.9320 C   0  0  0  0  0  2  0  0  0  0  0  0
  160.3550  211.6870  142.5310 C   0  0  0  0  0  2  0  0  0  0  0  0
  159.8170  212.4200  143.5050 C   0  0  0  0  0  3  0  0  0  0  0  0
  1 12  1  6  0  0  0
  1 13  1  0  0  0  0
  1 11  1  0  0  0  0
  2  6  2  0  0  0  0
  3  7  2  0  0  0  0
  3 12  1  0  0  0  0
  4  6  1  0  0  0  0
  4 14  1  0  0  0  0
  5 15  1  0  0  0  0
  7  8  1  0  0  0  0
  8 13  2  0  0  0  0
  9  5  1  0  0  0  0
  9 12  2  0  0  0  0
 10 11  1  0  0  0  0
 11  4  2  0  0  0  0
 13  2  1  0  0  0  0
 15 10  2  0  0  0  0
 16 23  2  0  0  0  0
 17 20  1  0  0  0  0
 17 21  1  0  0  0  0
 18 16  1  0  0  0  0
 18  5  1  1  0  0  0
 19 21  1  0  0  0  0
 19 22  1  0  0  0  0
 20 21  1  0  0  0  0
 21 18  1  0  0  0  0
 22 16  1  0  0  0  0
 24 19  1  0  0  0  0
 25 24  1  0  0  0  0
 26 25  1  0  0  0  0
 27 26  1  0  0  0  0
 29 27  1  0  0  0  0
 29 28  1  0  0  0  0
 30  3  1  0  0  0  0
 31 30  1  0  0  0  0
 32 33  1  0  0  0  0
 32 31  1  0  0  0  0
 34 35  2  0  0  0  0
 34 33  1  0  0  0  0
 36 34  1  0  0  0  0
 38 37  2  0  0  0  0
 38 36  1  0  0  0  0
 39 38  1  0  0  0  0
 40 41  2  0  0  0  0
 41 39  1  0  0  0  0
M  END
>  <MODEL>
2

>  <REMARK>
 VINA RESULT:      -6.0      2.074      3.719
  Name = 
  14 active torsions:
  status: ('A' for Active; 'I' for Inactive)
    1  A    between atoms: C_6  and  N_15
    2  A    between atoms: C_7  and  O_16
    3  A    between atoms: N_8  and  C_13
    4  A    between atoms: C_10  and  O_16
    5  A    between atoms: C_10  and  C_27
    6  A    between atoms: C_13  and  C_32
    7  A    between atoms: N_14  and  C_27
    8  A    between atoms: C_17  and  C_20
    9  A    between atoms: C_17  and  C_23
   10  A    between atoms: C_20  and  C_22
   11  A    between atoms: C_21  and  C_32
   12  A    between atoms: C_21  and  C_33
   13  A    between atoms: C_23  and  C_40
   14  A    between atoms: C_33  and  C_39
                            x       y       z     vdW  Elec       q    Type
                         _______ _______ _______ _____ _____    ______ ____

>  <TORSDO>
F 14

$$$$
=
 OpenBabel11052412143D

 41 45  0  0  1  0  0  0  0  0999 V2000
  160.3440  212.3090  152.0400 C   0  0  1  0  0  3  0  0  0  0  0  0
  158.0730  213.2730  152.6530 N   0  0  0  0  0  0  0  0  0  0  0  0
  160.9360  212.5450  149.5650 C   0  0  0  0  0  0  0  0  0  0  0  0
  159.0800  211.6420  154.0690 C   0  0  0  0  0  0  0  0  0  0  0  0
  161.7930  209.5280  151.6930 N   0  0  0  0  0  0  0  0  0  0  0  0
  158.0590  212.5930  153.7310 N   0  0  0  0  0  0  0  0  0  0  0  0
  160.0170  213.5180  149.4570 C   0  0  0  0  0  3  0  0  0  0  0  0
  159.0190  213.7460  150.5160 C   0  0  0  0  0  3  0  0  0  0  0  0
  161.5580  210.5100  150.6770 C   0  0  0  0  0  3  0  0  0  0  0  0
  161.2880  210.6840  153.7860 C   0  0  0  0  0  3  0  0  0  0  0  0
  160.1500  211.4470  153.2660 C   0  0  0  0  0  0  0  0  0  0  0  0
  160.9730  211.7090  150.7900 C   0  0  0  0  0  0  0  0  0  0  0  0
  159.1190  213.1280  151.6950 C   0  0  0  0  0  0  0  0  0  0  0  0
  158.9230  210.8950  155.3560 C   0  0  0  0  0  1  0  0  0  0  0  0
  162.0260  209.8430  153.0750 C   0  0  0  0  0  3  0  0  0  0  0  0
  161.7330  207.9890  149.7870 C   0  0  0  0  0  0  0  0  0  0  0  0
  161.9680  206.4580  153.1520 C   0  0  0  0  0  2  0  0  0  0  0  0
  162.1950  208.2150  151.1770 C   0  0  2  0  0  3  0  0  0  0  0  0
  160.7360  206.2000  150.8940 N   0  0  0  0  0  0  0  0  0  0  0  0
  160.6990  207.3010  153.1350 C   0  0  0  0  0  2  0  0  0  0  0  0
  161.4620  207.0510  151.8500 C   0  0  0  0  0  0  0  0  0  0  0  0
  160.9010  206.8850  149.7050 O   0  0  0  0  0  0  0  0  0  0  0  0
  162.0850  208.7170  148.7380 C   0  0  0  0  0  2  0  0  0  0  0  0
  161.4520  204.9360  150.7330 C   0  0  0  0  0  2  0  0  0  0  0  0
  160.4960  203.7640  150.8810 C   0  0  0  0  0  2  0  0  0  0  0  0
  161.2520  202.4490  150.8140 C   0  0  0  0  0  2  0  0  0  0  0  0
  160.4170  201.4210  150.0770 C   0  0  0  0  0  2  0  0  0  0  0  0
  161.1770  202.1550  147.8260 C   0  0  0  0  0  1  0  0  0  0  0  0
  161.1180  200.9950  148.8020 C   0  0  0  0  0  2  0  0  0  0  0  0
  161.8520  212.2980  148.5310 O   0  0  0  0  0  0  0  0  0  0  0  0
  162.6380  213.3100  147.9110 C   0  0  0  0  0  2  0  0  0  0  0  0
  162.6390  213.1380  146.3980 C   0  0  0  0  0  2  0  0  0  0  0  0
  161.2850  213.2550  145.8720 N   0  0  0  0  0  2  0  0  0  0  0  0
  160.9500  213.0050  144.5030 C   0  0  0  0  0  0  0  0  0  0  0  0
  159.7440  213.0500  144.1440 O   0  0  0  0  0  0  0  0  0  0  0  0
  162.0060  212.7260  143.4830 C   0  0  0  0  0  2  0  0  0  0  0  0
  161.3580  213.6650  141.3180 C   0  0  0  0  0  2  0  0  0  0  0  0
  161.4070  212.6010  142.1180 C   0  0  0  0  0  0  0  0  0  0  0  0
  160.9450  211.2700  141.6100 C   0  0  0  0  0  2  0  0  0  0  0  0
  161.6760  209.6780  139.8800 C   0  0  0  0  0  2  0  0  0  0  0  0
  161.5820  210.9400  140.2950 C   0  0  0  0  0  3  0  0  0  0  0  0
  1 12  1  6  0  0  0
  1 11  1  0  0  0  0
  2  6  2  0  0  0  0
  3 12  1  0  0  0  0
  4 14  1  0  0  0  0
  5 15  1  0  0  0  0
  6  4  1  0  0  0  0
  7  3  2  0  0  0  0
  7  8  1  0  0  0  0
  8 13  2  0  0  0  0
  9 12  2  0  0  0  0
  9  5  1  0  0  0  0
 11 10  1  0  0  0  0
 11  4  2  0  0  0  0
 13  1  1  0  0  0  0
 13  2  1  0  0  0  0
 15 10  2  0  0  0  0
 16 18  1  0  0  0  0
 18  5  1  1  0  0  0
 18 21  1  0  0  0  0
 19 21  1  0  0  0  0
 20 17  1  0  0  0  0
 21 20  1  0  0  0  0
 21 17  1  0  0  0  0
 22 16  1  0  0  0  0
 22 19  1  0  0  0  0
 23 16  2  0  0  0  0
 24 25  1  0  0  0  0
 24 19  1  0  0  0  0
 26 25  1  0  0  0  0
 27 26  1  0  0  0  0
 28 29  1  0  0  0  0
 29 27  1  0  0  0  0
 30  3  1  0  0  0  0
 31 30  1  0  0  0  0
 32 31  1  0  0  0  0
 33 32  1  0  0  0  0
 34 33  1  0  0  0  0
 35 34  2  0  0  0  0
 36 34  1  0  0  0  0
 37 38  2  0  0  0  0
 38 36  1  0  0  0  0
 39 38  1  0  0  0  0
 40 41  2  0  0  0  0
 41 39  1  0  0  0  0
M  END
>  <MODEL>
3

>  <REMARK>
 VINA RESULT:      -6.0      1.549      2.569
  Name = 
  14 active torsions:
  status: ('A' for Active; 'I' for Inactive)
    1  A    between atoms: C_6  and  N_15
    2  A    between atoms: C_7  and  O_16
    3  A    between atoms: N_8  and  C_13
    4  A    between atoms: C_10  and  O_16
    5  A    between atoms: C_10  and  C_27
    6  A    between atoms: C_13  and  C_32
    7  A    between atoms: N_14  and  C_27
    8  A    between atoms: C_17  and  C_20
    9  A    between atoms: C_17  and  C_23
   10  A    between atoms: C_20  and  C_22
   11  A    between atoms: C_21  and  C_32
   12  A    between atoms: C_21  and  C_33
   13  A    between atoms: C_23  and  C_40
   14  A    between atoms: C_33  and  C_39
                            x       y       z     vdW  Elec       q    Type
                         _______ _______ _______ _____ _____    ______ ____

>  <TORSDO>
F 14

$$$$
=
 OpenBabel11052412143D

 41 45  0  0  1  0  0  0  0  0999 V2000
  161.0330  209.4770  153.5000 C   0  0  1  0  0  3  0  0  0  0  0  0
  159.0680  210.3470  154.8570 N   0  0  0  0  0  0  0  0  0  0  0  0
  161.3030  210.6070  151.2240 C   0  0  0  0  0  0  0  0  0  0  0  0
  159.9720  208.1970  155.3430 C   0  0  0  0  0  0  0  0  0  0  0  0
  161.9280  206.9260  151.8740 N   0  0  0  0  0  0  0  0  0  0  0  0
  159.0900  209.3020  155.5870 N   0  0  0  0  0  0  0  0  0  0  0  0
  160.5560  211.6320  151.6660 C   0  0  0  0  0  3  0  0  0  0  0  0
  159.7700  211.5250  152.9070 C   0  0  0  0  0  3  0  0  0  0  0  0
  161.7220  208.2470  151.3600 C   0  0  0  0  0  3  0  0  0  0  0  0
  161.9250  207.2080  154.3010 C   0  0  0  0  0  3  0  0  0  0  0  0
  160.8700  208.2260  154.3330 C   0  0  0  0  0  0  0  0  0  0  0  0
  161.3700  209.3570  152.0210 C   0  0  0  0  0  0  0  0  0  0  0  0
  159.9290  210.4850  153.7290 C   0  0  0  0  0  0  0  0  0  0  0  0
  159.8730  207.0230  156.2670 C   0  0  0  0  0  1  0  0  0  0  0  0
  162.4020  206.6450  153.2010 C   0  0  0  0  0  3  0  0  0  0  0  0
  161.4420  206.3220  149.5490 C   0  0  0  0  0  0  0  0  0  0  0  0
  161.5750  203.5420  151.9950 C   0  0  0  0  0  2  0  0  0  0  0  0
  162.0260  205.8880  150.8410 C   0  0  2  0  0  3  0  0  0  0  0  0
  160.1780  204.4210  150.0050 N   0  0  0  0  0  0  0  0  0  0  0  0
  160.5020  204.5100  152.4790 C   0  0  0  0  0  2  0  0  0  0  0  0
  161.1170  204.6840  151.1060 C   0  0  0  0  0  0  0  0  0  0  0  0
  160.4020  205.4930  149.1630 O   0  0  0  0  0  0  0  0  0  0  0  0
  161.8670  207.3460  148.8250 C   0  0  0  0  0  2  0  0  0  0  0  0
  160.6140  203.2340  149.2720 C   0  0  0  0  0  2  0  0  0  0  0  0
  161.3740  203.6370  148.0180 C   0  0  0  0  0  2  0  0  0  0  0  0
  161.1310  202.6350  146.9040 C   0  0  0  0  0  2  0  0  0  0  0  0
  161.3570  203.3040  145.5620 C   0  0  0  0  0  2  0  0  0  0  0  0
  161.0250  205.5480  144.5420 C   0  0  0  0  0  1  0  0  0  0  0  0
  161.5550  204.7950  145.7490 C   0  0  0  0  0  2  0  0  0  0  0  0
  162.0100  210.6960  150.0150 O   0  0  0  0  0  0  0  0  0  0  0  0
  162.1570  211.9000  149.2700 C   0  0  0  0  0  2  0  0  0  0  0  0
  161.3330  211.8440  147.9910 C   0  0  0  0  0  2  0  0  0  0  0  0
  162.0250  212.5360  146.9100 N   0  0  0  0  0  2  0  0  0  0  0  0
  161.4470  213.6160  146.1720 C   0  0  0  0  0  0  0  0  0  0  0  0
  162.1400  214.2130  145.3070 O   0  0  0  0  0  0  0  0  0  0  0  0
  160.0260  214.0280  146.3820 C   0  0  0  0  0  2  0  0  0  0  0  0
  159.5840  212.3470  144.6600 C   0  0  0  0  0  2  0  0  0  0  0  0
  159.0980  213.1490  145.6050 C   0  0  0  0  0  0  0  0  0  0  0  0
  157.6400  213.0950  145.9450 C   0  0  0  0  0  2  0  0  0  0  0  0
  157.0620  213.2010  148.3360 C   0  0  0  0  0  2  0  0  0  0  0  0
  157.4160  212.4640  147.2840 C   0  0  0  0  0  3  0  0  0  0  0  0
  1 12  1  6  0  0  0
  1 13  1  0  0  0  0
  1 11  1  0  0  0  0
  2  6  2  0  0  0  0
  3  7  2  0  0  0  0
  3 12  1  0  0  0  0
  4  6  1  0  0  0  0
  4 14  1  0  0  0  0
  5 15  1  0  0  0  0
  7  8  1  0  0  0  0
  8 13  2  0  0  0  0
  9  5  1  0  0  0  0
  9 12  2  0  0  0  0
 10 11  1  0  0  0  0
 11  4  2  0  0  0  0
 13  2  1  0  0  0  0
 15 10  2  0  0  0  0
 16 18  1  0  0  0  0
 17 20  1  0  0  0  0
 18 21  1  0  0  0  0
 18  5  1  1  0  0  0
 19 21  1  0  0  0  0
 21 17  1  0  0  0  0
 21 20  1  0  0  0  0
 22 16  1  0  0  0  0
 22 19  1  0  0  0  0
 23 16  2  0  0  0  0
 24 19  1  0  0  0  0
 25 24  1  0  0  0  0
 26 25  1  0  0  0  0
 27 29  1  0  0  0  0
 27 26  1  0  0  0  0
 28 29  1  0  0  0  0
 30  3  1  0  0  0  0
 31 30  1  0  0  0  0
 32 31  1  0  0  0  0
 33 32  1  0  0  0  0
 34 36  1  0  0  0  0
 34 33  1  0  0  0  0
 35 34  2  0  0  0  0
 37 38  2  0  0  0  0
 38 39  1  0  0  0  0
 38 36  1  0  0  0  0
 39 41  1  0  0  0  0
 41 40  2  0  0  0  0
M  END
>  <MODEL>
4

>  <REMARK>
 VINA RESULT:      -5.7      2.022      3.566
  Name = 
  14 active torsions:
  status: ('A' for Active; 'I' for Inactive)
    1  A    between atoms: C_6  and  N_15
    2  A    between atoms: C_7  and  O_16
    3  A    between atoms: N_8  and  C_13
    4  A    between atoms: C_10  and  O_16
    5  A    between atoms: C_10  and  C_27
    6  A    between atoms: C_13  and  C_32
    7  A    between atoms: N_14  and  C_27
    8  A    between atoms: C_17  and  C_20
    9  A    between atoms: C_17  and  C_23
   10  A    between atoms: C_20  and  C_22
   11  A    between atoms: C_21  and  C_32
   12  A    between atoms: C_21  and  C_33
   13  A    between atoms: C_23  and  C_40
   14  A    between atoms: C_33  and  C_39
                            x       y       z     vdW  Elec       q    Type
                         _______ _______ _______ _____ _____    ______ ____

>  <TORSDO>
F 14

$$$$
=
 OpenBabel11052412143D

 41 45  0  0  1  0  0  0  0  0999 V2000
  160.2260  212.1380  154.4620 C   0  0  1  0  0  3  0  0  0  0  0  0
  159.1160  212.5080  156.7180 N   0  0  0  0  0  0  0  0  0  0  0  0
  158.8410  212.9580  152.4770 C   0  0  0  0  0  0  0  0  0  0  0  0
  160.8230  210.8600  156.5040 C   0  0  0  0  0  0  0  0  0  0  0  0
  160.9520  209.8100  152.4600 N   0  0  0  0  0  0  0  0  0  0  0  0
  159.8830  211.6430  157.2540 N   0  0  0  0  0  0  0  0  0  0  0  0
  158.1370  213.7370  153.3140 C   0  0  0  0  0  3  0  0  0  0  0  0
  158.2200  213.5590  154.7740 C   0  0  0  0  0  3  0  0  0  0  0  0
  160.0600  210.9050  152.2210 C   0  0  0  0  0  3  0  0  0  0  0  0
  162.1310  210.4190  154.5110 C   0  0  0  0  0  3  0  0  0  0  0  0
  160.9750  211.0340  155.1720 C   0  0  0  0  0  0  0  0  0  0  0  0
  159.7490  211.9240  153.0330 C   0  0  0  0  0  0  0  0  0  0  0  0
  159.1390  212.7550  155.3140 C   0  0  0  0  0  0  0  0  0  0  0  0
  161.6430  209.8620  157.2600 C   0  0  0  0  0  1  0  0  0  0  0  0
  162.1170  209.8900  153.2960 C   0  0  0  0  0  3  0  0  0  0  0  0
  161.3340  207.4310  152.0140 C   0  0  0  0  0  0  0  0  0  0  0  0
  161.4660  209.7100  149.0960 C   0  0  0  0  0  2  0  0  0  0  0  0
  160.8440  208.7240  151.4790 C   0  0  2  0  0  3  0  0  0  0  0  0
  162.7080  207.7050  150.1540 N   0  0  0  0  0  0  0  0  0  0  0  0
  162.5190  210.1940  150.0860 C   0  0  0  0  0  2  0  0  0  0  0  0
  161.8200  208.8680  150.3080 C   0  0  0  0  0  0  0  0  0  0  0  0
  162.3880  206.9410  151.2600 O   0  0  0  0  0  0  0  0  0  0  0  0
  160.8230  206.7920  153.0560 C   0  0  0  0  0  2  0  0  0  0  0  0
  162.2860  206.9260  148.9910 C   0  0  0  0  0  2  0  0  0  0  0  0
  162.2870  205.4420  149.3190 C   0  0  0  0  0  2  0  0  0  0  0  0
  161.1880  204.7280  148.5540 C   0  0  0  0  0  2  0  0  0  0  0  0
  160.7940  203.4640  149.2940 C   0  0  0  0  0  2  0  0  0  0  0  0
  161.2330  202.8840  151.6720 C   0  0  0  0  0  1  0  0  0  0  0  0
  160.4540  203.7880  150.7350 C   0  0  0  0  0  2  0  0  0  0  0  0
  158.7190  213.0970  151.0860 O   0  0  0  0  0  0  0  0  0  0  0  0
  159.6440  213.8180  150.2790 C   0  0  0  0  0  2  0  0  0  0  0  0
  158.9690  214.3310  149.0140 C   0  0  0  0  0  2  0  0  0  0  0  0
  158.8310  213.2550  148.0400 N   0  0  0  0  0  2  0  0  0  0  0  0
  159.7160  213.0860  146.9280 C   0  0  0  0  0  0  0  0  0  0  0  0
  159.5780  212.0850  146.1760 O   0  0  0  0  0  0  0  0  0  0  0  0
  160.7780  214.0910  146.6200 C   0  0  0  0  0  2  0  0  0  0  0  0
  162.6230  212.9170  147.7190 C   0  0  0  0  0  2  0  0  0  0  0  0
  162.1290  213.4470  146.6020 C   0  0  0  0  0  0  0  0  0  0  0  0
  162.8880  213.3100  145.3180 C   0  0  0  0  0  2  0  0  0  0  0  0
  162.4460  212.8690  142.9360 C   0  0  0  0  0  2  0  0  0  0  0  0
  161.9670  213.0440  144.1670 C   0  0  0  0  0  3  0  0  0  0  0  0
  1 12  1  6  0  0  0
  1 11  1  0  0  0  0
  1 13  1  0  0  0  0
  2  6  2  0  0  0  0
  3 12  1  0  0  0  0
  3  7  2  0  0  0  0
  4  6  1  0  0  0  0
  4 14  1  0  0  0  0
  5 15  1  0  0  0  0
  7  8  1  0  0  0  0
  8 13  2  0  0  0  0
  9  5  1  0  0  0  0
  9 12  2  0  0  0  0
 10 11  1  0  0  0  0
 11  4  2  0  0  0  0
 13  2  1  0  0  0  0
 15 10  2  0  0  0  0
 16 23  2  0  0  0  0
 17 20  1  0  0  0  0
 17 21  1  0  0  0  0
 18 16  1  0  0  0  0
 18  5  1  1  0  0  0
 19 21  1  0  0  0  0
 19 22  1  0  0  0  0
 20 21  1  0  0  0  0
 21 18  1  0  0  0  0
 22 16  1  0  0  0  0
 24 25  1  0  0  0  0
 24 19  1  0  0  0  0
 26 27  1  0  0  0  0
 26 25  1  0  0  0  0
 27 29  1  0  0  0  0
 29 28  1  0  0  0  0
 30  3  1  0  0  0  0
 31 30  1  0  0  0  0
 32 31  1  0  0  0  0
 33 32  1  0  0  0  0
 34 33  1  0  0  0  0
 35 34  2  0  0  0  0
 36 34  1  0  0  0  0
 38 36  1  0  0  0  0
 38 37  2  0  0  0  0
 39 38  1  0  0  0  0
 40 41  2  0  0  0  0
 41 39  1  0  0  0  0
M  END
>  <MODEL>
5

>  <REMARK>
 VINA RESULT:      -5.6      1.216      1.935
  Name = 
  14 active torsions:
  status: ('A' for Active; 'I' for Inactive)
    1  A    between atoms: C_6  and  N_15
    2  A    between atoms: C_7  and  O_16
    3  A    between atoms: N_8  and  C_13
    4  A    between atoms: C_10  and  O_16
    5  A    between atoms: C_10  and  C_27
    6  A    between atoms: C_13  and  C_32
    7  A    between atoms: N_14  and  C_27
    8  A    between atoms: C_17  and  C_20
    9  A    between atoms: C_17  and  C_23
   10  A    between atoms: C_20  and  C_22
   11  A    between atoms: C_21  and  C_32
   12  A    between atoms: C_21  and  C_33
   13  A    between atoms: C_23  and  C_40
   14  A    between atoms: C_33  and  C_39
                            x       y       z     vdW  Elec       q    Type
                         _______ _______ _______ _____ _____    ______ ____

>  <TORSDO>
F 14

$$$$
=
 OpenBabel11052412143D

 41 45  0  0  1  0  0  0  0  0999 V2000
  162.0570  208.0620  150.5540 C   0  0  0  0  0  0  0  0  0  0  0  0
  161.8110  208.1560  148.0250 N   0  0  0  0  0  2  0  0  0  0  0  0
  161.1750  205.9050  151.6020 C   0  0  0  0  0  0  0  0  0  0  0  0
  162.0590  210.1790  149.2590 C   0  0  0  0  0  0  0  0  0  0  0  0
  160.8340  209.3410  153.1660 N   0  0  0  0  0  0  0  0  0  0  0  0
  161.9500  209.4220  148.0440 N   0  0  0  0  0  0  0  0  0  0  0  0
  161.2600  205.3090  150.4020 C   0  0  0  0  0  3  0  0  0  0  0  0
  161.4550  206.0950  149.1720 C   0  0  0  0  0  3  0  0  0  0  0  0
  160.7920  207.9610  152.7800 C   0  0  0  0  0  3  0  0  0  0  0  0
  162.4560  210.3510  151.6440 C   0  0  0  0  0  3  0  0  0  0  0  0
  162.0620  209.5710  150.4660 C   0  0  0  0  0  0  0  0  0  0  0  0
  161.3210  207.3790  151.6970 C   0  0  0  0  0  0  0  0  0  0  0  0
  161.7490  207.3960  149.2310 C   0  0  0  0  0  0  0  0  0  0  0  0
  162.1920  211.6650  149.1320 C   0  0  0  0  0  1  0  0  0  0  0  0
  161.9150  210.2310  152.8470 C   0  0  0  0  0  3  0  0  0  0  0  0
  159.2820  211.0140  154.0590 C   0  0  0  0  0  0  0  0  0  0  0  0
  160.9870  208.8420  156.5300 C   0  0  0  0  0  2  0  0  0  0  0  0
  159.9140  209.6880  154.2560 C   0  0  2  0  0  3  0  0  0  0  0  0
  160.3320  211.3090  156.1170 N   0  0  0  0  0  0  0  0  0  0  0  0
  162.0760  209.5620  155.7440 C   0  0  0  0  0  2  0  0  0  0  0  0
  160.6260  209.9710  155.5810 C   0  0  0  0  0  0  0  0  0  0  0  0
  159.5830  211.8740  155.1020 O   0  0  0  0  0  0  0  0  0  0  0  0
  158.5000  211.3450  153.0430 C   0  0  0  0  0  2  0  0  0  0  0  0
  159.4300  211.1830  157.2600 C   0  0  0  0  0  2  0  0  0  0  0  0
  158.3950  212.2960  157.2430 C   0  0  0  0  0  2  0  0  0  0  0  0
  156.9930  211.7170  157.1790 C   0  0  0  0  0  2  0  0  0  0  0  0
  156.1430  212.5520  156.2410 C   0  0  0  0  0  2  0  0  0  0  0  0
  156.9250  214.3320  154.6900 C   0  0  0  0  0  1  0  0  0  0  0  0
  156.7000  213.9590  156.1440 C   0  0  0  0  0  2  0  0  0  0  0  0
  160.9380  205.1570  152.7660 O   0  0  0  0  0  0  0  0  0  0  0  0
  160.8600  203.7360  152.7910 C   0  0  0  0  0  2  0  0  0  0  0  0
  161.2380  203.1520  151.4360 C   0  0  0  0  0  2  0  0  0  0  0  0
  160.0730  202.5510  150.7990 N   0  0  0  0  0  2  0  0  0  0  0  0
  160.1390  201.8270  149.5670 C   0  0  0  0  0  0  0  0  0  0  0  0
  159.1020  201.2690  149.1220 O   0  0  0  0  0  0  0  0  0  0  0  0
  161.4070  201.7470  148.7790 C   0  0  0  0  0  2  0  0  0  0  0  0
  160.8460  201.2740  146.4440 C   0  0  0  0  0  2  0  0  0  0  0  0
  161.1800  202.1770  147.3640 C   0  0  0  0  0  0  0  0  0  0  0  0
  161.2350  203.6270  146.9930 C   0  0  0  0  0  2  0  0  0  0  0  0
  161.5340  204.9910  144.9640 C   0  0  0  0  0  2  0  0  0  0  0  0
  161.6490  203.8070  145.5650 C   0  0  0  0  0  3  0  0  0  0  0  0
  1 12  1  0  0  0  0
  2  6  1  0  0  0  0
  2 13  1  0  0  0  0
  3 12  1  0  0  0  0
  3 30  1  0  0  0  0
  4 11  1  0  0  0  0
  6  4  2  0  0  0  0
  7  3  2  0  0  0  0
  8 13  2  0  0  0  0
  8  7  1  0  0  0  0
  9  5  1  0  0  0  0
 10 15  2  0  0  0  0
 11  1  2  0  0  0  0
 11 10  1  0  0  0  0
 12  9  2  0  0  0  0
 13  1  1  0  0  0  0
 14  4  1  0  0  0  0
 15  5  1  0  0  0  0
 16 18  1  0  0  0  0
 16 22  1  0  0  0  0
 18  5  1  6  0  0  0
 18 21  1  0  0  0  0
 19 24  1  0  0  0  0
 20 17  1  0  0  0  0
 21 20  1  0  0  0  0
 21 19  1  0  0  0  0
 21 17  1  0  0  0  0
 22 19  1  0  0  0  0
 23 16  2  0  0  0  0
 25 24  1  0  0  0  0
 26 25  1  0  0  0  0
 27 26  1  0  0  0  0
 28 29  1  0  0  0  0
 29 27  1  0  0  0  0
 30 31  1  0  0  0  0
 32 31  1  0  0  0  0
 33 32  1  0  0  0  0
 34 33  1  0  0  0  0
 35 34  2  0  0  0  0
 36 34  1  0  0  0  0
 37 38  2  0  0  0  0
 38 36  1  0  0  0  0
 39 38  1  0  0  0  0
 40 41  2  0  0  0  0
 41 39  1  0  0  0  0
M  END
>  <MODEL>
6

>  <REMARK>
 VINA RESULT:      -5.6      3.316      8.883
  Name = 
  14 active torsions:
  status: ('A' for Active; 'I' for Inactive)
    1  A    between atoms: C_6  and  N_15
    2  A    between atoms: C_7  and  O_16
    3  A    between atoms: N_8  and  C_13
    4  A    between atoms: C_10  and  O_16
    5  A    between atoms: C_10  and  C_27
    6  A    between atoms: C_13  and  C_32
    7  A    between atoms: N_14  and  C_27
    8  A    between atoms: C_17  and  C_20
    9  A    between atoms: C_17  and  C_23
   10  A    between atoms: C_20  and  C_22
   11  A    between atoms: C_21  and  C_32
   12  A    between atoms: C_21  and  C_33
   13  A    between atoms: C_23  and  C_40
   14  A    between atoms: C_33  and  C_39
                            x       y       z     vdW  Elec       q    Type
                         _______ _______ _______ _____ _____    ______ ____

>  <TORSDO>
F 14

$$$$
=
 OpenBabel11052412143D

 41 45  0  0  1  0  0  0  0  0999 V2000
  159.9470  212.5120  153.5160 C   0  0  1  0  0  3  0  0  0  0  0  0
  158.1580  214.0340  154.4880 N   0  0  0  0  0  0  0  0  0  0  0  0
  160.0840  212.5710  150.9650 C   0  0  0  0  0  0  0  0  0  0  0  0
  158.9770  212.2080  155.7800 C   0  0  0  0  0  0  0  0  0  0  0  0
  160.5510  209.4490  153.0630 N   0  0  0  0  0  0  0  0  0  0  0  0
  158.1840  213.3880  155.5860 N   0  0  0  0  0  0  0  0  0  0  0  0
  159.4370  213.7470  150.9760 C   0  0  0  0  0  3  0  0  0  0  0  0
  158.7560  214.2330  152.1880 C   0  0  0  0  0  3  0  0  0  0  0  0
  160.3770  210.4520  152.0540 C   0  0  0  0  0  3  0  0  0  0  0  0
  160.7730  210.7100  155.1440 C   0  0  0  0  0  3  0  0  0  0  0  0
  159.7850  211.7370  154.8040 C   0  0  0  0  0  0  0  0  0  0  0  0
  160.1470  211.7620  152.2070 C   0  0  0  0  0  0  0  0  0  0  0  0
  158.9250  213.6170  153.3600 C   0  0  0  0  0  0  0  0  0  0  0  0
  158.8910  211.5360  157.1150 C   0  0  0  0  0  1  0  0  0  0  0  0
  161.1210  209.7020  154.3570 C   0  0  0  0  0  3  0  0  0  0  0  0
  160.8670  207.0770  153.5920 C   0  0  0  0  0  0  0  0  0  0  0  0
  161.4250  208.0830  150.0700 C   0  0  0  0  0  2  0  0  0  0  0  0
  160.5000  208.0730  152.5570 C   0  0  2  0  0  3  0  0  0  0  0  0
  162.4470  206.6230  151.9430 N   0  0  0  0  0  0  0  0  0  0  0  0
  162.3850  208.9020  150.9240 C   0  0  0  0  0  2  0  0  0  0  0  0
  161.6040  207.7600  151.5430 C   0  0  0  0  0  0  0  0  0  0  0  0
  161.9720  206.3350  153.2090 O   0  0  0  0  0  0  0  0  0  0  0  0
  160.2150  206.8820  154.7280 C   0  0  0  0  0  2  0  0  0  0  0  0
  162.1180  205.4640  151.1170 C   0  0  0  0  0  2  0  0  0  0  0  0
  161.4530  204.3860  151.9570 C   0  0  0  0  0  2  0  0  0  0  0  0
  161.1650  203.1570  151.1150 C   0  0  0  0  0  2  0  0  0  0  0  0
  160.8740  203.5770  149.6870 C   0  0  0  0  0  2  0  0  0  0  0  0
  160.6640  201.0980  149.6760 C   0  0  0  0  0  1  0  0  0  0  0  0
  160.5540  202.3610  148.8400 C   0  0  0  0  0  2  0  0  0  0  0  0
  160.6880  212.0880  149.7930 O   0  0  0  0  0  0  0  0  0  0  0  0
  161.4680  212.8930  148.9150 C   0  0  0  0  0  2  0  0  0  0  0  0
  161.3000  212.4330  147.4730 C   0  0  0  0  0  2  0  0  0  0  0  0
  162.0540  213.2970  146.5740 N   0  0  0  0  0  2  0  0  0  0  0  0
  161.6220  213.6180  145.2480 C   0  0  0  0  0  0  0  0  0  0  0  0
  162.2900  214.4350  144.5620 O   0  0  0  0  0  0  0  0  0  0  0  0
  160.4140  212.9750  144.6480 C   0  0  0  0  0  2  0  0  0  0  0  0
  159.6490  213.0940  142.3260 C   0  0  0  0  0  2  0  0  0  0  0  0
  160.6070  212.7440  143.1820 C   0  0  0  0  0  0  0  0  0  0  0  0
  161.9060  212.2100  142.6620 C   0  0  0  0  0  2  0  0  0  0  0  0
  162.5810  211.6450  140.3620 C   0  0  0  0  0  2  0  0  0  0  0  0
  162.0910  212.5450  141.2140 C   0  0  0  0  0  3  0  0  0  0  0  0
  1 12  1  6  0  0  0
  1 11  1  0  0  0  0
  2  6  2  0  0  0  0
  3  7  2  0  0  0  0
  3 12  1  0  0  0  0
  4 14  1  0  0  0  0
  5 15  1  0  0  0  0
  6  4  1  0  0  0  0
  7  8  1  0  0  0  0
  8 13  2  0  0  0  0
  9 12  2  0  0  0  0
  9  5  1  0  0  0  0
 11 10  1  0  0  0  0
 11  4  2  0  0  0  0
 13  1  1  0  0  0  0
 13  2  1  0  0  0  0
 15 10  2  0  0  0  0
 16 23  2  0  0  0  0
 17 20  1  0  0  0  0
 17 21  1  0  0  0  0
 18  5  1  1  0  0  0
 18 16  1  0  0  0  0
 19 22  1  0  0  0  0
 20 21  1  0  0  0  0
 21 19  1  0  0  0  0
 21 18  1  0  0  0  0
 22 16  1  0  0  0  0
 24 19  1  0  0  0  0
 24 25  1  0  0  0  0
 26 25  1  0  0  0  0
 27 26  1  0  0  0  0
 29 28  1  0  0  0  0
 29 27  1  0  0  0  0
 30  3  1  0  0  0  0
 31 30  1  0  0  0  0
 32 31  1  0  0  0  0
 33 32  1  0  0  0  0
 34 33  1  0  0  0  0
 35 34  2  0  0  0  0
 36 34  1  0  0  0  0
 37 38  2  0  0  0  0
 38 36  1  0  0  0  0
 39 38  1  0  0  0  0
 40 41  2  0  0  0  0
 41 39  1  0  0  0  0
M  END
>  <MODEL>
7

>  <REMARK>
 VINA RESULT:      -5.4      1.791      2.672
  Name = 
  14 active torsions:
  status: ('A' for Active; 'I' for Inactive)
    1  A    between atoms: C_6  and  N_15
    2  A    between atoms: C_7  and  O_16
    3  A    between atoms: N_8  and  C_13
    4  A    between atoms: C_10  and  O_16
    5  A    between atoms: C_10  and  C_27
    6  A    between atoms: C_13  and  C_32
    7  A    between atoms: N_14  and  C_27
    8  A    between atoms: C_17  and  C_20
    9  A    between atoms: C_17  and  C_23
   10  A    between atoms: C_20  and  C_22
   11  A    between atoms: C_21  and  C_32
   12  A    between atoms: C_21  and  C_33
   13  A    between atoms: C_23  and  C_40
   14  A    between atoms: C_33  and  C_39
                            x       y       z     vdW  Elec       q    Type
                         _______ _______ _______ _____ _____    ______ ____

>  <TORSDO>
F 14

$$$$
=
 OpenBabel11052412143D

 41 45  0  0  1  0  0  0  0  0999 V2000
  160.1710  212.0760  154.5140 C   0  0  1  0  0  3  0  0  0  0  0  0
  158.9880  212.3150  156.7520 N   0  0  0  0  0  0  0  0  0  0  0  0
  158.8490  213.0110  152.5380 C   0  0  0  0  0  0  0  0  0  0  0  0
  160.7040  210.6810  156.4970 C   0  0  0  0  0  0  0  0  0  0  0  0
  160.9640  209.8690  152.4050 N   0  0  0  0  0  0  0  0  0  0  0  0
  159.7390  211.4200  157.2610 N   0  0  0  0  0  0  0  0  0  0  0  0
  158.1180  213.7400  153.3950 C   0  0  0  0  0  3  0  0  0  0  0  0
  158.1540  213.4780  154.8440 C   0  0  0  0  0  3  0  0  0  0  0  0
  160.0790  210.9770  152.2010 C   0  0  0  0  0  3  0  0  0  0  0  0
  162.0760  210.3570  154.5250 C   0  0  0  0  0  3  0  0  0  0  0  0
  160.8990  210.9320  155.1830 C   0  0  0  0  0  0  0  0  0  0  0  0
  159.7400  211.9460  153.0610 C   0  0  0  0  0  0  0  0  0  0  0  0
  159.0570  212.6440  155.3660 C   0  0  0  0  0  0  0  0  0  0  0  0
  161.5000  209.6400  157.2200 C   0  0  0  0  0  1  0  0  0  0  0  0
  162.1010  209.9000  153.2810 C   0  0  0  0  0  3  0  0  0  0  0  0
  161.3640  207.5200  151.8330 C   0  0  0  0  0  0  0  0  0  0  0  0
  161.5860  209.9660  149.0590 C   0  0  0  0  0  2  0  0  0  0  0  0
  160.8900  208.8420  151.3590 C   0  0  2  0  0  3  0  0  0  0  0  0
  162.7970  207.9010  150.0380 N   0  0  0  0  0  0  0  0  0  0  0  0
  162.6060  210.3900  150.1090 C   0  0  0  0  0  2  0  0  0  0  0  0
  161.9030  209.0540  150.2310 C   0  0  0  0  0  0  0  0  0  0  0  0
  162.4420  207.0740  151.0860 O   0  0  0  0  0  0  0  0  0  0  0  0
  160.8210  206.8220  152.8190 C   0  0  0  0  0  2  0  0  0  0  0  0
  162.4130  207.1920  148.8180 C   0  0  0  0  0  2  0  0  0  0  0  0
  161.5980  205.9560  149.1600 C   0  0  0  0  0  2  0  0  0  0  0  0
  161.4020  205.0910  147.9270 C   0  0  0  0  0  2  0  0  0  0  0  0
  161.1100  205.9740  146.7300 C   0  0  0  0  0  2  0  0  0  0  0  0
  162.4710  204.2110  145.6230 C   0  0  0  0  0  1  0  0  0  0  0  0
  162.0920  205.6800  145.6130 C   0  0  0  0  0  2  0  0  0  0  0  0
  158.7730  213.2310  151.1540 O   0  0  0  0  0  0  0  0  0  0  0  0
  159.6560  214.0880  150.4380 C   0  0  0  0  0  2  0  0  0  0  0  0
  159.8170  213.6150  148.9990 C   0  0  0  0  0  2  0  0  0  0  0  0
  161.2160  213.6790  148.5960 N   0  0  0  0  0  2  0  0  0  0  0  0
  161.6840  213.2460  147.3160 C   0  0  0  0  0  0  0  0  0  0  0  0
  162.8960  213.4090  147.0140 O   0  0  0  0  0  0  0  0  0  0  0  0
  160.7730  212.5720  146.3420 C   0  0  0  0  0  2  0  0  0  0  0  0
  159.9370  214.1460  144.6650 C   0  0  0  0  0  2  0  0  0  0  0  0
  160.8450  213.2320  145.0020 C   0  0  0  0  0  0  0  0  0  0  0  0
  161.9840  212.9420  144.0720 C   0  0  0  0  0  2  0  0  0  0  0  0
  162.3030  212.2860  141.7200 C   0  0  0  0  0  2  0  0  0  0  0  0
  161.5080  212.7990  142.6590 C   0  0  0  0  0  3  0  0  0  0  0  0
  1 12  1  6  0  0  0
  1 11  1  0  0  0  0
  1 13  1  0  0  0  0
  2  6  2  0  0  0  0
  3 12  1  0  0  0  0
  3  7  2  0  0  0  0
  4 14  1  0  0  0  0
  4  6  1  0  0  0  0
  5 15  1  0  0  0  0
  7  8  1  0  0  0  0
  8 13  2  0  0  0  0
  9  5  1  0  0  0  0
  9 12  2  0  0  0  0
 10 11  1  0  0  0  0
 11  4  2  0  0  0  0
 13  2  1  0  0  0  0
 15 10  2  0  0  0  0
 16 23  2  0  0  0  0
 17 20  1  0  0  0  0
 17 21  1  0  0  0  0
 18 16  1  0  0  0  0
 18  5  1  1  0  0  0
 19 21  1  0  0  0  0
 19 22  1  0  0  0  0
 20 21  1  0  0  0  0
 21 18  1  0  0  0  0
 22 16  1  0  0  0  0
 24 25  1  0  0  0  0
 24 19  1  0  0  0  0
 26 25  1  0  0  0  0
 27 26  1  0  0  0  0
 29 28  1  0  0  0  0
 29 27  1  0  0  0  0
 30  3  1  0  0  0  0
 31 30  1  0  0  0  0
 32 31  1  0  0  0  0
 33 32  1  0  0  0  0
 34 33  1  0  0  0  0
 35 34  2  0  0  0  0
 36 34  1  0  0  0  0
 37 38  2  0  0  0  0
 38 36  1  0  0  0  0
 39 38  1  0  0  0  0
 40 41  2  0  0  0  0
 41 39  1  0  0  0  0
M  END
>  <MODEL>
8

>  <REMARK>
 VINA RESULT:      -5.4      1.604      2.421
  Name = 
  14 active torsions:
  status: ('A' for Active; 'I' for Inactive)
    1  A    between atoms: C_6  and  N_15
    2  A    between atoms: C_7  and  O_16
    3  A    between atoms: N_8  and  C_13
    4  A    between atoms: C_10  and  O_16
    5  A    between atoms: C_10  and  C_27
    6  A    between atoms: C_13  and  C_32
    7  A    between atoms: N_14  and  C_27
    8  A    between atoms: C_17  and  C_20
    9  A    between atoms: C_17  and  C_23
   10  A    between atoms: C_20  and  C_22
   11  A    between atoms: C_21  and  C_32
   12  A    between atoms: C_21  and  C_33
   13  A    between atoms: C_23  and  C_40
   14  A    between atoms: C_33  and  C_39
                            x       y       z     vdW  Elec       q    Type
                         _______ _______ _______ _____ _____    ______ ____

>  <TORSDO>
F 14

$$$$
=
 OpenBabel11052412143D

 41 45  0  0  1  0  0  0  0  0999 V2000
  160.6860  210.3230  153.4220 C   0  0  1  0  0  3  0  0  0  0  0  0
  158.5980  211.0090  154.7000 N   0  0  0  0  0  0  0  0  0  0  0  0
  160.9450  211.4840  151.1600 C   0  0  0  0  0  0  0  0  0  0  0  0
  159.6700  208.9450  155.2190 C   0  0  0  0  0  0  0  0  0  0  0  0
  161.8670  207.8690  151.8290 N   0  0  0  0  0  0  0  0  0  0  0  0
  158.6840  209.9670  155.4290 N   0  0  0  0  0  0  0  0  0  0  0  0
  160.0930  212.4360  151.5720 C   0  0  0  0  0  3  0  0  0  0  0  0
  159.2700  212.2540  152.7800 C   0  0  0  0  0  3  0  0  0  0  0  0
  161.5650  209.1690  151.3090 C   0  0  0  0  0  3  0  0  0  0  0  0
  161.7420  208.1380  154.2550 C   0  0  0  0  0  3  0  0  0  0  0  0
  160.6010  209.0580  154.2450 C   0  0  0  0  0  0  0  0  0  0  0  0
  161.0900  210.2410  151.9570 C   0  0  0  0  0  0  0  0  0  0  0  0
  159.4880  211.2280  153.6070 C   0  0  0  0  0  0  0  0  0  0  0  0
  159.6390  207.7630  156.1360 C   0  0  0  0  0  1  0  0  0  0  0  0
  162.3110  207.6250  153.1740 C   0  0  0  0  0  3  0  0  0  0  0  0
  161.4180  207.1740  149.5230 C   0  0  0  0  0  0  0  0  0  0  0  0
  162.0510  204.4730  151.9790 C   0  0  0  0  0  2  0  0  0  0  0  0
  162.0970  206.8490  150.8000 C   0  0  2  0  0  3  0  0  0  0  0  0
  160.4790  205.1030  150.0250 N   0  0  0  0  0  0  0  0  0  0  0  0
  160.8530  205.2660  152.4890 C   0  0  0  0  0  2  0  0  0  0  0  0
  161.3960  205.5210  151.0970 C   0  0  0  0  0  0  0  0  0  0  0  0
  160.5100  206.1890  149.1710 O   0  0  0  0  0  0  0  0  0  0  0  0
  161.6570  208.2440  148.7810 C   0  0  0  0  0  2  0  0  0  0  0  0
  161.0760  203.9920  149.2860 C   0  0  0  0  0  2  0  0  0  0  0  0
  160.6180  202.6640  149.8660 C   0  0  0  0  0  2  0  0  0  0  0  0
  160.2140  201.7100  148.7570 C   0  0  0  0  0  2  0  0  0  0  0  0
  160.7500  202.2160  147.4320 C   0  0  0  0  0  2  0  0  0  0  0  0
  160.1040  201.3930  145.1760 C   0  0  0  0  0  1  0  0  0  0  0  0
  160.8710  201.0720  146.4450 C   0  0  0  0  0  2  0  0  0  0  0  0
  161.6880  211.6400  149.9800 O   0  0  0  0  0  0  0  0  0  0  0  0
  161.5510  212.7490  149.0990 C   0  0  0  0  0  2  0  0  0  0  0  0
  161.7830  212.3220  147.6550 C   0  0  0  0  0  2  0  0  0  0  0  0
  160.5150  212.2370  146.9400 N   0  0  0  0  0  2  0  0  0  0  0  0
  160.2560  212.9330  145.7170 C   0  0  0  0  0  0  0  0  0  0  0  0
  159.1650  212.7450  145.1190 O   0  0  0  0  0  0  0  0  0  0  0  0
  161.2410  213.9050  145.1530 C   0  0  0  0  0  2  0  0  0  0  0  0
  163.3810  213.5040  144.0350 C   0  0  0  0  0  2  0  0  0  0  0  0
  162.0730  213.2610  144.0890 C   0  0  0  0  0  0  0  0  0  0  0  0
  161.4630  212.2730  143.1420 C   0  0  0  0  0  2  0  0  0  0  0  0
  162.0180  211.3100  140.9450 C   0  0  0  0  0  2  0  0  0  0  0  0
  162.1260  212.3260  141.8000 C   0  0  0  0  0  3  0  0  0  0  0  0
  1 12  1  6  0  0  0
  1 13  1  0  0  0  0
  1 11  1  0  0  0  0
  2  6  2  0  0  0  0
  3  7  2  0  0  0  0
  3 12  1  0  0  0  0
  4  6  1  0  0  0  0
  4 14  1  0  0  0  0
  5 15  1  0  0  0  0
  7  8  1  0  0  0  0
  8 13  2  0  0  0  0
  9  5  1  0  0  0  0
  9 12  2  0  0  0  0
 11 10  1  0  0  0  0
 11  4  2  0  0  0  0
 13  2  1  0  0  0  0
 15 10  2  0  0  0  0
 16 18  1  0  0  0  0
 17 20  1  0  0  0  0
 18 21  1  0  0  0  0
 18  5  1  1  0  0  0
 19 21  1  0  0  0  0
 21 17  1  0  0  0  0
 21 20  1  0  0  0  0
 22 16  1  0  0  0  0
 22 19  1  0  0  0  0
 23 16  2  0  0  0  0
 24 25  1  0  0  0  0
 24 19  1  0  0  0  0
 26 25  1  0  0  0  0
 27 26  1  0  0  0  0
 28 29  1  0  0  0  0
 29 27  1  0  0  0  0
 30  3  1  0  0  0  0
 31 30  1  0  0  0  0
 32 31  1  0  0  0  0
 33 32  1  0  0  0  0
 34 33  1  0  0  0  0
 35 34  2  0  0  0  0
 36 34  1  0  0  0  0
 37 38  2  0  0  0  0
 38 36  1  0  0  0  0
 39 38  1  0  0  0  0
 40 41  2  0  0  0  0
 41 39  1  0  0  0  0
M  END
>  <MODEL>
9

>  <REMARK>
 VINA RESULT:      -5.3      1.604      2.259
  Name = 
  14 active torsions:
  status: ('A' for Active; 'I' for Inactive)
    1  A    between atoms: C_6  and  N_15
    2  A    between atoms: C_7  and  O_16
    3  A    between atoms: N_8  and  C_13
    4  A    between atoms: C_10  and  O_16
    5  A    between atoms: C_10  and  C_27
    6  A    between atoms: C_13  and  C_32
    7  A    between atoms: N_14  and  C_27
    8  A    between atoms: C_17  and  C_20
    9  A    between atoms: C_17  and  C_23
   10  A    between atoms: C_20  and  C_22
   11  A    between atoms: C_21  and  C_32
   12  A    between atoms: C_21  and  C_33
   13  A    between atoms: C_23  and  C_40
   14  A    between atoms: C_33  and  C_39
                            x       y       z     vdW  Elec       q    Type
                         _______ _______ _______ _____ _____    ______ ____

>  <TORSDO>
F 14

$$$$
