=
 OpenBabel11052409333D

 44 48  0  0  1  0  0  0  0  0999 V2000
  161.6600  211.5560  148.2420 C   0  0  2  0  0  3  0  0  0  0  0  0
  161.4650  211.8920  149.6360 N   0  0  0  0  0  2  0  0  0  0  0  0
  161.8250  209.2920  148.2500 N   0  0  0  0  0  2  0  0  0  0  0  0
  161.7570  209.8740  150.8680 C   0  0  0  0  0  0  0  0  0  0  0  0
  161.6340  208.2070  149.1460 C   0  0  0  0  0  3  0  0  0  0  0  0
  161.6480  208.4250  150.4480 C   0  0  0  0  0  0  0  0  0  0  0  0
  162.2850  210.0900  152.2720 C   0  0  0  0  0  2  0  0  0  0  0  0
  160.8360  210.4210  151.9460 C   0  0  0  0  0  2  0  0  0  0  0  0
  162.3730  210.8570  149.9450 N   0  0  1  0  0  0  0  0  0  0  0  0
  162.5400  210.4620  148.5820 N   0  0  2  0  0  0  0  0  0  0  0  0
  161.2920  207.4540  152.7580 C   0  0  0  0  0  3  0  0  0  0  0  0
  160.9400  206.5700  154.9750 O   0  0  0  0  0  1  0  0  0  0  0  0
  161.0610  205.0700  153.0920 C   0  0  0  0  0  3  0  0  0  0  0  0
  161.4530  207.2690  151.3750 C   0  0  0  0  0  0  0  0  0  0  0  0
  161.0990  206.3640  153.6110 C   0  0  0  0  0  0  0  0  0  0  0  0
  161.2180  204.8640  151.7180 C   0  0  0  0  0  0  0  0  0  0  0  0
  161.4040  205.9570  150.8670 C   0  0  0  0  0  3  0  0  0  0  0  0
  161.1390  203.4880  151.1570 C   0  0  0  0  0  2  0  0  0  0  0  0
  160.5240  203.5340  149.7680 C   0  0  0  0  0  2  0  0  0  0  0  0
  161.0150  201.3250  150.2370 C   0  0  0  0  0  1  0  0  0  0  0  0
  160.4290  202.1880  149.2210 N   0  0  0  0  0  0  0  0  0  0  0  0
  161.2630  202.0940  148.0100 C   0  0  1  0  0  3  0  0  0  0  0  0
  161.6990  200.6700  147.7730 C   0  0  0  0  0  3  0  0  0  0  0  0
  161.2870  199.9810  146.7100 C   0  0  0  0  0  2  0  0  0  0  0  0
  160.5520  202.5530  146.8770 O   0  0  0  0  0  0  0  0  0  0  0  0
  161.4020  203.3390  146.0600 C   0  0  2  0  0  3  0  0  0  0  0  0
  162.1680  204.4120  146.8350 C   0  0  0  0  0  2  0  0  0  0  0  0
  163.5940  204.5050  146.3260 C   0  0  0  0  0  1  0  0  0  0  0  0
  160.6980  203.9010  144.8250 C   0  0  0  0  0  2  0  0  0  0  0  0
  161.0340  205.3700  144.6470 C   0  0  0  0  0  2  0  0  0  0  0  0
  160.0240  206.1460  145.2110 O   0  0  0  0  0  1  0  0  0  0  0  0
  162.4540  212.6560  147.5500 C   0  0  0  0  0  2  0  0  0  0  0  0
  161.6030  213.4240  146.7050 O   0  0  0  0  0  0  0  0  0  0  0  0
  160.4510  213.3370  143.1950 C   0  0  0  0  0  3  0  0  0  0  0  0
  161.6430  213.3470  145.3090 C   0  0  0  0  0  0  0  0  0  0  0  0
  162.8630  213.1680  143.2170 C   0  0  0  0  0  3  0  0  0  0  0  0
  161.6590  213.2210  142.4990 C   0  0  0  0  0  0  0  0  0  0  0  0
  162.8560  213.2300  144.6130 C   0  0  0  0  0  3  0  0  0  0  0  0
  160.4430  213.3990  144.5920 C   0  0  0  0  0  3  0  0  0  0  0  0
  161.6330  212.1250  138.9950 O   0  0  0  0  0  0  0  0  0  0  0  0
  161.6280  213.1740  141.0660 N   0  0  0  0  0  2  0  0  0  0  0  0
  161.6210  211.9970  140.2490 C   0  0  0  0  0  0  0  0  0  0  0  0
  161.6020  210.7250  140.8260 O   0  0  0  0  0  0  0  0  0  0  0  0
  161.7560  209.5460  140.0510 C   0  0  0  0  0  1  0  0  0  0  0  0
  1 32  1  6  0  0  0
  1 10  1  0  0  0  0
  1  2  1  0  0  0  0
  3  5  1  0  0  0  0
  4  8  1  0  0  0  0
  4  7  1  0  0  0  0
  5  6  2  0  0  0  0
  6  4  1  0  0  0  0
  6 14  1  0  0  0  0
  8  7  1  0  0  0  0
  9  2  1  6  0  0  0
  9  4  1  0  0  0  0
 10  3  1  1  0  0  0
 10  9  1  0  0  0  0
 11 15  1  0  0  0  0
 13 15  2  0  0  0  0
 14 11  2  0  0  0  0
 15 12  1  0  0  0  0
 16 13  1  0  0  0  0
 17 14  1  0  0  0  0
 17 16  2  0  0  0  0
 18 16  1  0  0  0  0
 19 18  1  0  0  0  0
 21 19  1  0  0  0  0
 21 20  1  0  0  0  0
 22 23  1  6  0  0  0
 22 21  1  0  0  0  0
 24 23  2  0  0  0  0
 25 22  1  0  0  0  0
 26 29  1  6  0  0  0
 26 27  1  0  0  0  0
 26 25  1  0  0  0  0
 28 27  1  0  0  0  0
 30 29  1  0  0  0  0
 30 31  1  0  0  0  0
 33 32  1  0  0  0  0
 34 39  1  0  0  0  0
 35 33  1  0  0  0  0
 36 38  2  0  0  0  0
 37 34  2  0  0  0  0
 37 36  1  0  0  0  0
 38 35  1  0  0  0  0
 39 35  2  0  0  0  0
 40 42  2  0  0  0  0
 41 37  1  0  0  0  0
 42 43  1  0  0  0  0
 42 41  1  0  0  0  0
 44 43  1  0  0  0  0
M  END
>  <MODEL>
1

>  <REMARK>
 VINA RESULT:      -8.2      0.000      0.000
  Name = 
  16 active torsions:
  status: ('A' for Active; 'I' for Inactive)
    1  A    between atoms: C_1  and  C_40
    2  A    between atoms: O_3  and  C_24
    3  A    between atoms: C_7  and  C_41
    4  A    between atoms: O_8  and  C_13
    5  A    between atoms: O_8  and  C_28
    6  A    between atoms: C_9  and  O_17
    7  A    between atoms: C_13  and  C_14
    8  A    between atoms: C_13  and  C_41
    9  A    between atoms: C_16  and  C_28
   10  A    between atoms: O_17  and  C_40
   11  A    between atoms: C_18  and  N_26
   12  A    between atoms: C_18  and  C_42
   13  A    between atoms: N_19  and  C_20
   14  A    between atoms: N_26  and  C_28
   15  A    between atoms: C_29  and  C_33
   16  A    between atoms: C_37  and  C_42
                            x       y       z     vdW  Elec       q    Type
                         _______ _______ _______ _____ _____    ______ ____

>  <TORSDO>
F 16

$$$$
=
 OpenBabel11052409333D

 44 48  0  0  1  0  0  0  0  0999 V2000
  160.7100  213.2080  147.7080 C   0  0  2  0  0  3  0  0  0  0  0  0
  159.6630  213.5680  148.6400 N   0  0  0  0  0  2  0  0  0  0  0  0
  161.9500  211.6870  148.8510 N   0  0  0  0  0  2  0  0  0  0  0  0
  160.2110  212.5300  150.7120 C   0  0  0  0  0  0  0  0  0  0  0  0
  161.8810  210.9370  150.0550 C   0  0  0  0  0  3  0  0  0  0  0  0
  161.0850  211.3360  151.0290 C   0  0  0  0  0  0  0  0  0  0  0  0
  159.7100  213.2890  151.9240 C   0  0  0  0  0  2  0  0  0  0  0  0
  158.7330  212.4990  151.0660 C   0  0  0  0  0  2  0  0  0  0  0  0
  160.6340  213.4860  149.6610 N   0  0  1  0  0  0  0  0  0  0  0  0
  161.6740  213.0690  148.7760 N   0  0  2  0  0  0  0  0  0  0  0  0
  160.9290  211.1550  153.5490 C   0  0  0  0  0  3  0  0  0  0  0  0
  160.7640  211.0250  155.9520 O   0  0  0  0  0  1  0  0  0  0  0  0
  160.9110  209.0020  154.6500 C   0  0  0  0  0  3  0  0  0  0  0  0
  161.0340  210.5380  152.2920 C   0  0  0  0  0  0  0  0  0  0  0  0
  160.8700  210.3940  154.7200 C   0  0  0  0  0  0  0  0  0  0  0  0
  161.0150  208.3680  153.4090 C   0  0  0  0  0  0  0  0  0  0  0  0
  161.0670  209.1310  152.2380 C   0  0  0  0  0  3  0  0  0  0  0  0
  161.0200  206.8820  153.3280 C   0  0  0  0  0  2  0  0  0  0  0  0
  161.6100  206.4400  152.0000 C   0  0  0  0  0  2  0  0  0  0  0  0
  161.7130  204.1480  151.7250 C   0  0  0  0  0  1  0  0  0  0  0  0
  160.8630  205.3040  151.4770 N   0  0  0  0  0  0  0  0  0  0  0  0
  160.7100  205.4510  150.0190 C   0  0  1  0  0  3  0  0  0  0  0  0
  160.7380  206.9060  149.6240 C   0  0  0  0  0  3  0  0  0  0  0  0
  161.5910  207.3660  148.7100 C   0  0  0  0  0  2  0  0  0  0  0  0
  161.7440  204.7680  149.3370 O   0  0  0  0  0  0  0  0  0  0  0  0
  161.1970  203.9940  148.2830 C   0  0  2  0  0  3  0  0  0  0  0  0
  160.8580  202.5600  148.6950 C   0  0  0  0  0  2  0  0  0  0  0  0
  160.8500  201.6550  147.4780 C   0  0  0  0  0  1  0  0  0  0  0  0
  162.0270  204.0530  147.0010 C   0  0  0  0  0  2  0  0  0  0  0  0
  161.3940  205.0060  146.0040 C   0  0  0  0  0  2  0  0  0  0  0  0
  160.8650  204.2780  144.9400 O   0  0  0  0  0  1  0  0  0  0  0  0
  161.0710  214.4090  146.8450 C   0  0  0  0  0  2  0  0  0  0  0  0
  160.3470  214.3740  145.6200 O   0  0  0  0  0  0  0  0  0  0  0  0
  160.0340  212.0650  142.7510 C   0  0  0  0  0  3  0  0  0  0  0  0
  160.7080  213.5560  144.5430 C   0  0  0  0  0  0  0  0  0  0  0  0
  162.3730  212.5950  143.0600 C   0  0  0  0  0  3  0  0  0  0  0  0
  161.3680  211.9180  142.3540 C   0  0  0  0  0  0  0  0  0  0  0  0
  162.0470  213.4090  144.1480 C   0  0  0  0  0  3  0  0  0  0  0  0
  159.7060  212.8790  143.8400 C   0  0  0  0  0  3  0  0  0  0  0  0
  162.4270  210.6450  139.0770 O   0  0  0  0  0  0  0  0  0  0  0  0
  161.6630  211.0840  141.2250 N   0  0  0  0  0  2  0  0  0  0  0  0
  162.2720  211.4950  139.9950 C   0  0  0  0  0  0  0  0  0  0  0  0
  162.6870  212.8160  139.8070 O   0  0  0  0  0  0  0  0  0  0  0  0
  161.8270  213.8050  139.2630 C   0  0  0  0  0  1  0  0  0  0  0  0
  1 32  1  6  0  0  0
  1  2  1  0  0  0  0
  1 10  1  0  0  0  0
  3  5  1  0  0  0  0
  4  6  1  0  0  0  0
  4  8  1  0  0  0  0
  4  7  1  0  0  0  0
  5  6  2  0  0  0  0
  6 14  1  0  0  0  0
  8  7  1  0  0  0  0
  9  2  1  6  0  0  0
  9  4  1  0  0  0  0
 10  3  1  1  0  0  0
 10  9  1  0  0  0  0
 11 15  1  0  0  0  0
 13 15  2  0  0  0  0
 14 11  2  0  0  0  0
 15 12  1  0  0  0  0
 16 13  1  0  0  0  0
 17 14  1  0  0  0  0
 17 16  2  0  0  0  0
 18 16  1  0  0  0  0
 19 18  1  0  0  0  0
 21 20  1  0  0  0  0
 21 19  1  0  0  0  0
 22 23  1  1  0  0  0
 22 21  1  0  0  0  0
 24 23  2  0  0  0  0
 25 22  1  0  0  0  0
 26 29  1  6  0  0  0
 26 27  1  0  0  0  0
 26 25  1  0  0  0  0
 28 27  1  0  0  0  0
 30 29  1  0  0  0  0
 31 30  1  0  0  0  0
 33 32  1  0  0  0  0
 34 39  1  0  0  0  0
 35 33  1  0  0  0  0
 36 38  2  0  0  0  0
 37 34  2  0  0  0  0
 37 36  1  0  0  0  0
 38 35  1  0  0  0  0
 39 35  2  0  0  0  0
 40 42  2  0  0  0  0
 41 37  1  0  0  0  0
 42 41  1  0  0  0  0
 43 42  1  0  0  0  0
 44 43  1  0  0  0  0
M  END
>  <MODEL>
2

>  <REMARK>
 VINA RESULT:      -7.4      1.909      3.298
  Name = 
  16 active torsions:
  status: ('A' for Active; 'I' for Inactive)
    1  A    between atoms: C_1  and  C_40
    2  A    between atoms: O_3  and  C_24
    3  A    between atoms: C_7  and  C_41
    4  A    between atoms: O_8  and  C_13
    5  A    between atoms: O_8  and  C_28
    6  A    between atoms: C_9  and  O_17
    7  A    between atoms: C_13  and  C_14
    8  A    between atoms: C_13  and  C_41
    9  A    between atoms: C_16  and  C_28
   10  A    between atoms: O_17  and  C_40
   11  A    between atoms: C_18  and  N_26
   12  A    between atoms: C_18  and  C_42
   13  A    between atoms: N_19  and  C_20
   14  A    between atoms: N_26  and  C_28
   15  A    between atoms: C_29  and  C_33
   16  A    between atoms: C_37  and  C_42
                            x       y       z     vdW  Elec       q    Type
                         _______ _______ _______ _____ _____    ______ ____

>  <TORSDO>
F 16

$$$$
=
 OpenBabel11052409333D

 44 48  0  0  1  0  0  0  0  0999 V2000
  160.8370  204.4870  152.0290 C   0  0  2  0  0  3  0  0  0  0  0  0
  161.0210  205.5630  151.0780 N   0  0  0  0  0  2  0  0  0  0  0  0
  160.7780  205.5460  154.0360 N   0  0  0  0  0  2  0  0  0  0  0  0
  161.4080  207.5370  152.3520 C   0  0  0  0  0  0  0  0  0  0  0  0
  160.7070  206.8690  154.5480 C   0  0  0  0  0  3  0  0  0  0  0  0
  161.0590  207.8850  153.7830 C   0  0  0  0  0  0  0  0  0  0  0  0
  162.2800  208.5550  151.6460 C   0  0  0  0  0  2  0  0  0  0  0  0
  160.8350  208.3630  151.2130 C   0  0  0  0  0  2  0  0  0  0  0  0
  161.8730  206.1680  152.0270 N   0  0  1  0  0  0  0  0  0  0  0  0
  161.6630  205.1530  153.0100 N   0  0  2  0  0  0  0  0  0  0  0  0
  161.7280  209.6470  155.4730 C   0  0  0  0  0  3  0  0  0  0  0  0
  162.4030  211.3010  157.0940 O   0  0  0  0  0  1  0  0  0  0  0  0
  160.8440  211.8940  155.3540 C   0  0  0  0  0  3  0  0  0  0  0  0
  160.9860  209.2690  154.3420 C   0  0  0  0  0  0  0  0  0  0  0  0
  161.6580  210.9490  155.9760 C   0  0  0  0  0  0  0  0  0  0  0  0
  160.0960  211.5400  154.2280 C   0  0  0  0  0  0  0  0  0  0  0  0
  160.1750  210.2380  153.7210 C   0  0  0  0  0  3  0  0  0  0  0  0
  159.2570  212.5570  153.5380 C   0  0  0  0  0  2  0  0  0  0  0  0
  159.6010  212.5910  152.0590 C   0  0  0  0  0  2  0  0  0  0  0  0
  158.1680  214.3630  152.4420 C   0  0  0  0  0  1  0  0  0  0  0  0
  159.0900  213.8140  151.4560 N   0  0  0  0  0  0  0  0  0  0  0  0
  158.3150  213.4760  150.2490 C   0  0  1  0  0  3  0  0  0  0  0  0
  156.8600  213.8230  150.4360 C   0  0  0  0  0  3  0  0  0  0  0  0
  156.1110  214.2590  149.4240 C   0  0  0  0  0  2  0  0  0  0  0  0
  158.8150  214.1720  149.1240 O   0  0  0  0  0  0  0  0  0  0  0  0
  159.8540  213.4230  148.5160 C   0  0  2  0  0  3  0  0  0  0  0  0
  161.2420  214.0320  148.7220 C   0  0  0  0  0  2  0  0  0  0  0  0
  162.2920  213.1820  148.0310 C   0  0  0  0  0  1  0  0  0  0  0  0
  159.5740  213.0870  147.0520 C   0  0  0  0  0  2  0  0  0  0  0  0
  158.1220  212.6880  146.8680 C   0  0  0  0  0  2  0  0  0  0  0  0
  157.7680  212.8340  145.5290 O   0  0  0  0  0  1  0  0  0  0  0  0
  161.5410  203.2320  151.5330 C   0  0  0  0  0  2  0  0  0  0  0  0
  160.8100  202.6450  150.4610 O   0  0  0  0  0  0  0  0  0  0  0  0
  161.8830  204.5400  147.4760 C   0  0  0  0  0  3  0  0  0  0  0  0
  161.0310  202.9700  149.1190 C   0  0  0  0  0  0  0  0  0  0  0  0
  160.9190  202.4450  146.7500 C   0  0  0  0  0  3  0  0  0  0  0  0
  161.5270  203.6700  146.4390 C   0  0  0  0  0  0  0  0  0  0  0  0
  160.6720  202.0950  148.0810 C   0  0  0  0  0  3  0  0  0  0  0  0
  161.6360  204.1920  148.8080 C   0  0  0  0  0  3  0  0  0  0  0  0
  161.4870  205.2750  143.1380 O   0  0  0  0  0  0  0  0  0  0  0  0
  161.8080  204.0560  145.0870 N   0  0  0  0  0  2  0  0  0  0  0  0
  161.1490  205.0830  144.3370 C   0  0  0  0  0  0  0  0  0  0  0  0
  160.1470  205.8640  144.9180 O   0  0  0  0  0  0  0  0  0  0  0  0
  160.3990  206.7030  146.0340 C   0  0  0  0  0  1  0  0  0  0  0  0
  1 32  1  6  0  0  0
  1 10  1  0  0  0  0
  2  1  1  0  0  0  0
  3  5  1  0  0  0  0
  4  6  1  0  0  0  0
  6 14  1  0  0  0  0
  6  5  2  0  0  0  0
  7  4  1  0  0  0  0
  8  7  1  0  0  0  0
  8  4  1  0  0  0  0
  9  2  1  6  0  0  0
  9  4  1  0  0  0  0
  9 10  1  0  0  0  0
 10  3  1  1  0  0  0
 11 15  1  0  0  0  0
 13 15  2  0  0  0  0
 14 11  2  0  0  0  0
 15 12  1  0  0  0  0
 16 13  1  0  0  0  0
 17 16  2  0  0  0  0
 17 14  1  0  0  0  0
 18 16  1  0  0  0  0
 19 18  1  0  0  0  0
 21 19  1  0  0  0  0
 21 20  1  0  0  0  0
 22 23  1  1  0  0  0
 22 21  1  0  0  0  0
 24 23  2  0  0  0  0
 25 22  1  0  0  0  0
 26 29  1  6  0  0  0
 26 27  1  0  0  0  0
 26 25  1  0  0  0  0
 28 27  1  0  0  0  0
 30 29  1  0  0  0  0
 31 30  1  0  0  0  0
 33 32  1  0  0  0  0
 34 39  1  0  0  0  0
 35 33  1  0  0  0  0
 36 38  2  0  0  0  0
 37 36  1  0  0  0  0
 37 34  2  0  0  0  0
 38 35  1  0  0  0  0
 39 35  2  0  0  0  0
 40 42  2  0  0  0  0
 41 37  1  0  0  0  0
 42 43  1  0  0  0  0
 42 41  1  0  0  0  0
 43 44  1  0  0  0  0
M  END
>  <MODEL>
3

>  <REMARK>
 VINA RESULT:      -6.7      3.636      8.901
  Name = 
  16 active torsions:
  status: ('A' for Active; 'I' for Inactive)
    1  A    between atoms: C_1  and  C_40
    2  A    between atoms: O_3  and  C_24
    3  A    between atoms: C_7  and  C_41
    4  A    between atoms: O_8  and  C_13
    5  A    between atoms: O_8  and  C_28
    6  A    between atoms: C_9  and  O_17
    7  A    between atoms: C_13  and  C_14
    8  A    between atoms: C_13  and  C_41
    9  A    between atoms: C_16  and  C_28
   10  A    between atoms: O_17  and  C_40
   11  A    between atoms: C_18  and  N_26
   12  A    between atoms: C_18  and  C_42
   13  A    between atoms: N_19  and  C_20
   14  A    between atoms: N_26  and  C_28
   15  A    between atoms: C_29  and  C_33
   16  A    between atoms: C_37  and  C_42
                            x       y       z     vdW  Elec       q    Type
                         _______ _______ _______ _____ _____    ______ ____

>  <TORSDO>
F 16

$$$$
=
 OpenBabel11052409333D

 44 48  0  0  1  0  0  0  0  0999 V2000
  159.8530  211.3900  155.2180 C   0  0  2  0  0  3  0  0  0  0  0  0
  159.8810  210.1270  155.9210 N   0  0  0  0  0  2  0  0  0  0  0  0
  160.3560  210.8270  153.0770 N   0  0  0  0  0  2  0  0  0  0  0  0
  160.7040  208.5080  154.3800 C   0  0  0  0  0  0  0  0  0  0  0  0
  160.5060  209.6580  152.2830 C   0  0  0  0  0  3  0  0  0  0  0  0
  160.7360  208.4970  152.8670 C   0  0  0  0  0  0  0  0  0  0  0  0
  161.4520  207.3670  155.0390 C   0  0  0  0  0  2  0  0  0  0  0  0
  159.9350  207.4320  155.1280 C   0  0  0  0  0  2  0  0  0  0  0  0
  160.9770  209.7710  155.1070 N   0  0  1  0  0  0  0  0  0  0  0  0
  160.9370  210.9840  154.3520 N   0  0  2  0  0  0  0  0  0  0  0  0
  161.3260  206.0560  152.5540 C   0  0  0  0  0  3  0  0  0  0  0  0
  161.8840  203.7230  152.3010 O   0  0  0  0  0  1  0  0  0  0  0  0
  161.1690  204.9990  150.3850 C   0  0  0  0  0  3  0  0  0  0  0  0
  160.8990  207.2800  152.0150 C   0  0  0  0  0  0  0  0  0  0  0  0
  161.4620  204.9240  151.7470 C   0  0  0  0  0  0  0  0  0  0  0  0
  160.7430  206.2080  149.8280 C   0  0  0  0  0  0  0  0  0  0  0  0
  160.6000  207.3370  150.6410 C   0  0  0  0  0  3  0  0  0  0  0  0
  160.3920  206.2810  148.3840 C   0  0  0  0  0  2  0  0  0  0  0  0
  161.6260  206.6350  147.5720 C   0  0  0  0  0  2  0  0  0  0  0  0
  160.0290  206.1790  145.9640 C   0  0  0  0  0  1  0  0  0  0  0  0
  161.4670  206.1760  146.1980 N   0  0  0  0  0  0  0  0  0  0  0  0
  161.9410  204.7860  146.0910 C   0  0  1  0  0  3  0  0  0  0  0  0
  163.3880  204.6830  146.5030 C   0  0  0  0  0  3  0  0  0  0  0  0
  164.2940  204.0880  145.7280 C   0  0  0  0  0  2  0  0  0  0  0  0
  161.1670  203.9290  146.9070 O   0  0  0  0  0  0  0  0  0  0  0  0
  161.2380  202.6010  146.4170 C   0  0  2  0  0  3  0  0  0  0  0  0
  160.5660  202.4200  145.0540 C   0  0  0  0  0  2  0  0  0  0  0  0
  159.8940  201.0620  144.9790 C   0  0  0  0  0  1  0  0  0  0  0  0
  160.7800  201.5590  147.4360 C   0  0  0  0  0  2  0  0  0  0  0  0
  160.3490  202.2330  148.7250 C   0  0  0  0  0  2  0  0  0  0  0  0
  160.9100  201.5600  149.8090 O   0  0  0  0  0  1  0  0  0  0  0  0
  160.3250  212.5070  156.1390 C   0  0  0  0  0  2  0  0  0  0  0  0
  159.3730  213.5660  156.1610 O   0  0  0  0  0  0  0  0  0  0  0  0
  156.0720  213.6280  154.5020 C   0  0  0  0  0  3  0  0  0  0  0  0
  158.4030  213.7400  155.1690 C   0  0  0  0  0  0  0  0  0  0  0  0
  157.7400  214.3820  152.9230 C   0  0  0  0  0  3  0  0  0  0  0  0
  156.4010  214.0940  153.2240 C   0  0  0  0  0  0  0  0  0  0  0  0
  158.7360  214.2070  153.8880 C   0  0  0  0  0  3  0  0  0  0  0  0
  157.0670  213.4510  155.4680 C   0  0  0  0  0  3  0  0  0  0  0  0
  154.4590  214.4270  150.1260 O   0  0  0  0  0  0  0  0  0  0  0  0
  155.3510  214.2750  152.2640 N   0  0  0  0  0  2  0  0  0  0  0  0
  155.4740  214.2020  150.8390 C   0  0  0  0  0  0  0  0  0  0  0  0
  156.6970  213.8890  150.2400 O   0  0  0  0  0  0  0  0  0  0  0  0
  156.7740  213.1930  149.0050 C   0  0  0  0  0  1  0  0  0  0  0  0
  1  2  1  0  0  0  0
  1 32  1  1  0  0  0
  4  7  1  0  0  0  0
  4  9  1  0  0  0  0
  4  8  1  0  0  0  0
  5  6  2  0  0  0  0
  5  3  1  0  0  0  0
  6  4  1  0  0  0  0
  7  8  1  0  0  0  0
  9  2  1  1  0  0  0
 10  3  1  6  0  0  0
 10  9  1  0  0  0  0
 10  1  1  0  0  0  0
 13 15  1  0  0  0  0
 14 11  1  0  0  0  0
 14  6  1  0  0  0  0
 15 12  1  0  0  0  0
 15 11  2  0  0  0  0
 16 13  2  0  0  0  0
 16 17  1  0  0  0  0
 17 14  2  0  0  0  0
 18 16  1  0  0  0  0
 19 18  1  0  0  0  0
 20 21  1  0  0  0  0
 21 19  1  0  0  0  0
 22 21  1  0  0  0  0
 22 23  1  1  0  0  0
 22 25  1  0  0  0  0
 24 23  2  0  0  0  0
 26 27  1  6  0  0  0
 26 25  1  0  0  0  0
 26 29  1  0  0  0  0
 28 27  1  0  0  0  0
 29 30  1  0  0  0  0
 30 31  1  0  0  0  0
 32 33  1  0  0  0  0
 34 39  1  0  0  0  0
 35 39  2  0  0  0  0
 35 33  1  0  0  0  0
 36 37  1  0  0  0  0
 36 38  2  0  0  0  0
 37 34  2  0  0  0  0
 38 35  1  0  0  0  0
 40 42  2  0  0  0  0
 41 37  1  0  0  0  0
 42 41  1  0  0  0  0
 43 42  1  0  0  0  0
 44 43  1  0  0  0  0
M  END
>  <MODEL>
4

>  <REMARK>
 VINA RESULT:      -6.6      4.673      7.155
  Name = 
  16 active torsions:
  status: ('A' for Active; 'I' for Inactive)
    1  A    between atoms: C_1  and  C_40
    2  A    between atoms: O_3  and  C_24
    3  A    between atoms: C_7  and  C_41
    4  A    between atoms: O_8  and  C_13
    5  A    between atoms: O_8  and  C_28
    6  A    between atoms: C_9  and  O_17
    7  A    between atoms: C_13  and  C_14
    8  A    between atoms: C_13  and  C_41
    9  A    between atoms: C_16  and  C_28
   10  A    between atoms: O_17  and  C_40
   11  A    between atoms: C_18  and  N_26
   12  A    between atoms: C_18  and  C_42
   13  A    between atoms: N_19  and  C_20
   14  A    between atoms: N_26  and  C_28
   15  A    between atoms: C_29  and  C_33
   16  A    between atoms: C_37  and  C_42
                            x       y       z     vdW  Elec       q    Type
                         _______ _______ _______ _____ _____    ______ ____

>  <TORSDO>
F 16

$$$$
=
 OpenBabel11052409333D

 44 48  0  0  1  0  0  0  0  0999 V2000
  161.1880  205.9500  152.5330 C   0  0  2  0  0  3  0  0  0  0  0  0
  161.5040  206.9850  151.5730 N   0  0  0  0  0  2  0  0  0  0  0  0
  160.4800  207.1040  154.3560 N   0  0  0  0  0  2  0  0  0  0  0  0
  161.3190  209.0610  152.7240 C   0  0  0  0  0  0  0  0  0  0  0  0
  160.1320  208.4330  154.7130 C   0  0  0  0  0  3  0  0  0  0  0  0
  160.5640  209.4420  153.9790 C   0  0  0  0  0  0  0  0  0  0  0  0
  162.2330  210.1410  152.1820 C   0  0  0  0  0  2  0  0  0  0  0  0
  160.9860  209.7420  151.4070 C   0  0  0  0  0  2  0  0  0  0  0  0
  161.9990  207.7460  152.6520 N   0  0  1  0  0  0  0  0  0  0  0  0
  161.6440  206.7700  153.6330 N   0  0  2  0  0  0  0  0  0  0  0  0
  160.5970  211.3820  155.6050 C   0  0  0  0  0  3  0  0  0  0  0  0
  160.6650  213.2110  157.1750 O   0  0  0  0  0  1  0  0  0  0  0  0
  159.5010  213.4720  155.0810 C   0  0  0  0  0  3  0  0  0  0  0  0
  160.1940  210.8340  154.3760 C   0  0  0  0  0  0  0  0  0  0  0  0
  160.2530  212.6900  155.9570 C   0  0  0  0  0  0  0  0  0  0  0  0
  159.0890  212.9470  153.8530 C   0  0  0  0  0  0  0  0  0  0  0  0
  159.4410  211.6410  153.5010 C   0  0  0  0  0  3  0  0  0  0  0  0
  158.3200  213.7930  152.9000 C   0  0  0  0  0  2  0  0  0  0  0  0
  158.6840  213.4220  151.4730 C   0  0  0  0  0  2  0  0  0  0  0  0
  156.8440  213.9940  150.1980 C   0  0  0  0  0  1  0  0  0  0  0  0
  158.1860  214.4340  150.5520 N   0  0  0  0  0  0  0  0  0  0  0  0
  159.0050  214.4250  149.3280 C   0  0  1  0  0  3  0  0  0  0  0  0
  160.4490  214.1390  149.6550 C   0  0  0  0  0  3  0  0  0  0  0  0
  161.0050  212.9580  149.3870 C   0  0  0  0  0  2  0  0  0  0  0  0
  158.5350  213.4490  148.4200 O   0  0  0  0  0  0  0  0  0  0  0  0
  159.0350  213.7170  147.1210 C   0  0  2  0  0  3  0  0  0  0  0  0
  158.0360  214.4520  146.2250 C   0  0  0  0  0  2  0  0  0  0  0  0
  156.7520  213.6520  146.1090 C   0  0  0  0  0  1  0  0  0  0  0  0
  159.6340  212.4870  146.4400 C   0  0  0  0  0  2  0  0  0  0  0  0
  160.9740  212.8270  145.8160 C   0  0  0  0  0  2  0  0  0  0  0  0
  160.9280  212.5620  144.4490 O   0  0  0  0  0  1  0  0  0  0  0  0
  162.1310  204.7690  152.3500 C   0  0  0  0  0  2  0  0  0  0  0  0
  161.3890  203.5750  152.1160 O   0  0  0  0  0  0  0  0  0  0  0  0
  160.8740  201.1190  149.4040 C   0  0  0  0  0  3  0  0  0  0  0  0
  161.1630  203.0560  150.8370 C   0  0  0  0  0  0  0  0  0  0  0  0
  160.7410  203.3420  148.4630 C   0  0  0  0  0  3  0  0  0  0  0  0
  160.6870  201.9510  148.2940 C   0  0  0  0  0  0  0  0  0  0  0  0
  160.9780  203.8930  149.7250 C   0  0  0  0  0  3  0  0  0  0  0  0
  161.1110  201.6680  150.6680 C   0  0  0  0  0  3  0  0  0  0  0  0
  160.3160  201.3070  144.6990 O   0  0  0  0  0  0  0  0  0  0  0  0
  160.4330  201.3500  147.0170 N   0  0  0  0  0  2  0  0  0  0  0  0
  160.6270  201.9560  145.7340 C   0  0  0  0  0  0  0  0  0  0  0  0
  161.1500  203.2470  145.6220 O   0  0  0  0  0  0  0  0  0  0  0  0
  160.5240  204.2470  144.8330 C   0  0  0  0  0  1  0  0  0  0  0  0
  1 32  1  6  0  0  0
  1 10  1  0  0  0  0
  2  1  1  0  0  0  0
  3  5  1  0  0  0  0
  4  6  1  0  0  0  0
  6 14  1  0  0  0  0
  6  5  2  0  0  0  0
  7  4  1  0  0  0  0
  8  7  1  0  0  0  0
  8  4  1  0  0  0  0
  9  2  1  6  0  0  0
  9  4  1  0  0  0  0
  9 10  1  0  0  0  0
 10  3  1  1  0  0  0
 11 15  1  0  0  0  0
 13 15  2  0  0  0  0
 14 11  2  0  0  0  0
 15 12  1  0  0  0  0
 16 13  1  0  0  0  0
 17 16  2  0  0  0  0
 17 14  1  0  0  0  0
 18 16  1  0  0  0  0
 19 18  1  0  0  0  0
 20 21  1  0  0  0  0
 21 19  1  0  0  0  0
 22 23  1  1  0  0  0
 22 21  1  0  0  0  0
 24 23  2  0  0  0  0
 25 22  1  0  0  0  0
 26 27  1  6  0  0  0
 26 25  1  0  0  0  0
 28 27  1  0  0  0  0
 29 26  1  0  0  0  0
 30 29  1  0  0  0  0
 31 30  1  0  0  0  0
 33 32  1  0  0  0  0
 34 39  1  0  0  0  0
 35 33  1  0  0  0  0
 36 38  2  0  0  0  0
 37 36  1  0  0  0  0
 37 34  2  0  0  0  0
 38 35  1  0  0  0  0
 39 35  2  0  0  0  0
 40 42  2  0  0  0  0
 41 37  1  0  0  0  0
 42 41  1  0  0  0  0
 43 42  1  0  0  0  0
 44 43  1  0  0  0  0
M  END
>  <MODEL>
5

>  <REMARK>
 VINA RESULT:      -6.4      3.230      9.560
  Name = 
  16 active torsions:
  status: ('A' for Active; 'I' for Inactive)
    1  A    between atoms: C_1  and  C_40
    2  A    between atoms: O_3  and  C_24
    3  A    between atoms: C_7  and  C_41
    4  A    between atoms: O_8  and  C_13
    5  A    between atoms: O_8  and  C_28
    6  A    between atoms: C_9  and  O_17
    7  A    between atoms: C_13  and  C_14
    8  A    between atoms: C_13  and  C_41
    9  A    between atoms: C_16  and  C_28
   10  A    between atoms: O_17  and  C_40
   11  A    between atoms: C_18  and  N_26
   12  A    between atoms: C_18  and  C_42
   13  A    between atoms: N_19  and  C_20
   14  A    between atoms: N_26  and  C_28
   15  A    between atoms: C_29  and  C_33
   16  A    between atoms: C_37  and  C_42
                            x       y       z     vdW  Elec       q    Type
                         _______ _______ _______ _____ _____    ______ ____

>  <TORSDO>
F 16

$$$$
=
 OpenBabel11052409333D

 44 48  0  0  1  0  0  0  0  0999 V2000
  160.8530  204.1120  151.9160 C   0  0  2  0  0  3  0  0  0  0  0  0
  161.0480  205.0840  150.8610 N   0  0  0  0  0  2  0  0  0  0  0  0
  160.7440  205.3760  153.7990 N   0  0  0  0  0  2  0  0  0  0  0  0
  161.3910  207.1860  151.9270 C   0  0  0  0  0  0  0  0  0  0  0  0
  160.6510  206.7440  154.1670 C   0  0  0  0  0  3  0  0  0  0  0  0
  161.0100  207.6780  153.3070 C   0  0  0  0  0  0  0  0  0  0  0  0
  162.2680  208.1330  151.1350 C   0  0  0  0  0  2  0  0  0  0  0  0
  160.8340  207.8800  150.6960 C   0  0  0  0  0  2  0  0  0  0  0  0
  161.8740  205.7950  151.7570 N   0  0  1  0  0  0  0  0  0  0  0  0
  161.6530  204.8860  152.8380 N   0  0  2  0  0  0  0  0  0  0  0  0
  161.3560  209.5510  154.9730 C   0  0  0  0  0  3  0  0  0  0  0  0
  161.7170  211.3110  156.5840 O   0  0  0  0  0  1  0  0  0  0  0  0
  160.7380  211.8280  154.4430 C   0  0  0  0  0  3  0  0  0  0  0  0
  160.9120  209.1120  153.7150 C   0  0  0  0  0  0  0  0  0  0  0  0
  161.2700  210.8980  155.3360 C   0  0  0  0  0  0  0  0  0  0  0  0
  160.2900  211.4130  153.1860 C   0  0  0  0  0  0  0  0  0  0  0  0
  160.3850  210.0660  152.8230 C   0  0  0  0  0  3  0  0  0  0  0  0
  159.7590  212.4090  152.2160 C   0  0  0  0  0  2  0  0  0  0  0  0
  160.4210  212.2140  150.8630 C   0  0  0  0  0  2  0  0  0  0  0  0
  159.3760  214.2240  150.4060 C   0  0  0  0  0  1  0  0  0  0  0  0
  160.6280  213.5050  150.2200 N   0  0  0  0  0  0  0  0  0  0  0  0
  160.8250  213.3020  148.7740 C   0  0  1  0  0  3  0  0  0  0  0  0
  161.8610  212.2360  148.5210 C   0  0  0  0  0  3  0  0  0  0  0  0
  163.1110  212.5450  148.1790 C   0  0  0  0  0  2  0  0  0  0  0  0
  159.6120  212.9240  148.1530 O   0  0  0  0  0  0  0  0  0  0  0  0
  159.4570  213.6240  146.9310 C   0  0  2  0  0  3  0  0  0  0  0  0
  157.9950  213.8860  146.5620 C   0  0  0  0  0  2  0  0  0  0  0  0
  157.0760  213.2490  147.5870 C   0  0  0  0  0  1  0  0  0  0  0  0
  160.2480  213.0050  145.7790 C   0  0  0  0  0  2  0  0  0  0  0  0
  159.3300  212.7040  144.6080 C   0  0  0  0  0  2  0  0  0  0  0  0
  159.9610  211.8120  143.7440 O   0  0  0  0  0  1  0  0  0  0  0  0
  161.5790  202.8200  151.5690 C   0  0  0  0  0  2  0  0  0  0  0  0
  160.9200  202.1550  150.4960 O   0  0  0  0  0  0  0  0  0  0  0  0
  160.7110  202.0570  146.8080 C   0  0  0  0  0  3  0  0  0  0  0  0
  161.0530  202.5480  149.1590 C   0  0  0  0  0  0  0  0  0  0  0  0
  161.7220  204.1530  147.4640 C   0  0  0  0  0  3  0  0  0  0  0  0
  161.2700  203.2910  146.4550 C   0  0  0  0  0  0  0  0  0  0  0  0
  161.6150  203.7850  148.8080 C   0  0  0  0  0  3  0  0  0  0  0  0
  160.6040  201.6870  148.1520 C   0  0  0  0  0  3  0  0  0  0  0  0
  161.3620  205.0990  143.2610 O   0  0  0  0  0  0  0  0  0  0  0  0
  161.3510  203.6390  145.0660 N   0  0  0  0  0  2  0  0  0  0  0  0
  161.3230  204.9600  144.5130 C   0  0  0  0  0  0  0  0  0  0  0  0
  161.2510  206.0830  145.3420 O   0  0  0  0  0  0  0  0  0  0  0  0
  160.0890  206.3850  146.1000 C   0  0  0  0  0  1  0  0  0  0  0  0
  1 32  1  6  0  0  0
  1 10  1  0  0  0  0
  2  1  1  0  0  0  0
  3  5  1  0  0  0  0
  4  6  1  0  0  0  0
  6 14  1  0  0  0  0
  6  5  2  0  0  0  0
  7  4  1  0  0  0  0
  8  7  1  0  0  0  0
  8  4  1  0  0  0  0
  9  2  1  6  0  0  0
  9  4  1  0  0  0  0
  9 10  1  0  0  0  0
 10  3  1  1  0  0  0
 11 15  1  0  0  0  0
 13 15  2  0  0  0  0
 14 11  2  0  0  0  0
 15 12  1  0  0  0  0
 16 13  1  0  0  0  0
 17 16  2  0  0  0  0
 17 14  1  0  0  0  0
 18 16  1  0  0  0  0
 19 18  1  0  0  0  0
 21 20  1  0  0  0  0
 21 19  1  0  0  0  0
 22 23  1  1  0  0  0
 22 21  1  0  0  0  0
 24 23  2  0  0  0  0
 25 22  1  0  0  0  0
 26 29  1  6  0  0  0
 26 25  1  0  0  0  0
 27 26  1  0  0  0  0
 27 28  1  0  0  0  0
 30 29  1  0  0  0  0
 31 30  1  0  0  0  0
 33 32  1  0  0  0  0
 34 39  1  0  0  0  0
 35 33  1  0  0  0  0
 36 38  2  0  0  0  0
 37 34  2  0  0  0  0
 37 36  1  0  0  0  0
 38 35  1  0  0  0  0
 39 35  2  0  0  0  0
 40 42  2  0  0  0  0
 41 37  1  0  0  0  0
 42 41  1  0  0  0  0
 42 43  1  0  0  0  0
 43 44  1  0  0  0  0
M  END
>  <MODEL>
6

>  <REMARK>
 VINA RESULT:      -6.1      2.922      8.694
  Name = 
  16 active torsions:
  status: ('A' for Active; 'I' for Inactive)
    1  A    between atoms: C_1  and  C_40
    2  A    between atoms: O_3  and  C_24
    3  A    between atoms: C_7  and  C_41
    4  A    between atoms: O_8  and  C_13
    5  A    between atoms: O_8  and  C_28
    6  A    between atoms: C_9  and  O_17
    7  A    between atoms: C_13  and  C_14
    8  A    between atoms: C_13  and  C_41
    9  A    between atoms: C_16  and  C_28
   10  A    between atoms: O_17  and  C_40
   11  A    between atoms: C_18  and  N_26
   12  A    between atoms: C_18  and  C_42
   13  A    between atoms: N_19  and  C_20
   14  A    between atoms: N_26  and  C_28
   15  A    between atoms: C_29  and  C_33
   16  A    between atoms: C_37  and  C_42
                            x       y       z     vdW  Elec       q    Type
                         _______ _______ _______ _____ _____    ______ ____

>  <TORSDO>
F 16

$$$$
=
 OpenBabel11052409333D

 44 48  0  0  1  0  0  0  0  0999 V2000
  161.5350  205.4840  143.6690 C   0  0  2  0  0  3  0  0  0  0  0  0
  161.2270  206.4930  144.6600 N   0  0  0  0  0  2  0  0  0  0  0  0
  161.7210  203.5750  144.8830 N   0  0  0  0  0  2  0  0  0  0  0  0
  161.4390  205.4430  146.7870 C   0  0  0  0  0  0  0  0  0  0  0  0
  161.4690  203.1160  146.2030 C   0  0  0  0  0  3  0  0  0  0  0  0
  161.3780  203.9860  147.1910 C   0  0  0  0  0  0  0  0  0  0  0  0
  161.8510  206.3920  147.8950 C   0  0  0  0  0  2  0  0  0  0  0  0
  160.4300  206.4280  147.3540 C   0  0  0  0  0  2  0  0  0  0  0  0
  162.1180  205.8230  145.5250 N   0  0  1  0  0  0  0  0  0  0  0  0
  162.3960  204.7780  144.5900 N   0  0  2  0  0  0  0  0  0  0  0  0
  160.6010  202.1990  148.8070 C   0  0  0  0  0  3  0  0  0  0  0  0
  159.8660  200.4660  150.3140 O   0  0  0  0  0  1  0  0  0  0  0  0
  160.6750  202.5570  151.1970 C   0  0  0  0  0  3  0  0  0  0  0  0
  161.1210  203.4830  148.5750 C   0  0  0  0  0  0  0  0  0  0  0  0
  160.3780  201.7390  150.1080 C   0  0  0  0  0  0  0  0  0  0  0  0
  161.1930  203.8380  150.9890 C   0  0  0  0  0  0  0  0  0  0  0  0
  161.4220  204.2930  149.6870 C   0  0  0  0  0  3  0  0  0  0  0  0
  161.5480  204.6980  152.1510 C   0  0  0  0  0  2  0  0  0  0  0  0
  161.5910  206.1540  151.7190 C   0  0  0  0  0  2  0  0  0  0  0  0
  160.8310  206.6460  153.8450 C   0  0  0  0  0  1  0  0  0  0  0  0
  161.8510  207.0070  152.8710 N   0  0  0  0  0  0  0  0  0  0  0  0
  161.6400  208.4150  152.4920 C   0  0  1  0  0  3  0  0  0  0  0  0
  161.3570  208.5330  151.0160 C   0  0  0  0  0  3  0  0  0  0  0  0
  162.0420  209.3710  150.2390 C   0  0  0  0  0  2  0  0  0  0  0  0
  160.5580  208.9690  153.2150 O   0  0  0  0  0  0  0  0  0  0  0  0
  160.7360  210.3690  153.3500 C   0  0  2  0  0  3  0  0  0  0  0  0
  161.5370  210.7630  154.5920 C   0  0  0  0  0  2  0  0  0  0  0  0
  160.5970  211.1360  155.7230 C   0  0  0  0  0  1  0  0  0  0  0  0
  159.4320  211.1560  153.2230 C   0  0  0  0  0  2  0  0  0  0  0  0
  159.5880  212.2800  152.2160 C   0  0  0  0  0  2  0  0  0  0  0  0
  158.3300  212.6750  151.7640 O   0  0  0  0  0  1  0  0  0  0  0  0
  162.3710  206.0940  142.5520 C   0  0  0  0  0  2  0  0  0  0  0  0
  161.6170  206.1510  141.3450 O   0  0  0  0  0  0  0  0  0  0  0  0
  161.6660  209.6070  140.0380 C   0  0  0  0  0  3  0  0  0  0  0  0
  161.7060  207.2150  140.4400 C   0  0  0  0  0  0  0  0  0  0  0  0
  162.0340  208.0840  138.1960 C   0  0  0  0  0  3  0  0  0  0  0  0
  161.8990  209.3960  138.6740 C   0  0  0  0  0  0  0  0  0  0  0  0
  161.9380  207.0000  139.0720 C   0  0  0  0  0  3  0  0  0  0  0  0
  161.5690  208.5230  140.9160 C   0  0  0  0  0  3  0  0  0  0  0  0
  162.6820  212.6750  137.2210 O   0  0  0  0  0  0  0  0  0  0  0  0
  162.0040  210.5340  137.8080 N   0  0  0  0  0  2  0  0  0  0  0  0
  162.7200  211.7460  138.0720 C   0  0  0  0  0  0  0  0  0  0  0  0
  163.4490  211.9050  139.2540 O   0  0  0  0  0  0  0  0  0  0  0  0
  163.1760  212.9520  140.1710 C   0  0  0  0  0  1  0  0  0  0  0  0
  1 32  1  6  0  0  0
  1 10  1  0  0  0  0
  1  2  1  0  0  0  0
  3  5  1  0  0  0  0
  4  6  1  0  0  0  0
  4  8  1  0  0  0  0
  4  7  1  0  0  0  0
  5  6  2  0  0  0  0
  6 14  1  0  0  0  0
  8  7  1  0  0  0  0
  9  2  1  6  0  0  0
  9  4  1  0  0  0  0
 10  3  1  1  0  0  0
 10  9  1  0  0  0  0
 11 15  1  0  0  0  0
 14 11  2  0  0  0  0
 14 17  1  0  0  0  0
 15 12  1  0  0  0  0
 15 13  2  0  0  0  0
 16 13  1  0  0  0  0
 16 18  1  0  0  0  0
 17 16  2  0  0  0  0
 19 18  1  0  0  0  0
 19 21  1  0  0  0  0
 21 20  1  0  0  0  0
 22 23  1  6  0  0  0
 22 21  1  0  0  0  0
 22 25  1  0  0  0  0
 24 23  2  0  0  0  0
 25 26  1  0  0  0  0
 26 29  1  1  0  0  0
 26 27  1  0  0  0  0
 27 28  1  0  0  0  0
 30 29  1  0  0  0  0
 31 30  1  0  0  0  0
 33 32  1  0  0  0  0
 34 39  1  0  0  0  0
 35 39  2  0  0  0  0
 35 33  1  0  0  0  0
 36 37  1  0  0  0  0
 36 38  2  0  0  0  0
 37 34  2  0  0  0  0
 38 35  1  0  0  0  0
 40 42  2  0  0  0  0
 41 42  1  0  0  0  0
 41 37  1  0  0  0  0
 42 43  1  0  0  0  0
 43 44  1  0  0  0  0
M  END
>  <MODEL>
7

>  <REMARK>
 VINA RESULT:      -5.8      3.099      6.986
  Name = 
  16 active torsions:
  status: ('A' for Active; 'I' for Inactive)
    1  A    between atoms: C_1  and  C_40
    2  A    between atoms: O_3  and  C_24
    3  A    between atoms: C_7  and  C_41
    4  A    between atoms: O_8  and  C_13
    5  A    between atoms: O_8  and  C_28
    6  A    between atoms: C_9  and  O_17
    7  A    between atoms: C_13  and  C_14
    8  A    between atoms: C_13  and  C_41
    9  A    between atoms: C_16  and  C_28
   10  A    between atoms: O_17  and  C_40
   11  A    between atoms: C_18  and  N_26
   12  A    between atoms: C_18  and  C_42
   13  A    between atoms: N_19  and  C_20
   14  A    between atoms: N_26  and  C_28
   15  A    between atoms: C_29  and  C_33
   16  A    between atoms: C_37  and  C_42
                            x       y       z     vdW  Elec       q    Type
                         _______ _______ _______ _____ _____    ______ ____

>  <TORSDO>
F 16

$$$$
=
 OpenBabel11052409333D

 44 48  0  0  1  0  0  0  0  0999 V2000
  161.7990  210.0870  155.7160 C   0  0  2  0  0  3  0  0  0  0  0  0
  162.0130  210.4370  154.3290 N   0  0  0  0  0  2  0  0  0  0  0  0
  161.2290  207.8910  155.6370 N   0  0  0  0  0  2  0  0  0  0  0  0
  161.3310  208.5550  153.0400 C   0  0  0  0  0  0  0  0  0  0  0  0
  161.1980  206.8260  154.6980 C   0  0  0  0  0  3  0  0  0  0  0  0
  161.1890  207.0930  153.4060 C   0  0  0  0  0  0  0  0  0  0  0  0
  160.8130  208.9170  151.6620 C   0  0  0  0  0  2  0  0  0  0  0  0
  162.3060  208.9700  151.9510 C   0  0  0  0  0  2  0  0  0  0  0  0
  160.9260  209.5950  154.0150 N   0  0  1  0  0  0  0  0  0  0  0  0
  160.7270  209.1820  155.3690 N   0  0  2  0  0  0  0  0  0  0  0  0
  161.3690  204.6330  152.8400 C   0  0  0  0  0  3  0  0  0  0  0  0
  161.5340  202.2780  152.3450 O   0  0  0  0  0  1  0  0  0  0  0  0
  161.0360  203.8420  150.5790 C   0  0  0  0  0  3  0  0  0  0  0  0
  161.1480  205.9590  152.4340 C   0  0  0  0  0  0  0  0  0  0  0  0
  161.3150  203.5820  151.9210 C   0  0  0  0  0  0  0  0  0  0  0  0
  160.8140  205.1540  150.1540 C   0  0  0  0  0  0  0  0  0  0  0  0
  160.8600  206.2030  151.0770 C   0  0  0  0  0  3  0  0  0  0  0  0
  160.4770  205.4300  148.7310 C   0  0  0  0  0  2  0  0  0  0  0  0
  161.6310  206.1560  148.0600 C   0  0  0  0  0  2  0  0  0  0  0  0
  162.3700  206.2030  145.8710 C   0  0  0  0  0  1  0  0  0  0  0  0
  162.2070  205.3190  147.0170 N   0  0  0  0  0  0  0  0  0  0  0  0
  161.2430  204.2690  146.6460 C   0  0  1  0  0  3  0  0  0  0  0  0
  161.0690  204.2090  145.1500 C   0  0  0  0  0  3  0  0  0  0  0  0
  159.8760  204.0070  144.5930 C   0  0  0  0  0  2  0  0  0  0  0  0
  161.6760  203.0060  147.1120 O   0  0  0  0  0  0  0  0  0  0  0  0
  160.8270  201.9890  146.6090 C   0  0  2  0  0  3  0  0  0  0  0  0
  159.8080  201.4860  147.6330 C   0  0  0  0  0  2  0  0  0  0  0  0
  160.4620  201.3440  148.9950 C   0  0  0  0  0  1  0  0  0  0  0  0
  161.5890  200.8480  145.9350 C   0  0  0  0  0  2  0  0  0  0  0  0
  160.7390  199.5920  145.8990 C   0  0  0  0  0  2  0  0  0  0  0  0
  161.5680  198.4730  145.8590 O   0  0  0  0  0  1  0  0  0  0  0  0
  161.2340  211.2830  156.4710 C   0  0  0  0  0  2  0  0  0  0  0  0
  159.9320  210.9860  156.9660 O   0  0  0  0  0  0  0  0  0  0  0  0
  157.3870  213.5480  156.1830 C   0  0  0  0  0  3  0  0  0  0  0  0
  158.7690  211.5730  156.4540 C   0  0  0  0  0  0  0  0  0  0  0  0
  156.6970  211.4530  155.1930 C   0  0  0  0  0  3  0  0  0  0  0  0
  156.4620  212.8150  155.4310 C   0  0  0  0  0  0  0  0  0  0  0  0
  157.8430  210.8340  155.7010 C   0  0  0  0  0  3  0  0  0  0  0  0
  158.5330  212.9310  156.6920 C   0  0  0  0  0  3  0  0  0  0  0  0
  153.9990  214.4530  153.2570 O   0  0  0  0  0  0  0  0  0  0  0  0
  155.3050  213.4870  154.9150 N   0  0  0  0  0  2  0  0  0  0  0  0
  155.0510  213.8220  153.5450 C   0  0  0  0  0  0  0  0  0  0  0  0
  155.9500  213.4580  152.5400 O   0  0  0  0  0  0  0  0  0  0  0  0
  156.9340  214.3560  152.0500 C   0  0  0  0  0  1  0  0  0  0  0  0
  1 32  1  1  0  0  0
  2  1  1  0  0  0  0
  4  6  1  0  0  0  0
  4  9  1  0  0  0  0
  5  3  1  0  0  0  0
  6  5  2  0  0  0  0
  7  8  1  0  0  0  0
  7  4  1  0  0  0  0
  8  4  1  0  0  0  0
  9  2  1  1  0  0  0
  9 10  1  0  0  0  0
 10  3  1  6  0  0  0
 10  1  1  0  0  0  0
 13 15  1  0  0  0  0
 14 11  1  0  0  0  0
 14  6  1  0  0  0  0
 15 12  1  0  0  0  0
 15 11  2  0  0  0  0
 16 13  2  0  0  0  0
 16 17  1  0  0  0  0
 17 14  2  0  0  0  0
 18 16  1  0  0  0  0
 19 18  1  0  0  0  0
 20 21  1  0  0  0  0
 21 19  1  0  0  0  0
 22 23  1  6  0  0  0
 22 21  1  0  0  0  0
 22 25  1  0  0  0  0
 24 23  2  0  0  0  0
 26 29  1  1  0  0  0
 26 25  1  0  0  0  0
 26 27  1  0  0  0  0
 27 28  1  0  0  0  0
 30 29  1  0  0  0  0
 31 30  1  0  0  0  0
 32 33  1  0  0  0  0
 34 39  1  0  0  0  0
 35 39  2  0  0  0  0
 35 33  1  0  0  0  0
 36 37  1  0  0  0  0
 36 38  2  0  0  0  0
 37 34  2  0  0  0  0
 38 35  1  0  0  0  0
 40 42  2  0  0  0  0
 41 37  1  0  0  0  0
 42 41  1  0  0  0  0
 43 42  1  0  0  0  0
 44 43  1  0  0  0  0
M  END
>  <MODEL>
8

>  <REMARK>
 VINA RESULT:      -5.4      5.004      8.114
  Name = 
  16 active torsions:
  status: ('A' for Active; 'I' for Inactive)
    1  A    between atoms: C_1  and  C_40
    2  A    between atoms: O_3  and  C_24
    3  A    between atoms: C_7  and  C_41
    4  A    between atoms: O_8  and  C_13
    5  A    between atoms: O_8  and  C_28
    6  A    between atoms: C_9  and  O_17
    7  A    between atoms: C_13  and  C_14
    8  A    between atoms: C_13  and  C_41
    9  A    between atoms: C_16  and  C_28
   10  A    between atoms: O_17  and  C_40
   11  A    between atoms: C_18  and  N_26
   12  A    between atoms: C_18  and  C_42
   13  A    between atoms: N_19  and  C_20
   14  A    between atoms: N_26  and  C_28
   15  A    between atoms: C_29  and  C_33
   16  A    between atoms: C_37  and  C_42
                            x       y       z     vdW  Elec       q    Type
                         _______ _______ _______ _____ _____    ______ ____

>  <TORSDO>
F 16

$$$$
