=
 OpenBabel11042422373D

 33 36  0  0  1  0  0  0  0  0999 V2000
  162.1350  205.2720  148.0260 C   0  0  0  0  0  0  0  0  0  0  0  0
  157.4440  213.1700  151.6090 F   0  0  0  0  0  0  0  0  0  0  0  0
  160.7050  206.5920  149.2300 C   0  0  1  0  0  3  0  0  0  0  0  0
  161.9030  207.5780  147.0840 C   0  0  0  0  0  1  0  0  0  0  0  0
  157.8000  213.8600  153.7180 F   0  0  0  0  0  0  0  0  0  0  0  0
  162.1340  211.5730  149.0570 C   0  0  0  0  0  2  0  0  0  0  0  0
  161.0600  207.6210  150.2710 C   0  0  1  0  0  3  0  0  0  0  0  0
  163.2610  204.6910  146.8200 Cl  0  0  0  0  0  0  0  0  0  0  0  0
  160.6290  210.6250  154.3000 C   0  0  0  0  0  2  0  0  0  0  0  0
  160.3950  213.2660  148.4720 C   0  0  0  0  0  2  0  0  0  0  0  0
  161.1190  208.2640  152.5700 N   0  0  0  0  0  0  0  0  0  0  0  0
  157.8410  211.0270  153.2860 O   0  0  0  0  0  1  0  0  0  0  0  0
  161.4590  209.5350  152.2120 C   0  0  1  0  0  3  0  0  0  0  0  0
  158.3930  213.2740  152.6110 C   0  0  0  0  0  0  0  0  0  0  0  0
  161.6560  206.5010  148.0860 C   0  0  0  0  0  0  0  0  0  0  0  0
  159.8560  211.9240  154.1730 C   0  0  0  0  0  2  0  0  0  0  0  0
  160.8970  205.2260  149.8100 C   0  0  0  0  0  0  0  0  0  0  0  0
  158.9060  211.8750  152.9840 C   0  0  1  0  0  3  0  0  0  0  0  0
  159.5320  214.1850  152.1350 C   0  0  0  0  0  2  0  0  0  0  0  0
  161.3840  208.8920  149.9170 N   0  0  0  0  0  0  0  0  0  0  0  0
  161.7030  204.4860  149.1300 N   0  0  0  0  0  0  0  0  0  0  0  0
  161.7440  210.5680  153.2610 C   0  0  2  0  0  3  0  0  0  0  0  0
  160.3370  213.6250  150.9610 C   0  0  0  0  0  2  0  0  0  0  0  0
  160.5930  204.9500  151.1800 N   0  0  0  0  0  0  0  0  0  0  0  0
  160.8340  211.3540  146.9890 C   0  0  0  0  0  1  0  0  0  0  0  0
  162.0030  211.1700  150.4490 N   0  0  0  0  0  2  0  0  0  0  0  0
  161.6050  209.8520  150.8520 C   0  0  0  0  0  0  0  0  0  0  0  0
  160.5760  205.9220  152.0450 C   0  0  0  0  0  3  0  0  0  0  0  0
  160.7690  211.7900  148.4320 C   0  0  1  0  0  3  0  0  0  0  0  0
  159.5220  213.6110  149.6750 C   0  0  0  0  0  2  0  0  0  0  0  0
  160.9080  207.3040  151.6360 C   0  0  0  0  0  0  0  0  0  0  0  0
  163.0850  210.2890  153.9270 C   0  0  0  0  0  2  0  0  0  0  0  0
  163.0080  210.6050  155.4150 C   0  0  0  0  0  1  0  0  0  0  0  0
  1 15  2  0  0  0  0
  1 21  1  0  0  0  0
  2 14  1  0  0  0  0
  3 15  1  6  0  0  0
  3 17  1  0  0  0  0
  3  7  1  0  0  0  0
  4 15  1  0  0  0  0
  6 26  1  0  0  0  0
  7 20  1  6  0  0  0
  7 31  1  0  0  0  0
  8  1  1  0  0  0  0
 10 30  1  0  0  0  0
 13 27  1  6  0  0  0
 13 11  1  0  0  0  0
 13 22  1  0  0  0  0
 14 18  1  0  0  0  0
 14  5  1  0  0  0  0
 16  9  1  0  0  0  0
 17 24  1  0  0  0  0
 18 12  1  1  0  0  0
 18 16  1  0  0  0  0
 19 14  1  0  0  0  0
 20 27  2  0  0  0  0
 21 17  2  0  0  0  0
 22 32  1  1  0  0  0
 22  9  1  0  0  0  0
 23 19  1  0  0  0  0
 24 28  2  0  0  0  0
 26 27  1  0  0  0  0
 29 25  1  6  0  0  0
 29 10  1  0  0  0  0
 29  6  1  0  0  0  0
 30 23  1  0  0  0  0
 31 28  1  0  0  0  0
 31 11  2  0  0  0  0
 32 33  1  0  0  0  0
M  END
>  <MODEL>
1

>  <REMARK>
 VINA RESULT:      -3.6      0.000      0.000
  Name = 
  1 active torsions:
  status: ('A' for Active; 'I' for Inactive)
    1  A    between atoms: C_13  and  C_23
                            x       y       z     vdW  Elec       q    Type
                         _______ _______ _______ _____ _____    ______ ____

>  <TORSDO>
F 1

$$$$
=
 OpenBabel11042422373D

 33 36  0  0  1  0  0  0  0  0999 V2000
  162.5280  207.3150  149.8590 C   0  0  0  0  0  0  0  0  0  0  0  0
  155.3730  212.4920  154.2430 F   0  0  0  0  0  0  0  0  0  0  0  0
  160.7240  207.8680  151.1530 C   0  0  1  0  0  3  0  0  0  0  0  0
  161.5130  209.5160  149.2370 C   0  0  0  0  0  1  0  0  0  0  0  0
  155.4590  212.9360  156.4450 F   0  0  0  0  0  0  0  0  0  0  0  0
  160.3360  213.0030  151.7590 C   0  0  0  0  0  2  0  0  0  0  0  0
  160.6950  208.7860  152.3460 C   0  0  1  0  0  3  0  0  0  0  0  0
  163.7900  207.3440  148.6480 Cl  0  0  0  0  0  0  0  0  0  0  0  0
  159.2330  210.8180  156.7260 C   0  0  0  0  0  2  0  0  0  0  0  0
  158.1190  214.0650  151.3210 C   0  0  0  0  0  2  0  0  0  0  0  0
  160.5190  209.0570  154.7120 N   0  0  0  0  0  0  0  0  0  0  0  0
  156.4830  210.3880  155.6230 O   0  0  0  0  0  1  0  0  0  0  0  0
  160.3980  210.4070  154.5550 C   0  0  1  0  0  3  0  0  0  0  0  0
  156.2230  212.7630  155.3010 C   0  0  0  0  0  0  0  0  0  0  0  0
  161.6520  208.2820  150.0620 C   0  0  0  0  0  0  0  0  0  0  0  0
  158.0580  211.7780  156.7390 C   0  0  0  0  0  2  0  0  0  0  0  0
  161.3760  206.5790  151.5470 C   0  0  0  0  0  0  0  0  0  0  0  0
  157.1890  211.5850  155.5040 C   0  0  1  0  0  3  0  0  0  0  0  0
  156.9770  214.0700  155.0220 C   0  0  0  0  0  2  0  0  0  0  0  0
  160.5600  210.1300  152.1920 N   0  0  0  0  0  0  0  0  0  0  0  0
  162.3910  206.2720  150.8150 N   0  0  0  0  0  0  0  0  0  0  0  0
  160.3030  211.3040  155.7530 C   0  0  2  0  0  3  0  0  0  0  0  0
  157.9310  214.0030  153.8280 C   0  0  0  0  0  2  0  0  0  0  0  0
  161.1810  206.0130  152.8450 N   0  0  0  0  0  0  0  0  0  0  0  0
  159.2000  212.6650  149.6110 C   0  0  0  0  0  1  0  0  0  0  0  0
  160.3470  212.3740  153.0710 N   0  0  0  0  0  2  0  0  0  0  0  0
  160.4300  210.9550  153.2630 C   0  0  0  0  0  0  0  0  0  0  0  0
  160.8240  206.7780  153.8360 C   0  0  0  0  0  3  0  0  0  0  0  0
  158.9820  212.8300  151.0950 C   0  0  1  0  0  3  0  0  0  0  0  0
  157.1770  213.9040  152.5090 C   0  0  0  0  0  2  0  0  0  0  0  0
  160.6580  208.2350  153.6430 C   0  0  0  0  0  0  0  0  0  0  0  0
  161.6550  211.4040  156.4470 C   0  0  0  0  0  2  0  0  0  0  0  0
  161.9220  210.1430  157.2600 C   0  0  0  0  0  1  0  0  0  0  0  0
  1 15  2  0  0  0  0
  1 21  1  0  0  0  0
  2 14  1  0  0  0  0
  3 15  1  6  0  0  0
  3 17  1  0  0  0  0
  3  7  1  0  0  0  0
  4 15  1  0  0  0  0
  6 26  1  0  0  0  0
  7 20  1  6  0  0  0
  7 31  1  0  0  0  0
  8  1  1  0  0  0  0
  9 16  1  0  0  0  0
 10 30  1  0  0  0  0
 13 27  1  1  0  0  0
 13 11  1  0  0  0  0
 13 22  1  0  0  0  0
 14 18  1  0  0  0  0
 14  5  1  0  0  0  0
 17 24  1  0  0  0  0
 18 12  1  1  0  0  0
 18 16  1  0  0  0  0
 19 14  1  0  0  0  0
 20 27  2  0  0  0  0
 21 17  2  0  0  0  0
 22 32  1  1  0  0  0
 22  9  1  0  0  0  0
 23 19  1  0  0  0  0
 24 28  2  0  0  0  0
 26 27  1  0  0  0  0
 29 25  1  6  0  0  0
 29 10  1  0  0  0  0
 29  6  1  0  0  0  0
 30 23  1  0  0  0  0
 31 28  1  0  0  0  0
 31 11  2  0  0  0  0
 32 33  1  0  0  0  0
M  END
>  <MODEL>
2

>  <REMARK>
 VINA RESULT:      -3.2      2.186      3.001
  Name = 
  1 active torsions:
  status: ('A' for Active; 'I' for Inactive)
    1  A    between atoms: C_13  and  C_23
                            x       y       z     vdW  Elec       q    Type
                         _______ _______ _______ _____ _____    ______ ____

>  <TORSDO>
F 1

$$$$
