=
 OpenBabel11042422313D

 26 28  0  0  1  0  0  0  0  0999 V2000
  160.7990  201.4360  149.7660 C   0  0  0  0  0  3  0  0  0  0  0  0
  161.4020  204.3970  147.8350 C   0  0  0  0  0  0  0  0  0  0  0  0
  161.5870  202.6170  151.7120 C   0  0  0  0  0  3  0  0  0  0  0  0
  160.7350  202.7290  149.0870 C   0  0  1  0  0  3  0  0  0  0  0  0
  160.5940  203.9840  149.9140 C   0  0  2  0  0  3  0  0  0  0  0  0
  161.5870  206.5950  147.5530 C   0  0  0  0  0  3  0  0  0  0  0  0
  161.2100  206.2820  148.8620 C   0  0  0  0  0  0  0  0  0  0  0  0
  161.7060  205.3600  146.8970 C   0  0  0  0  0  0  0  0  0  0  0  0
  161.1980  202.9560  147.8470 C   0  0  0  0  0  2  0  0  0  0  0  0
  161.1550  204.9500  149.0010 N   0  0  0  0  0  0  0  0  0  0  0  0
  161.1810  201.4180  151.0120 N   0  0  0  0  0  0  0  0  0  0  0  0
  161.3800  203.8380  151.1880 C   0  0  0  0  0  3  0  0  0  0  0  0
  161.2420  205.7890  144.4730 N   0  0  0  0  0  2  0  0  0  0  0  0
  163.0030  204.4190  145.1560 O   0  0  0  0  0  0  0  0  0  0  0  0
  161.5190  205.6200  143.0560 C   0  0  0  0  0  1  0  0  0  0  0  0
  162.0300  205.1540  145.4790 C   0  0  0  0  0  0  0  0  0  0  0  0
  160.9040  207.2600  149.9420 C   0  0  0  0  0  2  0  0  0  0  0  0
  162.1450  207.7550  150.5250 N   0  0  0  0  0  0  0  0  0  0  0  0
  162.1260  209.2110  150.4750 C   0  0  0  0  0  1  0  0  0  0  0  0
  162.2650  207.2970  151.9150 C   0  0  0  0  0  2  0  0  0  0  0  0
  160.9340  207.2390  152.6740 C   0  0  0  0  0  2  0  0  0  0  0  0
  161.1370  206.6330  154.0480 C   0  0  0  0  0  2  0  0  0  0  0  0
  161.2250  207.6950  155.0360 N   0  0  0  0  0  2  0  0  0  0  0  0
  160.3790  208.9640  157.0400 C   0  0  0  0  0  1  0  0  0  0  0  0
  160.2390  207.8610  156.0550 C   0  0  0  0  0  0  0  0  0  0  0  0
  159.2520  207.0820  156.1270 O   0  0  0  0  0  0  0  0  0  0  0  0
  1 11  2  0  0  0  0
  2  9  1  0  0  0  0
  2 10  1  0  0  0  0
  4  9  1  1  0  0  0
  4  1  1  0  0  0  0
  4  5  1  0  0  0  0
  5 12  1  1  0  0  0
  6  7  2  0  0  0  0
  7 10  1  0  0  0  0
  7 17  1  0  0  0  0
  8  6  1  0  0  0  0
  8  2  2  0  0  0  0
 10  5  1  0  0  0  0
 11  3  1  0  0  0  0
 12  3  2  0  0  0  0
 13 16  1  0  0  0  0
 14 16  2  0  0  0  0
 15 13  1  0  0  0  0
 16  8  1  0  0  0  0
 17 18  1  0  0  0  0
 18 20  1  0  0  0  0
 19 18  1  0  0  0  0
 20 21  1  0  0  0  0
 21 22  1  0  0  0  0
 22 23  1  0  0  0  0
 23 25  1  0  0  0  0
 25 26  2  0  0  0  0
 25 24  1  0  0  0  0
M  END
>  <MODEL>
1

>  <REMARK>
 VINA RESULT:      -7.7      0.000      0.000
  Name = 
  7 active torsions:
  status: ('A' for Active; 'I' for Inactive)
    1  A    between atoms: C_2  and  N_10
    2  A    between atoms: C_2  and  C_24
    3  A    between atoms: N_3  and  C_17
    4  A    between atoms: N_10  and  C_13
    5  A    between atoms: C_13  and  C_15
    6  A    between atoms: C_16  and  C_19
    7  A    between atoms: C_17  and  C_24
                            x       y       z     vdW  Elec       q    Type
                         _______ _______ _______ _____ _____    ______ ____

>  <TORSDO>
F 7

$$$$
=
 OpenBabel11042422313D

 26 28  0  0  1  0  0  0  0  0999 V2000
  161.0400  202.8800  151.9330 C   0  0  0  0  0  3  0  0  0  0  0  0
  161.1860  206.4120  151.3340 C   0  0  0  0  0  0  0  0  0  0  0  0
  160.5080  202.5670  149.6050 C   0  0  0  0  0  3  0  0  0  0  0  0
  161.4190  204.2510  151.5960 C   0  0  1  0  0  3  0  0  0  0  0  0
  161.8320  204.5690  150.1800 C   0  0  2  0  0  3  0  0  0  0  0  0
  161.5260  208.2120  150.0730 C   0  0  0  0  0  3  0  0  0  0  0  0
  161.7920  207.0380  149.3630 C   0  0  0  0  0  0  0  0  0  0  0  0
  161.1360  207.7890  151.3540 C   0  0  0  0  0  0  0  0  0  0  0  0
  161.0480  205.3320  152.3000 C   0  0  0  0  0  2  0  0  0  0  0  0
  161.5310  205.9790  150.1420 N   0  0  0  0  0  0  0  0  0  0  0  0
  160.6380  202.1020  150.9680 N   0  0  0  0  0  0  0  0  0  0  0  0
  161.0060  203.7560  149.2210 C   0  0  0  0  0  3  0  0  0  0  0  0
  161.1200  208.2300  153.8200 N   0  0  0  0  0  2  0  0  0  0  0  0
  160.2420  209.7660  152.2980 O   0  0  0  0  0  0  0  0  0  0  0  0
  160.8140  209.0460  154.9830 C   0  0  0  0  0  1  0  0  0  0  0  0
  160.8030  208.6540  152.4940 C   0  0  0  0  0  0  0  0  0  0  0  0
  162.2950  206.9580  147.9640 C   0  0  0  0  0  2  0  0  0  0  0  0
  161.5080  205.9880  147.2120 N   0  0  0  0  0  0  0  0  0  0  0  0
  160.4690  206.7050  146.4850 C   0  0  0  0  0  1  0  0  0  0  0  0
  162.3710  205.2590  146.2740 C   0  0  0  0  0  2  0  0  0  0  0  0
  161.7970  205.1360  144.8580 C   0  0  0  0  0  2  0  0  0  0  0  0
  160.8130  203.9860  144.7860 C   0  0  0  0  0  2  0  0  0  0  0  0
  161.2280  202.9370  145.7010 N   0  0  0  0  0  2  0  0  0  0  0  0
  161.1060  200.5990  146.6300 C   0  0  0  0  0  1  0  0  0  0  0  0
  160.6440  201.6350  145.6710 C   0  0  0  0  0  0  0  0  0  0  0  0
  159.7410  201.3540  144.8380 O   0  0  0  0  0  0  0  0  0  0  0  0
  2  8  2  0  0  0  0
  2  9  1  0  0  0  0
  3 11  1  0  0  0  0
  4  1  1  6  0  0  0
  4  9  1  0  0  0  0
  5 12  1  6  0  0  0
  5  4  1  0  0  0  0
  6  8  1  0  0  0  0
  7  6  2  0  0  0  0
  7 10  1  0  0  0  0
  8 16  1  0  0  0  0
 10  5  1  0  0  0  0
 10  2  1  0  0  0  0
 11  1  2  0  0  0  0
 12  3  2  0  0  0  0
 13 15  1  0  0  0  0
 14 16  2  0  0  0  0
 16 13  1  0  0  0  0
 17  7  1  0  0  0  0
 18 17  1  0  0  0  0
 19 18  1  0  0  0  0
 20 18  1  0  0  0  0
 21 20  1  0  0  0  0
 22 21  1  0  0  0  0
 22 23  1  0  0  0  0
 25 23  1  0  0  0  0
 25 24  1  0  0  0  0
 26 25  2  0  0  0  0
M  END
>  <MODEL>
2

>  <REMARK>
 VINA RESULT:      -7.3      1.984      7.188
  Name = 
  7 active torsions:
  status: ('A' for Active; 'I' for Inactive)
    1  A    between atoms: C_2  and  N_10
    2  A    between atoms: C_2  and  C_24
    3  A    between atoms: N_3  and  C_17
    4  A    between atoms: N_10  and  C_13
    5  A    between atoms: C_13  and  C_15
    6  A    between atoms: C_16  and  C_19
    7  A    between atoms: C_17  and  C_24
                            x       y       z     vdW  Elec       q    Type
                         _______ _______ _______ _____ _____    ______ ____

>  <TORSDO>
F 7

$$$$
=
 OpenBabel11042422313D

 26 28  0  0  1  0  0  0  0  0999 V2000
  161.0090  202.5220  151.7950 C   0  0  0  0  0  3  0  0  0  0  0  0
  161.2290  206.0230  152.5370 C   0  0  0  0  0  0  0  0  0  0  0  0
  160.6340  203.0960  149.4860 C   0  0  0  0  0  3  0  0  0  0  0  0
  161.4230  203.9080  152.0060 C   0  0  1  0  0  3  0  0  0  0  0  0
  161.9340  204.7060  150.8310 C   0  0  2  0  0  3  0  0  0  0  0  0
  161.6700  208.1460  152.0440 C   0  0  0  0  0  3  0  0  0  0  0  0
  161.9720  207.3030  150.9720 C   0  0  0  0  0  0  0  0  0  0  0  0
  161.1890  207.3000  153.0560 C   0  0  0  0  0  0  0  0  0  0  0  0
  161.0150  204.6710  153.0320 C   0  0  0  0  0  2  0  0  0  0  0  0
  161.6490  206.0420  151.2930 N   0  0  0  0  0  0  0  0  0  0  0  0
  160.6660  202.1620  150.5900 N   0  0  0  0  0  0  0  0  0  0  0  0
  161.1680  204.3260  149.5940 C   0  0  0  0  0  3  0  0  0  0  0  0
  161.2570  208.9360  154.9530 N   0  0  0  0  0  2  0  0  0  0  0  0
  160.0280  206.9560  155.0890 O   0  0  0  0  0  0  0  0  0  0  0  0
  160.8890  209.3810  156.2860 C   0  0  0  0  0  1  0  0  0  0  0  0
  160.7870  207.7010  154.4110 C   0  0  0  0  0  0  0  0  0  0  0  0
  162.5690  207.7200  149.6720 C   0  0  0  0  0  2  0  0  0  0  0  0
  161.5440  208.3250  148.8310 N   0  0  0  0  0  0  0  0  0  0  0  0
  161.8980  209.7210  148.6090 C   0  0  0  0  0  1  0  0  0  0  0  0
  161.4610  207.6140  147.5490 C   0  0  0  0  0  2  0  0  0  0  0  0
  162.4090  206.4150  147.4350 C   0  0  0  0  0  2  0  0  0  0  0  0
  162.2830  205.7710  146.0680 C   0  0  0  0  0  2  0  0  0  0  0  0
  162.0300  204.3490  146.2250 N   0  0  0  0  0  2  0  0  0  0  0  0
  160.8850  202.1960  145.5970 C   0  0  0  0  0  1  0  0  0  0  0  0
  161.1050  203.6510  145.3920 C   0  0  0  0  0  0  0  0  0  0  0  0
  160.4740  204.2550  144.4840 O   0  0  0  0  0  0  0  0  0  0  0  0
  2  9  1  0  0  0  0
  2  8  2  0  0  0  0
  3 12  2  0  0  0  0
  3 11  1  0  0  0  0
  4  1  1  6  0  0  0
  4  9  1  0  0  0  0
  5 12  1  6  0  0  0
  5 10  1  0  0  0  0
  5  4  1  0  0  0  0
  6  8  1  0  0  0  0
  7 10  1  0  0  0  0
  7  6  2  0  0  0  0
  8 16  1  0  0  0  0
 10  2  1  0  0  0  0
 11  1  2  0  0  0  0
 13 15  1  0  0  0  0
 16 13  1  0  0  0  0
 16 14  2  0  0  0  0
 17  7  1  0  0  0  0
 18 17  1  0  0  0  0
 19 18  1  0  0  0  0
 20 18  1  0  0  0  0
 21 20  1  0  0  0  0
 22 23  1  0  0  0  0
 22 21  1  0  0  0  0
 25 24  1  0  0  0  0
 25 23  1  0  0  0  0
 26 25  2  0  0  0  0
M  END
>  <MODEL>
3

>  <REMARK>
 VINA RESULT:      -7.3      1.586      7.184
  Name = 
  7 active torsions:
  status: ('A' for Active; 'I' for Inactive)
    1  A    between atoms: C_2  and  N_10
    2  A    between atoms: C_2  and  C_24
    3  A    between atoms: N_3  and  C_17
    4  A    between atoms: N_10  and  C_13
    5  A    between atoms: C_13  and  C_15
    6  A    between atoms: C_16  and  C_19
    7  A    between atoms: C_17  and  C_24
                            x       y       z     vdW  Elec       q    Type
                         _______ _______ _______ _____ _____    ______ ____

>  <TORSDO>
F 7

$$$$
=
 OpenBabel11042422313D

 26 28  0  0  1  0  0  0  0  0999 V2000
  161.1580  204.0900  152.5220 C   0  0  0  0  0  3  0  0  0  0  0  0
  161.5030  207.1880  150.7500 C   0  0  0  0  0  0  0  0  0  0  0  0
  160.3960  203.0730  150.4760 C   0  0  0  0  0  3  0  0  0  0  0  0
  161.6030  205.2260  151.7170 C   0  0  1  0  0  3  0  0  0  0  0  0
  161.9070  205.0120  150.2540 C   0  0  2  0  0  3  0  0  0  0  0  0
  161.8540  208.4230  148.9340 C   0  0  0  0  0  3  0  0  0  0  0  0
  161.9700  207.0590  148.6510 C   0  0  0  0  0  0  0  0  0  0  0  0
  161.5530  208.4910  150.3030 C   0  0  0  0  0  0  0  0  0  0  0  0
  161.3760  206.5110  152.0320 C   0  0  0  0  0  2  0  0  0  0  0  0
  161.7050  206.3510  149.7580 N   0  0  0  0  0  0  0  0  0  0  0  0
  160.6150  203.0780  151.9060 N   0  0  0  0  0  0  0  0  0  0  0  0
  160.9410  204.0110  149.6810 C   0  0  0  0  0  3  0  0  0  0  0  0
  160.5370  209.7030  152.2470 N   0  0  0  0  0  2  0  0  0  0  0  0
  161.9980  210.7680  150.7710 O   0  0  0  0  0  0  0  0  0  0  0  0
  160.3400  210.8840  153.0700 C   0  0  0  0  0  1  0  0  0  0  0  0
  161.3870  209.7140  151.1000 C   0  0  0  0  0  0  0  0  0  0  0  0
  162.3360  206.4680  147.3340 C   0  0  0  0  0  2  0  0  0  0  0  0
  161.2850  205.5600  146.8910 N   0  0  0  0  0  0  0  0  0  0  0  0
  160.4720  206.2490  145.8990 C   0  0  0  0  0  1  0  0  0  0  0  0
  161.8790  204.3500  146.3070 C   0  0  0  0  0  2  0  0  0  0  0  0
  161.1480  203.8290  145.0650 C   0  0  0  0  0  2  0  0  0  0  0  0
  160.5820  202.4480  145.3270 C   0  0  0  0  0  2  0  0  0  0  0  0
  160.8330  202.0770  146.7100 N   0  0  0  0  0  2  0  0  0  0  0  0
  161.4540  200.4260  148.5080 C   0  0  0  0  0  1  0  0  0  0  0  0
  161.2100  200.7500  147.0790 C   0  0  0  0  0  0  0  0  0  0  0  0
  161.3370  199.8510  146.2050 O   0  0  0  0  0  0  0  0  0  0  0  0
  2  9  1  0  0  0  0
  3 11  1  0  0  0  0
  4  9  1  6  0  0  0
  4  1  1  0  0  0  0
  5 12  1  6  0  0  0
  5  4  1  0  0  0  0
  6  8  1  0  0  0  0
  7  6  2  0  0  0  0
  7 10  1  0  0  0  0
  8  2  2  0  0  0  0
  8 16  1  0  0  0  0
 10  5  1  0  0  0  0
 10  2  1  0  0  0  0
 11  1  2  0  0  0  0
 12  3  2  0  0  0  0
 13 15  1  0  0  0  0
 14 16  2  0  0  0  0
 16 13  1  0  0  0  0
 17  7  1  0  0  0  0
 18 17  1  0  0  0  0
 19 18  1  0  0  0  0
 20 18  1  0  0  0  0
 21 22  1  0  0  0  0
 21 20  1  0  0  0  0
 22 23  1  0  0  0  0
 23 25  1  0  0  0  0
 25 24  1  0  0  0  0
 26 25  2  0  0  0  0
M  END
>  <MODEL>
4

>  <REMARK>
 VINA RESULT:      -7.1      2.613      6.931
  Name = 
  7 active torsions:
  status: ('A' for Active; 'I' for Inactive)
    1  A    between atoms: C_2  and  N_10
    2  A    between atoms: C_2  and  C_24
    3  A    between atoms: N_3  and  C_17
    4  A    between atoms: N_10  and  C_13
    5  A    between atoms: C_13  and  C_15
    6  A    between atoms: C_16  and  C_19
    7  A    between atoms: C_17  and  C_24
                            x       y       z     vdW  Elec       q    Type
                         _______ _______ _______ _____ _____    ______ ____

>  <TORSDO>
F 7

$$$$
=
 OpenBabel11042422313D

 26 28  0  0  1  0  0  0  0  0999 V2000
  161.8120  204.2180  145.2120 C   0  0  0  0  0  3  0  0  0  0  0  0
  161.2110  204.2650  148.7460 C   0  0  0  0  0  0  0  0  0  0  0  0
  160.4630  206.2040  145.0160 C   0  0  0  0  0  3  0  0  0  0  0  0
  161.8310  204.4510  146.6550 C   0  0  1  0  0  3  0  0  0  0  0  0
  161.6070  205.8500  147.1740 C   0  0  2  0  0  3  0  0  0  0  0  0
  160.7720  205.2610  150.6850 C   0  0  0  0  0  3  0  0  0  0  0  0
  160.9020  206.1950  149.6530 C   0  0  0  0  0  0  0  0  0  0  0  0
  160.9770  204.0110  150.0810 C   0  0  0  0  0  0  0  0  0  0  0  0
  161.6160  203.4990  147.5760 C   0  0  0  0  0  2  0  0  0  0  0  0
  161.1190  205.5510  148.4980 N   0  0  0  0  0  0  0  0  0  0  0  0
  161.1790  205.0760  144.4620 N   0  0  0  0  0  0  0  0  0  0  0  0
  160.5960  206.5520  146.3080 C   0  0  0  0  0  3  0  0  0  0  0  0
  160.7710  201.5150  150.0060 N   0  0  0  0  0  2  0  0  0  0  0  0
  161.2180  202.6460  151.9980 O   0  0  0  0  0  0  0  0  0  0  0  0
  160.7820  200.2010  150.6260 C   0  0  0  0  0  1  0  0  0  0  0  0
  160.9980  202.7080  150.7580 C   0  0  0  0  0  0  0  0  0  0  0  0
  160.8240  207.6750  149.7980 C   0  0  0  0  0  2  0  0  0  0  0  0
  162.1680  208.2370  149.8460 N   0  0  0  0  0  0  0  0  0  0  0  0
  162.3720  209.0410  148.6490 C   0  0  0  0  0  1  0  0  0  0  0  0
  162.3220  209.0690  151.0470 C   0  0  0  0  0  2  0  0  0  0  0  0
  161.0840  209.1050  151.9490 C   0  0  0  0  0  2  0  0  0  0  0  0
  161.4930  209.2390  153.4020 C   0  0  0  0  0  2  0  0  0  0  0  0
  160.6800  208.3520  154.2170 N   0  0  0  0  0  2  0  0  0  0  0  0
  160.0980  207.2070  156.3840 C   0  0  0  0  0  1  0  0  0  0  0  0
  160.9630  208.1250  155.5970 C   0  0  0  0  0  0  0  0  0  0  0  0
  161.9370  208.6960  156.1560 O   0  0  0  0  0  0  0  0  0  0  0  0
  2  8  2  0  0  0  0
  3 12  2  0  0  0  0
  4  1  1  6  0  0  0
  4  5  1  0  0  0  0
  4  9  1  0  0  0  0
  5 12  1  6  0  0  0
  5 10  1  0  0  0  0
  7 17  1  0  0  0  0
  7  6  2  0  0  0  0
  8  6  1  0  0  0  0
  8 16  1  0  0  0  0
  9  2  1  0  0  0  0
 10  2  1  0  0  0  0
 10  7  1  0  0  0  0
 11  3  1  0  0  0  0
 11  1  2  0  0  0  0
 13 15  1  0  0  0  0
 13 16  1  0  0  0  0
 16 14  2  0  0  0  0
 17 18  1  0  0  0  0
 18 20  1  0  0  0  0
 19 18  1  0  0  0  0
 20 21  1  0  0  0  0
 21 22  1  0  0  0  0
 22 23  1  0  0  0  0
 23 25  1  0  0  0  0
 25 26  2  0  0  0  0
 25 24  1  0  0  0  0
M  END
>  <MODEL>
5

>  <REMARK>
 VINA RESULT:      -6.8      1.976      4.322
  Name = 
  7 active torsions:
  status: ('A' for Active; 'I' for Inactive)
    1  A    between atoms: C_2  and  N_10
    2  A    between atoms: C_2  and  C_24
    3  A    between atoms: N_3  and  C_17
    4  A    between atoms: N_10  and  C_13
    5  A    between atoms: C_13  and  C_15
    6  A    between atoms: C_16  and  C_19
    7  A    between atoms: C_17  and  C_24
                            x       y       z     vdW  Elec       q    Type
                         _______ _______ _______ _____ _____    ______ ____

>  <TORSDO>
F 7

$$$$
=
 OpenBabel11042422313D

 26 28  0  0  1  0  0  0  0  0999 V2000
  160.8070  201.6750  150.1290 C   0  0  0  0  0  3  0  0  0  0  0  0
  161.4410  204.5140  148.0330 C   0  0  0  0  0  0  0  0  0  0  0  0
  161.6580  202.9370  151.9950 C   0  0  0  0  0  3  0  0  0  0  0  0
  160.7590  202.9310  149.3830 C   0  0  1  0  0  3  0  0  0  0  0  0
  160.6620  204.2310  150.1450 C   0  0  2  0  0  3  0  0  0  0  0  0
  161.6710  206.6890  147.6310 C   0  0  0  0  0  3  0  0  0  0  0  0
  161.3110  206.4540  148.9610 C   0  0  0  0  0  0  0  0  0  0  0  0
  161.7500  205.4190  147.0400 C   0  0  0  0  0  0  0  0  0  0  0  0
  161.2040  203.0810  148.1260 C   0  0  0  0  0  2  0  0  0  0  0  0
  161.2290  205.1330  149.1720 N   0  0  0  0  0  0  0  0  0  0  0  0
  161.2110  201.7130  151.3670 N   0  0  0  0  0  0  0  0  0  0  0  0
  161.4690  204.1340  151.4110 C   0  0  0  0  0  3  0  0  0  0  0  0
  161.3290  205.8190  144.6030 N   0  0  0  0  0  2  0  0  0  0  0  0
  162.9230  204.2780  145.3310 O   0  0  0  0  0  0  0  0  0  0  0  0
  161.5790  205.5730  143.1930 C   0  0  0  0  0  1  0  0  0  0  0  0
  162.0420  205.1300  145.6300 C   0  0  0  0  0  0  0  0  0  0  0  0
  161.0480  207.4960  149.9930 C   0  0  0  0  0  2  0  0  0  0  0  0
  162.1870  208.4010  150.0820 N   0  0  0  0  0  0  0  0  0  0  0  0
  161.9590  209.5160  149.1730 C   0  0  0  0  0  1  0  0  0  0  0  0
  162.3330  208.8920  151.4590 C   0  0  0  0  0  2  0  0  0  0  0  0
  161.0030  209.1530  152.1760 C   0  0  0  0  0  2  0  0  0  0  0  0
  161.2220  210.0410  153.3840 C   0  0  0  0  0  2  0  0  0  0  0  0
  160.0210  210.0460  154.2030 N   0  0  0  0  0  2  0  0  0  0  0  0
  158.4580  211.0920  155.8780 C   0  0  0  0  0  1  0  0  0  0  0  0
  159.6990  211.1390  155.0620 C   0  0  0  0  0  0  0  0  0  0  0  0
  160.4550  212.1440  155.1360 O   0  0  0  0  0  0  0  0  0  0  0  0
  1 11  2  0  0  0  0
  2  9  1  0  0  0  0
  2 10  1  0  0  0  0
  4  9  1  1  0  0  0
  4  1  1  0  0  0  0
  4  5  1  0  0  0  0
  5 12  1  1  0  0  0
  6  7  2  0  0  0  0
  7 10  1  0  0  0  0
  7 17  1  0  0  0  0
  8  6  1  0  0  0  0
  8  2  2  0  0  0  0
 10  5  1  0  0  0  0
 11  3  1  0  0  0  0
 12  3  2  0  0  0  0
 13 16  1  0  0  0  0
 14 16  2  0  0  0  0
 15 13  1  0  0  0  0
 16  8  1  0  0  0  0
 17 18  1  0  0  0  0
 18 20  1  0  0  0  0
 19 18  1  0  0  0  0
 20 21  1  0  0  0  0
 21 22  1  0  0  0  0
 22 23  1  0  0  0  0
 23 25  1  0  0  0  0
 25 26  2  0  0  0  0
 25 24  1  0  0  0  0
M  END
>  <MODEL>
6

>  <REMARK>
 VINA RESULT:      -6.7      1.717      1.754
  Name = 
  7 active torsions:
  status: ('A' for Active; 'I' for Inactive)
    1  A    between atoms: C_2  and  N_10
    2  A    between atoms: C_2  and  C_24
    3  A    between atoms: N_3  and  C_17
    4  A    between atoms: N_10  and  C_13
    5  A    between atoms: C_13  and  C_15
    6  A    between atoms: C_16  and  C_19
    7  A    between atoms: C_17  and  C_24
                            x       y       z     vdW  Elec       q    Type
                         _______ _______ _______ _____ _____    ______ ____

>  <TORSDO>
F 7

$$$$
=
 OpenBabel11042422313D

 26 28  0  0  1  0  0  0  0  0999 V2000
  161.7230  206.2730  153.3190 C   0  0  0  0  0  3  0  0  0  0  0  0
  161.9360  208.0020  150.1850 C   0  0  0  0  0  0  0  0  0  0  0  0
  160.7560  204.4010  152.1520 C   0  0  0  0  0  3  0  0  0  0  0  0
  162.1030  206.8080  152.0130 C   0  0  1  0  0  3  0  0  0  0  0  0
  162.2620  205.8590  150.8510 C   0  0  2  0  0  3  0  0  0  0  0  0
  162.1280  208.1120  147.9730 C   0  0  0  0  0  3  0  0  0  0  0  0
  162.1980  206.7910  148.4230 C   0  0  0  0  0  0  0  0  0  0  0  0
  161.9600  208.8890  149.1300 C   0  0  0  0  0  0  0  0  0  0  0  0
  161.9240  208.0850  151.6390 C   0  0  0  0  0  2  0  0  0  0  0  0
  162.0320  206.7660  149.7530 N   0  0  0  0  0  0  0  0  0  0  0  0
  161.1110  205.1230  153.3540 N   0  0  0  0  0  0  0  0  0  0  0  0
  161.2330  204.7660  150.9490 C   0  0  0  0  0  3  0  0  0  0  0  0
  161.5780  211.1000  148.0160 N   0  0  0  0  0  2  0  0  0  0  0  0
  162.0960  210.9490  150.2860 O   0  0  0  0  0  0  0  0  0  0  0  0
  161.4930  212.5510  148.0230 C   0  0  0  0  0  1  0  0  0  0  0  0
  161.8880  210.3540  149.1930 C   0  0  0  0  0  0  0  0  0  0  0  0
  162.4290  205.5890  147.5750 C   0  0  0  0  0  2  0  0  0  0  0  0
  161.6740  205.7080  146.3340 N   0  0  0  0  0  0  0  0  0  0  0  0
  162.6180  205.7360  145.2240 C   0  0  0  0  0  1  0  0  0  0  0  0
  160.7580  204.5700  146.1900 C   0  0  0  0  0  2  0  0  0  0  0  0
  161.3820  203.3430  145.5170 C   0  0  0  0  0  2  0  0  0  0  0  0
  160.7690  202.0700  146.0670 C   0  0  0  0  0  2  0  0  0  0  0  0
  160.7360  202.1380  147.5180 N   0  0  0  0  0  2  0  0  0  0  0  0
  161.1000  201.1680  149.8140 C   0  0  0  0  0  1  0  0  0  0  0  0
  161.1550  201.0450  148.3340 C   0  0  0  0  0  0  0  0  0  0  0  0
  161.5730  199.9760  147.8130 O   0  0  0  0  0  0  0  0  0  0  0  0
  1 11  2  0  0  0  0
  2  9  1  0  0  0  0
  3 11  1  0  0  0  0
  4  9  1  6  0  0  0
  4  1  1  0  0  0  0
  5 12  1  1  0  0  0
  5  4  1  0  0  0  0
  6  7  2  0  0  0  0
  6  8  1  0  0  0  0
  7 10  1  0  0  0  0
  8 16  1  0  0  0  0
  8  2  2  0  0  0  0
 10  2  1  0  0  0  0
 10  5  1  0  0  0  0
 12  3  2  0  0  0  0
 13 15  1  0  0  0  0
 13 16  1  0  0  0  0
 16 14  2  0  0  0  0
 17  7  1  0  0  0  0
 18 17  1  0  0  0  0
 19 18  1  0  0  0  0
 20 18  1  0  0  0  0
 21 22  1  0  0  0  0
 21 20  1  0  0  0  0
 22 23  1  0  0  0  0
 23 25  1  0  0  0  0
 25 24  1  0  0  0  0
 26 25  2  0  0  0  0
M  END
>  <MODEL>
7

>  <REMARK>
 VINA RESULT:      -6.5      2.682      6.520
  Name = 
  7 active torsions:
  status: ('A' for Active; 'I' for Inactive)
    1  A    between atoms: C_2  and  N_10
    2  A    between atoms: C_2  and  C_24
    3  A    between atoms: N_3  and  C_17
    4  A    between atoms: N_10  and  C_13
    5  A    between atoms: C_13  and  C_15
    6  A    between atoms: C_16  and  C_19
    7  A    between atoms: C_17  and  C_24
                            x       y       z     vdW  Elec       q    Type
                         _______ _______ _______ _____ _____    ______ ____

>  <TORSDO>
F 7

$$$$
=
 OpenBabel11042422313D

 26 28  0  0  1  0  0  0  0  0999 V2000
  160.4670  203.2320  149.3450 C   0  0  0  0  0  3  0  0  0  0  0  0
  161.2910  206.5200  150.5150 C   0  0  0  0  0  0  0  0  0  0  0  0
  161.3310  202.3450  151.4110 C   0  0  0  0  0  3  0  0  0  0  0  0
  160.4990  204.5520  149.9730 C   0  0  1  0  0  3  0  0  0  0  0  0
  160.4470  204.6480  151.4780 C   0  0  2  0  0  3  0  0  0  0  0  0
  161.6360  208.0520  152.0890 C   0  0  0  0  0  3  0  0  0  0  0  0
  161.2320  206.8360  152.6450 C   0  0  0  0  0  0  0  0  0  0  0  0
  161.6680  207.8320  150.7030 C   0  0  0  0  0  0  0  0  0  0  0  0
  160.9820  205.6570  149.3840 C   0  0  0  0  0  2  0  0  0  0  0  0
  161.0800  205.9290  151.6690 N   0  0  0  0  0  0  0  0  0  0  0  0
  160.8420  202.2070  150.0570 N   0  0  0  0  0  0  0  0  0  0  0  0
  161.2160  203.5050  152.0820 C   0  0  0  0  0  3  0  0  0  0  0  0
  161.9370  210.2190  149.9880 N   0  0  0  0  0  2  0  0  0  0  0  0
  162.2900  208.4510  148.5050 O   0  0  0  0  0  0  0  0  0  0  0  0
  162.2390  211.2440  149.0040 C   0  0  0  0  0  1  0  0  0  0  0  0
  161.9810  208.8270  149.6690 C   0  0  0  0  0  0  0  0  0  0  0  0
  160.9940  206.5720  154.0920 C   0  0  0  0  0  2  0  0  0  0  0  0
  160.6350  207.8120  154.7670 N   0  0  0  0  0  0  0  0  0  0  0  0
  159.3280  207.6360  155.3860 C   0  0  0  0  0  1  0  0  0  0  0  0
  161.6390  208.1380  155.7880 C   0  0  0  0  0  2  0  0  0  0  0  0
  161.6430  209.6090  156.2180 C   0  0  0  0  0  2  0  0  0  0  0  0
  161.8060  210.5100  155.0110 C   0  0  0  0  0  2  0  0  0  0  0  0
  160.7500  211.5090  155.0080 N   0  0  0  0  0  2  0  0  0  0  0  0
  158.6850  212.5820  154.0440 C   0  0  0  0  0  1  0  0  0  0  0  0
  159.7410  211.5370  153.9990 C   0  0  0  0  0  0  0  0  0  0  0  0
  159.7360  210.6860  153.0700 O   0  0  0  0  0  0  0  0  0  0  0  0
  1 11  2  0  0  0  0
  2  8  2  0  0  0  0
  2 10  1  0  0  0  0
  3 12  2  0  0  0  0
  4  1  1  1  0  0  0
  4  5  1  0  0  0  0
  5 10  1  0  0  0  0
  5 12  1  1  0  0  0
  6  7  2  0  0  0  0
  7 17  1  0  0  0  0
  8  6  1  0  0  0  0
  9  4  1  0  0  0  0
  9  2  1  0  0  0  0
 10  7  1  0  0  0  0
 11  3  1  0  0  0  0
 14 16  2  0  0  0  0
 15 13  1  0  0  0  0
 16 13  1  0  0  0  0
 16  8  1  0  0  0  0
 17 18  1  0  0  0  0
 18 19  1  0  0  0  0
 18 20  1  0  0  0  0
 20 21  1  0  0  0  0
 22 21  1  0  0  0  0
 23 22  1  0  0  0  0
 25 24  1  0  0  0  0
 25 23  1  0  0  0  0
 26 25  2  0  0  0  0
M  END
>  <MODEL>
8

>  <REMARK>
 VINA RESULT:      -6.5      2.768      4.304
  Name = 
  7 active torsions:
  status: ('A' for Active; 'I' for Inactive)
    1  A    between atoms: C_2  and  N_10
    2  A    between atoms: C_2  and  C_24
    3  A    between atoms: N_3  and  C_17
    4  A    between atoms: N_10  and  C_13
    5  A    between atoms: C_13  and  C_15
    6  A    between atoms: C_16  and  C_19
    7  A    between atoms: C_17  and  C_24
                            x       y       z     vdW  Elec       q    Type
                         _______ _______ _______ _____ _____    ______ ____

>  <TORSDO>
F 7

$$$$
=
 OpenBabel11042422313D

 26 28  0  0  1  0  0  0  0  0999 V2000
  161.8040  206.9350  146.3150 C   0  0  0  0  0  3  0  0  0  0  0  0
  161.3610  207.1490  149.8670 C   0  0  0  0  0  0  0  0  0  0  0  0
  162.3790  204.6120  146.5870 C   0  0  0  0  0  3  0  0  0  0  0  0
  161.3120  206.9080  147.6910 C   0  0  1  0  0  3  0  0  0  0  0  0
  160.8850  205.5900  148.2900 C   0  0  2  0  0  3  0  0  0  0  0  0
  160.8790  206.3220  151.8740 C   0  0  0  0  0  3  0  0  0  0  0  0
  160.7200  205.3570  150.8760 C   0  0  0  0  0  0  0  0  0  0  0  0
  161.2940  207.4830  151.2030 C   0  0  0  0  0  0  0  0  0  0  0  0
  161.5830  207.8490  148.6100 C   0  0  0  0  0  2  0  0  0  0  0  0
  161.0640  205.8820  149.6910 N   0  0  0  0  0  0  0  0  0  0  0  0
  162.2790  205.8300  145.8140 N   0  0  0  0  0  0  0  0  0  0  0  0
  161.7850  204.4950  147.7880 C   0  0  0  0  0  3  0  0  0  0  0  0
  160.5940  209.3480  152.7230 N   0  0  0  0  0  2  0  0  0  0  0  0
  162.5920  209.4360  151.5200 O   0  0  0  0  0  0  0  0  0  0  0  0
  160.7910  210.6430  153.3510 C   0  0  0  0  0  1  0  0  0  0  0  0
  161.5420  208.7980  151.8080 C   0  0  0  0  0  0  0  0  0  0  0  0
  160.2370  203.9630  151.0760 C   0  0  0  0  0  2  0  0  0  0  0  0
  161.2340  203.0200  150.5860 N   0  0  0  0  0  0  0  0  0  0  0  0
  161.8520  202.3670  151.7320 C   0  0  0  0  0  1  0  0  0  0  0  0
  160.5980  202.0210  149.7170 C   0  0  0  0  0  2  0  0  0  0  0  0
  161.5350  200.8960  149.2630 C   0  0  0  0  0  2  0  0  0  0  0  0
  161.1520  200.4180  147.8770 C   0  0  0  0  0  2  0  0  0  0  0  0
  160.7850  201.5600  147.0560 N   0  0  0  0  0  2  0  0  0  0  0  0
  160.0520  202.6190  144.8920 C   0  0  0  0  0  1  0  0  0  0  0  0
  160.4170  201.4170  145.6850 C   0  0  0  0  0  0  0  0  0  0  0  0
  160.3990  200.2810  145.1390 O   0  0  0  0  0  0  0  0  0  0  0  0
  2  8  2  0  0  0  0
  3 12  2  0  0  0  0
  4  1  1  1  0  0  0
  4  5  1  0  0  0  0
  4  9  1  0  0  0  0
  5 12  1  6  0  0  0
  5 10  1  0  0  0  0
  7 17  1  0  0  0  0
  7  6  2  0  0  0  0
  8 16  1  0  0  0  0
  8  6  1  0  0  0  0
  9  2  1  0  0  0  0
 10  2  1  0  0  0  0
 10  7  1  0  0  0  0
 11  1  2  0  0  0  0
 11  3  1  0  0  0  0
 13 15  1  0  0  0  0
 14 16  2  0  0  0  0
 16 13  1  0  0  0  0
 18 17  1  0  0  0  0
 18 19  1  0  0  0  0
 20 18  1  0  0  0  0
 21 20  1  0  0  0  0
 22 21  1  0  0  0  0
 23 22  1  0  0  0  0
 24 25  1  0  0  0  0
 25 23  1  0  0  0  0
 26 25  2  0  0  0  0
M  END
>  <MODEL>
9

>  <REMARK>
 VINA RESULT:      -6.3      2.389      7.422
  Name = 
  7 active torsions:
  status: ('A' for Active; 'I' for Inactive)
    1  A    between atoms: C_2  and  N_10
    2  A    between atoms: C_2  and  C_24
    3  A    between atoms: N_3  and  C_17
    4  A    between atoms: N_10  and  C_13
    5  A    between atoms: C_13  and  C_15
    6  A    between atoms: C_16  and  C_19
    7  A    between atoms: C_17  and  C_24
                            x       y       z     vdW  Elec       q    Type
                         _______ _______ _______ _____ _____    ______ ____

>  <TORSDO>
F 7

$$$$
